Measured thermophysical data. Liquid Liquid Equilibria of Binary and Ternary Systems Methanol/Water + n-Hexane, + n-Octane, + n-Dodecane, and + n-Hexadecane in the Temperature Range between T = 283.15 K and T = 333.15 K
Source: J. Chem. Eng. Data, 2016, 10.1021/acs.jced.6b00022
Compound 1: methanol, CH4O, InChI=1S/CH4O/c1-2/h2H,1H3, purity 99%
Compound 2: hexane, C6H14, InChI=1S/C6H14/c1-3-5-6-4-2/h3-6H2,1-2H3, purity 99%
Compound 3: octane, C8H18, InChI=1S/C8H18/c1-3-5-7-8-6-4-2/h3-8H2,1-2H3, purity 98%
Compound 4: dodecane, C12H26, InChI=1S/C12H26/c1-3-5-7-9-11-12-10-8-6-4-2/h3-12H2,1-2H3, purity 99%
Compound 5: hexadecane, C16H34, InChI=1S/C16H34/c1-3-5-7-9-11-13-15-16-14-12-10-8-6-4-2/h3-16H2,1-2H3, purity 99%
Compound 6: water, H2O, InChI=1S/H2O/h1H2, purity 99.8%

System: methanol + hexane + water; phases: Liquid mixture 2, Liquid mixture 1
Fixed: Pressure, kPa = 101.3
Property: Mole fraction of water (Liquid mixture 2); method: Chromatography
Property: Mole fraction of hexane (Liquid mixture 1); method: Chromatography
Property: Mole fraction of methanol (Liquid mixture 1); method: Chromatography
Temperature, K	Mole fraction of methanol	Mole fraction of water	uncertainty	Mole fraction of hexane	uncertainty	Mole fraction of methanol	uncertainty
283.15	0.00178	0.000408	8.2e-05	2.2e-05	5.7e-06	0.1942	
283.15	0.00386	0.000321	6.4e-05	0.000178	5.6e-05	0.3599	
283.15	0.00851	0.000285	5.7e-05	0.00218	0.00045	0.5663	
303.15	0.00384	0.000756	0.000151	3.51e-05	9.7e-06	0.1942	
303.15	0.00764	0.000772	0.000155	0.000321	8.7e-05	0.3598	
303.15	0.0152	0.000845	0.000169	0.00295	0.00061	0.5658	
323.15	0.00715	0.00125	0.00025	5.32e-05	1.47e-05	0.1942	
323.15	0.0129	0.00126	0.00025	0.000486	0.000128	0.3598	
323.15	0.024	0.00151	0.0003	0.00423	0.00087	0.5651	

System: methanol + octane + water; phases: Liquid mixture 2, Liquid mixture 1
Fixed: Pressure, kPa = 101.3
Property: Mole fraction of water (Liquid mixture 2); method: Chromatography
Property: Mole fraction of octane (Liquid mixture 1); method: Chromatography
Property: Mole fraction of methanol (Liquid mixture 1); method: Chromatography
Temperature, K	Mole fraction of methanol	Mole fraction of water	uncertainty	Mole fraction of octane	uncertainty	Mole fraction of methanol	uncertainty
283.15	0.00197	0.000367	7.4e-05	2.95e-06	6.8e-07	0.1942	
303.15	0.0083	0.000873	0.000175	6.29e-05	2.62e-05	0.3599	
303.15	0.0158	0.000945	0.000189	0.000869	0.000179	0.567	
333.15	0.0102	0.00138	0.00028	9.67e-06	2.37e-06	0.1942	
333.15	0.0129	0.00136	0.00027	3.74e-05	8.7e-06	0.2727	
333.15	0.0183	0.00135	0.00027	0.00014	4.8e-05	0.3599	
333.15	0.0337	0.00132	0.00026	0.00153	0.00032	0.5666	
283.15	0.00266	0.000344	6.9e-05	9.9e-06	2.33e-06	0.2727	
283.15	0.00412	0.000295	5.9e-05	3.98e-05	1.33e-05	0.3599	
283.15	0.00838	0.000254	5.1e-05	0.00042	8.7e-05	0.5673	
303.15	0.00438	0.000895	0.000179	5.15e-06	1.2e-06	0.1942	
303.15	0.00575	0.000815	0.000163	1.79e-05	4.1e-06	0.2727	

System: methanol + dodecane + water; phases: Liquid mixture 2, Liquid mixture 1
Fixed: Pressure, kPa = 101.3
Property: Mole fraction of water (Liquid mixture 2); method: Chromatography
Property: Mole fraction of dodecane (Liquid mixture 1); method: Chromatography
Property: Mole fraction of methanol (Liquid mixture 1); method: Chromatography
Temperature, K	Mole fraction of methanol	Mole fraction of water	uncertainty	Mole fraction of dodecane	uncertainty	Mole fraction of methanol	uncertainty
283.15	0.00219	0.000305	6.1e-05	4.2e-08	4.2e-08	0.1942	
323.15	0.0148	0.00122	0.00024	6.46e-06	1.94e-06	0.3599	
323.15	0.0251	0.00108	0.00022	7.22e-05	7.22e-05	0.5675	
323.15	0.138	0		0.00549	0.0011	0.9945	
283.15	0.00419	0.000232	4.7e-05	2.84e-06	7.7e-07	0.3599	
283.15	0.0076	0.000202	4.1e-05	2.6e-05	2.6e-05	0.5675	
283.15	0.0537	0		0.00219	0.00044	0.9978	
308.15	0.00481	0.000889	0.000178	1.54e-07	1e-07	0.1942	
308.15	0.00866	0.000855	0.000171	4.23e-06	1.22e-06	0.3599	
308.15	0.0143	0.000806	0.000161	4.37e-05	4.37e-05	0.5675	
308.15	0.088	0		0.00418	0.00084	0.9958	
323.15	0.00906	0.00146	0.00029	2.7e-07	1.55e-07	0.1942	

System: methanol + hexadecane + water; phases: Liquid mixture 1, Liquid mixture 2
Fixed: Pressure, kPa = 101.3
Property: Mole fraction of methanol (Liquid mixture 1); method: Chromatography
Property: Mole fraction of water (Liquid mixture 2); method: Chromatography
Property: Mole fraction of methanol (Liquid mixture 2); method: Chromatography
Temperature, K	Mole fraction of hexadecane	Mole fraction of methanol	uncertainty	Mole fraction of water	uncertainty	Mole fraction of methanol	uncertainty
293.15	1.82e-07	0.3599	0.072	0.000428	8.6e-05	0.00563	
303.15	2.79e-07	0.3599	0.072	0.0007	0.00014	0.00817	
323.15	4.49e-07	0.3599	0.072	0.00116	0.00023	0.0157	

System: methanol + dodecane; phases: Liquid mixture 2, Liquid mixture 1
Fixed: Pressure, kPa = 101.3
Property: Mole fraction of methanol (Liquid mixture 2); method: Chromatography
Temperature, K	Mole fraction of methanol	uncertainty
283.15	0.0537	0.0012
308.15	0.088	0.0019
323.15	0.138	0.003
