Measured thermophysical data. Liquid Viscosity and Interfacial Tension of Binary and Ternary Mixtures Containing n-Octacosane by Surface Light Scattering
Source: J. Chem. Eng. Data, 2019, 10.1021/acs.jced.8b01139
Compound 1: octacosane, C28H58, InChI=1S/C28H58/c1-3-5-7-9-11-13-15-17-19-21-23-25-27-28-26-24-22-20-18-16-14-12-10-8-6-4-2/h3-28H2,1-2H3, purity 99%
Compound 2: decane, C10H22, InChI=1S/C10H22/c1-3-5-7-9-10-8-6-4-2/h3-10H2,1-2H3, purity 99%
Compound 3: 2-methylnonane, C10H22, InChI=1S/C10H22/c1-4-5-6-7-8-9-10(2)3/h10H,4-9H2,1-3H3, purity 98%
Compound 4: 4-methylnonane, C10H22, InChI=1S/C10H22/c1-4-6-7-9-10(3)8-5-2/h10H,4-9H2,1-3H3, purity 98%
Compound 5: ethanol, C2H6O, InChI=1S/C2H6O/c1-2-3/h3H,2H2,1H3, purity 99.9%
Compound 6: dodecan-1-ol, C12H26O, InChI=1S/C12H26O/c1-2-3-4-5-6-7-8-9-10-11-12-13/h13H,2-12H2,1H3, purity 98%
Compound 7: formic acid, CH2O2, InChI=1S/CH2O2/c2-1-3/h1H,(H,2,3), purity 98%
Compound 8: acetic acid, C2H4O2, InChI=1S/C2H4O2/c1-2(3)4/h1H3,(H,3,4), purity 99%

System: octacosane + ethanol; phases: Liquid, Gas
Property: Viscosity, Pa*s (Liquid); method: Surface laser light scattering (SLLS)
Temperature, K	Mole fraction of ethanol	Viscosity, Pa*s	uncertainty
373.15	0.035	0.002558	9.3e-05
398.15	0.031	0.0018	5.8e-05
423.15	0.029	0.001362	4.7e-05
448.15	0.027	0.001083	3.8e-05
373.15	0.095	0.002499	0.000107
398.15	0.087	0.001761	6.3e-05
423.15	0.081	0.001322	5.8e-05
448.15	0.076	0.001053	4e-05
373.15	0.161	0.002495	8.4e-05
398.15	0.151	0.001698	6e-05
423.15	0.144	0.00131	4.9e-05
448.15	0.137	0.001019	3.8e-05
473.15	0.132	0.000835	3.2e-05
373.15	0.226	0.002333	8.2e-05
398.15	0.212	0.001645	6.4e-05
423.15	0.201	0.001263	4.4e-05
448.15	0.192	0.000977	3.4e-05
473.15	0.184	0.000817	2.8e-05

System: octacosane + ethanol; phases: Liquid, Gas
Property: Surface tension liquid-gas, N/m (Liquid); method: Surface laser light scattering (SLLS)
Temperature, K	Mole fraction of ethanol	Surface tension liquid-gas, N/m	uncertainty
373.15	0.035	0.02296	0.00065
398.15	0.031	0.0204	0.0005
423.15	0.029	0.01907	0.00043
448.15	0.027	0.01768	0.00042
373.15	0.095	0.02291	0.00054
398.15	0.087	0.02106	0.00056
423.15	0.081	0.01947	0.00051
448.15	0.076	0.01816	0.00039
373.15	0.161	0.02294	0.00054
398.15	0.151	0.02064	0.00048
423.15	0.144	0.01936	0.00049
448.15	0.137	0.01788	0.00042
473.15	0.132	0.01679	0.00033
373.15	0.226	0.02204	0.00056
398.15	0.212	0.02035	0.00058
423.15	0.201	0.0188	0.0004
448.15	0.192	0.01739	0.00032
473.15	0.184	0.01615	0.00032

System: octacosane + dodecan-1-ol; phases: Liquid, Gas
Property: Viscosity, Pa*s (Liquid); method: Surface laser light scattering (SLLS)
Temperature, K	Mole fraction of dodecan-1-ol	Viscosity, Pa*s	uncertainty
373.15	0.08	0.002506	9.6e-05
398.15	0.08	0.001758	7e-05
423.15	0.08	0.001304	4.7e-05
448.15	0.08	0.001032	4.1e-05
473.15	0.08	0.000817	3.3e-05
373.15	0.149	0.002323	8.9e-05
398.15	0.149	0.001644	6.7e-05
423.15	0.149	0.001278	6e-05
448.15	0.149	0.001014	3.8e-05

System: octacosane + dodecan-1-ol; phases: Liquid, Gas
Property: Surface tension liquid-gas, N/m (Liquid); method: Surface laser light scattering (SLLS)
Temperature, K	Mole fraction of dodecan-1-ol	Surface tension liquid-gas, N/m	uncertainty
373.15	0.08	0.02259	0.00051
398.15	0.08	0.02079	0.00057
423.15	0.08	0.01962	0.00043
448.15	0.08	0.01806	0.00037
473.15	0.08	0.01661	0.00039
373.15	0.149	0.02287	0.00068
398.15	0.149	0.02063	0.00047
423.15	0.149	0.01955	0.0005
448.15	0.149	0.01801	0.00043

System: octacosane + decane; phases: Liquid, Gas
Fixed: Temperature, K = 423.15
Property: Viscosity, Pa*s (Liquid); method: Surface laser light scattering (SLLS)
Mole fraction of decane	Viscosity, Pa*s	uncertainty
0.1	0.001289	4.6e-05
0.199	0.001199	4.3e-05
0.399	0.000995	3.7e-05

System: octacosane + decane; phases: Liquid, Gas
Fixed: Temperature, K = 423.15
Property: Surface tension liquid-gas, N/m (Liquid); method: Surface laser light scattering (SLLS)
Mole fraction of decane	Surface tension liquid-gas, N/m	uncertainty
0.1	0.01917	0.00045
0.199	0.01885	0.00039
0.399	0.01755	0.00033

System: octacosane + 2-methylnonane; phases: Liquid, Gas
Property: Viscosity, Pa*s (Liquid); method: Surface laser light scattering (SLLS)
Temperature, K	Mole fraction of 2-methylnonane	Viscosity, Pa*s	uncertainty
423.15	0.026	0.001349	9.1e-05
448.15	0.025	0.001063	5.2e-05
473.15	0.025	0.000864	3.5e-05
498.15	0.024	0.000724	3e-05

System: octacosane + 2-methylnonane; phases: Liquid, Gas
Property: Surface tension liquid-gas, N/m (Liquid); method: Surface laser light scattering (SLLS)
Temperature, K	Mole fraction of 2-methylnonane	Surface tension liquid-gas, N/m	uncertainty
423.15	0.026	0.0143	0.00061
448.15	0.025	0.01301	0.00067
473.15	0.025	0.01223	0.00036
498.15	0.024	0.01154	0.00029

System: octacosane + 4-methylnonane; phases: Liquid, Gas
Property: Viscosity, Pa*s (Liquid); method: Surface laser light scattering (SLLS)
Temperature, K	Mole fraction of 4-methylnonane	Viscosity, Pa*s	uncertainty
398.15	0.026	0.001769	6.6e-05
423.15	0.026	0.001392	5.3e-05
448.15	0.025	0.001064	3.8e-05
473.15	0.025	0.000895	3.2e-05
498.15	0.025	0.000751	2.7e-05
423.15	0.1	0.00125	4.9e-05
423.15	0.199	0.001156	6.4e-05
423.15	0.399	0.000978	4e-05

System: octacosane + 4-methylnonane; phases: Liquid, Gas
Property: Surface tension liquid-gas, N/m (Liquid); method: Surface laser light scattering (SLLS)
Temperature, K	Mole fraction of 4-methylnonane	Surface tension liquid-gas, N/m	uncertainty
398.15	0.026	0.01565	0.00042
423.15	0.026	0.01461	0.00026
448.15	0.025	0.01337	0.00026
473.15	0.025	0.0127	0.00026
498.15	0.025	0.01204	0.00025
423.15	0.1	0.01382	0.00029
423.15	0.199	0.01344	0.0007
423.15	0.399	0.01316	0.00037

System: octacosane + formic acid; phases: Liquid, Gas
Fixed: Temperature, K = 423.15
Property: Viscosity, Pa*s (Liquid); method: Surface laser light scattering (SLLS)
Mole fraction of formic acid	Viscosity, Pa*s	uncertainty
0.023	0.001395	5e-05
0.047	0.001322	5.2e-05
0.095	0.001285	5.2e-05

System: octacosane + formic acid; phases: Liquid, Gas
Fixed: Temperature, K = 423.15
Property: Surface tension liquid-gas, N/m (Liquid); method: Surface laser light scattering (SLLS)
Mole fraction of formic acid	Surface tension liquid-gas, N/m	uncertainty
0.023	0.01944	0.00037
0.047	0.01891	0.00047
0.095	0.01836	0.00035

System: octacosane + acetic acid; phases: Liquid, Gas
Property: Viscosity, Pa*s (Liquid); method: Surface laser light scattering (SLLS)
Temperature, K	Mole fraction of acetic acid	Viscosity, Pa*s	uncertainty
398.15	0.033	0.001799	6.6e-05
423.15	0.033	0.001348	4.6e-05
423.15	0.107	0.001301	5.2e-05
423.15	0.209	0.001235	4.7e-05

System: octacosane + acetic acid; phases: Liquid, Gas
Property: Surface tension liquid-gas, N/m (Liquid); method: Surface laser light scattering (SLLS)
Temperature, K	Mole fraction of acetic acid	Surface tension liquid-gas, N/m	uncertainty
398.15	0.033	0.0206	0.00048
423.15	0.033	0.01937	0.00042
423.15	0.107	0.01849	0.00047
423.15	0.209	0.01798	0.00042

System: octacosane + decane + ethanol; phases: Liquid, Gas
Property: Viscosity, Pa*s (Liquid); method: Surface laser light scattering (SLLS)
Temperature, K	Mole fraction of decane	Mole fraction of ethanol	Viscosity, Pa*s	uncertainty
423.15	0.598	0.199	0.00052	2.1e-05
473.15	0.615	0.175	0.000347	1.6e-05

System: octacosane + decane + ethanol; phases: Liquid, Gas
Property: Surface tension liquid-gas, N/m (Liquid); method: Surface laser light scattering (SLLS)
Temperature, K	Mole fraction of decane	Mole fraction of ethanol	Surface tension liquid-gas, N/m	uncertainty
423.15	0.598	0.199	0.01394	0.00024
473.15	0.615	0.175	0.01062	0.0002
