Measured thermophysical data. Solid-Liquid Phase Equilibria of the KH2PO4-KCl-H3PO4-H2O and KH2PO4-KCl-C2H5OH-H2O Systems at T = (298.15 and 313.15) K
Source: J. Chem. Eng. Data, 2018, 10.1021/acs.jced.8b00081
Compound 1: potassium chloride, ClK, InChI=1S/ClH.K/h1H;/q;+1/p-1, purity 99.5%
Compound 2: monopotassium phosphate, H2KO4P, InChI=1S/K.H3O4P/c;1-5(2,3)4/h;(H3,1,2,3,4)/q+1;/p-1, purity 99%
Compound 3: water, H2O, InChI=1S/H2O/h1H2, purity 99.7%
Compound 4: ethanol, C2H6O, InChI=1S/C2H6O/c1-2-3/h3H,2H2,1H3, purity 99.9%

System: potassium chloride + water; phases: Liquid, Crystal
Fixed: Pressure, kPa = 88.35
Property: Mass fraction of potassium chloride (Liquid); method: Titration method
Temperature, K	Mass fraction of potassium chloride	uncertainty
298.15	0.2672	0.0267
313.15	0.29	0.029

System: potassium chloride + water; phases: Liquid
Fixed: Pressure, kPa = 88.35
Property: Mass density, kg/m3 (Liquid); method: Pycnometric method
Temperature, K	Mass fraction of potassium chloride	Mass density, kg/m3	uncertainty
298.15	0.2672	1180	12.2
313.15	0.29	1192	12.4

System: potassium chloride + water + ethanol; phases: Liquid, Crystal
Fixed: Temperature, K = 298.15
Fixed: Pressure, kPa = 88.35
Property: Mass fraction of potassium chloride (Liquid); method: Titration method
Solvent: Mass fraction of ethanol	Mass fraction of potassium chloride	uncertainty
0.1	0.2151	0.0215
0.3	0.13	0.013
0.5	0.0641	0.0064

System: potassium chloride + water + ethanol; phases: Liquid
Fixed: Temperature, K = 298.15
Fixed: Pressure, kPa = 88.35
Property: Mass density, kg/m3 (Liquid); method: Pycnometric method
Solvent: Mass fraction of ethanol	Mass fraction of potassium chloride	Mass density, kg/m3	uncertainty
0.1	0.2151	1055	10.8
0.3	0.13	1031	10.4
0.5	0.0641	950.5	21.3

System: potassium chloride + water + ethanol; phases: Liquid
Fixed: Temperature, K = 298.15
Fixed: Pressure, kPa = 88.35
Property: Viscosity, Pa*s (Liquid); method: Capillary tube (Ostwald; Ubbelohde) method
Solvent: Mass fraction of ethanol	Mass fraction of potassium chloride	Viscosity, Pa*s	uncertainty
0.1	0.2151	0.001462	0.000146
0.3	0.13	0.001955	0.000196
0.5	0.0641	0.002088	0.000241

System: potassium chloride + monopotassium phosphate + water; phases: Liquid, Crystal
Fixed: Pressure, kPa = 88.35
Property: Mass fraction of monopotassium phosphate (Liquid); method: Titration method
Temperature, K	Mass fraction of potassium chloride	Mass fraction of monopotassium phosphate	uncertainty
298.15	0.2509	0.0357	0.0007
313.15	0.2672	0.0433	0.0009

System: potassium chloride + monopotassium phosphate + water; phases: Liquid
Fixed: Pressure, kPa = 88.35
Property: Mass density, kg/m3 (Liquid); method: Pycnometric method
Temperature, K	Mass fraction of potassium chloride	Mass fraction of monopotassium phosphate	Mass density, kg/m3	uncertainty
298.15	0.2509	0.0357	1193.1	12.3
313.15	0.2672	0.0433	1219.9	12.6

System: potassium chloride + monopotassium phosphate + water; phases: Liquid, Crystal
Fixed: Pressure, kPa = 88.35
Property: Mass fraction of monopotassium phosphate (Liquid); method: Titration method
Temperature, K	Mass fraction of potassium chloride	Mass fraction of monopotassium phosphate	uncertainty
298.15	0.2509	0.0357	0.0007
313.15	0.2672	0.0433	0.0009

System: potassium chloride + monopotassium phosphate + water; phases: Liquid
Fixed: Pressure, kPa = 88.35
Property: Viscosity, Pa*s (Liquid); method: Capillary tube (Ostwald; Ubbelohde) method
Temperature, K	Mass fraction of potassium chloride	Mass fraction of monopotassium phosphate	Viscosity, Pa*s	uncertainty
298.15	0.2509	0.0357	0.000881	8.8e-05
313.15	0.2672	0.0433	0.000691	6.9e-05

System: monopotassium phosphate + water + ethanol; phases: Liquid, Crystal
Fixed: Temperature, K = 298.15
Fixed: Pressure, kPa = 88.35
Property: Mass fraction of monopotassium phosphate (Liquid); method: Titration method
Solvent: Mass fraction of ethanol	Mass fraction of monopotassium phosphate	uncertainty
0.1	0.1038	0.0021
0.3	0.0255	0.0006
0.5	0.0069	0.0002

System: monopotassium phosphate + water + ethanol; phases: Liquid
Fixed: Temperature, K = 298.15
Fixed: Pressure, kPa = 88.35
Property: Mass density, kg/m3 (Liquid); method: Pycnometric method
Solvent: Mass fraction of ethanol	Mass fraction of monopotassium phosphate	Mass density, kg/m3	uncertainty
0.1	0.1038	1055	11
0.3	0.0255	970	10
0.5	0.0069	889	9

System: monopotassium phosphate + water + ethanol; phases: Liquid
Fixed: Temperature, K = 298.15
Fixed: Pressure, kPa = 88.35
Property: Viscosity, Pa*s (Liquid); method: Capillary tube (Ostwald; Ubbelohde) method
Solvent: Mass fraction of ethanol	Mass fraction of monopotassium phosphate	Viscosity, Pa*s	uncertainty
0.1	0.1038	0.00113	0.000113
0.3	0.0255	0.001725	0.000173
0.5	0.0069	0.00214	0.000214
