Measured thermophysical data. Determination of Activity Coefficients, Osmotic Coefficients, and Excess Gibbs Free Energies of KCl and KBr Aqueous Mixtures at 298.15 K
Source: J. Chem. Eng. Data, 2018, 10.1021/acs.jced.7b00460
Compound 1: potassium chloride, ClK, InChI=1S/ClH.K/h1H;/q;+1/p-1
Compound 2: potassium bromide, BrK, InChI=1S/BrH.K/h1H;/q;+1/p-1
Compound 3: water, H2O, InChI=1S/H2O/h1H2, purity 99.9%

System: potassium chloride + potassium bromide + water; phases: Liquid, Gas
Fixed: Temperature, K = 298.15
Property: Osmotic coefficient (Liquid); method: ISOPIE
Molality, mol/kg of potassium chloride	Molality, mol/kg of potassium bromide	Osmotic coefficient	uncertainty
0.0801	0.2403	0.9096	0.0035
0.1209	0.3627	0.9058	0.0036
0.1516	0.4548	0.9045	0.0037
0.2132	0.6396	0.905	0.0037
0.239	0.717	0.907	0.0036
0.2507	0.7521	0.9073	0.0036
0.3754	1.1262	0.9159	0.0033
0.4973	1.4919	0.9272	0.0028
0.6351	1.9053	0.9415	0.0023
0.7636	2.2908	0.9551	0.0017
0.8861	2.6583	0.9702	0.0012
1.0021	3.0063	0.9831	0.0007
1.1305	3.3915	0.9985	0.0002
1.2007	3.6021	1.0061	0.0003
1.2225	3.6675	1.009	0.0004
0.2008	0.193	0.9068	0.0036
0.2586	0.2485	0.9043	0.0037
0.3183	0.3058	0.9034	0.0037
0.3807	0.3658	0.9021	0.0038
0.4777	0.459	0.9028	0.0038
0.5626	0.5405	0.904	0.0037
0.6387	0.6137	0.9063	0.0036
0.7749	0.7445	0.9118	0.0034
0.9373	0.9005	0.9177	0.0032
1.2383	1.1898	0.9322	0.0026
1.7384	1.6703	0.9592	0.0016
2.0798	1.9983	0.9786	0.0008
2.3451	2.2532	0.9948	0.0003
2.5252	2.4261	1.0053	0.0003
0.3103	0.1034	0.9048	0.0037
0.3521	0.1174	0.9037	0.0037
0.4747	0.1582	0.9012	0.0038
0.6476	0.2159	0.8998	0.0039
0.7297	0.2432	0.9002	0.0039
0.8597	0.2866	0.9022	0.0038
1.3272	0.4424	0.9131	0.0034
1.5839	0.528	0.9208	0.0031
1.9164	0.6388	0.932	0.0026
2.3608	0.7869	0.9476	0.002
2.7753	0.9251	0.963	0.0014
3.0283	1.0094	0.9722	0.0011
3.4935	1.1645	0.9902	0.0004
3.6221	1.2074	0.9952	0.0003
3.7301	1.2434	1.0008	0.0002
