Measured thermophysical data. Measurement and Correlation of Isobaric Vapor Liquid Equilibrium for Binary Systems of 1-(Ethoxymethoxy)-2-methyl-propane with Isobutyl Alcohol or 1-Butanol at 101.33 kPa
Source: J. Chem. Eng. Data, 2017, 10.1021/acs.jced.7b00377
Compound 1: 2-methyl-1-propanol, C4H10O, InChI=1S/C4H10O/c1-4(2)3-5/h4-5H,3H2,1-2H3, purity 99.8%
Compound 2: butan-1-ol, C4H10O, InChI=1S/C4H10O/c1-2-3-4-5/h5H,2-4H2,1H3, purity 99.8%
Compound 3: 1-(ethoxymethoxy)-2-methylpropane, C7H16O2, InChI=1S/C7H16O2/c1-4-8-6-9-5-7(2)3/h7H,4-6H2,1-3H3

System: 2-methyl-1-propanol; phases: Liquid
Property: Mass density, kg/m3 (Liquid); method: Pycnometric method
Temperature, K	Pressure, kPa	Mass density, kg/m3	uncertainty
293.15	101.33	801.8	0.6

System: 2-methyl-1-propanol; phases: Liquid
Property: Refractive index (Na D-line) (Liquid); method: Standard Abbe refractometry
Temperature, K	Pressure, kPa	Refractive index (Na D-line)	uncertainty
298.15	101.33	1.3939	0.0004

System: 2-methyl-1-propanol; phases: Liquid, Gas
Property: Vapor or sublimation pressure, kPa (Liquid); method: Ebulliometric method (Recirculating still)
Temperature, K	Vapor or sublimation pressure, kPa	uncertainty
381.08	101.33	0.7

System: butan-1-ol; phases: Liquid
Property: Mass density, kg/m3 (Liquid); method: Pycnometric method
Temperature, K	Pressure, kPa	Mass density, kg/m3	uncertainty
298.15	101.33	809.5	0.6

System: butan-1-ol; phases: Liquid
Property: Refractive index (Na D-line) (Liquid); method: Standard Abbe refractometry
Temperature, K	Pressure, kPa	Refractive index (Na D-line)	uncertainty
298.15	101.33	1.3971	0.0004

System: butan-1-ol; phases: Liquid, Gas
Property: Vapor or sublimation pressure, kPa (Liquid); method: Ebulliometric method (Recirculating still)
Temperature, K	Vapor or sublimation pressure, kPa	uncertainty
390.9	101.33	0.7

System: 1-(ethoxymethoxy)-2-methylpropane; phases: Liquid
Property: Mass density, kg/m3 (Liquid); method: Pycnometric method
Temperature, K	Pressure, kPa	Mass density, kg/m3	uncertainty
298.15	101.33	823.8	0.6

System: 1-(ethoxymethoxy)-2-methylpropane; phases: Liquid
Property: Refractive index (Na D-line) (Liquid); method: Standard Abbe refractometry
Temperature, K	Pressure, kPa	Refractive index (Na D-line)	uncertainty
298.15	101.33	1.3873	0.0004

System: 1-(ethoxymethoxy)-2-methylpropane; phases: Liquid, Gas
Property: Vapor or sublimation pressure, kPa (Liquid); method: Ebulliometric method (Recirculating still)
Temperature, K	Vapor or sublimation pressure, kPa	uncertainty
320.54	5	0.05
335.1	10	0.06
344.53	15	0.09
351.76	20.02	0.12
359.38	26.67	0.17
370.93	39.9	0.23
379.83	53.33	0.3
386.16	64.8	0.37
393.18	79.6	0.44
397.46	89.9	0.5
401.87	101.33	0.55
405.77	112	0.61
410.02	125	0.67

System: 2-methyl-1-propanol + 1-(ethoxymethoxy)-2-methylpropane; phases: Liquid, Gas
Fixed: Pressure, kPa = 101.33
Property: Boiling temperature at pressure P, K (Liquid); method: Ebulliometric method (Recirculating still)
Mole fraction of 2-methyl-1-propanol	Boiling temperature at pressure P, K	uncertainty
0	401.87	0.16
0.018	400.95	0.3
0.0896	396.31	0.27
0.1604	393.03	0.24
0.2326	389.98	0.21
0.2981	388.27	0.19
0.3686	386.68	0.18
0.448	385.4	0.17
0.5065	384.59	0.17
0.5712	383.82	0.17
0.6352	383.1	0.16
0.6951	382.57	0.16
0.7455	382.09	0.16
0.7902	381.81	0.16
0.829	381.64	0.16
0.845	381.57	0.16
0.8684	381.48	0.16
0.891	381.38	0.16
0.9216	381.26	0.16
0.9556	381.15	0.16
0.9907	381.1	0.16
1	381.08	0.16

System: 2-methyl-1-propanol + 1-(ethoxymethoxy)-2-methylpropane; phases: Gas, Liquid
Fixed: Pressure, kPa = 101.33
Property: Mole fraction of 2-methyl-1-propanol (Gas); method: Chromatography
Mole fraction of 2-methyl-1-propanol	Mole fraction of 2-methyl-1-propanol	uncertainty
0	0	
0.018	0.0546	0.0102
0.0896	0.2142	0.009
0.1604	0.3334	0.0077
0.2326	0.4269	0.0071
0.2981	0.4919	0.0069
0.3686	0.5554	0.0064
0.448	0.6154	0.006
0.5065	0.6576	0.0056
0.5712	0.696	0.0053
0.6352	0.7353	0.0052
0.6951	0.7719	0.0051
0.7455	0.8041	0.005
0.7902	0.8306	0.005
0.829	0.8578	0.005
0.845	0.8692	0.0051
0.8684	0.8866	0.0051
0.891	0.9034	0.0051
0.9216	0.928	0.0053
0.9556	0.9581	0.0054
0.9907	0.9909	0.0055
1	1	

System: butan-1-ol + 1-(ethoxymethoxy)-2-methylpropane; phases: Liquid, Gas
Fixed: Pressure, kPa = 101.33
Property: Boiling temperature at pressure P, K (Liquid); method: Ebulliometric method (Recirculating still)
Mole fraction of butan-1-ol	Boiling temperature at pressure P, K	uncertainty
0	401.87	0.16
0.0233	400.79	0.22
0.1127	397.45	0.21
0.1926	394.96	0.19
0.263	393.43	0.18
0.335	392.28	0.17
0.4248	391.25	0.16
0.5169	390.35	0.16
0.583	389.98	0.16
0.6448	389.79	0.16
0.6944	389.69	0.16
0.7424	389.67	0.16
0.7946	389.74	0.16
0.8358	389.82	0.16
0.8792	389.94	0.16
0.9259	390.11	0.16
0.9403	390.2	0.16
0.9648	390.43	0.16
0.9905	390.72	0.17
1	390.9	0.16

System: butan-1-ol + 1-(ethoxymethoxy)-2-methylpropane; phases: Gas, Liquid
Fixed: Pressure, kPa = 101.33
Property: Mole fraction of butan-1-ol (Gas); method: Chromatography
Mole fraction of butan-1-ol	Mole fraction of butan-1-ol	uncertainty
0	0	
0.0233	0.0542	0.0083
0.1127	0.2078	0.0075
0.1926	0.3138	0.0069
0.263	0.3918	0.0066
0.335	0.4557	0.0065
0.4248	0.5256	0.0064
0.5169	0.589	0.006
0.583	0.636	0.0058
0.6448	0.6763	0.0056
0.6944	0.7106	0.0055
0.7424	0.7453	0.0055
0.7946	0.7856	0.0055
0.8358	0.8208	0.0056
0.8792	0.861	0.0057
0.9259	0.9074	0.0058
0.9403	0.9245	0.0062
0.9648	0.9533	0.0064
0.9905	0.987	0.0066
1	1	
