Measured thermophysical data. Isobaric Vapor-Liquid Equilibrium for the Binary Systems of 1,2-Dichloroethane + sec-Butyl Acetate, n-Propyl Acetate, and tert-Butyl Acetate at 101.3 kPa
Source: J. Chem. Eng. Data, 2018, 10.1021/acs.jced.8b00434
Compound 1: 1,2-dichloroethane, C2H4Cl2, InChI=1S/C2H4Cl2/c3-1-2-4/h1-2H2, purity 99.5%
Compound 2: 1-methylpropyl ethanoate, C6H12O2, InChI=1S/C6H12O2/c1-4-5(2)8-6(3)7/h5H,4H2,1-3H3, purity 99%
Compound 3: propyl ethanoate, C5H10O2, InChI=1S/C5H10O2/c1-3-4-7-5(2)6/h3-4H2,1-2H3, purity 99.4%
Compound 4: 1,1-dimethylethyl ethanoate, C6H12O2, InChI=1S/C6H12O2/c1-5(7)8-6(2,3)4/h1-4H3, purity 99.83%

System: 1,2-dichloroethane; phases: Liquid, Gas
Property: Vapor or sublimation pressure, kPa (Liquid); method: Ebulliometric method (Recirculating still)
Temperature, K	Vapor or sublimation pressure, kPa	uncertainty
356.59	101.3	9.1

System: 1-methylpropyl ethanoate; phases: Liquid, Gas
Property: Vapor or sublimation pressure, kPa (Liquid); method: Ebulliometric method (Recirculating still)
Temperature, K	Vapor or sublimation pressure, kPa	uncertainty
385.15	101.3	9.1

System: propyl ethanoate; phases: Liquid, Gas
Property: Vapor or sublimation pressure, kPa (Liquid); method: Ebulliometric method (Recirculating still)
Temperature, K	Vapor or sublimation pressure, kPa	uncertainty
374.65	101.3	9.1

System: 1,1-dimethylethyl ethanoate; phases: Liquid, Gas
Property: Vapor or sublimation pressure, kPa (Liquid); method: Ebulliometric method (Recirculating still)
Temperature, K	Vapor or sublimation pressure, kPa	uncertainty
369.15	101.3	9.1

System: 1,2-dichloroethane + 1-methylpropyl ethanoate; phases: Liquid, Gas
Fixed: Pressure, kPa = 101.3
Property: Boiling temperature at pressure P, K (Liquid); method: Ebulliometric method (Recirculating still)
Mole fraction of 1,2-dichloroethane	Boiling temperature at pressure P, K	uncertainty
1	356.59	1.81
0.9154	358.11	1.82
0.8707	358.99	1.82
0.8297	359.83	1.81
0.7892	360.49	1.81
0.7448	361.28	1.81
0.7096	361.83	1.81
0.6792	362.19	1.82
0.615	363.8	1.82
0.5684	365.02	1.82
0.5273	366.12	1.83
0.4934	367.03	1.82
0.4485	368.01	1.83
0.4	369.55	1.84
0.3589	370.96	1.83
0.319	372.05	1.83
0.2522	374.25	1.84
0.1814	376.58	1.84
0.1303	378.56	1.86
0.0797	380.91	1.87
0.0459	382.54	1.88
0	385.15	1.81

System: 1,2-dichloroethane + 1-methylpropyl ethanoate; phases: Gas, Liquid
Fixed: Pressure, kPa = 101.3
Property: Mole fraction of 1,2-dichloroethane (Gas); method: Chromatography
Mole fraction of 1,2-dichloroethane	Mole fraction of 1,2-dichloroethane	uncertainty
1	1	
0.9154	0.9603	0.0111
0.8707	0.9387	0.0112
0.8297	0.9178	0.0113
0.7892	0.8959	0.0115
0.7448	0.8709	0.0115
0.7096	0.851	0.0116
0.6792	0.8338	0.0119
0.615	0.7928	0.0121
0.5684	0.7609	0.0125
0.5273	0.7298	0.0129
0.4934	0.7029	0.0131
0.4485	0.6658	0.0136
0.4	0.621	0.0143
0.3589	0.5796	0.015
0.319	0.5356	0.016
0.2522	0.454	0.017
0.1814	0.3548	0.0182
0.1303	0.271	0.0203
0.0797	0.177	0.0219
0.0459	0.1067	0.0244
0	0	

System: 1,2-dichloroethane + propyl ethanoate; phases: Liquid, Gas
Fixed: Pressure, kPa = 101.3
Property: Boiling temperature at pressure P, K (Liquid); method: Ebulliometric method (Recirculating still)
Mole fraction of 1,2-dichloroethane	Boiling temperature at pressure P, K	uncertainty
1	356.59	1.81
0.8674	358.03	1.81
0.8347	358.45	1.81
0.7962	358.84	1.81
0.7612	359.19	1.81
0.7308	359.47	1.81
0.6846	359.91	1.81
0.6462	360.43	1.81
0.5579	361.97	1.81
0.5484	362.17	1.81
0.5063	362.61	1.81
0.4434	363.73	1.82
0.3865	365.22	1.82
0.318	366.39	1.81
0.2899	366.9	1.82
0.2448	367.84	1.82
0.1892	369.01	1.82
0.1594	369.75	1.83
0.0818	372.06	1.83
0.0537	372.79	1.83
0	374.65	1.81

System: 1,2-dichloroethane + propyl ethanoate; phases: Gas, Liquid
Fixed: Pressure, kPa = 101.3
Property: Mole fraction of 1,2-dichloroethane (Gas); method: Chromatography
Mole fraction of 1,2-dichloroethane	Mole fraction of 1,2-dichloroethane	uncertainty
1	1	
0.8674	0.9106	0.0122
0.8347	0.888	0.0123
0.7962	0.8605	0.0124
0.7612	0.8349	0.0125
0.7308	0.8124	0.0126
0.6846	0.7781	0.0127
0.6462	0.7488	0.0129
0.5579	0.6798	0.013
0.5484	0.6741	0.013
0.5063	0.6395	0.0138
0.4434	0.5802	0.0141
0.3865	0.5288	0.0146
0.318	0.4568	0.015
0.2899	0.4277	0.0154
0.2448	0.376	0.0161
0.1892	0.3048	0.0166
0.1594	0.2642	0.0181
0.0818	0.145	0.0186
0.0537	0.0983	0.0204
0	0	

System: 1,2-dichloroethane + 1,1-dimethylethyl ethanoate; phases: Liquid, Gas
Fixed: Pressure, kPa = 101.3
Property: Boiling temperature at pressure P, K (Liquid); method: Ebulliometric method (Recirculating still)
Mole fraction of 1,2-dichloroethane	Boiling temperature at pressure P, K	uncertainty
1	356.59	1.81
0.9352	358.06	1.82
0.8938	358.8	1.81
0.8222	359.64	1.81
0.7663	360.34	1.81
0.703	361.21	1.81
0.6625	361.82	1.81
0.6017	362.45	1.81
0.5543	363.24	1.81
0.5017	363.82	1.81
0.4642	364.46	1.81
0.4084	365.07	1.81
0.3444	365.77	1.81
0.2955	366.24	1.81
0.2523	366.75	1.81
0.2159	367.19	1.81
0.1866	367.65	1.81
0.1324	368.15	1.81
0.1074	368.46	1.81
0	369.15	1.81

System: 1,2-dichloroethane + 1,1-dimethylethyl ethanoate; phases: Gas, Liquid
Fixed: Pressure, kPa = 101.3
Property: Mole fraction of 1,2-dichloroethane (Gas); method: Chromatography
Mole fraction of 1,2-dichloroethane	Mole fraction of 1,2-dichloroethane	uncertainty
1	1	
0.9352	0.962	0.0117
0.8938	0.9347	0.0123
0.8222	0.8823	0.0126
0.7663	0.8387	0.0129
0.703	0.7858	0.0134
0.6625	0.7484	0.0138
0.6017	0.6926	0.014
0.5543	0.6469	0.0143
0.5017	0.5956	0.0147
0.4642	0.5552	0.0152
0.4084	0.4945	0.0156
0.3444	0.4218	0.0156
0.2955	0.3651	0.0156
0.2523	0.3151	0.0157
0.2159	0.2716	0.0162
0.1866	0.233	0.0161
0.1324	0.1675	0.0159
0.1074	0.1351	0.0164
0	0	
