Measured thermophysical data. Liquid-Liquid Equilibrium for Ternary Systems of Polyoxymethylene Dimethyl Ethers + o-Xylene + Water at 293.15 K
Source: J. Chem. Eng. Data, 2019, 10.1021/acs.jced.8b00891
Compound 1: water, H2O, InChI=1S/H2O/h1H2, purity 99.8%
Compound 2: 1,2-dimethylbenzene, C8H10, InChI=1S/C8H10/c1-7-5-3-4-6-8(7)2/h3-6H,1-2H3, purity 99.5%
Compound 3: dimethoxymethane, C3H8O2, InChI=1S/C3H8O2/c1-4-3-5-2/h3H2,1-2H3, purity 99.5%
Compound 4: 2,4,6-trioxaheptane, C4H10O3, InChI=1S/C4H10O3/c1-5-3-7-4-6-2/h3-4H2,1-2H3
Compound 5: 2,4,6,8-tetraoxanonane, C5H12O4, InChI=1S/C5H12O4/c1-6-3-8-5-9-4-7-2/h3-5H2,1-2H3
Compound 6: 2,4,6,8,10-pentaoxaundecane, C6H14O5, InChI=1S/C6H14O5/c1-7-3-9-5-11-6-10-4-8-2/h3-6H2,1-2H3

System: water + dimethoxymethane + 1,2-dimethylbenzene; phases: Liquid mixture 2, Liquid mixture 1
Fixed: Temperature, K = 293.15
Fixed: Pressure, kPa = 101.3
Property: Mass fraction of 1,2-dimethylbenzene (Liquid mixture 2); method: Chromatography
Property: Mass fraction of 1,2-dimethylbenzene (Liquid mixture 1); method: Chromatography
Property: Mass fraction of dimethoxymethane (Liquid mixture 1); method: Chromatography
Mass fraction of dimethoxymethane	Mass fraction of 1,2-dimethylbenzene	uncertainty	Mass fraction of 1,2-dimethylbenzene	uncertainty	Mass fraction of dimethoxymethane	uncertainty
0.125	0.0093	0.0093	0.4775	0.0292	0.5018	
0.1099	0.0093	0.0093	0.5478	0.0291	0.4347	
0.1002	0.0096	0.0096	0.6114	0.0293	0.3733	
0.092	0.0096	0.0096	0.6657	0.0302	0.3237	
0.089	0.0097	0.0097	0.6964	0.0305	0.2982	
0.084	0.0093	0.0093	0.7293	0.0297	0.2682	

System: water + 2,4,6-trioxaheptane + 1,2-dimethylbenzene; phases: Liquid mixture 1, Liquid mixture 2
Fixed: Temperature, K = 293.15
Fixed: Pressure, kPa = 101.3
Property: Mass fraction of 1,2-dimethylbenzene (Liquid mixture 1); method: Chromatography
Property: Mass fraction of 1,2-dimethylbenzene (Liquid mixture 2); method: Chromatography
Property: Mass fraction of 2,4,6-trioxaheptane (Liquid mixture 2); method: Chromatography
Mass fraction of 2,4,6-trioxaheptane	Mass fraction of 1,2-dimethylbenzene	uncertainty	Mass fraction of 1,2-dimethylbenzene	uncertainty	Mass fraction of 2,4,6-trioxaheptane	uncertainty
0.1236	0.01	0.01	0.5741	0.0294	0.4109	
0.1044	0.01	0.01	0.6326	0.0292	0.3559	
0.0948	0.0097	0.0097	0.6621	0.0289	0.3277	
0.0792	0.0098	0.0098	0.7086	0.0289	0.2828	
0.0726	0.0096	0.0096	0.734	0.0289	0.2584	
0.0655	0.01	0.01	0.7482	0.029	0.245	

System: water + 2,4,6,8-tetraoxanonane + 1,2-dimethylbenzene; phases: Liquid mixture 1, Liquid mixture 2
Fixed: Temperature, K = 293.15
Fixed: Pressure, kPa = 101.3
Property: Mass fraction of 1,2-dimethylbenzene (Liquid mixture 1); method: Chromatography
Property: Mass fraction of 1,2-dimethylbenzene (Liquid mixture 2); method: Chromatography
Property: Mass fraction of 2,4,6,8-tetraoxanonane (Liquid mixture 2); method: Chromatography
Mass fraction of 2,4,6,8-tetraoxanonane	Mass fraction of 1,2-dimethylbenzene	uncertainty	Mass fraction of 1,2-dimethylbenzene	uncertainty	Mass fraction of 2,4,6,8-tetraoxanonane	uncertainty
0.1194	0.0097	0.0097	0.5577	0.0291	0.4094	
0.0948	0.0088	0.0088	0.641	0.0294	0.3295	
0.082	0.0098	0.0098	0.7083	0.0299	0.2691	
0.069	0.0093	0.0093	0.758	0.03	0.2235	
0.0649	0.0095	0.0095	0.7841	0.0315	0.2012	
0.0571	0.0097	0.0097	0.8107	0.0322	0.1801	

System: water + 2,4,6,8,10-pentaoxaundecane + 1,2-dimethylbenzene; phases: Liquid mixture 2, Liquid mixture 1
Fixed: Temperature, K = 293.15
Fixed: Pressure, kPa = 101.3
Property: Mass fraction of 1,2-dimethylbenzene (Liquid mixture 2); method: Chromatography
Property: Mass fraction of 1,2-dimethylbenzene (Liquid mixture 1); method: Chromatography
Property: Mass fraction of 2,4,6,8,10-pentaoxaundecane (Liquid mixture 1); method: Chromatography
Mass fraction of 2,4,6,8,10-pentaoxaundecane	Mass fraction of 1,2-dimethylbenzene	uncertainty	Mass fraction of 1,2-dimethylbenzene	uncertainty	Mass fraction of 2,4,6,8,10-pentaoxaundecane	uncertainty
0.3976	0.5894	0.0287	0.0092	0.0092	0.096	
0.3016	0.6875	0.0287	0.0092	0.0092	0.0721	
0.2666	0.724	0.0289	0.0096	0.0096	0.0668	
0.2233	0.7689	0.0291	0.0095	0.0095	0.0586	
0.193	0.8019	0.0297	0.0096	0.0096	0.05	
0.1717	0.8254	0.0298	0.0097	0.0097	0.0459	

System: 1,2-dimethylbenzene + water; phases: Liquid mixture 1, Liquid mixture 2
Fixed: Pressure, kPa = 101.3
Property: Mass fraction of 1,2-dimethylbenzene (Liquid mixture 1); method: Chromatography
Temperature, K	Mass fraction of 1,2-dimethylbenzene	uncertainty
288.15	0.00019	0.00019
293.15	0.000208	0.000208
298.15	0.000221	0.000221
303.15	0.00024	0.00024

System: 1,2-dimethylbenzene + water; phases: Liquid mixture 2, Liquid mixture 1
Fixed: Pressure, kPa = 101.3
Property: Mass fraction of water (Liquid mixture 2); method: Chromatography
Temperature, K	Mass fraction of water	uncertainty
288.15	0.000379	0.000379
293.15	0.000407	0.000407
298.15	0.000482	0.000482
303.15	0.000578	0.000578
