Measured thermophysical data. Solubility of 3,7,9,11-Tetraoxo-2,4,6,8,10-pentaaza[3.3.3] Propellane (TOPAP) in Different Pure Solvents at Temperatures between 273.15 and 318.15 K
Source: J. Chem. Eng. Data, 2016, 10.1021/acs.jced.6b00349
Compound 1: (3as,6as)-1H,4H-3a,6a-(epiminomethanoimino)pyrrolo[3,4-d]imidazole-2,4,6,8(3H,5H)-tetraone, C6H5N5O4, InChI=1S/C6H5N5O4/c12-1-5-6(2(13)7-1,10-3(14)8-5)11-4(15)9-5/h(H,7,12,13)(H2,8,10,14)(H2,9,11,15)/t5-,6+, purity 93%
Compound 2: water, H2O, InChI=1S/H2O/h1H2, purity 99.9%
Compound 3: methanol, CH4O, InChI=1S/CH4O/c1-2/h2H,1H3, purity 99.5%
Compound 4: acetonitrile, C2H3N, InChI=1S/C2H3N/c1-2-3/h1H3, purity 99.5%
Compound 5: acetone, C3H6O, InChI=1S/C3H6O/c1-3(2)4/h1-2H3, purity 99.5%
Compound 6: ethyl acetate, C4H8O2, InChI=1S/C4H8O2/c1-3-6-4(2)5/h3H2,1-2H3, purity 99.5%
Compound 7: ethanol, C2H6O, InChI=1S/C2H6O/c1-2-3/h3H,2H2,1H3, purity 99.5%
Compound 8: tetrahydrofuran, C4H8O, InChI=1S/C4H8O/c1-2-4-5-3-1/h1-4H2, purity 99.5%
Compound 9: propan-1-ol, C3H8O, InChI=1S/C3H8O/c1-2-3-4/h4H,2-3H2,1H3, purity 99.5%
Compound 10: propan-2-ol, C3H8O, InChI=1S/C3H8O/c1-3(2)4/h3-4H,1-2H3, purity 99.5%
Compound 11: 1,4-dioxane, C4H8O2, InChI=1S/C4H8O2/c1-2-6-4-3-5-1/h1-4H2, purity 99.5%
Compound 12: 1,2-ethanediol, C2H6O2, InChI=1S/C2H6O2/c3-1-2-4/h3-4H,1-2H2, purity 99.5%
Compound 13: toluene, C7H8, InChI=1S/C7H8/c1-7-5-3-2-4-6-7/h2-6H,1H3, purity 99.5%
Compound 14: 1,4-benzenediol, C6H6O2, InChI=1S/C6H6O2/c7-5-1-2-6(8)4-3-5/h1-4,7-8H, purity 99.5%

System: (3as,6as)-1H,4H-3a,6a-(epiminomethanoimino)pyrrolo[3,4-d]imidazole-2,4,6,8(3H,5H)-tetraone; phases: Crystal, Liquid, Air at 1 atmosphere
Property: Normal melting temperature, K (Crystal); method: DTA
Normal melting temperature, K	uncertainty
708.78	1.06

System: (3as,6as)-1H,4H-3a,6a-(epiminomethanoimino)pyrrolo[3,4-d]imidazole-2,4,6,8(3H,5H)-tetraone; phases: Crystal, Liquid, Air at 1 atmosphere
Property: Molar enthalpy of transition or fusion, kJ/mol (Crystal); method: DSC
Molar enthalpy of transition or fusion, kJ/mol	uncertainty
20.265	0.982

System: water + (3as,6as)-1H,4H-3a,6a-(epiminomethanoimino)pyrrolo[3,4-d]imidazole-2,4,6,8(3H,5H)-tetraone; phases: Liquid, Crystal
Fixed: Pressure, kPa = 100
Property: Mole fraction of (3as,6as)-1H,4H-3a,6a-(epiminomethanoimino)pyrrolo[3,4-d]imidazole-2,4,6,8(3H,5H)-tetraone (Liquid); method: UV Spectroscopy
Temperature, K	Mole fraction of (3as,6as)-1H,4H-3a,6a-(epiminomethanoimino)pyrrolo[3,4-d]imidazole-2,4,6,8(3H,5H)-tetraone	uncertainty
273.15	5.92e-05	4.7e-06
278.15	7.18e-05	5.8e-06
283.15	9.34e-05	7.5e-06
288.15	0.0001262	1.01e-05
293.15	0.0001593	1.28e-05
298.15	0.0001875	1.5e-05
303.15	0.0002234	1.79e-05
308.15	0.0002504	2.01e-05
313.15	0.0003131	2.51e-05
318.15	0.000369	2.96e-05

System: methanol + (3as,6as)-1H,4H-3a,6a-(epiminomethanoimino)pyrrolo[3,4-d]imidazole-2,4,6,8(3H,5H)-tetraone; phases: Liquid, Crystal
Fixed: Pressure, kPa = 100
Property: Mole fraction of (3as,6as)-1H,4H-3a,6a-(epiminomethanoimino)pyrrolo[3,4-d]imidazole-2,4,6,8(3H,5H)-tetraone (Liquid); method: UV Spectroscopy
Temperature, K	Mole fraction of (3as,6as)-1H,4H-3a,6a-(epiminomethanoimino)pyrrolo[3,4-d]imidazole-2,4,6,8(3H,5H)-tetraone	uncertainty
273.15	0.001613	0.000129
278.15	0.001844	0.000148
283.15	0.002426	0.000194
288.15	0.002857	0.000229
293.15	0.003475	0.000278
298.15	0.004093	0.000328
303.15	0.004904	0.000393
308.15	0.005916	0.000474
313.15	0.007265	0.000582
318.15	0.008435	0.000675

System: acetonitrile + (3as,6as)-1H,4H-3a,6a-(epiminomethanoimino)pyrrolo[3,4-d]imidazole-2,4,6,8(3H,5H)-tetraone; phases: Liquid, Crystal
Fixed: Pressure, kPa = 100
Property: Mole fraction of (3as,6as)-1H,4H-3a,6a-(epiminomethanoimino)pyrrolo[3,4-d]imidazole-2,4,6,8(3H,5H)-tetraone (Liquid); method: UV Spectroscopy
Temperature, K	Mole fraction of (3as,6as)-1H,4H-3a,6a-(epiminomethanoimino)pyrrolo[3,4-d]imidazole-2,4,6,8(3H,5H)-tetraone	uncertainty
273.15	9e-06	7e-07
278.15	1.15e-05	9e-07
283.15	1.43e-05	1.1e-06
288.15	1.72e-05	1.4e-06
293.15	2.16e-05	1.7e-06
298.15	2.75e-05	2.2e-06
303.15	3.6e-05	2.9e-06
308.15	4.4e-05	3.5e-06
313.15	5.5e-05	4.4e-06
318.15	6.79e-05	5.4e-06

System: acetone + (3as,6as)-1H,4H-3a,6a-(epiminomethanoimino)pyrrolo[3,4-d]imidazole-2,4,6,8(3H,5H)-tetraone; phases: Liquid, Crystal
Fixed: Pressure, kPa = 100
Property: Mole fraction of (3as,6as)-1H,4H-3a,6a-(epiminomethanoimino)pyrrolo[3,4-d]imidazole-2,4,6,8(3H,5H)-tetraone (Liquid); method: UV Spectroscopy
Temperature, K	Mole fraction of (3as,6as)-1H,4H-3a,6a-(epiminomethanoimino)pyrrolo[3,4-d]imidazole-2,4,6,8(3H,5H)-tetraone	uncertainty
273.15	5.58e-05	4.5e-06
278.15	6.73e-05	5.4e-06
283.15	7.84e-05	6.3e-06
288.15	9.4e-05	7.5e-06
293.15	0.0001137	9.1e-06
298.15	0.0001305	1.05e-05
303.15	0.0001575	1.26e-05
308.15	0.0001799	1.44e-05
313.15	0.0002016	1.61e-05
318.15	0.0002464	1.97e-05

System: ethyl acetate + (3as,6as)-1H,4H-3a,6a-(epiminomethanoimino)pyrrolo[3,4-d]imidazole-2,4,6,8(3H,5H)-tetraone; phases: Liquid, Crystal
Fixed: Pressure, kPa = 100
Property: Mole fraction of (3as,6as)-1H,4H-3a,6a-(epiminomethanoimino)pyrrolo[3,4-d]imidazole-2,4,6,8(3H,5H)-tetraone (Liquid); method: UV Spectroscopy
Temperature, K	Mole fraction of (3as,6as)-1H,4H-3a,6a-(epiminomethanoimino)pyrrolo[3,4-d]imidazole-2,4,6,8(3H,5H)-tetraone	uncertainty
273.15	2.59e-05	2.1e-06
278.15	3.38e-05	2.7e-06
283.15	4.59e-05	3.7e-06
288.15	6.9e-05	5.5e-06
293.15	9.2e-05	7.4e-06
298.15	0.0001238	9.9e-06
303.15	0.0001671	1.34e-05
308.15	0.0002252	1.81e-05
313.15	0.0003224	2.59e-05
318.15	0.0004129	3.31e-05

System: ethanol + (3as,6as)-1H,4H-3a,6a-(epiminomethanoimino)pyrrolo[3,4-d]imidazole-2,4,6,8(3H,5H)-tetraone; phases: Liquid, Crystal
Fixed: Pressure, kPa = 100
Property: Mole fraction of (3as,6as)-1H,4H-3a,6a-(epiminomethanoimino)pyrrolo[3,4-d]imidazole-2,4,6,8(3H,5H)-tetraone (Liquid); method: UV Spectroscopy
Temperature, K	Mole fraction of (3as,6as)-1H,4H-3a,6a-(epiminomethanoimino)pyrrolo[3,4-d]imidazole-2,4,6,8(3H,5H)-tetraone	uncertainty
273.15	6.15e-05	4.9e-06
278.15	7.48e-05	6e-06
283.15	9.23e-05	7.4e-06
288.15	0.0001127	9e-06
293.15	0.0001358	1.09e-05
298.15	0.0001702	1.36e-05
303.15	0.0002135	1.71e-05
308.15	0.0002644	2.12e-05
313.15	0.0003221	2.58e-05
318.15	0.0004191	3.36e-05

System: tetrahydrofuran + (3as,6as)-1H,4H-3a,6a-(epiminomethanoimino)pyrrolo[3,4-d]imidazole-2,4,6,8(3H,5H)-tetraone; phases: Liquid, Crystal
Fixed: Pressure, kPa = 100
Property: Mole fraction of (3as,6as)-1H,4H-3a,6a-(epiminomethanoimino)pyrrolo[3,4-d]imidazole-2,4,6,8(3H,5H)-tetraone (Liquid); method: UV Spectroscopy
Temperature, K	Mole fraction of (3as,6as)-1H,4H-3a,6a-(epiminomethanoimino)pyrrolo[3,4-d]imidazole-2,4,6,8(3H,5H)-tetraone	uncertainty
273.15	0.0005529	4.43e-05
278.15	0.000655	5.25e-05
283.15	0.0007826	6.27e-05
288.15	0.0009919	7.95e-05
293.15	0.001213	9.7e-05
298.15	0.001507	0.000121
303.15	0.001918	0.000154
308.15	0.002242	0.00018
313.15	0.002743	0.00022
318.15	0.003254	0.000261

System: propan-1-ol + (3as,6as)-1H,4H-3a,6a-(epiminomethanoimino)pyrrolo[3,4-d]imidazole-2,4,6,8(3H,5H)-tetraone; phases: Liquid, Crystal
Fixed: Pressure, kPa = 100
Property: Mole fraction of (3as,6as)-1H,4H-3a,6a-(epiminomethanoimino)pyrrolo[3,4-d]imidazole-2,4,6,8(3H,5H)-tetraone (Liquid); method: UV Spectroscopy
Temperature, K	Mole fraction of (3as,6as)-1H,4H-3a,6a-(epiminomethanoimino)pyrrolo[3,4-d]imidazole-2,4,6,8(3H,5H)-tetraone	uncertainty
273.15	2.56e-05	2.1e-06
278.15	3.13e-05	2.5e-06
283.15	3.83e-05	3.1e-06
288.15	4.65e-05	3.7e-06
293.15	6.12e-05	4.9e-06
298.15	8.12e-05	6.5e-06
303.15	0.000103	8.3e-06
308.15	0.0001224	9.8e-06
313.15	0.0001509	1.21e-05
318.15	0.0001897	1.52e-05

System: propan-2-ol + (3as,6as)-1H,4H-3a,6a-(epiminomethanoimino)pyrrolo[3,4-d]imidazole-2,4,6,8(3H,5H)-tetraone; phases: Liquid, Crystal
Fixed: Pressure, kPa = 100
Property: Mole fraction of (3as,6as)-1H,4H-3a,6a-(epiminomethanoimino)pyrrolo[3,4-d]imidazole-2,4,6,8(3H,5H)-tetraone (Liquid); method: UV Spectroscopy
Temperature, K	Mole fraction of (3as,6as)-1H,4H-3a,6a-(epiminomethanoimino)pyrrolo[3,4-d]imidazole-2,4,6,8(3H,5H)-tetraone	uncertainty
273.15	0.0001132	9.1e-06
278.15	0.0001332	1.07e-05
283.15	0.0001618	1.3e-05
288.15	0.0001918	1.54e-05
293.15	0.0002341	1.88e-05
298.15	0.0002841	2.28e-05
303.15	0.0003642	2.92e-05
308.15	0.0004817	3.86e-05
313.15	0.0005263	4.21e-05
318.15	0.0006135	4.91e-05

System: 1,4-dioxane + (3as,6as)-1H,4H-3a,6a-(epiminomethanoimino)pyrrolo[3,4-d]imidazole-2,4,6,8(3H,5H)-tetraone; phases: Liquid, Crystal
Fixed: Pressure, kPa = 100
Property: Mole fraction of (3as,6as)-1H,4H-3a,6a-(epiminomethanoimino)pyrrolo[3,4-d]imidazole-2,4,6,8(3H,5H)-tetraone (Liquid); method: UV Spectroscopy
Temperature, K	Mole fraction of (3as,6as)-1H,4H-3a,6a-(epiminomethanoimino)pyrrolo[3,4-d]imidazole-2,4,6,8(3H,5H)-tetraone	uncertainty
273.15	0.0001486	1.19e-05
278.15	0.0001741	1.39e-05
283.15	0.0002144	1.72e-05
288.15	0.0002666	2.14e-05
293.15	0.0003329	2.67e-05
298.15	0.0004527	3.63e-05
303.15	0.0006014	4.82e-05
308.15	0.0006958	5.57e-05
313.15	0.0008557	6.86e-05
318.15	0.001019	8.2e-05

System: 1,2-ethanediol + (3as,6as)-1H,4H-3a,6a-(epiminomethanoimino)pyrrolo[3,4-d]imidazole-2,4,6,8(3H,5H)-tetraone; phases: Liquid, Crystal
Fixed: Pressure, kPa = 100
Property: Mole fraction of (3as,6as)-1H,4H-3a,6a-(epiminomethanoimino)pyrrolo[3,4-d]imidazole-2,4,6,8(3H,5H)-tetraone (Liquid); method: UV Spectroscopy
Temperature, K	Mole fraction of (3as,6as)-1H,4H-3a,6a-(epiminomethanoimino)pyrrolo[3,4-d]imidazole-2,4,6,8(3H,5H)-tetraone	uncertainty
273.15	0.0002904	2.33e-05
278.15	0.0003264	2.61e-05
283.15	0.0003595	2.88e-05
288.15	0.0004041	3.24e-05
293.15	0.0004588	3.67e-05
298.15	0.0005155	4.13e-05
303.15	0.0005874	4.7e-05
308.15	0.0006384	5.11e-05
313.15	0.0007297	5.84e-05
318.15	0.0008222	6.58e-05

System: toluene + (3as,6as)-1H,4H-3a,6a-(epiminomethanoimino)pyrrolo[3,4-d]imidazole-2,4,6,8(3H,5H)-tetraone; phases: Liquid, Crystal
Fixed: Pressure, kPa = 100
Property: Mole fraction of (3as,6as)-1H,4H-3a,6a-(epiminomethanoimino)pyrrolo[3,4-d]imidazole-2,4,6,8(3H,5H)-tetraone (Liquid); method: UV Spectroscopy
Temperature, K	Mole fraction of (3as,6as)-1H,4H-3a,6a-(epiminomethanoimino)pyrrolo[3,4-d]imidazole-2,4,6,8(3H,5H)-tetraone	uncertainty
273.15	3.2e-06	3e-07
278.15	4.3e-06	3e-07
283.15	5.4e-06	4e-07
288.15	6.1e-06	5e-07
293.15	8.4e-06	7e-07
298.15	1.05e-05	8e-07
303.15	1.28e-05	1e-06
308.15	1.5e-05	1.2e-06
313.15	1.95e-05	1.6e-06
318.15	2.6e-05	2.1e-06

System: 1,4-benzenediol + water; phases: Liquid, Crystal
Fixed: Pressure, kPa = 100
Property: Mole fraction of 1,4-benzenediol (Liquid); method: UV Spectroscopy
Temperature, K	Mole fraction of 1,4-benzenediol	uncertainty
280.5	0.0066	0.00053
286	0.00801	0.00064
291.05	0.00953	0.00076
296.95	0.01144	0.00092
303.45	0.015	0.0012
310.85	0.02041	0.00164
