Measured thermophysical data. Density, Viscosity, and N2O Solubility of Aqueous Solutions of MEA, BmimBF4, and Their Mixtures from 293.15 to 333.15 K
Source: J. Chem. Eng. Data, 2018, 10.1021/acs.jced.8b00070
Compound 1: 1-butyl-3-methylimidazolium tetrafluoroborate, C8H15BF4N2, InChI=1S/C8H15N2.BF4/c1-3-4-5-10-7-6-9(2)8-10;2-1(3,4)5/h6-8H,3-5H2,1-2H3;/q+1;-1, purity 99%
Compound 2: 2-aminoethan-1-ol, C2H7NO, InChI=1S/C2H7NO/c3-1-2-4/h4H,1-3H2, purity 99%
Compound 3: nitrous oxide, N2O, InChI=1S/N2O/c1-2-3, purity 99%
Compound 4: water, H2O, InChI=1S/H2O/h1H2, purity 99.8%

System: water; phases: Liquid
Fixed: Pressure, kPa = 101.3
Property: Mass density, kg/m3 (Liquid); method: Vibrating tube method
Temperature, K	Mass density, kg/m3	uncertainty
293.15	998.2	0.2
298.15	997	0.2
303.15	995.6	0.2
308.15	994	0.2
313.15	992.2	0.2
318.15	990.2	0.2
323.15	988	0.2
328.15	985.7	0.2
333.15	983.2	0.2

System: 1-butyl-3-methylimidazolium tetrafluoroborate + water; phases: Liquid
Fixed: Pressure, kPa = 101.3
Property: Mass density, kg/m3 (Liquid); method: Vibrating tube method
Temperature, K	Mole fraction of 1-butyl-3-methylimidazolium tetrafluoroborate	Mass density, kg/m3	uncertainty
293.15	0.01	1018.9	2.1
298.15	0.01	1017.1	2.1
303.15	0.01	1015.2	2.1
308.15	0.01	1013.2	2.1
313.15	0.01	1010.9	2.1
318.15	0.01	1008.6	2.1
323.15	0.01	1006.1	2.1
328.15	0.01	1001.8	2.1
333.15	0.01	999.2	2.1
293.15	0.0227	1038.1	2.1
298.15	0.0227	1036	2.1
303.15	0.0227	1033.5	2.1
308.15	0.0227	1031.3	2.1
313.15	0.0227	1028.6	2.1
318.15	0.0227	1025.9	2.1
323.15	0.0227	1023.4	2.1
328.15	0.0227	1019.8	2.1
333.15	0.0227	1017.6	2.1
293.15	0.0392	1060.4	2
298.15	0.0392	1058	2
303.15	0.0392	1055.3	2
308.15	0.0392	1052.6	2
313.15	0.0392	1049.8	2
318.15	0.0392	1046.9	2
323.15	0.0392	1044	2
328.15	0.0392	1041.4	2
333.15	0.0392	1040.6	2.1
293.15	0.0616	1079.5	2
298.15	0.0616	1076.7	2
303.15	0.0616	1073.6	2
308.15	0.0616	1070.7	2
313.15	0.0616	1067.5	2
318.15	0.0616	1064.3	2
323.15	0.0616	1061.2	2
328.15	0.0616	1058.3	2
333.15	0.0616	1057.4	2
293.15	0.0938	1103.7	2
298.15	0.0938	1100.6	2
303.15	0.0938	1097.2	2
308.15	0.0938	1093.9	2
313.15	0.0938	1090.5	2
318.15	0.0938	1087.4	2
323.15	0.0938	1084.1	2
328.15	0.0938	1080.9	2
333.15	0.0938	1079.9	2

System: 1-butyl-3-methylimidazolium tetrafluoroborate + water; phases: Liquid
Fixed: Pressure, kPa = 101
Property: Viscosity, Pa*s (Liquid); method: Oscillating disk viscometry
Temperature, K	Mole fraction of 1-butyl-3-methylimidazolium tetrafluoroborate	Viscosity, Pa*s	uncertainty
293.15	0.01	0.00107	0.00032
298.15	0.01	0.00095	0.00029
303.15	0.01	0.00084	0.00025
308.15	0.01	0.00076	0.00023
313.15	0.01	0.00069	0.00021
318.15	0.01	0.00064	0.00019
323.15	0.01	0.00059	0.00018
328.15	0.01	0.00055	0.00017
333.15	0.01	0.00053	0.00016
293.15	0.0227	0.00135	0.00041
298.15	0.0227	0.00119	0.00036
303.15	0.0227	0.00105	0.00032
308.15	0.0227	0.00095	0.00029
313.15	0.0227	0.00086	0.00026
318.15	0.0227	0.00079	0.00024
323.15	0.0227	0.00074	0.00022
328.15	0.0227	0.00069	0.00021
333.15	0.0227	0.00062	0.00019
293.15	0.0392	0.00184	0.00055
298.15	0.0392	0.0016	0.00048
303.15	0.0392	0.0014	0.00042
308.15	0.0392	0.00125	0.00038
313.15	0.0392	0.00113	0.00034
318.15	0.0392	0.00102	0.00031
323.15	0.0392	0.00094	0.00028
328.15	0.0392	0.00088	0.00027
333.15	0.0392	0.00082	0.00025
293.15	0.0616	0.00228	0.00069
298.15	0.0616	0.00198	0.0006
303.15	0.0616	0.00175	0.00053
308.15	0.0616	0.00156	0.00047
313.15	0.0616	0.0014	0.00042
318.15	0.0616	0.00127	0.00038
323.15	0.0616	0.00116	0.00035
328.15	0.0616	0.00107	0.00032
333.15	0.0616	0.00099	0.0003
293.15	0.0938	0.00304	0.00091
298.15	0.0938	0.00269	0.00081
303.15	0.0938	0.00234	0.0007
308.15	0.0938	0.00206	0.00062
313.15	0.0938	0.00184	0.00055
318.15	0.0938	0.00166	0.0005
323.15	0.0938	0.00148	0.00045
328.15	0.0938	0.00131	0.00039
333.15	0.0938	0.00126	0.00038

System: 2-aminoethan-1-ol + water; phases: Liquid
Fixed: Pressure, kPa = 101.3
Property: Mass density, kg/m3 (Liquid); method: Vibrating tube method
Temperature, K	Mole fraction of 2-aminoethan-1-ol	Mass density, kg/m3	uncertainty
293.15	0.0394	1005.3	2
298.15	0.0394	1003.8	2
303.15	0.0394	1002.1	2
308.15	0.0394	1000.3	2
313.15	0.0394	998.2	2
318.15	0.0394	996	2
323.15	0.0394	993.8	2
328.15	0.0394	988.9	2
333.15	0.0394	987.2	2
293.15	0.087	1011.8	2
298.15	0.087	1009.9	2
303.15	0.087	1007.7	2
308.15	0.087	1005.6	2
313.15	0.087	1003.2	2
318.15	0.087	1000.7	2
323.15	0.087	998.2	2
328.15	0.087	995.8	2
333.15	0.087	995.1	2
293.15	0.1456	1018.9	2
298.15	0.1456	1016.3	2
303.15	0.1456	1013.7	2
308.15	0.1456	1011.2	2
313.15	0.1456	1008.5	2
318.15	0.1456	1005.7	2
323.15	0.1456	1002.8	2
328.15	0.1456	1000.1	2
333.15	0.1456	999.3	2
293.15	0.2197	1025.7	2
298.15	0.2197	1022.7	2
303.15	0.2197	1019.7	2
308.15	0.2197	1016.8	2
313.15	0.2197	1013.6	2
318.15	0.2197	1010.5	2
323.15	0.2197	1007.3	2
328.15	0.2197	1004.4	2
333.15	0.2197	1003.2	2

System: 2-aminoethan-1-ol + water; phases: Liquid
Fixed: Pressure, kPa = 101.3
Property: Viscosity, Pa*s (Liquid); method: Oscillating disk viscometry
Temperature, K	Mole fraction of 2-aminoethan-1-ol	Viscosity, Pa*s	uncertainty
293.15	0.0394	0.00119	0.00036
298.15	0.0394	0.00106	0.00032
303.15	0.0394	0.00094	0.00028
308.15	0.0394	0.00085	0.00026
313.15	0.0394	0.00076	0.00023
318.15	0.0394	0.00069	0.00021
323.15	0.0394	0.00063	0.00019
328.15	0.0394	0.00058	0.00018
333.15	0.0394	0.00054	0.00016
293.15	0.087	0.0021	0.00063
298.15	0.087	0.00171	0.00052
303.15	0.087	0.00147	0.00044
308.15	0.087	0.0013	0.00039
313.15	0.087	0.00115	0.00035
318.15	0.087	0.00103	0.00031
323.15	0.087	0.00093	0.00028
328.15	0.087	0.00085	0.00026
333.15	0.087	0.00079	0.00024
293.15	0.1456	0.00306	0.00092
298.15	0.1456	0.00269	0.00081
303.15	0.1456	0.00229	0.00069
308.15	0.1456	0.00191	0.00058
313.15	0.1456	0.00169	0.00051
318.15	0.1456	0.0015	0.00045
323.15	0.1456	0.00133	0.0004
328.15	0.1456	0.00117	0.00035
333.15	0.1456	0.00105	0.00032
293.15	0.2197	0.00558	0.00168
298.15	0.2197	0.00467	0.00141
303.15	0.2197	0.00391	0.00118
308.15	0.2197	0.00328	0.00099
313.15	0.2197	0.00277	0.00083
318.15	0.2197	0.00239	0.00072
323.15	0.2197	0.00211	0.00064
328.15	0.2197	0.00185	0.00056
333.15	0.2197	0.00165	0.0005

System: 1-butyl-3-methylimidazolium tetrafluoroborate + 2-aminoethan-1-ol + water; phases: Liquid
Fixed: Pressure, kPa = 101.3
Property: Mass density, kg/m3 (Liquid); method: Vibrating tube method
Mole fraction of 1-butyl-3-methylimidazolium tetrafluoroborate	Mole fraction of 2-aminoethan-1-ol	Temperature, K	Mass density, kg/m3	uncertainty
0.0132	0.1322	293.15	1035.5	2
0.0132	0.1322	298.15	1032.9	2
0.0132	0.1322	303.15	1030.2	2
0.0132	0.1322	308.15	1027.4	2
0.0132	0.1322	313.15	1024.4	2
0.0132	0.1322	318.15	1021.5	2
0.0132	0.1322	323.15	1018.5	2
0.0132	0.1322	328.15	1015.6	2
0.0132	0.1322	333.15	1014.7	2
0.0255	0.051	293.15	1046.1	2
0.0255	0.051	298.15	1043.7	2
0.0255	0.051	303.15	1041	2
0.0255	0.051	308.15	1038.3	2
0.0255	0.051	313.15	1035.5	2
0.0255	0.051	318.15	1032.6	2
0.0255	0.051	323.15	1029.6	2
0.0255	0.051	328.15	1026.8	2
0.0255	0.051	333.15	1025.8	2
0.0337	0.2024	293.15	1061.2	2
0.0337	0.2024	298.15	1057.8	2
0.0337	0.2024	303.15	1054.4	2
0.0337	0.2024	308.15	1051.1	2
0.0337	0.2024	313.15	1047.6	2
0.0337	0.2024	318.15	1044.2	2
0.0337	0.2024	323.15	1040.7	2
0.0337	0.2024	328.15	1037.5	2
0.0337	0.2024	333.15	1036.1	2
0.0792	0.1188	293.15	1094.4	2
0.0792	0.1188	298.15	1090.9	2
0.0792	0.1188	303.15	1087.2	2
0.0792	0.1188	308.15	1083.8	2
0.0792	0.1188	313.15	1080.1	2
0.0792	0.1188	318.15	1076.5	2
0.0792	0.1188	323.15	1072.9	2
0.0792	0.1188	328.15	1069.5	2
0.0792	0.1188	333.15	1068.1	2
0.0977	0.2442	293.15	1097.9	2
0.0977	0.2442	298.15	1094.1	2
0.0977	0.2442	303.15	1090.3	2
0.0977	0.2442	308.15	1086.6	2
0.0977	0.2442	313.15	1082.8	2
0.0977	0.2442	318.15	1079	2
0.0977	0.2442	323.15	1074.8	2
0.0977	0.2442	328.15	1071.7	2
0.0977	0.2442	333.15	1070.3	2
0.1701	0.3402	293.15	1117.9	2
0.1701	0.3402	298.15	1113.9	2
0.1701	0.3402	303.15	1109.9	2
0.1701	0.3402	308.15	1106	2
0.1701	0.3402	313.15	1102.1	2
0.1701	0.3402	318.15	1098.2	2
0.1701	0.3402	323.15	1094.3	2
0.1701	0.3402	328.15	1090.7	2
0.1701	0.3402	333.15	1089.2	2

System: 1-butyl-3-methylimidazolium tetrafluoroborate + 2-aminoethan-1-ol + water; phases: Liquid
Fixed: Pressure, kPa = 101
Property: Viscosity, Pa*s (Liquid); method: Oscillating disk viscometry
Mole fraction of 1-butyl-3-methylimidazolium tetrafluoroborate	Mole fraction of 2-aminoethan-1-ol	Temperature, K	Viscosity, Pa*s	uncertainty
0.0132	0.1322	293.15	0.00296	0.00089
0.0132	0.1322	298.15	0.00263	0.00079
0.0132	0.1322	303.15	0.0024	0.00072
0.0132	0.1322	308.15	0.00211	0.00064
0.0132	0.1322	313.15	0.00179	0.00054
0.0132	0.1322	318.15	0.00159	0.00048
0.0132	0.1322	323.15	0.00144	0.00043
0.0132	0.1322	328.15	0.0013	0.00039
0.0132	0.1322	333.15	0.00118	0.00036
0.0255	0.051	293.15	0.00235	0.00071
0.0255	0.051	298.15	0.00199	0.0006
0.0255	0.051	303.15	0.00173	0.00052
0.0255	0.051	308.15	0.00153	0.00046
0.0255	0.051	313.15	0.00138	0.00042
0.0255	0.051	318.15	0.00124	0.00037
0.0255	0.051	323.15	0.00113	0.00034
0.0255	0.051	328.15	0.00102	0.00031
0.0255	0.051	333.15	0.00094	0.00028
0.0337	0.2024	293.15	0.00702	0.00211
0.0337	0.2024	298.15	0.00546	0.00164
0.0337	0.2024	303.15	0.00454	0.00137
0.0337	0.2024	308.15	0.00382	0.00115
0.0337	0.2024	313.15	0.00328	0.00099
0.0337	0.2024	318.15	0.00285	0.00086
0.0337	0.2024	323.15	0.00248	0.00075
0.0337	0.2024	328.15	0.0022	0.00066
0.0337	0.2024	333.15	0.00197	0.00059
0.0792	0.1188	293.15	0.00612	0.00184
0.0792	0.1188	298.15	0.00473	0.00142
0.0792	0.1188	303.15	0.00396	0.00119
0.0792	0.1188	308.15	0.00338	0.00102
0.0792	0.1188	313.15	0.00294	0.00088
0.0792	0.1188	318.15	0.00257	0.00077
0.0792	0.1188	323.15	0.00229	0.00069
0.0792	0.1188	328.15	0.00206	0.00062
0.0792	0.1188	333.15	0.00185	0.00056
0.0977	0.2442	293.15	0.01138	0.00342
0.0977	0.2442	298.15	0.009	0.00271
0.0977	0.2442	303.15	0.00732	0.0022
0.0977	0.2442	308.15	0.00605	0.00182
0.0977	0.2442	313.15	0.00513	0.00154
0.0977	0.2442	318.15	0.00434	0.00131
0.0977	0.2442	323.15	0.00372	0.00112
0.0977	0.2442	328.15	0.0033	0.00099
0.0977	0.2442	333.15	0.0029	0.00087
0.1701	0.3402	293.15	0.0184	0.00554
0.1701	0.3402	298.15	0.01432	0.00431
0.1701	0.3402	303.15	0.01117	0.00336
0.1701	0.3402	308.15	0.00903	0.00272
0.1701	0.3402	313.15	0.00755	0.00227
0.1701	0.3402	318.15	0.00647	0.00195
0.1701	0.3402	323.15	0.00549	0.00165
0.1701	0.3402	328.15	0.00472	0.00142
0.1701	0.3402	333.15	0.00414	0.00125

System: nitrous oxide + 1-butyl-3-methylimidazolium tetrafluoroborate + water; phases: Liquid, Gas
Property: Mole fraction of nitrous oxide (Liquid); method: Phase equilibration
Temperature, K	Solvent: Mole fraction of 1-butyl-3-methylimidazolium tetrafluoroborate	Pressure, kPa	Mole fraction of nitrous oxide	uncertainty
293.15	0.01	111.5	0.000635	6e-06
303.15	0.01	118.4	0.000516	5e-06
313.15	0.01	124.7	0.000429	4e-06
323.15	0.01	130.6	0.000363	4e-06
293.15	0.0227	118	0.000754	6e-06
303.15	0.0227	125.9	0.000618	5e-06
313.15	0.0227	133.1	0.000517	5e-06
323.15	0.0227	140	0.000433	4e-06
293.15	0.0392	88	0.000639	6e-06
303.15	0.0392	93.6	0.000521	5e-06
313.15	0.0392	98.8	0.000434	4e-06
323.15	0.0392	103.6	0.00037	4e-06
293.15	0.0616	99.1	0.000837	7e-06
303.15	0.0616	105.4	0.000696	6e-06
313.15	0.0616	111.5	0.000576	5e-06
323.15	0.0616	117	0.000492	4e-06
293.15	0.0938	90.1	0.000944	8e-06
303.15	0.0938	95.4	0.000777	7e-06
313.15	0.0938	100.3	0.000652	6e-06
323.15	0.0938	105.1	0.000542	1.3e-05

System: nitrous oxide + 2-aminoethan-1-ol + water; phases: Liquid, Gas
Property: Mole fraction of nitrous oxide (Liquid); method: Phase equilibration
Temperature, K	Solvent: Mole fraction of 2-aminoethan-1-ol	Pressure, kPa	Mole fraction of nitrous oxide	uncertainty
293.15	0.0394	91.6	0.000484	4e-06
303.15	0.0394	96.3	0.000405	4e-06
313.15	0.0394	100.7	0.000348	3e-06
323.15	0.0394	105	0.0003	3e-06
293.15	0.087	84.8	0.000465	4e-06
303.15	0.087	89.2	0.000401	3e-06
313.15	0.087	93.4	0.000351	3e-06
323.15	0.087	97.4	0.000313	3e-06
293.15	0.1456	93.1	0.000513	4e-06
303.15	0.1456	97.4	0.000458	3e-06
313.15	0.1456	101	0.000443	4e-06
323.15	0.1456	105.1	0.000405	3e-06
293.15	0.2197	101.2	0.000628	4e-06
303.15	0.2197	105.9	0.000576	4e-06
313.15	0.2197	100.4	0.000509	4e-06
323.15	0.2197	104.5	0.00046	4e-06

System: nitrous oxide + water; phases: Liquid, Gas
Property: Mole fraction of nitrous oxide (Liquid); method: Phase equilibration
Temperature, K	Pressure, kPa	Mole fraction of nitrous oxide	uncertainty
293.15	113.8	0.000599	3.6e-05
303.15	122	0.00045	2.8e-05
313.15	127.3	0.000411	2.6e-05
323.15	134.3	0.00032	2.1e-05
333.15	139.6	0.000293	1.8e-05
