Measured thermophysical data. Determination and Thermodynamic Modeling of Solid-Liquid Phase Equilibrium for Succinic Acid in the Glutaric Acid + Adipic Acid + Ethyl Acetate Mixture and Adipic Acid in the Succinic Acid + Glutaric Acid + Ethyl Acetate Mixture
Source: J. Chem. Eng. Data, 2019, 10.1021/acs.jced.8b01127
Compound 1: butanedioic acid, C4H6O4, InChI=1S/C4H6O4/c5-3(6)1-2-4(7)8/h1-2H2,(H,5,6)(H,7,8), purity 99.5%
Compound 2: 1,5-pentanedioic acid, C5H8O4, InChI=1S/C5H8O4/c6-4(7)2-1-3-5(8)9/h1-3H2,(H,6,7)(H,8,9), purity 99%
Compound 3: 1,6-hexanedioic acid, C6H10O4, InChI=1S/C6H10O4/c7-5(8)3-1-2-4-6(9)10/h1-4H2,(H,7,8)(H,9,10), purity 99.5%
Compound 4: ethyl acetate, C4H8O2, InChI=1S/C4H8O2/c1-3-6-4(2)5/h3H2,1-2H3, purity 99.5%
Compound 5: acetic acid, C2H4O2, InChI=1S/C2H4O2/c1-2(3)4/h1H3,(H,3,4), purity 99.5%

System: butanedioic acid; phases: Crystal, Liquid, Air at 1 atmosphere
Property: Normal melting temperature, K (Crystal); method: DTA
Normal melting temperature, K	uncertainty
457.44	0.99

System: butanedioic acid; phases: Crystal, Liquid, Air at 1 atmosphere
Property: Molar enthalpy of transition or fusion, kJ/mol (Crystal); method: DSC
Molar enthalpy of transition or fusion, kJ/mol	uncertainty
32.56	1.81

System: 1,5-pentanedioic acid; phases: Crystal, Liquid, Air at 1 atmosphere
Property: Normal melting temperature, K (Crystal); method: DTA
Normal melting temperature, K	uncertainty
371.6	0.99

System: 1,5-pentanedioic acid; phases: Crystal, Liquid, Air at 1 atmosphere
Property: Molar enthalpy of transition or fusion, kJ/mol (Crystal); method: DSC
Molar enthalpy of transition or fusion, kJ/mol	uncertainty
20.16	1.13

System: 1,6-hexanedioic acid; phases: Crystal, Liquid, Air at 1 atmosphere
Property: Normal melting temperature, K (Crystal); method: DTA
Normal melting temperature, K	uncertainty
424.26	0.99

System: 1,6-hexanedioic acid; phases: Crystal, Liquid, Air at 1 atmosphere
Property: Molar enthalpy of transition or fusion, kJ/mol (Crystal); method: DSC
Molar enthalpy of transition or fusion, kJ/mol	uncertainty
34.31	1.91

System: butanedioic acid + 1,5-pentanedioic acid + ethyl acetate; phases: Liquid, Crystal
Fixed: Pressure, kPa = 100
Property: Mole fraction of butanedioic acid (Liquid); method: Titration method
Temperature, K	Solvent: Mass fraction of 1,5-pentanedioic acid	Mole fraction of butanedioic acid	uncertainty
299.12	0	0.004	0.00032
303.36	0	0.00471	0.00038
306.51	0	0.00506	0.00041
310.56	0	0.00593	0.00048
315.01	0	0.00682	0.00055
317.96	0	0.00755	0.0006
321.93	0	0.00849	0.00068
325.72	0	0.00949	0.00076
329.26	0	0.01065	0.00085
332.85	0	0.01189	0.00095
335.42	0	0.01304	0.00104
338.12	0	0.01412	0.00113
340.36	0	0.01539	0.00123
300.27	0.06	0.00558	0.00045
301.25	0.06	0.00592	0.00047
304.75	0.06	0.00679	0.00054
310.45	0.06	0.00845	0.00068
314.9	0.06	0.00983	0.00079
320.13	0.06	0.01154	0.00092
324.8	0.06	0.01267	0.00101
327.8	0.06	0.01403	0.00112
331.45	0.06	0.01561	0.00125
335	0.06	0.01674	0.00134
338.44	0.06	0.01806	0.00145
340.3	0.06	0.01935	0.00155
300.4	0.093	0.00702	0.00056
303.44	0.093	0.00741	0.00059
308.3	0.093	0.0085	0.00068
311.47	0.093	0.00988	0.00079
315.45	0.093	0.01116	0.00089
318.97	0.093	0.0122	0.00098
322.36	0.093	0.01366	0.00109
327.35	0.093	0.01553	0.00124
330.84	0.093	0.01723	0.00138
334.06	0.093	0.01899	0.00152
337.45	0.093	0.02059	0.00165
340.24	0.093	0.02233	0.00179
342.26	0.093	0.02326	0.00186
299.38	0.12	0.00746	0.0006
306.12	0.12	0.00877	0.0007
308.74	0.12	0.00969	0.00078
312.04	0.12	0.01083	0.00087
315.14	0.12	0.01183	0.00095
317.24	0.12	0.01269	0.00102
320.44	0.12	0.014	0.00112
323.44	0.12	0.0153	0.00123
327.33	0.12	0.01681	0.00135
330.62	0.12	0.01822	0.00146
333.5	0.12	0.01996	0.0016
336.89	0.12	0.02189	0.00175
342.92	0.12	0.02621	0.0021
299.95	0.15	0.0085	0.00068
304.46	0.15	0.00953	0.00076
307.53	0.15	0.0105	0.00084
310.44	0.15	0.01148	0.00092
313.05	0.15	0.01266	0.00101
317.94	0.15	0.01445	0.00116
321.08	0.15	0.01584	0.00127
324.98	0.15	0.01748	0.0014
328.86	0.15	0.01916	0.00153
331.97	0.15	0.02079	0.00166
335.06	0.15	0.02253	0.0018
338.12	0.15	0.02453	0.00196
340.23	0.15	0.0259	0.00207

System: 1,6-hexanedioic acid + 1,5-pentanedioic acid + ethyl acetate; phases: Liquid, Crystal
Fixed: Pressure, kPa = 100
Property: Mole fraction of 1,6-hexanedioic acid (Liquid); method: Titration method
Temperature, K	Solvent: Mass fraction of 1,5-pentanedioic acid	Mole fraction of 1,6-hexanedioic acid	uncertainty
300.12	0	0.00425	0.00034
303.45	0	0.00498	0.0004
306.36	0	0.0056	0.00045
309.22	0	0.00685	0.00055
314.24	0	0.00866	0.00069
317.29	0	0.01017	0.00082
320.96	0	0.01192	0.00096
324.65	0	0.01396	0.00112
328.72	0	0.01645	0.00132
332.47	0	0.01902	0.00152
336.53	0	0.02198	0.00176
340.01	0	0.02482	0.00199
343.02	0	0.02786	0.00223
302.26	0.064	0.00898	0.00072
306.04	0.064	0.01045	0.00084
308.92	0.064	0.01184	0.00095
312	0.064	0.01303	0.00104
315.28	0.064	0.01453	0.00116
319.09	0.064	0.01687	0.00135
322.3	0.064	0.01901	0.00152
325.36	0.064	0.02144	0.00172
328.88	0.064	0.02367	0.0019
332.32	0.064	0.02627	0.0021
336.63	0.064	0.0295	0.00236
339.42	0.064	0.03199	0.00256
343.04	0.064	0.03517	0.00282
302.51	0.092	0.01035	0.00083
306.36	0.092	0.01188	0.00095
309.9	0.092	0.01319	0.00106
312.99	0.092	0.0148	0.00119
316.94	0.092	0.01752	0.0014
320.4	0.092	0.01986	0.00159
324.17	0.092	0.02242	0.0018
327.07	0.092	0.02492	0.002
330	0.092	0.02769	0.00222
333.26	0.092	0.03067	0.00246
336.53	0.092	0.03372	0.0027
339.65	0.092	0.03832	0.00307
342.66	0.092	0.04247	0.0034
300.02	0.12	0.00982	0.00079
304.62	0.12	0.01202	0.00096
307.29	0.12	0.01331	0.00107
309.93	0.12	0.01467	0.00118
312.71	0.12	0.01632	0.00131
315.42	0.12	0.01807	0.00145
317.63	0.12	0.02003	0.00161
320.14	0.12	0.02199	0.00176
323.38	0.12	0.02428	0.00194
327.2	0.12	0.02748	0.0022
329.8	0.12	0.02978	0.00239
332.69	0.12	0.03317	0.00266
336.04	0.12	0.03729	0.00299
340.73	0.12	0.04323	0.00346
303.27	0.15	0.01286	0.00103
307.06	0.15	0.01505	0.00121
311.87	0.15	0.01798	0.00144
315.37	0.15	0.02013	0.00161
318.63	0.15	0.02243	0.0018
321.26	0.15	0.02485	0.00199
325.77	0.15	0.02819	0.00226
329.21	0.15	0.03146	0.00252
332.54	0.15	0.03503	0.00281
335.76	0.15	0.03876	0.0031
339.25	0.15	0.04356	0.00349
343.42	0.15	0.04964	0.00398

System: butanedioic acid + ethyl acetate; phases: Liquid, Crystal
Fixed: Pressure, kPa = 100
Property: Mole fraction of butanedioic acid (Liquid); method: Titration method
Temperature, K	Mole fraction of butanedioic acid	uncertainty
299.12	0.004	0.00032
303.36	0.00471	0.00038
306.51	0.00506	0.00041
310.56	0.00593	0.00048
315.01	0.00682	0.00055
317.96	0.00755	0.0006
321.93	0.00849	0.00068
325.72	0.00949	0.00076
329.26	0.01065	0.00085
332.85	0.01189	0.00095
335.42	0.01304	0.00104
338.12	0.01412	0.00113
340.36	0.01539	0.00123

System: 1,6-hexanedioic acid + ethyl acetate; phases: Liquid, Crystal
Fixed: Pressure, kPa = 100
Property: Mole fraction of 1,6-hexanedioic acid (Liquid); method: Titration method
Temperature, K	Mole fraction of 1,6-hexanedioic acid	uncertainty
300.12	0.00425	0.00034
303.45	0.00498	0.0004
306.36	0.0056	0.00045
309.22	0.00685	0.00055
314.24	0.00866	0.00069
317.29	0.01017	0.00082
320.96	0.01192	0.00096
324.65	0.01396	0.00112
328.72	0.01645	0.00132
332.47	0.01902	0.00152
336.53	0.02198	0.00176
340.01	0.02482	0.00199
343.02	0.02786	0.00223

System: butanedioic acid + acetic acid; phases: Liquid, Crystal
Fixed: Pressure, kPa = 100
Property: Mole fraction of butanedioic acid (Liquid); method: Titration method
Temperature, K	Mole fraction of butanedioic acid	uncertainty
300.17	0.014	0.0008
303.57	0.0156	0.0009
307.06	0.0172	0.001
310.12	0.0195	0.0012
313.55	0.0213	0.0013
318.55	0.0249	0.0015

System: 1,6-hexanedioic acid + acetic acid; phases: Liquid, Crystal
Fixed: Pressure, kPa = 100
Property: Mole fraction of 1,6-hexanedioic acid (Liquid); method: Titration method
Temperature, K	Mole fraction of 1,6-hexanedioic acid	uncertainty
302.15	0.0242	0.0015
306.75	0.0283	0.0017
311.95	0.034	0.002
315.34	0.0393	0.0024
320.03	0.0463	0.0028
324.13	0.052	0.0031
