Measured thermophysical data. Reactive Extraction of Gallic Acid Using Tributyl Phosphate in Different Classes of Diluents
Source: J. Chem. Eng. Data, 2019, 10.1021/acs.jced.9b00192
Compound 1: 3,4,5-trihydroxybenzoic acid, C7H6O5, InChI=1S/C7H6O5/c8-4-1-3(7(11)12)2-5(9)6(4)10/h1-2,8-10H,(H,11,12), purity 99.5%
Compound 2: octan-1-ol, C8H18O, InChI=1S/C8H18O/c1-2-3-4-5-6-7-8-9/h9H,2-8H2,1H3, purity 99%
Compound 3: ethyl acetate, C4H8O2, InChI=1S/C4H8O2/c1-3-6-4(2)5/h3H2,1-2H3, purity 99.5%
Compound 4: hexane, C6H14, InChI=1S/C6H14/c1-3-5-6-4-2/h3-6H2,1-2H3, purity 95%
Compound 5: toluene, C7H8, InChI=1S/C7H8/c1-7-5-3-2-4-6-7/h2-6H,1H3, purity 99%
Compound 6: water, H2O, InChI=1S/H2O/h1H2, purity 99.9%

System: 3,4,5-trihydroxybenzoic acid + octan-1-ol + water; phases: Liquid mixture 1, Liquid mixture 2
Fixed: Pressure, kPa = 101.3
Fixed: Temperature, K = 303
Property: Molality, mol/kg of 3,4,5-trihydroxybenzoic acid (Liquid mixture 1); method: UV spectroscopy
Molality, mol/kg of 3,4,5-trihydroxybenzoic acid	Molality, mol/kg of 3,4,5-trihydroxybenzoic acid	uncertainty
0.005	0.004	0.004
0.009	0.011	0.004
0.013	0.017	0.004
0.016	0.024	0.005
0.019	0.031	0.005
0.022	0.038	0.005

System: 3,4,5-trihydroxybenzoic acid + ethyl acetate + water; phases: Liquid mixture 1, Liquid mixture 2
Fixed: Pressure, kPa = 101.3
Fixed: Temperature, K = 303
Property: Molality, mol/kg of 3,4,5-trihydroxybenzoic acid (Liquid mixture 1); method: UV spectroscopy
Molality, mol/kg of 3,4,5-trihydroxybenzoic acid	Molality, mol/kg of 3,4,5-trihydroxybenzoic acid	uncertainty
0.004	0.005	0.004
0.008	0.011	0.004
0.012	0.018	0.004
0.015	0.024	0.004
0.019	0.031	0.005
0.022	0.038	0.005

System: 3,4,5-trihydroxybenzoic acid + hexane + water; phases: Liquid mixture 1, Liquid mixture 2
Fixed: Pressure, kPa = 101.3
Fixed: Temperature, K = 303
Property: Molality, mol/kg of 3,4,5-trihydroxybenzoic acid (Liquid mixture 1); method: UV spectroscopy
Molality, mol/kg of 3,4,5-trihydroxybenzoic acid	Molality, mol/kg of 3,4,5-trihydroxybenzoic acid	uncertainty
0.0098	0.0002	0.0003
0.019	0.001	0.001
0.028	0.002	0.002
0.036	0.003	0.002
0.045	0.005	0.002
0.053	0.007	0.002

System: 3,4,5-trihydroxybenzoic acid + toluene + water; phases: Liquid mixture 1, Liquid mixture 2
Fixed: Pressure, kPa = 101.3
Fixed: Temperature, K = 303
Property: Molality, mol/kg of 3,4,5-trihydroxybenzoic acid (Liquid mixture 1); method: UV spectroscopy
Molality, mol/kg of 3,4,5-trihydroxybenzoic acid	Molality, mol/kg of 3,4,5-trihydroxybenzoic acid	uncertainty
0.009	0.0004	0.0004
0.018	0.0012	0.0012
0.027	0.0025	0.002
0.036	0.004	0.002
0.044	0.0055	0.002
0.053	0.007	0.002
