Measured thermophysical data. Phase Behavior of Aqueous Two-Phase Systems Composed by 1-Allyl-3-methylimidazolium Chloride and Aqueous Potassium Salts at Various Temperatures
Source: J. Chem. Eng. Data, 2016, 10.1021/acs.jced.6b00744
Compound 1: 1-allyl-3-methylimidazolium chloride, C7H11ClN2, InChI=1S/C7H11N2.ClH/c1-3-4-9-6-5-8(2)7-9;/h3,5-7H,1,4H2,2H3;1H/q+1;/p-1, purity 99%
Compound 2: potassium citrate, C6H5K3O7, InChI=1S/C6H8O7.3K/c7-3(8)1-6(13,5(11)12)2-4(9)10;;;/h13H,1-2H2,(H,7,8)(H,9,10)(H,11,12);;;/q;3*+1/p-3, purity 99%
Compound 3: dipotassium L-tartrate, C4H4K2O6, InChI=1S/C4H6O6.2K/c5-1(3(7)8)2(6)4(9)10;;/h1-2,5-6H,(H,7,8)(H,9,10);;/q;2*+1/p-2/t1-,2-;;/m1../s1, purity 99%
Compound 4: water, H2O, InChI=1S/H2O/h1H2

System: potassium citrate + water + 1-allyl-3-methylimidazolium chloride; phases: Liquid mixture 1, Liquid mixture 2
Fixed: Pressure, kPa = 100
Property: Mass fraction of potassium citrate (Liquid mixture 1); method: Titration method
Temperature, K	Mass fraction of 1-allyl-3-methylimidazolium chloride	Mass fraction of potassium citrate	uncertainty
288.15	0.6832	0.0363	0.0047
288.15	0.5648	0.0755	0.0048
288.15	0.5227	0.0951	0.0062
288.15	0.4867	0.1148	0.0069
288.15	0.4549	0.1344	0.0079
288.15	0.4209	0.1609	0.0084
288.15	0.4093	0.1676	0.0077
288.15	0.4025	0.1722	0.008
288.15	0.3933	0.1781	0.0085
288.15	0.3807	0.1882	0.009
288.15	0.3765	0.192	0.009
288.15	0.3646	0.2012	0.009
288.15	0.3571	0.207	0.0222
288.15	0.3553	0.2123	0.0222
288.15	0.3415	0.2212	0.0091
288.15	0.3335	0.2279	0.01
288.15	0.3299	0.232	0.0105
288.15	0.3237	0.2379	0.0103
288.15	0.3169	0.2443	0.0106
288.15	0.3129	0.249	0.0107
288.15	0.3048	0.2567	0.0106
288.15	0.2969	0.264	0.011
288.15	0.2929	0.2692	0.011
288.15	0.2832	0.2779	0.0111
288.15	0.2716	0.2901	0.0117
288.15	0.2657	0.2974	0.0118
288.15	0.2554	0.3075	0.0118
288.15	0.2465	0.3169	0.031
288.15	0.2457	0.3216	0.0309
288.15	0.2406	0.3264	0.0123
288.15	0.2348	0.3325	0.0125
288.15	0.2301	0.3371	0.0127
288.15	0.2182	0.3501	0.013
288.15	0.2129	0.3552	0.013
288.15	0.2094	0.3586	0.0131
288.15	0.2041	0.3641	0.0134
288.15	0.2004	0.3684	0.0135
288.15	0.193	0.3762	0.0137
288.15	0.1895	0.3805	0.014
288.15	0.1859	0.3849	0.014
288.15	0.1811	0.3901	0.0141
288.15	0.1771	0.3947	0.0143
288.15	0.1731	0.3995	0.0144
288.15	0.169	0.4044	0.0145
288.15	0.1638	0.4102	0.0147
288.15	0.1593	0.4159	0.0152
288.15	0.1576	0.4197	0.0151
288.15	0.1523	0.4256	0.0152
288.15	0.1502	0.4289	0.0154
288.15	0.1458	0.4343	0.0155
288.15	0.1428	0.4389	0.0157
288.15	0.138	0.4451	0.0159
288.15	0.1358	0.4495	0.0163
288.15	0.1324	0.4548	0.0162
288.15	0.1269	0.4616	0.0164
288.15	0.1244	0.4663	0.0168
288.15	0.122	0.4708	0.0169
288.15	0.1194	0.4751	0.0167
288.15	0.1137	0.4817	0.0171
288.15	0.1113	0.4887	0.0181
288.15	0.0999	0.5035	0.0176
288.15	0.0812	0.5357	0.0172
288.15	0.0728	0.5518	0.0171
288.15	0.0649	0.5679	0.0169
298.15	0.7702	0.0129	0.0029
298.15	0.6933	0.0274	0.0037
298.15	0.5989	0.0566	0.0054
298.15	0.4848	0.1148	0.0066
298.15	0.4428	0.144	0.0082
298.15	0.4152	0.166	0.0073
298.15	0.4088	0.1704	0.0086
298.15	0.4035	0.1745	0.0089
298.15	0.3896	0.1863	0.0093
298.15	0.3849	0.1904	0.0093
298.15	0.3794	0.195	0.0095
298.15	0.3755	0.1988	0.0098
298.15	0.3709	0.203	0.01
298.15	0.3667	0.2073	0.0098
298.15	0.3615	0.2116	0.0097
298.15	0.3535	0.2186	0.0091
298.15	0.3484	0.2207	0.0094
298.15	0.3453	0.2266	0.0126
298.15	0.3425	0.2304	0.0138
298.15	0.3413	0.2339	0.0103
298.15	0.3338	0.2404	0.0098
298.15	0.3308	0.2432	0.0099
298.15	0.3285	0.2458	0.0101
298.15	0.322	0.2492	0.0099
298.15	0.3182	0.254	0.0112
298.15	0.3143	0.2576	0.0109
298.15	0.3119	0.2603	0.0117
298.15	0.3085	0.2646	0.0108
298.15	0.3056	0.2668	0.011
298.15	0.2998	0.2724	0.0107
298.15	0.2964	0.275	0.0113
298.15	0.2918	0.2807	0.0118
298.15	0.2892	0.2831	0.0121
298.15	0.287	0.2861	0.011
298.15	0.2839	0.2888	0.011
298.15	0.2792	0.2923	0.0114
298.15	0.2744	0.2976	0.0121
298.15	0.2718	0.3009	0.0119
298.15	0.2672	0.3052	0.0121
298.15	0.2607	0.3129	0.0126
298.15	0.2581	0.3165	0.0119
298.15	0.2545	0.3206	0.0125
298.15	0.2508	0.3245	0.0121
298.15	0.2462	0.329	0.0124
298.15	0.2416	0.3336	0.0127
298.15	0.2373	0.3386	0.0129
298.15	0.2334	0.3428	0.0128
298.15	0.2281	0.3481	0.013
298.15	0.2203	0.3569	0.0132
298.15	0.2133	0.3636	0.0132
298.15	0.2089	0.3676	0.0137
298.15	0.2039	0.3752	0.0143
298.15	0.2013	0.3786	0.0137
298.15	0.1976	0.3806	0.0137
298.15	0.1944	0.3852	0.0142
298.15	0.1902	0.39	0.0142
298.15	0.1862	0.3949	0.0143
298.15	0.182	0.3996	0.0145
298.15	0.1776	0.4052	0.0148
298.15	0.1748	0.4091	0.0148
298.15	0.1704	0.4143	0.015
298.15	0.1679	0.4185	0.0156
298.15	0.1644	0.4238	0.0155
298.15	0.1623	0.4246	0.015
298.15	0.1578	0.4304	0.0156
298.15	0.153	0.4388	0.016
298.15	0.1495	0.4436	0.0158
298.15	0.1479	0.4454	0.0159
298.15	0.1452	0.449	0.016
298.15	0.1428	0.4533	0.0163
298.15	0.1384	0.4589	0.0163
298.15	0.1333	0.4669	0.0165
298.15	0.1303	0.47	0.0165
298.15	0.1274	0.4755	0.0168
298.15	0.1237	0.4808	0.0169
298.15	0.121	0.4856	0.017
298.15	0.1131	0.4937	0.0174
298.15	0.0951	0.522	0.0174
298.15	0.0788	0.5503	0.0171
298.15	0.0644	0.5786	0.0168
308.15	0.6715	0.0306	0.0042
308.15	0.6162	0.0483	0.0047
308.15	0.5735	0.0661	0.0061
308.15	0.5078	0.1016	0.007
308.15	0.4562	0.1372	0.0083
308.15	0.4057	0.1785	0.0095
308.15	0.4009	0.1831	0.0089
308.15	0.3976	0.1854	0.009
308.15	0.3962	0.187	0.0105
308.15	0.3942	0.1888	0.0089
308.15	0.3897	0.1917	0.0098
308.15	0.3877	0.1944	0.009
308.15	0.3816	0.1992	0.0098
308.15	0.3739	0.2059	0.0074
308.15	0.3747	0.2059	0.0075
308.15	0.3719	0.2081	0.0117
308.15	0.3672	0.2125	0.0101
308.15	0.3676	0.2133	0.0101
308.15	0.3631	0.2158	0.012
308.15	0.3613	0.219	0.0096
308.15	0.3551	0.224	0.0129
308.15	0.3538	0.2262	0.0089
308.15	0.3499	0.2279	0.0095
308.15	0.3488	0.2298	0.0089
308.15	0.349	0.2314	0.0096
308.15	0.3457	0.2321	0.0139
308.15	0.3442	0.2358	0.0132
308.15	0.3438	0.2368	0.0149
308.15	0.3406	0.2413	0.0117
308.15	0.3383	0.2415	0.0087
308.15	0.3357	0.2444	0.0121
308.15	0.3318	0.2482	0.0125
308.15	0.3329	0.2485	0.0118
308.15	0.3301	0.2507	0.0103
308.15	0.3268	0.2544	0.0093
308.15	0.326	0.2546	0.0114
308.15	0.3242	0.2571	0.0117
308.15	0.3214	0.2605	0.012
308.15	0.321	0.2606	0.0122
308.15	0.3196	0.2632	0.0114
308.15	0.3151	0.2673	0.0103
308.15	0.31	0.2702	0.0103
308.15	0.3067	0.2723	0.0118
308.15	0.2991	0.282	0.0115
308.15	0.2943	0.2857	0.0111
308.15	0.2917	0.2885	0.0124
308.15	0.2899	0.2912	0.0121
308.15	0.2863	0.2948	0.0121
308.15	0.284	0.2976	0.0121
308.15	0.2769	0.3055	0.0119
308.15	0.2713	0.3102	0.0119
308.15	0.2677	0.3143	0.0128
308.15	0.2629	0.3206	0.0122
308.15	0.2542	0.3278	0.0124
308.15	0.2506	0.3318	0.0123
308.15	0.2455	0.3368	0.0129
308.15	0.2417	0.3418	0.013
308.15	0.2272	0.3582	0.0133
308.15	0.2187	0.3656	0.0134
308.15	0.2151	0.37	0.0138
308.15	0.2044	0.3827	0.0141
308.15	0.1917	0.398	0.0145
308.15	0.1848	0.4055	0.0147
308.15	0.1824	0.4089	0.0164
308.15	0.1716	0.4221	0.0153
308.15	0.1552	0.445	0.016
308.15	0.1493	0.4531	0.0163
308.15	0.1428	0.4615	0.0166
308.15	0.1421	0.4728	0.0173
308.15	0.11	0.5076	0.0175
308.15	0.0886	0.5419	0.0172
308.15	0.0699	0.5761	0.0168
318.15	0.6712	0.0301	0.0048
318.15	0.6107	0.051	0.0051
318.15	0.5652	0.0718	0.0062
318.15	0.5281	0.0926	0.0071
318.15	0.4961	0.1134	0.0079
318.15	0.4678	0.1342	0.0084
318.15	0.4488	0.1489	0.0088
318.15	0.445	0.1519	0.009
318.15	0.4416	0.1548	0.0092
318.15	0.4376	0.1582	0.0094
318.15	0.4339	0.1615	0.0095
318.15	0.43	0.1649	0.0091
318.15	0.4256	0.1684	0.0091
318.15	0.421	0.1723	0.0098
318.15	0.4179	0.1755	0.0102
318.15	0.4142	0.179	0.0095
318.15	0.4088	0.1835	0.0114
318.15	0.4049	0.1873	0.007
318.15	0.4071	0.188	0.0099
318.15	0.3951	0.1955	0.0132
318.15	0.3926	0.1973	0.0108
318.15	0.393	0.1985	0.0106
318.15	0.3888	0.2021	0.0103
318.15	0.3855	0.2041	0.0132
318.15	0.3847	0.2063	0.011
318.15	0.381	0.2106	0.0104
318.15	0.3746	0.2163	0.0103
318.15	0.3703	0.2208	0.0105
318.15	0.3667	0.2239	0.0107
318.15	0.3656	0.2258	0.0108
318.15	0.3621	0.2288	0.0106
318.15	0.3594	0.2318	0.0121
318.15	0.3556	0.2353	0.0119
318.15	0.3563	0.2361	0.012
318.15	0.3529	0.2398	0.0126
318.15	0.3506	0.242	0.0107
318.15	0.3438	0.2484	0.011
318.15	0.3376	0.2549	0.0112
318.15	0.3311	0.2615	0.0114
318.15	0.3246	0.2684	0.0116
318.15	0.3178	0.2756	0.0118
318.15	0.3111	0.283	0.0119
318.15	0.3033	0.2912	0.011
318.15	0.2943	0.2955	0.0108
318.15	0.2918	0.2982	0.0126
318.15	0.2895	0.3014	0.0121
318.15	0.2841	0.3066	0.0122
318.15	0.2819	0.3095	0.0131
318.15	0.2795	0.3127	0.0124
318.15	0.2748	0.3174	0.0124
318.15	0.2717	0.3209	0.0125
318.15	0.267	0.3256	0.0127
318.15	0.2645	0.3289	0.013
318.15	0.2603	0.3335	0.013
318.15	0.2557	0.339	0.0133
318.15	0.2528	0.3428	0.0129
318.15	0.246	0.3489	0.013
318.15	0.243	0.3526	0.0137
318.15	0.2399	0.3566	0.0135
318.15	0.2348	0.3619	0.0135
318.15	0.2297	0.3672	0.0137
318.15	0.2263	0.3716	0.014
318.15	0.2218	0.3767	0.0141
318.15	0.2181	0.3814	0.0141
318.15	0.2126	0.3873	0.0143
318.15	0.2086	0.3922	0.0147
318.15	0.2051	0.3975	0.0146
318.15	0.2002	0.4025	0.0148
318.15	0.1978	0.4067	0.0152
318.15	0.1939	0.4117	0.0149
318.15	0.1865	0.4192	0.0151
318.15	0.1826	0.4246	0.0155
318.15	0.1753	0.4342	0.0156
318.15	0.1681	0.4423	0.0159
318.15	0.1661	0.4465	0.0162
318.15	0.1611	0.453	0.0162
318.15	0.1414	0.4761	0.0169
318.15	0.1154	0.5127	0.0175
318.15	0.0922	0.5493	0.0171
318.15	0.0718	0.5859	0.0168

System: dipotassium L-tartrate + water + 1-allyl-3-methylimidazolium chloride; phases: Liquid mixture 1, Liquid mixture 2
Fixed: Pressure, kPa = 100
Property: Mass fraction of dipotassium L-tartrate (Liquid mixture 1); method: Titration method
Temperature, K	Mass fraction of 1-allyl-3-methylimidazolium chloride	Mass fraction of dipotassium L-tartrate	uncertainty
288.15	0.6886	0.0173	0.0034
288.15	0.5942	0.0401	0.0037
288.15	0.5327	0.0629	0.005
288.15	0.4858	0.0857	0.0064
288.15	0.4143	0.1313	0.0075
288.15	0.3569	0.178	0.0113
288.15	0.3557	0.1796	0.0089
288.15	0.3521	0.1824	0.0095
288.15	0.3468	0.1884	0.0094
288.15	0.3429	0.1913	0.0082
288.15	0.3375	0.1949	0.009
288.15	0.3313	0.2015	0.0099
288.15	0.3289	0.2041	0.0103
288.15	0.3242	0.2096	0.0103
288.15	0.3214	0.2125	0.0095
288.15	0.3185	0.2149	0.0094
288.15	0.3158	0.2176	0.0098
288.15	0.3103	0.223	0.0097
288.15	0.306	0.2269	0.0099
288.15	0.3032	0.23	0.0105
288.15	0.3015	0.232	0.0112
288.15	0.2987	0.2358	0.0105
288.15	0.2917	0.2429	0.01
288.15	0.2867	0.2469	0.0098
288.15	0.2806	0.2521	0.0102
288.15	0.2772	0.2561	0.0109
288.15	0.2737	0.26	0.0123
288.15	0.2711	0.2656	0.0124
288.15	0.2674	0.2699	0.0111
288.15	0.265	0.2724	0.0104
288.15	0.2615	0.2749	0.011
288.15	0.258	0.2797	0.0117
288.15	0.2556	0.2823	0.0105
288.15	0.2516	0.2847	0.011
288.15	0.2486	0.2893	0.0124
288.15	0.2462	0.2927	0.0111
288.15	0.242	0.2956	0.0112
288.15	0.2375	0.3008	0.0119
288.15	0.2333	0.3061	0.012
288.15	0.2302	0.3097	0.0125
288.15	0.2263	0.3158	0.0129
288.15	0.2236	0.3196	0.0124
288.15	0.2207	0.3229	0.0122
288.15	0.2156	0.3285	0.0124
288.15	0.2122	0.3327	0.0126
288.15	0.2096	0.3355	0.0125
288.15	0.2034	0.3423	0.0125
288.15	0.2014	0.3433	0.0135
288.15	0.1987	0.3496	0.0138
288.15	0.1942	0.3555	0.0134
288.15	0.1914	0.3594	0.0131
288.15	0.1865	0.3641	0.0132
288.15	0.1823	0.3691	0.0133
288.15	0.178	0.3727	0.0136
288.15	0.1758	0.3773	0.0145
288.15	0.1722	0.383	0.0148
288.15	0.1699	0.3887	0.0143
288.15	0.1659	0.3924	0.014
288.15	0.1548	0.4041	0.0145
288.15	0.1511	0.4112	0.0149
288.15	0.1459	0.417	0.0149
288.15	0.1437	0.421	0.0149
288.15	0.1354	0.4293	0.0152
288.15	0.1307	0.4368	0.0158
288.15	0.1264	0.4451	0.0162
288.15	0.1219	0.4537	0.0163
288.15	0.1166	0.4621	0.0164
288.15	0.105	0.4809	0.017
288.15	0.1001	0.4898	0.0173
288.15	0.094	0.4997	0.0176
288.15	0.0878	0.5108	0.0175
288.15	0.0837	0.5171	0.0174
288.15	0.0689	0.5463	0.0171
288.15	0.0558	0.5755	0.0168
298.15	0.6011	0.039	0.0044
298.15	0.5288	0.0675	0.0051
298.15	0.4921	0.0866	0.0066
298.15	0.4333	0.1246	0.0076
298.15	0.3832	0.1656	0.0088
298.15	0.3791	0.1685	0.0088
298.15	0.3749	0.1724	0.0089
298.15	0.3695	0.1758	0.0089
298.15	0.3671	0.1776	0.0102
298.15	0.3634	0.1829	0.0104
298.15	0.3602	0.1855	0.0091
298.15	0.3582	0.1876	0.0088
298.15	0.3546	0.1905	0.009
298.15	0.3522	0.1927	0.011
298.15	0.3492	0.1969	0.01
298.15	0.3451	0.2002	0.0091
298.15	0.3419	0.203	0.0091
298.15	0.3382	0.2061	0.0093
298.15	0.336	0.2085	0.0096
298.15	0.3323	0.2116	0.0097
298.15	0.3307	0.214	0.0098
298.15	0.3262	0.2177	0.0097
298.15	0.3242	0.2202	0.0108
298.15	0.3216	0.2231	0.0101
298.15	0.3179	0.2266	0.0101
298.15	0.3147	0.2301	0.0104
298.15	0.3114	0.2333	0.01
298.15	0.3075	0.2371	0.0102
298.15	0.304	0.2406	0.0105
298.15	0.3011	0.244	0.0105
298.15	0.2969	0.2479	0.0104
298.15	0.2933	0.2518	0.0108
298.15	0.2896	0.2558	0.011
298.15	0.2863	0.2596	0.0109
298.15	0.2819	0.2639	0.0108
298.15	0.2788	0.2677	0.0113
298.15	0.2754	0.2718	0.0111
298.15	0.2708	0.2765	0.0111
298.15	0.2669	0.2808	0.0116
298.15	0.2633	0.2853	0.0121
298.15	0.2606	0.2893	0.0115
298.15	0.2535	0.2956	0.0113
298.15	0.2491	0.3006	0.012
298.15	0.2451	0.3056	0.0123
298.15	0.2413	0.3106	0.0123
298.15	0.2362	0.316	0.0122
298.15	0.2311	0.3219	0.0123
298.15	0.2257	0.3279	0.0124
298.15	0.2203	0.3339	0.0126
298.15	0.2148	0.3403	0.0131
298.15	0.2128	0.3445	0.0132
298.15	0.207	0.3509	0.013
298.15	0.2005	0.3584	0.0133
298.15	0.194	0.3657	0.0135
298.15	0.1901	0.3713	0.0142
298.15	0.1869	0.3772	0.0139
298.15	0.1793	0.3852	0.0139
298.15	0.174	0.3914	0.0145
298.15	0.1711	0.3975	0.0146
298.15	0.1586	0.4122	0.0147
298.15	0.1508	0.4214	0.0151
298.15	0.1431	0.4313	0.0155
298.15	0.1397	0.4368	0.0155
298.15	0.1317	0.4474	0.0159
298.15	0.1236	0.459	0.0163
298.15	0.115	0.4717	0.0168
298.15	0.1106	0.482	0.0172
298.15	0.1046	0.4921	0.0174
298.15	0.0971	0.5043	0.0175
298.15	0.0649	0.5633	0.0169
298.15	0.04	0.6247	0.0165
298.15	0.0227	0.6861	0.0164
308.15	0.6329	0.0372	0.0047
308.15	0.5545	0.0653	0.0051
308.15	0.4979	0.0935	0.0064
308.15	0.4526	0.1216	0.0077
308.15	0.3991	0.1634	0.0072
308.15	0.3931	0.1675	0.0079
308.15	0.3878	0.1713	0.0085
308.15	0.3837	0.1751	0.009
308.15	0.3784	0.1795	0.0092
308.15	0.374	0.1837	0.0094
308.15	0.3644	0.1924	0.009
308.15	0.356	0.1987	0.0096
308.15	0.3479	0.2079	0.0099
308.15	0.3403	0.2139	0.0086
308.15	0.3385	0.2166	0.0096
308.15	0.3355	0.2198	0.009
308.15	0.3341	0.2199	0.0101
308.15	0.3319	0.2231	0.0123
308.15	0.3306	0.2245	0.0117
308.15	0.3275	0.2271	0.0096
308.15	0.3244	0.2305	0.011
308.15	0.3216	0.2338	0.0108
308.15	0.3165	0.2387	0.01
308.15	0.311	0.2432	0.0103
308.15	0.3086	0.2468	0.0109
308.15	0.3041	0.2509	0.0108
308.15	0.3006	0.255	0.0111
308.15	0.2966	0.2593	0.0111
308.15	0.2897	0.2665	0.0108
308.15	0.2859	0.2701	0.0115
308.15	0.2815	0.2759	0.0119
308.15	0.2776	0.2805	0.0119
308.15	0.2734	0.2854	0.0115
308.15	0.2668	0.2918	0.0115
308.15	0.2616	0.2971	0.0118
308.15	0.2572	0.3024	0.0121
308.15	0.2523	0.3079	0.0123
308.15	0.2476	0.3139	0.0125
308.15	0.2424	0.32	0.0125
308.15	0.2372	0.3262	0.0126
308.15	0.2322	0.3324	0.0127
308.15	0.2258	0.3395	0.0128
308.15	0.2199	0.3464	0.013
308.15	0.2135	0.3536	0.0135
308.15	0.2107	0.3591	0.0135
308.15	0.203	0.3673	0.0135
308.15	0.1956	0.3758	0.0138
308.15	0.1876	0.385	0.0143
308.15	0.1848	0.391	0.0145
308.15	0.1772	0.4001	0.0144
308.15	0.1684	0.4098	0.0148
308.15	0.1554	0.4269	0.0154
308.15	0.1504	0.4348	0.0158
308.15	0.1408	0.4503	0.0162
308.15	0.1245	0.4728	0.0167
308.15	0.1192	0.4822	0.017
308.15	0.108	0.4967	0.0175
308.15	0.1051	0.504	0.0176
308.15	0.0839	0.5412	0.0172
308.15	0.0655	0.5784	0.0168
318.15	0.6882	0.028	0.0043
318.15	0.587	0.0585	0.0047
318.15	0.5194	0.089	0.0061
318.15	0.4673	0.1195	0.0073
318.15	0.4194	0.1531	0.0089
318.15	0.4103	0.1609	0.0089
318.15	0.4007	0.1688	0.009
318.15	0.3969	0.1724	0.0096
318.15	0.393	0.1761	0.0093
318.15	0.3889	0.1796	0.0088
318.15	0.3821	0.1848	0.0096
318.15	0.3791	0.1891	0.0106
318.15	0.3739	0.194	0.0096
318.15	0.3687	0.1986	0.0092
318.15	0.3614	0.2045	0.0097
318.15	0.3581	0.2085	0.0096
318.15	0.3459	0.2185	0.009
318.15	0.3355	0.2244	0.0088
318.15	0.3325	0.227	0.0099
318.15	0.3276	0.2316	0.011
318.15	0.3253	0.2355	0.0112
318.15	0.322	0.2383	0.0104
318.15	0.3179	0.2428	0.0115
318.15	0.3155	0.2465	0.011
318.15	0.3118	0.2497	0.0102
318.15	0.3082	0.2529	0.0114
318.15	0.3056	0.2572	0.0114
318.15	0.302	0.2602	0.0107
318.15	0.2994	0.2632	0.0117
318.15	0.2973	0.266	0.0115
318.15	0.2921	0.2717	0.0109
318.15	0.2896	0.2731	0.0108
318.15	0.2878	0.2756	0.0125
318.15	0.286	0.2781	0.0124
318.15	0.2838	0.2811	0.0124
318.15	0.2816	0.284	0.0122
318.15	0.2791	0.2871	0.0119
318.15	0.2754	0.2913	0.0119
318.15	0.2727	0.2944	0.0119
318.15	0.2696	0.2979	0.012
318.15	0.264	0.3043	0.0122
318.15	0.2613	0.3077	0.0116
318.15	0.2564	0.3113	0.0117
318.15	0.253	0.3153	0.0132
318.15	0.2498	0.321	0.0134
318.15	0.2464	0.3253	0.0126
318.15	0.2427	0.3291	0.0126
318.15	0.2393	0.3331	0.013
318.15	0.2358	0.3377	0.0131
318.15	0.2321	0.3422	0.0131
318.15	0.228	0.3471	0.0132
318.15	0.2244	0.3516	0.0135
318.15	0.2205	0.3568	0.0136
318.15	0.2166	0.3615	0.0136
318.15	0.2124	0.3668	0.0138
318.15	0.2083	0.3721	0.014
318.15	0.2028	0.3794	0.014
318.15	0.1982	0.3843	0.0139
318.15	0.1931	0.3894	0.0143
318.15	0.1821	0.4038	0.0148
318.15	0.1741	0.4149	0.015
318.15	0.166	0.4232	0.0151
318.15	0.1558	0.434	0.0153
318.15	0.1461	0.4423	0.0157
318.15	0.142	0.4509	0.0173
318.15	0.1384	0.4625	0.0172
318.15	0.1325	0.4725	0.0168
318.15	0.1215	0.488	0.0176
318.15	0.1195	0.4919	0.0177
318.15	0.0859	0.5497	0.0171
318.15	0.0627	0.5979	0.0167
