Measured thermophysical data. Liquid Phase Equilibria of Aqueous Mixtures of Carboxylic Acids (C1-C4) with Ethylbenzene: Thermodynamic and Mathematical Modeling
Source: J. Chem. Eng. Data, 2016, 10.1021/acs.jced.6b00112
Compound 1: formic acid, CH2O2, InChI=1S/CH2O2/c2-1-3/h1H,(H,2,3), purity 99%
Compound 2: acetic acid, C2H4O2, InChI=1S/C2H4O2/c1-2(3)4/h1H3,(H,3,4), purity 99%
Compound 3: propanoic acid, C3H6O2, InChI=1S/C3H6O2/c1-2-3(4)5/h2H2,1H3,(H,4,5), purity 99%
Compound 4: butanoic acid, C4H8O2, InChI=1S/C4H8O2/c1-2-3-4(5)6/h2-3H2,1H3,(H,5,6), purity 99%
Compound 5: ethylbenzene, C8H10, InChI=1S/C8H10/c1-2-8-6-4-3-5-7-8/h3-7H,2H2,1H3, purity 99%
Compound 6: water, H2O, InChI=1S/H2O/h1H2, purity 99.8%

System: formic acid; phases: Liquid
Property: Mass density, kg/m3 (Liquid); method: Vibrating tube method
Temperature, K	Pressure, kPa	Mass density, kg/m3	uncertainty
298.15	101.325	1219.5	10.01

System: formic acid; phases: Liquid
Property: Refractive index (Na D-line) (Liquid); method: Standard Abbe refractometry
Temperature, K	Pressure, kPa	Refractive index (Na D-line)	uncertainty
298.15	101.325	1.371	0.0008

System: acetic acid; phases: Liquid
Property: Mass density, kg/m3 (Liquid); method: Vibrating tube method
Temperature, K	Pressure, kPa	Mass density, kg/m3	uncertainty
298.15	101.325	1044.12	10

System: acetic acid; phases: Liquid
Property: Refractive index (Na D-line) (Liquid); method: Standard Abbe refractometry
Temperature, K	Pressure, kPa	Refractive index (Na D-line)	uncertainty
298.15	101.325	1.3714	0.0008

System: propanoic acid; phases: Liquid
Property: Mass density, kg/m3 (Liquid); method: Vibrating tube method
Temperature, K	Pressure, kPa	Mass density, kg/m3	uncertainty
298.15	101.325	998.04	10

System: propanoic acid; phases: Liquid
Property: Refractive index (Na D-line) (Liquid); method: Standard Abbe refractometry
Temperature, K	Pressure, kPa	Refractive index (Na D-line)	uncertainty
298.15	101.325	1.3807	0.0008

System: butanoic acid; phases: Liquid
Property: Mass density, kg/m3 (Liquid); method: Vibrating tube method
Temperature, K	Pressure, kPa	Mass density, kg/m3	uncertainty
298.15	101.325	952.68	10

System: butanoic acid; phases: Liquid
Property: Refractive index (Na D-line) (Liquid); method: Standard Abbe refractometry
Temperature, K	Pressure, kPa	Refractive index (Na D-line)	uncertainty
298.15	101.325	1.3977	0.0008

System: ethylbenzene; phases: Liquid
Property: Mass density, kg/m3 (Liquid); method: Vibrating tube method
Temperature, K	Pressure, kPa	Mass density, kg/m3	uncertainty
298.15	101.325	862.51	10

System: ethylbenzene; phases: Liquid
Property: Refractive index (Na D-line) (Liquid); method: Standard Abbe refractometry
Temperature, K	Pressure, kPa	Refractive index (Na D-line)	uncertainty
298.15	101.325	1.493	0.0008

System: water; phases: Liquid
Property: Mass density, kg/m3 (Liquid); method: Vibrating tube method
Temperature, K	Pressure, kPa	Mass density, kg/m3	uncertainty
298.15	101.325	997.01	10

System: water; phases: Liquid
Property: Refractive index (Na D-line) (Liquid); method: Standard Abbe refractometry
Temperature, K	Pressure, kPa	Refractive index (Na D-line)	uncertainty
298.15	101.325	1.3324	0.0008

System: formic acid + ethylbenzene + water; phases: Liquid mixture 1, Liquid mixture 2
Fixed: Temperature, K = 298.15
Fixed: Pressure, kPa = 101.32
Property: Mass fraction of formic acid (Liquid mixture 1); method: Titration method
Mass fraction of water	Mass fraction of formic acid	uncertainty
0.8879	0.1077	0.0145
0.8354	0.1603	0.0147
0.7919	0.2015	0.0151
0.6915	0.2998	0.0164
0.592	0.3982	0.018
0.4329	0.5566	0.0188
0.4001	0.589	0.0182
0.2961	0.6908	0.0165
0.2506	0.7344	0.0157
0.1965	0.7861	0.0138
0.1423	0.8136	0.0113
0.1136	0.7854	0.021
0.0735	0.6959	0.0261
0.0584	0.6607	0.0438
0.0485	0.6197	0.0421
0.0334	0.5335	0.0913
0.025	0.4839	0.0862
0.0123	0.2998	0.1456
0.0074	0.2543	0.0973
0.0025	0.1542	0.0382

System: formic acid + ethylbenzene + water; phases: Liquid mixture 2, Liquid mixture 1
Fixed: Temperature, K = 298.15
Fixed: Pressure, kPa = 101.3
Property: Mass fraction of water (Liquid mixture 2); method: Titration and nD calibration
Property: Mass fraction of water (Liquid mixture 1); method: Titration and nD calibration
Property: Mass fraction of formic acid (Liquid mixture 1); method: Titration and nD calibration
Mass fraction of formic acid	Mass fraction of water	uncertainty	Mass fraction of water	uncertainty	Mass fraction of formic acid	uncertainty
0.018	0.001	0.001	0.663	0.016	0.329	
0.022	0.001	0.001	0.597	0.017	0.394	
0.026	0.001	0.001	0.532	0.017	0.459	
0.031	0.001	0.001	0.48	0.017	0.51	
0.045	0.001	0.001	0.395	0.017	0.595	
0.053	0.001	0.001	0.348	0.016	0.64	

System: formic acid + ethylbenzene + water; phases: Liquid mixture 1, Liquid mixture 2
Fixed: Temperature, K = 298.15
Fixed: Pressure, kPa = 101.32
Property: Refractive index (Na D-line) (Liquid mixture 1); method: Standard Abbe refractometry
Mass fraction of water	Refractive index (Na D-line)	uncertainty
0.8879	1.3374	0.0006
0.8354	1.3388	0.0007
0.7919	1.3416	0.0007
0.7309	1.3441	0.0007
0.6915	1.3463	0.0007
0.6453	1.3481	0.0007
0.592	1.3512	0.0008

System: acetic acid + ethylbenzene + water; phases: Liquid mixture 2, Liquid mixture 1
Fixed: Temperature, K = 298.15
Fixed: Pressure, kPa = 101.32
Property: Mass fraction of water (Liquid mixture 2); method: OTHER
Property: Mass fraction of acetic acid (Liquid mixture 1); method: OTHER
Property: Mass fraction of water (Liquid mixture 1); method: OTHER
Mass fraction of acetic acid	Mass fraction of water	uncertainty	Mass fraction of acetic acid	uncertainty	Mass fraction of water	uncertainty
0.016	0.001	0.001	0.204	0.005	0.793	
0.024	0.002	0.002	0.337	0.008	0.658	
0.033	0.002	0.002	0.447	0.011	0.545	
0.042	0.002	0.002	0.501	0.012	0.491	
0.05	0.002	0.002	0.557	0.01	0.428	
0.063	0.003	0.002	0.605	0.009	0.375	

System: acetic acid + ethylbenzene + water; phases: Liquid mixture 1, Liquid mixture 2
Fixed: Temperature, K = 298.15
Fixed: Pressure, kPa = 101.32
Property: Mass fraction of acetic acid (Liquid mixture 1); method: Titration method
Mass fraction of water	Mass fraction of acetic acid	uncertainty
0.8929	0.1035	0.0037
0.8391	0.1573	0.0051
0.7955	0.2009	0.0064
0.7347	0.2618	0.0083
0.6455	0.3497	0.0109
0.5451	0.4478	0.014
0.5016	0.4902	0.0153
0.3914	0.59	0.0128
0.2905	0.6769	0.0101
0.2368	0.7018	0.0093
0.1853	0.7274	0.0085
0.0999	0.6761	0.0103
0.0799	0.6456	0.0113
0.0618	0.611	0.0132
0.0448	0.5272	0.0168
0.0364	0.4782	0.017
0.0278	0.4382	0.0192
0.0207	0.3431	0.0203
0.011	0.2552	0.0188
0.003	0.1528	0.021

System: acetic acid + ethylbenzene + water; phases: Liquid mixture 1, Liquid mixture 2
Fixed: Temperature, K = 298.15
Fixed: Pressure, kPa = 101.32
Property: Refractive index (Na D-line) (Liquid mixture 1); method: Standard Abbe refractometry
Mass fraction of water	Refractive index (Na D-line)	uncertainty
0.8929	1.3408	0.0012
0.8391	1.3468	0.001
0.7955	1.3496	0.0007
0.7347	1.3522	0.0007
0.6455	1.3576	0.0009
0.5451	1.3663	0.0009
0.5016	1.3683	0.0007

System: propanoic acid + ethylbenzene + water; phases: Liquid mixture 2, Liquid mixture 1
Fixed: Temperature, K = 298.15
Fixed: Pressure, kPa = 101.32
Property: Mass fraction of water (Liquid mixture 2); method: OTHER
Property: Mass fraction of propanoic acid (Liquid mixture 1); method: OTHER
Property: Mass fraction of water (Liquid mixture 1); method: OTHER
Mass fraction of propanoic acid	Mass fraction of water	uncertainty	Mass fraction of propanoic acid	uncertainty	Mass fraction of water	uncertainty
0.111	0.004	0.002	0.108	0.004	0.891	
0.229	0.009	0.002	0.203	0.005	0.794	
0.338	0.02	0.002	0.27	0.007	0.725	
0.393	0.025	0.002	0.301	0.007	0.692	
0.489	0.039	0.002	0.348	0.008	0.643	
0.557	0.053	0.002	0.392	0.009	0.593	

System: propanoic acid + ethylbenzene + water; phases: Liquid mixture 1, Liquid mixture 2
Fixed: Temperature, K = 298.15
Fixed: Pressure, kPa = 101.32
Property: Mass fraction of propanoic acid (Liquid mixture 1); method: Titration method
Mass fraction of water	Mass fraction of propanoic acid	uncertainty
0.8928	0.1051	0.0037
0.8418	0.156	0.0051
0.7842	0.2136	0.0068
0.7323	0.2625	0.0083
0.6294	0.36	0.0113
0.5877	0.396	0.0124
0.4844	0.4914	0.0153
0.3832	0.5734	0.0133
0.2757	0.6374	0.0113
0.2133	0.6502	0.0108
0.1654	0.6544	0.0107
0.1	0.6323	0.0114
0.0663	0.6081	0.0125
0.0469	0.5287	0.0163
0.0282	0.4374	0.0172
0.0215	0.347	0.0234
0.0184	0.3108	0.0118
0.0114	0.299	0.0211
0.0099	0.2488	0.0199
0.005	0.1499	0.0326

System: propanoic acid + ethylbenzene + water; phases: Liquid mixture 1, Liquid mixture 2
Fixed: Temperature, K = 298.15
Fixed: Pressure, kPa = 101.32
Property: Refractive index (Na D-line) (Liquid mixture 1); method: Standard Abbe refractometry
Mass fraction of water	Refractive index (Na D-line)	uncertainty
0.8928	1.3443	0.0011
0.8418	1.3492	0.0011
0.7842	1.3552	0.0011
0.7323	1.3596	0.001
0.6294	1.3686	0.001
0.5877	1.3719	0.0009
0.4844	1.3788	0.0008

System: ethylbenzene + butanoic acid + water; phases: Liquid mixture 1, Liquid mixture 2
Fixed: Temperature, K = 298.15
Fixed: Pressure, kPa = 101.32
Property: Mass fraction of butanoic acid (Liquid mixture 1); method: Titration method
Mass fraction of water	Mass fraction of butanoic acid	uncertainty
0.8896	0.1061	0.0144
0.8384	0.1572	0.0148
0.7898	0.2058	0.0152
0.6961	0.2983	0.0163
0.5934	0.3956	0.0175
0.4881	0.487	0.019
0.434	0.5283	0.0184
0.3856	0.5673	0.0164
0.2656	0.6091	0.0151
0.2097	0.6043	0.0154
0.1241	0.562	0.0167
0.0888	0.545	0.0181
0.0646	0.5136	0.0232
0.0465	0.4774	0.0387
0.0301	0.3923	0.0655
0.024	0.342	0.0667
0.0183	0.2952	0.0825
0.012	0.2497	0.0779
0.0073	0.2065	0.06
0.0049	0.1506	0.054

System: ethylbenzene + butanoic acid + water; phases: Liquid mixture 1, Liquid mixture 2
Fixed: Temperature, K = 298.15
Fixed: Pressure, kPa = 101.32
Property: Mass fraction of water (Liquid mixture 1); method: OTHER
Property: Mass fraction of water (Liquid mixture 2); method: OTHER
Property: Mass fraction of butanoic acid (Liquid mixture 2); method: OTHER
Mass fraction of butanoic acid	Mass fraction of water	uncertainty	Mass fraction of water	uncertainty	Mass fraction of butanoic acid	uncertainty
0.065	0.931	0.015	0.006	0.006	0.175	
0.077	0.918	0.014	0.014	0.01	0.271	
0.087	0.909	0.014	0.023	0.01	0.333	
0.102	0.894	0.014	0.038	0.01	0.446	
0.112	0.884	0.014	0.073	0.013	0.524	
0.123	0.873	0.014	0.138	0.018	0.567	

System: ethylbenzene + butanoic acid + water; phases: Liquid mixture 1, Liquid mixture 2
Fixed: Temperature, K = 298.15
Fixed: Pressure, kPa = 101.32
Property: Refractive index (Na D-line) (Liquid mixture 1); method: Standard Abbe refractometry
Mass fraction of water	Refractive index (Na D-line)	uncertainty
0.8896	1.342	0.0018
0.8384	1.3509	0.0017
0.7898	1.3585	0.0015
0.7441	1.3644	0.0015
0.6961	1.3715	0.0016
0.6479	1.3788	0.0017
0.5934	1.3885	0.0019
