Measured thermophysical data. Efficient and Reversible Nitric Oxide Absorption by Low-Viscosity, Azole-Derived Deep Eutectic Solvents
Source: J. Chem. Eng. Data, 2019, 10.1021/acs.jced.9b00173
Compound 1: 1H-tetrazole, CH2N4, InChI=1S/CH2N4/c1-2-4-5-3-1/h1H,(H,2,3,4,5), purity 98%
Compound 2: 1H-1,2,4-triazole, C2H3N3, InChI=1S/C2H3N3/c1-3-2-5-4-1/h1-2H,(H,3,4,5), purity 99%
Compound 3: 1H-imidazole, C3H4N2, InChI=1S/C3H4N2/c1-2-5-3-4-1/h1-3H,(H,4,5), purity 99%
Compound 4: tetrabutylphosphonium chloride, C16H36ClP, InChI=1S/C16H36P.ClH/c1-5-9-13-17(14-10-6-2,15-11-7-3)16-12-8-4;/h5-16H2,1-4H3;1H/q+1;/p-1, purity 98%
Compound 5: tetrabutylphosphonium bromide, C16H36BrP, InChI=1S/C16H36P.BrH/c1-5-9-13-17(14-10-6-2,15-11-7-3)16-12-8-4;/h5-16H2,1-4H3;1H/q+1;/p-1, purity 99%
Compound 6: tetrabutylammonium chloride, C16H36ClN, InChI=1S/C16H36N.ClH/c1-5-9-13-17(14-10-6-2,15-11-7-3)16-12-8-4;/h5-16H2,1-4H3;1H/q+1;/p-1, purity 98%
Compound 7: tetrabutylammonium bromide, C16H36BrN, InChI=1S/C16H36N.BrH/c1-5-9-13-17(14-10-6-2,15-11-7-3)16-12-8-4;/h5-16H2,1-4H3;1H/q+1;/p-1, purity 99%
Compound 8: choline chloride, C5H14ClNO, InChI=1S/C5H14NO.ClH/c1-6(2,3)4-5-7;/h7H,4-5H2,1-3H3;1H/q+1;/p-1, purity 98%
Compound 9: nitrogen oxide (NO), NO, InChI=1S/NO/c1-2, purity 99.9%

System: 1H-tetrazole + tetrabutylphosphonium chloride; phases: Liquid, Crystal of unknown type
Property: Solid-liquid equilibrium temperature, K (Liquid); method: DTA
Mole fraction of 1H-tetrazole	Pressure, kPa	Solid-liquid equilibrium temperature, K	uncertainty
0.5	101.3	262.21	0.41

System: 1H-tetrazole + tetrabutylphosphonium chloride; phases: Liquid
Property: Viscosity, Pa*s (Liquid); method: Concentric cylinders viscometry
Mole fraction of 1H-tetrazole	Temperature, K	Pressure, kPa	Viscosity, Pa*s	uncertainty
0.5	303.15	101.3	0.04022	0.00146

System: 1H-1,2,4-triazole + tetrabutylphosphonium chloride; phases: Liquid, Crystal of unknown type
Property: Solid-liquid equilibrium temperature, K (Liquid); method: DTA
Mole fraction of 1H-1,2,4-triazole	Pressure, kPa	Solid-liquid equilibrium temperature, K	uncertainty
0.5	101.3	239.49	0.41

System: 1H-1,2,4-triazole + tetrabutylphosphonium chloride; phases: Liquid
Property: Viscosity, Pa*s (Liquid); method: Concentric cylinders viscometry
Mole fraction of 1H-1,2,4-triazole	Temperature, K	Pressure, kPa	Viscosity, Pa*s	uncertainty
0.5	303.15	101.3	0.06723	0.00204

System: 1H-imidazole + tetrabutylphosphonium chloride; phases: Liquid, Crystal of unknown type
Property: Solid-liquid equilibrium temperature, K (Liquid); method: DTA
Mole fraction of 1H-imidazole	Pressure, kPa	Solid-liquid equilibrium temperature, K	uncertainty
0.5	101.3	362.96	0.41

System: 1H-imidazole + tetrabutylphosphonium chloride; phases: Liquid
Property: Viscosity, Pa*s (Liquid); method: Concentric cylinders viscometry
Mole fraction of 1H-imidazole	Temperature, K	Pressure, kPa	Viscosity, Pa*s	uncertainty
0.5	303.15	101.3	0.05234	0.00165

System: 1H-tetrazole + tetrabutylammonium chloride; phases: Liquid, Crystal of unknown type
Property: Solid-liquid equilibrium temperature, K (Liquid); method: DTA
Mole fraction of 1H-tetrazole	Pressure, kPa	Solid-liquid equilibrium temperature, K	uncertainty
0.5	101.3	230.71	0.41

System: 1H-tetrazole + tetrabutylammonium chloride; phases: Liquid
Property: Viscosity, Pa*s (Liquid); method: Concentric cylinders viscometry
Mole fraction of 1H-tetrazole	Temperature, K	Pressure, kPa	Viscosity, Pa*s	uncertainty
0.5	303.15	101.3	0.08788	0.00283

System: 1H-tetrazole + tetrabutylphosphonium bromide; phases: Liquid, Crystal of unknown type
Property: Solid-liquid equilibrium temperature, K (Liquid); method: DTA
Mole fraction of 1H-tetrazole	Pressure, kPa	Solid-liquid equilibrium temperature, K	uncertainty
0.5	101.3	229.47	0.41

System: 1H-tetrazole + tetrabutylphosphonium bromide; phases: Liquid
Property: Viscosity, Pa*s (Liquid); method: Concentric cylinders viscometry
Mole fraction of 1H-tetrazole	Temperature, K	Pressure, kPa	Viscosity, Pa*s	uncertainty
0.5	303.15	101.3	0.06826	0.00207

System: 1H-tetrazole + tetrabutylammonium bromide; phases: Liquid, Crystal of unknown type
Property: Solid-liquid equilibrium temperature, K (Liquid); method: DTA
Mole fraction of 1H-tetrazole	Pressure, kPa	Solid-liquid equilibrium temperature, K	uncertainty
0.5	101.3	230.11	0.41

System: 1H-tetrazole + tetrabutylammonium bromide; phases: Liquid
Property: Viscosity, Pa*s (Liquid); method: Concentric cylinders viscometry
Mole fraction of 1H-tetrazole	Temperature, K	Pressure, kPa	Viscosity, Pa*s	uncertainty
0.5	303.15	101.3	0.27915	0.01482

System: 1H-tetrazole + choline chloride; phases: Liquid, Crystal of unknown type
Property: Solid-liquid equilibrium temperature, K (Liquid); method: DTA
Mole fraction of 1H-tetrazole	Pressure, kPa	Solid-liquid equilibrium temperature, K	uncertainty
0.5	101.3	317.34	0.41

System: 1H-1,2,4-triazole + choline chloride; phases: Liquid, Crystal of unknown type
Property: Solid-liquid equilibrium temperature, K (Liquid); method: DTA
Mole fraction of 1H-1,2,4-triazole	Pressure, kPa	Solid-liquid equilibrium temperature, K	uncertainty
0.5	101.3	338.61	0.41

System: 1H-imidazole + choline chloride; phases: Liquid, Crystal of unknown type
Property: Solid-liquid equilibrium temperature, K (Liquid); method: DTA
Mole fraction of 1H-imidazole	Pressure, kPa	Solid-liquid equilibrium temperature, K	uncertainty
0.5	101.3	336.95	0.41

System: 1H-tetrazole + tetrabutylphosphonium chloride + nitrogen oxide (NO); phases: Liquid, Gas
Property: Mass ratio of solute to solvent of nitrogen oxide (NO) (Liquid); method: phase equilibration
Solvent: Mole fraction of 1H-tetrazole	Temperature, K	Pressure, kPa	Mass ratio of solute to solvent of nitrogen oxide (NO)	uncertainty
0.5	303.15	101.3	0.173	0.005

System: 1H-tetrazole + tetrabutylphosphonium chloride + nitrogen oxide (NO); phases: Liquid
Fixed: Solvent: Mole fraction of 1H-tetrazole = 0.5
Fixed: Pressure, kPa = 101.3
Fixed: Temperature, K = 303.15
Property: Viscosity, Pa*s (Liquid); method: Concentric cylinders viscometry
Amount ratio of solute to solvent of nitrogen oxide (NO)	Viscosity, Pa*s	uncertainty
0	0.04022	0.00211
0.326	0.03013	0.00222
0.494	0.02204	0.00287
0.617	0.01505	0.00283
0.744	0.00924	0.0024
0.836	0.00602	0.00188
0.925	0.00403	0.00139
0.986	0.00403	0.00126
1.05	0.00305	0.00142
1.05	0.00305	0.00142
1.05	0.00305	0.00142
1.05	0.00305	0.00142

System: 1H-tetrazole + tetrabutylphosphonium chloride + nitrogen oxide (NO); phases: Liquid, Gas
Fixed: Pressure, kPa = 101.3
Fixed: Solvent: Mole fraction of 1H-tetrazole = 0.5
Property: Amount ratio of solute to solvent of nitrogen oxide (NO) (Liquid); method: phase equilibration
Temperature, K	Amount ratio of solute to solvent of nitrogen oxide (NO)	uncertainty
303.15	1.05	0.05
308.15	0.938	0.05
313.15	0.826	0.05
318.15	0.736	0.05
323.15	0.662	0.05
328.15	0.612	0.05
333.15	0.554	0.05
338.15	0.518	0.05
343.15	0.5	0.05

System: 1H-tetrazole + tetrabutylphosphonium chloride + nitrogen oxide (NO); phases: Liquid, Gas
Fixed: Solvent: Mole fraction of 1H-tetrazole = 0.5
Fixed: Temperature, K = 303.15
Property: Amount ratio of solute to solvent of nitrogen oxide (NO) (Liquid); method: phase equilibration
Pressure, kPa	Amount ratio of solute to solvent of nitrogen oxide (NO)	uncertainty
1	0.116	0.06
2	0.197	0.056
3	0.246	0.053
4	0.286	0.053
5	0.331	0.053
6	0.377	0.053
7	0.421	0.052
8	0.445	0.051
9	0.471	0.051
10	0.481	0.05
11	0.496	0.05
12	0.505	0.05
20	0.557	0.05
30	0.628	0.05
40	0.686	0.05
50	0.75	0.05
60	0.827	0.05
70	0.893	0.05
80	0.966	0.05
90	1.007	0.05
101.3	1.05	0.05

System: 1H-tetrazole + tetrabutylphosphonium bromide + nitrogen oxide (NO); phases: Liquid, Gas
Property: Viscosity, Pa*s (Liquid); method: Concentric cylinders viscometry
Solvent: Mole fraction of 1H-tetrazole	Temperature, K	Pressure, kPa	Viscosity, Pa*s	uncertainty
0.5	303.15	101.3	0.00563	0.0012

System: 1H-tetrazole + tetrabutylphosphonium bromide + nitrogen oxide (NO); phases: Liquid, Gas
Property: Mass ratio of solute to solvent of nitrogen oxide (NO) (Liquid); method: phase equilibration
Solvent: Mole fraction of 1H-tetrazole	Temperature, K	Pressure, kPa	Mass ratio of solute to solvent of nitrogen oxide (NO)	uncertainty
0.5	303.15	101.3	0.035	0.005

System: 1H-tetrazole + tetrabutylphosphonium bromide + nitrogen oxide (NO); phases: Liquid, Gas
Fixed: Pressure, kPa = 101.3
Fixed: Solvent: Mole fraction of 1H-tetrazole = 0.5
Property: Amount ratio of solute to solvent of nitrogen oxide (NO) (Liquid); method: phase equilibration
Temperature, K	Amount ratio of solute to solvent of nitrogen oxide (NO)	uncertainty
303.15	0.24	0.05
308.15	0.182	0.05
313.15	0.154	0.05
318.15	0.151	0.05
323.15	0.149	0.05
328.15	0.127	0.05
333.15	0.111	0.05
338.15	0.111	0.05
343.15	0.111	0.05

System: 1H-tetrazole + tetrabutylammonium chloride + nitrogen oxide (NO); phases: Liquid, Gas
Property: Viscosity, Pa*s (Liquid); method: Concentric cylinders viscometry
Solvent: Mole fraction of 1H-tetrazole	Temperature, K	Pressure, kPa	Viscosity, Pa*s	uncertainty
0.5	303.15	101.3	0.00985	0.00121

System: 1H-tetrazole + tetrabutylammonium chloride + nitrogen oxide (NO); phases: Liquid, Gas
Property: Mass ratio of solute to solvent of nitrogen oxide (NO) (Liquid); method: phase equilibration
Solvent: Mole fraction of 1H-tetrazole	Temperature, K	Pressure, kPa	Mass ratio of solute to solvent of nitrogen oxide (NO)	uncertainty
0.5	303.15	101.3	0.126	0.005

System: 1H-tetrazole + tetrabutylammonium chloride + nitrogen oxide (NO); phases: Liquid, Gas
Fixed: Pressure, kPa = 101.3
Fixed: Solvent: Mole fraction of 1H-tetrazole = 0.5
Property: Amount ratio of solute to solvent of nitrogen oxide (NO) (Liquid); method: phase equilibration
Temperature, K	Amount ratio of solute to solvent of nitrogen oxide (NO)	uncertainty
303.15	0.73	0.05
308.15	0.579	0.05
313.15	0.491	0.05
318.15	0.411	0.05
323.15	0.359	0.05
328.15	0.32	0.05
333.15	0.281	0.05
338.15	0.252	0.05
343.15	0.24	0.05

System: 1H-tetrazole + tetrabutylammonium bromide + nitrogen oxide (NO); phases: Liquid, Gas
Property: Viscosity, Pa*s (Liquid); method: Concentric cylinders viscometry
Solvent: Mole fraction of 1H-tetrazole	Temperature, K	Pressure, kPa	Viscosity, Pa*s	uncertainty
0.5	303.15	101.3	0.02632	0.00127

System: 1H-tetrazole + tetrabutylammonium bromide + nitrogen oxide (NO); phases: Liquid, Gas
Property: Mass ratio of solute to solvent of nitrogen oxide (NO) (Liquid); method: phase equilibration
Solvent: Mole fraction of 1H-tetrazole	Temperature, K	Pressure, kPa	Mass ratio of solute to solvent of nitrogen oxide (NO)	uncertainty
0.5	303.15	101.3	0.024	0.005

System: 1H-tetrazole + tetrabutylammonium bromide + nitrogen oxide (NO); phases: Liquid, Gas
Fixed: Pressure, kPa = 101.3
Fixed: Solvent: Mole fraction of 1H-tetrazole = 0.5
Property: Amount ratio of solute to solvent of nitrogen oxide (NO) (Liquid); method: phase equilibration
Temperature, K	Amount ratio of solute to solvent of nitrogen oxide (NO)	uncertainty
303.15	0.16	0.05
308.15	0.152	0.05
313.15	0.148	0.05
318.15	0.134	0.05
323.15	0.126	0.05
328.15	0.118	0.05
333.15	0.111	0.05
338.15	0.111	0.05
343.15	0.111	0.05

System: 1H-1,2,4-triazole + tetrabutylphosphonium chloride + nitrogen oxide (NO); phases: Liquid, Gas
Property: Viscosity, Pa*s (Liquid); method: Concentric cylinders viscometry
Solvent: Mole fraction of 1H-1,2,4-triazole	Temperature, K	Pressure, kPa	Viscosity, Pa*s	uncertainty
0.5	303.15	101.3	0.00713	0.0012

System: 1H-1,2,4-triazole + tetrabutylphosphonium chloride + nitrogen oxide (NO); phases: Liquid, Gas
Property: Mass ratio of solute to solvent of nitrogen oxide (NO) (Liquid); method: phase equilibration
Solvent: Mole fraction of 1H-1,2,4-triazole	Temperature, K	Pressure, kPa	Mass ratio of solute to solvent of nitrogen oxide (NO)	uncertainty
0.5	303.15	101.3	0.059	0.005

System: 1H-imidazole + tetrabutylphosphonium chloride + nitrogen oxide (NO); phases: Liquid, Gas
Property: Viscosity, Pa*s (Liquid); method: Concentric cylinders viscometry
Solvent: Mole fraction of 1H-imidazole	Temperature, K	Pressure, kPa	Viscosity, Pa*s	uncertainty
0.5	303.15	101.3	0.00516	0.0012

System: 1H-imidazole + tetrabutylphosphonium chloride + nitrogen oxide (NO); phases: Liquid, Gas
Property: Mass ratio of solute to solvent of nitrogen oxide (NO) (Liquid); method: phase equilibration
Solvent: Mole fraction of 1H-imidazole	Temperature, K	Pressure, kPa	Mass ratio of solute to solvent of nitrogen oxide (NO)	uncertainty
0.5	303.15	101.3	0.013	0.005

System: 1H-tetrazole + choline chloride + nitrogen oxide (NO); phases: Liquid, Gas
Property: Mass ratio of solute to solvent of nitrogen oxide (NO) (Liquid); method: phase equilibration
Solvent: Mole fraction of 1H-tetrazole	Temperature, K	Pressure, kPa	Mass ratio of solute to solvent of nitrogen oxide (NO)	uncertainty
0.5	343.15	101.3	0.123	0.005

System: 1H-1,2,4-triazole + choline chloride + nitrogen oxide (NO); phases: Liquid, Gas
Property: Mass ratio of solute to solvent of nitrogen oxide (NO) (Liquid); method: phase equilibration
Solvent: Mole fraction of 1H-1,2,4-triazole	Temperature, K	Pressure, kPa	Mass ratio of solute to solvent of nitrogen oxide (NO)	uncertainty
0.5	343.15	101.3	0.096	0.005

System: 1H-imidazole + choline chloride + nitrogen oxide (NO); phases: Liquid, Gas
Property: Mass ratio of solute to solvent of nitrogen oxide (NO) (Liquid); method: phase equilibration
Solvent: Mole fraction of 1H-imidazole	Temperature, K	Pressure, kPa	Mass ratio of solute to solvent of nitrogen oxide (NO)	uncertainty
0.5	343.15	101.3	0.068	0.005
