Measured thermophysical data. Thermal and Volumetric Properties of Five Lactones at Infinite Dilution in Water
Source: J. Chem. Eng. Data, 2019, 10.1021/acs.jced.8b01146
Compound 1: .gamma.-butyrolactone, C4H6O2, InChI=1S/C4H6O2/c5-4-2-1-3-6-4/h1-3H2, purity 99.9%
Compound 2: .gamma.-valerolactone, C5H8O2, InChI=1S/C5H8O2/c1-4-2-3-5(6)7-4/h4H,2-3H2,1H3, purity 99.5%
Compound 3: 5-methylfuran-2(3H)-one, C5H6O2, InChI=1S/C5H6O2/c1-4-2-3-5(6)7-4/h2H,3H2,1H3, purity 98.6%
Compound 4: 2(3H)-furanone, 5-ethyldihydro-, C6H10O2, InChI=1S/C6H10O2/c1-2-5-3-4-6(7)8-5/h5H,2-4H2,1H3, purity 99.1%
Compound 5: 2H-pyran-2-one, tetrahydro-6-methyl-, C6H10O2, InChI=1S/C6H10O2/c1-5-3-2-4-6(7)8-5/h5H,2-4H2,1H3, purity 99.5%
Compound 6: water, H2O, InChI=1S/H2O/h1H2, purity 99.9%

System: .gamma.-butyrolactone; phases: Liquid
Fixed: Pressure, kPa = 100
Property: Mass density, kg/m3 (Liquid); method: Vibrating tube method
Temperature, K	Mass density, kg/m3	uncertainty
288.15	1134.256	0.507
293.15	1129.347	0.506
298.15	1124.438	0.506
303.15	1119.525	0.506
308.15	1114.613	0.505
313.15	1109.692	0.505
318.15	1104.773	0.505
323.15	1099.856	0.505

System: .gamma.-valerolactone; phases: Liquid
Fixed: Pressure, kPa = 100
Property: Mass density, kg/m3 (Liquid); method: Vibrating tube method
Temperature, K	Mass density, kg/m3	uncertainty
288.15	1058.507	0.51
293.15	1053.805	0.51
298.15	1049.103	0.509
303.15	1044.399	0.509
308.15	1039.694	0.509
313.15	1034.982	0.508
318.15	1030.274	0.508
323.15	1025.558	0.507

System: 5-methylfuran-2(3H)-one; phases: Liquid
Fixed: Pressure, kPa = 100
Property: Mass density, kg/m3 (Liquid); method: Vibrating tube method
Temperature, K	Mass density, kg/m3	uncertainty
288.15	1099.321	0.704
293.15	1093.937	0.699
298.15	1088.553	0.695
303.15	1083.165	0.691
308.15	1077.774	0.687
313.15	1072.377	0.682
318.15	1066.979	0.678
323.15	1061.581	0.674

System: 2(3H)-furanone, 5-ethyldihydro-; phases: Liquid
Fixed: Pressure, kPa = 100
Property: Mass density, kg/m3 (Liquid); method: Vibrating tube method
Temperature, K	Mass density, kg/m3	uncertainty
288.15	1029.158	0.536
293.15	1024.743	0.535
298.15	1020.327	0.534
303.15	1015.909	0.533
308.15	1011.492	0.532
313.15	1007.07	0.531
318.15	1002.648	0.53
323.15	998.229	0.53

System: 2H-pyran-2-one, tetrahydro-6-methyl-; phases: Liquid
Fixed: Pressure, kPa = 100
Property: Mass density, kg/m3 (Liquid); method: Vibrating tube method
Temperature, K	Mass density, kg/m3	uncertainty
288.15	1053.81	0.51
293.15	1049.472	0.509
298.15	1045.138	0.509
303.15	1040.809	0.509
308.15	1036.48	0.508
313.15	1032.151	0.508
318.15	1027.817	0.508
323.15	1023.509	0.507

System: .gamma.-butyrolactone + water; phases: Liquid
Fixed: Pressure, kPa = 100
Property: Mass density, kg/m3 (Liquid); method: Vibrating tube method
Temperature, K	Mole fraction of .gamma.-butyrolactone	Mass density, kg/m3	uncertainty
288.15	0.007044	1004.28	0.062
288.15	0.007042	1004.272	0.061
288.15	0.005876	1003.435	0.055
288.15	0.005874	1003.432	0.055
288.15	0.004706	1002.585	0.049
288.15	0.004705	1002.584	0.049
288.15	0.003534	1001.722	0.043
288.15	0.003533	1001.722	0.043
288.15	0.002358	1000.85	0.038
288.15	0.002358	1000.854	0.038
288.15	0.001181	999.978	0.034
288.15	0.00118	999.977	0.034
298.15	0.007036	1001.839	0.045
298.15	0.005869	1001.059	0.052
298.15	0.004701	1000.269	0.046
298.15	0.00353	999.474	0.041
298.15	0.002356	998.672	0.038
298.15	0.001179	997.864	0.036
308.15	0.007038	998.505	0.044
308.15	0.007038	998.496	0.044
308.15	0.005871	997.78	0.051
308.15	0.00587	997.774	0.051
308.15	0.004703	997.039	0.046
308.15	0.004702	997.038	0.046
308.15	0.003531	996.302	0.042
308.15	0.00353	996.301	0.042
308.15	0.002356	995.554	0.038
308.15	0.002356	995.552	0.038
308.15	0.001179	994.794	0.037
308.15	0.001179	994.797	0.037
318.15	0.007044	994.396	0.055
318.15	0.007043	994.396	0.055
318.15	0.005876	993.713	0.05
318.15	0.005875	993.721	0.05
318.15	0.004707	993.03	0.046
318.15	0.004706	993.03	0.046
318.15	0.003534	992.336	0.042
318.15	0.003534	992.333	0.042
318.15	0.002359	991.631	0.04
318.15	0.002359	991.634	0.04
318.15	0.001181	990.926	0.038
318.15	0.001181	990.925	0.038

System: .gamma.-butyrolactone + water; phases: Liquid
Fixed: Pressure, kPa = 100
Property: Excess molar enthalpy (molar enthalpy of mixing), kJ/mol (Liquid); method: Calvet calorimetry
Temperature, K	Mole fraction of .gamma.-butyrolactone	Excess molar enthalpy (molar enthalpy of mixing), kJ/mol	uncertainty
288.15	0.007044	-0.01915	0.00092
288.15	0.007042	-0.01917	0.00092
288.15	0.005876	-0.01621	0.0009
288.15	0.005874	-0.01623	0.0009
288.15	0.004706	-0.01319	0.00088
288.15	0.004705	-0.01318	0.00088
288.15	0.003534	-0.01006	0.00085
288.15	0.003533	-0.01003	0.00085
288.15	0.002358	-0.00681	0.00083
288.15	0.002358	-0.0068	0.00083
288.15	0.001181	-0.00346	0.0008
288.15	0.00118	-0.00345	0.0008
298.15	0.007036	-0.01355	0.00088
298.15	0.005869	-0.01152	0.00086
298.15	0.004701	-0.00938	0.00085
298.15	0.00353	-0.00716	0.00083
298.15	0.002356	-0.00488	0.00081
298.15	0.001179	-0.0025	0.00079
308.15	0.007038	-0.00769	0.00083
308.15	0.007038	-0.00769	0.00083
308.15	0.005871	-0.00661	0.00083
308.15	0.00587	-0.00659	0.00083
308.15	0.004703	-0.00545	0.00082
308.15	0.004702	-0.00547	0.00082
308.15	0.003531	-0.00423	0.00081
308.15	0.00353	-0.00422	0.00081
308.15	0.002356	-0.00293	0.0008
308.15	0.002356	-0.00292	0.0008
308.15	0.001179	-0.00152	0.00079
308.15	0.001179	-0.00151	0.00079
318.15	0.007044	-0.001729	0.000788
318.15	0.007043	-0.001749	0.000788
318.15	0.005876	-0.001614	0.000787
318.15	0.005875	-0.001633	0.000787
318.15	0.004707	-0.001436	0.000786
318.15	0.004706	-0.001447	0.000786
318.15	0.003534	-0.001185	0.000784
318.15	0.003534	-0.001195	0.000784
318.15	0.002359	-0.000876	0.000781
318.15	0.002359	-0.000871	0.000781
318.15	0.001181	-0.000486	0.000778
318.15	0.001181	-0.000481	0.000778

System: .gamma.-valerolactone + water; phases: Liquid
Fixed: Pressure, kPa = 100
Property: Mass density, kg/m3 (Liquid); method: Vibrating tube method
Temperature, K	Mole fraction of .gamma.-valerolactone	Mass density, kg/m3	uncertainty
288.15	0.005663	1002.113	0.045
288.15	0.004724	1001.619	0.042
288.15	0.003783	1001.124	0.039
288.15	0.00284	1000.622	0.037
288.15	0.001895	1000.117	0.035
288.15	0.000948	999.61	0.034
298.15	0.005658	999.717	0.035
298.15	0.005658	999.723	0.035
298.15	0.004719	999.28	0.04
298.15	0.004718	999.282	0.04
298.15	0.003779	998.843	0.038
298.15	0.003778	998.844	0.038
298.15	0.002837	998.399	0.037
298.15	0.002836	998.397	0.037
298.15	0.001893	997.952	0.035
298.15	0.001893	997.948	0.035
298.15	0.000947	997.5	0.035
298.15	0.000947	997.5	0.035
308.15	0.005656	996.412	0.036
308.15	0.005656	996.415	0.036
308.15	0.004718	996.023	0.04
308.15	0.004716	996.023	0.04
308.15	0.003778	995.634	0.039
308.15	0.003777	995.637	0.039
308.15	0.002836	995.239	0.038
308.15	0.002835	995.239	0.038
308.15	0.001893	994.839	0.037
308.15	0.001892	994.839	0.037
308.15	0.000947	994.435	0.036
308.15	0.000947	994.435	0.036
318.15	0.005655	992.329	0.042
318.15	0.005655	992.332	0.042
318.15	0.004716	991.985	0.041
318.15	0.004716	991.983	0.041
318.15	0.003777	991.641	0.04
318.15	0.003776	991.639	0.04
318.15	0.002835	991.289	0.039
318.15	0.002835	991.289	0.039
318.15	0.001892	990.933	0.038
318.15	0.001891	990.933	0.038
318.15	0.000947	990.572	0.038
318.15	0.000946	990.573	0.038

System: .gamma.-valerolactone + water; phases: Liquid
Fixed: Pressure, kPa = 100
Property: Excess molar enthalpy (molar enthalpy of mixing), kJ/mol (Liquid); method: Calvet calorimetry
Temperature, K	Mole fraction of .gamma.-valerolactone	Excess molar enthalpy (molar enthalpy of mixing), kJ/mol	uncertainty
288.15	0.005663	-0.02726	0.00102
288.15	0.004724	-0.02305	0.00098
288.15	0.003783	-0.01872	0.00094
288.15	0.00284	-0.01425	0.0009
288.15	0.001895	-0.00962	0.00085
288.15	0.000948	-0.00488	0.00081
298.15	0.005658	-0.02003	0.00095
298.15	0.005658	-0.02011	0.00095
298.15	0.004719	-0.01697	0.00092
298.15	0.004718	-0.01701	0.00092
298.15	0.003779	-0.01385	0.00089
298.15	0.003778	-0.01386	0.00089
298.15	0.002837	-0.01058	0.00086
298.15	0.002836	-0.01056	0.00086
298.15	0.001893	-0.00717	0.00083
298.15	0.001893	-0.00715	0.00083
298.15	0.000947	-0.00365	0.0008
298.15	0.000947	-0.00365	0.0008
308.15	0.005656	-0.01281	0.00088
308.15	0.005656	-0.01288	0.00088
308.15	0.004718	-0.01093	0.00086
308.15	0.004716	-0.01097	0.00087
308.15	0.003778	-0.00899	0.00085
308.15	0.003777	-0.00901	0.00085
308.15	0.002836	-0.0069	0.00083
308.15	0.002835	-0.0069	0.00083
308.15	0.001893	-0.00471	0.00081
308.15	0.001892	-0.00471	0.00081
308.15	0.000947	-0.0024	0.00079
308.15	0.000947	-0.0024	0.00079
318.15	0.005655	-0.00547	0.00082
318.15	0.005655	-0.00554	0.00082
318.15	0.004716	-0.00483	0.00081
318.15	0.004716	-0.00478	0.00081
318.15	0.003777	-0.00404	0.00081
318.15	0.003776	-0.00406	0.00081
318.15	0.002835	-0.00317	0.0008
318.15	0.002835	-0.00317	0.0008
318.15	0.001892	-0.0022	0.00079
318.15	0.001891	-0.0022	0.00079
318.15	0.000947	-0.00115	0.00078
318.15	0.000946	-0.00115	0.00078

System: 5-methylfuran-2(3H)-one + water; phases: Liquid
Fixed: Pressure, kPa = 100
Property: Mass density, kg/m3 (Liquid); method: Vibrating tube method
Temperature, K	Mole fraction of 5-methylfuran-2(3H)-one	Mass density, kg/m3	uncertainty
288.15	0.00599	1003.649	0.056
288.15	0.00599	1003.641	0.056
288.15	0.004996	1002.917	0.051
288.15	0.004995	1002.908	0.051
288.15	0.004001	1002.14	0.046
288.15	0.004	1002.153	0.046
288.15	0.003004	1001.395	0.041
288.15	0.003003	1001.395	0.041
288.15	0.002005	1000.636	0.037
288.15	0.002004	1000.64	0.037
288.15	0.001003	999.878	0.034
288.15	0.001003	999.871	0.034
298.15	0.005992	1001.211	0.958
298.15	0.005987	1001.2	2.3
298.15	0.004998	1000.526	0.183
298.15	0.004993	1000.508	1.881
298.15	0.004003	999.843	0.043
298.15	0.004	999.847	0.043
298.15	0.003005	999.156	0.04
298.15	0.003003	999.156	0.04
298.15	0.002006	998.464	0.037
298.15	0.002004	998.467	0.037
298.15	0.001004	997.756	0.036
298.15	0.001003	997.759	0.036
308.15	0.00599	997.837	0.041
308.15	0.005987	997.78	0.041
308.15	0.004995	997.205	0.046
308.15	0.004994	997.199	0.046
308.15	0.004	996.594	0.043
308.15	0.003999	996.597	0.043
308.15	0.003003	995.967	0.04
308.15	0.003002	995.967	0.04
308.15	0.002004	995.328	0.038
308.15	0.002003	995.33	0.038
308.15	0.001003	994.684	0.037
318.15	0.005987	993.668	0.05
318.15	0.005986	993.663	0.049
318.15	0.004993	993.112	0.046
318.15	0.004993	993.102	0.046
318.15	0.003999	992.546	0.043
318.15	0.003998	992.55	0.043
318.15	0.003002	991.977	0.041
318.15	0.003002	991.98	0.041
318.15	0.002003	991.392	0.039
318.15	0.002003	991.396	0.039
318.15	0.001003	990.808	0.038
318.15	0.001003	990.803	0.038

System: 5-methylfuran-2(3H)-one + water; phases: Liquid
Fixed: Pressure, kPa = 100
Property: Excess molar enthalpy (molar enthalpy of mixing), kJ/mol (Liquid); method: Calvet calorimetry
Temperature, K	Mole fraction of 5-methylfuran-2(3H)-one	Excess molar enthalpy (molar enthalpy of mixing), kJ/mol	uncertainty
288.15	0.00599	-0.00638	0.00082
288.15	0.00599	-0.00648	0.00083
288.15	0.004996	-0.00592	0.00082
288.15	0.004995	-0.00597	0.00082
288.15	0.004001	-0.00516	0.00082
288.15	0.004	-0.00522	0.00082
288.15	0.003004	-0.00422	0.00081
288.15	0.003003	-0.00422	0.00081
288.15	0.002005	-0.00304	0.0008
288.15	0.002004	-0.00305	0.0008
288.15	0.001003	-0.00166	0.00079
288.15	0.001003	-0.00165	0.00079
298.15	0.005992	0.00239	0.00083
298.15	0.005987	0.00234	0.00159
298.15	0.004998	0.00139	0.00079
298.15	0.004993	0.0014	0.00085
298.15	0.004003	0.000731	0.000781
298.15	0.004	0.000733	0.000781
298.15	0.003005	0.000253	0.000777
298.15	0.003003	0.000275	0.000777
298.15	0.002006	-2.6e-05	0.000775
298.15	0.002004	-2.6e-05	0.000775
298.15	0.001004	-0.000111	0.000776
298.15	0.001003	-0.000111	0.000776
308.15	0.00599	0.01081	0.00087
308.15	0.005987	0.01074	0.00087
308.15	0.004995	0.00845	0.00085
308.15	0.004994	0.00853	0.00085
308.15	0.004	0.00642	0.00083
308.15	0.003999	0.00648	0.00083
308.15	0.003003	0.00459	0.00081
308.15	0.003002	0.00462	0.00081
308.15	0.002004	0.0029	0.0008
308.15	0.002003	0.0029	0.0008
308.15	0.001003	0.00137	0.00079
308.15	0.001003	0.00136	0.00079
318.15	0.005987	0.01906	0.00095
318.15	0.005986	0.01904	0.00095
318.15	0.004993	0.01542	0.00091
318.15	0.004993	0.01537	0.00091
318.15	0.003999	0.01195	0.00088
318.15	0.003998	0.01195	0.00088
318.15	0.003002	0.00881	0.00085
318.15	0.003002	0.00879	0.00085
318.15	0.002003	0.0057	0.00082
318.15	0.002003	0.00575	0.00082
318.15	0.001003	0.00279	0.0008
318.15	0.001003	0.00279	0.0008

System: 2(3H)-furanone, 5-ethyldihydro- + water; phases: Liquid
Fixed: Pressure, kPa = 100
Property: Mass density, kg/m3 (Liquid); method: Vibrating tube method
Temperature, K	Mole fraction of 2(3H)-furanone, 5-ethyldihydro-	Mass density, kg/m3	uncertainty
288.15	0.004832	1001.26	0.04
288.15	0.004831	1001.263	0.04
288.15	0.004029	1000.904	0.038
288.15	0.004029	1000.902	0.038
288.15	0.003226	1000.547	0.036
288.15	0.003226	1000.541	0.036
288.15	0.002422	1000.189	0.035
288.15	0.002421	1000.19	0.035
288.15	0.001616	999.824	0.034
288.15	0.001615	999.823	0.034
288.15	0.000808	999.463	0.034
288.15	0.000808	999.462	0.034
298.15	0.004832	998.888	0.034
298.15	0.004831	998.888	0.034
298.15	0.004029	998.58	0.037
298.15	0.004029	998.58	0.037
298.15	0.003226	998.276	0.036
298.15	0.003226	998.276	0.036
298.15	0.002422	997.975	0.035
298.15	0.002421	997.974	0.035
298.15	0.001615	997.666	0.035
298.15	0.001615	997.666	0.035
298.15	0.000808	997.357	0.035
298.15	0.000808	997.355	0.035
308.15	0.004835	995.586	0.036
308.15	0.004834	995.586	0.036
308.15	0.004032	995.334	0.038
308.15	0.004031	995.334	0.038
308.15	0.003228	995.075	0.037
308.15	0.003227	995.082	0.037
308.15	0.002423	994.819	0.037
308.15	0.002422	994.819	0.037
308.15	0.001617	994.559	0.036
308.15	0.001616	994.558	0.036
308.15	0.000809	994.296	0.036
308.15	0.000809	994.296	0.036
318.15	0.004833	991.512	0.039
318.15	0.004832	991.512	0.039
318.15	0.00403	991.301	0.039
318.15	0.004029	991.301	0.039
318.15	0.003227	991.089	0.038
318.15	0.003226	991.088	0.038
318.15	0.002422	990.873	0.038
318.15	0.002421	990.873	0.038
318.15	0.001616	990.654	0.038
318.15	0.001615	990.653	0.038
318.15	0.000808	990.434	0.038
318.15	0.000808	990.434	0.038

System: 2(3H)-furanone, 5-ethyldihydro- + water; phases: Liquid
Fixed: Pressure, kPa = 100
Property: Excess molar enthalpy (molar enthalpy of mixing), kJ/mol (Liquid); method: Calvet calorimetry
Temperature, K	Mole fraction of 2(3H)-furanone, 5-ethyldihydro-	Excess molar enthalpy (molar enthalpy of mixing), kJ/mol	uncertainty
288.15	0.004832	-0.02541	0.001
288.15	0.004831	-0.02544	0.001
288.15	0.004029	-0.02156	0.00096
288.15	0.004029	-0.02154	0.00096
288.15	0.003226	-0.01751	0.00092
288.15	0.003226	-0.01749	0.00092
288.15	0.002422	-0.01345	0.00089
288.15	0.002421	-0.01347	0.00089
288.15	0.001616	-0.00907	0.00085
288.15	0.001615	-0.00906	0.00085
288.15	0.000808	-0.00462	0.00081
288.15	0.000808	-0.00461	0.00081
298.15	0.004832	-0.01677	0.00092
298.15	0.004831	-0.01674	0.00092
298.15	0.004029	-0.01419	0.00089
298.15	0.004029	-0.01422	0.00089
298.15	0.003226	-0.0116	0.00087
298.15	0.003226	-0.01163	0.00087
298.15	0.002422	-0.00898	0.00085
298.15	0.002421	-0.00898	0.00085
298.15	0.001615	-0.00612	0.00082
298.15	0.001615	-0.00612	0.00082
298.15	0.000808	-0.00312	0.0008
298.15	0.000808	-0.00311	0.0008
308.15	0.004835	-0.00822	0.00084
308.15	0.004834	-0.00808	0.00084
308.15	0.004032	-0.00708	0.00083
308.15	0.004031	-0.00706	0.00083
308.15	0.003228	-0.00586	0.00082
308.15	0.003227	-0.00588	0.00082
308.15	0.002423	-0.00459	0.00081
308.15	0.002422	-0.00458	0.00081
308.15	0.001617	-0.00319	0.0008
308.15	0.001616	-0.00317	0.0008
308.15	0.000809	-0.00165	0.00079
308.15	0.000809	-0.00165	0.00079
318.15	0.004833	0.000377	0.000778
318.15	0.004832	0.00036	0.000778
318.15	0.00403	6.3e-05	0.000775
318.15	0.004029	3.4e-05	0.000775
318.15	0.003227	-0.000179	0.000776
318.15	0.003226	-0.000169	0.000776
318.15	0.002422	-0.000284	0.000777
318.15	0.002421	-0.000289	0.000777
318.15	0.001616	-0.000298	0.000777
318.15	0.001615	-0.000296	0.000777
318.15	0.000808	-0.000206	0.000776
318.15	0.000808	-0.000206	0.000776

System: 2H-pyran-2-one, tetrahydro-6-methyl- + water; phases: Liquid
Fixed: Pressure, kPa = 100
Property: Mass density, kg/m3 (Liquid); method: Vibrating tube method
Temperature, K	Mole fraction of 2H-pyran-2-one, tetrahydro-6-methyl-	Mass density, kg/m3	uncertainty
288.15	0.004945	1001.545	0.044
288.15	0.004124	1001.148	0.042
288.15	0.003302	1000.736	0.04
288.15	0.003302	1000.76	0.04
288.15	0.002643	1000.418	0.039
288.15	0.002478	1000.351	0.039
288.15	0.002149	1000.175	0.038
288.15	0.001653	999.935	0.037
298.15	0.004953	999.206	0.287
298.15	0.004951	999.209	1.086
298.15	0.004946	999.23	0.287
298.15	0.004131	998.861	0.395
298.15	0.004129	998.875	0.038
298.15	0.004125	998.876	0.885
298.15	0.003307	998.507	0.594
298.15	0.003306	998.52	1.066
298.15	0.0033	998.509	0.593
298.15	0.002641	998.225	0.04
298.15	0.002147	998.009	0.038
298.15	0.001653	997.788	0.038
298.15	0.001158	997.57	0.037
308.15	0.004954	996.02	0.038
308.15	0.004953	995.986	0.038
308.15	0.004131	995.714	0.041
308.15	0.00413	995.684	0.041
308.15	0.003307	995.379	0.04
308.15	0.003307	995.363	0.04
308.15	0.002482	995.04	0.039
308.15	0.001656	994.712	0.04
318.15	0.004948	992.021	0.054
318.15	0.004952	992.018	0.054
318.15	0.004127	991.726	0.042
318.15	0.004129	991.723	0.042
318.15	0.003305	991.433	0.041
318.15	0.003306	991.423	0.041
318.15	0.00248	991.131	0.041
318.15	0.002481	991.124	0.041
318.15	0.001655	990.83	0.04
318.15	0.001655	990.824	0.04

System: 2H-pyran-2-one, tetrahydro-6-methyl- + water; phases: Liquid
Fixed: Pressure, kPa = 100
Property: Excess molar enthalpy (molar enthalpy of mixing), kJ/mol (Liquid); method: Calvet calorimetry
Temperature, K	Mole fraction of 2H-pyran-2-one, tetrahydro-6-methyl-	Excess molar enthalpy (molar enthalpy of mixing), kJ/mol	uncertainty
288.15	0.004945	-0.04072	0.00134
288.15	0.004124	-0.03421	0.00122
288.15	0.003302	-0.02763	0.00109
288.15	0.003302	-0.02788	0.00109
288.15	0.002643	-0.02238	0.001
288.15	0.002478	-0.02111	0.00098
288.15	0.002149	-0.0183	0.00093
288.15	0.001653	-0.01432	0.0009
298.15	0.004953	-0.03268	0.00294
298.15	0.004951	-0.03291	0.00178
298.15	0.004946	-0.03305	0.00294
298.15	0.004131	-0.02779	0.0014
298.15	0.004129	-0.02799	0.00357
298.15	0.004125	-0.02766	0.00127
298.15	0.003307	-0.02244	0.00105
298.15	0.003306	-0.02265	0.00152
298.15	0.0033	-0.02235	0.00105
298.15	0.002641	-0.01804	0.00093
298.15	0.002147	-0.01474	0.0009
298.15	0.001653	-0.01142	0.00087
298.15	0.001158	-0.0081	0.00084
308.15	0.004954	-0.02516	0.00105
308.15	0.004953	-0.02524	0.00105
308.15	0.004131	-0.02118	0.00098
308.15	0.00413	-0.02138	0.00098
308.15	0.003307	-0.01712	0.00092
308.15	0.003307	-0.01736	0.00092
308.15	0.002482	-0.01319	0.00089
308.15	0.001656	-0.00905	0.00085
318.15	0.004948	-0.01797	0.00144
318.15	0.004952	-0.01806	0.00144
318.15	0.004127	-0.01508	0.0009
318.15	0.004129	-0.01519	0.0009
318.15	0.003305	-0.01215	0.00088
318.15	0.003306	-0.01226	0.00088
318.15	0.00248	-0.0092	0.00085
318.15	0.002481	-0.00925	0.00085
318.15	0.001655	-0.00615	0.00082
318.15	0.001655	-0.0062	0.00082
