Measured thermophysical data. Phase Equilibrium Study of the AlCl3 CaCl2 H2O System for the Production of Aluminum Chloride Hexahydrate from Ca-Rich Flue Ash
Source: J. Chem. Eng. Data, 2016, 10.1021/acs.jced.5b00603
Compound 1: aluminum chloride, AlCl3, InChI=1S/Al.3ClH/h;3*1H/q+3;;;/p-3
Compound 2: water, H2O, InChI=1S/H2O/h1H2
Compound 3: calcium chloride, CaCl2, InChI=1S/Ca.2ClH/h;2*1H/q+2;;/p-2

System: aluminum chloride + water; phases: Liquid, Crystal of intercomponent compound 1
Fixed: Pressure, kPa = 100
Property: Molality, mol/kg of aluminum chloride (Liquid); method: atomic emission spectroscopy
Temperature, K	Molality, mol/kg of aluminum chloride	uncertainty
278.15	3.347	0.168
288.15	3.361	0.168
293.15	3.372	0.169
298.15	3.383	0.169
303.15	3.395	0.17
308.15	3.41	0.171
313.15	3.426	0.171
318.15	3.441	0.172
323.15	3.461	0.173
333.15	3.504	0.175
338.15	3.529	0.177
343.15	3.554	0.178
353.15	3.61	0.181
363.15	3.662	0.183
363.15	3.674	0.184

System: aluminum chloride + water + calcium chloride; phases: Liquid, Crystal of intercomponent compound 1
Fixed: Pressure, kPa = 100
Property: Molality, mol/kg of calcium chloride (Liquid); method: atomic emission spectroscopy
Molality, mol/kg of aluminum chloride	Temperature, K	Molality, mol/kg of calcium chloride	uncertainty
0	278.15	5.611	0.281
0.289	278.15	5.458	0.273
0.416	278.15	5.36	0.269
0.546	278.15	5.309	0.266
0	298.15	7.462	0.373
0.301	298.15	7.058	0.354
0.472	298.15	6.89	0.347
0	303.15	8.699	0.435
0.2852	303.15	7.594	0.384
0.4554	303.15	7	0.359

System: aluminum chloride + water + calcium chloride; phases: Liquid, Crystal of intercomponent compound 2
Fixed: Pressure, kPa = 100
Property: Molality, mol/kg of aluminum chloride (Liquid); method: atomic emission spectroscopy
Molality, mol/kg of calcium chloride	Temperature, K	Molality, mol/kg of aluminum chloride	uncertainty
5.309	278.15	0.546	0.218
5.05	278.15	0.757	0.181
4.603	278.15	1.045	0.136
4.052	278.15	1.305	0.118
3.282	278.15	1.686	0.119
2.426	278.15	2.131	0.123
1.669	278.15	2.495	0.131
1.121	278.15	2.763	0.141
0.722	278.15	2.96	0.149
0.271	278.15	3.17	0.159
0	278.15	3.347	0.168
6.89	298.15	0.472	0.153
6.762	298.15	0.528	0.15
6.241	298.15	0.72	0.108
5.295	298.15	1.01	0.105
4.626	298.15	1.293	0.116
4.172	298.15	1.484	0.112
3.668	298.15	1.678	0.111
3.003	298.15	1.95	0.117
2.565	298.15	2.153	0.123
1.957	298.15	2.433	0.129
1.51	298.15	2.608	0.135
0.881	298.15	2.921	0.148
0.472	298.15	3.13	0.157
0	298.15	3.383	0.169
7	303.15	0.455	0.131
6.834	303.15	0.516	0.122
6.301	303.15	0.696	0.106
5.332	303.15	0.998	0.104
4.669	303.15	1.263	0.116
4.206	303.15	1.466	0.114
3.69	303.15	1.674	0.113
3.025	303.15	1.95	0.118
2.582	303.15	2.154	0.123
1.971	303.15	2.442	0.13
1.526	303.15	2.624	0.136
0.895	303.15	2.935	0.148
0.481	303.15	3.127	0.157
0	303.15	3.395	0.17
7.104	308.15	0.45	0.094
6.885	308.15	0.506	0.121
6.377	308.15	0.695	0.111
5.385	308.15	1.009	0.109
4.723	308.15	1.296	0.12
4.252	308.15	1.494	0.113
3.723	308.15	1.693	0.115
3.051	308.15	1.995	0.121
2.609	308.15	2.203	0.125
1.995	308.15	2.472	0.131
1.545	308.15	2.674	0.139
0.906	308.15	2.99	0.151
0.496	308.15	3.19	0.16
0	308.15	3.41	0.171
7.157	313.15	0.438	0.134
6.997	313.15	0.501	0.132
6.449	313.15	0.702	0.112
5.458	313.15	1.015	0.109
4.765	313.15	1.302	0.119
4.288	313.15	1.501	0.114
3.767	313.15	1.704	0.115
3.083	313.15	1.994	0.121
2.64	313.15	2.202	0.127
2.019	313.15	2.505	0.134
1.564	313.15	2.699	0.14
0.911	313.15	3.003	0.152
0.482	313.15	3.202	0.161
0	313.15	3.426	0.171
7.351	318.15	0.43	0.106
7.093	318.15	0.503	0.126
6.543	318.15	0.706	0.114
5.523	318.15	1.029	0.109
4.826	318.15	1.307	0.117
4.347	318.15	1.505	0.114
3.814	318.15	1.703	0.116
3.117	318.15	2.005	0.121
2.67	318.15	2.202	0.127
2.044	318.15	2.504	0.134
1.584	318.15	2.702	0.14
0.929	318.15	3.002	0.152
0.527	318.15	3.202	0.161
0	318.15	3.441	0.172
7.62	323.15	0.419	0.098
7.291	323.15	0.502	0.106
6.631	323.15	0.691	0.118
5.599	323.15	1.073	0.116
4.97	323.15	1.31	0.11
4.398	323.15	1.501	0.108
3.857	323.15	1.702	0.115
3.155	323.15	2	0.121
2.703	323.15	2.201	0.127
2.066	323.15	2.505	0.134
1.608	323.15	2.7	0.14
0.942	323.15	3.001	0.152
0.539	323.15	3.201	0.161
0	323.15	3.461	0.173
7.801	333.15	0.403	0.117
7.485	333.15	0.503	0.119
6.86	333.15	0.702	0.113
5.767	333.15	1.04	0.111
5.125	333.15	1.3	0.117
4.532	333.15	1.505	0.109
3.962	333.15	1.705	0.115
3.25	333.15	2.004	0.122
2.783	333.15	2.204	0.127
2.129	333.15	2.505	0.134
1.664	333.15	2.701	0.14
0.987	333.15	3.006	0.152
0.564	333.15	3.205	0.161
0	333.15	3.504	0.175
8.357	343.15	0.391	0.082
7.756	343.15	0.505	0.098
7.068	343.15	0.704	0.111
5.935	343.15	1.045	0.114
5.297	343.15	1.305	0.114
4.629	343.15	1.505	0.107
4.084	343.15	1.704	0.118
3.359	343.15	2.006	0.122
2.868	343.15	2.205	0.126
2.2	343.15	2.506	0.134
1.726	343.15	2.704	0.141
1.089	343.15	3.008	0.153
0.633	343.15	3.203	0.161
0	343.15	3.554	0.178
8.8	353.15	0.38	0.079
8.08	353.15	0.506	0.094
7.335	353.15	0.708	0.116
6.264	353.15	1.05	0.12
5.364	353.15	1.388	0.121
4.737	353.15	1.61	0.105
4.229	353.15	1.71	0.118
3.477	353.15	2.081	0.131
2.974	353.15	2.28	0.129
2.29	353.15	2.562	0.136
1.804	353.15	2.747	0.143
1.152	353.15	3.039	0.154
0.683	353.15	3.249	0.163
0	353.15	3.61	0.181
9.3	363.15	0.375	0.079
8.48	363.15	0.51	0.092
7.686	363.15	0.711	0.12
6.518	363.15	1.091	0.126
5.584	363.15	1.442	0.124
4.906	363.15	1.671	0.118
4.382	363.15	1.848	0.122
3.613	363.15	2.138	0.127
3.108	363.15	2.332	0.131
2.388	363.15	2.606	0.138
1.89	363.15	2.793	0.145
1.213	363.15	3.083	0.157
0.755	363.15	3.292	0.166
0	363.15	3.674	0.184

System: aluminum chloride + water + calcium chloride; phases: Liquid, Crystal of intercomponent compound 3
Fixed: Pressure, kPa = 100
Property: Molality, mol/kg of calcium chloride (Liquid); method: atomic emission spectroscopy
Molality, mol/kg of aluminum chloride	Temperature, K	Molality, mol/kg of calcium chloride	uncertainty
0	308.15	9.568	0.479
0.29	308.15	7.644	0.391
0.45	308.15	7.104	0.364
0	313.15	10.326	0.517
0.301	313.15	7.822	0.407
0.438	313.15	7.157	0.371
0	318.15	11.751	0.588
0.3	318.15	8.317	0.445
0.43	318.15	7.351	0.401

System: aluminum chloride + water + calcium chloride; phases: Liquid, Crystal of intercomponent compound 3
Fixed: Pressure, kPa = 100
Property: Molality, mol/kg of calcium chloride (Liquid); method: atomic emission spectroscopy
Molality, mol/kg of aluminum chloride	Temperature, K	Molality, mol/kg of calcium chloride	uncertainty
0	323.15	11.908	0.596
0.301	323.15	8.443	0.451
0.419	323.15	7.62	0.408
0	333.15	12.327	0.617
0.3	333.15	8.806	0.473
0.403	333.15	7.801	0.426
0	343.15	12.768	0.639
0.3	343.15	9.247	0.494
0.391	343.15	8.357	0.463
0	353.15	13.246	0.663
0.301	353.15	9.627	0.513
0.38	353.15	8.8	0.479
0	363.15	13.759	0.689
0.3	363.15	10.192	0.54
0.375	363.15	9.3	0.516

System: water + calcium chloride; phases: Liquid, Crystal of intercomponent compound 3
Fixed: Pressure, kPa = 100
Property: Molality, mol/kg of calcium chloride (Liquid); method: atomic emission spectroscopy
Temperature, K	Molality, mol/kg of calcium chloride	uncertainty
278.15	5.611	0.281
298.15	7.462	0.373
303.15	8.699	0.435

System: water + calcium chloride; phases: Liquid, Crystal of intercomponent compound 2
Fixed: Pressure, kPa = 100
Property: Molality, mol/kg of calcium chloride (Liquid); method: atomic emission spectroscopy
Temperature, K	Molality, mol/kg of calcium chloride	uncertainty
308.15	9.568	0.479
313.15	10.326	0.517
318.15	11.751	0.588

System: water + calcium chloride; phases: Liquid, Crystal of intercomponent compound 1
Fixed: Pressure, kPa = 100
Property: Molality, mol/kg of calcium chloride (Liquid); method: atomic emission spectroscopy
Temperature, K	Molality, mol/kg of calcium chloride	uncertainty
323.15	11.908	0.596
333.15	12.327	0.617
343.15	12.768	0.639
353.15	13.246	0.663
363.15	13.759	0.689
