Measured thermophysical data. Liquid Extraction of Toluene from Heptane, Octane, or Nonane Using Mixed Ionic Solvents of 1-Ethyl-3-methylimidazolium Methylsulfate and 1-Hexyl-3-methylimidazolium Hexafluorophosphate
Source: J. Chem. Eng. Data, 2019, 10.1021/acs.jced.8b00669
Compound 1: 1-hexyl-3-methylimidazolium hexafluorophosphate, C10H19F6N2P, InChI=1S/C10H19N2.F6P/c1-3-4-5-6-7-12-9-8-11(2)10-12;1-7(2,3,4,5)6/h8-10H,3-7H2,1-2H3;/q+1;-1, purity 99%
Compound 2: 1-ethyl-3-methylimidazolium methylsulfate, C7H14N2O4S, InChI=1S/C6H11N2.CH4O4S/c1-3-8-5-4-7(2)6-8;1-5-6(2,3)4/h4-6H,3H2,1-2H3;1H3,(H,2,3,4)/q+1;/p-1, purity 98%
Compound 3: heptane, C7H16, InChI=1S/C7H16/c1-3-5-7-6-4-2/h3-7H2,1-2H3, purity 99.7%
Compound 4: octane, C8H18, InChI=1S/C8H18/c1-3-5-7-8-6-4-2/h3-8H2,1-2H3, purity 99%
Compound 5: nonane, C9H20, InChI=1S/C9H20/c1-3-5-7-9-8-6-4-2/h3-9H2,1-2H3, purity 99%
Compound 6: toluene, C7H8, InChI=1S/C7H8/c1-7-5-3-2-4-6-7/h2-6H,1H3, purity 99.5%

System: heptane + toluene + 1-ethyl-3-methylimidazolium methylsulfate; phases: Liquid mixture 1, Liquid mixture 2
Property: Mole fraction of toluene (Liquid mixture 1); method: Chromatography
Property: Mole fraction of toluene (Liquid mixture 2); method: Chromatography
Property: Mole fraction of heptane (Liquid mixture 2); method: Chromatography
Mole fraction of heptane	Temperature, K	Pressure, kPa	Mole fraction of toluene	uncertainty	Mole fraction of toluene	uncertainty	Mole fraction of heptane	uncertainty
0.766	313.15	101	0.234	0.003	0.088	0.002	0.002	

System: heptane + toluene + 1-hexyl-3-methylimidazolium hexafluorophosphate; phases: Liquid mixture 2, Liquid mixture 1
Property: Mole fraction of toluene (Liquid mixture 2); method: Chromatography
Property: Mole fraction of toluene (Liquid mixture 1); method: Chromatography
Property: Mole fraction of heptane (Liquid mixture 1); method: Chromatography
Mole fraction of heptane	Temperature, K	Pressure, kPa	Mole fraction of toluene	uncertainty	Mole fraction of toluene	uncertainty	Mole fraction of heptane	uncertainty
0.012	313.15	101	0.133	0.002	0.229	0.003	0.771	

System: heptane + 1-hexyl-3-methylimidazolium hexafluorophosphate + 1-ethyl-3-methylimidazolium methylsulfate; phases: Liquid mixture 2, Liquid mixture 1
Property: Mole fraction of 1-hexyl-3-methylimidazolium hexafluorophosphate (Liquid mixture 2); method: Chromatography
Property: Mole fraction of 1-hexyl-3-methylimidazolium hexafluorophosphate (Liquid mixture 1); method: Chromatography
Property: Mole fraction of heptane (Liquid mixture 1); method: Chromatography
Mole fraction of heptane	Temperature, K	Pressure, kPa	Mole fraction of 1-hexyl-3-methylimidazolium hexafluorophosphate	uncertainty	Mole fraction of 1-hexyl-3-methylimidazolium hexafluorophosphate	uncertainty	Mole fraction of heptane	uncertainty
0.014	313.15	101	0.887	0.02	0		1	

System: octane + 1-hexyl-3-methylimidazolium hexafluorophosphate + 1-ethyl-3-methylimidazolium methylsulfate; phases: Liquid mixture 2, Liquid mixture 1
Property: Mole fraction of 1-hexyl-3-methylimidazolium hexafluorophosphate (Liquid mixture 2); method: Chromatography
Property: Mole fraction of 1-hexyl-3-methylimidazolium hexafluorophosphate (Liquid mixture 1); method: Chromatography
Property: Mole fraction of octane (Liquid mixture 1); method: Chromatography
Mole fraction of octane	Temperature, K	Pressure, kPa	Mole fraction of 1-hexyl-3-methylimidazolium hexafluorophosphate	uncertainty	Mole fraction of 1-hexyl-3-methylimidazolium hexafluorophosphate	uncertainty	Mole fraction of octane	uncertainty
0.012	313.15	101	0.889	0.02	0		1	

System: nonane + 1-hexyl-3-methylimidazolium hexafluorophosphate + 1-ethyl-3-methylimidazolium methylsulfate; phases: Liquid mixture 2, Liquid mixture 1
Property: Mole fraction of 1-hexyl-3-methylimidazolium hexafluorophosphate (Liquid mixture 2); method: Chromatography
Property: Mole fraction of 1-hexyl-3-methylimidazolium hexafluorophosphate (Liquid mixture 1); method: Chromatography
Property: Mole fraction of nonane (Liquid mixture 1); method: Chromatography
Mole fraction of nonane	Temperature, K	Pressure, kPa	Mole fraction of 1-hexyl-3-methylimidazolium hexafluorophosphate	uncertainty	Mole fraction of 1-hexyl-3-methylimidazolium hexafluorophosphate	uncertainty	Mole fraction of nonane	uncertainty
0.011	313.15	101	0.89	0.02	0		1	
