Measured thermophysical data. Thermophysical Study of Binary Systems of tert-Amyl Methyl Ether with n-Hexane and m-Xylene
Source: J. Chem. Eng. Data, 2019, 10.1021/acs.jced.8b00589
Compound 1: 2-methoxy-2-methylbutane, C6H14O, InChI=1S/C6H14O/c1-5-6(2,3)7-4/h5H2,1-4H3, purity 99%
Compound 2: hexane, C6H14, InChI=1S/C6H14/c1-3-5-6-4-2/h3-6H2,1-2H3, purity 99%
Compound 3: 1,3-dimethylbenzene, C8H10, InChI=1S/C8H10/c1-7-4-3-5-8(2)6-7/h3-6H,1-2H3, purity 99%

System: 2-methoxy-2-methylbutane; phases: Liquid
Fixed: Pressure, kPa = 100
Property: Mass density, kg/m3 (Liquid); method: Vibrating tube method
Temperature, K	Mass density, kg/m3	uncertainty
298.15	765.6	1
308.15	756.3	1
318.15	746.3	1
323.15	741.4	1
328.15	736.5	1

System: 2-methoxy-2-methylbutane; phases: Liquid
Fixed: Pressure, kPa = 100
Property: Viscosity, Pa*s (Liquid); method: Capillary tube (Ostwald; Ubbelohde) method
Temperature, K	Viscosity, Pa*s	uncertainty
298.15	0.000424	3e-05
308.15	0.00039	3e-05
318.15	0.000357	3e-05
323.15	0.00034	3e-05
328.15	0.000328	3e-05

System: 2-methoxy-2-methylbutane; phases: Liquid
Fixed: Pressure, kPa = 100
Fixed: Frequency, MHz = 2
Property: Speed of sound, m/s (Liquid); method: Linear variable-path acoustic interferometer
Temperature, K	Speed of sound, m/s	uncertainty
298.15	1118.04	10.12
308.15	1075.61	10.11
318.15	1031.07	10.11
323.15	1003.04	10.11
328.15	985.24	10.1

System: 2-methoxy-2-methylbutane; phases: Liquid, Gas
Property: Surface tension liquid-gas, N/m (Liquid); method: Ring tensiometer
Temperature, K	Surface tension liquid-gas, N/m	uncertainty
298.15	0.01972	0.00085
308.15	0.01866	0.00085
318.15	0.01765	0.00085
323.15	0.01713	0.00084
328.15	0.01662	0.00084

System: hexane; phases: Liquid
Fixed: Pressure, kPa = 100
Property: Mass density, kg/m3 (Liquid); method: Vibrating tube method
Temperature, K	Mass density, kg/m3	uncertainty
298.15	654.7	1
308.15	645.4	1
318.15	636.2	1
323.15	631.2	1
328.15	626.4	1

System: hexane; phases: Liquid
Fixed: Pressure, kPa = 100
Property: Viscosity, Pa*s (Liquid); method: Capillary tube (Ostwald; Ubbelohde) method
Temperature, K	Viscosity, Pa*s	uncertainty
298.15	0.000295	3e-05
308.15	0.000263	3e-05
318.15	0.00024	3e-05
323.15	0.000232	3e-05
328.15	0.000223	3e-05

System: hexane; phases: Liquid
Fixed: Pressure, kPa = 100
Fixed: Frequency, MHz = 2
Property: Speed of sound, m/s (Liquid); method: Linear variable-path acoustic interferometer
Temperature, K	Speed of sound, m/s	uncertainty
298.15	1073.22	10.11
308.15	1031.2	10.11
318.15	981.26	10.1
323.15	960.75	10.1
328.15	940.39	10.1

System: hexane; phases: Liquid, Gas
Property: Surface tension liquid-gas, N/m (Liquid); method: Ring tensiometer
Temperature, K	Surface tension liquid-gas, N/m	uncertainty
298.15	0.01775	0.00085
308.15	0.01663	0.00084
318.15	0.01552	0.00084
323.15	0.01496	0.00084
328.15	0.01441	0.00083

System: 1,3-dimethylbenzene; phases: Liquid
Fixed: Pressure, kPa = 100
Property: Mass density, kg/m3 (Liquid); method: Vibrating tube method
Temperature, K	Mass density, kg/m3	uncertainty
298.15	859.1	1
308.15	849.2	1
318.15	840.4	1
323.15	835.8	1
328.15	831.6	1

System: 1,3-dimethylbenzene; phases: Liquid
Fixed: Pressure, kPa = 100
Property: Viscosity, Pa*s (Liquid); method: Capillary tube (Ostwald; Ubbelohde) method
Temperature, K	Viscosity, Pa*s	uncertainty
298.15	0.00059	3e-05
308.15	0.000525	3e-05
318.15	0.000482	3e-05
323.15	0.000443	3e-05
328.15	0.000433	3e-05

System: 1,3-dimethylbenzene; phases: Liquid
Fixed: Pressure, kPa = 100
Fixed: Frequency, MHz = 2
Property: Speed of sound, m/s (Liquid); method: Linear variable-path acoustic interferometer
Temperature, K	Speed of sound, m/s	uncertainty
298.15	1320.89	10.13
308.15	1280.01	10.13
318.15	1238.25	10.13
323.15	1218.43	10.12
328.15	1195.24	10.12

System: 1,3-dimethylbenzene; phases: Liquid, Gas
Property: Surface tension liquid-gas, N/m (Liquid); method: Ring tensiometer
Temperature, K	Surface tension liquid-gas, N/m	uncertainty
298.15	0.02819	0.00089
308.15	0.02695	0.00089
318.15	0.02564	0.00088
323.15	0.025	0.00088
328.15	0.02437	0.00087

System: 2-methoxy-2-methylbutane + hexane; phases: Liquid
Fixed: Pressure, kPa = 100
Property: Mass density, kg/m3 (Liquid); method: Vibrating tube method
Temperature, K	Mole fraction of 2-methoxy-2-methylbutane	Mass density, kg/m3	uncertainty
298.15	0	654.7	1
298.15	0.1632	672.8	1
298.15	0.2584	683.2	1
298.15	0.3742	695.5	1
298.15	0.4276	701.6	1
298.15	0.5464	714.8	1
298.15	0.6121	722.3	1
298.15	0.7457	737.2	1
298.15	0.8625	750.1	1
298.15	1	765.6	1
308.15	0	645.4	1
308.15	0.1632	663.2	1
308.15	0.2584	673.8	1
308.15	0.3742	686.5	1
308.15	0.4276	692.3	1
308.15	0.5464	705.2	1
308.15	0.6121	712.5	1
308.15	0.7457	727.4	1
308.15	0.8625	740.7	1
308.15	1	756.3	1
318.15	0	636.2	1
318.15	0.1632	653.5	1
318.15	0.2584	663.8	1
318.15	0.3742	676.6	1
318.15	0.4276	682.4	1
318.15	0.5464	695.3	1
318.15	0.6121	702.5	1
318.15	0.7457	717.7	1
318.15	0.8625	730.6	1
318.15	1	746.3	1
323.15	0	631.2	1
323.15	0.1632	648.6	1
323.15	0.2584	658.8	1
323.15	0.3742	671.5	1
323.15	0.4276	677.3	1
323.15	0.5464	690.4	1
323.15	0.6121	697.6	1
323.15	0.7457	712.5	1
323.15	0.8625	725.8	1
323.15	1	741.4	1
328.15	0	626.4	1
328.15	0.1632	643.6	1
328.15	0.2584	653.7	1
328.15	0.3742	666.5	1
328.15	0.4276	672.3	1
328.15	0.5464	685.3	1
328.15	0.6121	692.6	1
328.15	0.7457	707.5	1
328.15	0.8625	720.8	1
328.15	1	736.5	1

System: 2-methoxy-2-methylbutane + hexane; phases: Liquid
Fixed: Pressure, kPa = 100
Property: Viscosity, Pa*s (Liquid); method: Capillary tube (Ostwald; Ubbelohde) method
Temperature, K	Mole fraction of 2-methoxy-2-methylbutane	Viscosity, Pa*s	uncertainty
298.15	0	0.000295	3e-05
298.15	0.1632	0.000311	3e-05
298.15	0.2584	0.000318	3e-05
298.15	0.3742	0.000327	3e-05
298.15	0.4276	0.000331	3e-05
298.15	0.5464	0.000346	3e-05
298.15	0.6121	0.000356	3e-05
298.15	0.7457	0.000381	3e-05
298.15	0.8625	0.000402	3e-05
298.15	1	0.000424	3e-05
308.15	0	0.000263	3e-05
308.15	0.1632	0.000274	3e-05
308.15	0.2584	0.000281	3e-05
308.15	0.3742	0.000293	3e-05
308.15	0.4276	0.000298	3e-05
308.15	0.5464	0.000313	3e-05
308.15	0.6121	0.000322	3e-05
308.15	0.7457	0.000342	3e-05
308.15	0.8625	0.000362	3e-05
308.15	1	0.00039	3e-05
318.15	0	0.00024	3e-05
318.15	0.1632	0.000249	3e-05
318.15	0.2584	0.000256	3e-05
318.15	0.3742	0.000266	3e-05
318.15	0.4276	0.000271	3e-05
318.15	0.5464	0.000284	3e-05
318.15	0.6121	0.000292	3e-05
318.15	0.7457	0.000311	3e-05
318.15	0.8625	0.000331	3e-05
318.15	1	0.000357	3e-05
323.15	0	0.000232	3e-05
323.15	0.1632	0.000239	3e-05
323.15	0.2584	0.000245	3e-05
323.15	0.3742	0.000254	3e-05
323.15	0.4276	0.000258	3e-05
323.15	0.5464	0.00027	3e-05
323.15	0.6121	0.000277	3e-05
323.15	0.7457	0.000294	3e-05
323.15	0.8625	0.000312	3e-05
323.15	1	0.000335	3e-05
328.15	0	0.000223	3e-05
328.15	0.1632	0.00023	3e-05
328.15	0.2584	0.000235	3e-05
328.15	0.3742	0.000244	3e-05
328.15	0.4276	0.000248	3e-05
328.15	0.5464	0.000259	3e-05
328.15	0.6121	0.000266	3e-05
328.15	0.7457	0.000283	3e-05
328.15	0.8625	0.000301	3e-05
328.15	1	0.000323	3e-05

System: 2-methoxy-2-methylbutane + hexane; phases: Liquid
Fixed: Pressure, kPa = 100
Fixed: Frequency, MHz = 2
Property: Speed of sound, m/s (Liquid); method: Linear variable-path acoustic interferometer
Temperature, K	Mole fraction of 2-methoxy-2-methylbutane	Speed of sound, m/s	uncertainty
298.15	0	1073.24	10.11
298.15	0.1632	1077.82	10.11
298.15	0.2584	1082.18	10.11
298.15	0.3742	1087.54	10.11
298.15	0.4276	1088.6	10.11
298.15	0.5464	1092.82	10.11
298.15	0.6121	1096.13	10.11
298.15	0.7457	1103.52	10.11
298.15	0.8625	1112.19	10.11
298.15	1	1118.05	10.12
308.15	0	1031.24	10.11
308.15	0.1632	1035.51	10.11
308.15	0.2584	1039.38	10.11
308.15	0.3742	1045.13	10.11
308.15	0.4276	1046.8	10.11
308.15	0.5464	1049.64	10.11
308.15	0.6121	1053.15	10.11
308.15	0.7457	1060.41	10.11
308.15	0.8625	1069.18	10.11
308.15	1	1075.6	10.11
318.15	0	981.23	10.1
318.15	0.1632	984.7	10.11
318.15	0.2584	988.75	10.11
318.15	0.3742	994.36	10.11
318.15	0.4276	996.61	10.11
318.15	0.5464	1002.42	10.11
318.15	0.6121	1006.78	10.11
318.15	0.7457	1013.83	10.11
318.15	0.8625	1022.8	10.11
318.15	1	1030.24	10.11
323.15	0	960.75	10.1
323.15	0.1632	963.82	10.1
323.15	0.2584	967.24	10.1
323.15	0.3742	971.83	10.1
323.15	0.4276	973.34	10.1
323.15	0.5464	977.27	10.1
323.15	0.6121	980.49	10.1
323.15	0.7457	984.8	10.11
323.15	0.8625	994.84	10.11
323.15	1	1003.02	10.11
328.15	0	940.35	10.1
328.15	0.1632	942.3	10.1
328.15	0.2584	945.14	10.1
328.15	0.3742	949.52	10.1
328.15	0.4276	951.24	10.1
328.15	0.5464	955.05	10.1
328.15	0.6121	958.72	10.1
328.15	0.7457	963.63	10.1
328.15	0.8625	974.08	10.1
328.15	1	985.22	10.1

System: 2-methoxy-2-methylbutane + hexane; phases: Liquid, Gas
Property: Surface tension liquid-gas, N/m (Liquid); method: Ring tensiometer
Temperature, K	Mole fraction of 2-methoxy-2-methylbutane	Surface tension liquid-gas, N/m	uncertainty
298.15	0	0.01775	0.00085
298.15	0.1632	0.01799	0.00085
298.15	0.2584	0.01821	0.00085
298.15	0.3742	0.0185	0.00085
298.15	0.4276	0.01862	0.00085
298.15	0.5464	0.01873	0.00085
298.15	0.6121	0.01888	0.00085
298.15	0.7457	0.01915	0.00085
298.15	0.8625	0.01942	0.00085
298.15	1	0.01972	0.00085
308.15	0	0.01663	0.00084
308.15	0.1632	0.01688	0.00084
308.15	0.2584	0.0171	0.00084
308.15	0.3742	0.0174	0.00084
308.15	0.4276	0.01752	0.00084
308.15	0.5464	0.01764	0.00085
308.15	0.6121	0.01779	0.00085
308.15	0.7457	0.01807	0.00085
308.15	0.8625	0.01835	0.00085
308.15	1	0.01866	0.00085
318.15	0	0.01552	0.00084
318.15	0.1632	0.01578	0.00084
318.15	0.2584	0.01601	0.00084
318.15	0.3742	0.01633	0.00084
318.15	0.4276	0.01646	0.00084
318.15	0.5464	0.01658	0.00084
318.15	0.6121	0.01674	0.00084
318.15	0.7457	0.01703	0.00084
318.15	0.8625	0.01732	0.00084
318.15	1	0.01765	0.00085
323.15	0	0.01496	0.00084
323.15	0.1632	0.01522	0.00084
323.15	0.2584	0.01547	0.00084
323.15	0.3742	0.01578	0.00084
323.15	0.4276	0.01592	0.00084
323.15	0.5464	0.01604	0.00084
323.15	0.6121	0.0162	0.00084
323.15	0.7457	0.0165	0.00084
323.15	0.8625	0.0168	0.00084
323.15	1	0.01713	0.00084
328.15	0	0.01441	0.00083
328.15	0.1632	0.01467	0.00083
328.15	0.2584	0.01492	0.00084
328.15	0.3742	0.01524	0.00084
328.15	0.4276	0.01538	0.00084
328.15	0.5464	0.0155	0.00084
328.15	0.6121	0.01567	0.00084
328.15	0.7457	0.01597	0.00084
328.15	0.8625	0.01627	0.00084
328.15	1	0.01662	0.00084

System: 2-methoxy-2-methylbutane + 1,3-dimethylbenzene; phases: Liquid
Fixed: Pressure, kPa = 100
Property: Mass density, kg/m3 (Liquid); method: Vibrating tube method
Temperature, K	Mole fraction of 2-methoxy-2-methylbutane	Mass density, kg/m3	uncertainty
298.15	0	859.1	1
298.15	0.1462	844.1	1
298.15	0.2667	833.4	1
298.15	0.4165	821.1	1
298.15	0.4774	816.2	1
298.15	0.5331	811.4	1
298.15	0.6068	805.3	1
298.15	0.7371	794.6	1
298.15	0.8642	782.7	1
298.15	1	765.6	1
308.15	0	849.2	1
308.15	0.1462	833.6	1
308.15	0.2667	822.5	1
308.15	0.4165	810.2	1
308.15	0.4774	805.1	1
308.15	0.5331	800.3	1
308.15	0.6068	794.4	1
308.15	0.7371	783.3	1
308.15	0.8642	771.8	1
308.15	1	756.3	1
318.15	0	840.4	1
318.15	0.1462	823.8	1
318.15	0.2667	813.1	1
318.15	0.4165	800.2	1
318.15	0.4774	794.8	1
318.15	0.5331	790.4	1
318.15	0.6068	784.1	1
318.15	0.7371	772.8	1
318.15	0.8642	761.3	1
318.15	1	746.3	1
323.15	0	835.8	1
323.15	0.1462	819.2	1
323.15	0.2667	808	1
323.15	0.4165	795.3	1
323.15	0.4774	789.8	1
323.15	0.5331	785.1	1
323.15	0.6068	778.8	1
323.15	0.7371	767.7	1
323.15	0.8642	755.8	1
323.15	1	741.4	1
328.15	0	831.6	1
328.15	0.1462	814.4	1
328.15	0.2667	803.3	1
328.15	0.4165	790.5	1
328.15	0.4774	785.2	1
328.15	0.5331	780.3	1
328.15	0.6068	773.7	1
328.15	0.7371	762.6	1
328.15	0.8642	750.8	1
328.15	1	736.5	1

System: 2-methoxy-2-methylbutane + 1,3-dimethylbenzene; phases: Liquid
Fixed: Pressure, kPa = 100
Property: Viscosity, Pa*s (Liquid); method: Capillary tube (Ostwald; Ubbelohde) method
Temperature, K	Mole fraction of 2-methoxy-2-methylbutane	Viscosity, Pa*s	uncertainty
298.15	0	0.00059	3e-05
298.15	0.1462	0.000561	3e-05
298.15	0.2667	0.000541	3e-05
298.15	0.4165	0.000519	3e-05
298.15	0.4774	0.00051	3e-05
298.15	0.5331	0.000502	3e-05
298.15	0.6068	0.000491	3e-05
298.15	0.7371	0.00047	3e-05
298.15	0.8642	0.000447	3e-05
298.15	1	0.000424	3e-05
308.15	0	0.000525	3e-05
308.15	0.1462	0.000501	3e-05
308.15	0.2667	0.000485	3e-05
308.15	0.4165	0.000468	3e-05
308.15	0.4774	0.000461	3e-05
308.15	0.5331	0.000454	3e-05
308.15	0.6068	0.000445	3e-05
308.15	0.7371	0.000428	3e-05
308.15	0.8642	0.000409	3e-05
308.15	1	0.00039	3e-05
318.15	0	0.000482	3e-05
318.15	0.1462	0.00046	3e-05
318.15	0.2667	0.000445	3e-05
318.15	0.4165	0.000428	3e-05
318.15	0.4774	0.000421	3e-05
318.15	0.5331	0.000415	3e-05
318.15	0.6068	0.000407	3e-05
318.15	0.7371	0.000391	3e-05
318.15	0.8642	0.000374	3e-05
318.15	1	0.000357	3e-05
323.15	0	0.000443	3e-05
323.15	0.1462	0.000424	3e-05
323.15	0.2667	0.000412	3e-05
323.15	0.4165	0.000399	3e-05
323.15	0.4774	0.000393	3e-05
323.15	0.5331	0.000389	3e-05
323.15	0.6068	0.000382	3e-05
323.15	0.7371	0.000369	3e-05
323.15	0.8642	0.000354	3e-05
323.15	1	0.00034	3e-05
328.15	0	0.000433	3e-05
328.15	0.1462	0.000414	3e-05
328.15	0.2667	0.000401	3e-05
328.15	0.4165	0.000387	3e-05
328.15	0.4774	0.000382	3e-05
328.15	0.5331	0.000377	3e-05
328.15	0.6068	0.00037	3e-05
328.15	0.7371	0.000357	3e-05
328.15	0.8642	0.000342	3e-05
328.15	1	0.000328	3e-05

System: 2-methoxy-2-methylbutane + 1,3-dimethylbenzene; phases: Liquid
Fixed: Pressure, kPa = 100
Fixed: Frequency, MHz = 2
Property: Speed of sound, m/s (Liquid); method: Linear variable-path acoustic interferometer
Temperature, K	Mole fraction of 2-methoxy-2-methylbutane	Speed of sound, m/s	uncertainty
298.15	0	1320.91	10.13
298.15	0.1462	1299	10.13
298.15	0.2667	1269.43	10.13
298.15	0.4165	1235	10.13
298.15	0.4774	1218.87	10.12
298.15	0.5331	1205.2	10.12
298.15	0.6068	1189.18	10.12
298.15	0.7371	1165.76	10.12
298.15	0.8642	1138	10.12
298.15	1	1118.04	10.12
308.15	0	1280.01	10.13
308.15	0.1462	1254.43	10.13
308.15	0.2667	1220.68	10.12
308.15	0.4165	1182.35	10.12
308.15	0.4774	1167.01	10.12
308.15	0.5331	1155.12	10.12
308.15	0.6068	1140.54	10.12
308.15	0.7371	1118.13	10.12
308.15	0.8642	1092.82	10.11
308.15	1	1075.6	10.11
318.15	0	1238.25	10.13
318.15	0.1462	1209.3	10.12
318.15	0.2667	1174.21	10.12
318.15	0.4165	1134.52	10.12
318.15	0.4774	1118.73	10.12
318.15	0.5331	1105.43	10.11
318.15	0.6068	1090.6	10.11
318.15	0.7371	1067.25	10.11
318.15	0.8642	1045.86	10.11
318.15	1	1030.15	10.11
323.15	0	1218.43	10.12
323.15	0.1462	1186.3	10.12
323.15	0.2667	1150.52	10.12
323.15	0.4165	1107.71	10.12
323.15	0.4774	1090.33	10.11
323.15	0.5331	1076.25	10.11
323.15	0.6068	1061.36	10.11
323.15	0.7371	1037.81	10.11
323.15	0.8642	1017.02	10.11
323.15	1	1003.05	10.11
328.15	0	1195.24	10.12
328.15	0.1462	1160.62	10.12
328.15	0.2667	1124.05	10.12
328.15	0.4165	1082.23	10.11
328.15	0.4774	1065.08	10.11
328.15	0.5331	1051.82	10.11
328.15	0.6068	1037.43	10.11
328.15	0.7371	1013.9	10.11
328.15	0.8642	995.44	10.11
328.15	1	985.2	10.1

System: 2-methoxy-2-methylbutane + 1,3-dimethylbenzene; phases: Liquid, Gas
Property: Surface tension liquid-gas, N/m (Liquid); method: Ring tensiometer
Temperature, K	Mole fraction of 2-methoxy-2-methylbutane	Surface tension liquid-gas, N/m	uncertainty
298.15	0	0.02819	0.00089
298.15	0.1462	0.02687	0.00089
298.15	0.2667	0.02584	0.00088
298.15	0.4165	0.02469	0.00088
298.15	0.4774	0.02424	0.00087
298.15	0.5331	0.02382	0.00087
298.15	0.6068	0.02322	0.00087
298.15	0.7371	0.02207	0.00086
298.15	0.8642	0.02093	0.00086
298.15	1	0.01972	0.00085
308.15	0	0.02695	0.00089
308.15	0.1462	0.02564	0.00088
308.15	0.2667	0.02462	0.00087
308.15	0.4165	0.02347	0.00087
308.15	0.4774	0.02302	0.00087
308.15	0.5331	0.02261	0.00087
308.15	0.6068	0.02206	0.00086
308.15	0.7371	0.02094	0.00086
308.15	0.8642	0.01983	0.00085
308.15	1	0.01866	0.00085
318.15	0	0.02564	0.00088
318.15	0.1462	0.02436	0.00087
318.15	0.2667	0.02337	0.00087
318.15	0.4165	0.02225	0.00086
318.15	0.4774	0.02181	0.00086
318.15	0.5331	0.02141	0.00086
318.15	0.6068	0.0209	0.00086
318.15	0.7371	0.01983	0.00085
318.15	0.8642	0.01877	0.00085
318.15	1	0.01765	0.00085
323.15	0	0.025	0.00088
323.15	0.1462	0.02373	0.00087
323.15	0.2667	0.02275	0.00087
323.15	0.4165	0.02165	0.00086
323.15	0.4774	0.02121	0.00086
323.15	0.5331	0.02082	0.00086
323.15	0.6068	0.02032	0.00086
323.15	0.7371	0.01927	0.00085
323.15	0.8642	0.01823	0.00085
323.15	1	0.01713	0.00084
328.15	0	0.02437	0.00087
328.15	0.1462	0.0231	0.00087
328.15	0.2667	0.02214	0.00086
328.15	0.4165	0.02105	0.00086
328.15	0.4774	0.02062	0.00086
328.15	0.5331	0.02023	0.00086
328.15	0.6068	0.01973	0.00085
328.15	0.7371	0.01871	0.00085
328.15	0.8642	0.01769	0.00085
328.15	1	0.01662	0.00084
