Measured thermophysical data. Liquid Viscosity and Surface Tension of n-Dodecane, n-Octacosane, Their Mixtures, and a Wax between 323 and 573 K by Surface Light Scattering
Source: J. Chem. Eng. Data, 2017, 10.1021/acs.jced.7b00363
Compound 1: dodecane, C12H26, InChI=1S/C12H26/c1-3-5-7-9-11-12-10-8-6-4-2/h3-12H2,1-2H3, purity 99.41%
Compound 2: octacosane, C28H58, InChI=1S/C28H58/c1-3-5-7-9-11-13-15-17-19-21-23-25-27-28-26-24-22-20-18-16-14-12-10-8-6-4-2/h3-28H2,1-2H3

System: dodecane; phases: Liquid, Gas
Property: Viscosity, Pa*s (Liquid); method: Surface laser light scattering (SLLS)
Temperature, K	Viscosity, Pa*s	uncertainty
323.15	0.0009225	2.54e-05
348.15	0.0006763	1.71e-05
373.15	0.000507	1.29e-05
398.15	0.0004003	1.16e-05
423.15	0.0003223	1.1e-05
448.15	0.0002595	1e-05
473.15	0.0002156	9.4e-06
498.15	0.0001821	9.2e-06
523.15	0.0001532	8.9e-06
548.15	0.0001277	8.7e-06
573.15	0.0001051	8.6e-06

System: dodecane; phases: Liquid, Gas
Property: Surface tension liquid-gas, N/m (Liquid); method: Surface laser light scattering (SLLS)
Temperature, K	Surface tension liquid-gas, N/m	uncertainty
323.15	0.02164	0.00023
348.15	0.01991	0.0003
373.15	0.01819	0.00031
398.15	0.01622	0.00014
423.15	0.01433	0.00026
448.15	0.01238	0.00024
473.15	0.01067	8e-05
498.15	0.00895	0.00016
523.15	0.00725	8e-05
548.15	0.00564	7e-05
573.15	0.00414	7e-05

System: octacosane; phases: Liquid, Gas
Property: Viscosity, Pa*s (Liquid); method: Surface laser light scattering (SLLS)
Temperature, K	Viscosity, Pa*s	uncertainty
398.15	0.0018142	8.19e-05
423.15	0.0013609	4.32e-05
448.15	0.0010252	2.49e-05
473.15	0.0008318	2.04e-05
498.15	0.0006847	1.95e-05
523.15	0.0005675	1.74e-05
548.15	0.0004753	1.6e-05
573.15	0.0003995	1.2e-05

System: octacosane; phases: Liquid, Gas
Property: Surface tension liquid-gas, N/m (Liquid); method: Surface laser light scattering (SLLS)
Temperature, K	Surface tension liquid-gas, N/m	uncertainty
398.15	0.02133	0.00069
423.15	0.01953	0.00052
448.15	0.01778	0.00031
473.15	0.01657	0.00048
498.15	0.01538	0.00029
523.15	0.01418	0.00026
548.15	0.01286	0.00018
573.15	0.01151	0.00018

System: dodecane + octacosane; phases: Liquid, Gas
Property: Viscosity, Pa*s (Liquid); method: Surface laser light scattering (SLLS)
Temperature, K	Mass fraction of dodecane	Viscosity, Pa*s	uncertainty
373.15	0.156	0.001944	6.36e-05
398.15	0.156	0.0014119	4.31e-05
423.15	0.156	0.0010885	2.84e-05
448.15	0.155	0.0008604	2.26e-05
473.15	0.155	0.0006912	1.62e-05
498.15	0.154	0.0005671	1.6e-05
523.15	0.152	0.0004787	1.43e-05
548.15	0.15	0.0004075	1.35e-05
573.15	0.148	0.0003445	1.1e-05

System: dodecane + octacosane; phases: Liquid, Gas
Property: Surface tension liquid-gas, N/m (Liquid); method: Surface laser light scattering (SLLS)
Temperature, K	Mass fraction of dodecane	Surface tension liquid-gas, N/m	uncertainty
373.15	0.156	0.02171	0.00057
398.15	0.156	0.0198	0.0005
423.15	0.156	0.0185	0.00025
448.15	0.155	0.01707	0.00024
473.15	0.155	0.01559	0.00021
498.15	0.154	0.01415	0.00019
523.15	0.152	0.01284	0.00023
548.15	0.15	0.01156	0.00016
573.15	0.148	0.0103	0.00019
