Measured thermophysical data. Density and Derived Properties of Binary Mixtures Containing {2-(Dimethylamino)ethyl Methacrylate + Alcohols} at Temperatures from T = (293.15 to 313.15) K and Pressures of up to 35 MPa
Source: J. Chem. Eng. Data, 2019, 10.1021/acs.jced.8b00975
Compound 1: methanol, CH4O, InChI=1S/CH4O/c1-2/h2H,1H3, purity 99.9%
Compound 2: ethanol, C2H6O, InChI=1S/C2H6O/c1-2-3/h3H,2H2,1H3, purity 99.9%
Compound 3: propan-1-ol, C3H8O, InChI=1S/C3H8O/c1-2-3-4/h4H,2-3H2,1H3, purity 99.5%
Compound 4: butan-1-ol, C4H10O, InChI=1S/C4H10O/c1-2-3-4-5/h5H,2-4H2,1H3, purity 99.5%
Compound 5: pentan-1-ol, C5H12O, InChI=1S/C5H12O/c1-2-3-4-5-6/h6H,2-5H2,1H3, purity 98.5%
Compound 6: 2-(dimethylamino)ethyl methylpropenoate, C8H15NO2, InChI=1S/C8H15NO2/c1-7(2)8(10)11-6-5-9(3)4/h1,5-6H2,2-4H3, purity 99%

System: methanol; phases: Liquid
Property: Mass density, kg/m3 (Liquid); method: Vibrating tube method
Temperature, K	Pressure, kPa	Mass density, kg/m3	uncertainty
293.15	100	791.15	0.51
293.15	5000	795.92	0.52
293.15	10000	800.41	0.53
293.15	15000	804.64	0.54
293.15	20000	808.67	0.55
293.15	25000	812.52	0.56
293.15	30000	816.25	0.58
293.15	35000	819.89	0.59
303.15	100	781.84	0.51
303.15	5000	786.9	0.52
303.15	10000	791.61	0.53
303.15	15000	796.01	0.54
303.15	20000	800.14	0.56
303.15	25000	804.05	0.57
303.15	30000	807.78	0.58
303.15	35000	811.37	0.6
313.15	100	772.35	0.51
313.15	5000	777.48	0.52
313.15	10000	782.37	0.53
313.15	15000	786.99	0.55
313.15	20000	791.38	0.56
313.15	25000	795.59	0.57
313.15	30000	799.69	0.59
313.15	35000	803.73	0.61

System: ethanol; phases: Liquid
Property: Mass density, kg/m3 (Liquid); method: Vibrating tube method
Temperature, K	Pressure, kPa	Mass density, kg/m3	uncertainty
293.15	100	788.94	0.51
293.15	5000	793.35	0.52
293.15	10000	797.51	0.53
293.15	15000	801.44	0.54
293.15	20000	805.18	0.55
293.15	25000	808.74	0.57
293.15	30000	812.17	0.58
293.15	35000	815.49	0.6
303.15	100	780.83	0.51
303.15	5000	785.54	0.52
303.15	10000	789.89	0.53
303.15	15000	793.92	0.54
303.15	20000	797.7	0.56
303.15	25000	801.28	0.57
303.15	30000	804.72	0.59
303.15	35000	808.06	0.6
313.15	100	772.04	0.51
313.15	5000	776.85	0.52
313.15	10000	781.35	0.53
313.15	15000	785.59	0.55
313.15	20000	789.62	0.56
313.15	25000	793.47	0.58
313.15	30000	797.2	0.59
313.15	35000	800.84	0.61

System: propan-1-ol; phases: Liquid
Property: Mass density, kg/m3 (Liquid); method: Vibrating tube method
Temperature, K	Pressure, kPa	Mass density, kg/m3	uncertainty
293.15	100	803.17	0.52
293.15	5000	807.25	0.53
293.15	10000	811.02	0.54
293.15	15000	814.54	0.55
293.15	20000	817.87	0.56
293.15	25000	821.05	0.57
293.15	30000	824.15	0.59
293.15	35000	827.21	0.6
303.15	100	795.52	0.52
303.15	5000	799.83	0.53
303.15	10000	803.8	0.54
303.15	15000	807.49	0.55
303.15	20000	810.95	0.56
303.15	25000	814.23	0.58
303.15	30000	817.38	0.59
303.15	35000	820.48	0.61
313.15	100	787.3	0.52
313.15	5000	791.61	0.53
313.15	10000	795.67	0.54
313.15	15000	799.52	0.55
313.15	20000	803.19	0.57
313.15	25000	806.72	0.58
313.15	30000	810.15	0.6
313.15	35000	813.5	0.61

System: butan-1-ol; phases: Liquid
Property: Mass density, kg/m3 (Liquid); method: Vibrating tube method
Temperature, K	Pressure, kPa	Mass density, kg/m3	uncertainty
293.15	100	809.28	0.52
293.15	5000	813.04	0.52
293.15	10000	816.54	0.53
293.15	15000	819.83	0.55
293.15	20000	822.97	0.56
293.15	25000	826	0.57
293.15	30000	828.99	0.58
293.15	35000	831.99	0.6
303.15	100	801.9	0.52
303.15	5000	806	0.53
303.15	10000	809.77	0.54
303.15	15000	813.26	0.55
303.15	20000	816.52	0.56
303.15	25000	819.61	0.57
303.15	30000	822.58	0.59
303.15	35000	825.48	0.6
313.15	100	794.32	0.52
313.15	5000	798.42	0.53
313.15	10000	802.22	0.54
313.15	15000	805.8	0.55
313.15	20000	809.2	0.56
313.15	25000	812.49	0.58
313.15	30000	815.73	0.59
313.15	35000	818.97	0.61

System: pentan-1-ol; phases: Liquid
Property: Mass density, kg/m3 (Liquid); method: Vibrating tube method
Temperature, K	Pressure, kPa	Mass density, kg/m3	uncertainty
293.15	100	815.25	0.62
293.15	5000	818.83	0.64
293.15	10000	822.19	0.66
293.15	15000	825.37	0.68
293.15	20000	828.41	0.7
293.15	25000	831.36	0.72
293.15	30000	834.24	0.74
293.15	35000	837.11	0.76
303.15	100	808.05	0.62
303.15	5000	811.93	0.64
303.15	10000	815.5	0.66
303.15	15000	818.82	0.68
303.15	20000	821.92	0.7
303.15	25000	824.88	0.72
303.15	30000	827.74	0.75
303.15	35000	830.55	0.77
313.15	100	800.67	0.62
313.15	5000	804.61	0.64
313.15	10000	808.28	0.66
313.15	15000	811.75	0.68
313.15	20000	815.06	0.71
313.15	25000	818.26	0.73
313.15	30000	821.41	0.75
313.15	35000	824.56	0.77

System: 2-(dimethylamino)ethyl methylpropenoate; phases: Liquid
Property: Mass density, kg/m3 (Liquid); method: Vibrating tube method
Temperature, K	Pressure, kPa	Mass density, kg/m3	uncertainty
293.15	100	933.13	0.54
293.15	5000	936.87	0.55
293.15	10000	940.43	0.55
293.15	15000	943.83	0.55
293.15	20000	947.11	0.56
293.15	25000	950.3	0.56
293.15	30000	953.43	0.56
293.15	35000	956.52	0.57
303.15	100	923.03	0.54
303.15	5000	926.88	0.55
303.15	10000	930.61	0.55
303.15	15000	934.24	0.56
303.15	20000	937.79	0.56
303.15	25000	941.28	0.56
303.15	30000	944.74	0.57
303.15	35000	948.19	0.57
313.15	100	914.01	0.54
313.15	5000	917.99	0.55
313.15	10000	921.97	0.55
313.15	15000	925.87	0.56
313.15	20000	929.71	0.56
313.15	25000	933.48	0.57
313.15	30000	937.2	0.57
313.15	35000	940.87	0.57

System: 2-(dimethylamino)ethyl methylpropenoate + methanol; phases: Liquid
Property: Mass density, kg/m3 (Liquid); method: Vibrating tube method
Temperature, K	Pressure, kPa	Mole fraction of 2-(dimethylamino)ethyl methylpropenoate	Mass density, kg/m3	uncertainty
293.15	100	0.0227	806.56	0.51
293.15	100	0.0807	837.79	0.51
293.15	100	0.1196	853.33	0.51
293.15	100	0.2003	877.11	0.51
293.15	100	0.3189	898.63	0.51
293.15	100	0.4003	908.22	0.51
293.15	100	0.4502	912.84	0.51
293.15	100	0.4914	916.03	0.51
293.15	100	0.5451	919.46	0.51
293.15	100	0.6446	924.39	0.52
293.15	100	0.6899	926.07	0.52
293.15	100	0.8265	930.1	0.53
293.15	100	0.8957	931.56	0.53
293.15	100	0.9213	931.89	0.53
293.15	100	0.977	932.63	0.54
293.15	5000	0.0227	811.24	0.52
293.15	5000	0.0807	842.2	0.52
293.15	5000	0.1196	857.5	0.51
293.15	5000	0.2003	881.14	0.51
293.15	5000	0.3189	902.57	0.51
293.15	5000	0.4003	912.08	0.51
293.15	5000	0.4502	916.76	0.51
293.15	5000	0.4914	919.88	0.51
293.15	5000	0.5451	923.35	0.52
293.15	5000	0.6446	928.12	0.52
293.15	5000	0.6899	929.92	0.52
293.15	5000	0.8265	933.94	0.53
293.15	5000	0.8957	935.27	0.54
293.15	5000	0.9213	935.76	0.54
293.15	5000	0.977	936.53	0.54
293.15	10000	0.0227	815.62	0.53
293.15	10000	0.0807	846.3	0.52
293.15	10000	0.1196	861.44	0.52
293.15	10000	0.2003	884.9	0.52
293.15	10000	0.3189	906.24	0.52
293.15	10000	0.4003	915.72	0.52
293.15	10000	0.4502	920.42	0.52
293.15	10000	0.4914	923.47	0.52
293.15	10000	0.5451	926.95	0.52
293.15	10000	0.6446	931.65	0.52
293.15	10000	0.6899	933.48	0.52
293.15	10000	0.8265	937.53	0.53
293.15	10000	0.8957	938.82	0.54
293.15	10000	0.9213	939.37	0.54
293.15	10000	0.977	940.13	0.55
293.15	15000	0.0227	819.73	0.54
293.15	15000	0.0807	850.16	0.53
293.15	15000	0.1196	865.18	0.52
293.15	15000	0.2003	888.45	0.52
293.15	15000	0.3189	909.71	0.52
293.15	15000	0.4003	919.18	0.52
293.15	15000	0.4502	923.87	0.52
293.15	15000	0.4914	926.87	0.52
293.15	15000	0.5451	930.34	0.52
293.15	15000	0.6446	935.02	0.53
293.15	15000	0.6899	936.82	0.53
293.15	15000	0.8265	940.91	0.54
293.15	15000	0.8957	942.24	0.54
293.15	15000	0.9213	942.76	0.55
293.15	15000	0.977	943.52	0.55
293.15	20000	0.0227	823.64	0.55
293.15	20000	0.0807	853.82	0.54
293.15	20000	0.1196	868.77	0.53
293.15	20000	0.2003	891.85	0.53
293.15	20000	0.3189	913.03	0.52
293.15	20000	0.4003	922.49	0.52
293.15	20000	0.4502	927.16	0.52
293.15	20000	0.4914	930.13	0.52
293.15	20000	0.5451	933.58	0.52
293.15	20000	0.6446	938.27	0.53
293.15	20000	0.6899	940.01	0.53
293.15	20000	0.8265	944.15	0.54
293.15	20000	0.8957	945.55	0.55
293.15	20000	0.9213	946.01	0.55
293.15	20000	0.977	946.76	0.55
293.15	25000	0.0227	827.39	0.56
293.15	25000	0.0807	857.37	0.54
293.15	25000	0.1196	872.24	0.54
293.15	25000	0.2003	895.18	0.53
293.15	25000	0.3189	916.26	0.53
293.15	25000	0.4003	925.73	0.53
293.15	25000	0.4502	930.33	0.53
293.15	25000	0.4914	933.31	0.53
293.15	25000	0.5451	936.74	0.53
293.15	25000	0.6446	941.45	0.53
293.15	25000	0.6899	943.12	0.53
293.15	25000	0.8265	947.29	0.54
293.15	25000	0.8957	948.77	0.55
293.15	25000	0.9213	949.17	0.55
293.15	25000	0.977	949.92	0.56
293.15	30000	0.0227	831.04	0.57
293.15	30000	0.0807	860.86	0.55
293.15	30000	0.1196	875.62	0.54
293.15	30000	0.2003	898.5	0.53
293.15	30000	0.3189	919.46	0.53
293.15	30000	0.4003	928.92	0.53
293.15	30000	0.4502	933.44	0.53
293.15	30000	0.4914	936.47	0.53
293.15	30000	0.5451	939.88	0.53
293.15	30000	0.6446	944.62	0.53
293.15	30000	0.6899	946.23	0.53
293.15	30000	0.8265	950.41	0.54
293.15	30000	0.8957	951.92	0.55
293.15	30000	0.9213	952.32	0.55
293.15	30000	0.977	953.08	0.56
293.15	35000	0.0227	834.64	0.58
293.15	35000	0.0807	864.36	0.56
293.15	35000	0.1196	878.97	0.55
293.15	35000	0.2003	901.87	0.54
293.15	35000	0.3189	922.7	0.53
293.15	35000	0.4003	932.12	0.53
293.15	35000	0.4502	936.53	0.53
293.15	35000	0.4914	939.66	0.53
293.15	35000	0.5451	943.07	0.53
293.15	35000	0.6446	947.8	0.53
293.15	35000	0.6899	949.4	0.54
293.15	35000	0.8265	953.56	0.55
293.15	35000	0.8957	955.03	0.55
293.15	35000	0.9213	955.5	0.56
293.15	35000	0.977	956.32	0.56
303.15	100	0.0301	802.01	0.51
303.15	100	0.0604	818.68	0.51
303.15	100	0.1003	836.41	0.51
303.15	100	0.1894	864.5	0.51
303.15	100	0.3009	886	0.51
303.15	100	0.4011	898.17	0.51
303.15	100	0.4497	902.64	0.51
303.15	100	0.5004	906.39	0.51
303.15	100	0.5484	909.57	0.51
303.15	100	0.6026	912.38	0.52
303.15	100	0.701	916.45	0.52
303.15	100	0.7881	919.15	0.52
303.15	100	0.897	921.41	0.53
303.15	100	0.9286	922.08	0.54
303.15	100	0.961	922.67	0.54
303.15	5000	0.0301	806.85	0.52
303.15	5000	0.0604	823.37	0.52
303.15	5000	0.1003	840.87	0.52
303.15	5000	0.1894	868.73	0.51
303.15	5000	0.3009	890.03	0.51
303.15	5000	0.4011	902.15	0.51
303.15	5000	0.4497	906.61	0.52
303.15	5000	0.5004	910.32	0.52
303.15	5000	0.5484	913.52	0.52
303.15	5000	0.6026	916.33	0.52
303.15	5000	0.701	920.39	0.52
303.15	5000	0.7881	923.04	0.53
303.15	5000	0.897	925.26	0.54
303.15	5000	0.9286	926.03	0.54
303.15	5000	0.961	926.57	0.54
303.15	10000	0.0301	811.37	0.53
303.15	10000	0.0604	827.77	0.52
303.15	10000	0.1003	845.1	0.52
303.15	10000	0.1894	872.74	0.52
303.15	10000	0.3009	893.92	0.52
303.15	10000	0.4011	905.98	0.52
303.15	10000	0.4497	910.42	0.52
303.15	10000	0.5004	914.1	0.52
303.15	10000	0.5484	917.31	0.52
303.15	10000	0.6026	920.1	0.52
303.15	10000	0.701	924.17	0.53
303.15	10000	0.7881	926.8	0.53
303.15	10000	0.897	929.01	0.54
303.15	10000	0.9286	929.81	0.54
303.15	10000	0.961	930.33	0.55
303.15	15000	0.0301	815.62	0.54
303.15	15000	0.0604	831.91	0.53
303.15	15000	0.1003	849.12	0.53
303.15	15000	0.1894	876.58	0.52
303.15	15000	0.3009	897.69	0.52
303.15	15000	0.4011	909.67	0.52
303.15	15000	0.4497	914.09	0.52
303.15	15000	0.5004	917.76	0.52
303.15	15000	0.5484	920.96	0.52
303.15	15000	0.6026	923.74	0.53
303.15	15000	0.701	927.81	0.53
303.15	15000	0.7881	930.44	0.54
303.15	15000	0.897	932.67	0.55
303.15	15000	0.9286	933.47	0.55
303.15	15000	0.961	933.98	0.55
303.15	20000	0.0301	819.63	0.55
303.15	20000	0.0604	835.85	0.54
303.15	20000	0.1003	852.97	0.54
303.15	20000	0.1894	880.26	0.53
303.15	20000	0.3009	901.34	0.53
303.15	20000	0.4011	913.27	0.53
303.15	20000	0.4497	917.65	0.52
303.15	20000	0.5004	921.33	0.53
303.15	20000	0.5484	924.51	0.53
303.15	20000	0.6026	927.27	0.53
303.15	20000	0.701	931.36	0.53
303.15	20000	0.7881	934.01	0.54
303.15	20000	0.897	936.24	0.55
303.15	20000	0.9286	937.03	0.55
303.15	20000	0.961	937.54	0.56
303.15	25000	0.0301	823.45	0.56
303.15	25000	0.0604	839.61	0.55
303.15	25000	0.1003	856.67	0.54
303.15	25000	0.1894	883.85	0.53
303.15	25000	0.3009	904.9	0.53
303.15	25000	0.4011	916.78	0.53
303.15	25000	0.4497	921.14	0.53
303.15	25000	0.5004	924.83	0.53
303.15	25000	0.5484	928	0.53
303.15	25000	0.6026	930.75	0.53
303.15	25000	0.701	934.84	0.54
303.15	25000	0.7881	937.52	0.54
303.15	25000	0.897	939.76	0.55
303.15	25000	0.9286	940.52	0.56
303.15	25000	0.961	941.04	0.56
303.15	30000	0.0301	827.13	0.57
303.15	30000	0.0604	843.23	0.56
303.15	30000	0.1003	860.27	0.55
303.15	30000	0.1894	887.36	0.54
303.15	30000	0.3009	908.38	0.53
303.15	30000	0.4011	920.23	0.53
303.15	30000	0.4497	924.58	0.53
303.15	30000	0.5004	928.29	0.53
303.15	30000	0.5484	931.44	0.53
303.15	30000	0.6026	934.2	0.53
303.15	30000	0.701	938.28	0.54
303.15	30000	0.7881	941.01	0.55
303.15	30000	0.897	943.23	0.56
303.15	30000	0.9286	943.99	0.56
303.15	30000	0.961	944.51	0.56
303.15	35000	0.0301	830.7	0.58
303.15	35000	0.0604	846.75	0.57
303.15	35000	0.1003	863.78	0.56
303.15	35000	0.1894	890.85	0.55
303.15	35000	0.3009	911.78	0.54
303.15	35000	0.4011	923.64	0.53
303.15	35000	0.4497	928.02	0.53
303.15	35000	0.5004	931.73	0.53
303.15	35000	0.5484	934.88	0.53
303.15	35000	0.6026	937.68	0.54
303.15	35000	0.701	941.72	0.54
303.15	35000	0.7881	944.48	0.55
303.15	35000	0.897	946.67	0.56
303.15	35000	0.9286	947.48	0.56
303.15	35000	0.961	947.99	0.56
313.15	100	0.0303	792.52	0.51
313.15	100	0.0601	808.67	0.51
313.15	100	0.1002	826.53	0.51
313.15	100	0.2005	857.05	0.51
313.15	100	0.3009	876.08	0.51
313.15	100	0.4008	888.55	0.51
313.15	100	0.4516	893.1	0.51
313.15	100	0.49	896.14	0.51
313.15	100	0.552	900.13	0.51
313.15	100	0.5881	902.29	0.52
313.15	100	0.7048	907.14	0.52
313.15	100	0.8042	910.23	0.53
313.15	100	0.8998	912.3	0.53
313.15	100	0.9373	913.06	0.54
313.15	100	0.9651	913.5	0.54
313.15	5000	0.0303	797.34	0.52
313.15	5000	0.0601	813.36	0.52
313.15	5000	0.1002	831.11	0.52
313.15	5000	0.2005	861.4	0.52
313.15	5000	0.3009	880.25	0.52
313.15	5000	0.4008	892.6	0.52
313.15	5000	0.4516	897.1	0.52
313.15	5000	0.49	900.12	0.52
313.15	5000	0.552	904.12	0.52
313.15	5000	0.5881	906.26	0.52
313.15	5000	0.7048	911.12	0.52
313.15	5000	0.8042	914.21	0.53
313.15	5000	0.8998	916.37	0.54
313.15	5000	0.9373	917.05	0.54
313.15	5000	0.9651	917.5	0.54
313.15	10000	0.0303	802.01	0.53
313.15	10000	0.0601	817.9	0.53
313.15	10000	0.1002	835.57	0.52
313.15	10000	0.2005	865.62	0.52
313.15	10000	0.3009	884.34	0.52
313.15	10000	0.4008	896.62	0.52
313.15	10000	0.4516	901.09	0.52
313.15	10000	0.49	904.09	0.52
313.15	10000	0.552	908.1	0.52
313.15	10000	0.5881	910.2	0.52
313.15	10000	0.7048	915.08	0.53
313.15	10000	0.8042	918.18	0.54
313.15	10000	0.8998	920.38	0.54
313.15	10000	0.9373	921	0.55
313.15	10000	0.9651	921.47	0.55
313.15	15000	0.0303	806.47	0.54
313.15	15000	0.0601	822.24	0.54
313.15	15000	0.1002	839.84	0.53
313.15	15000	0.2005	869.66	0.53
313.15	15000	0.3009	888.29	0.52
313.15	15000	0.4008	900.51	0.52
313.15	15000	0.4516	904.98	0.52
313.15	15000	0.49	907.97	0.52
313.15	15000	0.552	911.97	0.53
313.15	15000	0.5881	914.04	0.53
313.15	15000	0.7048	918.92	0.53
313.15	15000	0.8042	922.04	0.54
313.15	15000	0.8998	924.25	0.55
313.15	15000	0.9373	924.83	0.55
313.15	15000	0.9651	925.34	0.55
313.15	20000	0.0303	810.73	0.55
313.15	20000	0.0601	826.41	0.55
313.15	20000	0.1002	843.93	0.54
313.15	20000	0.2005	873.55	0.53
313.15	20000	0.3009	892.1	0.53
313.15	20000	0.4008	904.28	0.53
313.15	20000	0.4516	908.76	0.53
313.15	20000	0.49	911.73	0.53
313.15	20000	0.552	915.72	0.53
313.15	20000	0.5881	917.76	0.53
313.15	20000	0.7048	922.65	0.54
313.15	20000	0.8042	925.78	0.54
313.15	20000	0.8998	927.99	0.55
313.15	20000	0.9373	928.56	0.56
313.15	20000	0.9651	929.11	0.56
313.15	25000	0.0303	814.85	0.56
313.15	25000	0.0601	830.42	0.56
313.15	25000	0.1002	847.86	0.55
313.15	25000	0.2005	877.31	0.54
313.15	25000	0.3009	895.78	0.53
313.15	25000	0.4008	907.92	0.53
313.15	25000	0.4516	912.41	0.53
313.15	25000	0.49	915.36	0.53
313.15	25000	0.552	919.34	0.53
313.15	25000	0.5881	921.35	0.53
313.15	25000	0.7048	926.25	0.54
313.15	25000	0.8042	929.4	0.55
313.15	25000	0.8998	931.6	0.56
313.15	25000	0.9373	932.18	0.56
313.15	25000	0.9651	932.78	0.56
313.15	30000	0.0303	818.84	0.58
313.15	30000	0.0601	834.31	0.57
313.15	30000	0.1002	851.66	0.56
313.15	30000	0.2005	880.98	0.54
313.15	30000	0.3009	899.34	0.54
313.15	30000	0.4008	911.43	0.54
313.15	30000	0.4516	915.91	0.54
313.15	30000	0.49	918.87	0.54
313.15	30000	0.552	922.83	0.54
313.15	30000	0.5881	924.82	0.54
313.15	30000	0.7048	929.72	0.54
313.15	30000	0.8042	932.87	0.55
313.15	30000	0.8998	935.1	0.56
313.15	30000	0.9373	935.71	0.56
313.15	30000	0.9651	936.35	0.57
313.15	35000	0.0303	822.75	0.59
313.15	35000	0.0601	838.11	0.58
313.15	35000	0.1002	855.32	0.57
313.15	35000	0.2005	884.59	0.55
313.15	35000	0.3009	902.8	0.54
313.15	35000	0.4008	914.81	0.54
313.15	35000	0.4516	919.27	0.54
313.15	35000	0.49	922.22	0.54
313.15	35000	0.552	926.18	0.54
313.15	35000	0.5881	928.16	0.54
313.15	35000	0.7048	933.06	0.55
313.15	35000	0.8042	936.18	0.55
313.15	35000	0.8998	938.49	0.56
313.15	35000	0.9373	939.17	0.57
313.15	35000	0.9651	939.83	0.57

System: 2-(dimethylamino)ethyl methylpropenoate + ethanol; phases: Liquid
Property: Mass density, kg/m3 (Liquid); method: Vibrating tube method
Temperature, K	Pressure, kPa	Mole fraction of 2-(dimethylamino)ethyl methylpropenoate	Mass density, kg/m3	uncertainty
293.15	100	0.0298	802.7	0.51
293.15	100	0.0598	814.88	0.51
293.15	100	0.0999	829.26	0.51
293.15	100	0.1997	856.9	0.51
293.15	100	0.3001	876.95	0.51
293.15	100	0.3966	891.39	0.51
293.15	100	0.4472	897.49	0.51
293.15	100	0.4982	902.96	0.51
293.15	100	0.55	907.68	0.51
293.15	100	0.5964	911.67	0.52
293.15	100	0.6982	918.77	0.52
293.15	100	0.801	924.6	0.53
293.15	100	0.8977	929.03	0.53
293.15	100	0.9283	930.22	0.54
293.15	100	0.9578	931.42	0.54
293.15	5000	0.0298	807.13	0.52
293.15	5000	0.0598	819.12	0.52
293.15	5000	0.0999	833.46	0.52
293.15	5000	0.1997	861.05	0.52
293.15	5000	0.3001	880.93	0.52
293.15	5000	0.3966	895.28	0.52
293.15	5000	0.4472	901.33	0.52
293.15	5000	0.4982	906.87	0.52
293.15	5000	0.55	911.66	0.52
293.15	5000	0.5964	915.5	0.52
293.15	5000	0.6982	922.55	0.52
293.15	5000	0.801	928.44	0.53
293.15	5000	0.8977	932.82	0.54
293.15	5000	0.9283	934.07	0.54
293.15	5000	0.9578	935.21	0.54
293.15	10000	0.0298	811.22	0.53
293.15	10000	0.0598	823.12	0.52
293.15	10000	0.0999	837.4	0.52
293.15	10000	0.1997	864.9	0.52
293.15	10000	0.3001	884.66	0.52
293.15	10000	0.3966	898.93	0.52
293.15	10000	0.4472	904.98	0.52
293.15	10000	0.4982	910.51	0.52
293.15	10000	0.55	915.32	0.52
293.15	10000	0.5964	919.12	0.52
293.15	10000	0.6982	926.15	0.53
293.15	10000	0.801	932.04	0.53
293.15	10000	0.8977	936.35	0.54
293.15	10000	0.9283	937.67	0.54
293.15	10000	0.9578	938.78	0.55
293.15	15000	0.0298	815.04	0.54
293.15	15000	0.0598	826.9	0.53
293.15	15000	0.0999	841.12	0.53
293.15	15000	0.1997	868.5	0.53
293.15	15000	0.3001	888.19	0.52
293.15	15000	0.3966	902.38	0.52
293.15	15000	0.4472	908.47	0.52
293.15	15000	0.4982	913.95	0.52
293.15	15000	0.55	918.74	0.53
293.15	15000	0.5964	922.56	0.53
293.15	15000	0.6982	929.6	0.53
293.15	15000	0.801	935.46	0.54
293.15	15000	0.8977	939.69	0.54
293.15	15000	0.9283	941.06	0.55
293.15	15000	0.9578	942.2	0.55
293.15	20000	0.0298	818.66	0.55
293.15	20000	0.0598	830.51	0.54
293.15	20000	0.0999	844.67	0.54
293.15	20000	0.1997	871.93	0.53
293.15	20000	0.3001	891.58	0.53
293.15	20000	0.3966	905.7	0.53
293.15	20000	0.4472	911.83	0.53
293.15	20000	0.4982	917.24	0.53
293.15	20000	0.55	921.98	0.53
293.15	20000	0.5964	925.87	0.53
293.15	20000	0.6982	932.93	0.53
293.15	20000	0.801	938.75	0.54
293.15	20000	0.8977	942.92	0.55
293.15	20000	0.9283	944.32	0.55
293.15	20000	0.9578	945.49	0.55
293.15	25000	0.0298	822.14	0.56
293.15	25000	0.0598	834	0.55
293.15	25000	0.0999	848.1	0.55
293.15	25000	0.1997	875.24	0.54
293.15	25000	0.3001	894.86	0.53
293.15	25000	0.3966	908.93	0.53
293.15	25000	0.4472	915.1	0.53
293.15	25000	0.4982	920.43	0.53
293.15	25000	0.55	925.14	0.53
293.15	25000	0.5964	929.09	0.53
293.15	25000	0.6982	936.16	0.54
293.15	25000	0.801	941.94	0.54
293.15	25000	0.8977	946.09	0.55
293.15	25000	0.9283	947.48	0.55
293.15	25000	0.9578	948.71	0.56
293.15	30000	0.0298	825.55	0.57
293.15	30000	0.0598	837.41	0.56
293.15	30000	0.0999	851.44	0.56
293.15	30000	0.1997	878.49	0.54
293.15	30000	0.3001	898.09	0.54
293.15	30000	0.3966	912.15	0.54
293.15	30000	0.4472	918.3	0.53
293.15	30000	0.4982	923.58	0.53
293.15	30000	0.55	928.28	0.53
293.15	30000	0.5964	932.25	0.54
293.15	30000	0.6982	939.33	0.54
293.15	30000	0.801	945.09	0.54
293.15	30000	0.8977	949.28	0.55
293.15	30000	0.9283	950.62	0.56
293.15	30000	0.9578	951.88	0.56
293.15	35000	0.0298	828.95	0.58
293.15	35000	0.0598	840.78	0.58
293.15	35000	0.0999	854.75	0.57
293.15	35000	0.1997	881.75	0.55
293.15	35000	0.3001	901.32	0.54
293.15	35000	0.3966	915.39	0.54
293.15	35000	0.4472	921.47	0.54
293.15	35000	0.4982	926.74	0.54
293.15	35000	0.55	931.5	0.54
293.15	35000	0.5964	935.39	0.54
293.15	35000	0.6982	942.44	0.54
293.15	35000	0.801	948.24	0.55
293.15	35000	0.8977	952.57	0.55
293.15	35000	0.9283	953.79	0.56
293.15	35000	0.9578	955.05	0.56
303.15	100	0.03	794.45	0.51
303.15	100	0.0603	806.55	0.51
303.15	100	0.1002	820.45	0.51
303.15	100	0.2021	848.13	0.51
303.15	100	0.3014	867.56	0.51
303.15	100	0.4003	882.15	0.51
303.15	100	0.4499	888.16	0.51
303.15	100	0.5006	893.42	0.51
303.15	100	0.5488	897.81	0.52
303.15	100	0.5998	902.09	0.52
303.15	100	0.703	909.18	0.52
303.15	100	0.8012	914.76	0.53
303.15	100	0.9025	919.51	0.53
303.15	100	0.9288	920.51	0.54
303.15	100	0.9594	921.58	0.54
303.15	5000	0.03	798.97	0.52
303.15	5000	0.0603	811.05	0.52
303.15	5000	0.1002	824.89	0.52
303.15	5000	0.2021	852.39	0.52
303.15	5000	0.3014	871.73	0.52
303.15	5000	0.4003	886.21	0.52
303.15	5000	0.4499	892.11	0.52
303.15	5000	0.5006	897.42	0.52
303.15	5000	0.5488	901.82	0.52
303.15	5000	0.5998	906.13	0.52
303.15	5000	0.703	913.16	0.52
303.15	5000	0.8012	918.73	0.53
303.15	5000	0.9025	923.46	0.54
303.15	5000	0.9288	924.41	0.54
303.15	5000	0.9594	925.48	0.54
303.15	10000	0.03	803.18	0.53
303.15	10000	0.0603	815.24	0.53
303.15	10000	0.1002	829.01	0.52
303.15	10000	0.2021	856.38	0.52
303.15	10000	0.3014	875.66	0.52
303.15	10000	0.4003	890.08	0.52
303.15	10000	0.4499	895.91	0.52
303.15	10000	0.5006	901.25	0.52
303.15	10000	0.5488	905.64	0.52
303.15	10000	0.5998	909.95	0.52
303.15	10000	0.703	916.96	0.53
303.15	10000	0.8012	922.51	0.53
303.15	10000	0.9025	927.24	0.54
303.15	10000	0.9288	928.15	0.54
303.15	10000	0.9594	929.24	0.55
303.15	15000	0.03	807.13	0.54
303.15	15000	0.0603	819.16	0.54
303.15	15000	0.1002	832.87	0.53
303.15	15000	0.2021	860.15	0.53
303.15	15000	0.3014	879.39	0.53
303.15	15000	0.4003	893.8	0.53
303.15	15000	0.4499	899.59	0.53
303.15	15000	0.5006	904.92	0.53
303.15	15000	0.5488	909.31	0.53
303.15	15000	0.5998	913.6	0.53
303.15	15000	0.703	920.63	0.53
303.15	15000	0.8012	926.15	0.54
303.15	15000	0.9025	930.9	0.55
303.15	15000	0.9288	931.75	0.55
303.15	15000	0.9594	932.89	0.55
303.15	20000	0.03	810.87	0.55
303.15	20000	0.0603	822.87	0.55
303.15	20000	0.1002	836.53	0.54
303.15	20000	0.2021	863.75	0.54
303.15	20000	0.3014	882.96	0.53
303.15	20000	0.4003	897.38	0.53
303.15	20000	0.4499	903.17	0.53
303.15	20000	0.5006	908.47	0.53
303.15	20000	0.5488	912.87	0.53
303.15	20000	0.5998	917.13	0.53
303.15	20000	0.703	924.18	0.54
303.15	20000	0.8012	929.69	0.54
303.15	20000	0.9025	934.45	0.55
303.15	20000	0.9288	935.26	0.55
303.15	20000	0.9594	936.45	0.56
303.15	25000	0.03	814.43	0.56
303.15	25000	0.0603	826.4	0.56
303.15	25000	0.1002	840.03	0.55
303.15	25000	0.2021	867.22	0.54
303.15	25000	0.3014	886.41	0.54
303.15	25000	0.4003	900.86	0.54
303.15	25000	0.4499	906.65	0.53
303.15	25000	0.5006	911.94	0.53
303.15	25000	0.5488	916.34	0.53
303.15	25000	0.5998	920.59	0.54
303.15	25000	0.703	927.67	0.54
303.15	25000	0.8012	933.18	0.55
303.15	25000	0.9025	937.94	0.55
303.15	25000	0.9288	938.73	0.56
303.15	25000	0.9594	939.94	0.56
303.15	30000	0.03	817.87	0.58
303.15	30000	0.0603	829.79	0.57
303.15	30000	0.1002	843.44	0.56
303.15	30000	0.2021	870.62	0.55
303.15	30000	0.3014	889.8	0.54
303.15	30000	0.4003	904.27	0.54
303.15	30000	0.4499	910.06	0.54
303.15	30000	0.5006	915.35	0.54
303.15	30000	0.5488	919.76	0.54
303.15	30000	0.5998	924.04	0.54
303.15	30000	0.703	931.11	0.54
303.15	30000	0.8012	936.65	0.55
303.15	30000	0.9025	941.4	0.56
303.15	30000	0.9288	942.19	0.56
303.15	30000	0.9594	943.39	0.56
303.15	35000	0.03	821.22	0.59
303.15	35000	0.0603	833.08	0.58
303.15	35000	0.1002	846.8	0.57
303.15	35000	0.2021	873.98	0.56
303.15	35000	0.3014	893.16	0.55
303.15	35000	0.4003	907.64	0.54
303.15	35000	0.4499	913.41	0.54
303.15	35000	0.5006	918.74	0.54
303.15	35000	0.5488	923.18	0.54
303.15	35000	0.5998	927.53	0.54
303.15	35000	0.703	934.54	0.55
303.15	35000	0.8012	940.15	0.55
303.15	35000	0.9025	944.86	0.56
303.15	35000	0.9288	945.69	0.56
303.15	35000	0.9594	946.82	0.57
313.15	100	0.0301	785.54	0.51
313.15	100	0.0604	797.46	0.51
313.15	100	0.1009	811.29	0.51
313.15	100	0.2013	838.49	0.51
313.15	100	0.302	858.03	0.51
313.15	100	0.401	872.35	0.51
313.15	100	0.4507	878.39	0.51
313.15	100	0.4984	883.4	0.52
313.15	100	0.553	888.58	0.52
313.15	100	0.6053	892.9	0.52
313.15	100	0.7041	899.74	0.52
313.15	100	0.8027	905.5	0.53
313.15	100	0.9016	910.19	0.53
313.15	100	0.9342	911.48	0.54
313.15	100	0.9607	912.61	0.54
313.15	5000	0.0301	790.39	0.52
313.15	5000	0.0604	802.1	0.52
313.15	5000	0.1009	815.85	0.52
313.15	5000	0.2013	842.83	0.52
313.15	5000	0.302	862.37	0.52
313.15	5000	0.401	876.61	0.52
313.15	5000	0.4507	882.61	0.52
313.15	5000	0.4984	887.63	0.52
313.15	5000	0.553	892.77	0.52
313.15	5000	0.6053	897.11	0.52
313.15	5000	0.7041	903.88	0.53
313.15	5000	0.8027	909.63	0.53
313.15	5000	0.9016	914.28	0.54
313.15	5000	0.9342	915.6	0.54
313.15	5000	0.9607	916.71	0.54
313.15	10000	0.0301	794.86	0.53
313.15	10000	0.0604	806.49	0.53
313.15	10000	0.1009	820.14	0.53
313.15	10000	0.2013	846.98	0.52
313.15	10000	0.302	866.49	0.52
313.15	10000	0.401	880.69	0.52
313.15	10000	0.4507	886.65	0.52
313.15	10000	0.4984	891.71	0.52
313.15	10000	0.553	896.81	0.52
313.15	10000	0.6053	901.15	0.53
313.15	10000	0.7041	907.89	0.53
313.15	10000	0.8027	913.65	0.54
313.15	10000	0.9016	918.27	0.54
313.15	10000	0.9342	919.6	0.55
313.15	10000	0.9607	920.71	0.55
313.15	15000	0.0301	799.04	0.54
313.15	15000	0.0604	810.66	0.54
313.15	15000	0.1009	824.2	0.54
313.15	15000	0.2013	850.95	0.53
313.15	15000	0.302	870.43	0.53
313.15	15000	0.401	884.61	0.53
313.15	15000	0.4507	890.55	0.53
313.15	15000	0.4984	895.63	0.53
313.15	15000	0.553	900.7	0.53
313.15	15000	0.6053	905.03	0.53
313.15	15000	0.7041	911.79	0.53
313.15	15000	0.8027	917.54	0.54
313.15	15000	0.9016	922.15	0.55
313.15	15000	0.9342	923.48	0.55
313.15	15000	0.9607	924.61	0.55
313.15	20000	0.0301	802.99	0.55
313.15	20000	0.0604	814.64	0.55
313.15	20000	0.1009	828.09	0.55
313.15	20000	0.2013	854.76	0.54
313.15	20000	0.302	874.22	0.53
313.15	20000	0.401	888.4	0.53
313.15	20000	0.4507	894.31	0.53
313.15	20000	0.4984	899.4	0.53
313.15	20000	0.553	904.45	0.53
313.15	20000	0.6053	908.77	0.53
313.15	20000	0.7041	915.55	0.54
313.15	20000	0.8027	921.29	0.54
313.15	20000	0.9016	925.92	0.55
313.15	20000	0.9342	927.25	0.56
313.15	20000	0.9607	928.4	0.56
313.15	25000	0.0301	806.8	0.57
313.15	25000	0.0604	818.45	0.56
313.15	25000	0.1009	831.85	0.56
313.15	25000	0.2013	858.45	0.55
313.15	25000	0.302	877.88	0.54
313.15	25000	0.401	892.06	0.54
313.15	25000	0.4507	897.94	0.54
313.15	25000	0.4984	903.03	0.54
313.15	25000	0.553	908.07	0.54
313.15	25000	0.6053	912.39	0.54
313.15	25000	0.7041	919.19	0.54
313.15	25000	0.8027	924.91	0.55
313.15	25000	0.9016	929.56	0.56
313.15	25000	0.9342	930.89	0.56
313.15	25000	0.9607	932.04	0.56
313.15	30000	0.0301	810.55	0.58
313.15	30000	0.0604	822.15	0.58
313.15	30000	0.1009	835.51	0.57
313.15	30000	0.2013	862.02	0.55
313.15	30000	0.302	881.45	0.55
313.15	30000	0.401	895.62	0.54
313.15	30000	0.4507	901.47	0.54
313.15	30000	0.4984	906.52	0.54
313.15	30000	0.553	911.57	0.54
313.15	30000	0.6053	915.89	0.54
313.15	30000	0.7041	922.7	0.55
313.15	30000	0.8027	928.37	0.55
313.15	30000	0.9016	933.08	0.56
313.15	30000	0.9342	934.42	0.56
313.15	30000	0.9607	935.54	0.57
313.15	35000	0.0301	814.3	0.6
313.15	35000	0.0604	825.75	0.59
313.15	35000	0.1009	839.13	0.58
313.15	35000	0.2013	865.49	0.56
313.15	35000	0.302	884.95	0.55
313.15	35000	0.401	899.08	0.55
313.15	35000	0.4507	904.89	0.55
313.15	35000	0.4984	909.87	0.55
313.15	35000	0.553	914.96	0.55
313.15	35000	0.6053	919.29	0.55
313.15	35000	0.7041	926.09	0.55
313.15	35000	0.8027	931.68	0.56
313.15	35000	0.9016	936.46	0.56
313.15	35000	0.9342	937.83	0.57
313.15	35000	0.9607	938.88	0.57

System: 2-(dimethylamino)ethyl methylpropenoate + propan-1-ol; phases: Liquid
Property: Mass density, kg/m3 (Liquid); method: Vibrating tube method
Temperature, K	Pressure, kPa	Mole fraction of 2-(dimethylamino)ethyl methylpropenoate	Mass density, kg/m3	uncertainty
293.15	100	0.03	813.1	0.52
293.15	100	0.0598	822.05	0.52
293.15	100	0.0998	832.86	0.52
293.15	100	0.1502	845.14	0.52
293.15	100	0.2003	855.86	0.52
293.15	100	0.2502	865.17	0.52
293.15	100	0.3013	873.68	0.52
293.15	100	0.3992	887.54	0.52
293.15	100	0.4482	893.36	0.52
293.15	100	0.4998	898.97	0.52
293.15	100	0.5509	903.96	0.52
293.15	100	0.5986	908.27	0.53
293.15	100	0.699	916.1	0.53
293.15	100	0.7994	922.7	0.53
293.15	100	0.8519	925.73	0.53
293.15	100	0.8992	928.25	0.54
293.15	100	0.9284	929.69	0.54
293.15	100	0.9587	931.16	0.54
293.15	5000	0.03	817.13	0.52
293.15	5000	0.0598	825.95	0.52
293.15	5000	0.0998	836.81	0.52
293.15	5000	0.1502	849.07	0.52
293.15	5000	0.2003	859.68	0.52
293.15	5000	0.2502	868.95	0.52
293.15	5000	0.3013	877.48	0.52
293.15	5000	0.3992	891.31	0.53
293.15	5000	0.4482	897.13	0.53
293.15	5000	0.4998	902.77	0.53
293.15	5000	0.5509	907.77	0.53
293.15	5000	0.5986	912.04	0.53
293.15	5000	0.699	919.83	0.53
293.15	5000	0.7994	926.51	0.54
293.15	5000	0.8519	929.5	0.54
293.15	5000	0.8992	931.98	0.54
293.15	5000	0.9284	933.42	0.54
293.15	5000	0.9587	934.9	0.54
293.15	10000	0.03	820.85	0.53
293.15	10000	0.0598	829.65	0.53
293.15	10000	0.0998	840.49	0.53
293.15	10000	0.1502	852.65	0.53
293.15	10000	0.2003	863.26	0.53
293.15	10000	0.2502	872.5	0.53
293.15	10000	0.3013	881.04	0.53
293.15	10000	0.3992	894.85	0.53
293.15	10000	0.4482	900.67	0.53
293.15	10000	0.4998	906.35	0.53
293.15	10000	0.5509	911.33	0.53
293.15	10000	0.5986	915.56	0.53
293.15	10000	0.699	923.35	0.54
293.15	10000	0.7994	930.05	0.54
293.15	10000	0.8519	933.03	0.54
293.15	10000	0.8992	935.56	0.55
293.15	10000	0.9284	936.97	0.55
293.15	10000	0.9587	938.45	0.55
293.15	15000	0.03	824.33	0.55
293.15	15000	0.0598	833.15	0.54
293.15	15000	0.0998	843.94	0.54
293.15	15000	0.1502	856.05	0.54
293.15	15000	0.2003	866.65	0.54
293.15	15000	0.2502	875.88	0.54
293.15	15000	0.3013	884.41	0.54
293.15	15000	0.3992	898.21	0.54
293.15	15000	0.4482	904.04	0.54
293.15	15000	0.4998	909.73	0.54
293.15	15000	0.5509	914.67	0.54
293.15	15000	0.5986	918.89	0.54
293.15	15000	0.699	926.69	0.54
293.15	15000	0.7994	933.38	0.54
293.15	15000	0.8519	936.39	0.55
293.15	15000	0.8992	938.89	0.55
293.15	15000	0.9284	940.36	0.55
293.15	15000	0.9587	941.84	0.55
293.15	20000	0.03	827.64	0.56
293.15	20000	0.0598	836.5	0.55
293.15	20000	0.0998	847.22	0.55
293.15	20000	0.1502	859.3	0.55
293.15	20000	0.2003	869.89	0.55
293.15	20000	0.2502	879.12	0.54
293.15	20000	0.3013	887.65	0.54
293.15	20000	0.3992	901.43	0.54
293.15	20000	0.4482	907.28	0.54
293.15	20000	0.4998	912.96	0.54
293.15	20000	0.5509	917.88	0.54
293.15	20000	0.5986	922.08	0.54
293.15	20000	0.699	929.91	0.55
293.15	20000	0.7994	936.55	0.55
293.15	20000	0.8519	939.61	0.55
293.15	20000	0.8992	942.14	0.55
293.15	20000	0.9284	943.63	0.55
293.15	20000	0.9587	945.11	0.56
293.15	25000	0.03	830.83	0.57
293.15	25000	0.0598	839.72	0.57
293.15	25000	0.0998	850.38	0.56
293.15	25000	0.1502	862.47	0.56
293.15	25000	0.2003	873.06	0.55
293.15	25000	0.2502	882.27	0.55
293.15	25000	0.3013	890.79	0.55
293.15	25000	0.3992	904.58	0.55
293.15	25000	0.4482	910.43	0.55
293.15	25000	0.4998	916.08	0.55
293.15	25000	0.5509	921	0.55
293.15	25000	0.5986	925.2	0.55
293.15	25000	0.699	933.05	0.55
293.15	25000	0.7994	939.65	0.55
293.15	25000	0.8519	942.75	0.55
293.15	25000	0.8992	945.3	0.56
293.15	25000	0.9284	946.83	0.56
293.15	25000	0.9587	948.29	0.56
293.15	30000	0.03	833.97	0.58
293.15	30000	0.0598	842.82	0.58
293.15	30000	0.0998	853.46	0.57
293.15	30000	0.1502	865.58	0.57
293.15	30000	0.2003	876.18	0.56
293.15	30000	0.2502	885.37	0.56
293.15	30000	0.3013	893.88	0.56
293.15	30000	0.3992	907.69	0.55
293.15	30000	0.4482	913.53	0.55
293.15	30000	0.4998	919.13	0.55
293.15	30000	0.5509	924.1	0.55
293.15	30000	0.5986	928.3	0.55
293.15	30000	0.699	936.14	0.55
293.15	30000	0.7994	942.73	0.55
293.15	30000	0.8519	945.87	0.56
293.15	30000	0.8992	948.43	0.56
293.15	30000	0.9284	949.98	0.56
293.15	30000	0.9587	951.43	0.56
293.15	35000	0.03	837.12	0.59
293.15	35000	0.0598	845.84	0.59
293.15	35000	0.0998	856.5	0.58
293.15	35000	0.1502	868.68	0.58
293.15	35000	0.2003	879.33	0.57
293.15	35000	0.2502	888.47	0.57
293.15	35000	0.3013	896.98	0.56
293.15	35000	0.3992	910.81	0.56
293.15	35000	0.4482	916.64	0.56
293.15	35000	0.4998	922.15	0.56
293.15	35000	0.5509	927.23	0.56
293.15	35000	0.5986	931.47	0.55
293.15	35000	0.699	939.24	0.56
293.15	35000	0.7994	945.86	0.56
293.15	35000	0.8519	949.02	0.56
293.15	35000	0.8992	951.54	0.56
293.15	35000	0.9284	953.12	0.56
293.15	35000	0.9587	954.55	0.56
303.15	100	0.0307	805.44	0.52
303.15	100	0.0599	813.96	0.52
303.15	100	0.1003	824.72	0.52
303.15	100	0.201	847.03	0.52
303.15	100	0.3004	864.34	0.52
303.15	100	0.4007	878.29	0.52
303.15	100	0.4507	884.12	0.52
303.15	100	0.4985	889.33	0.52
303.15	100	0.5535	894.64	0.53
303.15	100	0.5907	897.88	0.53
303.15	100	0.7009	906.35	0.53
303.15	100	0.8	912.95	0.53
303.15	100	0.9043	918.6	0.54
303.15	100	0.9269	919.6	0.54
303.15	100	0.9551	921.07	0.54
303.15	5000	0.0307	809.69	0.53
303.15	5000	0.0599	818.16	0.53
303.15	5000	0.1003	828.9	0.52
303.15	5000	0.201	851.16	0.53
303.15	5000	0.3004	868.29	0.53
303.15	5000	0.4007	882.23	0.53
303.15	5000	0.4507	888.05	0.53
303.15	5000	0.4985	893.25	0.53
303.15	5000	0.5535	898.56	0.53
303.15	5000	0.5907	901.87	0.53
303.15	5000	0.7009	910.27	0.53
303.15	5000	0.8	916.83	0.54
303.15	5000	0.9043	922.52	0.54
303.15	5000	0.9269	923.57	0.54
303.15	5000	0.9551	924.99	0.55
303.15	10000	0.0307	813.63	0.54
303.15	10000	0.0599	822.06	0.53
303.15	10000	0.1003	832.79	0.53
303.15	10000	0.201	854.99	0.53
303.15	10000	0.3004	872.06	0.53
303.15	10000	0.4007	885.98	0.53
303.15	10000	0.4507	891.79	0.53
303.15	10000	0.4985	896.99	0.54
303.15	10000	0.5535	902.3	0.54
303.15	10000	0.5907	905.63	0.54
303.15	10000	0.7009	914.01	0.54
303.15	10000	0.8	920.56	0.54
303.15	10000	0.9043	926.3	0.55
303.15	10000	0.9269	927.36	0.55
303.15	10000	0.9551	928.75	0.55
303.15	15000	0.0307	817.3	0.55
303.15	15000	0.0599	825.7	0.55
303.15	15000	0.1003	836.41	0.54
303.15	15000	0.201	858.56	0.54
303.15	15000	0.3004	875.68	0.54
303.15	15000	0.4007	889.57	0.54
303.15	15000	0.4507	895.39	0.54
303.15	15000	0.4985	900.58	0.54
303.15	15000	0.5535	905.89	0.54
303.15	15000	0.5907	909.22	0.54
303.15	15000	0.7009	917.6	0.54
303.15	15000	0.8	924.17	0.55
303.15	15000	0.9043	929.96	0.55
303.15	15000	0.9269	931	0.55
303.15	15000	0.9551	932.41	0.55
303.15	20000	0.0307	820.75	0.56
303.15	20000	0.0599	829.13	0.56
303.15	20000	0.1003	839.84	0.55
303.15	20000	0.201	861.95	0.55
303.15	20000	0.3004	879.16	0.55
303.15	20000	0.4007	893.03	0.55
303.15	20000	0.4507	898.86	0.55
303.15	20000	0.4985	904.06	0.55
303.15	20000	0.5535	909.38	0.55
303.15	20000	0.5907	912.68	0.55
303.15	20000	0.7009	921.09	0.55
303.15	20000	0.8	927.7	0.55
303.15	20000	0.9043	933.53	0.56
303.15	20000	0.9269	934.55	0.56
303.15	20000	0.9551	935.97	0.56
303.15	25000	0.0307	824.03	0.57
303.15	25000	0.0599	832.41	0.57
303.15	25000	0.1003	843.1	0.56
303.15	25000	0.201	865.23	0.56
303.15	25000	0.3004	882.5	0.55
303.15	25000	0.4007	896.41	0.55
303.15	25000	0.4507	902.25	0.55
303.15	25000	0.4985	907.45	0.55
303.15	25000	0.5535	912.79	0.55
303.15	25000	0.5907	916.07	0.55
303.15	25000	0.7009	924.52	0.55
303.15	25000	0.8	931.16	0.56
303.15	25000	0.9043	937.03	0.56
303.15	25000	0.9269	938.03	0.56
303.15	25000	0.9551	939.47	0.56
303.15	30000	0.0307	827.2	0.59
303.15	30000	0.0599	835.6	0.58
303.15	30000	0.1003	846.24	0.58
303.15	30000	0.201	868.44	0.57
303.15	30000	0.3004	885.74	0.56
303.15	30000	0.4007	899.73	0.56
303.15	30000	0.4507	905.59	0.56
303.15	30000	0.4985	910.79	0.56
303.15	30000	0.5535	916.16	0.56
303.15	30000	0.5907	919.43	0.56
303.15	30000	0.7009	927.94	0.56
303.15	30000	0.8	934.59	0.56
303.15	30000	0.9043	940.48	0.56
303.15	30000	0.9269	941.51	0.56
303.15	30000	0.9551	942.94	0.56
303.15	35000	0.0307	830.29	0.6
303.15	35000	0.0599	838.73	0.59
303.15	35000	0.1003	849.31	0.59
303.15	35000	0.201	871.66	0.58
303.15	35000	0.3004	888.87	0.57
303.15	35000	0.4007	903.03	0.56
303.15	35000	0.4507	908.92	0.56
303.15	35000	0.4985	914.12	0.56
303.15	35000	0.5535	919.52	0.56
303.15	35000	0.5907	922.81	0.56
303.15	35000	0.7009	931.39	0.56
303.15	35000	0.8	938.01	0.56
303.15	35000	0.9043	943.91	0.57
303.15	35000	0.9269	945.01	0.57
303.15	35000	0.9551	946.41	0.57
313.15	100	0.0303	797.13	0.52
313.15	100	0.0602	805.6	0.52
313.15	100	0.1007	816.21	0.52
313.15	100	0.2003	838.07	0.52
313.15	100	0.2989	854.98	0.52
313.15	100	0.4005	869.05	0.52
313.15	100	0.4513	875.07	0.52
313.15	100	0.5026	880.52	0.52
313.15	100	0.5521	885.29	0.53
313.15	100	0.6025	889.7	0.53
313.15	100	0.6976	897.07	0.53
313.15	100	0.8037	903.96	0.53
313.15	100	0.9043	909.46	0.54
313.15	100	0.933	910.82	0.54
313.15	100	0.9605	912.22	0.54
313.15	5000	0.0303	801.51	0.53
313.15	5000	0.0602	809.95	0.53
313.15	5000	0.1007	820.42	0.53
313.15	5000	0.2003	842.22	0.53
313.15	5000	0.2989	859.16	0.53
313.15	5000	0.4005	873.2	0.53
313.15	5000	0.4513	879.17	0.53
313.15	5000	0.5026	884.58	0.53
313.15	5000	0.5521	889.39	0.53
313.15	5000	0.6025	893.77	0.53
313.15	5000	0.6976	901.19	0.53
313.15	5000	0.8037	908.07	0.54
313.15	5000	0.9043	913.62	0.54
313.15	5000	0.933	914.96	0.54
313.15	5000	0.9605	916.36	0.55
313.15	10000	0.0303	805.58	0.54
313.15	10000	0.0602	814.02	0.54
313.15	10000	0.1007	824.41	0.54
313.15	10000	0.2003	846.16	0.53
313.15	10000	0.2989	863.14	0.53
313.15	10000	0.4005	877.16	0.54
313.15	10000	0.4513	883.11	0.54
313.15	10000	0.5026	888.5	0.54
313.15	10000	0.5521	893.33	0.54
313.15	10000	0.6025	897.71	0.54
313.15	10000	0.6976	905.15	0.54
313.15	10000	0.8037	912.04	0.54
313.15	10000	0.9043	917.61	0.55
313.15	10000	0.933	918.95	0.55
313.15	10000	0.9605	920.35	0.55
313.15	15000	0.0303	809.4	0.55
313.15	15000	0.0602	817.86	0.55
313.15	15000	0.1007	828.2	0.55
313.15	15000	0.2003	849.93	0.54
313.15	15000	0.2989	866.94	0.54
313.15	15000	0.4005	880.94	0.54
313.15	15000	0.4513	886.91	0.54
313.15	15000	0.5026	892.29	0.54
313.15	15000	0.5521	897.12	0.54
313.15	15000	0.6025	901.52	0.54
313.15	15000	0.6976	908.97	0.55
313.15	15000	0.8037	915.87	0.55
313.15	15000	0.9043	921.46	0.55
313.15	15000	0.933	922.81	0.56
313.15	15000	0.9605	924.21	0.56
313.15	20000	0.0303	813.02	0.56
313.15	20000	0.0602	821.5	0.56
313.15	20000	0.1007	831.83	0.56
313.15	20000	0.2003	853.55	0.55
313.15	20000	0.2989	870.58	0.55
313.15	20000	0.4005	884.58	0.55
313.15	20000	0.4513	890.57	0.55
313.15	20000	0.5026	895.96	0.55
313.15	20000	0.5521	900.78	0.55
313.15	20000	0.6025	905.22	0.55
313.15	20000	0.6976	912.65	0.55
313.15	20000	0.8037	919.56	0.55
313.15	20000	0.9043	925.17	0.56
313.15	20000	0.933	926.56	0.56
313.15	20000	0.9605	927.96	0.56
313.15	25000	0.0303	816.51	0.58
313.15	25000	0.0602	825	0.57
313.15	25000	0.1007	835.35	0.57
313.15	25000	0.2003	857.04	0.56
313.15	25000	0.2989	874.08	0.56
313.15	25000	0.4005	888.1	0.56
313.15	25000	0.4513	894.1	0.56
313.15	25000	0.5026	899.51	0.56
313.15	25000	0.5521	904.32	0.55
313.15	25000	0.6025	908.79	0.55
313.15	25000	0.6976	916.22	0.56
313.15	25000	0.8037	923.14	0.56
313.15	25000	0.9043	928.79	0.56
313.15	25000	0.933	930.22	0.56
313.15	25000	0.9605	931.63	0.57
313.15	30000	0.0303	819.93	0.59
313.15	30000	0.0602	828.39	0.59
313.15	30000	0.1007	838.78	0.58
313.15	30000	0.2003	860.44	0.57
313.15	30000	0.2989	877.48	0.57
313.15	30000	0.4005	891.52	0.56
313.15	30000	0.4513	897.51	0.56
313.15	30000	0.5026	902.95	0.56
313.15	30000	0.5521	907.74	0.56
313.15	30000	0.6025	912.25	0.56
313.15	30000	0.6976	919.67	0.56
313.15	30000	0.8037	926.61	0.56
313.15	30000	0.9043	932.32	0.57
313.15	30000	0.933	933.79	0.57
313.15	30000	0.9605	935.23	0.57
313.15	35000	0.0303	823.33	0.61
313.15	35000	0.0602	831.72	0.6
313.15	35000	0.1007	842.17	0.59
313.15	35000	0.2003	863.76	0.58
313.15	35000	0.2989	880.8	0.57
313.15	35000	0.4005	894.87	0.57
313.15	35000	0.4513	900.82	0.57
313.15	35000	0.5026	906.3	0.57
313.15	35000	0.5521	911.06	0.57
313.15	35000	0.6025	915.59	0.56
313.15	35000	0.6976	923.02	0.56
313.15	35000	0.8037	929.99	0.57
313.15	35000	0.9043	935.78	0.57
313.15	35000	0.933	937.29	0.57
313.15	35000	0.9605	938.78	0.57

System: 2-(dimethylamino)ethyl methylpropenoate + butan-1-ol; phases: Liquid
Property: Mass density, kg/m3 (Liquid); method: Vibrating tube method
Temperature, K	Pressure, kPa	Mole fraction of 2-(dimethylamino)ethyl methylpropenoate	Mass density, kg/m3	uncertainty
293.15	100	0.0301	817.21	0.52
293.15	100	0.06	824.09	0.52
293.15	100	0.1005	833.13	0.52
293.15	100	0.1995	852.44	0.52
293.15	100	0.2993	868.71	0.52
293.15	100	0.4005	882.69	0.52
293.15	100	0.4521	889.04	0.52
293.15	100	0.499	894.3	0.52
293.15	100	0.5494	899.59	0.52
293.15	100	0.5994	904.39	0.53
293.15	100	0.7005	913.06	0.53
293.15	100	0.7989	920.53	0.53
293.15	100	0.8992	927.17	0.54
293.15	100	0.9293	928.88	0.54
293.15	100	0.9592	930.67	0.54
293.15	5000	0.0301	820.9	0.52
293.15	5000	0.06	827.83	0.52
293.15	5000	0.1005	836.85	0.52
293.15	5000	0.1995	856.11	0.52
293.15	5000	0.2993	872.37	0.53
293.15	5000	0.4005	886.4	0.53
293.15	5000	0.4521	892.7	0.53
293.15	5000	0.499	897.94	0.53
293.15	5000	0.5494	903.22	0.53
293.15	5000	0.5994	908.07	0.53
293.15	5000	0.7005	916.73	0.53
293.15	5000	0.7989	924.22	0.54
293.15	5000	0.8992	930.88	0.54
293.15	5000	0.9293	932.61	0.54
293.15	5000	0.9592	934.41	0.54
293.15	10000	0.0301	824.39	0.53
293.15	10000	0.06	831.32	0.53
293.15	10000	0.1005	840.32	0.53
293.15	10000	0.1995	859.55	0.53
293.15	10000	0.2993	875.83	0.53
293.15	10000	0.4005	889.87	0.53
293.15	10000	0.4521	896.14	0.53
293.15	10000	0.499	901.38	0.53
293.15	10000	0.5494	906.66	0.53
293.15	10000	0.5994	911.52	0.54
293.15	10000	0.7005	920.19	0.54
293.15	10000	0.7989	927.7	0.54
293.15	10000	0.8992	934.38	0.55
293.15	10000	0.9293	936.14	0.55
293.15	10000	0.9592	937.96	0.55
293.15	15000	0.0301	827.71	0.54
293.15	15000	0.06	834.6	0.54
293.15	15000	0.1005	843.61	0.54
293.15	15000	0.1995	862.82	0.54
293.15	15000	0.2993	879.12	0.54
293.15	15000	0.4005	893.17	0.54
293.15	15000	0.4521	899.43	0.54
293.15	15000	0.499	904.66	0.54
293.15	15000	0.5494	909.96	0.54
293.15	15000	0.5994	914.8	0.54
293.15	15000	0.7005	923.49	0.54
293.15	15000	0.7989	931.01	0.55
293.15	15000	0.8992	937.71	0.55
293.15	15000	0.9293	939.5	0.55
293.15	15000	0.9592	941.35	0.55
293.15	20000	0.0301	830.88	0.56
293.15	20000	0.06	837.73	0.55
293.15	20000	0.1005	846.74	0.55
293.15	20000	0.1995	865.96	0.55
293.15	20000	0.2993	882.28	0.55
293.15	20000	0.4005	896.32	0.54
293.15	20000	0.4521	902.58	0.54
293.15	20000	0.499	907.82	0.55
293.15	20000	0.5494	913.14	0.54
293.15	20000	0.5994	917.94	0.54
293.15	20000	0.7005	926.66	0.55
293.15	20000	0.7989	934.2	0.55
293.15	20000	0.8992	940.93	0.55
293.15	20000	0.9293	942.75	0.55
293.15	20000	0.9592	944.61	0.56
293.15	25000	0.0301	833.94	0.57
293.15	25000	0.06	840.76	0.56
293.15	25000	0.1005	849.77	0.56
293.15	25000	0.1995	869	0.56
293.15	25000	0.2993	885.36	0.55
293.15	25000	0.4005	899.39	0.55
293.15	25000	0.4521	905.66	0.55
293.15	25000	0.499	910.91	0.55
293.15	25000	0.5494	916.24	0.55
293.15	25000	0.5994	921.02	0.55
293.15	25000	0.7005	929.77	0.55
293.15	25000	0.7989	937.32	0.55
293.15	25000	0.8992	944.08	0.56
293.15	25000	0.9293	945.91	0.56
293.15	25000	0.9592	947.78	0.56
293.15	30000	0.0301	836.92	0.58
293.15	30000	0.06	843.75	0.58
293.15	30000	0.1005	852.74	0.57
293.15	30000	0.1995	872	0.56
293.15	30000	0.2993	888.38	0.56
293.15	30000	0.4005	902.42	0.56
293.15	30000	0.4521	908.71	0.56
293.15	30000	0.499	913.96	0.56
293.15	30000	0.5494	919.29	0.55
293.15	30000	0.5994	924.09	0.55
293.15	30000	0.7005	932.85	0.55
293.15	30000	0.7989	940.42	0.56
293.15	30000	0.8992	947.2	0.56
293.15	30000	0.9293	949.02	0.56
293.15	30000	0.9592	950.89	0.56
293.15	35000	0.0301	839.85	0.59
293.15	35000	0.06	846.74	0.59
293.15	35000	0.1005	855.68	0.58
293.15	35000	0.1995	875.01	0.57
293.15	35000	0.2993	891.38	0.57
293.15	35000	0.4005	905.46	0.56
293.15	35000	0.4521	911.75	0.56
293.15	35000	0.499	917.02	0.56
293.15	35000	0.5494	922.33	0.56
293.15	35000	0.5994	927.2	0.56
293.15	35000	0.7005	935.95	0.56
293.15	35000	0.7989	943.55	0.56
293.15	35000	0.8992	950.36	0.56
293.15	35000	0.9293	952.13	0.56
293.15	35000	0.9592	953.97	0.56
303.15	100	0.0302	809.38	0.52
303.15	100	0.0602	816.25	0.52
303.15	100	0.1007	825	0.52
303.15	100	0.2007	844.03	0.52
303.15	100	0.3007	860.04	0.52
303.15	100	0.4013	873.63	0.52
303.15	100	0.4512	879.59	0.52
303.15	100	0.5007	885.03	0.52
303.15	100	0.5502	890.11	0.53
303.15	100	0.6045	895.25	0.53
303.15	100	0.7005	903.5	0.53
303.15	100	0.8026	911.12	0.53
303.15	100	0.9026	917.53	0.54
303.15	100	0.9303	919.17	0.54
303.15	100	0.9616	921.02	0.54
303.15	5000	0.0302	813.38	0.53
303.15	5000	0.0602	820.35	0.52
303.15	5000	0.1007	829.05	0.52
303.15	5000	0.2007	848.08	0.53
303.15	5000	0.3007	864.03	0.53
303.15	5000	0.4013	877.52	0.53
303.15	5000	0.4512	883.43	0.53
303.15	5000	0.5007	888.88	0.53
303.15	5000	0.5502	894.02	0.53
303.15	5000	0.6045	899.16	0.53
303.15	5000	0.7005	907.36	0.53
303.15	5000	0.8026	914.97	0.54
303.15	5000	0.9026	921.4	0.54
303.15	5000	0.9303	923.07	0.54
303.15	5000	0.9616	924.91	0.55
303.15	10000	0.0302	817.11	0.54
303.15	10000	0.0602	824.12	0.53
303.15	10000	0.1007	832.79	0.53
303.15	10000	0.2007	851.83	0.53
303.15	10000	0.3007	867.77	0.53
303.15	10000	0.4013	881.22	0.53
303.15	10000	0.4512	887.11	0.54
303.15	10000	0.5007	892.55	0.54
303.15	10000	0.5502	897.73	0.54
303.15	10000	0.6045	902.88	0.54
303.15	10000	0.7005	911.08	0.54
303.15	10000	0.8026	918.68	0.54
303.15	10000	0.9026	925.14	0.55
303.15	10000	0.9303	926.83	0.55
303.15	10000	0.9616	928.67	0.55
303.15	15000	0.0302	820.61	0.55
303.15	15000	0.0602	827.61	0.54
303.15	15000	0.1007	836.28	0.54
303.15	15000	0.2007	855.35	0.54
303.15	15000	0.3007	871.3	0.54
303.15	15000	0.4013	884.76	0.54
303.15	15000	0.4512	890.65	0.54
303.15	15000	0.5007	896.09	0.54
303.15	15000	0.5502	901.29	0.54
303.15	15000	0.6045	906.44	0.54
303.15	15000	0.7005	914.68	0.54
303.15	15000	0.8026	922.29	0.55
303.15	15000	0.9026	928.77	0.55
303.15	15000	0.9303	930.48	0.55
303.15	15000	0.9616	932.32	0.55
303.15	20000	0.0302	823.91	0.56
303.15	20000	0.0602	830.9	0.56
303.15	20000	0.1007	839.57	0.55
303.15	20000	0.2007	858.69	0.55
303.15	20000	0.3007	874.67	0.55
303.15	20000	0.4013	888.16	0.55
303.15	20000	0.4512	894.08	0.55
303.15	20000	0.5007	899.51	0.55
303.15	20000	0.5502	904.73	0.55
303.15	20000	0.6045	909.9	0.55
303.15	20000	0.7005	918.19	0.55
303.15	20000	0.8026	925.8	0.55
303.15	20000	0.9026	932.32	0.56
303.15	20000	0.9303	934.04	0.56
303.15	20000	0.9616	935.89	0.56
303.15	25000	0.0302	827.06	0.57
303.15	25000	0.0602	834.03	0.57
303.15	25000	0.1007	842.73	0.56
303.15	25000	0.2007	861.89	0.56
303.15	25000	0.3007	877.92	0.56
303.15	25000	0.4013	891.46	0.55
303.15	25000	0.4512	897.42	0.55
303.15	25000	0.5007	902.86	0.55
303.15	25000	0.5502	908.09	0.55
303.15	25000	0.6045	913.27	0.55
303.15	25000	0.7005	921.62	0.55
303.15	25000	0.8026	929.26	0.56
303.15	25000	0.9026	935.81	0.56
303.15	25000	0.9303	937.53	0.56
303.15	25000	0.9616	939.4	0.56
303.15	30000	0.0302	830.08	0.58
303.15	30000	0.0602	837.07	0.58
303.15	30000	0.1007	845.81	0.58
303.15	30000	0.2007	865.03	0.57
303.15	30000	0.3007	881.1	0.56
303.15	30000	0.4013	894.68	0.56
303.15	30000	0.4512	900.69	0.56
303.15	30000	0.5007	906.16	0.56
303.15	30000	0.5502	911.42	0.56
303.15	30000	0.6045	916.62	0.56
303.15	30000	0.7005	925.01	0.56
303.15	30000	0.8026	932.68	0.56
303.15	30000	0.9026	939.25	0.56
303.15	30000	0.9303	940.98	0.56
303.15	30000	0.9616	942.88	0.57
303.15	35000	0.0302	833.02	0.6
303.15	35000	0.0602	840.08	0.59
303.15	35000	0.1007	848.85	0.59
303.15	35000	0.2007	868.15	0.58
303.15	35000	0.3007	884.26	0.57
303.15	35000	0.4013	897.86	0.57
303.15	35000	0.4512	903.91	0.57
303.15	35000	0.5007	909.45	0.56
303.15	35000	0.5502	914.74	0.56
303.15	35000	0.6045	919.96	0.56
303.15	35000	0.7005	928.36	0.56
303.15	35000	0.8026	936.08	0.56
303.15	35000	0.9026	942.69	0.57
303.15	35000	0.9303	944.42	0.57
303.15	35000	0.9616	946.34	0.57
313.15	100	0.0302	801.72	0.52
313.15	100	0.0603	808.58	0.52
313.15	100	0.1019	817.15	0.52
313.15	100	0.2001	835.66	0.52
313.15	100	0.301	851.41	0.52
313.15	100	0.3999	864.54	0.52
313.15	100	0.4519	870.67	0.52
313.15	100	0.5002	875.94	0.53
313.15	100	0.5505	881.12	0.53
313.15	100	0.6004	885.84	0.53
313.15	100	0.701	894.49	0.53
313.15	100	0.8004	901.91	0.53
313.15	100	0.9	908.36	0.54
313.15	100	0.9322	910.31	0.54
313.15	100	0.9608	911.98	0.54
313.15	5000	0.0302	805.93	0.53
313.15	5000	0.0603	812.75	0.53
313.15	5000	0.1019	821.38	0.53
313.15	5000	0.2001	839.79	0.53
313.15	5000	0.301	855.57	0.53
313.15	5000	0.3999	868.7	0.53
313.15	5000	0.4519	874.82	0.53
313.15	5000	0.5002	880.09	0.53
313.15	5000	0.5505	885.27	0.53
313.15	5000	0.6004	890.02	0.53
313.15	5000	0.701	898.55	0.53
313.15	5000	0.8004	905.99	0.54
313.15	5000	0.9	912.45	0.54
313.15	5000	0.9322	914.45	0.54
313.15	5000	0.9608	916.12	0.55
313.15	10000	0.0302	809.83	0.54
313.15	10000	0.0603	816.62	0.54
313.15	10000	0.1019	825.29	0.54
313.15	10000	0.2001	843.65	0.53
313.15	10000	0.301	859.51	0.53
313.15	10000	0.3999	872.64	0.54
313.15	10000	0.4519	878.78	0.54
313.15	10000	0.5002	884.04	0.54
313.15	10000	0.5505	889.22	0.54
313.15	10000	0.6004	894	0.54
313.15	10000	0.701	902.51	0.54
313.15	10000	0.8004	909.92	0.54
313.15	10000	0.9	916.43	0.55
313.15	10000	0.9322	918.45	0.55
313.15	10000	0.9608	920.11	0.55
313.15	15000	0.0302	813.46	0.55
313.15	15000	0.0603	820.25	0.55
313.15	15000	0.1019	828.95	0.55
313.15	15000	0.2001	847.3	0.54
313.15	15000	0.301	863.24	0.54
313.15	15000	0.3999	876.4	0.54
313.15	15000	0.4519	882.54	0.54
313.15	15000	0.5002	887.81	0.54
313.15	15000	0.5505	893.01	0.54
313.15	15000	0.6004	897.79	0.54
313.15	15000	0.701	906.34	0.55
313.15	15000	0.8004	913.71	0.55
313.15	15000	0.9	920.31	0.55
313.15	15000	0.9322	922.31	0.56
313.15	15000	0.9608	923.96	0.56
313.15	20000	0.0302	816.91	0.56
313.15	20000	0.0603	823.69	0.56
313.15	20000	0.1019	832.41	0.56
313.15	20000	0.2001	850.79	0.55
313.15	20000	0.301	866.8	0.55
313.15	20000	0.3999	880	0.55
313.15	20000	0.4519	886.15	0.55
313.15	20000	0.5002	891.43	0.55
313.15	20000	0.5505	896.64	0.55
313.15	20000	0.6004	901.42	0.55
313.15	20000	0.701	910.04	0.55
313.15	20000	0.8004	917.39	0.55
313.15	20000	0.9	924.08	0.56
313.15	20000	0.9322	926.03	0.56
313.15	20000	0.9608	927.68	0.56
313.15	25000	0.0302	820.24	0.57
313.15	25000	0.0603	827.01	0.57
313.15	25000	0.1019	835.74	0.57
313.15	25000	0.2001	854.16	0.56
313.15	25000	0.301	870.21	0.56
313.15	25000	0.3999	883.45	0.56
313.15	25000	0.4519	889.61	0.56
313.15	25000	0.5002	894.9	0.56
313.15	25000	0.5505	900.13	0.56
313.15	25000	0.6004	904.91	0.56
313.15	25000	0.701	913.62	0.56
313.15	25000	0.8004	920.98	0.56
313.15	25000	0.9	927.72	0.56
313.15	25000	0.9322	929.63	0.56
313.15	25000	0.9608	931.27	0.57
313.15	30000	0.0302	823.51	0.59
313.15	30000	0.0603	830.28	0.59
313.15	30000	0.1019	839	0.58
313.15	30000	0.2001	857.46	0.57
313.15	30000	0.301	873.49	0.57
313.15	30000	0.3999	886.78	0.57
313.15	30000	0.4519	892.94	0.56
313.15	30000	0.5002	898.25	0.56
313.15	30000	0.5505	903.49	0.56
313.15	30000	0.6004	908.27	0.56
313.15	30000	0.701	917.04	0.56
313.15	30000	0.8004	924.48	0.56
313.15	30000	0.9	931.24	0.57
313.15	30000	0.9322	933.11	0.57
313.15	30000	0.9608	934.75	0.57
313.15	35000	0.0302	826.8	0.6
313.15	35000	0.0603	833.54	0.6
313.15	35000	0.1019	842.24	0.59
313.15	35000	0.2001	860.72	0.58
313.15	35000	0.301	876.67	0.58
313.15	35000	0.3999	890.02	0.57
313.15	35000	0.4519	896.17	0.57
313.15	35000	0.5002	901.51	0.57
313.15	35000	0.5505	906.74	0.57
313.15	35000	0.6004	911.52	0.57
313.15	35000	0.701	920.32	0.57
313.15	35000	0.8004	927.93	0.57
313.15	35000	0.9	934.63	0.57
313.15	35000	0.9322	936.46	0.57
313.15	35000	0.9608	938.13	0.57

System: 2-(dimethylamino)ethyl methylpropenoate + pentan-1-ol; phases: Liquid
Property: Mass density, kg/m3 (Liquid); method: Vibrating tube method
Temperature, K	Pressure, kPa	Mole fraction of 2-(dimethylamino)ethyl methylpropenoate	Mass density, kg/m3	uncertainty
293.15	100	0.0299	821.4	0.62
293.15	100	0.0601	827.36	0.62
293.15	100	0.1006	834.83	0.61
293.15	100	0.2011	851.81	0.61
293.15	100	0.3004	866.6	0.6
293.15	100	0.402	879.66	0.59
293.15	100	0.4518	885.55	0.59
293.15	100	0.5004	890.97	0.58
293.15	100	0.5486	896.13	0.58
293.15	100	0.601	901.42	0.57
293.15	100	0.7021	910.74	0.56
293.15	100	0.8019	918.94	0.56
293.15	100	0.9008	926.27	0.55
293.15	100	0.9306	928.32	0.55
293.15	100	0.9645	930.63	0.54
293.15	5000	0.0299	824.97	0.64
293.15	5000	0.0601	830.88	0.63
293.15	5000	0.1006	838.39	0.63
293.15	5000	0.2011	855.36	0.62
293.15	5000	0.3004	870.17	0.61
293.15	5000	0.402	883.27	0.6
293.15	5000	0.4518	889.17	0.6
293.15	5000	0.5004	894.63	0.59
293.15	5000	0.5486	899.78	0.59
293.15	5000	0.601	905.08	0.58
293.15	5000	0.7021	914.43	0.57
293.15	5000	0.8019	922.6	0.56
293.15	5000	0.9008	929.96	0.55
293.15	5000	0.9306	932.04	0.55
293.15	5000	0.9645	934.34	0.55
293.15	10000	0.0299	828.31	0.66
293.15	10000	0.0601	834.21	0.65
293.15	10000	0.1006	841.73	0.65
293.15	10000	0.2011	858.7	0.64
293.15	10000	0.3004	873.54	0.62
293.15	10000	0.402	886.67	0.61
293.15	10000	0.4518	892.6	0.61
293.15	10000	0.5004	898.09	0.6
293.15	10000	0.5486	903.24	0.6
293.15	10000	0.601	908.55	0.59
293.15	10000	0.7021	917.91	0.58
293.15	10000	0.8019	926.1	0.57
293.15	10000	0.9008	933.48	0.56
293.15	10000	0.9306	935.56	0.56
293.15	10000	0.9645	937.87	0.55
293.15	15000	0.0299	831.49	0.68
293.15	15000	0.0601	837.36	0.67
293.15	15000	0.1006	844.91	0.67
293.15	15000	0.2011	861.88	0.65
293.15	15000	0.3004	876.75	0.64
293.15	15000	0.402	889.9	0.62
293.15	15000	0.4518	895.88	0.62
293.15	15000	0.5004	901.38	0.61
293.15	15000	0.5486	906.53	0.6
293.15	15000	0.601	911.86	0.6
293.15	15000	0.7021	921.22	0.58
293.15	15000	0.8019	929.46	0.57
293.15	15000	0.9008	936.87	0.56
293.15	15000	0.9306	938.93	0.56
293.15	15000	0.9645	941.25	0.56
293.15	20000	0.0299	834.52	0.7
293.15	20000	0.0601	840.4	0.69
293.15	20000	0.1006	847.96	0.68
293.15	20000	0.2011	864.94	0.67
293.15	20000	0.3004	879.84	0.65
293.15	20000	0.402	893.01	0.63
293.15	20000	0.4518	899.03	0.63
293.15	20000	0.5004	904.54	0.62
293.15	20000	0.5486	909.71	0.61
293.15	20000	0.601	915.05	0.6
293.15	20000	0.7021	924.41	0.59
293.15	20000	0.8019	932.72	0.58
293.15	20000	0.9008	940.15	0.57
293.15	20000	0.9306	942.19	0.56
293.15	20000	0.9645	944.51	0.56
293.15	25000	0.0299	837.46	0.72
293.15	25000	0.0601	843.36	0.71
293.15	25000	0.1006	850.92	0.7
293.15	25000	0.2011	867.91	0.68
293.15	25000	0.3004	882.84	0.66
293.15	25000	0.402	896.03	0.64
293.15	25000	0.4518	902.08	0.64
293.15	25000	0.5004	907.61	0.63
293.15	25000	0.5486	912.79	0.62
293.15	25000	0.601	918.14	0.61
293.15	25000	0.7021	927.53	0.6
293.15	25000	0.8019	935.91	0.58
293.15	25000	0.9008	943.35	0.57
293.15	25000	0.9306	945.38	0.57
293.15	25000	0.9645	947.7	0.56
293.15	30000	0.0299	840.35	0.73
293.15	30000	0.0601	846.28	0.73
293.15	30000	0.1006	853.82	0.72
293.15	30000	0.2011	870.84	0.69
293.15	30000	0.3004	885.78	0.67
293.15	30000	0.402	899.02	0.65
293.15	30000	0.4518	905.07	0.65
293.15	30000	0.5004	910.63	0.64
293.15	30000	0.5486	915.83	0.63
293.15	30000	0.601	921.18	0.62
293.15	30000	0.7021	930.63	0.6
293.15	30000	0.8019	939.06	0.59
293.15	30000	0.9008	946.5	0.57
293.15	30000	0.9306	948.54	0.57
293.15	30000	0.9645	950.84	0.57
293.15	35000	0.0299	843.21	0.75
293.15	35000	0.0601	849.21	0.75
293.15	35000	0.1006	856.7	0.73
293.15	35000	0.2011	873.77	0.71
293.15	35000	0.3004	888.7	0.69
293.15	35000	0.402	902	0.66
293.15	35000	0.4518	908.03	0.65
293.15	35000	0.5004	913.62	0.64
293.15	35000	0.5486	918.85	0.63
293.15	35000	0.601	924.2	0.62
293.15	35000	0.7021	933.76	0.61
293.15	35000	0.8019	942.19	0.59
293.15	35000	0.9008	949.63	0.58
293.15	35000	0.9306	951.72	0.57
293.15	35000	0.9645	953.97	0.57
303.15	100	0.0307	814.24	0.62
303.15	100	0.0604	819.89	0.61
303.15	100	0.1009	827.11	0.61
303.15	100	0.2025	843.87	0.6
303.15	100	0.3	857.94	0.6
303.15	100	0.3999	870.67	0.59
303.15	100	0.4506	876.6	0.59
303.15	100	0.5037	882.4	0.58
303.15	100	0.5495	887.14	0.58
303.15	100	0.6012	892.24	0.57
303.15	100	0.7014	901.28	0.56
303.15	100	0.8023	909.34	0.56
303.15	100	0.9025	916.57	0.55
303.15	100	0.9307	918.44	0.55
303.15	100	0.9625	920.67	0.54
303.15	5000	0.0307	818.14	0.64
303.15	5000	0.0604	823.73	0.63
303.15	5000	0.1009	830.9	0.63
303.15	5000	0.2025	847.62	0.62
303.15	5000	0.3	861.71	0.61
303.15	5000	0.3999	874.45	0.6
303.15	5000	0.4506	880.36	0.6
303.15	5000	0.5037	886.19	0.59
303.15	5000	0.5495	890.94	0.59
303.15	5000	0.6012	896.07	0.58
303.15	5000	0.7014	905.16	0.57
303.15	5000	0.8023	913.19	0.56
303.15	5000	0.9025	920.44	0.55
303.15	5000	0.9307	922.34	0.55
303.15	5000	0.9625	924.56	0.55
303.15	10000	0.0307	821.74	0.66
303.15	10000	0.0604	827.29	0.65
303.15	10000	0.1009	834.46	0.65
303.15	10000	0.2025	851.18	0.64
303.15	10000	0.3	865.28	0.62
303.15	10000	0.3999	878.06	0.61
303.15	10000	0.4506	883.98	0.61
303.15	10000	0.5037	889.83	0.6
303.15	10000	0.5495	894.58	0.6
303.15	10000	0.6012	899.73	0.59
303.15	10000	0.7014	908.86	0.58
303.15	10000	0.8023	916.92	0.57
303.15	10000	0.9025	924.19	0.56
303.15	10000	0.9307	926.12	0.56
303.15	10000	0.9625	928.32	0.56
303.15	15000	0.0307	825.07	0.68
303.15	15000	0.0604	830.63	0.67
303.15	15000	0.1009	837.81	0.67
303.15	15000	0.2025	854.56	0.65
303.15	15000	0.3	868.68	0.64
303.15	15000	0.3999	881.52	0.63
303.15	15000	0.4506	887.47	0.62
303.15	15000	0.5037	893.35	0.61
303.15	15000	0.5495	898.1	0.61
303.15	15000	0.6012	903.25	0.6
303.15	15000	0.7014	912.4	0.59
303.15	15000	0.8023	920.53	0.58
303.15	15000	0.9025	927.82	0.57
303.15	15000	0.9307	929.8	0.56
303.15	15000	0.9625	931.98	0.56
303.15	20000	0.0307	828.2	0.7
303.15	20000	0.0604	833.79	0.69
303.15	20000	0.1009	841.01	0.68
303.15	20000	0.2025	857.79	0.67
303.15	20000	0.3	871.95	0.65
303.15	20000	0.3999	884.85	0.64
303.15	20000	0.4506	890.84	0.63
303.15	20000	0.5037	896.76	0.62
303.15	20000	0.5495	901.5	0.61
303.15	20000	0.6012	906.65	0.61
303.15	20000	0.7014	915.83	0.59
303.15	20000	0.8023	924.05	0.58
303.15	20000	0.9025	931.37	0.57
303.15	20000	0.9307	933.38	0.57
303.15	20000	0.9625	935.55	0.56
303.15	25000	0.0307	831.19	0.72
303.15	25000	0.0604	836.81	0.71
303.15	25000	0.1009	844.07	0.7
303.15	25000	0.2025	860.91	0.68
303.15	25000	0.3	875.13	0.67
303.15	25000	0.3999	888.08	0.65
303.15	25000	0.4506	894.11	0.64
303.15	25000	0.5037	900.07	0.63
303.15	25000	0.5495	904.82	0.62
303.15	25000	0.6012	909.98	0.61
303.15	25000	0.7014	919.2	0.6
303.15	25000	0.8023	927.5	0.59
303.15	25000	0.9025	934.86	0.57
303.15	25000	0.9307	936.89	0.57
303.15	25000	0.9625	939.05	0.57
303.15	30000	0.0307	834.07	0.74
303.15	30000	0.0604	839.72	0.73
303.15	30000	0.1009	847.03	0.72
303.15	30000	0.2025	863.93	0.7
303.15	30000	0.3	878.24	0.68
303.15	30000	0.3999	891.24	0.66
303.15	30000	0.4506	897.3	0.65
303.15	30000	0.5037	903.29	0.64
303.15	30000	0.5495	908.07	0.63
303.15	30000	0.6012	913.25	0.62
303.15	30000	0.7014	922.54	0.61
303.15	30000	0.8023	930.88	0.59
303.15	30000	0.9025	938.3	0.58
303.15	30000	0.9307	940.33	0.58
303.15	30000	0.9625	942.5	0.57
303.15	35000	0.0307	836.92	0.76
303.15	35000	0.0604	842.58	0.75
303.15	35000	0.1009	849.93	0.74
303.15	35000	0.2025	866.88	0.71
303.15	35000	0.3	881.32	0.69
303.15	35000	0.3999	894.35	0.67
303.15	35000	0.4506	900.41	0.66
303.15	35000	0.5037	906.44	0.65
303.15	35000	0.5495	911.28	0.64
303.15	35000	0.6012	916.5	0.63
303.15	35000	0.7014	925.89	0.61
303.15	35000	0.8023	934.23	0.6
303.15	35000	0.9025	941.71	0.58
303.15	35000	0.9307	943.73	0.58
303.15	35000	0.9625	945.92	0.57
313.15	100	0.0305	806.61	0.62
313.15	100	0.0602	812.04	0.61
313.15	100	0.1004	819.08	0.61
313.15	100	0.2011	835.38	0.6
313.15	100	0.2999	849.45	0.6
313.15	100	0.4001	862.05	0.59
313.15	100	0.4514	867.85	0.58
313.15	100	0.498	872.93	0.58
313.15	100	0.5495	878.17	0.58
313.15	100	0.5984	882.9	0.57
313.15	100	0.7004	892.03	0.56
313.15	100	0.8001	900.15	0.56
313.15	100	0.8995	907.42	0.55
313.15	100	0.9328	909.62	0.55
313.15	100	0.9616	911.53	0.55
313.15	5000	0.0305	810.57	0.64
313.15	5000	0.0602	816	0.63
313.15	5000	0.1004	823.09	0.63
313.15	5000	0.2011	839.35	0.62
313.15	5000	0.2999	853.38	0.61
313.15	5000	0.4001	866.03	0.6
313.15	5000	0.4514	871.88	0.6
313.15	5000	0.498	876.96	0.59
313.15	5000	0.5495	882.25	0.59
313.15	5000	0.5984	887.01	0.58
313.15	5000	0.7004	896.09	0.57
313.15	5000	0.8001	904.24	0.56
313.15	5000	0.8995	911.49	0.56
313.15	5000	0.9328	913.75	0.55
313.15	5000	0.9616	915.62	0.55
313.15	10000	0.0305	814.26	0.66
313.15	10000	0.0602	819.71	0.65
313.15	10000	0.1004	826.82	0.65
313.15	10000	0.2011	843.09	0.64
313.15	10000	0.2999	857.13	0.63
313.15	10000	0.4001	869.81	0.61
313.15	10000	0.4514	875.71	0.61
313.15	10000	0.498	880.8	0.6
313.15	10000	0.5495	886.12	0.6
313.15	10000	0.5984	890.9	0.59
313.15	10000	0.7004	900.01	0.58
313.15	10000	0.8001	908.18	0.57
313.15	10000	0.8995	915.45	0.56
313.15	10000	0.9328	917.76	0.56
313.15	10000	0.9616	919.61	0.56
313.15	15000	0.0305	817.73	0.68
313.15	15000	0.0602	823.21	0.67
313.15	15000	0.1004	830.32	0.67
313.15	15000	0.2011	846.64	0.65
313.15	15000	0.2999	860.71	0.64
313.15	15000	0.4001	873.43	0.63
313.15	15000	0.4514	879.36	0.62
313.15	15000	0.498	884.47	0.61
313.15	15000	0.5495	889.81	0.61
313.15	15000	0.5984	894.6	0.6
313.15	15000	0.7004	903.79	0.59
313.15	15000	0.8001	911.97	0.58
313.15	15000	0.8995	919.28	0.57
313.15	15000	0.9328	921.63	0.56
313.15	15000	0.9616	923.5	0.56
313.15	20000	0.0305	821.04	0.7
313.15	20000	0.0602	826.55	0.69
313.15	20000	0.1004	833.66	0.69
313.15	20000	0.2011	850.04	0.67
313.15	20000	0.2999	864.15	0.65
313.15	20000	0.4001	876.91	0.64
313.15	20000	0.4514	882.87	0.63
313.15	20000	0.498	888	0.63
313.15	20000	0.5495	893.35	0.62
313.15	20000	0.5984	898.15	0.61
313.15	20000	0.7004	907.43	0.6
313.15	20000	0.8001	915.62	0.58
313.15	20000	0.8995	922.99	0.57
313.15	20000	0.9328	925.35	0.57
313.15	20000	0.9616	927.26	0.57
313.15	25000	0.0305	824.24	0.72
313.15	25000	0.0602	829.77	0.71
313.15	25000	0.1004	836.89	0.71
313.15	25000	0.2011	853.32	0.69
313.15	25000	0.2999	867.48	0.67
313.15	25000	0.4001	880.27	0.65
313.15	25000	0.4514	886.24	0.64
313.15	25000	0.498	891.4	0.64
313.15	25000	0.5495	896.76	0.63
313.15	25000	0.5984	901.58	0.62
313.15	25000	0.7004	910.93	0.6
313.15	25000	0.8001	919.14	0.59
313.15	25000	0.8995	926.57	0.58
313.15	25000	0.9328	928.93	0.57
313.15	25000	0.9616	930.88	0.57
313.15	30000	0.0305	827.39	0.74
313.15	30000	0.0602	832.92	0.73
313.15	30000	0.1004	840.06	0.73
313.15	30000	0.2011	856.53	0.7
313.15	30000	0.2999	870.73	0.68
313.15	30000	0.4001	883.53	0.66
313.15	30000	0.4514	889.51	0.65
313.15	30000	0.498	894.7	0.65
313.15	30000	0.5495	900.07	0.64
313.15	30000	0.5984	904.91	0.63
313.15	30000	0.7004	914.29	0.61
313.15	30000	0.8001	922.52	0.6
313.15	30000	0.8995	930.03	0.58
313.15	30000	0.9328	932.36	0.58
313.15	30000	0.9616	934.33	0.58
313.15	35000	0.0305	830.53	0.76
313.15	35000	0.0602	836.03	0.75
313.15	35000	0.1004	843.25	0.74
313.15	35000	0.2011	859.71	0.72
313.15	35000	0.2999	873.91	0.7
313.15	35000	0.4001	886.72	0.67
313.15	35000	0.4514	892.71	0.66
313.15	35000	0.498	897.93	0.66
313.15	35000	0.5495	903.31	0.64
313.15	35000	0.5984	908.18	0.64
313.15	35000	0.7004	917.51	0.62
313.15	35000	0.8001	925.76	0.6
313.15	35000	0.8995	933.36	0.59
313.15	35000	0.9328	935.63	0.58
313.15	35000	0.9616	937.6	0.58
