Measured thermophysical data. Isobaric Vapor Liquid Equilibrium for Binary Systems of Cyclohexanone + Benzene, Cyclohexanone + Toluene, and Cyclohexanone + p-Xylene at 101.3 kPa
Source: J. Chem. Eng. Data, 2017, 10.1021/acs.jced.6b00877
Compound 1: cyclohexanone, C6H10O, InChI=1S/C6H10O/c7-6-4-2-1-3-5-6/h1-5H2, purity 99.5%
Compound 2: benzene, C6H6, InChI=1S/C6H6/c1-2-4-6-5-3-1/h1-6H, purity 99.5%
Compound 3: toluene, C7H8, InChI=1S/C7H8/c1-7-5-3-2-4-6-7/h2-6H,1H3, purity 99.5%
Compound 4: 1,4-dimethylbenzene, C8H10, InChI=1S/C8H10/c1-7-3-5-8(2)6-4-7/h3-6H,1-2H3, purity 99%

System: cyclohexanone + benzene; phases: Liquid, Gas
Fixed: Pressure, kPa = 101.3
Property: Boiling temperature at pressure P, K (Liquid); method: Ebulliometric method (Recirculating still)
Mole fraction of cyclohexanone	Boiling temperature at pressure P, K	uncertainty
0.1106	356.3	0.23
0.2438	360.15	0.23
0.3124	362.65	0.23
0.4155	367.25	0.24
0.526	373.6	0.25
0.6064	379.5	0.27
0.6841	386.4	0.29
0.7385	391.9	0.31
0.7966	398.9	0.33
0.8339	403.85	0.35
0.8652	408.2	0.36
0.8979	412.9	0.37
0.9396	419.25	0.38
0.9682	423.75	0.38

System: cyclohexanone + benzene; phases: Gas, Liquid
Fixed: Pressure, kPa = 101.3
Property: Mole fraction of cyclohexanone (Gas); method: Chromatography
Mole fraction of cyclohexanone	Mole fraction of cyclohexanone	uncertainty
0.1106	0.0115	0.002
0.2438	0.0249	0.002
0.3124	0.036	0.002
0.4155	0.0573	0.0021
0.526	0.093	0.002
0.6064	0.1324	0.0026
0.6841	0.1904	0.0031
0.7385	0.2459	0.0039
0.7966	0.3365	0.005
0.8339	0.4131	0.0061
0.8652	0.4877	0.0073
0.8979	0.5849	0.008
0.9396	0.7368	0.0085
0.9682	0.8621	0.0091

System: cyclohexanone + toluene; phases: Liquid, Gas
Fixed: Pressure, kPa = 101.3
Property: Boiling temperature at pressure P, K (Liquid); method: Ebulliometric method (Recirculating still)
Mole fraction of cyclohexanone	Boiling temperature at pressure P, K	uncertainty
0.0096	384	0.22
0.0573	384.85	0.22
0.1397	386.45	0.22
0.2781	389.55	0.23
0.4362	394.95	0.23
0.5585	400.25	0.24
0.581	401.35	0.24
0.6251	403.55	0.24
0.667	405.75	0.25
0.7573	410.95	0.25
0.8365	416.15	0.26
0.8815	419.25	0.26
0.9186	421.95	0.27
0.9886	427.55	0.27

System: cyclohexanone + toluene; phases: Gas, Liquid
Fixed: Pressure, kPa = 101.3
Property: Mole fraction of cyclohexanone (Gas); method: Chromatography
Mole fraction of cyclohexanone	Mole fraction of cyclohexanone	uncertainty
0.0096	0.0048	0.0021
0.0573	0.0224	0.0021
0.1397	0.0458	0.0021
0.2781	0.0898	0.0023
0.4362	0.1589	0.0026
0.5585	0.2411	0.0035
0.581	0.2625	0.0036
0.6251	0.3032	0.0039
0.667	0.35	0.01
0.7573	0.4662	0.0055
0.8365	0.5967	0.0056
0.8815	0.686	0.006
0.9186	0.771	0.006
0.9886	0.9638	0.0059

System: cyclohexanone + 1,4-dimethylbenzene; phases: Liquid, Gas
Fixed: Pressure, kPa = 101.3
Property: Boiling temperature at pressure P, K (Liquid); method: Ebulliometric method (Recirculating still)
Mole fraction of cyclohexanone	Boiling temperature at pressure P, K	uncertainty
0.0195	411.55	0.22
0.125	411.85	0.22
0.2706	413.25	0.22
0.3979	414.85	0.22
0.5034	416.65	0.22
0.5245	417.05	0.22
0.5819	418.25	0.22
0.6485	419.65	0.22
0.6824	420.45	0.22
0.747	421.95	0.23
0.7885	423.05	0.23
0.8025	423.35	0.22
0.865	425.05	0.23
0.896	425.75	0.23
0.9311	426.75	0.23

System: cyclohexanone + 1,4-dimethylbenzene; phases: Gas, Liquid
Fixed: Pressure, kPa = 101.3
Property: Mole fraction of cyclohexanone (Gas); method: Chromatography
Mole fraction of cyclohexanone	Mole fraction of cyclohexanone	uncertainty
0.0195	0.0196	0.0025
0.125	0.0998	0.0026
0.2706	0.1895	0.0029
0.3979	0.276	0.0035
0.5034	0.3636	0.0044
0.5245	0.3839	0.0046
0.5819	0.4391	0.0051
0.6485	0.5079	0.0058
0.6824	0.5463	0.0056
0.747	0.6251	0.0051
0.7885	0.6793	0.0047
0.8025	0.6984	0.0047
0.865	0.785	0.004
0.896	0.8322	0.0041
0.9311	0.8862	0.0039
