Measured thermophysical data. Bubble-Point Measurements and Modeling of Binary Mixtures of Linear Siloxanes
Source: J. Chem. Eng. Data, 2018, 10.1021/acs.jced.8b00200
Compound 1: hexamethyldisiloxane, C6H18OSi2, InChI=1S/C6H18OSi2/c1-8(2,3)7-9(4,5)6/h1-6H3
Compound 2: octamethyltrisiloxane, C8H24O2Si3, InChI=1S/C8H24O2Si3/c1-11(2,3)9-13(7,8)10-12(4,5)6/h1-8H3
Compound 3: decamethyltetrasiloxane, C10H30O3Si4, InChI=1S/C10H30O3Si4/c1-14(2,3)11-16(7,8)13-17(9,10)12-15(4,5)6/h1-10H3
Compound 4: dodecamethylpentasiloxane, C12H36O4Si5, InChI=1S/C12H36O4Si5/c1-17(2,3)13-19(7,8)15-21(11,12)16-20(9,10)14-18(4,5)6/h1-12H3

System: hexamethyldisiloxane + octamethyltrisiloxane; phases: Liquid, Gas
Property: Vapor or sublimation pressure, kPa (Liquid); method: Closed cell (Static) method
Mole fraction of hexamethyldisiloxane	Temperature, K	Vapor or sublimation pressure, kPa	uncertainty
0.247	270.32	0.5	0.78
0.247	280.32	0.83	0.8
0.247	290.27	1.39	0.84
0.247	300.21	2.31	0.86
0.247	310.19	3.61	0.88
0.247	320.15	5.64	0.92
0.247	330.13	8.43	0.94
0.247	340.11	12.33	0.98
0.247	350.09	17.62	1
0.247	360.08	25.09	1.05
0.247	370.07	34.97	1.07
0.247	380.31	48.18	1.1
0.496	280.32	1.11	0.86
0.496	290.27	2	0.9
0.496	300.24	3.38	0.92
0.496	310.19	5.62	0.96
0.496	320.16	8.68	0.98
0.496	330.13	13.01	1.02
0.496	340.11	19.04	1.05
0.496	350.1	27.34	1.09
0.496	360.09	38.36	1.12
0.496	370.09	52.82	1.17
0.496	380.24	71.45	1.23
0.748	270.34	1.07	0.88
0.748	280.32	1.92	0.92
0.748	290.3	3.24	0.96
0.748	300.22	5.31	0.98
0.748	310.18	8.37	1.02
0.748	320.16	12.7	1.06
0.748	330.13	18.63	1.09
0.748	340.11	27.13	1.13
0.748	350.1	38.48	1.16
0.748	360.09	53.62	1.22
0.748	370.08	72.91	1.29
0.748	380.2	97.45	1.36

System: hexamethyldisiloxane + decamethyltetrasiloxane; phases: Liquid, Gas
Property: Vapor or sublimation pressure, kPa (Liquid); method: Closed cell (Static) method
Mole fraction of hexamethyldisiloxane	Temperature, K	Vapor or sublimation pressure, kPa	uncertainty
0.243	270.33	0.44	0.64
0.243	280.3	0.78	0.68
0.243	290.24	1.24	0.7
0.243	300.23	2	0.72
0.243	310.19	3.04	0.74
0.243	320.16	4.51	0.76
0.243	330.13	6.61	0.78
0.243	340.11	9.34	0.8
0.243	350.11	12.73	0.84
0.243	360.09	17.04	0.87
0.243	370.09	22.51	0.89
0.243	380.24	30.2	0.92
0.495	270.33	0.75	0.72
0.495	280.31	1.29	0.74
0.495	290.24	2.17	0.78
0.495	300.21	3.46	0.8
0.495	310.18	5.46	0.82
0.495	320.16	8.26	0.86
0.495	330.13	11.99	0.88
0.495	340.11	16.94	0.91
0.495	350.1	23.83	0.95
0.495	360.08	32.99	0.98
0.495	370.07	44.89	1.02
0.495	380.31	60.19	1.09
0.749	270.33	1.14	0.82
0.749	280.31	1.99	0.86
0.749	290.29	3.29	0.88
0.749	300.21	5.16	0.92
0.749	310.18	8.27	0.94
0.749	320.16	12.48	0.98
0.749	330.13	18.48	1.01
0.749	340.11	26.71	1.06
0.749	350.1	37.7	1.09
0.749	360.08	51.97	1.16
0.749	370.08	70.19	1.23
0.749	380.24	93.35	1.3

System: hexamethyldisiloxane + dodecamethylpentasiloxane; phases: Liquid, Gas
Property: Vapor or sublimation pressure, kPa (Liquid); method: Closed cell (Static) method
Mole fraction of hexamethyldisiloxane	Temperature, K	Vapor or sublimation pressure, kPa	uncertainty
0.245	270.34	0.46	0.56
0.245	280.32	0.78	0.58
0.245	290.29	1.24	0.6
0.245	300.2	1.96	0.62
0.245	310.18	3	0.64
0.245	320.16	4.42	0.66
0.245	330.13	6.35	0.68
0.245	340.11	8.79	0.7
0.245	350.11	11.75	0.72
0.245	360.09	15.13	0.75
0.245	370.08	19.82	0.77
0.245	380.27	25.21	0.8
0.49	270.33	0.77	0.64
0.49	280.27	1.3	0.66
0.49	290.22	2.12	0.68
0.49	300.21	3.37	0.7
0.49	310.18	5.28	0.72
0.49	320.16	7.92	0.74
0.49	330.13	11.46	0.76
0.49	340.11	16.05	0.81
0.49	350.1	22.32	0.83
0.49	360.08	30.81	0.87
0.49	370.08	41.64	0.9
0.49	380.26	55.42	0.95
0.747	270.35	1.09	0.76
0.747	275.33	1.44	0.78
0.747	280.33	1.9	0.8
0.747	285.31	2.48	0.8
0.747	290.3	3.2	0.82
0.747	295.23	4.09	0.84
0.747	300.22	5.19	0.84
0.747	305.2	6.52	0.86
0.747	310.19	8.08	0.88
0.747	315.17	9.93	0.88
0.747	320.16	12.08	0.9
0.747	325.15	14.63	0.92
0.747	330.14	17.61	0.93
0.747	335.12	21.18	0.95
0.747	340.11	25.2	0.98
0.747	345.1	30.19	1
0.747	350.1	35.96	1.01
0.747	355.09	42.48	1.03
0.747	360.09	49.89	1.07
0.747	365.09	58.24	1.11
0.747	370.08	67.74	1.13
