Measured thermophysical data. Effect of Structural Variations on the Thermophysical Properties of Protic Ionic Liquids: Insights from Experimental and Computational Studies
Source: J. Chem. Eng. Data, 2017, 10.1021/acs.jced.6b00450
Compound 1: 1-methylimidazolium hydrogen sulfate, C4H8N2O4S, InChI=1S/C4H6N2.H2O4S/c1-6-3-2-5-4-6;1-5(2,3)4/h2-4H,1H3;(H2,1,2,3,4), purity 98.5%
Compound 2: 1-(2-cyanoethyl)imidazolium hydrogen sulfate, C6H9N3O4S, InChI=1S/C6H7N3.H2O4S/c7-2-1-4-9-5-3-8-6-9;1-5(2,3)4/h3,5-6H,1,4H2;(H2,1,2,3,4), purity 99.2%
Compound 3: 1-(2-cyanoethyl)imidazolium methanesulfonate, C7H11N3O3S, InChI=1S/C6H7N3.CH4O3S/c7-2-1-4-9-5-3-8-6-9;1-5(2,3)4/h3,5-6H,1,4H2;1H3,(H,2,3,4), purity 98.5%
Compound 4: 1-(2-cyanoethyl)imidazolium trifluoromethanesulfonate, C7H8F3N3O3S, InChI=1S/C6H7N3.CHF3O3S/c7-2-1-4-9-5-3-8-6-9;2-1(3,4)8(5,6)7/h3,5-6H,1,4H2;(H,5,6,7), purity 98.7%
Compound 5: 1-(2-cyanoethyl)imidazolium 4-methylbenzenesulfonate, C13H15N3O3S, InChI=1S/C7H8O3S.C6H7N3/c1-6-2-4-7(5-3-6)11(8,9)10;7-2-1-4-9-5-3-8-6-9/h2-5H,1H3,(H,8,9,10);3,5-6H,1,4H2, purity 91%
Compound 6: 1-(2-cyanoethyl)imidazolium acetate, C8H11N3O2, InChI=1S/C6H7N3.C2H4O2/c7-2-1-4-9-5-3-8-6-9;1-2(3)4/h3,5-6H,1,4H2;1H3,(H,3,4), purity 98.3%
Compound 7: 1-(2-cyanoethyl)imidazolium trifluoroacetate, C8H8F3N3O2, InChI=1S/C6H7N3.C2HF3O2/c7-2-1-4-9-5-3-8-6-9;3-2(4,5)1(6)7/h3,5-6H,1,4H2;(H,6,7), purity 99%

System: 1-methylimidazolium hydrogen sulfate; phases: Crystal, Liquid, Air at 1 atmosphere
Property: Normal melting temperature, K (Crystal); method: DTA
Normal melting temperature, K	uncertainty
294.03	2.03

System: 1-methylimidazolium hydrogen sulfate; phases: Glass, Liquid, Air at 1 atmosphere
Property: Triple point temperature, K (Glass); method: DSC
Triple point temperature, K	uncertainty
199.66	2.12

System: 1-methylimidazolium hydrogen sulfate; phases: Liquid
Fixed: Pressure, kPa = 101.325
Property: Refractive index (Na D-line) (Liquid); method: Standard Abbe refractometry
Temperature, K	Refractive index (Na D-line)	uncertainty
293.15	1.48955	0.00701
298.15	1.48865	0.00701
303.15	1.48761	0.00701
308.15	1.48655	0.00701
313.15	1.48552	0.00701
318.15	1.48432	0.00701
323.15	1.48311	0.00701

System: 1-(2-cyanoethyl)imidazolium hydrogen sulfate; phases: Glass, Liquid, Air at 1 atmosphere
Property: Triple point temperature, K (Glass); method: DSC
Triple point temperature, K	uncertainty
223.44	2.12

System: 1-(2-cyanoethyl)imidazolium hydrogen sulfate; phases: Liquid
Fixed: Pressure, kPa = 101.325
Property: Refractive index (Na D-line) (Liquid); method: Standard Abbe refractometry
Temperature, K	Refractive index (Na D-line)	uncertainty
293.15	1.5022	0.00701
298.15	1.50138	0.00701
303.15	1.50034	0.00701
308.15	1.49927	0.00701
313.15	1.49817	0.00701
318.15	1.49708	0.00701
323.15	1.49599	0.00701

System: 1-(2-cyanoethyl)imidazolium hydrogen sulfate; phases: Liquid
Fixed: Pressure, kPa = 101.325
Property: Mass density, kg/m3 (Liquid); method: Vibrating tube method
Temperature, K	Mass density, kg/m3	uncertainty
293.15	1429.4	4
303.15	1423.3	4
313.15	1417.4	4
323.15	1411.4	4
333.15	1405	4
343.15	1398.8	4
353.15	1393	4
363.15	1385.9	4
373.15	1378.6	4

System: 1-(2-cyanoethyl)imidazolium hydrogen sulfate; phases: Liquid
Fixed: Pressure, kPa = 101.325
Property: Viscosity, Pa*s (Liquid); method: Concentric cylinders viscometry
Temperature, K	Viscosity, Pa*s	uncertainty
293.15	7.937	0.6996
303.15	3.1022	0.223
313.15	1.3979	0.0812
323.15	0.70769	0.03277
333.15	0.39422	0.01428
343.15	0.23685	0.00651
353.15	0.15162	0.00301
363.15	0.10228	0.00135
373.15	0.072104	0.000552

System: 1-(2-cyanoethyl)imidazolium methanesulfonate; phases: Glass, Liquid, Air at 1 atmosphere
Property: Triple point temperature, K (Glass); method: DSC
Triple point temperature, K	uncertainty
213.75	2.12

System: 1-(2-cyanoethyl)imidazolium methanesulfonate; phases: Liquid
Fixed: Pressure, kPa = 101.325
Property: Refractive index (Na D-line) (Liquid); method: Standard Abbe refractometry
Temperature, K	Refractive index (Na D-line)	uncertainty
293.15	1.50224	0.00701
298.15	1.50096	0.00701
303.15	1.49962	0.00701
308.15	1.49826	0.00701
313.15	1.49686	0.00701
318.15	1.49547	0.00701
323.15	1.49402	0.00701

System: 1-(2-cyanoethyl)imidazolium trifluoromethanesulfonate; phases: Crystal, Liquid, Air at 1 atmosphere
Property: Normal melting temperature, K (Crystal); method: DTA
Normal melting temperature, K	uncertainty
372.82	2.03

System: 1-(2-cyanoethyl)imidazolium 4-methylbenzenesulfonate; phases: Glass, Liquid, Air at 1 atmosphere
Property: Triple point temperature, K (Glass); method: DSC
Triple point temperature, K	uncertainty
215.81	2.12

System: 1-(2-cyanoethyl)imidazolium 4-methylbenzenesulfonate; phases: Liquid
Fixed: Pressure, kPa = 101.325
Property: Refractive index (Na D-line) (Liquid); method: Standard Abbe refractometry
Temperature, K	Refractive index (Na D-line)	uncertainty
293.15	1.54509	0.00723
298.15	1.54414	0.00723
303.15	1.54297	0.00723
308.15	1.54177	0.00723
313.15	1.54051	0.00723
318.15	1.53926	0.00723
323.15	1.53798	0.00723

System: 1-(2-cyanoethyl)imidazolium 4-methylbenzenesulfonate; phases: Liquid
Fixed: Pressure, kPa = 101.325
Property: Mass density, kg/m3 (Liquid); method: Vibrating tube method
Temperature, K	Mass density, kg/m3	uncertainty
303.15	1266.3	30.5
313.15	1259.6	30.2
323.15	1253	29.9
333.15	1247.9	29.6
343.15	1241.2	29.3
353.15	1233.7	29
363.15	1229.1	28.7
373.15	1221.5	28.4

System: 1-(2-cyanoethyl)imidazolium 4-methylbenzenesulfonate; phases: Liquid
Fixed: Pressure, kPa = 101.325
Property: Viscosity, Pa*s (Liquid); method: Concentric cylinders viscometry
Temperature, K	Viscosity, Pa*s	uncertainty
303.15	24.795	2.897
313.15	6.9109	0.6689
323.15	2.3766	0.1921
333.15	0.97744	0.06703
343.15	0.45963	0.02727
353.15	0.23996	0.01265
363.15	0.13889	0.00673
373.15	0.085893	0.003952

System: 1-(2-cyanoethyl)imidazolium acetate; phases: Glass, Liquid, Air at 1 atmosphere
Property: Triple point temperature, K (Glass); method: DSC
Triple point temperature, K	uncertainty
195.03	2.12

System: 1-(2-cyanoethyl)imidazolium acetate; phases: Liquid
Fixed: Pressure, kPa = 101.325
Property: Refractive index (Na D-line) (Liquid); method: Standard Abbe refractometry
Temperature, K	Refractive index (Na D-line)	uncertainty
293.15	1.48534	0.00701
298.15	1.48368	0.00701
303.15	1.48197	0.00701
308.15	1.48025	0.00701
313.15	1.47851	0.00701
318.15	1.4768	0.00701
323.15	1.47508	0.00701

System: 1-(2-cyanoethyl)imidazolium acetate; phases: Liquid
Fixed: Pressure, kPa = 101.325
Property: Mass density, kg/m3 (Liquid); method: Vibrating tube method
Temperature, K	Mass density, kg/m3	uncertainty
293.15	1127.7	4.1
303.15	1120.5	4.1
313.15	1113	4.1
323.15	1105.2	4.1
333.15	1097.7	4.1
343.15	1089.8	4.1
353.15	1082	4.1
363.15	1073.2	4.1
373.15	1062.2	4.1

System: 1-(2-cyanoethyl)imidazolium acetate; phases: Liquid
Fixed: Pressure, kPa = 101.325
Property: Viscosity, Pa*s (Liquid); method: Concentric cylinders viscometry
Temperature, K	Viscosity, Pa*s	uncertainty
293.15	0.10822	0.001736
303.15	0.055284	0.000486
313.15	0.031575	0.000301
323.15	0.019789	0.000189
333.15	0.013323	0.000128
343.15	0.009483	9.2e-05
353.15	0.007118	6.9e-05
363.15	0.005294	5.2e-05
373.15	0.004252	4.2e-05

System: 1-(2-cyanoethyl)imidazolium trifluoroacetate; phases: Crystal, Liquid, Air at 1 atmosphere
Property: Normal melting temperature, K (Crystal); method: DTA
Normal melting temperature, K	uncertainty
259.67	2.03
