Measured thermophysical data. Vapor Pressure Osmometry Studies of Aqueous Ionic Liquid-Carbohydrate Systems
Source: J. Chem. Eng. Data, 2018, 10.1021/acs.jced.7b00719
Compound 1: 4-O-.alpha.-D-glucopyranosyl-D-glucitol, C12H24O11, InChI=1S/C12H24O11/c13-1-4(16)7(18)11(5(17)2-14)23-12-10(21)9(20)8(19)6(3-15)22-12/h4-21H,1-3H2/t4-,5+,6+,7+,8+,9-,10+,11+,12+/m0/s1, purity 97%
Compound 2: D-sucrose, C12H22O11, InChI=1S/C12H22O11/c13-1-4-6(16)8(18)9(19)11(21-4)23-12(3-15)10(20)7(17)5(2-14)22-12/h4-11,13-20H,1-3H2/t4-,5-,6-,7-,8+,9-,10+,11-,12+/m1/s1, purity 98%
Compound 3: .beta.-D-maltose, C12H22O11, InChI=1S/C12H22O11/c13-1-3-5(15)6(16)9(19)12(22-3)23-10-4(2-14)21-11(20)8(18)7(10)17/h3-20H,1-2H2/t3-,4-,5-,6+,7-,8-,9-,10-,11-,12-/m1/s1, purity 99%
Compound 4: 1-butyl-3-methylimidazolium hydrogen sulfate, C8H16N2O4S, InChI=1S/C8H15N2.H2O4S/c1-3-4-5-10-7-6-9(2)8-10;1-5(2,3)4/h6-8H,3-5H2,1-2H3;(H2,1,2,3,4)/q+1;/p-1, purity 99%
Compound 5: 1-butyl-3-methylimidazolium bromide, C8H15BrN2, InChI=1S/C8H15N2.BrH/c1-3-4-5-10-7-6-9(2)8-10;/h6-8H,3-5H2,1-2H3;1H/q+1;/p-1, purity 98%
Compound 6: 1-butyl-3-methylimidazolium tetrafluoroborate, C8H15BF4N2, InChI=1S/C8H15N2.BF4/c1-3-4-5-10-7-6-9(2)8-10;2-1(3,4)5/h6-8H,3-5H2,1-2H3;/q+1;-1, purity 98%
Compound 7: water, H2O, InChI=1S/H2O/h1H2, purity 99.9%

System: 1-butyl-3-methylimidazolium tetrafluoroborate + D-sucrose + water; phases: Liquid, Gas
Fixed: Temperature, K = 308.15
Fixed: Molality, mol/kg of D-sucrose = 1
Property: (Relative) activity of water (Liquid); method: Osmomat K-7000
Molality, mol/kg of 1-butyl-3-methylimidazolium tetrafluoroborate	(Relative) activity of water	uncertainty
0	0.9811	0.0387
0.4772	0.968	0.0387
0.929	0.9609	0.0387
1.515	0.9551	0.0387
2.0601	0.9524	0.0387
2.64	0.9526	0.0387
2.7012	0.9526	0.0387
3.2435	0.952	0.0387

System: 1-butyl-3-methylimidazolium tetrafluoroborate + D-sucrose + water; phases: Liquid, Gas
Fixed: Temperature, K = 308.15
Fixed: Molality, mol/kg of 1-butyl-3-methylimidazolium tetrafluoroborate = 1.5
Property: (Relative) activity of water (Liquid); method: Osmomat K-7000
Molality, mol/kg of D-sucrose	(Relative) activity of water	uncertainty
0	0.9786	0.0387
0.2608	0.9727	0.0387
0.754	0.9623	0.0387
1.2818	0.95	0.0387
1.5832	0.9446	0.0387
2.0081	0.9371	0.0387

System: 1-butyl-3-methylimidazolium tetrafluoroborate + .beta.-D-maltose + water; phases: Liquid, Gas
Fixed: Temperature, K = 308.15
Fixed: Molality, mol/kg of .beta.-D-maltose = 1
Property: (Relative) activity of water (Liquid); method: Osmomat K-7000
Molality, mol/kg of 1-butyl-3-methylimidazolium tetrafluoroborate	(Relative) activity of water	uncertainty
0	0.9818	0.0387
0.2571	0.9738	0.0387
0.5665	0.9668	0.0387
1.0799	0.9593	0.0387
1.5394	0.9556	0.0387
1.8066	0.9552	0.0387
1.8117	0.9557	0.0387
2.0676	0.9553	0.0387
2.5288	0.9544	0.0387

System: 1-butyl-3-methylimidazolium tetrafluoroborate + .beta.-D-maltose + water; phases: Liquid, Gas
Fixed: Temperature, K = 308.15
Fixed: Molality, mol/kg of 1-butyl-3-methylimidazolium tetrafluoroborate = 1.5
Property: (Relative) activity of water (Liquid); method: Osmomat K-7000
Molality, mol/kg of .beta.-D-maltose	(Relative) activity of water	uncertainty
0	0.9786	0.0387
0.4298	0.9683	0.0387
0.7806	0.9609	0.0387
1.2089	0.9517	0.0387
1.3978	0.95	0.0387
1.8046	0.9445	0.0387

System: 1-butyl-3-methylimidazolium tetrafluoroborate + 4-O-.alpha.-D-glucopyranosyl-D-glucitol + water; phases: Liquid, Gas
Fixed: Temperature, K = 308.15
Fixed: Molality, mol/kg of 4-O-.alpha.-D-glucopyranosyl-D-glucitol = 1
Property: (Relative) activity of water (Liquid); method: Osmomat K-7000
Molality, mol/kg of 1-butyl-3-methylimidazolium tetrafluoroborate	(Relative) activity of water	uncertainty
0	0.9813	0.0387
0.2561	0.9731	0.0387
0.3863	0.9698	0.0387
0.7878	0.9623	0.0387
1.373	0.9561	0.0387
1.5135	0.9565	0.0387
2.0728	0.9559	0.0387

System: 1-butyl-3-methylimidazolium tetrafluoroborate + 4-O-.alpha.-D-glucopyranosyl-D-glucitol + water; phases: Liquid, Gas
Fixed: Temperature, K = 308.15
Fixed: Molality, mol/kg of 1-butyl-3-methylimidazolium tetrafluoroborate = 1.5
Property: (Relative) activity of water (Liquid); method: Osmomat K-7000
Molality, mol/kg of 4-O-.alpha.-D-glucopyranosyl-D-glucitol	(Relative) activity of water	uncertainty
0	0.9786	0.0388
0.4292	0.9678	0.0388
0.8164	0.9591	0.0387
1.1046	0.9544	0.0387
1.6086	0.9477	0.0387
1.9741	0.9396	0.0388

System: 1-butyl-3-methylimidazolium bromide + D-sucrose + water; phases: Liquid, Gas
Fixed: Temperature, K = 308.15
Fixed: Molality, mol/kg of D-sucrose = 1
Property: (Relative) activity of water (Liquid); method: Osmomat K-7000
Molality, mol/kg of 1-butyl-3-methylimidazolium bromide	(Relative) activity of water	uncertainty
0	0.9814	0.0387
0.3095	0.9725	0.0387
0.5262	0.9668	0.0387
0.761	0.9609	0.0387

System: 1-butyl-3-methylimidazolium bromide + D-sucrose + water; phases: Liquid, Gas
Fixed: Temperature, K = 308.15
Fixed: Molality, mol/kg of 1-butyl-3-methylimidazolium bromide = 1
Property: (Relative) activity of water (Liquid); method: Osmomat K-7000
Molality, mol/kg of D-sucrose	(Relative) activity of water	uncertainty
0	0.9737	0.0387
0.5116	0.963	0.0387
1.5644	0.9398	0.0387
2.56	0.9165	0.0387

System: 1-butyl-3-methylimidazolium bromide + .beta.-D-maltose + water; phases: Liquid, Gas
Fixed: Temperature, K = 308.15
Fixed: Molality, mol/kg of .beta.-D-maltose = 1
Property: (Relative) activity of water (Liquid); method: Osmomat K-7000
Molality, mol/kg of 1-butyl-3-methylimidazolium bromide	(Relative) activity of water	uncertainty
0	0.9829	0.0387
0.3292	0.9735	0.0387
0.5639	0.9673	0.0387
0.771	0.9623	0.0387
0.9929	0.9571	0.0387
1.4629	0.947	0.0387

System: 1-butyl-3-methylimidazolium bromide + .beta.-D-maltose + water; phases: Liquid, Gas
Fixed: Temperature, K = 308.15
Fixed: Molality, mol/kg of 1-butyl-3-methylimidazolium bromide = 1
Property: (Relative) activity of water (Liquid); method: Osmomat K-7000
Molality, mol/kg of .beta.-D-maltose	(Relative) activity of water	uncertainty
0	0.9737	0.0387
0.5854	0.9616	0.0387
0.8992	0.9552	0.0387
1.1204	0.9509	0.0387

System: 1-butyl-3-methylimidazolium bromide + 4-O-.alpha.-D-glucopyranosyl-D-glucitol + water; phases: Liquid, Gas
Fixed: Temperature, K = 308.15
Fixed: Molality, mol/kg of 4-O-.alpha.-D-glucopyranosyl-D-glucitol = 1
Property: (Relative) activity of water (Liquid); method: Osmomat K-7000
Molality, mol/kg of 1-butyl-3-methylimidazolium bromide	(Relative) activity of water	uncertainty
0	0.9813	0.0387
0.3053	0.9725	0.0387
0.5183	0.9668	0.0387
0.7629	0.9608	0.0387

System: 1-butyl-3-methylimidazolium bromide + 4-O-.alpha.-D-glucopyranosyl-D-glucitol + water; phases: Liquid, Gas
Fixed: Temperature, K = 308.15
Fixed: Molality, mol/kg of 1-butyl-3-methylimidazolium bromide = 1
Property: (Relative) activity of water (Liquid); method: Osmomat K-7000
Molality, mol/kg of 4-O-.alpha.-D-glucopyranosyl-D-glucitol	(Relative) activity of water	uncertainty
0	0.9737	0.0387
0.7093	0.9588	0.0387
0.8365	0.9559	0.0387
1.1777	0.9482	0.0387
1.3042	0.9453	0.0387
1.9174	0.9312	0.0387

System: 1-butyl-3-methylimidazolium hydrogen sulfate + D-sucrose + water; phases: Liquid, Gas
Fixed: Temperature, K = 308.15
Fixed: Molality, mol/kg of D-sucrose = 1
Property: (Relative) activity of water (Liquid); method: Osmomat K-7000
Molality, mol/kg of 1-butyl-3-methylimidazolium hydrogen sulfate	(Relative) activity of water	uncertainty
0	0.9813	0.0387
0.344	0.9678	0.0387
1.1305	0.9418	0.0387
1.9503	0.9175	0.0387
2.7635	0.8954	0.0387

System: 1-butyl-3-methylimidazolium hydrogen sulfate + D-sucrose + water; phases: Liquid, Gas
Fixed: Temperature, K = 308.15
Fixed: Molality, mol/kg of 1-butyl-3-methylimidazolium hydrogen sulfate = 1
Property: (Relative) activity of water (Liquid); method: Osmomat K-7000
Molality, mol/kg of D-sucrose	(Relative) activity of water	uncertainty
0	0.9697	0.0387
0.207	0.9631	0.0387
0.6429	0.951	0.0387
0.8307	0.9463	0.0387
1.1873	0.9361	0.0387

System: 1-butyl-3-methylimidazolium hydrogen sulfate + .beta.-D-maltose + water; phases: Liquid, Gas
Fixed: Temperature, K = 308.15
Fixed: Molality, mol/kg of .beta.-D-maltose = 1
Property: (Relative) activity of water (Liquid); method: Osmomat K-7000
Molality, mol/kg of 1-butyl-3-methylimidazolium hydrogen sulfate	(Relative) activity of water	uncertainty
0	0.9816	0.0387
0.3351	0.969	0.0387
0.6151	0.9594	0.0387
1.2209	0.94	0.0387
1.8604	0.921	0.0387
2.6014	0.9016	0.0387

System: 1-butyl-3-methylimidazolium hydrogen sulfate + .beta.-D-maltose + water; phases: Liquid, Gas
Fixed: Temperature, K = 308.15
Fixed: Molality, mol/kg of 1-butyl-3-methylimidazolium hydrogen sulfate = 1
Property: (Relative) activity of water (Liquid); method: Osmomat K-7000
Molality, mol/kg of .beta.-D-maltose	(Relative) activity of water	uncertainty
0	0.9697	0.0387
0.1628	0.9659	0.0387
0.4929	0.9584	0.0387
0.797	0.9516	0.0387
1.1303	0.9443	0.0387

System: 1-butyl-3-methylimidazolium hydrogen sulfate + 4-O-.alpha.-D-glucopyranosyl-D-glucitol + water; phases: Liquid, Gas
Fixed: Temperature, K = 308.15
Fixed: Molality, mol/kg of 4-O-.alpha.-D-glucopyranosyl-D-glucitol = 1
Property: (Relative) activity of water (Liquid); method: Osmomat K-7000
Molality, mol/kg of 1-butyl-3-methylimidazolium hydrogen sulfate	(Relative) activity of water	uncertainty
0	0.9814	0.0387
0.6116	0.9591	0.0387
1.1172	0.943	0.0387
1.1335	0.9425	0.0387
1.5263	0.9307	0.0387
2.5753	0.9023	0.0387

System: 1-butyl-3-methylimidazolium hydrogen sulfate + 4-O-.alpha.-D-glucopyranosyl-D-glucitol + water; phases: Liquid, Gas
Fixed: Temperature, K = 308.15
Fixed: Molality, mol/kg of 1-butyl-3-methylimidazolium hydrogen sulfate = 1
Property: (Relative) activity of water (Liquid); method: Osmomat K-7000
Molality, mol/kg of 4-O-.alpha.-D-glucopyranosyl-D-glucitol	(Relative) activity of water	uncertainty
0	0.9697	0.0387
0.1735	0.9658	0.0387
0.5318	0.9574	0.0387
0.9077	0.9484	0.0387
