Measured thermophysical data. Measurement of the Speed of Sound in Methyl Caprylate from 298.22 to 608.38 K and up to 10 MPa
Source: J. Chem. Eng. Data, 2019, 10.1021/acs.jced.9b00371
Compound 1: methyl octanoate, C9H18O2, InChI=1S/C9H18O2/c1-3-4-5-6-7-8-9(10)11-2/h3-8H2,1-2H3, purity 99.899%

System: methyl octanoate; phases: Liquid
Property: Speed of sound, m/s (Liquid); method: Brillouin light scattering method
Temperature, K	Pressure, kPa	Speed of sound, m/s	uncertainty
298.84	90	1274.5	14
308.42	100	1236.4	14.8
319.59	110	1192.3	14.3
328.36	100	1158	13.9
337.63	100	1121.6	14.6
348.45	110	1078.6	14
358.16	100	1044.6	13.6
367.29	110	1015.5	14.2
378.27	100	975.6	13.7
387.15	110	947.3	13.3
397.71	100	910.7	13.7
408.14	100	873.1	13.1
417.49	110	841.4	13.5
427.78	110	811.6	13
438.55	100	775.1	13.2
448.01	110	744.4	13.4
298.44	1010	1292.1	14.2
308.52	1010	1248.8	15
319.89	1010	1194.5	14.3
328.88	1010	1155.4	13.9
338.43	1010	1125.5	14.6
348.8	1000	1085.5	14.1
358.56	1010	1049.3	13.6
368.05	1000	1017.5	14.2
377.8	1000	989.1	13.9
388.02	1000	952.1	13.3
397.22	1010	922.4	13.8
409.43	1000	879.8	13.2
417.31	1010	850.6	13.6
427.9	1010	822.3	13.2
438.61	1000	780.2	13.3
447.87	1010	754.6	12.8
388.04	5000	978.4	13.7
397.59	5010	949.2	13.3
407.84	5010	916.3	13.8
417.49	5000	885.5	13.3
427.95	5010	855.8	13.7
438.87	5000	823.4	13.2
447.88	5000	793.5	13.5
458.07	5010	760.9	12.9
467.9	5000	738.9	13.3
476.82	5010	710.8	12.8
486.92	5010	682	13
498.41	5000	644.1	12.9
507.91	5010	620.4	13
517.81	5000	594.2	13.1
528.28	5010	569.1	12.5
537.67	5000	543.3	12.5
547.13	5010	516	12.9
557.94	5010	489.3	12.7
567.7	5000	461	12.5
577.79	5000	432.1	12.1
588.02	5010	411.1	12
598.29	5010	384.1	11.6
608.23	5000	353.7	11
298.22	7000	1316.3	14.5
308.49	7010	1280.4	14.1
318.56	7020	1229.5	14.8
328.69	7010	1191.4	14.3
337.88	7010	1157.9	13.9
348.77	7000	1120.5	14.6
358.25	7000	1095.1	14.2
367.73	7010	1060.7	13.8
378.03	7000	1027.3	13.4
457.92	1000	724.7	13.1
468.47	1010	694.8	13.2
477.06	1000	665	13.3
486.8	1000	631	12.6
498.83	1000	596.6	13.1
507.85	1010	568.9	12.5
517.73	1000	534.7	12.8
527.6	1010	500	12.5
537.38	1000	472.9	12.8
547.06	1000	438.8	12.8
557.84	1000	403.8	12.5
567.35	1010	371.2	12.7
298.6	3000	1298.2	14.3
308.25	3010	1258.8	15.1
318.91	3010	1208	14.5
328.11	3020	1171.3	14.1
338.96	3000	1134.3	13.6
347.39	3000	1104.6	14.4
357.69	3010	1071.8	13.9
367.28	3000	1038.1	13.5
378.6	3000	1000.4	14
387.64	3000	964.7	13.5
397.37	3010	934	14
408.03	3000	896.1	13.4
417.75	3000	867.9	13
427.93	3010	837.5	13.4
438.94	3010	803.1	13.7
447.96	3010	776.7	13.2
458.17	3000	744.1	13.4
468.68	3000	713.7	12.9
477.88	3010	685.8	13
486.87	3000	654.3	13.1
498.13	3010	625.4	13.1
388.01	7000	991.8	13.9
397.57	7010	963.7	13.5
408.48	7010	933.8	14
417.57	7000	904.2	13.6
427.88	7010	873.7	13.1
438.81	7000	838.7	13.4
447.92	7000	813.8	13
458.12	7010	782.2	13.3
467.58	7010	759.7	12.9
477.26	7010	729	13.1
486.96	7010	700	13.3
498.28	7000	667.5	12.7
507.87	7000	646.1	12.9
517.79	7000	619	13
527.51	7010	600	12.6
537.57	7000	569.9	12.5
547.67	7000	544	12.5
558.16	7000	515.9	12.9
567.81	7000	495.4	12.9
577.89	7000	469.8	12.7
588.47	7010	450.4	12.6
598.07	7000	426.9	12.4
608.09	7010	400.7	12.5
298.3	10010	1327.9	14.6
308.37	10010	1291.2	14.2
318.76	10010	1242.4	14.9
328.82	10010	1209.9	14.5
338.46	10010	1174.8	14.1
347.87	10010	1148.4	13.8
357.91	10000	1112.7	14.5
367.47	10010	1078.4	14
378.29	10000	1047.1	13.6
387.88	10010	1017.7	14.3
507.89	3010	596.3	13.1
517.71	3000	567.5	13.1
527.66	3010	537.5	12.9
537.63	3010	511.3	12.8
547.87	3000	480.9	12.5
558.2	3000	448	12.1
567.91	3010	418.8	11.8
577.4	3010	389.4	11.3
587.88	3000	361.9	10.9
597.58	3000	331.4	10.3
608.38	3000	294.3	9.5
298.44	5000	1307.1	14.4
308.58	5010	1270.1	14
318.18	5010	1221.3	14.7
327.96	5010	1186	14.2
338.47	5000	1147.2	13.8
348.54	5020	1109.1	14.4
357.74	5000	1079.2	14
367.26	5000	1049.2	13.6
378.16	4990	1013.1	14.2
397.49	10010	988	13.8
408.01	10010	954.1	13.4
417.65	10000	925.4	13.9
427.94	10010	899.7	13.5
438.61	10010	866.1	13
447.96	10000	841	13.5
458.18	10010	810.7	13
467.43	10010	784.5	13.3
477	10010	759.6	12.9
487	10010	738.2	13.3
498.28	10000	705	13.4
507.91	10000	680.6	12.9
518.17	10000	658.9	13.2
528.05	10000	631.9	12.6
537.72	9990	609.6	12.8
547.47	10010	583.9	12.9
558.18	10010	561.2	12.9
567.95	10010	543.8	12.5
578.16	10000	522.9	12.6
