Measured thermophysical data. Isobaric Vapor-Liquid Equilibria of Binary Mixtures of Diethyl Carbonate with Methyl Acetate, n-Propyl Acetate, or Amyl Acetate at 100.17 kPa
Source: J. Chem. Eng. Data, 2019, 10.1021/acs.jced.9b00068
Compound 1: diethyl carbonate, C5H10O3, InChI=1S/C5H10O3/c1-3-7-5(6)8-4-2/h3-4H2,1-2H3, purity 99.5%
Compound 2: methyl ethanoate, C3H6O2, InChI=1S/C3H6O2/c1-3(4)5-2/h1-2H3, purity 99.9%
Compound 3: propyl ethanoate, C5H10O2, InChI=1S/C5H10O2/c1-3-4-7-5(2)6/h3-4H2,1-2H3, purity 99.8%
Compound 4: pentyl ethanoate, C7H14O2, InChI=1S/C7H14O2/c1-3-4-5-6-9-7(2)8/h3-6H2,1-2H3, purity 99.7%
Compound 5: methanol, CH4O, InChI=1S/CH4O/c1-2/h2H,1H3, purity 99.9%
Compound 6: dimethyl carbonate, C3H6O3, InChI=1S/C3H6O3/c1-5-3(4)6-2/h1-2H3, purity 99.6%

System: diethyl carbonate; phases: Liquid
Property: Refractive index (Na D-line) (Liquid); method: Standard Abbe refractometry
Temperature, K	Pressure, kPa	Refractive index (Na D-line)	uncertainty
298.15	101.325	1.3821	0.0004

System: diethyl carbonate; phases: Liquid
Property: Mass density, kg/m3 (Liquid); method: Vibrating tube method
Temperature, K	Pressure, kPa	Mass density, kg/m3	uncertainty
298.15	101.325	969.4	0.2

System: diethyl carbonate; phases: Liquid, Gas
Property: Vapor or sublimation pressure, kPa (Liquid); method: Ebulliometric method (Recirculating still)
Temperature, K	Vapor or sublimation pressure, kPa	uncertainty
399.6	100.17	2.02

System: methyl ethanoate; phases: Liquid
Property: Refractive index (Na D-line) (Liquid); method: Standard Abbe refractometry
Temperature, K	Pressure, kPa	Refractive index (Na D-line)	uncertainty
298.15	101.325	1.3587	0.0004

System: methyl ethanoate; phases: Liquid
Property: Mass density, kg/m3 (Liquid); method: Vibrating tube method
Temperature, K	Pressure, kPa	Mass density, kg/m3	uncertainty
298.15	101.325	927.4	0.2

System: methyl ethanoate; phases: Liquid, Gas
Property: Vapor or sublimation pressure, kPa (Liquid); method: Ebulliometric method (Recirculating still)
Temperature, K	Vapor or sublimation pressure, kPa	uncertainty
330.2	100.17	2.02

System: propyl ethanoate; phases: Liquid
Property: Refractive index (Na D-line) (Liquid); method: Standard Abbe refractometry
Temperature, K	Pressure, kPa	Refractive index (Na D-line)	uncertainty
298.15	101.325	1.3815	0.0004

System: propyl ethanoate; phases: Liquid
Property: Mass density, kg/m3 (Liquid); method: Vibrating tube method
Temperature, K	Pressure, kPa	Mass density, kg/m3	uncertainty
298.15	101.325	882.9	0.2

System: propyl ethanoate; phases: Liquid, Gas
Property: Vapor or sublimation pressure, kPa (Liquid); method: Ebulliometric method (Recirculating still)
Temperature, K	Vapor or sublimation pressure, kPa	uncertainty
373.8	100.17	2.02

System: pentyl ethanoate; phases: Liquid
Property: Refractive index (Na D-line) (Liquid); method: Standard Abbe refractometry
Temperature, K	Pressure, kPa	Refractive index (Na D-line)	uncertainty
298.15	101.325	1.3999	0.0004

System: pentyl ethanoate; phases: Liquid
Property: Mass density, kg/m3 (Liquid); method: Vibrating tube method
Temperature, K	Pressure, kPa	Mass density, kg/m3	uncertainty
298.15	101.325	872.3	0.2

System: pentyl ethanoate; phases: Liquid, Gas
Property: Vapor or sublimation pressure, kPa (Liquid); method: Ebulliometric method (Recirculating still)
Temperature, K	Vapor or sublimation pressure, kPa	uncertainty
421.6	100.17	2.02

System: methanol; phases: Liquid
Property: Refractive index (Na D-line) (Liquid); method: Standard Abbe refractometry
Temperature, K	Pressure, kPa	Refractive index (Na D-line)	uncertainty
298.15	101.325	1.3275	0.0004

System: methanol; phases: Liquid
Property: Mass density, kg/m3 (Liquid); method: Vibrating tube method
Temperature, K	Pressure, kPa	Mass density, kg/m3	uncertainty
298.15	101.325	787.7	0.2

System: methanol; phases: Liquid, Gas
Property: Vapor or sublimation pressure, kPa (Liquid); method: Ebulliometric method (Recirculating still)
Temperature, K	Vapor or sublimation pressure, kPa	uncertainty
337.5	100.17	2.02

System: dimethyl carbonate; phases: Liquid
Property: Refractive index (Na D-line) (Liquid); method: Standard Abbe refractometry
Temperature, K	Pressure, kPa	Refractive index (Na D-line)	uncertainty
298.15	101.325	1.3664	0.0004

System: dimethyl carbonate; phases: Liquid
Property: Mass density, kg/m3 (Liquid); method: Vibrating tube method
Temperature, K	Pressure, kPa	Mass density, kg/m3	uncertainty
298.15	101.325	1062.7	0.2

System: dimethyl carbonate; phases: Liquid, Gas
Property: Vapor or sublimation pressure, kPa (Liquid); method: Ebulliometric method (Recirculating still)
Temperature, K	Vapor or sublimation pressure, kPa	uncertainty
362.5	100.17	2.02

System: methyl ethanoate + diethyl carbonate; phases: Liquid, Gas
Fixed: Pressure, kPa = 100.17
Property: Boiling temperature at pressure P, K (Liquid); method: Ebulliometric method (Recirculating still)
Mole fraction of methyl ethanoate	Boiling temperature at pressure P, K	uncertainty
0	399.6	1.1
0.027	395.4	1.1
0.061	389.4	1.1
0.1	383.4	1.1
0.177	372.9	1.1
0.263	365.5	1.1
0.355	358.3	1.1
0.432	353.3	1.1
0.526	348	1.1
0.614	343.5	1.1
0.709	339.6	1.1
0.835	335.1	1.1
0.915	332.7	1.1
0.972	331.2	1.1
1	330.2	1.1

System: methyl ethanoate + diethyl carbonate; phases: Gas, Liquid
Fixed: Pressure, kPa = 100.17
Property: Mole fraction of methyl ethanoate (Gas); method: Chromatography
Mole fraction of methyl ethanoate	Mole fraction of methyl ethanoate	uncertainty
0	0	
0.027	0.126	0.005
0.061	0.292	0.005
0.1	0.44	0.005
0.177	0.63	0.004
0.263	0.749	0.003
0.355	0.83	0.002
0.432	0.875	0.002
0.526	0.911	0.001
0.614	0.942	0.001
0.709	0.966	0.001
0.835	0.99	0.001
0.915	0.996	0.001
0.972	0.999	0.001
1	1	

System: propyl ethanoate + diethyl carbonate; phases: Liquid, Gas
Fixed: Pressure, kPa = 100.17
Property: Boiling temperature at pressure P, K (Liquid); method: Ebulliometric method (Recirculating still)
Mole fraction of propyl ethanoate	Boiling temperature at pressure P, K	uncertainty
0	399.6	1.1
0.035	398.3	1.1
0.107	396	1.1
0.181	393.6	1.1
0.246	391.6	1.1
0.326	389.4	1.1
0.39	387.5	1.1
0.464	385.5	1.1
0.548	383.3	1.1
0.611	381.9	1.1
0.702	379.9	1.1
0.779	378.3	1.1
0.898	375.8	1.1
0.963	374.3	1.1
1	373.8	1.1

System: propyl ethanoate + diethyl carbonate; phases: Gas, Liquid
Fixed: Pressure, kPa = 100.17
Property: Mole fraction of propyl ethanoate (Gas); method: Chromatography
Mole fraction of propyl ethanoate	Mole fraction of propyl ethanoate	uncertainty
0	0	
0.035	0.063	0.002
0.107	0.19	0.003
0.181	0.308	0.003
0.246	0.401	0.004
0.326	0.503	0.005
0.39	0.575	0.004
0.464	0.65	0.004
0.548	0.725	0.003
0.611	0.774	0.002
0.702	0.839	0.002
0.779	0.887	0.002
0.898	0.952	0.001
0.963	0.984	0.001
1	1	

System: diethyl carbonate + pentyl ethanoate; phases: Liquid, Gas
Fixed: Pressure, kPa = 100.17
Property: Boiling temperature at pressure P, K (Liquid); method: Ebulliometric method (Recirculating still)
Mole fraction of diethyl carbonate	Boiling temperature at pressure P, K	uncertainty
0	421.6	1.1
0.038	418.7	1.1
0.107	417.3	1.1
0.181	415.7	1.1
0.258	414	1.1
0.305	412.9	1.1
0.373	411.3	1.1
0.43	410.1	1.1
0.518	408.3	1.1
0.583	407	1.1
0.649	405.6	1.1
0.743	403.9	1.1
0.793	403	1.1
0.895	401.1	1.1
0.966	399.9	1.1
1	399.6	1.1

System: diethyl carbonate + pentyl ethanoate; phases: Gas, Liquid
Fixed: Pressure, kPa = 100.17
Property: Mole fraction of diethyl carbonate (Gas); method: Chromatography
Mole fraction of diethyl carbonate	Mole fraction of diethyl carbonate	uncertainty
0	0	
0.038	0.1	0.002
0.107	0.205	0.003
0.181	0.297	0.003
0.258	0.393	0.004
0.305	0.442	0.004
0.373	0.522	0.005
0.43	0.582	0.004
0.518	0.662	0.004
0.583	0.716	0.003
0.649	0.774	0.003
0.743	0.842	0.002
0.793	0.877	0.002
0.895	0.94	0.001
0.966	0.982	0.001
1	1	

System: methanol + dimethyl carbonate; phases: Liquid, Gas
Fixed: Pressure, kPa = 100.17
Property: Boiling temperature at pressure P, K (Liquid); method: Ebulliometric method (Recirculating still)
Mole fraction of methanol	Boiling temperature at pressure P, K	uncertainty
0	362.5	1.1
0.037	357.4	1.1
0.085	352.7	1.1
0.153	348.3	1.1
0.312	342.1	1.1
0.352	341.2	1.1
0.622	338	1.1
0.735	337.4	1.1
0.829	337	1.1
0.858	336.9	1.1
0.893	336.9	1.1
0.91	336.9	1.1
0.917	337	1.1
0.943	337.1	1.1
0.965	337.2	1.1
0.982	337.3	1.1
1	337.5	1.1

System: methanol + dimethyl carbonate; phases: Gas, Liquid
Fixed: Pressure, kPa = 100.17
Property: Mole fraction of methanol (Gas); method: Chromatography
Mole fraction of methanol	Mole fraction of methanol	uncertainty
0	0	
0.037	0.204	0.005
0.085	0.346	0.004
0.153	0.476	0.005
0.312	0.64	0.004
0.352	0.674	0.003
0.622	0.761	0.002
0.735	0.808	0.002
0.829	0.855	0.002
0.858	0.871	0.002
0.893	0.89	0.002
0.91	0.9	0.002
0.917	0.907	0.002
0.943	0.92	0.002
0.965	0.949	0.002
0.982	0.972	0.002
1	1	
