Measured thermophysical data. Solubility of Etoricoxib in Aqueous Solutions of Glycerin, Methanol, Polyethylene Glycols 200, 400, 600, and Propylene Glycol at 298.2 K
Source: J. Chem. Eng. Data, 2018, 10.1021/acs.jced.7b00709
Compound 1: etoricoxib, C18H15ClN2O2S, InChI=1S/C18H15ClN2O2S/c1-12-3-4-14(10-20-12)18-17(9-15(19)11-21-18)13-5-7-16(8-6-13)24(2,22)23/h3-11H,1-2H3, purity 99%
Compound 2: glycerol, C3H8O3, InChI=1S/C3H8O3/c4-1-3(6)2-5/h3-6H,1-2H2, purity 99.5%
Compound 3: methanol, CH4O, InChI=1S/CH4O/c1-2/h2H,1H3, purity 99.9%
Compound 4: 1,2-propanediol, C3H8O2, InChI=1S/C3H8O2/c1-3(5)2-4/h3-5H,2H2,1H3, purity 99.5%
Compound 5: water, H2O, InChI=1S/H2O/h1H2, purity 99.9%

System: etoricoxib + glycerol + water; phases: Liquid, Crystal
Fixed: Temperature, K = 298.2
Fixed: Pressure, kPa = 100
Property: Mole fraction of etoricoxib (Liquid); method: UV spectroscopy
Solvent: Mass fraction of glycerol	Mole fraction of etoricoxib	uncertainty
0	1.58e-05	1.6e-06
0.1	1.66e-05	1.7e-06
0.2	1.85e-05	1.9e-06
0.3	4.25e-05	4.3e-06
0.4	9.85e-05	9.9e-06
0.5	0.0003101	3.1e-05
0.6	0.001279	0.000128
0.7	0.004786	0.000479
0.8	0.01818	0.00182
0.9	0.04846	0.00485
1	0.05656	0.00566

System: etoricoxib + glycerol + water; phases: Liquid
Fixed: Pressure, kPa = 100
Fixed: Temperature, K = 298.2
Property: Mass density, kg/m3 (Liquid); method: Pycnometric method
Solvent: Mass fraction of glycerol	Mole fraction of etoricoxib	Mass density, kg/m3	uncertainty
0	1.58e-05	994.8	1
0.1	1.66e-05	1035	2.1
0.2	1.85e-05	1074	1.1
0.3	4.25e-05	1112	1.2
0.4	9.85e-05	1147	1.2
0.5	0.0003101	1182	1.3
0.6	0.001279	1214	1.3
0.7	0.004786	1237	1.3
0.8	0.01818	1262	1.7
0.9	0.04846	1294	6.3
1	0.05656	1298	1.6

System: etoricoxib + methanol + water; phases: Liquid, Crystal
Fixed: Temperature, K = 298.2
Fixed: Pressure, kPa = 100
Property: Mole fraction of etoricoxib (Liquid); method: UV spectroscopy
Solvent: Mass fraction of methanol	Mole fraction of etoricoxib	uncertainty
0	1.58e-05	1.6e-06
0.1	1.74e-05	1.7e-06
0.2	2.75e-05	2.8e-06
0.3	5.93e-05	5.9e-06
0.4	0.0001472	1.47e-05
0.5	0.0003993	3.99e-05
0.6	0.00145	0.000145
0.7	0.005617	0.000562
0.8	0.01673	0.00167
0.9	0.0413	0.00413
1	0.03786	0.00379

System: etoricoxib + methanol + water; phases: Liquid
Fixed: Pressure, kPa = 100
Fixed: Temperature, K = 298.2
Property: Mass density, kg/m3 (Liquid); method: Pycnometric method
Solvent: Mass fraction of methanol	Mole fraction of etoricoxib	Mass density, kg/m3	uncertainty
0	1.58e-05	994.8	1
0.1	1.74e-05	978.5	1
0.2	2.75e-05	962.5	1
0.3	5.93e-05	947.5	1
0.4	0.0001472	931.2	1
0.5	0.0003993	914	1
0.6	0.00145	895.5	0.9
0.7	0.005617	876	0.9
0.8	0.01673	853.7	1.1
0.9	0.0413	829.1	0.9
1	0.03786	805	0.8

System: etoricoxib + 1,2-propanediol + water; phases: Liquid, Crystal
Fixed: Temperature, K = 298.2
Fixed: Pressure, kPa = 100
Property: Mole fraction of etoricoxib (Liquid); method: UV spectroscopy
Solvent: Mass fraction of 1,2-propanediol	Mole fraction of etoricoxib	uncertainty
0	1.58e-05	1.6e-06
0.1	2.7e-05	2.7e-06
0.2	4.74e-05	4.7e-06
0.3	9.76e-05	9.8e-06
0.4	0.000237	2.37e-05
0.5	0.0006388	6.39e-05
0.6	0.002284	0.000228
0.7	0.008938	0.000894
0.8	0.02737	0.00274
0.9	0.05986	0.00599
1	0.06047	0.00605

System: etoricoxib + 1,2-propanediol + water; phases: Liquid
Fixed: Pressure, kPa = 100
Fixed: Temperature, K = 298.2
Property: Mass density, kg/m3 (Liquid); method: Pycnometric method
Solvent: Mass fraction of 1,2-propanediol	Mole fraction of etoricoxib	Mass density, kg/m3	uncertainty
0	1.58e-05	994.8	1
0.1	2.7e-05	1004.5	1.1
0.2	4.74e-05	1013.5	1.1
0.3	9.76e-05	1022.5	1.1
0.4	0.000237	1028.5	1.1
0.5	0.0006388	1037	1.1
0.6	0.002284	1043.2	1.1
0.7	0.008938	1049.3	1.1
0.8	0.02737	1054.3	1.2
0.9	0.05986	1065.2	3.3
1	0.06047	1059.7	3.3

System: etoricoxib + water; phases: Liquid, Crystal
Property: Mole fraction of etoricoxib (Liquid); method: UV spectroscopy
Temperature, K	Pressure, kPa	Mole fraction of etoricoxib	uncertainty
298.2	100	1.58e-05	1.6e-06

System: etoricoxib + water; phases: Liquid
Property: Mass density, kg/m3 (Liquid); method: Pycnometric method
Mole fraction of etoricoxib	Pressure, kPa	Temperature, K	Mass density, kg/m3	uncertainty
1.58e-05	100	298.2	994.8	1

System: etoricoxib + glycerol; phases: Liquid, Crystal
Property: Mole fraction of etoricoxib (Liquid); method: UV spectroscopy
Temperature, K	Pressure, kPa	Mole fraction of etoricoxib	uncertainty
298.2	100	0.05656	0.00566

System: etoricoxib + glycerol; phases: Liquid
Property: Mass density, kg/m3 (Liquid); method: Pycnometric method
Mole fraction of etoricoxib	Pressure, kPa	Temperature, K	Mass density, kg/m3	uncertainty
0.05656	100	298.2	1298	1.6

System: etoricoxib + methanol; phases: Liquid, Crystal
Property: Mole fraction of etoricoxib (Liquid); method: UV spectroscopy
Temperature, K	Pressure, kPa	Mole fraction of etoricoxib	uncertainty
298.2	100	0.03786	0.00379

System: etoricoxib + methanol; phases: Liquid
Property: Mass density, kg/m3 (Liquid); method: Pycnometric method
Mole fraction of etoricoxib	Pressure, kPa	Temperature, K	Mass density, kg/m3	uncertainty
0.03786	100	298.2	805	0.9

System: etoricoxib + 1,2-propanediol; phases: Liquid, Crystal
Property: Mole fraction of etoricoxib (Liquid); method: UV spectroscopy
Temperature, K	Pressure, kPa	Mole fraction of etoricoxib	uncertainty
298.2	100	0.06047	0.00605

System: etoricoxib + 1,2-propanediol; phases: Liquid
Property: Mass density, kg/m3 (Liquid); method: Pycnometric method
Mole fraction of etoricoxib	Pressure, kPa	Temperature, K	Mass density, kg/m3	uncertainty
0.06047	100	298.2	1059.7	1.3
