Measured thermophysical data. Liquid-Liquid Equilibria Determination and Prediction for Ternary Systems of Water + 1,6-Hexanediamine + (1-Butanol or 1-Pentanol) at 298.2, 308.2, and 318.2 K
Source: J. Chem. Eng. Data, 2018, 10.1021/acs.jced.7b00678
Compound 1: 1,6-hexanediamine, C6H16N2, InChI=1S/C6H16N2/c7-5-3-1-2-4-6-8/h1-8H2, purity 99.5%
Compound 2: butan-1-ol, C4H10O, InChI=1S/C4H10O/c1-2-3-4-5/h5H,2-4H2,1H3, purity 99.5%
Compound 3: pentan-1-ol, C5H12O, InChI=1S/C5H12O/c1-2-3-4-5-6/h6H,2-5H2,1H3, purity 99.5%
Compound 4: water, H2O, InChI=1S/H2O/h1H2, purity 99.8%

System: water + 1,6-hexanediamine + butan-1-ol; phases: Liquid mixture 1, Liquid mixture 2
Fixed: Pressure, kPa = 100
Property: Mass fraction of 1,6-hexanediamine (Liquid mixture 1); method: Chromatography
Property: Mass fraction of 1,6-hexanediamine (Liquid mixture 2); method: Chromatography
Property: Mass fraction of water (Liquid mixture 2); method: Chromatography
Temperature, K	Mass fraction of water	Mass fraction of 1,6-hexanediamine	uncertainty	Mass fraction of 1,6-hexanediamine	uncertainty	Mass fraction of water	uncertainty
298.2	0.1832	0.0101	0.0101	0.0015	0.0015	0.9317	
318.2	0.2308	0.0197	0.0197	0.0036	0.0036	0.9351	
318.2	0.2423	0.0325	0.0208	0.0064	0.0051	0.9314	
298.2	0.3398	0.1044	0.0079	0.0393	0.0045	0.8741	
318.2	0.2552	0.0463	0.0179	0.0095	0.0052	0.929	
318.2	0.267	0.0568	0.0171	0.0124	0.0049	0.9251	
318.2	0.2701	0.0632	0.0173	0.0149	0.0048	0.9215	
298.2	0.2099	0.0293	0.0151	0.0074	0.0049	0.9207	
318.2	0.2935	0.0752	0.0112	0.0204	0.0047	0.9123	
318.2	0.3145	0.0864	0.0089	0.0271	0.0048	0.9021	
318.2	0.3243	0.0961	0.0089	0.0308	0.0047	0.8968	
308.2	0.3203	0.0694	0.006	0.0209	0.0045	0.9076	
318.2	0.3327	0.0982	0.0092	0.0327	0.0044	0.8927	
318.2	0.3667	0.1049	0.0069	0.0452	0.0044	0.8613	
318.2	0.4048	0.118	0.008	0.0581	0.0045	0.8362	
298.2	0.365	0.1102	0.0062	0.0509	0.0044	0.8492	
298.2	0.2263	0.0418	0.0143	0.0104	0.0049	0.9173	
298.2	0.242	0.0528	0.014	0.0145	0.0049	0.9111	
298.2	0.2498	0.0566	0.0134	0.0162	0.0049	0.9088	
298.2	0.274	0.0723	0.0121	0.0217	0.0048	0.9012	
298.2	0.297	0.0835	0.0106	0.0279	0.0048	0.8913	
298.2	0.3147	0.0931	0.0106	0.0324	0.0048	0.8848	
308.2	0.3321	0.0742	0.0105	0.0252	0.0045	0.8977	
308.2	0.2223	0.0135	0.0094	0.0033	0.0033	0.935	
308.2	0.2351	0.0246	0.0071	0.006	0.005	0.9312	
308.2	0.2532	0.0334	0.0131	0.0087	0.0047	0.9265	
308.2	0.2727	0.0421	0.0117	0.011	0.005	0.9235	
308.2	0.2809	0.0498	0.0087	0.0135	0.0048	0.9195	
308.2	0.2994	0.0591	0.0112	0.0172	0.0047	0.9132	
298.2	0.1989	0.0217	0.0152	0.0047	0.0045	0.9254	
308.2	0.3537	0.0809	0.0071	0.0286	0.0044	0.8921	
308.2	0.3705	0.0852	0.0062	0.0328	0.0044	0.8824	
308.2	0.405	0.0941	0.0054	0.041	0.004	0.8643	
308.2	0.4577	0.101	0.005	0.0529	0.0043	0.8323	
318.2	0.22	0.0089	0.0089	0.0014	0.0014	0.9388	

System: water + 1,6-hexanediamine + pentan-1-ol; phases: Liquid mixture 1, Liquid mixture 2
Fixed: Pressure, kPa = 100
Property: Mass fraction of 1,6-hexanediamine (Liquid mixture 1); method: Chromatography
Property: Mass fraction of 1,6-hexanediamine (Liquid mixture 2); method: Chromatography
Property: Mass fraction of water (Liquid mixture 2); method: Chromatography
Temperature, K	Mass fraction of water	Mass fraction of 1,6-hexanediamine	uncertainty	Mass fraction of 1,6-hexanediamine	uncertainty	Mass fraction of water	uncertainty
298.2	0.1	0.0106	0.004	0.0038	0.0038	0.9765	
298.2	0.1115	0.0221	0.004	0.0078	0.0048	0.9733	
298.2	0.1177	0.03	0.004	0.0109	0.0052	0.9687	
298.2	0.1221	0.043	0.004	0.0158	0.0055	0.9636	
298.2	0.1328	0.0518	0.004	0.0198	0.0054	0.9593	
298.2	0.1364	0.0616	0.004	0.0251	0.0053	0.9533	
298.2	0.1425	0.0632	0.004	0.0263	0.0053	0.9517	
298.2	0.1454	0.0715	0.0041	0.0304	0.0053	0.9472	
298.2	0.1499	0.0797	0.0041	0.0357	0.0051	0.9411	
298.2	0.1593	0.0851	0.0041	0.0407	0.0052	0.934	
298.2	0.1707	0.0959	0.0041	0.0471	0.0054	0.9275	
298.2	0.1808	0.1078	0.0041	0.0562	0.0052	0.9167	
308.2	0.0975	0.0113	0.004	0.0043	0.0043	0.976	
308.2	0.103	0.0209	0.004	0.0077	0.0049	0.9734	
308.2	0.1079	0.0304	0.004	0.011	0.005	0.9686	
308.2	0.1164	0.0476	0.004	0.0175	0.0054	0.9616	
308.2	0.1233	0.0616	0.004	0.0229	0.0054	0.9555	
308.2	0.1269	0.0673	0.004	0.0251	0.0054	0.9529	
308.2	0.1337	0.0768	0.0041	0.0299	0.0053	0.9477	
308.2	0.1371	0.0921	0.0041	0.0348	0.0052	0.942	
308.2	0.1528	0.1041	0.0041	0.0429	0.0054	0.9318	
308.2	0.1614	0.1261	0.0041	0.0522	0.0054	0.9224	
308.2	0.1738	0.1307	0.0041	0.0581	0.0049	0.9148	
318.2	0.0889	0.0274	0.004	0.008	0.005	0.9727	
318.2	0.0965	0.0398	0.0041	0.0107	0.0054	0.9694	
318.2	0.1019	0.0482	0.0041	0.0144	0.0053	0.9653	
318.2	0.1103	0.0612	0.0041	0.018	0.005	0.961	
318.2	0.115	0.0683	0.0041	0.0207	0.0052	0.9578	
318.2	0.1241	0.0817	0.0041	0.0256	0.0052	0.9519	
318.2	0.1312	0.0917	0.0041	0.0306	0.0052	0.946	
318.2	0.1386	0.1015	0.0041	0.0353	0.0052	0.9403	
318.2	0.142	0.1061	0.0041	0.0375	0.0052	0.9376	
318.2	0.1546	0.1219	0.0041	0.0472	0.0052	0.9257	
318.2	0.1637	0.1329	0.0041	0.0545	0.0052	0.9167	
