Measured thermophysical data. Experimental Solubility and Density Functional Theory Studies of Deferasirox in Binary Solvent Mixtures: Performance of Polarizable Continuum Model and Jouyban-Acree Model
Source: J. Chem. Eng. Data, 2019, 10.1021/acs.jced.8b01001
Compound 1: Deferasirox, C21H15N3O4, InChI=1S/C21H15N3O4/c25-17-7-3-1-5-15(17)19-22-20(16-6-2-4-8-18(16)26)24(23-19)14-11-9-13(10-12-14)21(27)28/h1-12,25-26H,(H,27,28), purity 99.7%
Compound 2: 1,2-propanediol, C3H8O2, InChI=1S/C3H8O2/c1-3(5)2-4/h3-5H,2H2,1H3, purity 99.5%
Compound 3: ethanol, C2H6O, InChI=1S/C2H6O/c1-2-3/h3H,2H2,1H3, purity 99.9%
Compound 4: methanol, CH4O, InChI=1S/CH4O/c1-2/h2H,1H3, purity 99.9%
Compound 5: acetonitrile, C2H3N, InChI=1S/C2H3N/c1-2-3/h1H3, purity 99.9%
Compound 6: water, H2O, InChI=1S/H2O/h1H2, purity 99.9%

System: Deferasirox + 1,2-propanediol + ethanol; phases: Liquid, Crystal
Fixed: Temperature, K = 298.2
Fixed: Pressure, kPa = 100
Property: Mass fraction of Deferasirox (Liquid); method: spectroscopy
Solvent: Mass fraction of 1,2-propanediol	Mass fraction of Deferasirox	uncertainty
0	0.014266	0.002853
0.1	0.016499	0.0033
0.2	0.018292	0.003659
0.3	0.020224	0.004047
0.4	0.022162	0.004435
0.5	0.023794	0.00476
0.6	0.024354	0.004871
0.7	0.023485	0.004698
0.8	0.022227	0.004446
0.9	0.021061	0.004213
1	0.019535	0.003907

System: Deferasirox + 1,2-propanediol + methanol; phases: Liquid, Crystal
Fixed: Temperature, K = 298.2
Fixed: Pressure, kPa = 100
Property: Mass fraction of Deferasirox (Liquid); method: spectroscopy
Solvent: Mass fraction of 1,2-propanediol	Mass fraction of Deferasirox	uncertainty
0	0.011908	0.002382
0.1	0.014047	0.00281
0.2	0.015792	0.003159
0.3	0.017181	0.003437
0.4	0.01869	0.00374
0.5	0.019681	0.003937
0.6	0.020465	0.004094
0.7	0.02091	0.004182
0.8	0.020972	0.004195
0.9	0.020431	0.004086
1	0.019535	0.003907

System: Deferasirox + 1,2-propanediol + acetonitrile; phases: Liquid, Crystal
Fixed: Temperature, K = 298.2
Fixed: Pressure, kPa = 100
Property: Mass fraction of Deferasirox (Liquid); method: spectroscopy
Solvent: Mass fraction of 1,2-propanediol	Mass fraction of Deferasirox	uncertainty
0	0.001057	0.0002114
0.1	0.00286	0.0005738
0.2	0.005585	0.0011237
0.3	0.008962	0.0018039
0.4	0.012331	0.002479
0.5	0.015294	0.003072
0.6	0.017965	0.003599
0.7	0.020298	0.004062
0.8	0.021996	0.0044
0.9	0.022691	0.004539
1	0.019535	0.003907

System: Deferasirox + ethanol + methanol; phases: Liquid, Crystal
Fixed: Temperature, K = 298.2
Fixed: Pressure, kPa = 100
Property: Mass fraction of Deferasirox (Liquid); method: spectroscopy
Solvent: Mass fraction of ethanol	Mass fraction of Deferasirox	uncertainty
0	0.011908	0.002382
0.1	0.012689	0.002538
0.2	0.013376	0.002675
0.3	0.01374	0.002748
0.4	0.013966	0.002793
0.5	0.014238	0.002848
0.6	0.014326	0.002865
0.7	0.014506	0.002901
0.8	0.014502	0.002901
0.9	0.014453	0.002891
1	0.014266	0.002853

System: Deferasirox + ethanol + acetonitrile; phases: Liquid, Crystal
Fixed: Temperature, K = 298.2
Fixed: Pressure, kPa = 100
Property: Mass fraction of Deferasirox (Liquid); method: spectroscopy
Solvent: Mass fraction of ethanol	Mass fraction of Deferasirox	uncertainty
0	0.001057	0.0002114
0.1	0.004714	0.0009464
0.2	0.009294	0.0018698
0.3	0.014788	0.002978
0.4	0.020941	0.004213
0.5	0.026158	0.005255
0.6	0.030693	0.006143
0.7	0.031428	0.006286
0.8	0.028031	0.005609
0.9	0.022547	0.004512
1	0.014266	0.002853

System: Deferasirox + methanol + acetonitrile; phases: Liquid, Crystal
Fixed: Temperature, K = 298.2
Fixed: Pressure, kPa = 100
Property: Mass fraction of Deferasirox (Liquid); method: spectroscopy
Solvent: Mass fraction of methanol	Mass fraction of Deferasirox	uncertainty
0	0.001057	0.0002114
0.1	0.004814	0.0009658
0.2	0.008647	0.0017366
0.3	0.012633	0.002536
0.4	0.016034	0.003216
0.5	0.018588	0.003722
0.6	0.019674	0.003935
0.7	0.019803	0.003961
0.8	0.01834	0.003669
0.9	0.015591	0.003119
1	0.011908	0.002382

System: Deferasirox + acetonitrile + water; phases: Liquid, Crystal
Fixed: Temperature, K = 298.2
Fixed: Pressure, kPa = 100
Property: Mass fraction of Deferasirox (Liquid); method: spectroscopy
Solvent: Mass fraction of acetonitrile	Mass fraction of Deferasirox	uncertainty
0	4.0694e-05	8.139e-06
0.1	6.4621e-05	1.2933e-05
0.2	8.7736e-05	1.771e-05
0.3	0.00018423	3.851e-05
0.4	0.00046098	0.0001019
0.5	0.0012687	0.0002718
0.6	0.0024084	0.0004927
0.7	0.0038551	0.0007765
0.8	0.0054606	0.0010925
0.9	0.0051924	0.0010395
1	0.0010568	0.0002114

System: Deferasirox + ethanol; phases: Liquid, Crystal
Property: Mass fraction of Deferasirox (Liquid); method: spectroscopy
Temperature, K	Pressure, kPa	Mass fraction of Deferasirox	uncertainty
298.2	100	0.014266	0.002853

System: Deferasirox + 1,2-propanediol; phases: Liquid, Crystal
Property: Mass fraction of Deferasirox (Liquid); method: spectroscopy
Temperature, K	Pressure, kPa	Mass fraction of Deferasirox	uncertainty
298.2	100	0.019535	0.003907

System: Deferasirox + methanol; phases: Liquid, Crystal
Property: Mass fraction of Deferasirox (Liquid); method: spectroscopy
Temperature, K	Pressure, kPa	Mass fraction of Deferasirox	uncertainty
298.2	100	0.011908	0.002382

System: Deferasirox + acetonitrile; phases: Liquid, Crystal
Fixed: Temperature, K = 298.2
Fixed: Pressure, kPa = 100
Property: Mass fraction of Deferasirox (Liquid); method: spectroscopy
Mass fraction of Deferasirox	uncertainty
0.001057	0.0002114
0.0010568	0.0002114

System: Deferasirox + water; phases: Liquid, Crystal
Property: Mass fraction of Deferasirox (Liquid); method: spectroscopy
Temperature, K	Pressure, kPa	Mass fraction of Deferasirox	uncertainty
298.2	100	4.0694e-05	8.139e-06
