Measured thermophysical data. Thermophysical Properties of 1-Hexyl-3-methylimidazolium Salicylate as an Active Pharmaceutical Ingredient Ionic Liquid (API-IL) in Aqueous Solutions of Glycine and l-Alanine
Source: J. Chem. Eng. Data, 2019, 10.1021/acs.jced.8b00644
Compound 1: 2-aminoacetic acid, C2H5NO2, InChI=1S/C2H5NO2/c3-1-2(4)5/h1,3H2,(H,4,5), purity 99%
Compound 2: (S)-2-aminopropanoic acid, C3H7NO2, InChI=1S/C3H7NO2/c1-2(4)3(5)6/h2H,4H2,1H3,(H,5,6)/t2-/m0/s1, purity 99%
Compound 3: 1-hexyl-3-methylimidazolium salicylate, C17H24N2O3, InChI=1S/C10H19N2.C7H6O3/c1-3-4-5-6-7-12-9-8-11(2)10-12;8-6-4-2-1-3-5(6)7(9)10/h8-10H,3-7H2,1-2H3;1-4,8H,(H,9,10)/q+1;/p-1, purity 98%
Compound 4: water, H2O, InChI=1S/H2O/h1H2, purity 99.9%

System: 2-aminoacetic acid + 1-hexyl-3-methylimidazolium salicylate + water; phases: Liquid
Fixed: Temperature, K = 298.15
Fixed: Pressure, kPa = 86.8
Property: Mass density, kg/m3 (Liquid); method: Vibrating tube method
Solvent: Molality, mol/kg of 1-hexyl-3-methylimidazolium salicylate	Molality, mol/kg of 2-aminoacetic acid	Mass density, kg/m3	uncertainty
0.0978	0.0984	1001.004	0.665
0.0978	0.1496	1004.079	0.674
0.0978	0.1999	1005.67	0.67
0.0978	0.2497	1007.229	0.668
0.0978	0.3001	1008.765	0.673
0.0978	0.3496	1010.317	0.672
0.0978	0.3988	1011.842	0.678
0.0978	0.4367	1013.348	0.682
0.1977	0.0994	1005.448	0.739
0.1977	0.1474	1008.52	0.74
0.1977	0.2005	1009.994	0.735
0.1977	0.2541	1011.619	0.74
0.1977	0.2964	1013.249	0.738
0.1977	0.3514	1014.533	0.738
0.1977	0.3986	1016.194	0.741
0.1977	0.4521	1017.616	0.739
0.3011	0.0968	1010.189	0.86
0.3011	0.1484	1013.144	0.805
0.3011	0.1996	1014.71	0.85
0.3011	0.2463	1016.256	0.856
0.3011	0.2964	1017.66	0.83
0.3011	0.3468	1019.16	0.86
0.3011	0.3964	1020.662	0.846
0.3011	0.442	1022.136	0.87

System: 2-aminoacetic acid + 1-hexyl-3-methylimidazolium salicylate + water; phases: Liquid
Fixed: Temperature, K = 298.15
Fixed: Pressure, kPa = 86.8
Property: Speed of sound, m/s (Liquid); method: Single path-length method
Solvent: Molality, mol/kg of 1-hexyl-3-methylimidazolium salicylate	Molality, mol/kg of 2-aminoacetic acid	Speed of sound, m/s	uncertainty
0.0978	0.0984	1508.16	1.5
0.0978	0.1496	1513.18	1.52
0.0978	0.1999	1515.79	1.51
0.0978	0.2497	1518.36	1.51
0.0978	0.3001	1520.9	1.5
0.0978	0.3496	1523.47	1.51
0.0978	0.3988	1525.99	1.51
0.0978	0.4367	1528.5	1.5
0.1977	0.0994	1518.72	1.64
0.1977	0.1474	1523.85	1.64
0.1977	0.2005	1526.27	1.63
0.1977	0.2541	1528.93	1.64
0.1977	0.2964	1531.54	1.63
0.1977	0.3514	1533.58	1.63
0.1977	0.3986	1536.24	1.63
0.1977	0.4521	1538.62	1.62
0.3011	0.0968	1527.71	1.8
0.3011	0.1484	1532.65	1.72
0.3011	0.1996	1535.23	1.79
0.3011	0.2463	1537.69	1.79
0.3011	0.2964	1539.9	1.8
0.3011	0.3468	1542.27	1.79
0.3011	0.3964	1544.61	1.76
0.3011	0.442	1546.93	1.79

System: 2-aminoacetic acid + 1-hexyl-3-methylimidazolium salicylate + water; phases: Liquid
Fixed: Temperature, K = 298.15
Fixed: Pressure, kPa = 86.8
Property: Viscosity, Pa*s (Liquid); method: Falling or rolling sphere viscometry
Solvent: Molality, mol/kg of 1-hexyl-3-methylimidazolium salicylate	Molality, mol/kg of 2-aminoacetic acid	Viscosity, Pa*s	uncertainty
0.0978	0.0984	0.001075	3.2e-05
0.0978	0.1496	0.00109	3e-05
0.0978	0.1999	0.001097	3.2e-05
0.0978	0.2497	0.001105	3.2e-05
0.0978	0.3001	0.001112	3.2e-05
0.0978	0.3496	0.00112	3e-05
0.0978	0.3988	0.001128	3.2e-05
0.0978	0.4367	0.001136	3.2e-05
0.1977	0.0994	0.001237	3.4e-05
0.1977	0.1474	0.001255	3.4e-05
0.1977	0.2005	0.001264	3.4e-05
0.1977	0.2541	0.001275	3.4e-05
0.1977	0.2964	0.001285	3.4e-05
0.1977	0.3514	0.001293	3.4e-05
0.1977	0.3986	0.001304	3.4e-05
0.1977	0.4521	0.001314	3.5e-05
0.3011	0.0968	0.001374	3.6e-05
0.3011	0.1484	0.001395	3.6e-05
0.3011	0.1996	0.001406	3.6e-05
0.3011	0.2463	0.001417	3.7e-05
0.3011	0.2964	0.001427	3.7e-05
0.3011	0.3468	0.001438	3.7e-05
0.3011	0.3964	0.001449	3.7e-05
0.3011	0.442	0.00146	4e-05

System: 2-aminoacetic acid + 1-hexyl-3-methylimidazolium salicylate + water; phases: Liquid
Fixed: Temperature, K = 298.15
Fixed: Pressure, kPa = 86.8
Property: Refractive index (Na D-line) (Liquid); method: Standard Abbe refractometry
Solvent: Molality, mol/kg of 1-hexyl-3-methylimidazolium salicylate	Molality, mol/kg of 2-aminoacetic acid	Refractive index (Na D-line)	uncertainty
0.0978	0.0984	1.3382	0.004
0.0978	0.1496	1.3394	0.004
0.0978	0.1999	1.34	0.01
0.0978	0.2497	1.3406	0.004
0.0978	0.3001	1.3412	0.004
0.0978	0.3496	1.3418	0.004
0.0978	0.3988	1.3425	0.004
0.0978	0.4367	1.3431	0.004
0.1977	0.0994	1.3433	0.004
0.1977	0.1474	1.3444	0.004
0.1977	0.2005	1.3449	0.004
0.1977	0.2541	1.3455	0.004
0.1977	0.2964	1.3461	0.004
0.1977	0.3514	1.3466	0.004
0.1977	0.3986	1.3472	0.004
0.1977	0.4521	1.3477	0.004
0.3011	0.0968	1.3484	0.0041
0.3011	0.1484	1.3495	0.0041
0.3011	0.1996	1.3501	0.0041
0.3011	0.2463	1.3506	0.0041
0.3011	0.2964	1.3512	0.0041
0.3011	0.3468	1.3518	0.0041
0.3011	0.3964	1.3524	0.0041
0.3011	0.442	1.353	0.004

System: 2-aminoacetic acid + 1-hexyl-3-methylimidazolium salicylate + water; phases: Liquid
Fixed: Temperature, K = 298.15
Fixed: Pressure, kPa = 87
Property: Molar conductivity, S*m2/mol (Liquid); method: Alternating current cell with electrodes
Solvent: Molality, mol/kg of 2-aminoacetic acid	Molality, mol/kg of 1-hexyl-3-methylimidazolium salicylate	Molar conductivity, S*m2/mol	uncertainty
0	0.037	0.007751	0.000347
0	0.0839	0.007641	0.000344
0	0.1477	0.007509	0.00034
0	0.2155	0.007423	0.000338
0	0.2694	0.007377	0.000337
0	0.3205	0.007333	0.000336
0	0.4082	0.007267	0.000334
0	0.4728	0.007231	0.000333
0	0.5305	0.007174	0.000331
0	0.6157	0.007113	0.00033
0	0.6979	0.007058	0.000328
0	0.7632	0.007012	0.000327
0	0.8165	0.006979	0.000326
0.1	0.0564	0.007218	0.000332
0.1	0.1197	0.007177	0.000331
0.1	0.1826	0.007135	0.00033
0.1	0.248	0.007093	0.000329
0.1	0.3106	0.007056	0.000328
0.1	0.3697	0.007017	0.000327
0.1	0.4239	0.006982	0.000326
0.1	0.4837	0.006937	0.000325
0.1	0.5481	0.006904	0.000324
0.1	0.6156	0.006863	0.000323
0.1	0.6831	0.006829	0.000322
0.1	0.7376	0.006803	0.000321
0.1	0.7914	0.006772	0.00032
0.3	0.0644	0.006695	0.000318
0.3	0.1025	0.006671	0.000318
0.3	0.1534	0.00665	0.000317
0.3	0.21	0.006629	0.000317
0.3	0.2752	0.006607	0.000316
0.3	0.3279	0.006589	0.000316
0.3	0.3819	0.006569	0.000315
0.3	0.4384	0.006552	0.000315
0.3	0.4951	0.00653	0.000314
0.3	0.5554	0.006514	0.000314
0.3	0.6172	0.006494	0.000313
0.3	0.7348	0.006467	0.000312
0.5	0.0516	0.006319	0.000309
0.5	0.1253	0.006294	0.000308
0.5	0.186	0.006279	0.000308
0.5	0.247	0.00626	0.000307
0.5	0.3193	0.006247	0.000307
0.5	0.3829	0.00623	0.000306
0.5	0.4427	0.00621	0.000306
0.5	0.5092	0.0062	0.000306
0.5	0.5913	0.006182	0.000305
0.5	0.6718	0.006164	0.000305
0.5	0.7417	0.006154	0.000304
0.5	0.7993	0.006139	0.000304
0.5	0.8916	0.006116	0.000304
0.5	0.9313	0.00611	0.000303
0.5	1.0203	0.006094	0.000303

System: (S)-2-aminopropanoic acid + 1-hexyl-3-methylimidazolium salicylate + water; phases: Liquid
Fixed: Temperature, K = 298.15
Fixed: Pressure, kPa = 86.8
Property: Mass density, kg/m3 (Liquid); method: Vibrating tube method
Solvent: Molality, mol/kg of 1-hexyl-3-methylimidazolium salicylate	Molality, mol/kg of (S)-2-aminopropanoic acid	Mass density, kg/m3	uncertainty
0.0999	0.0997	1001.042	0.665
0.0999	0.149	1003.849	0.675
0.0999	0.1997	1005.226	0.66
0.0999	0.2484	1006.633	0.678
0.0999	0.295	1007.975	0.67
0.0999	0.3457	1009.253	0.674
0.0999	0.3975	1010.636	0.675
0.0999	0.449	1012.039	0.684
0.1989	0.1041	1005.499	0.738
0.1989	0.1495	1008.381	0.732
0.1989	0.2287	1009.641	0.733
0.1989	0.2509	1011.825	0.734
0.1989	0.303	1012.43	0.74
0.1989	0.3455	1013.863	0.742
0.1989	0.3977	1015.028	0.744
0.1989	0.432	1016.46	0.75
0.2927	0.099	1009.752	0.855
0.2927	0.1547	1012.471	0.789
0.2927	0.1997	1013.998	0.893
0.2927	0.2557	1015.225	0.779
0.2927	0.3	1016.748	0.84
0.2927	0.3477	1017.947	0.822
0.2927	0.3988	1019.238	0.841
0.2927	0.447	1020.614	0.806

System: (S)-2-aminopropanoic acid + 1-hexyl-3-methylimidazolium salicylate + water; phases: Liquid
Fixed: Temperature, K = 298.15
Fixed: Pressure, kPa = 86.8
Property: Speed of sound, m/s (Liquid); method: Single path-length method
Solvent: Molality, mol/kg of 1-hexyl-3-methylimidazolium salicylate	Molality, mol/kg of (S)-2-aminopropanoic acid	Speed of sound, m/s	uncertainty
0.0999	0.0997	1508.29	1.51
0.0999	0.149	1514.75	1.53
0.0999	0.1997	1517.92	1.49
0.0999	0.2484	1521.17	1.53
0.0999	0.295	1524.28	1.51
0.0999	0.3457	1527.18	1.52
0.0999	0.3975	1530.35	1.52
0.0999	0.449	1533.55	1.54
0.1989	0.1041	1518.79	1.65
0.1989	0.1495	1525.42	1.63
0.1989	0.2287	1528.32	1.63
0.1989	0.2509	1533.3	1.6
0.1989	0.303	1534.68	1.64
0.1989	0.3455	1537.95	1.64
0.1989	0.3977	1540.62	1.64
0.1989	0.432	1543.88	1.63
0.2927	0.099	1527.11	1.83
0.2927	0.1547	1533.32	1.68
0.2927	0.1997	1536.75	1.89
0.2927	0.2557	1539.43	1.65
0.2927	0.3	1542.77	1.77
0.2927	0.3477	1545.47	1.72
0.2927	0.3988	1548.27	1.75
0.2927	0.447	1551.25	1.68

System: (S)-2-aminopropanoic acid + 1-hexyl-3-methylimidazolium salicylate + water; phases: Liquid
Fixed: Temperature, K = 298.15
Fixed: Pressure, kPa = 86.8
Property: Viscosity, Pa*s (Liquid); method: Falling or rolling sphere viscometry
Solvent: Molality, mol/kg of 1-hexyl-3-methylimidazolium salicylate	Molality, mol/kg of (S)-2-aminopropanoic acid	Viscosity, Pa*s	uncertainty
0.0999	0.0997	0.001075	3.2e-05
0.0999	0.149	0.00109	3e-05
0.0999	0.1997	0.001097	3.2e-05
0.0999	0.2484	0.001105	3.2e-05
0.0999	0.295	0.001112	3.2e-05
0.0999	0.3457	0.00112	3e-05
0.0999	0.3975	0.001128	3.2e-05
0.0999	0.449	0.001136	3.2e-05
0.1989	0.1041	0.001237	3.4e-05
0.1989	0.1495	0.001255	3.4e-05
0.1989	0.2287	0.001264	3.4e-05
0.1989	0.2509	0.001275	3.5e-05
0.1989	0.303	0.001285	3.5e-05
0.1989	0.3455	0.001293	3.5e-05
0.1989	0.3977	0.001304	3.5e-05
0.1989	0.432	0.001314	3.5e-05
0.2927	0.099	0.001374	3.7e-05
0.2927	0.1547	0.001395	3.7e-05
0.2927	0.1997	0.001406	3.7e-05
0.2927	0.2557	0.001417	3.7e-05
0.2927	0.3	0.001427	3.7e-05
0.2927	0.3477	0.001438	3.7e-05
0.2927	0.3988	0.001449	3.7e-05
0.2927	0.447	0.00146	4e-05

System: (S)-2-aminopropanoic acid + 1-hexyl-3-methylimidazolium salicylate + water; phases: Liquid
Fixed: Temperature, K = 298.15
Fixed: Pressure, kPa = 86.8
Property: Refractive index (Na D-line) (Liquid); method: Standard Abbe refractometry
Solvent: Molality, mol/kg of 1-hexyl-3-methylimidazolium salicylate	Molality, mol/kg of (S)-2-aminopropanoic acid	Refractive index (Na D-line)	uncertainty
0.0999	0.0997	1.3383	0.004
0.0999	0.149	1.3396	0.004
0.0999	0.1997	1.3402	0.004
0.0999	0.2484	1.3409	0.004
0.0999	0.295	1.3415	0.004
0.0999	0.3457	1.3421	0.004
0.0999	0.3975	1.3428	0.004
0.0999	0.449	1.3435	0.004
0.1989	0.1041	1.3435	0.004
0.1989	0.1495	1.3448	0.004
0.1989	0.2287	1.3454	0.004
0.1989	0.2509	1.3464	0.004
0.1989	0.303	1.3467	0.004
0.1989	0.3455	1.3474	0.004
0.1989	0.3977	1.3479	0.004
0.1989	0.432	1.3486	0.004
0.2927	0.099	1.3482	0.0041
0.2927	0.1547	1.3496	0.0041
0.2927	0.1997	1.3504	0.0041
0.2927	0.2557	1.351	0.004
0.2927	0.3	1.3517	0.0041
0.2927	0.3477	1.3523	0.0041
0.2927	0.3988	1.3529	0.0041
0.2927	0.447	1.3536	0.0041

System: (S)-2-aminopropanoic acid + 1-hexyl-3-methylimidazolium salicylate + water; phases: Liquid
Fixed: Temperature, K = 298.15
Fixed: Pressure, kPa = 87
Property: Molar conductivity, S*m2/mol (Liquid); method: Alternating current cell with electrodes
Solvent: Molality, mol/kg of (S)-2-aminopropanoic acid	Molality, mol/kg of 1-hexyl-3-methylimidazolium salicylate	Molar conductivity, S*m2/mol	uncertainty
0	0.037	0.007751	0.000347
0	0.0839	0.007641	0.000344
0	0.1477	0.007509	0.00034
0	0.2155	0.007423	0.000338
0	0.2694	0.007377	0.000337
0	0.3205	0.007333	0.000336
0	0.4082	0.007267	0.000334
0	0.4728	0.007231	0.000333
0	0.5305	0.007174	0.000331
0	0.6157	0.007113	0.00033
0	0.6979	0.007058	0.000328
0	0.7632	0.007012	0.000327
0	0.8165	0.006979	0.000326
0.1	0.0843	0.007299	0.000335
0.1	0.2043	0.007247	0.000333
0.1	0.2529	0.007222	0.000333
0.1	0.3087	0.007193	0.000332
0.1	0.361	0.007176	0.000331
0.1	0.43	0.007142	0.00033
0.1	0.5115	0.007108	0.000329
0.1	0.5554	0.007087	0.000329
0.1	0.6479	0.007044	0.000328
0.1	0.7157	0.007012	0.000327
0.1	0.8119	0.00698	0.00033
0.3	0.0335	0.007101	0.000329
0.3	0.0751	0.007062	0.000328
0.3	0.1129	0.007024	0.000327
0.3	0.2102	0.006931	0.000325
0.3	0.2657	0.006882	0.000323
0.3	0.3038	0.006852	0.000323
0.3	0.359	0.006812	0.000322
0.3	0.4204	0.006752	0.00032
0.3	0.4792	0.006707	0.000319
0.3	0.5339	0.006669	0.000318
0.3	0.6087	0.0066	0.000316
0.3	0.6747	0.006553	0.000315
0.3	0.7996	0.00647	0.000313
0.5	0.0442	0.006587	0.000316
0.5	0.083	0.006542	0.000315
0.5	0.1252	0.006515	0.000314
0.5	0.1642	0.00649	0.000313
0.5	0.2217	0.006462	0.000312
0.5	0.2817	0.006439	0.000312
0.5	0.3462	0.00642	0.000311
0.5	0.3946	0.006408	0.000311
0.5	0.4694	0.006382	0.00031
0.5	0.5151	0.006372	0.00031
0.5	0.5828	0.006356	0.00031
0.5	0.6322	0.006348	0.000309
0.5	0.6922	0.006327	0.000309

System: 1-hexyl-3-methylimidazolium salicylate + water; phases: Liquid
Fixed: Temperature, K = 298.15
Fixed: Pressure, kPa = 87
Property: Molar conductivity, S*m2/mol (Liquid); method: Alternating current cell with electrodes
Molality, mol/kg of 1-hexyl-3-methylimidazolium salicylate	Molar conductivity, S*m2/mol	uncertainty
0.037	0.007751	0.000347
0.0839	0.007641	0.000344
0.1477	0.007509	0.00034
0.2155	0.007423	0.000338
0.2694	0.007377	0.000337
0.3205	0.007333	0.000336
0.4082	0.007267	0.000334
0.4728	0.007231	0.000333
0.5305	0.007174	0.000331
0.6157	0.007113	0.00033
0.6979	0.007058	0.000328
0.7632	0.007012	0.000327
0.8165	0.006979	0.000326
