Measured thermophysical data. Vapor Liquid Equilibrium of R1234yf/[HMIM][Tf2N] and R1234ze(E)/[HMIM][Tf2N] Working Pairs for the Absorption Refrigeration Cycle
Source: J. Chem. Eng. Data, 2016, 10.1021/acs.jced.6b00731
Compound 1: trans-1,3,3,3-tetrafluoropropene, C3H2F4, InChI=1S/C3H2F4/c4-2-1-3(5,6)7/h1-2H/b2-1+, purity 99.9%
Compound 2: 2,3,3,3-tetrafluoro-1-propene, C3H2F4, InChI=1S/C3H2F4/c1-2(4)3(5,6)7/h1H2, purity 99.9%
Compound 3: 1-hexyl-3-methylimidazolium bis[(trifluoromethyl)sulfonyl]imide, C12H19F6N3O4S2, InChI=1S/C10H19N2.C2F6NO4S2/c1-3-4-5-6-7-12-9-8-11(2)10-12;3-1(4,5)14(10,11)9-15(12,13)2(6,7)8/h8-10H,3-7H2,1-2H3;/q+1;-1, purity 99%

System: trans-1,3,3,3-tetrafluoropropene + 1-hexyl-3-methylimidazolium bis[(trifluoromethyl)sulfonyl]imide; phases: Liquid, Gas
Property: Mole fraction of trans-1,3,3,3-tetrafluoropropene (Liquid); method: Phase equilibration
Temperature, K	Pressure, kPa	Mole fraction of trans-1,3,3,3-tetrafluoropropene	uncertainty
293.12	49.7	0.0565	0.0033
292.98	106.5	0.1263	0.0057
293.1	160.9	0.2017	0.0085
293.1	221.2	0.2816	0.0116
293.1	257.9	0.3312	0.0135
303.15	60.8	0.0498	0.0027
303.13	131.1	0.1135	0.0049
303.34	201.2	0.1833	0.0076
303.23	275.5	0.2609	0.0106
303.15	325.5	0.308	0.0125
313.15	72.7	0.0429	0.0022
313.11	157.1	0.1002	0.0042
313.09	241.4	0.1652	0.0068
313.22	335.2	0.2376	0.0096
313.17	398.3	0.2822	0.0114
323.19	85.2	0.038	0.0018
324.14	183.5	0.0876	0.0037
323.09	283.9	0.1463	0.006
323.21	397.2	0.2133	0.0086
323.18	474.2	0.2548	0.0103
333.2	97.7	0.0334	0.0015
333.17	210.2	0.0745	0.0031
333.11	326.3	0.1279	0.0052
333.21	458.6	0.1895	0.0076
333.2	550	0.2273	0.0091
343.2	109.9	0.0274	0.0012
343.18	235.9	0.0629	0.0026
343.11	366.3	0.1114	0.0045
343.22	518.6	0.1666	0.0067
343.21	623.4	0.201	0.0081
353.21	122.1	0.0228	0.001
353.21	261.2	0.0535	0.0022
353.14	406.6	0.0952	0.0039
353.22	575.8	0.1457	0.0059
353.23	693.7	0.1766	0.0071

System: 2,3,3,3-tetrafluoro-1-propene + 1-hexyl-3-methylimidazolium bis[(trifluoromethyl)sulfonyl]imide; phases: Liquid, Gas
Property: Mole fraction of 2,3,3,3-tetrafluoro-1-propene (Liquid); method: Phase equilibration
Temperature, K	Pressure, kPa	Mole fraction of 2,3,3,3-tetrafluoro-1-propene	uncertainty
292.29	99.3	0.0775	0.0035
293.01	198.1	0.1543	0.0064
292.98	276	0.2206	0.009
293.64	353.8	0.2792	0.0113
293.13	434.4	0.3536	0.0143
303.05	115.3	0.0689	0.003
303.09	230.6	0.1386	0.0057
303.07	324.9	0.1991	0.0081
303.13	416.1	0.2545	0.0103
303.15	523.1	0.323	0.013
313.06	130.6	0.061	0.0026
313.06	262.4	0.1238	0.0051
313.05	372.4	0.1789	0.0072
313.13	480.7	0.2292	0.0092
313.2	610.3	0.2925	0.0118
323.08	145.7	0.0537	0.0023
323.06	293.8	0.1098	0.0045
323.05	419.2	0.1596	0.0064
323.13	543.7	0.205	0.0082
323.19	695.4	0.2628	0.0105
333.1	160.9	0.0474	0.002
333.09	324.1	0.0972	0.0039
333.17	464.4	0.142	0.0057
333.21	601.6	0.1844	0.0074
333.21	776.3	0.2355	0.0094
343.11	176	0.0422	0.0018
343.1	353.1	0.0869	0.0035
343.19	506.9	0.1265	0.0051
343.21	658.5	0.1648	0.0066
343.19	852.9	0.2119	0.0085
353.11	189.9	0.0376	0.0016
353.11	381.1	0.0757	0.0031
353.19	547.2	0.1121	0.0045
353.21	712.5	0.1476	0.0059
353.21	925.1	0.1904	0.0076
