Measured thermophysical data. Experimental Data and Modeling of Solution Density and Heat Capacity in the Na-K-Ca-Mg-Cl-H2O System up to 353.15 K and 5 mol*kg-1 Ionic Strength
Source: J. Chem. Eng. Data, 2017, 10.1021/acs.jced.7b00553
Compound 1: sodium chloride, ClNa, InChI=1S/ClH.Na/h1H;/q;+1/p-1
Compound 2: magnesium chloride, Cl2Mg, InChI=1S/2ClH.Mg/h2*1H;/q;;+2/p-2
Compound 3: water, H2O, InChI=1S/H2O/h1H2, purity 99.8%

System: sodium chloride + magnesium chloride + water; phases: Liquid
Fixed: Molality, mol/kg of sodium chloride = 4.8
Fixed: Molality, mol/kg of magnesium chloride = 0.1
Property: Mass density, kg/m3 (Liquid); method: Vibrating tube method
Temperature, K	Pressure, kPa	Mass density, kg/m3	uncertainty
278.19	101	1176.952	0.154
293.18	101	1169.667	0.151
313.13	101	1158.549	0.146
333.12	137	1147.914	0.141
353.2	167	1135.104	0.136

System: sodium chloride + magnesium chloride + water; phases: Liquid
Fixed: Pressure, kPa = 160
Fixed: Molality, mol/kg of sodium chloride = 4.7999
Fixed: Molality, mol/kg of magnesium chloride = 0.0999
Property: Molar heat capacity at constant pressure, J/K/mol (Liquid); method: Large sample (1 g) DSC
Temperature, K	Molar heat capacity at constant pressure, J/K/mol	uncertainty
278.19	70.8992414293542	1.06775966008063
293.18	71.3263452933864	1.06775966008063
313.13	71.3263452933864	1.06775966008063
333.12	71.3263452933864	1.06775966008063
353.2	71.3263452933864	1.06775966008063
