Measured thermophysical data. Surface Tension and Liquid Viscosity of R32+R1234yf and R32 + R1234ze
Source: J. Chem. Eng. Data, 2016, 10.1021/acs.jced.5b00798
Compound 1: difluoromethane, CH2F2, InChI=1S/CH2F2/c2-1-3/h1H2, purity 99.96%
Compound 2: 2,3,3,3-tetrafluoro-1-propene, C3H2F4, InChI=1S/C3H2F4/c1-2(4)3(5,6)7/h1H2, purity 99.9%
Compound 3: trans-1,3,3,3-tetrafluoropropene, C3H2F4, InChI=1S/C3H2F4/c4-2-1-3(5,6)7/h1-2H/b2-1+, purity 99.9%

System: difluoromethane; phases: Liquid
Fixed: Pressure, kPa = 101.325
Property: Kinematic viscosity, m2/s (Liquid); method: Surface laser light scattering (SLLS)
Temperature, K	Kinematic viscosity, m2/s	uncertainty
293.15	1.295e-07	8.7e-09
303.15	1.171e-07	8.7e-09
313.07	1.079e-07	8.6e-09
323.15	9.98e-08	8.5e-09
333.14	9.3e-08	8.5e-09
343.16	7.95e-08	8.4e-09
348.18	7.5e-08	8.8e-09

System: difluoromethane; phases: Liquid, Gas
Property: Surface tension liquid-gas, N/m (Liquid); method: surface light scattering
Temperature, K	Surface tension liquid-gas, N/m	uncertainty
293.15	0.0074	0.00011
303.15	0.00594	9e-05
313.07	0.00435	7e-05
323.15	0.00296	5e-05
333.14	0.00167	3e-05
343.16	0.00057	1e-05
348.18	0.00014	1e-05

System: difluoromethane + 2,3,3,3-tetrafluoro-1-propene; phases: Liquid
Fixed: Pressure, kPa = 101
Property: Kinematic viscosity, m2/s (Liquid); method: Surface laser light scattering (SLLS)
Temperature, K	Mole fraction of difluoromethane	Kinematic viscosity, m2/s	uncertainty
293.16	0.5193	1.311e-07	8.8e-09
303.16	0.5193	1.197e-07	8.7e-09
313.14	0.5193	1.094e-07	8.6e-09
323.17	0.5193	1.01e-07	8.5e-09
333.14	0.5193	9.15e-08	8.5e-09
343.14	0.5193	8.18e-08	9.1e-09
293.21	0.6988	1.28e-07	8.7e-09
303.2	0.6988	1.188e-07	8.7e-09
313.21	0.6988	1.094e-07	8.6e-09
323.19	0.6988	9.91e-08	8.5e-09
333.21	0.6988	8.98e-08	8.4e-09
343.16	0.6988	7.93e-08	9e-09
293.15	0.7945	1.279e-07	8.7e-09
303.14	0.7945	1.183e-07	8.7e-09
313.26	0.7945	1.082e-07	8.6e-09
323.2	0.7945	9.82e-08	8.5e-09
333.21	0.7945	8.85e-08	8.4e-09
343.18	0.7945	7.71e-08	8.9e-09

System: difluoromethane + 2,3,3,3-tetrafluoro-1-propene; phases: Liquid, Gas
Property: Surface tension liquid-gas, N/m (Liquid); method: surface light scattering
Temperature, K	Mole fraction of difluoromethane	Surface tension liquid-gas, N/m	uncertainty
293.16	0.5193	0.00655	0.0001
303.16	0.5193	0.00529	8e-05
313.14	0.5193	0.0041	6e-05
323.17	0.5193	0.00296	4e-05
333.14	0.5193	0.00191	3e-05
343.14	0.5193	0.00097	2e-05
293.21	0.6988	0.0069	0.0001
303.2	0.6988	0.00549	8e-05
313.21	0.6988	0.0041	6e-05
323.19	0.6988	0.00282	4e-05
333.21	0.6988	0.00166	3e-05
343.16	0.6988	0.00066	1e-05
293.15	0.7945	0.00704	0.00011
303.14	0.7945	0.00557	8e-05
313.26	0.7945	0.00414	6e-05
323.2	0.7945	0.00283	4e-05
333.21	0.7945	0.00162	3e-05
343.18	0.7945	0.00059	1e-05

System: difluoromethane + trans-1,3,3,3-tetrafluoropropene; phases: Liquid
Fixed: Pressure, kPa = 101
Property: Kinematic viscosity, m2/s (Liquid); method: Surface laser light scattering (SLLS)
Temperature, K	Mole fraction of difluoromethane	Kinematic viscosity, m2/s	uncertainty
293.16	0.2985	1.606e-07	9e-09
303.17	0.2985	1.432e-07	8.9e-09
313.13	0.2985	1.319e-07	8.8e-09
323.13	0.2985	1.227e-07	8.7e-09
333.16	0.2985	1.113e-07	8.6e-09
343.12	0.2985	1.019e-07	9.9e-09
348.17	0.2985	9.63e-08	9.7e-09
293.14	0.5697	1.471e-07	8.9e-09
303.16	0.5697	1.338e-07	8.8e-09
313.12	0.5697	1.22e-07	8.7e-09
323.14	0.5697	1.126e-07	8.6e-09
333.14	0.5697	1.028e-07	8.5e-09
343.11	0.5697	9.31e-08	9.5e-09
348.19	0.5697	8.74e-08	9.3e-09
293.14	0.7501	1.368e-07	8.8e-09
303.16	0.7501	1.281e-07	8.7e-09
313.12	0.7501	1.144e-07	8.6e-09
323.14	0.7501	1.041e-07	8.6e-09
333.14	0.7501	9.75e-08	8.5e-09
343.11	0.7501	8.96e-08	9.4e-09
348.19	0.7501	8.58e-08	9.2e-09

System: difluoromethane + trans-1,3,3,3-tetrafluoropropene; phases: Liquid, Gas
Property: Surface tension liquid-gas, N/m (Liquid); method: surface light scattering
Temperature, K	Mole fraction of difluoromethane	Surface tension liquid-gas, N/m	uncertainty
293.16	0.2985	0.00846	0.00013
303.17	0.2985	0.00717	0.00011
313.13	0.2985	0.00593	9e-05
323.13	0.2985	0.00475	7e-05
333.16	0.2985	0.00362	5e-05
343.12	0.2985	0.00254	4e-05
348.17	0.2985	0.00206	3e-05
293.16	0.5697	0.00802	0.00012
303.17	0.5697	0.00663	0.0001
313.13	0.5697	0.00534	8e-05
323.13	0.5697	0.00415	6e-05
333.16	0.5697	0.00289	4e-05
343.12	0.5697	0.00183	3e-05
348.17	0.5697	0.00134	2e-05
293.16	0.7501	0.00774	0.00012
303.17	0.7501	0.0063	9e-05
313.13	0.7501	0.00491	7e-05
323.13	0.7501	0.00362	5e-05
333.16	0.7501	0.00241	4e-05
343.12	0.7501	0.00132	2e-05
348.17	0.7501	0.00083	1e-05
