Measured thermophysical data. Phase Equilibrium in the Aqueous Ternary System KH2PO4+ KCl +H2O at (288.15 and 303.15) K
Source: J. Chem. Eng. Data, 2015, 10.1021/acs.jced.5b00141
Compound 1: monopotassium phosphate, H2KO4P, InChI=1S/K.H3O4P/c;1-5(2,3)4/h;(H3,1,2,3,4)/q+1;/p-1, purity 99%
Compound 2: potassium chloride, ClK, InChI=1S/ClH.K/h1H;/q;+1/p-1, purity 99%
Compound 3: water, H2O, InChI=1S/H2O/h1H2, purity 99.9%

System: potassium chloride + water + monopotassium phosphate; phases: Liquid, Crystal
Fixed: Pressure, kPa = 100
Property: Mass fraction of monopotassium phosphate (Liquid); method: gravimetric analysis
Temperature, K	Mass fraction of potassium chloride	Mass fraction of monopotassium phosphate	uncertainty
303.15	0.272	0	
303.15	0.2639	0.0119	0.0119
303.15	0.258	0.0259	0.02
303.15	0.2555	0.0337	0.02
288.15	0.2406	0.0178	0.0178
288.15	0.2484	0	

System: potassium chloride + water + monopotassium phosphate; phases: Liquid, Crystal
Fixed: Pressure, kPa = 100
Property: Mass fraction of monopotassium phosphate (Liquid); method: gravimetric analysis
Temperature, K	Mass fraction of potassium chloride	Mass fraction of monopotassium phosphate	uncertainty
303.15	0.2261	0.0453	0.026
303.15	0.204	0.0545	0.026
303.15	0.187	0.0612	0.0285
303.15	0.1596	0.0729	0.0298
303.15	0.15	0.0782	0.0296
303.15	0.1228	0.0938	0.0314
303.15	0.0955	0.1137	0.037
303.15	0.0751	0.1294	0.0406
303.15	0.0524	0.1545	0.0473
303.15	0.0345	0.1722	0.0415
303.15	0.0204	0.1845	0.0287
303.15	0	0.2155	0.0201
288.15	0	0.1645	0.0201
288.15	0.0221	0.1428	0.0284
288.15	0.0412	0.1219	0.0407
288.15	0.0627	0.106	0.0368
288.15	0.0831	0.0909	0.0312
288.15	0.103	0.0803	0.0288
288.15	0.1195	0.069	0.029
288.15	0.1405	0.0619	0.0263
288.15	0.175	0.047	0.0245
288.15	0.2063	0.0382	0.0247
288.15	0.2172	0.0347	0.0232

System: potassium chloride + water + monopotassium phosphate; phases: Liquid, Crystal, Crystal
Fixed: Pressure, kPa = 100
Property: Mass fraction of monopotassium phosphate (Liquid); method: gravimetric analysis
Temperature, K	Mass fraction of monopotassium phosphate	uncertainty
303.15	0.0366	0.02
288.15	0.0311	0.02

System: potassium chloride + water + monopotassium phosphate; phases: Liquid
Fixed: Pressure, kPa = 100
Property: Mass density, kg/m3 (Liquid); method: Pycnometric method
Temperature, K	Mass fraction of potassium chloride	Mass fraction of monopotassium phosphate	Mass density, kg/m3	uncertainty
303.15	0.272	0	1183.1	37.9
303.15	0.2639	0.0119	1188.7	37.7
303.15	0.258	0.0259	1195.9	45.6
303.15	0.2555	0.0337	1199.5	40.2
303.15	0.2535	0.0366	1202.8	44.6
303.15	0.2535	0.0366	1202.6	44.3
303.15	0.2535	0.0366	1199.4	38.7
303.15	0.2261	0.0453	1186.2	39.8
303.15	0.204	0.0545	1176.1	45.7
303.15	0.187	0.0612	1168.9	41.6
303.15	0.1596	0.0729	1160.3	36.4
303.15	0.15	0.0782	1156.9	43.9
303.15	0.1228	0.0938	1151.4	34.9
303.15	0.0955	0.1137	1147.8	43.2
303.15	0.0751	0.1294	1146.8	25.4
303.15	0.0524	0.1545	1147.4	32.1
303.15	0.0345	0.1722	1148.6	36.1
303.15	0.0204	0.1845	1150.9	23.2
303.15	0	0.2155	1158.8	23.5
288.15	0	0.1645	1122.3	26
288.15	0.0221	0.1428	1120.5	25.6
288.15	0.0412	0.1219	1118	33.1
288.15	0.0627	0.106	1119.6	27.3
288.15	0.0831	0.0909	1122.1	34.6
288.15	0.103	0.0803	1126.2	44.5
288.15	0.1195	0.069	1131.1	36.7
288.15	0.1405	0.0619	1138.2	64.8
288.15	0.175	0.047	1153	44.1
288.15	0.2063	0.0382	1168.6	40.2
288.15	0.2172	0.0347	1176.6	44.1
288.15	0.2341	0.0311	1181.9	37.1
288.15	0.2341	0.0311	1184.7	40.6
288.15	0.2341	0.0311	1183.9	39.6
288.15	0.2406	0.0178	1177.4	47
288.15	0.2484	0	1168.7	34

System: potassium chloride + water + monopotassium phosphate; phases: Liquid, Crystal, Crystal
Fixed: Pressure, kPa = 100
Property: Mass fraction of potassium chloride (Liquid); method: gravimetric analysis
Temperature, K	Mass fraction of potassium chloride	uncertainty
303.15	0.2535	0.02
288.15	0.2341	0.02

System: potassium chloride + water; phases: Liquid, Crystal
Fixed: Pressure, kPa = 100
Property: Solid-liquid equilibrium temperature, K (Liquid); method: gravimetric analysis
Mass fraction of potassium chloride	Solid-liquid equilibrium temperature, K	uncertainty
0.272	303.15	0.7
0.2484	288.15	0.7

System: potassium chloride + water; phases: Liquid
Fixed: Pressure, kPa = 100
Property: Mass density, kg/m3 (Liquid); method: Pycnometric method
Temperature, K	Mass fraction of potassium chloride	Mass density, kg/m3	uncertainty
303.15	0.272	1183.1	20.6
288.15	0.2484	1168.7	20.6

System: water + monopotassium phosphate; phases: Liquid, Crystal
Fixed: Pressure, kPa = 100
Property: Mass fraction of monopotassium phosphate (Liquid); method: gravimetric analysis
Temperature, K	Mass fraction of monopotassium phosphate	uncertainty
303.15	0.2155	0.0201
288.15	0.1645	0.0201

System: water + monopotassium phosphate; phases: Liquid
Fixed: Pressure, kPa = 100
Property: Mass density, kg/m3 (Liquid); method: Pycnometric method
Temperature, K	Mass fraction of monopotassium phosphate	Mass density, kg/m3	uncertainty
303.15	0.2155	1158.8	20.2
288.15	0.1645	1122.3	20.2
