Measured thermophysical data. Thermodynamic Analysis of the Experimental Equilibria for the Liquid-Phase Etherification of Isobutene with C1 to C4 Linear Primary Alcohols
Source: J. Chem. Eng. Data, 2016, 10.1021/acs.jced.5b00557
Compound 1: 2-methyl-2-propoxypropane, C7H16O, InChI=1S/C7H16O/c1-5-6-8-7(2,3)4/h5-6H2,1-4H3
Compound 2: butane, 1-(1,1-dimethylethoxy)-, C8H18O, InChI=1S/C8H18O/c1-5-6-7-9-8(2,3)4/h5-7H2,1-4H3
Compound 3: 2-ethoxy-2-methylpropane, C6H14O, InChI=1S/C6H14O/c1-5-7-6(2,3)4/h5H2,1-4H3
Compound 4: ethanol, C2H6O, InChI=1S/C2H6O/c1-2-3/h3H,2H2,1H3, purity 99.8%
Compound 5: propan-1-ol, C3H8O, InChI=1S/C3H8O/c1-2-3-4/h4H,2-3H2,1H3, purity 99.7%
Compound 6: butan-1-ol, C4H10O, InChI=1S/C4H10O/c1-2-3-4-5/h5H,2-4H2,1H3, purity 99.8%
Compound 7: 2-methylpropene, C4H8, InChI=1S/C4H8/c1-4(2)3/h1H2,2-3H3, purity 99.9%

Reaction: -1 propan-1-ol + -1 2-methylpropene + 1 2-methyl-2-propoxypropane
Property: Thermodynamic equilibrium constant
58
57.9
51
45.7
37.1
24.3
16.2
17.1

Reaction: -1 butan-1-ol + -1 2-methylpropene + 1 butane, 1-(1,1-dimethylethoxy)-
Property: Thermodynamic equilibrium constant
60.7
47.5
29.3
18.7
19
14.1
13.8

Reaction: -1 ethanol + -1 2-methylpropene + 1 2-ethoxy-2-methylpropane
Property: Thermodynamic equilibrium constant
34.3
13.6
6.7
3.35
