Measured thermophysical data. Ionic Liquid Influenced Synergistic Interaction between Amitriptyline Hydrochloride and Cetyltrimethylammonium Bromide
Source: J. Chem. Eng. Data, 2017, 10.1021/acs.jced.7b00233
Compound 1: 1-butyl-3-methylimidazolium chloride, C8H15ClN2, InChI=1S/C8H15N2.ClH/c1-3-4-5-10-7-6-9(2)8-10;/h6-8H,3-5H2,1-2H3;1H/q+1;/p-1
Compound 2: 3-(10,11-dihydro-5H-dibenzo[a,d]cyclohepten-5-ylidine)-N,N-dimethyl-1-propanamine hydrochloride, C20H24ClN, InChI=1S/C20H23N.ClH/c1-21(2)15-7-12-20-18-10-5-3-8-16(18)13-14-17-9-4-6-11-19(17)20;/h3-6,8-12H,7,13-15H2,1-2H3;1H
Compound 3: N,N,N-trimethyl-1-hexadecanaminium bromide, C19H42BrN, InChI=1S/C19H42N.BrH/c1-5-6-7-8-9-10-11-12-13-14-15-16-17-18-19-20(2,3)4;/h5-19H2,1-4H3;1H/q+1;/p-1
Compound 4: water, H2O, InChI=1S/H2O/h1H2, purity 99.8%

System: 1-butyl-3-methylimidazolium chloride + water + 3-(10,11-dihydro-5H-dibenzo[a,d]cyclohepten-5-ylidine)-N,N-dimethyl-1-propanamine hydrochloride; phases: Liquid
Fixed: Solvent: Molality, mol/kg of 1-butyl-3-methylimidazolium chloride = 0.01
Fixed: Pressure, kPa = 100
Property: Electrical conductivity, S/m (Liquid); method: Alternating current cell with electrodes
Temperature, K	Molality, mol/kg of 3-(10,11-dihydro-5H-dibenzo[a,d]cyclohepten-5-ylidine)-N,N-dimethyl-1-propanamine hydrochloride	Electrical conductivity, S/m	uncertainty
298	0	0.1413	0.06
298	0.001244	0.1503	0.06
298	0.002479	0.165	0.06
298	0.003703	0.177	0.06
298	0.004918	0.189	0.06
298	0.006122	0.201	0.06
298	0.007317	0.215	0.06
298	0.008502	0.2266	0.06
298	0.009677	0.2402	0.06
298	0.010843	0.2513	0.0601
298	0.012	0.2717	0.0601
298	0.014285	0.2927	0.0601
298	0.016535	0.313	0.0601
298	0.01875	0.328	0.0601
298	0.02093	0.348	0.0601
298	0.023076	0.365	0.0601
298	0.02519	0.385	0.0602
298	0.027272	0.406	0.0602
298	0.029323	0.42	0.0602
298	0.031343	0.437	0.0602
298	0.033333	0.451	0.0602
298	0.035294	0.469	0.0603
298	0.037226	0.485	0.0603
298	0.03913	0.498	0.0603
298	0.041007	0.512	0.0603
298	0.042857	0.524	0.0604
298	0.04468	0.543	0.0607
298	0.046478	0.56	0.0604
298	0.048251	0.569	0.0602
298	0.05	0.579	0.0603
298	0.051724	0.591	0.0604
303	0	0.148	0.06
303	0.002479	0.159	0.06
303	0.003703	0.174	0.06
303	0.004918	0.186	0.06
303	0.006122	0.198	0.06
303	0.007317	0.209	0.06
303	0.008502	0.223	0.06
303	0.009677	0.235	0.06
303	0.010843	0.248	0.0601
303	0.012	0.27	0.0601
303	0.014285	0.288	0.06
303	0.016535	0.306	0.0601
303	0.01875	0.328	0.0601
303	0.02093	0.345	0.0601
303	0.023076	0.368	0.0601
303	0.02519	0.3825	0.0601
303	0.027272	0.401	0.0602
303	0.029323	0.416	0.0602
303	0.031343	0.4353	0.0603
303	0.033333	0.452	0.0603
303	0.035294	0.469	0.0603
303	0.037226	0.4854	0.0603
303	0.03913	0.5008	0.0604
303	0.041007	0.519	0.0604
303	0.042857	0.5335	0.0604
303	0.04468	0.5502	0.0605
303	0.046478	0.5635	0.0604
303	0.048251	0.5777	0.0604
303	0.05	0.5894	0.0603
308	0	0.138	0.06
308	0.001244	0.147	0.06
308	0.002479	0.162	0.06
308	0.003703	0.182	0.06
308	0.004918	0.193	0.06
308	0.006122	0.203	0.06
308	0.007317	0.216	0.06
308	0.008502	0.228	0.06
308	0.009677	0.239	0.06
308	0.010843	0.247	0.0601
308	0.012	0.274	0.0601
308	0.014285	0.293	0.0601
308	0.016535	0.315	0.0601
308	0.01875	0.335	0.0601
308	0.02093	0.353	0.0601
308	0.023076	0.37	0.0601
308	0.02519	0.388	0.0602
308	0.027272	0.407	0.0602
308	0.029323	0.427	0.0602
308	0.031343	0.44	0.0602
308	0.033333	0.46	0.0603
308	0.035294	0.476	0.0604
308	0.037226	0.496	0.0604
308	0.03913	0.511	0.0605
308	0.041007	0.535	0.0603
308	0.042857	0.538	0.0601
308	0.04468	0.551	0.0604
308	0.046478	0.566	0.0605
308	0.048251	0.58	0.0606
308	0.05	0.597	0.0607
308	0.051724	0.611	0.0606
313	0	0.142	0.06
313	0.001244	0.156	0.06
313	0.002479	0.167	0.06
313	0.003703	0.179	0.06
313	0.004918	0.19	0.06
313	0.006122	0.202	0.06
313	0.007317	0.212	0.06
313	0.008502	0.224	0.06
313	0.009677	0.238	0.06
313	0.010843	0.249	0.06
313	0.012	0.259	0.06
313	0.014285	0.277	0.0601
313	0.016535	0.301	0.0601
313	0.01875	0.321	0.0601
313	0.02093	0.34	0.0601
313	0.023076	0.357	0.0602
313	0.02519	0.381	0.0602
313	0.027272	0.397	0.0602
313	0.029323	0.42	0.0602
313	0.031343	0.433	0.0603
313	0.033333	0.457	0.0604
313	0.035294	0.472	0.0603
313	0.037226	0.491	0.0604
313	0.03913	0.509	0.0603
313	0.041007	0.522	0.0603
313	0.042857	0.536	0.0607
313	0.04468	0.561	0.0606
313	0.046478	0.57	0.0604
313	0.048251	0.587	0.0606
313	0.05	0.602	0.0608
313	0.051724	0.62	0.061
318	0	0.141	0.06
318	0.001244	0.152	0.06
318	0.002479	0.163	0.06
318	0.003703	0.176	0.06
318	0.004918	0.188	0.06
318	0.006122	0.2021	0.06
318	0.007317	0.2105	0.06
318	0.008502	0.224	0.06
318	0.009677	0.2348	0.06
318	0.010843	0.2489	0.06
318	0.012	0.26	0.0601
318	0.014285	0.2847	0.0601
318	0.016535	0.3102	0.0601
318	0.01875	0.3318	0.0601
318	0.02093	0.3507	0.0601
318	0.023076	0.3739	0.0602
318	0.02519	0.3921	0.0602
318	0.027272	0.413	0.0602
318	0.029323	0.4308	0.0603
318	0.031343	0.4551	0.0603
318	0.033333	0.4709	0.0603
318	0.035294	0.4931	0.0604
318	0.037226	0.51	0.0604
318	0.03913	0.5275	0.0606
318	0.041007	0.5497	0.0605
318	0.042857	0.5636	0.0605
318	0.04468	0.5811	0.0605
318	0.046478	0.5952	0.0606
318	0.048251	0.6131	0.0607
318	0.05	0.6289	0.0607

System: 1-butyl-3-methylimidazolium chloride + water + N,N,N-trimethyl-1-hexadecanaminium bromide; phases: Liquid
Fixed: Solvent: Molality, mol/kg of 1-butyl-3-methylimidazolium chloride = 0.01
Fixed: Pressure, kPa = 100
Property: Electrical conductivity, S/m (Liquid); method: Alternating current cell with electrodes
Temperature, K	Molality, mol/kg of N,N,N-trimethyl-1-hexadecanaminium bromide	Electrical conductivity, S/m	uncertainty
298	0	0.0937	0.06
298	4.9e-05	0.0948	0.06
298	9.9e-05	0.0962	0.06
298	0.000148	0.0967	0.06
298	0.000197	0.0971	0.06
298	0.000245	0.0977	0.06
298	0.000294	0.0978	0.06
298	0.000342	0.098	0.06
298	0.000389	0.0982	0.06
298	0.000436	0.0984	0.06
298	0.000483	0.0984	0.06
298	0.00053	0.0986	0.06
298	0.000576	0.0987	0.06
298	0.000623	0.0988	0.06
298	0.000668	0.099	0.06
298	0.000714	0.0991	0.06
298	0.000759	0.0992	0.06
298	0.000804	0.0993	0.06
298	0.000849	0.0995	0.06
298	0.000893	0.0997	0.06
298	0.000937	0.0998	0.06
298	0.000981	0.0999	0.06
298	0.001024	0.0999	0.06
298	0.001068	0.1002	0.06
298	0.001111	0.1002	0.06
298	0.001153	0.1003	0.06
298	0.001196	0.1004	0.06
298	0.001238	0.1005	0.06
298	0.00128	0.1006	0.06
298	0.001322	0.1008	0.06
298	0.001363	0.1008	0.06
298	0.001404	0.1009	0.06
303	0	0.0926	0.06
303	4.9e-05	0.094	0.06
303	9.9e-05	0.0945	0.06
303	0.000148	0.0951	0.06
303	0.000197	0.0957	0.06
303	0.000245	0.0959	0.06
303	0.000294	0.0964	0.06
303	0.000342	0.0967	0.06
303	0.000389	0.0969	0.06
303	0.000436	0.0972	0.06
303	0.000483	0.0974	0.06
303	0.000576	0.0978	0.06
303	0.000668	0.098	0.06
303	0.000759	0.0982	0.06
303	0.000849	0.0985	0.06
303	0.000937	0.0987	0.06
303	0.001024	0.099	0.06
303	0.001111	0.0993	0.06
303	0.001196	0.0995	0.06
303	0.00128	0.0997	0.06
303	0.001363	0.1	0.06
303	0.001445	0.1002	0.06
303	0.001526	0.1005	0.06
303	0.001607	0.1006	0.06
303	0.001686	0.1007	0.06
303	0.001764	0.1009	0.06
303	0.001842	0.1012	0.06
303	0.001918	0.1014	0.06
303	0.001994	0.1016	0.06
303	0.002068	0.102	0.06
303	0.002142	0.1021	0.06
303	0.002215	0.1024	0.06
308	0	0.0938	0.06
308	4.9e-05	0.096	0.06
308	9.9e-05	0.0965	0.06
308	0.000148	0.097	0.06
308	0.000197	0.0975	0.06
308	0.000245	0.0981	0.06
308	0.000294	0.0984	0.06
308	0.000342	0.0987	0.06
308	0.000389	0.0991	0.06
308	0.000436	0.0994	0.06
308	0.000483	0.0996	0.06
308	0.000576	0.0998	0.06
308	0.000668	0.1002	0.06
308	0.000759	0.1004	0.06
308	0.000849	0.1006	0.06
308	0.000937	0.1008	0.06
308	0.001024	0.1012	0.06
308	0.001111	0.1014	0.06
308	0.001196	0.1016	0.06
308	0.00128	0.1017	0.06
308	0.001363	0.1021	0.06
308	0.001445	0.1023	0.06
308	0.001526	0.1026	0.06
308	0.001607	0.1028	0.06
308	0.001686	0.103	0.06
308	0.001764	0.1032	0.06
308	0.001842	0.1035	0.06
308	0.001918	0.1036	0.06
308	0.001994	0.1039	0.06
308	0.002068	0.1041	0.06
308	0.002142	0.1044	0.06
308	0.002215	0.1047	0.06
313	0	0.0996	0.06
313	4.9e-05	0.1009	0.06
313	9.9e-05	0.1014	0.06
313	0.000148	0.1019	0.06
313	0.000197	0.1023	0.06
313	0.000245	0.1028	0.06
313	0.000294	0.1032	0.06
313	0.000342	0.1036	0.06
313	0.000389	0.104	0.06
313	0.000436	0.1042	0.06
313	0.000483	0.1043	0.06
313	0.000576	0.1046	0.06
313	0.000668	0.1049	0.06
313	0.000759	0.1052	0.06
313	0.000849	0.1054	0.06
313	0.000937	0.1058	0.06
313	0.001024	0.1059	0.06
313	0.001111	0.1062	0.06
313	0.001196	0.1065	0.06
313	0.00128	0.1068	0.06
313	0.001363	0.1071	0.06
313	0.001445	0.1073	0.06
313	0.001526	0.1075	0.06
313	0.001607	0.1077	0.06
313	0.001686	0.1079	0.06
313	0.001764	0.1083	0.06
313	0.001842	0.1083	0.06
313	0.001918	0.1086	0.06
313	0.001994	0.1089	0.06
313	0.002068	0.1091	0.06
313	0.002142	0.1093	0.06
313	0.002215	0.1095	0.06
318	0	0.0984	0.06
318	4.9e-05	0.1005	0.06
318	9.9e-05	0.101	0.06
318	0.000148	0.1016	0.06
318	0.000197	0.102	0.06
318	0.000245	0.1024	0.06
318	0.000294	0.1027	0.06
318	0.000342	0.1028	0.06
318	0.000389	0.103	0.06
318	0.000436	0.1034	0.06
318	0.000483	0.1036	0.06
318	0.000576	0.104	0.06
318	0.000668	0.1041	0.06
318	0.000759	0.1045	0.06
318	0.000849	0.1047	0.06
318	0.000937	0.1049	0.06
318	0.001024	0.1053	0.06
318	0.001111	0.1054	0.06
318	0.001196	0.1055	0.06
318	0.00128	0.106	0.06
318	0.001363	0.1063	0.06
318	0.001445	0.1064	0.06
318	0.001526	0.1068	0.06
318	0.001607	0.1069	0.06
318	0.001686	0.1071	0.06
318	0.001764	0.1074	0.06
318	0.001842	0.1075	0.06
318	0.001918	0.1077	0.06
318	0.001994	0.108	0.06
318	0.002068	0.1081	0.06
318	0.002142	0.1082	0.06
318	0.002215	0.1086	0.06

System: 1-butyl-3-methylimidazolium chloride + water; phases: Liquid
Fixed: Molality, mol/kg of 1-butyl-3-methylimidazolium chloride = 0.01
Fixed: Pressure, kPa = 100
Property: Electrical conductivity, S/m (Liquid); method: Alternating current cell with electrodes
Temperature, K	Electrical conductivity, S/m	uncertainty
298	0.1413	0.06
303	0.148	0.06
308	0.138	0.06
313	0.142	0.06
318	0.141	0.06
298	0.0937	0.06
303	0.0926	0.06
308	0.0938	0.06
313	0.0996	0.06
318	0.0984	0.06
