Measured thermophysical data. Phase Equilibria in the Ternary Systems Li2B4O7 MgB4O7 H2O and K2B4O7 MgB4O7 H2O at 273 K
Source: J. Chem. Eng. Data, 2016, 10.1021/acs.jced.5b00570
Compound 1: water, H2O, InChI=1S/H2O/h1H2, purity 99.8%
Compound 2: lithium borate, B4Li2O7, InChI=1S/B4O7.2Li/c5-3-7-1-8-4(6,11-3)10-2-9-3;;/q-2;2*+1, purity 99%
Compound 3: magnesium tetraborate, B4MgO7, InChI=1S/B4O7.Mg/c5-1-7-3-9-2(6)10-4(8-1)11-3;/q-2;+2, purity 99%
Compound 4: potassium tetraborate, B4K2O7, InChI=1S/B4O7.2K/c5-1-7-3-9-2(6)10-4(8-1)11-3;;/q-2;2*+1, purity 99%

System: water + lithium borate + magnesium tetraborate; phases: Liquid
Fixed: Pressure, kPa = 94.77
Fixed: Temperature, K = 273
Property: Mass density, kg/m3 (Liquid); method: Pycnometric method
Mass fraction of lithium borate	Mass fraction of magnesium tetraborate	Mass density, kg/m3	uncertainty
0.0206	0	1021.1	20
0.0202	0.0002	1020.8	20
0.0209	0.0006	1022	20
0.022	0.0007	1023.3	20
0.0224	0.0009	1023.8	20
0.0231	0.001	1024.7	20
0.0225	0.001	1024.1	20
0.0183	0.0009	1019.6	20
0.0148	0.0007	1015.8	20
0.011	0.001	1012.2	20
0.0069	0.0014	1008.4	20
0.0037	0.0027	1006.4	20
0.0028	0.0034	1006.2	20
0	0.0046	1004.6	20

System: water + lithium borate + magnesium tetraborate; phases: Liquid, Crystal of intercomponent compound 1
Fixed: Pressure, kPa = 94.77
Fixed: Temperature, K = 273
Property: Mass fraction of magnesium tetraborate (Liquid); method: Titration method
Mass fraction of lithium borate	Mass fraction of magnesium tetraborate	uncertainty
0.0206	0	
0.0202	0.0002	0.0002
0.0209	0.0006	0.0006
0.022	0.0007	0.0007
0.0224	0.0009	0.0009
0.0231	0.001	0.001

System: water + lithium borate + magnesium tetraborate; phases: Liquid, Crystal of intercomponent compound 2
Fixed: Pressure, kPa = 94.77
Fixed: Temperature, K = 273
Property: Mass fraction of magnesium tetraborate (Liquid); method: Titration method
Mass fraction of lithium borate	Mass fraction of magnesium tetraborate	uncertainty
0.0231	0.001	0.001
0.0225	0.001	0.001
0.0183	0.0009	0.0009
0.0148	0.0007	0.0007
0.011	0.001	0.001
0.0069	0.0014	0.0014
0.0037	0.0027	0.0027
0.0028	0.0034	0.0034
0	0.0046	0.0046

System: potassium tetraborate + water + magnesium tetraborate; phases: Liquid
Fixed: Pressure, kPa = 94.77
Fixed: Temperature, K = 273
Property: Mass density, kg/m3 (Liquid); method: Pycnometric method
Mass fraction of potassium tetraborate	Mass fraction of magnesium tetraborate	Mass density, kg/m3	uncertainty
0.0723	0	1078	20.8
0.0765	0.0002	1083.1	20.8
0.0809	0.0006	1088.7	20.8
0.0864	0.0008	1095.5	20.9
0.0896	0.0009	1099.6	20.9
0.0919	0.001	1102.4	20.9
0.102	0.0011	1114.9	20.9
0.104	0.0012	1117.6	21
0.083	0.0009	1091.6	20.9
0.0757	0.0008	1082.9	20.8
0.0677	0.0008	1073.6	20.8
0.0546	0.0008	1058.7	20.8
0.0312	0.0013	1033.7	20.8
0.0194	0.0021	1022.1	20.7
0	0.0045	1004.5	20

System: potassium tetraborate + water + magnesium tetraborate; phases: Liquid, Crystal of intercomponent compound 1
Fixed: Pressure, kPa = 94.77
Fixed: Temperature, K = 273
Property: Mass fraction of magnesium tetraborate (Liquid); method: Titration method
Mass fraction of potassium tetraborate	Mass fraction of magnesium tetraborate	uncertainty
0.0723	0	
0.0765	0.0002	0.0002
0.0809	0.0006	0.0006
0.0864	0.0008	0.0008
0.0896	0.0009	0.0009
0.0919	0.001	0.001
0.102	0.0011	0.0011
0.104	0.0012	0.0012

System: potassium tetraborate + water + magnesium tetraborate; phases: Liquid, Crystal of intercomponent compound 2
Fixed: Pressure, kPa = 94.77
Fixed: Temperature, K = 273
Property: Mass fraction of magnesium tetraborate (Liquid); method: Titration method
Mass fraction of potassium tetraborate	Mass fraction of magnesium tetraborate	uncertainty
0.104	0.0012	0.0012
0.083	0.0009	0.0009
0.0757	0.0008	0.0008
0.0677	0.0008	0.0008
0.0546	0.0008	0.0008
0.0312	0.0013	0.0013
0.0194	0.0021	0.0021
0	0.0045	0.0045

System: water + lithium borate; phases: Liquid
Property: Mass density, kg/m3 (Liquid); method: Pycnometric method
Mass fraction of lithium borate	Pressure, kPa	Temperature, K	Mass density, kg/m3	uncertainty
0.0206	94.77	273	1021.1	20

System: water + lithium borate; phases: Liquid, Crystal of intercomponent compound 1
Property: Mass fraction of lithium borate (Liquid); method: Titration method
Pressure, kPa	Temperature, K	Mass fraction of lithium borate	uncertainty
94.77	273	0.0206	0.005

System: water + magnesium tetraborate; phases: Liquid
Fixed: Pressure, kPa = 94.77
Fixed: Temperature, K = 273
Property: Mass density, kg/m3 (Liquid); method: Pycnometric method
Mass fraction of magnesium tetraborate	Mass density, kg/m3	uncertainty
0.0046	1004.6	20
0.0045	1004.5	20

System: water + magnesium tetraborate; phases: Liquid, Crystal of intercomponent compound 2
Property: Mass fraction of magnesium tetraborate (Liquid); method: Titration method
Pressure, kPa	Temperature, K	Mass fraction of magnesium tetraborate	uncertainty
94.77	273	0.0046	0.0046

System: potassium tetraborate + water; phases: Liquid
Property: Mass density, kg/m3 (Liquid); method: Pycnometric method
Mass fraction of potassium tetraborate	Pressure, kPa	Temperature, K	Mass density, kg/m3	uncertainty
0.0723	94.77	273	1078	20

System: potassium tetraborate + water; phases: Liquid, Crystal of intercomponent compound 1
Property: Mass fraction of potassium tetraborate (Liquid); method: Titration method
Pressure, kPa	Temperature, K	Mass fraction of potassium tetraborate	uncertainty
94.77	273	0.0723	0.005
