Measured thermophysical data. Vapor Phase PTx Measurements of Binary Blends of 2,3,3,3-Tetrafluoroprop-1-ene + Isobutane and trans-1,3,3,3-Tetrafluoroprop-1-ene + Isobutane
Source: J. Chem. Eng. Data, 2017, 10.1021/acs.jced.7b00564
Compound 1: 2-methylpropane, C4H10, InChI=1S/C4H10/c1-4(2)3/h4H,1-3H3, purity 99.9%
Compound 2: 2,3,3,3-tetrafluoro-1-propene, C3H2F4, InChI=1S/C3H2F4/c1-2(4)3(5,6)7/h1H2, purity 99.95%
Compound 3: trans-1,3,3,3-tetrafluoropropene, C3H2F4, InChI=1S/C3H2F4/c4-2-1-3(5,6)7/h1-2H/b2-1+, purity 99.5%

System: 2-methylpropane + 2,3,3,3-tetrafluoro-1-propene; phases: Gas
Property: Specific volume, m3/kg (Gas); method: ISOCHOR
Mole fraction of 2-methylpropane	Temperature, K	Pressure, kPa	Specific volume, m3/kg	uncertainty
0.234	303.15	246.7	0.0939	0.0014
0.234	308.15	251.2	0.094	0.0022
0.234	313.15	255.6	0.094	0.0022
0.234	318.15	260.1	0.094	0.0022
0.234	323.15	264.6	0.094	0.0009
0.234	328.15	269	0.094	0.0009
0.234	333.15	273.4	0.0941	0.0029
0.234	338.15	277.8	0.0941	0.0015
0.234	343.15	282.2	0.0941	0.0015
0.234	348.15	286.6	0.0941	0.0015
0.234	353.15	291	0.0941	0.0015
0.234	358.15	295.4	0.0942	0.0013
0.234	363.15	299.8	0.0942	0.0013
0.234	368.15	304.1	0.0942	0.0013
0.234	373.15	308.5	0.0942	0.0013
0.234	378.15	313	0.0942	0.0012
0.234	383.15	317.4	0.0943	0.0012
0.4	303.15	269.3	0.0942	0.0015
0.4	308.15	274.3	0.0942	0.0015
0.4	313.15	279.2	0.0943	0.0015
0.4	318.15	284.2	0.0943	0.0014
0.4	323.15	289.2	0.0943	0.0014
0.4	328.15	294.1	0.0943	0.0014
0.4	333.15	299	0.0944	0.0014
0.4	338.15	303.9	0.0944	0.0014
0.4	343.15	308.8	0.0944	0.0013
0.4	348.15	313.5	0.0944	0.0013
0.4	353.15	318.3	0.0944	0.0013
0.4	358.15	323.2	0.0945	0.0013
0.4	363.15	328.1	0.0945	0.0013
0.4	368.15	332.9	0.0945	0.0013
0.4	373.15	337.7	0.0945	0.0012
0.4	378.15	342.6	0.0945	0.0012
0.4	383.15	347.4	0.0946	0.0012
0.606	303.15	180.2	0.1663	0.001
0.606	308.15	183.3	0.1664	0.001
0.606	313.15	186.5	0.1664	0.001
0.606	318.15	189.7	0.1665	0.0009
0.606	323.15	192.9	0.1665	0.0009
0.606	328.15	196	0.1665	0.0009
0.606	333.15	199.2	0.1666	0.0009
0.606	338.15	202.3	0.1666	0.0009
0.606	343.15	205.5	0.1666	0.0009
0.606	348.15	208.6	0.1667	0.0009
0.606	353.15	211.8	0.1667	0.0009
0.606	358.15	214.9	0.1667	0.0009
0.606	363.15	218	0.1668	0.0009
0.606	368.15	221.1	0.1668	0.0009
0.606	373.15	224.3	0.1669	0.0009
0.606	378.15	227.5	0.1669	0.0008
0.606	383.15	230.6	0.1669	0.0008
0.772	303.15	260.6	0.1279	0.001
0.772	308.15	265.4	0.1279	0.001
0.772	313.15	270.2	0.1279	0.001
0.772	318.15	275.1	0.1279	0.0009
0.772	323.15	279.9	0.128	0.0009
0.772	328.15	284.6	0.128	0.0009
0.772	333.15	289.4	0.128	0.0009
0.772	338.15	294.2	0.1281	0.0009
0.772	343.15	298.9	0.1281	0.0009
0.772	348.15	303.6	0.1281	0.0009
0.772	353.15	308.1	0.1281	0.0009
0.772	358.15	312.6	0.1282	0.0009
0.472	303.15	163.5	0.1698	0.0015
0.472	308.15	166.4	0.1699	0.0015
0.472	313.15	169.2	0.1699	0.0015
0.472	318.15	172.1	0.17	0.0014
0.472	323.15	174.7	0.17	0.0014
0.472	328.15	177.5	0.17	0.0014
0.472	333.15	180.3	0.1701	0.0014
0.472	338.15	183.1	0.1701	0.0014
0.472	343.15	185.9	0.1701	0.0013
0.472	348.15	188.7	0.1702	0.0013
0.472	353.15	191.5	0.1702	0.0013
0.472	358.15	194.3	0.1703	0.0013
0.472	363.15	197.1	0.1703	0.0013
0.472	368.15	200.1	0.1703	0.0013
0.472	373.15	202.9	0.1704	0.0012
0.472	378.15	205.7	0.1704	0.0012
0.472	383.15	208.5	0.1704	0.0012
0.85	308.15	426.8	0.0797	0.001
0.85	313.15	435.6	0.0797	0.001
0.85	318.15	444.2	0.0797	0.001
0.85	323.15	452.8	0.0797	0.0009
0.85	328.15	461.2	0.0797	0.0009
0.85	333.15	469.7	0.0798	0.0009
0.85	338.15	477.9	0.0798	0.0009
0.85	343.15	486.3	0.0798	0.0009
0.85	348.15	494.6	0.0798	0.0008
0.85	353.15	502.9	0.0798	0.0008
0.85	358.15	511.2	0.0798	0.0008
0.85	363.15	519.5	0.0799	0.0008
0.85	368.15	527.7	0.0799	0.0008
0.85	373.15	535.9	0.0799	0.0008
0.85	378.15	544.1	0.0799	0.0008
0.85	383.15	552.4	0.0799	0.0008

System: 2-methylpropane + trans-1,3,3,3-tetrafluoropropene; phases: Gas
Property: Specific volume, m3/kg (Gas); method: ISOCHOR
Mole fraction of 2-methylpropane	Temperature, K	Pressure, kPa	Specific volume, m3/kg	uncertainty
0.29	303.15	267.9	0.0895	0.0008
0.29	308.15	273	0.0895	0.0008
0.29	313.15	277.9	0.0896	0.0007
0.29	318.15	282.8	0.0896	0.0007
0.29	323.15	287.8	0.0896	0.0007
0.29	328.15	292.7	0.0896	0.0007
0.29	333.15	297.6	0.0896	0.0007
0.29	338.15	302.5	0.0897	0.0007
0.29	343.15	307.4	0.0897	0.0007
0.29	348.15	312.2	0.0897	0.0007
0.29	353.15	317.1	0.0897	0.0007
0.29	358.15	321.9	0.0897	0.0006
0.29	363.15	326.8	0.0898	0.0006
0.29	368.15	331.6	0.0898	0.0006
0.29	373.15	336.5	0.0898	0.0006
0.29	378.15	341.4	0.0898	0.0006
0.29	383.15	346.2	0.0898	0.0006
0.428	303.15	305.5	0.0844	0.0008
0.428	308.15	311.3	0.0844	0.0008
0.428	313.15	317.1	0.0844	0.0008
0.428	318.15	322.8	0.0845	0.0008
0.428	323.15	328.5	0.0845	0.0008
0.428	328.15	334.2	0.0845	0.0007
0.428	333.15	339.9	0.0845	0.0007
0.428	338.15	345.6	0.0845	0.0007
0.428	343.15	351.2	0.0846	0.0007
0.428	348.15	356.9	0.0846	0.0007
0.428	353.15	362.6	0.0846	0.0007
0.428	358.15	368.2	0.0846	0.0007
0.428	363.15	373.9	0.0846	0.0007
0.428	368.15	379.5	0.0846	0.0007
0.428	373.15	385.1	0.0847	0.0006
0.428	378.15	390.7	0.0847	0.0006
0.428	383.15	396.3	0.0847	0.0006
0.516	303.15	259.6	0.1062	0.0008
0.516	308.15	264.5	0.1062	0.0008
0.516	313.15	269.2	0.1062	0.0008
0.516	318.15	274	0.1063	0.0008
0.516	323.15	278.8	0.1063	0.0008
0.516	328.15	283.5	0.1063	0.0007
0.516	333.15	288.2	0.1063	0.0007
0.516	338.15	292.9	0.1064	0.0007
0.516	343.15	297.6	0.1064	0.0007
0.516	348.15	302.3	0.1064	0.0007
0.516	353.15	307	0.1064	0.0007
0.516	358.15	311.7	0.1064	0.0007
0.516	363.15	316.4	0.1065	0.0007
0.516	368.15	321.1	0.1065	0.0007
0.516	373.15	325.7	0.1065	0.0007
0.516	378.15	330.4	0.1065	0.0006
0.516	383.15	335.1	0.1066	0.0006
0.612	303.15	321	0.089	0.0009
0.612	308.15	327.2	0.089	0.0008
0.612	313.15	333.4	0.0891	0.0008
0.612	318.15	339.5	0.0891	0.0008
0.612	323.15	345.6	0.0891	0.0008
0.612	328.15	351.7	0.0891	0.0008
0.612	333.15	357.8	0.0891	0.0008
0.612	338.15	363.8	0.0892	0.0007
0.612	343.15	369.8	0.0892	0.0007
0.612	348.15	375.8	0.0892	0.0007
0.612	353.15	381.8	0.0892	0.0007
0.612	358.15	387.8	0.0892	0.0007
0.612	363.15	393.7	0.0892	0.0007
0.612	368.15	399.7	0.0893	0.0007
0.612	373.15	405.6	0.0893	0.0006
0.612	378.15	411.7	0.0893	0.0006
0.612	383.15	417.6	0.0893	0.0006
0.685	303.15	304.9	0.1004	0.0008
0.685	308.15	310.7	0.1004	0.0008
0.685	313.15	316.5	0.1005	0.0007
0.685	318.15	322.2	0.1005	0.0007
0.685	323.15	328	0.1005	0.0007
0.685	328.15	333.7	0.1005	0.0007
0.685	333.15	339.5	0.1005	0.0007
0.685	338.15	345.1	0.1006	0.0007
0.685	343.15	350.8	0.1006	0.0007
0.685	348.15	356.5	0.1006	0.0007
0.685	353.15	362.1	0.1006	0.0007
0.685	358.15	367.7	0.1007	0.0007
0.685	363.15	373.3	0.1007	0.0007
0.685	368.15	379	0.1007	0.0007
0.685	373.15	384.7	0.1007	0.0006
0.685	378.15	390.3	0.1007	0.0006
0.685	383.15	395.9	0.1008	0.0006
0.755	303.15	367.4	0.0856	0.0008
0.755	308.15	374.9	0.0856	0.0008
0.755	313.15	382.2	0.0857	0.0008
0.755	318.15	389.5	0.0857	0.0007
0.755	323.15	396.8	0.0857	0.0007
0.755	328.15	404	0.0857	0.0007
0.755	333.15	411.2	0.0857	0.0007
0.755	338.15	418.3	0.0857	0.0007
0.755	343.15	425.4	0.0858	0.0007
0.755	348.15	432.4	0.0858	0.0007
0.755	353.15	439.4	0.0858	0.0007
0.755	358.15	446.5	0.0858	0.0007
0.755	363.15	453.5	0.0858	0.0006
0.755	368.15	460.5	0.0859	0.0006
0.755	373.15	467.6	0.0859	0.0006
0.755	378.15	474.5	0.0859	0.0006
0.755	383.15	481.6	0.0859	0.0006
