Measured thermophysical data. Isobaric Vapor Liquid Equilibrium Data for the Binary System of Water + 2-Methylpyridine at 101.3, 60.0, and 20.0 kPa
Source: J. Chem. Eng. Data, 2017, 10.1021/acs.jced.6b00713
Compound 1: 2-methylpyridine, C6H7N, InChI=1S/C6H7N/c1-6-4-2-3-5-7-6/h2-5H,1H3, purity 99.9%
Compound 2: water, H2O, InChI=1S/H2O/h1H2, purity 99.8%

System: 2-methylpyridine; phases: Liquid, Gas
Property: Boiling temperature at pressure P, K (Liquid); method: Ebulliometric method (Recirculating still)
Pressure, kPa	Boiling temperature at pressure P, K	uncertainty
101.3	402.2	0.2

System: 2-methylpyridine; phases: Liquid
Property: Mass density, kg/m3 (Liquid); method: Vibrating tube method
Temperature, K	Pressure, kPa	Mass density, kg/m3	uncertainty
298.15	101.325	940.5	0.1

System: 2-methylpyridine; phases: Liquid
Property: Refractive index (Na D-line) (Liquid); method: Standard Abbe refractometry
Temperature, K	Pressure, kPa	Refractive index (Na D-line)	uncertainty
293.15	101.325	1.4985	0.0007

System: water; phases: Liquid, Gas
Property: Boiling temperature at pressure P, K (Liquid); method: Ebulliometric method (Recirculating still)
Pressure, kPa	Boiling temperature at pressure P, K	uncertainty
101.3	373.25	0.2

System: water; phases: Liquid
Property: Mass density, kg/m3 (Liquid); method: Vibrating tube method
Temperature, K	Pressure, kPa	Mass density, kg/m3	uncertainty
298.15	101.325	1001	0.1

System: water; phases: Liquid
Property: Refractive index (Na D-line) (Liquid); method: Standard Abbe refractometry
Temperature, K	Pressure, kPa	Refractive index (Na D-line)	uncertainty
293.15	101.325	1.3322	0.0007

System: 2-methylpyridine + water; phases: Liquid, Gas
Property: Boiling temperature at pressure P, K (Liquid); method: Ebulliometric method (Recirculating still)
Mole fraction of water	Pressure, kPa	Boiling temperature at pressure P, K	uncertainty
0.999	101.3	372.34	0.34
0.997	101.3	371.16	0.44
0.9829	101.3	368.62	0.26
0.927	101.3	368.4	0.25
0.891	101.3	368.2	0.25
0.85	101.3	368.18	0.25
0.813	101.3	368.18	0.25
0.777	101.3	368.18	0.25
0.754	101.3	368.18	0.25
0.692	101.3	368.19	0.25
0.601	101.3	368.39	0.25
0.449	101.3	369.43	0.24
0.3416	101.3	370.25	0.23
0.2913	101.3	372.8	0.26
0.217	101.3	378.03	0.28
0.1474	101.3	383.47	0.3
0.0616	101.3	392.31	0.34
0.0356	101.3	396.01	0.41
0.0054	101.3	401.11	0.42
0.9971	60	358.7	1.89
0.9925	60	358.11	0.34
0.9911	60	357.97	0.37
0.9806	60	357.11	0.32
0.975	60	356.8	1.72
0.9517	60	355.76	0.31
0.9256	60	355.64	0.27
0.8867	60	355.39	0.27
0.8608	60	355.26	0.32
0.8459	60	355.26	0.3
0.813	60	355.28	0.27
0.7794	60	355.44	0.27
0.7328	60	355.46	0.27
0.6756	60	355.49	0.27
0.5746	60	355.54	0.27
0.4266	60	357.69	0.26
0.3023	60	363.17	0.27
0.2122	60	367.33	0.3
0.0685	60	377.47	0.3
0.9985	20	333.08	0.3
0.9957	20	332.86	0.32
0.9912	20	332.52	0.31
0.9836	20	332.06	0.3
0.9811	20	331.95	0.29
0.9571	20	330.99	0.28
0.9254	20	330.52	0.28
0.8915	20	330.41	0.27
0.8571	20	330.38	0.27
0.8228	20	330.38	0.27
0.7723	20	330.39	0.28
0.7137	20	330.47	0.28
0.6834	20	330.56	0.27
0.5435	20	331.7	0.27
0.4322	20	334.81	0.27
0.3639	20	336.5	0.28
0.3128	20	338.03	0.28
0.2645	20	339.42	0.28
0.1987	20	341.98	0.29
0.0933	20	346.68	0.31
0.0322	20	350.57	0.32

System: 2-methylpyridine + water; phases: Gas, Liquid
Property: Mole fraction of water (Gas); method: UV spectroscopy
Mole fraction of water	Pressure, kPa	Mole fraction of water	uncertainty
0.999	101.3	0.974	0.0084
0.997	101.3	0.9331	0.013
0.9829	101.3	0.8426	0.0035
0.927	101.3	0.812	0.0023
0.891	101.3	0.795	0.0021
0.85	101.3	0.792	0.0021
0.813	101.3	0.791	0.002
0.777	101.3	0.791	0.002
0.754	101.3	0.79	0.002
0.692	101.3	0.79	0.0021
0.601	101.3	0.785	0.0021
0.449	101.3	0.765	0.0021
0.3416	101.3	0.7185	0.0023
0.2913	101.3	0.6851	0.0027
0.217	101.3	0.614	0.0032
0.1474	101.3	0.5058	0.0046
0.0616	101.3	0.2941	0.0058
0.0356	101.3	0.1913	0.0095
0.0054	101.3	0.035	0.0106
0.9971	60	0.9819	0.0047
0.9925	60	0.9565	0.0078
0.9911	60	0.9502	0.0077
0.9806	60	0.9091	0.0076
0.975	60	0.8929	0.0024
0.9517	60	0.8493	0.0033
0.9256	60	0.8294	0.0022
0.8867	60	0.8213	0.0021
0.8608	60	0.821	0.0021
0.8459	60	0.8205	0.002
0.813	60	0.8203	0.002
0.7794	60	0.8201	0.002
0.7328	60	0.8197	0.002
0.6756	60	0.8193	0.002
0.5746	60	0.8015	0.0021
0.4266	60	0.7461	0.0023
0.3023	60	0.6591	0.0027
0.2122	60	0.5542	0.0041
0.0685	60	0.2583	0.0045
0.9985	20	0.9925	0.0071
0.9957	20	0.9798	0.0089
0.9912	20	0.9608	0.0079
0.9836	20	0.9335	0.0073
0.9811	20	0.9257	0.0066
0.9571	20	0.8743	0.0035
0.9254	20	0.8462	0.0023
0.8915	20	0.8361	0.0021
0.8571	20	0.833	0.002
0.8228	20	0.8318	0.002
0.7723	20	0.8296	0.002
0.7137	20	0.8243	0.002
0.6834	20	0.82	0.0021
0.5435	20	0.7829	0.0022
0.4322	20	0.7291	0.0024
0.3639	20	0.6739	0.0027
0.3128	20	0.6243	0.0029
0.2645	20	0.574	0.0032
0.1987	20	0.4838	0.0039
0.0933	20	0.2927	0.0047
0.0322	20	0.1197	0.006
