Measured thermophysical data. Thermophysical Properties of 1-Butyl-3-methylimidazolium Trifluoromethanesulfonate in a Wide Range of Temperatures and Pressures
Source: J. Chem. Eng. Data, 2019, 10.1021/acs.jced.8b00837
Compound 1: 1-butyl-3-methylimidazolium trifluoromethanesulfonate, C9H15F3N2O3S, InChI=1S/C8H15N2.CHF3O3S/c1-3-4-5-10-7-6-9(2)8-10;2-1(3,4)8(5,6)7/h6-8H,3-5H2,1-2H3;(H,5,6,7)/q+1;/p-1, purity 98%

System: 1-butyl-3-methylimidazolium trifluoromethanesulfonate; phases: Liquid
Fixed: Pressure, kPa = 101
Property: Mass density, kg/m3 (Liquid); method: Vibrating tube method
Temperature, K	Mass density, kg/m3	uncertainty
283.15	1309.81	1.54
288.15	1305.77	1.53
293.15	1301.75	1.52
298.15	1297.74	1.51
303.15	1293.74	1.5
313.13	1285.81	1.48
333.15	1270.09	1.44
343.15	1262.32	1.42
353.15	1254.61	1.4
373.15	1239.37	1.48
393.15	1224.37	1.45
413.15	1209.6	1.43

System: 1-butyl-3-methylimidazolium trifluoromethanesulfonate; phases: Liquid
Property: Mass density, kg/m3 (Liquid); method: Vibrating tube method
Temperature, K	Pressure, kPa	Mass density, kg/m3	uncertainty
283.15	101	1309.8	1.54
293.15	101	1301.72	1.52
298.15	101	1297.8	1.51
313.15	101	1285.7	1.48
333.15	101	1270.06	1.44
353.15	101	1254.43	1.4
373.15	101	1239.44	1.48
393.15	101	1224.41	1.45
413.15	101	1209.39	1.43
298.15	1023	1298.28	1.52
313.2	1097	1286.27	1.49
283.17	1225	1310.35	1.55
393.17	1385	1225.37	1.46
333.09	1557	1270.96	1.46
373.14	1630	1240.5	1.49
413.13	1691	1210.63	1.44
353.14	1725	1255.5	1.42
293.2	1740	1302.55	1.54
373.14	4913	1242.76	1.52
293.2	4978	1304.2	1.58
413.15	5006	1213.19	1.47
298.16	5026	1300.4	1.57
393.18	5168	1228.15	1.49
333.1	5234	1273.19	1.5
283.15	5337	1312.37	1.61
313.2	5364	1288.67	1.54
353.13	5397	1257.9	1.46
293.15	9722	1307	1.64
333.11	9847	1275.96	1.56
283.15	9906	1315.03	1.67
298.15	10006	1303.37	1.64
413.2	10288	1217.19	1.52
393.14	10362	1231.9	1.54
313.15	10395	1291.48	1.61
353.14	10408	1261.13	1.53
373.16	10553	1246.58	1.58
333.14	19578	1281.68	1.68
413.2	19961	1224.32	1.6
298.15	19968	1308.89	1.77
353.19	20124	1267.23	1.64
393.12	20141	1238.76	1.63
373.15	20238	1252.94	1.67
313.15	20326	1296.92	1.74
283.14	20345	1320.61	1.82
293.15	20425	1312.86	1.79
413.2	29916	1231.38	1.68
373.15	29993	1259.1	1.76
313.15	29996	1302.11	1.87
333.15	29996	1287.62	1.82
353.17	29996	1273.21	1.77
283.15	29997	1325.6	1.96
293.15	29997	1317.9	1.93
393.13	29997	1245.39	1.72
298.13	30005	1314.25	1.91
393.13	39789	1251.72	1.82
333.17	39827	1293.05	1.95
413.2	39957	1238.21	1.78
298.15	40008	1319.41	2.06
313.15	40009	1307.36	2.01
283.17	40094	1330.63	2.1
373.14	40245	1265.34	1.86
353.16	40316	1279.23	1.9
293.16	40322	1323.16	2.08
298.15	49962	1324.37	2.2
393.15	49984	1258.04	1.92
353.15	49992	1284.69	2.03
413.2	49993	1244.75	1.88
373.15	49994	1271.05	1.97
313.15	49994	1312.48	2.15
283.16	49996	1335.42	2.25
293.15	49997	1327.93	2.22
333.16	49998	1298.5	2.09
373.15	59359	1276.34	2.09
333.16	59777	1303.59	2.22
413.21	59956	1250.96	1.98
298.14	59968	1329.2	2.35
393.16	60109	1264.05	2.04
313.16	60130	1317.55	2.3
353.14	60245	1290.27	2.17
293.16	60340	1332.87	2.37
283.16	60363	1340.27	2.41
333.15	69992	1308.75	2.37
353.14	69993	1295.39	2.3
283.16	69993	1344.64	2.56
373.14	69993	1282.13	2.23
413.18	69993	1256.95	2.11
293.15	69996	1337.34	2.52
393.15	69997	1269.67	2.17
298.15	70005	1333.89	2.5
313.15	70102	1322.42	2.44
373.12	78937	1286.82	2.36
353.14	79196	1300.06	2.43
333.15	79293	1313.31	2.51
393.16	79320	1274.76	2.3
283.16	79621	1348.88	2.71
313.15	79871	1327.08	2.59
298.15	79986	1338.41	2.66
413.15	80334	1262.84	2.24
293.17	80507	1342.04	2.68
333.15	89992	1318.4	2.67
393.15	89992	1280.34	2.44
353.15	89993	1305.36	2.59
373.14	89993	1292.43	2.51
413.15	89994	1268.07	2.37
293.15	89996	1346.17	2.83
298.13	90001	1342.82	2.81
313.15	90021	1331.79	2.75
283.15	90097	1353.37	2.88
353.15	97743	1309.04	2.7
333.15	98041	1322.14	2.79
393.14	99285	1284.99	2.57
373.14	99354	1297.01	2.65
413.13	99873	1273.17	2.51
313.15	99922	1336.27	2.9
298.15	99997	1347.1	2.97
293.16	100028	1350.06	3
283.15	100086	1357.13	3.05
393.15	109795	1290.04	2.73
353.15	109795	1314.57	2.89
333.15	109813	1327.45	2.98
373.14	109823	1301.97	2.81
313.15	109826	1340.63	3.07
293.15	109846	1354.33	3.16
413.15	109886	1278.08	2.65
283.15	109957	1361.36	3.21
298.15	109968	1351.04	3.14
393.14	118691	1294.13	2.86
373.15	118844	1306.11	2.94
293.15	119150	1358.24	3.32
413.18	119193	1282.42	2.78
353.14	119409	1318.82	3.04
333.16	119774	1331.81	3.14
283.15	119997	1365.53	3.38
298.15	120001	1355.27	3.31
313.15	121633	1345.69	3.26
353.15	129794	1323.26	3.2
393.15	129796	1299.01	3.02
333.16	129813	1336.09	3.3
373.15	129824	1311	3.11
313.15	129825	1349.1	3.4
293.15	129846	1362.58	3.5
413.17	129886	1287.14	2.93
283.15	129993	1369.54	3.55
298.16	130002	1359.35	3.48
333.16	138881	1339.86	3.45
293.15	138949	1366.14	3.65
353.16	139089	1327.11	3.35
313.15	139153	1352.88	3.55
373.15	139225	1315.08	3.25
413.17	139479	1291.12	3.07
393.15	139693	1303.18	3.17
298.15	139996	1363.31	3.65
283.15	139996	1373.39	3.73
