Measured thermophysical data. Density, Viscosity, and Refractive Index of Aqueous CO2-Loaded and -Unloaded Ethylaminoethanol (EAE) Solutions from 293.15 to 323.15 K for Post Combustion CO2 Capture
Source: J. Chem. Eng. Data, 2017, 10.1021/acs.jced.7b00586
Compound 1: carbon dioxide, CO2, InChI=1S/CO2/c2-1-3
Compound 2: 2-(ethylamino)ethanol, C4H11NO, InChI=1S/C4H11NO/c1-2-5-3-4-6/h5-6H,2-4H2,1H3, purity 99%
Compound 3: water, H2O, InChI=1S/H2O/h1H2, purity 99.9%

System: carbon dioxide + 2-(ethylamino)ethanol + water; phases: Liquid
Fixed: Pressure, kPa = 101.325
Property: Mass density, kg/m3 (Liquid); method: Vibrating tube method
Solvent: Mass fraction of 2-(ethylamino)ethanol	Molality, mol/kg of carbon dioxide	Temperature, K	Mass density, kg/m3	uncertainty
0.089	0	293.15	996.48	5.84
0.089	0.067	293.15	1002.73	5.84
0.089	0.258	293.15	1011.89	5.84
0.089	0.298	293.15	1014.19	5.84
0.089	0.402	293.15	1018.53	5.84
0.089	0.495	293.15	1023.44	5.84
0.089	0.581	293.15	1027.02	5.84
0.089	0.708	293.15	1032.33	5.84
0.178	0	293.15	996.22	5.84
0.178	0.204	293.15	1005.82	5.84
0.178	0.529	293.15	1022.62	5.84
0.178	0.751	293.15	1031.94	5.84
0.178	0.911	293.15	1039.44	5.84
0.178	1.022	293.15	1044.03	5.84
0.178	1.158	293.15	1048.97	5.84
0.267	0	293.15	996.54	5.84
0.267	0.368	293.15	1015.49	5.84
0.267	0.59	293.15	1027.8	5.84
0.267	0.923	293.15	1040.2	5.84
0.267	1.126	293.15	1049.71	5.84
0.267	1.501	293.15	1062.5	5.84
0.267	1.944	293.15	1076.43	5.84
0.356	0	293.15	995.54	5.84
0.356	0.447	293.15	1016.83	5.84
0.356	0.919	293.15	1040.4	5.84
0.356	1.378	293.15	1057.3	5.84
0.356	1.825	293.15	1076.39	5.84
0.356	2.105	293.15	1086.11	5.84
0.089	0	298.15	995.09	5.84
0.089	0.067	298.15	1001.28	5.84
0.089	0.258	298.15	1010.29	5.84
0.089	0.298	298.15	1012.54	5.84
0.089	0.402	298.15	1016.81	5.84
0.089	0.495	298.15	1021.65	5.84
0.089	0.581	298.15	1025.29	5.84
0.089	0.708	298.15	1030.69	5.84
0.178	0	298.15	994.31	5.84
0.178	0.204	298.15	1003.88	5.84
0.178	0.529	298.15	1020.57	5.84
0.178	0.751	298.15	1029.76	5.84
0.178	0.911	298.15	1037.14	5.84
0.178	1.022	298.15	1041.81	5.84
0.178	1.158	298.15	1046.67	5.84
0.267	0	298.15	994.09	5.84
0.267	0.368	298.15	1012.93	5.84
0.267	0.59	298.15	1025.32	5.84
0.267	0.923	298.15	1037.64	5.84
0.267	1.126	298.15	1047.05	5.84
0.267	1.501	298.15	1059.73	5.84
0.267	1.944	298.15	1073.88	5.84
0.356	0	298.15	992.52	5.84
0.356	0.447	298.15	1013.75	5.84
0.356	0.919	298.15	1037.44	5.84
0.356	1.378	298.15	1054.26	5.84
0.356	1.825	298.15	1073.23	5.84
0.356	2.105	298.15	1083.04	5.84
0.089	0	303.15	993.47	5.84
0.089	0.067	303.15	999.58	5.84
0.089	0.258	303.15	1008.44	5.84
0.089	0.298	303.15	1010.65	5.84
0.089	0.402	303.15	1014.85	5.84
0.089	0.495	303.15	1019.64	5.84
0.089	0.581	303.15	1023.33	5.84
0.089	0.708	303.15	1028.84	5.84
0.178	0	303.15	992.21	5.84
0.178	0.204	303.15	1001.73	5.84
0.178	0.529	303.15	1018.31	5.84
0.178	0.751	303.15	1027.38	5.84
0.178	0.911	303.15	1034.64	5.84
0.178	1.022	303.15	1039.38	5.84
0.178	1.158	303.15	1044.16	5.84
0.267	0	303.15	991.47	5.84
0.267	0.368	303.15	1010.21	5.84
0.267	0.59	303.15	1022.67	5.84
0.267	0.923	303.15	1034.91	5.84
0.267	1.126	303.15	1044.21	5.84
0.267	1.501	303.15	1056.79	5.84
0.267	1.944	303.15	1071.12	5.84
0.356	0	303.15	989.38	5.84
0.356	0.447	303.15	1010.56	5.84
0.356	0.919	303.15	1034.35	5.84
0.356	1.378	303.15	1051.1	5.84
0.356	1.825	303.15	1069.97	5.84
0.356	2.105	303.15	1079.85	5.84
0.089	0	308.15	991.64	5.84
0.089	0.067	308.15	997.68	5.84
0.089	0.258	308.15	1006.39	5.84
0.089	0.298	308.15	1008.55	5.84
0.089	0.402	308.15	1012.77	5.84
0.089	0.495	308.15	1017.44	5.84
0.089	0.581	308.15	1021.19	5.84
0.089	0.708	308.15	1026.82	5.84
0.178	0	308.15	989.92	5.84
0.178	0.204	308.15	999.41	5.84
0.178	0.529	308.15	1015.85	5.84
0.178	0.751	308.15	1024.8	5.84
0.178	0.911	308.15	1031.98	5.84
0.178	1.022	308.15	1036.78	5.84
0.178	1.158	308.15	1041.5	5.84
0.267	0	308.15	988.72	5.84
0.267	0.368	308.15	1007.33	5.84
0.267	0.59	308.15	1019.87	5.84
0.267	0.923	308.15	1032.01	5.84
0.267	1.126	308.15	1041.23	5.84
0.267	1.501	308.15	1053.74	5.84
0.267	1.944	308.15	1068.24	5.84
0.356	0	308.15	986.16	5.84
0.356	0.447	308.15	1007.28	5.84
0.356	0.919	308.15	1031.15	5.84
0.356	1.378	308.15	1047.84	5.84
0.356	1.825	308.15	1066.65	5.84
0.356	2.105	308.15	1076.59	5.84
0.089	0	313.15	989.61	5.84
0.089	0.067	313.15	995.57	5.84
0.089	0.258	313.15	1004.14	5.84
0.089	0.298	313.15	1006.27	5.85
0.089	0.402	313.15	1010.49	5.84
0.089	0.495	313.15	1015.08	5.84
0.089	0.581	313.15	1018.88	5.84
0.089	0.708	313.15	1024.65	5.84
0.178	0	313.15	987.48	5.84
0.178	0.204	313.15	996.91	5.84
0.178	0.529	313.15	1013.21	5.84
0.178	0.751	313.15	1022.05	5.84
0.178	0.911	313.15	1029.17	5.84
0.178	1.022	313.15	1034.04	5.84
0.178	1.158	313.15	1038.7	5.8
0.267	0	313.15	985.86	5.84
0.267	0.368	313.15	1004.27	5.84
0.267	0.59	313.15	1016.91	5.84
0.267	0.923	313.15	1028.97	5.84
0.267	1.126	313.15	1038.13	5.84
0.267	1.501	313.15	1050.58	5.84
0.267	1.944	313.15	1065.28	5.84
0.356	0	313.15	982.85	5.84
0.356	0.447	313.15	1003.91	5.84
0.356	0.919	313.15	1027.85	5.84
0.356	1.378	313.15	1044.49	5.84
0.356	1.825	313.15	1063.28	5.84
0.356	2.105	313.15	1073.27	5.84
0.089	0	318.15	987.4	5.84
0.089	0.067	318.15	993.28	5.84
0.089	0.258	318.15	1001.72	5.84
0.089	0.298	318.15	1003.81	5.85
0.089	0.402	318.15	1008.03	5.84
0.089	0.495	318.15	1012.57	5.84
0.089	0.581	318.15	1016.43	5.84
0.089	0.708	318.15	1022.32	5.85
0.178	0	318.15	984.87	5.84
0.178	0.204	318.15	994.24	5.84
0.178	0.529	318.15	1010.4	5.84
0.178	0.751	318.15	1019.15	5.84
0.178	0.911	318.15	1026.23	5.84
0.178	1.022	318.15	1031.19	5.84
0.178	1.158	318.15	1035.8	5.84
0.267	0	318.15	982.87	5.84
0.267	0.368	318.15	1001.09	5.85
0.267	0.59	318.15	1013.81	5.84
0.267	0.923	318.15	1025.81	5.84
0.267	1.126	318.15	1034.92	5.84
0.267	1.501	318.15	1047.35	5.84
0.267	1.944	318.15	1062.24	5.84
0.356	0	318.15	979.46	5.84
0.356	0.447	318.15	1000.45	5.84
0.356	0.919	318.15	1024.47	5.84
0.356	1.378	318.15	1041.08	5.84
0.356	1.825	318.15	1059.84	5.84
0.356	2.105	318.15	1069.89	5.84
0.089	0	323.15	985.02	5.84
0.089	0.067	323.15	990.81	5.84
0.089	0.258	323.15	999.14	5.84
0.089	0.298	323.15	1001.2	5.85
0.089	0.402	323.15	1005.43	5.84
0.089	0.495	323.15	1009.92	5.84
0.089	0.581	323.15	1013.83	5.84
0.089	0.708	323.15	1019.86	5.85
0.178	0	323.15	982.12	5.84
0.178	0.204	323.15	991.41	5.84
0.178	0.529	323.15	1007.45	5.84
0.178	0.751	323.15	1016.15	5.84
0.178	0.911	323.15	1023.2	5.84
0.178	1.022	323.15	1028.24	5.84
0.178	1.158	323.15	1032.79	5.84
0.267	0	323.15	979.77	5.84
0.267	0.368	323.15	997.81	5.85
0.267	0.59	323.15	1010.61	5.84
0.267	0.923	323.15	1022.57	5.84
0.267	1.126	323.15	1031.65	5.84
0.267	1.501	323.15	1044.04	5.84
0.267	1.944	323.15	1059.12	5.84
0.356	0	323.15	975.99	5.84
0.356	0.447	323.15	996.92	5.84
0.356	0.919	323.15	1021.02	5.84
0.356	1.378	323.15	1037.6	5.84
0.356	1.825	323.15	1056.34	5.84
0.356	2.105	323.15	1066.45	5.84

System: carbon dioxide + 2-(ethylamino)ethanol + water; phases: Liquid
Fixed: Pressure, kPa = 101.325
Property: Viscosity, Pa*s (Liquid); method: Falling or rolling sphere viscometry
Solvent: Mass fraction of 2-(ethylamino)ethanol	Molality, mol/kg of carbon dioxide	Temperature, K	Viscosity, Pa*s	uncertainty
0.089	0	293.15	0.001537	0.000131
0.089	0.067	293.15	0.00155	0.000132
0.089	0.258	293.15	0.001573	0.000133
0.089	0.298	293.15	0.001579	0.000134
0.089	0.402	293.15	0.001584	0.000135
0.089	0.495	293.15	0.001592	0.000136
0.089	0.581	293.15	0.00159	0.000136
0.089	0.708	293.15	0.001578	0.000135
0.089	0	298.15	0.001336	0.000113
0.089	0.067	298.15	0.001348	0.000114
0.089	0.258	298.15	0.001372	0.000115
0.089	0.298	298.15	0.001379	0.000116
0.089	0.402	298.15	0.001381	0.000117
0.089	0.495	298.15	0.001394	0.000118
0.089	0.581	298.15	0.001393	0.000118
0.089	0.708	298.15	0.001387	0.000117
0.089	0	303.15	0.001172	9.8e-05
0.089	0.067	303.15	0.001184	9.9e-05
0.089	0.258	303.15	0.001209	0.000101
0.089	0.298	303.15	0.001214	0.000102
0.089	0.402	303.15	0.001221	0.000103
0.089	0.495	303.15	0.001231	0.000103
0.089	0.581	303.15	0.001231	0.000103
0.089	0.708	303.15	0.00123	0.000104
0.089	0	308.15	0.001038	8.7e-05
0.089	0.067	308.15	0.001051	8.8e-05
0.089	0.258	308.15	0.001073	8.9e-05
0.089	0.298	308.15	0.001078	9e-05
0.089	0.402	308.15	0.001083	9.1e-05
0.089	0.495	308.15	0.001095	9.2e-05
0.089	0.581	308.15	0.001096	9.2e-05
0.089	0.708	308.15	0.001098	9.2e-05
0.089	0	313.15	0.000927	7.7e-05
0.089	0.067	313.15	0.00094	7.8e-05
0.089	0.258	313.15	0.000961	8e-05
0.089	0.298	313.15	0.000966	8e-05
0.089	0.402	313.15	0.000972	8.1e-05
0.089	0.495	313.15	0.000982	8.2e-05
0.089	0.581	313.15	0.000984	8.2e-05
0.089	0.708	313.15	0.000988	8.3e-05
0.089	0	318.15	0.000833	6.9e-05
0.089	0.067	318.15	0.000845	7e-05
0.089	0.258	318.15	0.000865	7.1e-05
0.089	0.298	318.15	0.00087	7.2e-05
0.089	0.402	318.15	0.000876	7.3e-05
0.089	0.495	318.15	0.000886	7.3e-05
0.089	0.581	318.15	0.000889	7.4e-05
0.089	0.708	318.15	0.000895	7.4e-05
0.089	0	323.15	0.000755	6.2e-05
0.089	0.067	323.15	0.000765	6.3e-05
0.089	0.258	323.15	0.000784	6.5e-05
0.089	0.298	323.15	0.000789	6.5e-05
0.089	0.402	323.15	0.000797	6.6e-05
0.089	0.495	323.15	0.000804	6.6e-05
0.089	0.581	323.15	0.000808	6.7e-05
0.089	0.708	323.15	0.000815	6.8e-05
0.178	0	303.15	0.001804	0.000149
0.178	0.204	303.15	0.001843	0.000154
0.178	0.529	303.15	0.001911	0.000158
0.178	0.751	303.15	0.001937	0.000165
0.178	0.911	303.15	0.001951	0.000164
0.178	1.022	303.15	0.001971	0.000165
0.178	1.158	303.15	0.00203	0.00017
0.178	0	293.15	0.002508	0.000207
0.178	0.204	293.15	0.002503	0.000212
0.178	0.529	293.15	0.002614	0.000217
0.178	0.751	293.15	0.002594	0.000224
0.178	0	308.15	0.001559	0.000128
0.178	0.204	308.15	0.001597	0.000132
0.178	0.529	308.15	0.001662	0.000137
0.178	0.751	308.15	0.001718	0.000145
0.178	0.911	308.15	0.001722	0.000143
0.178	1.022	308.15	0.001752	0.000146
0.178	1.158	308.15	0.001777	0.000148
0.178	0.911	293.15	0.002579	0.000221
0.178	1.022	293.15	0.002679	0.000229
0.178	1.158	293.15	0.002744	0.000233
0.178	0	298.15	0.002112	0.000175
0.178	0.204	298.15	0.002152	0.00018
0.178	0.529	298.15	0.002221	0.000184
0.178	0.751	298.15	0.002222	0.000192
0.178	0	313.15	0.001362	0.000112
0.178	0.204	313.15	0.001398	0.000116
0.178	0.529	313.15	0.001458	0.00012
0.178	0.751	313.15	0.001505	0.000126
0.178	0.911	313.15	0.001535	0.000127
0.178	1.022	313.15	0.001555	0.000128
0.178	1.158	313.15	0.001564	0.00013
0.178	0.911	298.15	0.00223	0.000189
0.178	1.022	298.15	0.00229	0.000193
0.178	1.158	298.15	0.002344	0.000197
0.178	0	318.15	0.001201	9.8e-05
0.178	0.204	318.15	0.001234	0.000101
0.178	0.529	318.15	0.00129	0.000106
0.178	0.751	318.15	0.001334	0.000111
0.178	0.911	318.15	0.001379	0.000113
0.178	1.022	318.15	0.001375	0.000113
0.178	1.158	318.15	0.001388	0.000115
0.178	0	323.15	0.001068	8.7e-05
0.178	0.204	323.15	0.001099	9e-05
0.178	0.529	323.15	0.001151	9.4e-05
0.178	0.751	323.15	0.001188	9.9e-05
0.178	0.911	323.15	0.001247	0.000102
0.178	1.022	323.15	0.001243	0.000102
0.178	1.158	323.15	0.001242	0.000102
0.267	1.944	308.15	0.002845	0.000243
0.267	0.923	303.15	0.003005	0.00025
0.267	1.126	303.15	0.003098	0.000254
0.267	1.501	303.15	0.003272	0.000277
0.267	0	293.15	0.003671	0.000304
0.267	1.944	303.15	0.00332	0.000287
0.267	0	313.15	0.001896	0.000156
0.267	0.368	313.15	0.002042	0.000172
0.267	0.59	313.15	0.002109	0.000172
0.267	0.923	313.15	0.002202	0.000182
0.267	1.126	313.15	0.002276	0.000186
0.267	1.501	313.15	0.002407	0.000202
0.267	1.944	313.15	0.002472	0.00021
0.267	0.368	293.15	0.003864	0.000326
0.267	0.59	293.15	0.00404	0.00033
0.267	0	298.15	0.003152	0.00026
0.267	0.368	298.15	0.003351	0.00028
0.267	0.59	298.15	0.003429	0.000281
0.267	0.923	298.15	0.00357	0.000298
0.267	1.126	298.15	0.003673	0.000302
0.267	0.923	293.15	0.004307	0.000359
0.267	1.126	293.15	0.004423	0.000364
0.267	1.501	293.15	0.004659	0.0004
0.267	1.944	293.15	0.004651	0.000413
0.267	0	303.15	0.002613	0.000215
0.267	0.368	303.15	0.002765	0.000235
0.267	0	318.15	0.001643	0.000134
0.267	0.368	318.15	0.001755	0.000147
0.267	0.59	318.15	0.001836	0.000149
0.267	0.923	318.15	0.001919	0.000158
0.267	1.126	318.15	0.001984	0.000162
0.267	1.501	318.15	0.0021	0.000175
0.267	1.944	318.15	0.002167	0.000183
0.267	1.501	298.15	0.003883	0.000332
0.267	1.944	298.15	0.003904	0.000341
0.267	0.59	303.15	0.002872	0.000235
0.267	0	308.15	0.002222	0.000182
0.267	0.368	308.15	0.002302	0.000196
0.267	0.59	308.15	0.002446	0.000199
0.267	0.923	308.15	0.002555	0.000212
0.267	1.126	308.15	0.002639	0.000216
0.267	1.501	308.15	0.002789	0.000235
0.267	0	323.15	0.001438	0.000117
0.267	0.368	323.15	0.001556	0.00013
0.267	0.59	323.15	0.001611	0.000131
0.267	0.923	323.15	0.001685	0.000138
0.267	1.126	323.15	0.001744	0.000142
0.267	1.501	323.15	0.001848	0.000154
0.267	1.944	323.15	0.001915	0.000161
0.356	0.919	308.15	0.003997	0.000328
0.356	1.378	308.15	0.004331	0.000356
0.356	1.825	308.15	0.004721	0.00039
0.356	0	303.15	0.003798	0.00031
0.356	0	313.15	0.002834	0.000231
0.356	0.447	313.15	0.003211	0.000263
0.356	0.919	313.15	0.003365	0.000276
0.356	1.378	313.15	0.00365	0.0003
0.356	0	318.15	0.002241	0.000183
0.356	0.447	318.15	0.002729	0.000223
0.356	0.919	318.15	0.002878	0.000236
0.356	1.378	318.15	0.003118	0.000256
0.356	1.825	318.15	0.003407	0.00028
0.356	2.105	318.15	0.003552	0.000291
0.356	1.825	313.15	0.003987	0.000329
0.356	2.105	313.15	0.00415	0.000341
0.356	0	298.15	0.004671	0.000382
0.356	0.447	298.15	0.005096	0.000417
0.356	0.919	298.15	0.00587	0.000482
0.356	1.378	298.15	0.006341	0.000523
0.356	1.825	298.15	0.0069	0.000573
0.356	2.105	298.15	0.007105	0.000588
0.356	0.447	293.15	0.006148	0.000505
0.356	0.447	303.15	0.004529	0.000371
0.356	0.919	303.15	0.004804	0.000395
0.356	1.378	303.15	0.005199	0.000428
0.356	1.825	303.15	0.005664	0.000469
0.356	2.105	303.15	0.005863	0.000484
0.356	0.919	293.15	0.006789	0.000558
0.356	1.378	293.15	0.007696	0.000636
0.356	1.825	293.15	0.008571	0.000711
0.356	2.105	293.15	0.008765	0.000727
0.356	2.105	308.15	0.004897	0.000403
0.356	0	308.15	0.00314	0.000257
0.356	0	293.15	0.005847	0.00048
0.356	0.447	308.15	0.00383	0.000314
0.356	0	323.15	0.001934	0.000157
0.356	0.447	323.15	0.002347	0.000191
0.356	0.919	323.15	0.002479	0.000203
0.356	1.378	323.15	0.002691	0.00022
0.356	1.825	323.15	0.002948	0.000242
0.356	2.105	323.15	0.003071	0.000252

System: carbon dioxide + 2-(ethylamino)ethanol + water; phases: Liquid
Fixed: Pressure, kPa = 101.325
Property: Refractive index (Na D-line) (Liquid); method: Standard Abbe refractometry
Solvent: Mass fraction of 2-(ethylamino)ethanol	Molality, mol/kg of carbon dioxide	Temperature, K	Refractive index (Na D-line)	uncertainty
0.089	0	293.15	1.34527	0.002115
0.089	0.067	293.15	1.346819	0.002112
0.089	0.258	293.15	1.349221	0.002101
0.089	0.298	293.15	1.349625	0.002102
0.089	0.402	293.15	1.35083	0.002098
0.089	0.495	293.15	1.3524	0.002102
0.089	0.581	293.15	1.352918	0.0021
0.089	0.708	293.15	1.353581	0.002113
0.089	0	298.15	1.344739	0.002113
0.089	0.067	298.15	1.346351	0.002107
0.089	0.258	298.15	1.348732	0.002097
0.089	0.298	298.15	1.349025	0.002099
0.089	0.402	298.15	1.350068	0.002098
0.089	0.495	298.15	1.351758	0.002099
0.089	0.581	298.15	1.352223	0.002099
0.089	0.708	298.15	1.352891	0.002112
0.089	0	303.15	1.344128	0.002111
0.089	0.067	303.15	1.345778	0.002105
0.089	0.258	303.15	1.348121	0.002093
0.089	0.298	303.15	1.348339	0.002097
0.089	0.402	303.15	1.349433	0.002096
0.089	0.495	303.15	1.351015	0.002097
0.089	0.581	303.15	1.351461	0.002098
0.089	0.708	303.15	1.352126	0.00211
0.089	0	308.15	1.343475	0.002109
0.089	0.067	308.15	1.345115	0.002103
0.089	0.258	308.15	1.347442	0.002091
0.089	0.298	308.15	1.347614	0.002095
0.089	0.402	308.15	1.348754	0.002096
0.089	0.495	308.15	1.350234	0.002097
0.089	0.581	308.15	1.350601	0.002097
0.089	0.708	308.15	1.351343	0.002107
0.089	0	313.15	1.342813	0.002107
0.089	0.067	313.15	1.344417	0.002101
0.089	0.258	313.15	1.346761	0.002091
0.089	0.298	313.15	1.347063	0.002092
0.089	0.402	313.15	1.347903	0.002098
0.089	0.495	313.15	1.349637	0.002099
0.089	0.581	313.15	1.349981	0.002099
0.089	0.708	313.15	1.35088	0.002105
0.089	0	318.15	1.342173	0.002101
0.089	0.067	318.15	1.343746	0.002096
0.089	0.258	318.15	1.346279	0.002091
0.089	0.298	318.15	1.346812	0.002092
0.089	0.402	318.15	1.347674	0.002098
0.089	0.495	318.15	1.349088	0.002097
0.089	0.581	318.15	1.349594	0.002098
0.089	0.708	318.15	1.350683	0.00211
0.089	0	323.15	1.341767	0.0021
0.089	0.067	323.15	1.343647	0.002097
0.089	0.258	323.15	1.346318	0.002102
0.089	0.298	323.15	1.346521	0.002107
0.089	0.402	323.15	1.347824	0.002107
0.089	0.495	323.15	1.349278	0.002114
0.089	0.581	323.15	1.34948	0.002112
0.089	0.708	323.15	1.350906	0.00212
0.178	0	303.15	1.357615	0.002095
0.178	0.204	303.15	1.359862	0.002085
0.178	0.529	303.15	1.363626	0.002091
0.178	0.751	303.15	1.365783	0.002097
0.178	0.911	303.15	1.36729	0.002086
0.178	1.022	303.15	1.368493	0.002084
0.178	1.158	303.15	1.369094	0.002094
0.178	0	293.15	1.359144	0.002099
0.178	0.204	293.15	1.361417	0.00209
0.178	0.529	293.15	1.365261	0.002094
0.178	0.751	293.15	1.367483	0.002101
0.178	0	308.15	1.356818	0.002093
0.178	0.204	308.15	1.359087	0.002083
0.178	0.529	308.15	1.362821	0.00209
0.178	0.751	308.15	1.364921	0.002096
0.178	0.911	308.15	1.366389	0.002085
0.178	1.022	308.15	1.36757	0.002084
0.178	1.158	308.15	1.36811	0.002091
0.178	0.911	293.15	1.369066	0.002089
0.178	1.022	293.15	1.36998	0.002088
0.178	1.158	293.15	1.370883	0.002099
0.178	0	298.15	1.358413	0.002097
0.178	0.204	298.15	1.360665	0.002088
0.178	0.529	298.15	1.364473	0.002093
0.178	0.751	298.15	1.366667	0.002099
0.178	0	313.15	1.356012	0.002091
0.178	0.204	313.15	1.3584	0.002082
0.178	0.529	313.15	1.362384	0.00209
0.178	0.751	313.15	1.364377	0.002094
0.178	0.911	313.15	1.36595	0.002082
0.178	1.022	313.15	1.366739	0.002081
0.178	1.158	313.15	1.367595	0.002092
0.178	0.911	298.15	1.368214	0.002087
0.178	1.022	298.15	1.369412	0.002085
0.178	1.158	298.15	1.370025	0.002096
0.178	0	318.15	1.355001	0.002089
0.178	0.204	318.15	1.357902	0.00208
0.178	0.529	318.15	1.361828	0.002089
0.178	0.751	318.15	1.364666	0.002089
0.178	0.911	318.15	1.366184	0.002079
0.178	1.022	318.15	1.366898	0.002079
0.178	1.158	318.15	1.367464	0.002092
0.178	0	323.15	1.354462	0.002086
0.178	0.204	323.15	1.358855	0.002081
0.178	0.529	323.15	1.362957	0.00209
0.178	0.751	323.15	1.365581	0.00209
0.178	0.911	323.15	1.366755	0.002077
0.178	1.022	323.15	1.367058	0.002075
0.178	1.158	323.15	1.367335	0.002095
0.267	1.944	308.15	1.384851	0.002113
0.267	0.923	303.15	1.378882	0.002094
0.267	1.126	303.15	1.381101	0.002093
0.267	1.501	303.15	1.383935	0.002079
0.267	0	293.15	1.370471	0.002086
0.267	1.944	303.15	1.385916	0.002115
0.267	0	313.15	1.366645	0.002077
0.267	0.368	313.15	1.37268	0.002098
0.267	0.59	313.15	1.374217	0.002086
0.267	0.923	313.15	1.377226	0.00209
0.267	1.126	313.15	1.379479	0.002092
0.267	1.501	313.15	1.381723	0.002077
0.267	1.944	313.15	1.383894	0.002108
0.267	0.368	293.15	1.376856	0.002113
0.267	0.59	293.15	1.377831	0.002099
0.267	0	298.15	1.36952	0.002083
0.267	0.368	298.15	1.375855	0.002104
0.267	0.59	298.15	1.376876	0.002094
0.267	0.923	298.15	1.379872	0.002096
0.267	1.126	298.15	1.382207	0.002095
0.267	0.923	293.15	1.380863	0.002097
0.267	1.126	293.15	1.383247	0.002096
0.267	1.501	293.15	1.386059	0.002095
0.267	1.944	293.15	1.387904	0.002121
0.267	0	303.15	1.368575	0.002081
0.267	0.368	303.15	1.374821	0.002102
0.267	0	318.15	1.365658	0.002077
0.267	0.368	318.15	1.371739	0.002089
0.267	0.59	318.15	1.373719	0.002087
0.267	0.923	318.15	1.377127	0.002083
0.267	1.126	318.15	1.379337	0.002089
0.267	1.501	318.15	1.380708	0.002068
0.267	1.944	318.15	1.383108	0.002104
0.267	1.501	298.15	1.385019	0.002086
0.267	1.944	298.15	1.386955	0.002119
0.267	0.59	303.15	1.37586	0.002092
0.267	0	308.15	1.367629	0.002079
0.267	0.368	308.15	1.373751	0.002101
0.267	0.59	308.15	1.374803	0.002091
0.267	0.923	308.15	1.378032	0.002092
0.267	1.126	308.15	1.379999	0.002094
0.267	1.501	308.15	1.382816	0.002079
0.267	0	323.15	1.36475	0.002076
0.267	0.368	323.15	1.37322	0.002083
0.267	0.59	323.15	1.374102	0.002083
0.267	0.923	323.15	1.377219	0.002082
0.267	1.126	323.15	1.379527	0.002097
0.267	1.501	323.15	1.383415	0.00207
0.267	1.944	323.15	1.382294	0.00211
0.356	0.919	308.15	1.390439	0.002095
0.356	1.378	308.15	1.39268	0.002087
0.356	1.825	308.15	1.397987	0.002116
0.356	0	303.15	1.379622	0.002081
0.356	0	313.15	1.377194	0.002077
0.356	0.447	313.15	1.385724	0.002081
0.356	0.919	313.15	1.389578	0.002093
0.356	1.378	313.15	1.391609	0.002087
0.356	0	318.15	1.376134	0.002077
0.356	0.447	318.15	1.384658	0.002081
0.356	0.919	318.15	1.388708	0.002086
0.356	1.378	318.15	1.3907445	0.0020892
0.356	1.825	318.15	1.395407	0.002111
0.356	2.105	318.15	1.397106	0.002108
0.356	1.825	313.15	1.396669	0.002112
0.356	2.105	313.15	1.398399	0.002111
0.356	0	298.15	1.380797	0.002084
0.356	0.447	298.15	1.389197	0.002084
0.356	0.919	298.15	1.392891	0.002102
0.356	1.378	298.15	1.3955	0.002092
0.356	1.825	298.15	1.400515	0.002121
0.356	2.105	298.15	1.402124	0.00212
0.356	0.447	293.15	1.390388	0.002079
0.356	0.447	303.15	1.388051	0.002083
0.356	0.919	303.15	1.391702	0.002098
0.356	1.378	303.15	1.393752	0.002089
0.356	1.825	303.15	1.399249	0.002119
0.356	2.105	303.15	1.40092	0.002118
0.356	0.919	293.15	1.393959	0.002105
0.356	1.378	293.15	1.397133	0.0021
0.356	1.825	293.15	1.401727	0.002122
0.356	2.105	293.15	1.40331	0.002124
0.356	2.105	308.15	1.399669	0.002115
0.356	0	308.15	1.378387	0.002079
0.356	0	293.15	1.381981	0.002087
0.356	0.447	308.15	1.386876	0.002082
0.356	0	323.15	1.375465	0.002078
0.356	0.447	323.15	1.384021	0.002056
0.356	0.919	323.15	1.388974	0.00208
0.356	1.378	323.15	1.391156	0.002067
0.356	1.825	323.15	1.396046	0.002123
0.356	2.105	323.15	1.397939	0.002125

System: 2-(ethylamino)ethanol + water; phases: Liquid
Fixed: Pressure, kPa = 101.325
Property: Mass density, kg/m3 (Liquid); method: Vibrating tube method
Mass fraction of 2-(ethylamino)ethanol	Temperature, K	Mass density, kg/m3	uncertainty
0.089	293.15	996.48	5.84
0.178	293.15	996.22	5.84
0.267	293.15	996.54	5.84
0.356	293.15	995.54	5.84
0.089	298.15	995.09	5.84
0.178	298.15	994.31	5.84
0.267	298.15	994.09	5.84
0.356	298.15	992.52	5.84
0.089	303.15	993.47	5.84
0.178	303.15	992.21	5.84
0.267	303.15	991.47	5.84
0.356	303.15	989.38	5.84
0.089	308.15	991.64	5.84
0.178	308.15	989.92	5.84
0.267	308.15	988.72	5.84
0.356	308.15	986.16	5.84
0.089	313.15	989.61	5.84
0.178	313.15	987.48	5.84
0.267	313.15	985.86	5.84
0.356	313.15	982.85	5.84
0.089	318.15	987.4	5.84
0.178	318.15	984.87	5.84
0.267	318.15	982.87	5.84
0.356	318.15	979.46	5.84
0.089	323.15	985.02	5.84
0.178	323.15	982.12	5.84
0.267	323.15	979.77	5.84
0.356	323.15	975.99	5.84

System: 2-(ethylamino)ethanol + water; phases: Liquid
Fixed: Pressure, kPa = 101.325
Property: Viscosity, Pa*s (Liquid); method: Falling or rolling sphere viscometry
Mass fraction of 2-(ethylamino)ethanol	Temperature, K	Viscosity, Pa*s	uncertainty
0.089	293.15	0.001537	0.000131
0.178	293.15	0.002508	0.000211
0.267	293.15	0.003671	0.000305
0.356	293.15	0.005847	0.00048
0.089	298.15	0.001336	0.000113
0.178	298.15	0.002112	0.000175
0.267	298.15	0.003152	0.00026
0.356	298.15	0.004671	0.000382
0.089	303.15	0.001172	9.8e-05
0.178	303.15	0.001804	0.000148
0.267	303.15	0.002613	0.000215
0.356	303.15	0.003798	0.00031
0.089	308.15	0.001038	8.7e-05
0.178	308.15	0.001559	0.000128
0.267	308.15	0.002222	0.000182
0.356	308.15	0.00314	0.000257
0.089	313.15	0.000927	7.7e-05
0.178	313.15	0.001362	0.000112
0.267	313.15	0.001896	0.000156
0.356	313.15	0.002834	0.000231
0.089	318.15	0.000833	6.9e-05
0.178	318.15	0.001201	9.8e-05
0.267	318.15	0.001643	0.000134
0.356	318.15	0.002241	0.000183
0.089	323.15	0.000755	6.2e-05
0.178	323.15	0.001068	8.7e-05
0.267	323.15	0.001438	0.000117
0.356	323.15	0.001934	0.000157

System: 2-(ethylamino)ethanol + water; phases: Liquid
Fixed: Pressure, kPa = 101.325
Property: Refractive index (Na D-line) (Liquid); method: Standard Abbe refractometry
Mass fraction of 2-(ethylamino)ethanol	Temperature, K	Refractive index (Na D-line)	uncertainty
0.089	293.15	1.34527	0.002114
0.178	293.15	1.359144	0.002098
0.267	293.15	1.370471	0.002085
0.356	293.15	1.381981	0.002087
0.089	298.15	1.344739	0.002112
0.178	298.15	1.358413	0.002096
0.267	298.15	1.36952	0.002083
0.356	298.15	1.380797	0.002084
0.089	303.15	1.344128	0.002109
0.178	303.15	1.357615	0.002094
0.267	303.15	1.368575	0.002081
0.356	303.15	1.379622	0.002082
0.089	308.15	1.343475	0.002107
0.178	308.15	1.356818	0.002092
0.267	308.15	1.367629	0.002078
0.356	308.15	1.378387	0.002079
0.089	313.15	1.342813	0.002105
0.178	313.15	1.356012	0.00209
0.267	313.15	1.366645	0.002076
0.356	313.15	1.377194	0.002077
0.089	318.15	1.342173	0.0021
0.178	318.15	1.355001	0.002088
0.267	318.15	1.365658	0.002076
0.356	318.15	1.376134	0.002077
0.089	323.15	1.341767	0.002099
0.178	323.15	1.354462	0.002087
0.267	323.15	1.36475	0.002074
0.356	323.15	1.375465	0.002078
