Measured thermophysical data. Solubility of Carbon Monoxide and Hydrogen in Methanol and Methyl Formate: 298-373 K and 0.3-3.3 MPa
Source: J. Chem. Eng. Data, 2019, 10.1021/acs.jced.9b00676
Compound 1: methanol, CH4O, InChI=1S/CH4O/c1-2/h2H,1H3, purity 99.9%
Compound 2: methyl methanoate, C2H4O2, InChI=1S/C2H4O2/c1-4-2-3/h2H,1H3, purity 99%
Compound 3: carbon monoxide, CO, InChI=1S/CO/c1-2
Compound 4: hydrogen, H2, InChI=1S/H2/h1H
Compound 5: carbon dioxide, CO2, InChI=1S/CO2/c2-1-3

System: carbon monoxide + methanol; phases: Liquid, Gas
Property: Mole fraction of carbon monoxide (Liquid); method: Phase equilibration
Temperature, K	Pressure, kPa of carbon monoxide	Mole fraction of carbon monoxide	uncertainty
298.15	241.5	0.00085	0.0004
298.15	609.3	0.00197	0.0004
298.15	1082	0.00358	0.0008
298.15	1587	0.00553	0.001
298.15	2101.1	0.0077	0.0014
298.15	2616.7	0.00927	0.0018
298.15	3148.9	0.01146	0.0022
322.71	260.5	0.00093	0.0002
322.71	600.5	0.00238	0.0006
322.71	1073.7	0.00415	0.0006
322.71	1587.6	0.00642	0.001
322.71	2109.9	0.00825	0.001
322.71	2642	0.01022	0.0018
322.71	3167.2	0.01198	0.002
347.76	287.8	0.00109	0.0004
347.76	598.8	0.00249	0.0006
347.76	1075.4	0.0046	0.0008
347.76	1591.9	0.00702	0.001
347.76	2133.3	0.0098	0.0022
347.76	2680.1	0.01218	0.0024
347.76	3232.2	0.01499	0.003
372.9	508.7	0.00237	0.0008
372.9	968.9	0.00464	0.0006
372.9	1489.4	0.00735	0.001
372.9	2025	0.0103	0.0018
372.9	2562.3	0.01323	0.0026
372.9	3118	0.01588	0.0022

System: carbon monoxide + methyl methanoate; phases: Liquid, Gas
Property: Mole fraction of carbon monoxide (Liquid); method: Phase equilibration
Temperature, K	Pressure, kPa of carbon monoxide	Mole fraction of carbon monoxide	uncertainty
299.72	243	0.00178	0.0004
299.72	567.8	0.00343	0.0006
299.72	1024.6	0.00635	0.0014
299.72	1554.2	0.00984	0.0014
299.72	2046.7	0.01296	0.0018
299.72	2563	0.01646	0.002
299.72	3088.3	0.01974	0.0022
322.82	435.6	0.00251	0.0006
322.82	950.2	0.00617	0.0008
322.82	1522.5	0.01011	0.0012
322.82	2031.8	0.01359	0.0014
322.82	2554	0.01773	0.002
322.82	3097.8	0.02132	0.0024
347.88	664.9	0.00558	0.0008
347.88	1033.2	0.00813	0.001
347.88	1434.5	0.01118	0.0012
347.88	1933.3	0.01481	0.002
347.88	2474.5	0.01864	0.0022
347.88	3027.4	0.02291	0.0024
372.86	470.6	0.00384	0.0006
372.86	805.5	0.00669	0.0008
372.86	1189.5	0.01031	0.001
372.86	1678.7	0.0143	0.0014
372.86	2205.2	0.01896	0.002
372.86	2747	0.02417	0.0024

System: hydrogen + methanol; phases: Liquid, Gas
Property: Mole fraction of hydrogen (Liquid); method: Phase equilibration
Temperature, K	Pressure, kPa of hydrogen	Mole fraction of hydrogen	uncertainty
296.87	236.8	0.0004	0.0002
296.87	616.6	0.00106	0.0002
296.87	1102.7	0.0019	0.0004
296.87	1607	0.00273	0.0004
296.87	2126.9	0.00361	0.0008
296.87	2649.1	0.00453	0.0008
296.87	3173.9	0.00537	0.001
320.34	262.1	0.0005	1e-05
320.34	620.9	0.00115	0.0002
320.34	1102.1	0.00208	0.0002
320.34	1613.7	0.00306	0.0004
320.34	2116.5	0.004	0.0006
320.34	2647	0.00498	0.001
348.26	275.4	0.00059	0.0002
348.26	577.7	0.00124	0.0002
348.26	1046.2	0.00223	0.0004
348.26	1565.2	0.00334	0.0006
348.26	2095.2	0.00452	0.0006
348.26	2608.2	0.0056	0.0008
374.85	841	0.00211	0.0006
374.85	1024.1	0.00257	0.0004
374.85	1474.5	0.00368	0.0004
374.85	1987.7	0.005	0.0008
374.85	2521	0.00638	0.001
374.85	3047.9	0.00766	0.001

System: hydrogen + methyl methanoate; phases: Liquid, Gas
Property: Mole fraction of hydrogen (Liquid); method: Phase equilibration
Temperature, K	Pressure, kPa of hydrogen	Mole fraction of hydrogen	uncertainty
296.63	238.2	0.00052	1e-05
296.63	656.1	0.00141	0.0002
296.63	1083.7	0.00234	0.0004
296.63	1572.9	0.00342	0.0004
296.63	2083.4	0.00438	0.0006
296.63	2597.6	0.0053	0.0008
296.63	3116.8	0.00642	0.0008
325.45	444.6	0.00117	0.0002
325.45	1207.8	0.00318	0.0002
325.45	1435.9	0.00377	0.0004
325.45	1874.5	0.00487	0.0004
325.45	2375.8	0.00628	0.0006
325.45	2884.7	0.00771	0.0008
348.38	462.1	0.00169	0.0002
348.38	1126.9	0.00395	0.0002
348.38	1436.9	0.00509	0.0006
348.38	1840.9	0.00656	0.0008
348.38	2303.1	0.00814	0.0012
348.38	2828.5	0.00992	0.001
371.61	467.2	0.00237	0.0002
371.61	658.7	0.00321	0.0004
371.61	1098.2	0.00593	0.0008
371.61	1538.8	0.00842	0.001
371.61	2083.8	0.01104	0.0016
371.61	467.2	0.00237	0.0002

System: carbon dioxide + methanol; phases: Liquid, Gas
Property: Mole fraction of carbon dioxide (Liquid); method: Phase equilibration
Temperature, K	Pressure, kPa of carbon dioxide	Mole fraction of carbon dioxide	uncertainty
300.78	247.7	0.016	0.0008
300.78	485.6	0.0315	0.0014
300.78	852.6	0.0551	0.0013
300.78	1291.5	0.0843	0.0017
300.78	1752.8	0.1164	0.0021
300.78	2228.1	0.1506	0.0026
300.78	2711.9	0.1847	0.003
322.91	319.2	0.0147	0.0008
322.91	527.6	0.0244	0.0014
322.91	912.4	0.0414	0.0012
322.91	1356	0.0614	0.0016
322.91	1835.3	0.0839	0.0021
322.91	2330.8	0.1081	0.0021
322.91	2826.8	0.1338	0.0029
351.33	317.5	0.0128	0.0008
351.33	489.7	0.0177	0.0014
351.33	882	0.0286	0.0012
351.33	1347.5	0.0414	0.0018
351.33	1840.6	0.0556	0.0024
351.33	2357.3	0.0723	0.003
351.33	2879.7	0.0908	0.0035
376.36	622.8	0.021	0.0038
376.36	807.8	0.0251	0.0003
376.36	1205.7	0.0338	0.0016
376.36	1683.6	0.0448	0.0022
376.36	2190.8	0.0553	0.0028
376.36	2712.8	0.0695	0.0034
