Measured thermophysical data. Dibutyl Citrate Synthesis, Physicochemical Characterization, and Px Data in Mixtures with Butanol
Source: J. Chem. Eng. Data, 2018, 10.1021/acs.jced.7b01064
Compound 1: 2-hydroxy-1,2,3-propanetricarboxylic acid 1,2-dibutyl ester, C14H24O7, InChI=1S/C14H24O7/c1-3-5-7-20-12(17)10-14(19,9-11(15)16)13(18)21-8-6-4-2/h19H,3-10H2,1-2H3,(H,15,16), purity 97%
Compound 2: 2-hydroxy-1,2,3-propanetricarboxylic acid 1,3-dibutyl ester, C14H24O7, InChI=1S/C14H24O7/c1-3-5-7-20-11(15)9-14(19,13(17)18)10-12(16)21-8-6-4-2/h19H,3-10H2,1-2H3,(H,17,18), purity 97%
Compound 3: butan-1-ol, C4H10O, InChI=1S/C4H10O/c1-2-3-4-5/h5H,2-4H2,1H3, purity 99.5%

System: butan-1-ol; phases: Liquid, Gas
Property: Vapor or sublimation pressure, kPa (Liquid); method: Closed cell (Static) method
Temperature, K	Vapor or sublimation pressure, kPa	uncertainty
293.15	0.56	0.06
298.15	0.84	0.08
303.15	1.23	0.12
308.15	1.76	0.18
313.15	2.44	0.24
318.15	3.33	0.33
323.15	4.35	0.44
328.15	5.33	0.53

System: 2-hydroxy-1,2,3-propanetricarboxylic acid 1,2-dibutyl ester + 2-hydroxy-1,2,3-propanetricarboxylic acid 1,3-dibutyl ester; phases: Liquid
Fixed: Pressure, kPa = 100
Fixed: Mole fraction of 2-hydroxy-1,2,3-propanetricarboxylic acid 1,2-dibutyl ester = 0.5
Property: Mass density, kg/m3 (Liquid); method: Vibrating tube method
Temperature, K	Mass density, kg/m3	uncertainty
298.15	1129.7	56.8
303.15	1124.2	56.6
313.15	1113.4	56

System: 2-hydroxy-1,2,3-propanetricarboxylic acid 1,2-dibutyl ester + 2-hydroxy-1,2,3-propanetricarboxylic acid 1,3-dibutyl ester; phases: Liquid
Fixed: Pressure, kPa = 100
Fixed: Mole fraction of 2-hydroxy-1,2,3-propanetricarboxylic acid 1,2-dibutyl ester = 0.5
Property: Viscosity, Pa*s (Liquid); method: Concentric cylinders viscometry
Temperature, K	Viscosity, Pa*s	uncertainty
298.15	3.22	0.2
303.15	2.12	0.14
313.15	1.13	0.11

System: 2-hydroxy-1,2,3-propanetricarboxylic acid 1,2-dibutyl ester + 2-hydroxy-1,2,3-propanetricarboxylic acid 1,3-dibutyl ester; phases: Liquid
Fixed: Mole fraction of 2-hydroxy-1,2,3-propanetricarboxylic acid 1,2-dibutyl ester = 0.5
Fixed: Pressure, kPa = 74.66
Property: Molar heat capacity at constant pressure, J/K/mol (Liquid); method: DSC
Temperature, K	Molar heat capacity at constant pressure, J/K/mol	uncertainty
321.5	712.663985872	75.597102144
324.8	718.902877152	76.23620808
328.2	724.77656504	76.875314016
331.5	730.10244784	77.45355272
334.8	734.81965832	77.940490576
338.2	739.171665408	78.396994816
341.5	743.584539728	78.883932672
344.8	747.723511504	79.310003296
