Measured thermophysical data. Solid-Liquid Equilibrium of the Quaternary System Ca2+, Mg2+//SO32-, SO42--H2O at 298.15 K
Source: J. Chem. Eng. Data, 2018, 10.1021/acs.jced.8b00385
Compound 1: calcium sulfate, CaO4S, InChI=1S/Ca.H2O4S/c;1-5(2,3)4/h;(H2,1,2,3,4)/q+2;/p-2, purity 99%
Compound 2: calcium sulfite, CaO3S, InChI=1S/Ca.H2O3S/c;1-4(2)3/h;(H2,1,2,3)/q+2;/p-2, purity 98%
Compound 3: water, H2O, InChI=1S/H2O/h1H2, purity 99.9%
Compound 4: magnesium sulfite, MgO3S, InChI=1S/Mg.H2O3S/c;1-4(2)3/h;(H2,1,2,3)/q+2;/p-2, purity 98%
Compound 5: magnesium sulfate, MgO4S, InChI=1S/Mg.H2O4S/c;1-5(2,3)4/h;(H2,1,2,3,4)/q+2;/p-2, purity 99%

System: calcium sulfate + calcium sulfite + water; phases: Liquid, Crystal of intercomponent compound 1
Fixed: Temperature, K = 298.15
Fixed: Pressure, kPa = 100
Property: Molality, mol/kg of calcium sulfite (Liquid); method: spectroscopy
Molality, mol/kg of calcium sulfate	Molality, mol/kg of calcium sulfite	uncertainty
0.0149634	0	5.8e-06
0.0149666	1.83e-05	5.8e-06
0.0149503	2.5e-05	2e-06
0.0132367	3.17e-05	6e-07

System: calcium sulfate + calcium sulfite + water; phases: Liquid, Crystal of intercomponent compound 2
Fixed: Temperature, K = 298.15
Fixed: Pressure, kPa = 100
Property: Molality, mol/kg of calcium sulfite (Liquid); method: spectroscopy
Molality, mol/kg of calcium sulfate	Molality, mol/kg of calcium sulfite	uncertainty
0.0149503	2.5e-05	6e-07
0.0132367	3.17e-05	6e-07
0.0102642	3.58e-05	6e-07
0.0093156	3.75e-05	6e-07
0.0065119	4.42e-05	6e-07
0.0040009	5.83e-05	6e-07
0.0028534	7.49e-05	6e-07
0.002178	9.16e-05	6e-07
0.0017487	0.0001082	7e-07
0.0004979	0.0002331	8e-07
0.000132	0.0003662	1e-06

System: calcium sulfate + calcium sulfite + water; phases: Liquid, Crystal of intercomponent compound 3
Fixed: Temperature, K = 298.15
Fixed: Pressure, kPa = 100
Property: Molality, mol/kg of calcium sulfite (Liquid); method: spectroscopy
Molality, mol/kg of calcium sulfate	Molality, mol/kg of calcium sulfite	uncertainty
0.000132	0.0003662	1.1e-06
4.39e-05	0.0003995	1.1e-06
0	0.0004162	1.1e-06

System: magnesium sulfite + magnesium sulfate + water; phases: Liquid, Crystal of intercomponent compound 1
Fixed: Temperature, K = 298.15
Fixed: Pressure, kPa = 100
Property: Molality, mol/kg of magnesium sulfate (Liquid); method: spectroscopy
Molality, mol/kg of magnesium sulfite	Molality, mol/kg of magnesium sulfate	uncertainty
0	3.012	0.007
0.0262	3.0095	0.007
0.0464	2.9812	0.0071

System: magnesium sulfite + magnesium sulfate + water; phases: Liquid, Crystal of intercomponent compound 1
Fixed: Temperature, K = 298.15
Fixed: Pressure, kPa = 100
Property: Molality, mol/kg of magnesium sulfate (Liquid); method: spectroscopy
Molality, mol/kg of magnesium sulfite	Molality, mol/kg of magnesium sulfate	uncertainty
0.0464	2.9812	0.1046
0.05	2.6054	0.3766
0.0539	2.1957	0.3959
0.057	1.8319	0.309
0.0593	1.1384	0.2297
0.0582	0.8308	0.3096
0.0542	0.3176	0.4949
0.0538	0.2119	0.5059
0.0539	0.1691	0.5079
0.0553	0.0838	0.5825
0.0625	0	0.36

System: calcium sulfite + magnesium sulfite + water; phases: Liquid, Crystal of intercomponent compound 1
Fixed: Temperature, K = 298.15
Fixed: Pressure, kPa = 100
Property: Molality, mol/kg of magnesium sulfite (Liquid); method: spectroscopy
Molality, mol/kg of calcium sulfite	Molality, mol/kg of magnesium sulfite	uncertainty
0	0.0618547	0.0001437
1.68e-05	0.0619673	0.000144
3.19e-05	0.0621236	0.0001444

System: calcium sulfite + magnesium sulfite + water; phases: Liquid, Crystal of intercomponent compound 2
Fixed: Temperature, K = 298.15
Fixed: Pressure, kPa = 100
Property: Molality, mol/kg of magnesium sulfite (Liquid); method: spectroscopy
Molality, mol/kg of calcium sulfite	Molality, mol/kg of magnesium sulfite	uncertainty
3.19e-05	0.0621236	0.0208228
4.02e-05	0.0239271	0.0081473
5.67e-05	0.0104844	0.0081471
0.0001424	0.0022134	0.0007431
0.0001849	0.001439	0.0001129
0.000269	0.0007262	7.43e-05
0.0003132	0.0005065	4.5e-05
0.000354	0.0003443	3.07e-05
0.0004747	0	2.9e-05

System: calcium sulfate + water; phases: Liquid, Crystal of intercomponent compound 1
Property: Molality, mol/kg of calcium sulfate (Liquid); method: spectroscopy
Temperature, K	Pressure, kPa	Molality, mol/kg of calcium sulfate	uncertainty
298.15	100	0.0149634	3.48e-05

System: calcium sulfite + water; phases: Liquid, Crystal of intercomponent compound 3
Property: Molality, mol/kg of calcium sulfite (Liquid); method: spectroscopy
Temperature, K	Pressure, kPa	Molality, mol/kg of calcium sulfite	uncertainty
298.15	100	0.0004162	1.3e-06

System: calcium sulfite + water; phases: Liquid, Crystal of intercomponent compound 2
Property: Molality, mol/kg of calcium sulfite (Liquid); method: spectroscopy
Temperature, K	Pressure, kPa	Molality, mol/kg of calcium sulfite	uncertainty
298.15	100	0.0004747	1.4e-06

System: magnesium sulfate + water; phases: Liquid, Crystal of intercomponent compound 1
Property: Molality, mol/kg of magnesium sulfate (Liquid); method: spectroscopy
Temperature, K	Pressure, kPa	Molality, mol/kg of magnesium sulfate	uncertainty
298.15	100	3.012	0.007

System: magnesium sulfite + water; phases: Liquid, Crystal of intercomponent compound 1
Fixed: Temperature, K = 298.15
Fixed: Pressure, kPa = 100
Property: Molality, mol/kg of magnesium sulfite (Liquid); method: spectroscopy
Molality, mol/kg of magnesium sulfite	uncertainty
0.0625	0.0002
0.0618547	0.0001437
