Measured thermophysical data. Isobaric Heat Capacity of Liquid 1,1,1,3,3- Pentafluoropropane (R245fa) by Flow Calorimeter from 278 to 343 K
Source: J. Chem. Eng. Data, 2015, 10.1021/acs.jced.5b00597
Compound 1: 1,1,1,3,3-pentafluoropropane, C3H3F5, InChI=1S/C3H3F5/c4-2(5)1-3(6,7)8/h2H,1H2, purity 99.99%

System: 1,1,1,3,3-pentafluoropropane; phases: Liquid
Property: Molar heat capacity at constant pressure, J/K/mol (Liquid); method: Flow calorimetry
Temperature, K	Pressure, kPa	Molar heat capacity at constant pressure, J/K/mol	uncertainty
307.93	520.4	182.707336768	2.01071904
307.866	519.5	181.232809472	1.206431424
307.875	514.4	182.171145024	0.938335552
307.893	518.2	181.769001216	1.34047936
307.891	522.2	181.63495328	0.804287616
307.886	517.9	182.707336768	1.474527296
277.894	518.3	170.106830784	0.67023968
277.904	519	171.313262208	1.876671104
282.868	509.6	171.715406016	0.67023968
282.87	511	172.653741568	0.804287616
287.923	512.5	173.458029184	1.608575232
287.923	512.5	171.849453952	0.67023968
287.896	513.9	173.458029184	0.67023968
292.906	518.1	179.088042496	0.804287616
297.894	514.6	177.6135152	0.67023968
297.894	514.6	177.211371392	0.67023968
302.891	517.2	178.417802816	0.804287616
302.897	518	179.088042496	0.804287616
307.875	514.4	182.037097088	0.67023968
307.875	514.4	181.098761536	0.67023968
307.875	514.4	183.779720256	0.938335552
313.892	520.4	180.9647136	0.804287616
312.89	514.5	181.769001216	0.804287616
317.902	522.6	181.903049152	0.804287616
317.902	522.2	183.243528512	0.804287616
322.947	517.7	184.852103744	1.474527296
322.938	518.4	185.65639136	0.67023968
322.947	517.7	184.584007872	0.67023968
332.974	815	189.409733568	0.938335552
332.969	816.5	187.801158336	0.938335552
327.961	806.4	187.130918656	0.938335552
327.969	808.9	185.924487232	1.34047936
337.978	810.3	190.616164992	0.938335552
342.989	813.6	192.492836096	0.804287616
342.957	817.2	192.224740224	0.804287616
307.921	415.8	180.696617728	0.804287616
307.875	504.1	181.098761536	0.67023968
307.88	808.1	181.500905344	0.804287616
