Measured thermophysical data. Solubility Measurement and Thermodynamic Modeling of Benzoic Acid in Monosolvents and Binary Mixtures
Source: J. Chem. Eng. Data, 2018, 10.1021/acs.jced.8b00025
Compound 1: benzoic acid, C7H6O2, InChI=1S/C7H6O2/c8-7(9)6-4-2-1-3-5-6/h1-5H,(H,8,9), purity 99.5%
Compound 2: tributyl phosphate, C12H27O4P, InChI=1S/C12H27O4P/c1-4-7-10-14-17(13,15-11-8-5-2)16-12-9-6-3/h4-12H2,1-3H3, purity 99%
Compound 3: 2,2,4-trimethylpentane, C8H18, InChI=1S/C8H18/c1-7(2)6-8(3,4)5/h7H,6H2,1-5H3, purity 99.5%
Compound 4: 4-hydroxy-4-methylpentan-2-one, C6H12O2, InChI=1S/C6H12O2/c1-5(7)4-6(2,3)8/h8H,4H2,1-3H3, purity 99%
Compound 5: pentan-2-one, C5H10O, InChI=1S/C5H10O/c1-3-4-5(2)6/h3-4H2,1-2H3, purity 99%
Compound 6: methyl ethanoate, C3H6O2, InChI=1S/C3H6O2/c1-3(4)5-2/h1-2H3, purity 99%
Compound 7: pentyl ethanoate, C7H14O2, InChI=1S/C7H14O2/c1-3-4-5-6-9-7(2)8/h3-6H2,1-2H3, purity 99%
Compound 8: ethanol, C2H6O, InChI=1S/C2H6O/c1-2-3/h3H,2H2,1H3, purity 99.8%
Compound 9: propan-2-ol, C3H8O, InChI=1S/C3H8O/c1-3(2)4/h3-4H,1-2H3, purity 99.8%
Compound 10: trichloromethane, CHCl3, InChI=1S/CHCl3/c2-1(3)4/h1H, purity 99.8%
Compound 11: hexane, C6H14, InChI=1S/C6H14/c1-3-5-6-4-2/h3-6H2,1-2H3, purity 99.5%
Compound 12: acetone, C3H6O, InChI=1S/C3H6O/c1-3(2)4/h1-2H3, purity 99.8%
Compound 13: water, H2O, InChI=1S/H2O/h1H2, purity 99.8%

System: benzoic acid + tributyl phosphate; phases: Liquid, Crystal
Fixed: Pressure, kPa = 94.47
Property: Mole fraction of benzoic acid (Liquid); method: gravimetric
Temperature, K	Mole fraction of benzoic acid	uncertainty
283.15	0.492	0.04
288.15	0.507	0.04
293.15	0.522	0.04
298.15	0.53	0.04
303.15	0.543	0.04
308.15	0.553	0.04
313.15	0.563	0.04
318.15	0.581	0.04
323.15	0.6	0.04
328.15	0.631	0.04

System: benzoic acid + 4-hydroxy-4-methylpentan-2-one; phases: Liquid, Crystal
Fixed: Pressure, kPa = 94.47
Property: Mole fraction of benzoic acid (Liquid); method: gravimetric
Temperature, K	Mole fraction of benzoic acid	uncertainty
283.15	0.234	0.04
288.15	0.251	0.04
293.15	0.269	0.04
298.15	0.287	0.04
303.15	0.306	0.04
308.15	0.315	0.04
313.15	0.336	0.04
318.15	0.367	0.04
323.15	0.396	0.04
328.15	0.426	0.04

System: benzoic acid + pentan-2-one; phases: Liquid, Crystal
Fixed: Pressure, kPa = 94.47
Property: Mole fraction of benzoic acid (Liquid); method: gravimetric
Temperature, K	Mole fraction of benzoic acid	uncertainty
283.15	0.163	0.04
288.15	0.18	0.04
293.15	0.196	0.04
298.15	0.215	0.04
303.15	0.234	0.04
308.15	0.256	0.04
313.15	0.279	0.04
318.15	0.315	0.04
323.15	0.349	0.04
328.15	0.388	0.04

System: benzoic acid + methyl ethanoate; phases: Liquid, Crystal
Fixed: Pressure, kPa = 94.47
Property: Mole fraction of benzoic acid (Liquid); method: gravimetric
Temperature, K	Mole fraction of benzoic acid	uncertainty
283.15	0.125	0.04
288.15	0.152	0.04
293.15	0.175	0.04
298.15	0.198	0.04
303.15	0.213	0.04
308.15	0.237	0.04
313.15	0.26	0.04
318.15	0.282	0.04
323.15	0.318	0.04
328.15	0.348	0.04

System: benzoic acid + pentyl ethanoate; phases: Liquid, Crystal
Fixed: Pressure, kPa = 94.47
Property: Mole fraction of benzoic acid (Liquid); method: gravimetric
Temperature, K	Mole fraction of benzoic acid	uncertainty
283.15	0.091	0.04
288.15	0.112	0.04
293.15	0.133	0.04
298.15	0.159	0.04
303.15	0.179	0.04
308.15	0.198	0.04
313.15	0.226	0.04
318.15	0.252	0.04
323.15	0.282	0.04
328.15	0.316	0.04

System: benzoic acid + 2,2,4-trimethylpentane; phases: Liquid, Crystal
Fixed: Pressure, kPa = 94.47
Property: Mole fraction of benzoic acid (Liquid); method: gravimetric
Temperature, K	Mole fraction of benzoic acid	uncertainty
283.15	0.002	0.002
288.15	0.003	0.003
293.15	0.005	0.005
298.15	0.007	0.007
303.15	0.01	0.01
308.15	0.013	0.013
313.15	0.018	0.018
318.15	0.023	0.023
323.15	0.031	0.031
328.15	0.04	0.04

System: benzoic acid + ethanol + hexane; phases: Liquid, Crystal
Fixed: Pressure, kPa = 94.47
Property: Mole fraction of benzoic acid (Liquid); method: gravimetry, HPLC, and titration
Temperature, K	Solvent: Mole fraction of ethanol	Mole fraction of benzoic acid	uncertainty
288.15	0	0.005	0.005
293.15	0	0.007	0.007
298.15	0	0.01	0.01
303.15	0	0.013	0.013
308.15	0	0.016	0.016
313.15	0	0.019	0.019
318.15	0	0.025	0.025
323.15	0	0.03	0.03
328.15	0	0.038	0.038
288.15	0.2	0.041	0.041
293.15	0.2	0.052	0.046
298.15	0.2	0.066	0.047
303.15	0.2	0.077	0.05
308.15	0.2	0.094	0.054
313.15	0.2	0.11	0.058
318.15	0.2	0.135	0.063
323.15	0.2	0.158	0.069
328.15	0.2	0.191	0.075
288.15	0.36	0.063	0.043
293.15	0.36	0.086	0.044
298.15	0.36	0.101	0.045
303.15	0.36	0.12	0.046
308.15	0.36	0.143	0.047
313.15	0.36	0.169	0.049
318.15	0.36	0.197	0.05
323.15	0.36	0.228	0.052
328.15	0.36	0.265	0.052
288.15	0.491	0.086	0.044
293.15	0.491	0.104	0.043
298.15	0.491	0.124	0.044
303.15	0.491	0.142	0.044
308.15	0.491	0.165	0.044
313.15	0.491	0.189	0.044
318.15	0.491	0.219	0.044
323.15	0.491	0.254	0.043
328.15	0.491	0.286	0.043
288.15	0.6	0.105	0.044
293.15	0.6	0.124	0.045
298.15	0.6	0.144	0.045
303.15	0.6	0.164	0.044
308.15	0.6	0.187	0.044
313.15	0.6	0.211	0.044
318.15	0.6	0.24	0.043
323.15	0.6	0.265	0.042
328.15	0.6	0.303	0.042
288.15	0.693	0.113	0.044
293.15	0.693	0.136	0.044
298.15	0.693	0.155	0.044
303.15	0.693	0.181	0.044
308.15	0.693	0.2	0.044
313.15	0.693	0.226	0.044
318.15	0.693	0.253	0.043
323.15	0.693	0.28	0.042
328.15	0.693	0.316	0.042
288.15	0.772	0.136	0.044
293.15	0.772	0.163	0.044
298.15	0.772	0.179	0.044
303.15	0.772	0.197	0.044
308.15	0.772	0.216	0.043
313.15	0.772	0.24	0.043
318.15	0.772	0.266	0.042
323.15	0.772	0.292	0.042
328.15	0.772	0.319	0.041
288.15	0.84	0.153	0.042
293.15	0.84	0.171	0.041
298.15	0.84	0.188	0.041
303.15	0.84	0.209	0.04
308.15	0.84	0.227	0.04
313.15	0.84	0.249	0.04
318.15	0.84	0.27	0.04
323.15	0.84	0.3	0.04
328.15	0.84	0.325	0.041
288.15	0.9	0.157	0.043
293.15	0.9	0.179	0.042
298.15	0.9	0.196	0.042
303.15	0.9	0.215	0.042
308.15	0.9	0.235	0.043
313.15	0.9	0.255	0.042
318.15	0.9	0.28	0.041
323.15	0.9	0.304	0.041
328.15	0.9	0.328	0.041
288.15	1	0.154	0.04
293.15	1	0.165	0.04
298.15	1	0.178	0.04
303.15	1	0.194	0.04
308.15	1	0.216	0.04
313.15	1	0.232	0.04
318.15	1	0.253	0.04
323.15	1	0.274	0.04
328.15	1	0.293	0.04

System: benzoic acid + propan-2-ol + hexane; phases: Liquid, Crystal
Fixed: Pressure, kPa = 94.47
Property: Mole fraction of benzoic acid (Liquid); method: gravimetry, HPLC, and titration
Temperature, K	Solvent: Mole fraction of propan-2-ol	Mole fraction of benzoic acid	uncertainty
288.15	0	0.005	0.005
293.15	0	0.007	0.007
298.15	0	0.01	0.01
303.15	0	0.013	0.013
308.15	0	0.016	0.016
313.15	0	0.019	0.019
318.15	0	0.025	0.025
323.15	0	0.03	0.03
288.15	0.161	0.038	0.038
293.15	0.161	0.049	0.048
298.15	0.161	0.063	0.051
303.15	0.161	0.077	0.055
308.15	0.161	0.094	0.061
313.15	0.161	0.108	0.067
318.15	0.161	0.134	0.075
323.15	0.161	0.157	0.084
288.15	0.301	0.069	0.044
293.15	0.301	0.086	0.046
298.15	0.301	0.104	0.047
303.15	0.301	0.128	0.048
308.15	0.301	0.154	0.051
313.15	0.301	0.181	0.054
318.15	0.301	0.217	0.056
323.15	0.301	0.251	0.058
288.15	0.424	0.085	0.041
293.15	0.424	0.106	0.042
298.15	0.424	0.127	0.042
303.15	0.424	0.148	0.042
308.15	0.424	0.178	0.042
313.15	0.424	0.201	0.041
318.15	0.424	0.235	0.041
323.15	0.424	0.266	0.041
288.15	0.534	0.094	0.042
293.15	0.534	0.113	0.042
298.15	0.534	0.134	0.042
303.15	0.534	0.157	0.042
308.15	0.534	0.18	0.041
313.15	0.534	0.204	0.041
318.15	0.534	0.237	0.041
323.15	0.534	0.267	0.041
288.15	0.632	0.104	0.042
293.15	0.632	0.124	0.042
298.15	0.632	0.146	0.042
303.15	0.632	0.168	0.042
308.15	0.632	0.19	0.042
313.15	0.632	0.213	0.042
318.15	0.632	0.246	0.041
323.15	0.632	0.273	0.041
288.15	0.721	0.121	0.044
293.15	0.721	0.14	0.044
298.15	0.721	0.161	0.044
303.15	0.721	0.185	0.043
308.15	0.721	0.208	0.044
313.15	0.721	0.23	0.044
318.15	0.721	0.259	0.043
323.15	0.721	0.288	0.042
288.15	0.801	0.138	0.043
293.15	0.801	0.157	0.042
298.15	0.801	0.176	0.042
303.15	0.801	0.2	0.042
308.15	0.801	0.225	0.042
313.15	0.801	0.248	0.042
318.15	0.801	0.277	0.042
323.15	0.801	0.302	0.041
288.15	0.873	0.154	0.042
293.15	0.873	0.172	0.042
298.15	0.873	0.193	0.042
303.15	0.873	0.215	0.042
308.15	0.873	0.239	0.042
313.15	0.873	0.264	0.042
318.15	0.873	0.289	0.042
323.15	0.873	0.31	0.041
288.15	1	0.16	0.04
293.15	1	0.174	0.04
298.15	1	0.193	0.04
303.15	1	0.216	0.04
308.15	1	0.238	0.04
313.15	1	0.265	0.04
318.15	1	0.29	0.04
323.15	1	0.313	0.04

System: benzoic acid + trichloromethane + hexane; phases: Liquid, Crystal
Fixed: Pressure, kPa = 94.47
Property: Mole fraction of benzoic acid (Liquid); method: gravimetry, HPLC, and titration
Temperature, K	Solvent: Mole fraction of trichloromethane	Mole fraction of benzoic acid	uncertainty
288.15	0	0.005	0.005
293.15	0	0.007	0.007
298.15	0	0.01	0.01
303.15	0	0.013	0.013
308.15	0	0.016	0.016
313.15	0	0.019	0.019
318.15	0	0.025	0.025
323.15	0	0.03	0.03
288.15	0.154	0.021	0.021
293.15	0.154	0.027	0.027
298.15	0.154	0.037	0.037
303.15	0.154	0.047	0.045
308.15	0.154	0.057	0.047
313.15	0.154	0.067	0.049
318.15	0.154	0.085	0.053
323.15	0.154	0.102	0.058
288.15	0.291	0.035	0.035
293.15	0.291	0.045	0.042
298.15	0.291	0.056	0.042
303.15	0.291	0.07	0.043
308.15	0.291	0.086	0.045
313.15	0.291	0.103	0.047
318.15	0.291	0.128	0.049
323.15	0.291	0.15	0.052
288.15	0.413	0.046	0.041
293.15	0.413	0.058	0.041
298.15	0.413	0.073	0.042
303.15	0.413	0.09	0.042
308.15	0.413	0.108	0.043
313.15	0.413	0.13	0.043
318.15	0.413	0.158	0.044
323.15	0.413	0.186	0.046
288.15	0.523	0.055	0.041
293.15	0.523	0.068	0.041
298.15	0.523	0.083	0.041
303.15	0.523	0.1	0.041
308.15	0.523	0.12	0.042
313.15	0.523	0.141	0.042
318.15	0.523	0.17	0.042
323.15	0.523	0.201	0.042
288.15	0.622	0.062	0.041
293.15	0.622	0.077	0.041
298.15	0.622	0.093	0.041
303.15	0.622	0.11	0.042
308.15	0.622	0.134	0.042
313.15	0.622	0.153	0.042
318.15	0.622	0.182	0.042
323.15	0.622	0.212	0.042
288.15	0.711	0.07	0.041
293.15	0.711	0.085	0.041
298.15	0.711	0.101	0.041
303.15	0.711	0.12	0.042
308.15	0.711	0.144	0.042
313.15	0.711	0.165	0.042
318.15	0.711	0.194	0.042
323.15	0.711	0.221	0.042
288.15	0.793	0.079	0.041
293.15	0.793	0.094	0.041
298.15	0.793	0.114	0.041
303.15	0.793	0.134	0.041
308.15	0.793	0.155	0.041
313.15	0.793	0.177	0.041
318.15	0.793	0.206	0.041
323.15	0.793	0.234	0.041
288.15	0.868	0.087	0.041
293.15	0.868	0.103	0.041
298.15	0.868	0.12	0.041
303.15	0.868	0.141	0.041
308.15	0.868	0.163	0.041
313.15	0.868	0.188	0.041
318.15	0.868	0.215	0.041
323.15	0.868	0.244	0.041
288.15	1	0.093	0.04
293.15	1	0.104	0.04
298.15	1	0.13	0.04
303.15	1	0.148	0.04
308.15	1	0.169	0.04
313.15	1	0.193	0.04
318.15	1	0.221	0.04
323.15	1	0.249	0.04

System: benzoic acid + acetone + hexane; phases: Liquid, Crystal
Fixed: Pressure, kPa = 94.47
Property: Mole fraction of benzoic acid (Liquid); method: gravimetry, HPLC, and titration
Temperature, K	Solvent: Mole fraction of acetone	Mole fraction of benzoic acid	uncertainty
288.15	0	0.005	0.005
293.15	0	0.007	0.007
298.15	0	0.01	0.01
303.15	0	0.013	0.013
308.15	0	0.016	0.016
313.15	0	0.019	0.019
318.15	0	0.025	0.025
288.15	0.165	0.026	0.026
293.15	0.165	0.036	0.036
298.15	0.165	0.048	0.046
303.15	0.165	0.064	0.048
308.15	0.165	0.081	0.052
313.15	0.165	0.104	0.056
318.15	0.165	0.129	0.061
288.15	0.308	0.051	0.042
293.15	0.308	0.063	0.043
298.15	0.308	0.079	0.044
303.15	0.308	0.095	0.045
308.15	0.308	0.118	0.046
313.15	0.308	0.136	0.047
318.15	0.308	0.166	0.048
288.15	0.412	0.06	0.041
293.15	0.412	0.074	0.042
298.15	0.412	0.091	0.042
303.15	0.412	0.112	0.043
308.15	0.412	0.138	0.043
313.15	0.412	0.166	0.045
318.15	0.412	0.193	0.044
288.15	0.542	0.074	0.043
293.15	0.542	0.09	0.043
298.15	0.542	0.108	0.044
303.15	0.542	0.132	0.044
308.15	0.542	0.157	0.044
313.15	0.542	0.185	0.044
318.15	0.542	0.21	0.044
288.15	0.64	0.088	0.043
293.15	0.64	0.105	0.044
298.15	0.64	0.124	0.044
303.15	0.64	0.145	0.045
308.15	0.64	0.174	0.045
313.15	0.64	0.204	0.044
318.15	0.64	0.232	0.044
288.15	0.727	0.106	0.046
293.15	0.727	0.126	0.047
298.15	0.727	0.145	0.047
303.15	0.727	0.167	0.046
308.15	0.727	0.196	0.046
313.15	0.727	0.22	0.045
318.15	0.727	0.248	0.046
288.15	0.806	0.127	0.045
293.15	0.806	0.148	0.045
298.15	0.806	0.169	0.045
303.15	0.806	0.192	0.044
308.15	0.806	0.219	0.044
313.15	0.806	0.241	0.043
318.15	0.806	0.268	0.043
288.15	0.877	0.15	0.045
293.15	0.877	0.171	0.044
298.15	0.877	0.191	0.045
303.15	0.877	0.211	0.044
308.15	0.877	0.234	0.043
313.15	0.877	0.252	0.043
318.15	0.877	0.283	0.043
288.15	1	0.159	0.04
293.15	1	0.177	0.04
298.15	1	0.197	0.04
303.15	1	0.216	0.04
308.15	1	0.239	0.04
313.15	1	0.26	0.04
318.15	1	0.288	0.04

System: benzoic acid + acetone + water; phases: Liquid, Crystal
Fixed: Pressure, kPa = 94.47
Property: Mole fraction of benzoic acid (Liquid); method: gravimetry, HPLC, and titration
Temperature, K	Solvent: Mole fraction of acetone	Mole fraction of benzoic acid	uncertainty
288.15	0	0.00021	0.00021
293.15	0	0.00028	0.00028
298.15	0	0.00043	0.00043
303.15	0	0.00058	0.00058
308.15	0	0.0007	0.0007
313.15	0	0.00083	0.00083
318.15	0	0.00095	0.00095
288.15	0.057	0.002	0.002
293.15	0.057	0.002	0.002
298.15	0.057	0.003	0.003
303.15	0.057	0.004	0.004
308.15	0.057	0.004	0.004
313.15	0.057	0.005	0.005
318.15	0.057	0.006	0.006
288.15	0.094	0.004	0.004
293.15	0.094	0.006	0.006
298.15	0.094	0.008	0.008
303.15	0.094	0.009	0.009
308.15	0.094	0.011	0.011
313.15	0.094	0.013	0.013
318.15	0.094	0.016	0.016
288.15	0.14	0.01	0.01
293.15	0.14	0.012	0.012
298.15	0.14	0.016	0.016
303.15	0.14	0.021	0.021
308.15	0.14	0.027	0.027
313.15	0.14	0.031	0.031
318.15	0.14	0.035	0.035
288.15	0.196	0.026	0.026
293.15	0.196	0.031	0.031
298.15	0.196	0.041	0.041
303.15	0.196	0.049	0.049
308.15	0.196	0.058	0.058
313.15	0.196	0.07	0.07
318.15	0.196	0.084	0.079
288.15	0.267	0.048	0.048
293.15	0.267	0.063	0.052
298.15	0.267	0.084	0.056
303.15	0.267	0.098	0.058
308.15	0.267	0.113	0.06
313.15	0.267	0.126	0.064
318.15	0.267	0.14	0.068
288.15	0.362	0.082	0.049
293.15	0.362	0.099	0.053
298.15	0.362	0.13	0.057
303.15	0.362	0.143	0.06
308.15	0.362	0.157	0.061
313.15	0.362	0.181	0.065
318.15	0.362	0.199	0.066
288.15	0.493	0.111	0.042
293.15	0.493	0.13	0.041
298.15	0.493	0.158	0.041
303.15	0.493	0.177	0.041
308.15	0.493	0.191	0.041
313.15	0.493	0.218	0.041
318.15	0.493	0.236	0.042
288.15	1	0.159	0.04
293.15	1	0.177	0.04
298.15	1	0.197	0.04
303.15	1	0.216	0.04
308.15	1	0.239	0.04
313.15	1	0.26	0.04
318.15	1	0.288	0.04

System: benzoic acid + hexane; phases: Liquid, Crystal
Fixed: Pressure, kPa = 94.47
Property: Mole fraction of benzoic acid (Liquid); method: gravimetry, HPLC, and titration
Temperature, K	Mole fraction of benzoic acid	uncertainty
288.15	0.005	0.005
293.15	0.007	0.007
298.15	0.01	0.01
303.15	0.013	0.013
308.15	0.016	0.016
313.15	0.019	0.019
318.15	0.025	0.025
323.15	0.03	0.03
328.15	0.038	0.038

System: benzoic acid + ethanol; phases: Liquid, Crystal
Fixed: Pressure, kPa = 94.47
Property: Mole fraction of benzoic acid (Liquid); method: gravimetry, HPLC, and titration
Temperature, K	Mole fraction of benzoic acid	uncertainty
288.15	0.154	0.04
293.15	0.165	0.04
298.15	0.178	0.04
303.15	0.194	0.04
308.15	0.216	0.04
313.15	0.232	0.04
318.15	0.253	0.04
323.15	0.274	0.04
328.15	0.293	0.04

System: benzoic acid + propan-2-ol; phases: Liquid, Crystal
Fixed: Pressure, kPa = 94.47
Property: Mole fraction of benzoic acid (Liquid); method: gravimetry, HPLC, and titration
Temperature, K	Mole fraction of benzoic acid	uncertainty
288.15	0.16	0.04
293.15	0.174	0.04
298.15	0.193	0.04
303.15	0.216	0.04
308.15	0.238	0.04
313.15	0.265	0.04
318.15	0.29	0.04
323.15	0.313	0.04

System: benzoic acid + trichloromethane; phases: Liquid, Crystal
Fixed: Pressure, kPa = 94.47
Property: Mole fraction of benzoic acid (Liquid); method: gravimetry, HPLC, and titration
Temperature, K	Mole fraction of benzoic acid	uncertainty
288.15	0.093	0.04
293.15	0.104	0.04
298.15	0.13	0.04
303.15	0.148	0.04
308.15	0.169	0.04
313.15	0.193	0.04
318.15	0.221	0.04
323.15	0.249	0.04

System: benzoic acid + acetone; phases: Liquid, Crystal
Fixed: Pressure, kPa = 94.47
Property: Mole fraction of benzoic acid (Liquid); method: gravimetry, HPLC, and titration
Temperature, K	Mole fraction of benzoic acid	uncertainty
288.15	0.159	0.04
293.15	0.177	0.04
298.15	0.197	0.04
303.15	0.216	0.04
308.15	0.239	0.04
313.15	0.26	0.04
318.15	0.288	0.04

System: benzoic acid + water; phases: Liquid, Crystal
Fixed: Pressure, kPa = 94.47
Property: Mole fraction of benzoic acid (Liquid); method: gravimetry, HPLC, and titration
Temperature, K	Mole fraction of benzoic acid	uncertainty
288.15	0.00021	0.00021
293.15	0.00028	0.00028
298.15	0.00043	0.00043
303.15	0.00058	0.00058
308.15	0.0007	0.0007
313.15	0.00083	0.00083
318.15	0.00095	0.00095
