Measured thermophysical data. Solubility Measurement and Modeling of 1-(3-nitrophenyl)Ethanone and 1-(4-nitrophenyl)Ethenone in Nine Pure Organic Solvents from T = (278.15 to 318.15) K and Mixing Properties of Solutions
Source: J. Chem. Eng. Data, 2018, 10.1021/acs.jced.8b00192
Compound 1: 1-(3-nitrophenyl)ethanone, C8H7NO3, InChI=1S/C8H7NO3/c1-6(10)7-3-2-4-8(5-7)9(11)12/h2-5H,1H3, purity 98.5%
Compound 2: 1-(4-nitrophenyl)ethanone, C8H7NO3, InChI=1S/C8H7NO3/c1-6(10)7-2-4-8(5-3-7)9(11)12/h2-5H,1H3, purity 97.5%
Compound 3: propan-1-ol, C3H8O, InChI=1S/C3H8O/c1-2-3-4/h4H,2-3H2,1H3, purity 99.4%
Compound 4: propan-2-ol, C3H8O, InChI=1S/C3H8O/c1-3(2)4/h3-4H,1-2H3, purity 99.5%
Compound 5: ethanol, C2H6O, InChI=1S/C2H6O/c1-2-3/h3H,2H2,1H3, purity 99.5%
Compound 6: methanol, CH4O, InChI=1S/CH4O/c1-2/h2H,1H3, purity 99.7%
Compound 7: toluene, C7H8, InChI=1S/C7H8/c1-7-5-3-2-4-6-7/h2-6H,1H3, purity 99.6%
Compound 8: ethyl acetate, C4H8O2, InChI=1S/C4H8O2/c1-3-6-4(2)5/h3H2,1-2H3, purity 99.5%
Compound 9: acetonitrile, C2H3N, InChI=1S/C2H3N/c1-2-3/h1H3, purity 99.4%
Compound 10: cyclohexane, C6H12, InChI=1S/C6H12/c1-2-4-6-5-3-1/h1-6H2, purity 99.6%
Compound 11: acetone, C3H6O, InChI=1S/C3H6O/c1-3(2)4/h1-2H3, purity 99.5%
Compound 12: benzoic acid, C7H6O2, InChI=1S/C7H6O2/c8-7(9)6-4-2-1-3-5-6/h1-5H,(H,8,9), purity 99.3%

System: 1-(3-nitrophenyl)ethanone; phases: Crystal, Liquid, Air at 1 atmosphere
Property: Normal melting temperature, K (Crystal); method: DTA
Normal melting temperature, K	uncertainty
349.68	1.06

System: 1-(3-nitrophenyl)ethanone; phases: Crystal, Liquid, Air at 1 atmosphere
Property: Molar enthalpy of transition or fusion, kJ/mol (Crystal); method: DSC
Molar enthalpy of transition or fusion, kJ/mol	uncertainty
16.15	0.88

System: 1-(4-nitrophenyl)ethanone; phases: Crystal, Liquid, Air at 1 atmosphere
Property: Normal melting temperature, K (Crystal); method: DTA
Normal melting temperature, K	uncertainty
354.15	1.06

System: 1-(4-nitrophenyl)ethanone; phases: Crystal, Liquid, Air at 1 atmosphere
Property: Molar enthalpy of transition or fusion, kJ/mol (Crystal); method: DSC
Molar enthalpy of transition or fusion, kJ/mol	uncertainty
23.93	0.94

System: 1-(3-nitrophenyl)ethanone + methanol; phases: Liquid, Crystal
Fixed: Pressure, kPa = 101.2
Property: Mole fraction of 1-(3-nitrophenyl)ethanone (Liquid); method: Chromatography
Temperature, K	Mole fraction of 1-(3-nitrophenyl)ethanone	uncertainty
278.15	0.006422	0.000323
283.15	0.007589	0.000381
288.15	0.009281	0.000467
293.15	0.01168	0.00059
298.15	0.01461	0.00073
303.15	0.01828	0.00092
308.15	0.02309	0.00116
313.15	0.02994	0.00151
318.15	0.03889	0.00196

System: 1-(3-nitrophenyl)ethanone + ethanol; phases: Liquid, Crystal
Fixed: Pressure, kPa = 101.2
Property: Mole fraction of 1-(3-nitrophenyl)ethanone (Liquid); method: Chromatography
Temperature, K	Mole fraction of 1-(3-nitrophenyl)ethanone	uncertainty
278.15	0.004869	0.000245
283.15	0.006193	0.000311
288.15	0.00785	0.000395
293.15	0.009933	0.000499
298.15	0.01246	0.00063
303.15	0.01581	0.0008
308.15	0.02036	0.00102
313.15	0.02618	0.00132
318.15	0.03555	0.00179

System: 1-(3-nitrophenyl)ethanone + propan-1-ol; phases: Liquid, Crystal
Fixed: Pressure, kPa = 101.2
Property: Mole fraction of 1-(3-nitrophenyl)ethanone (Liquid); method: Chromatography
Temperature, K	Mole fraction of 1-(3-nitrophenyl)ethanone	uncertainty
278.15	0.003878	0.000195
283.15	0.004865	0.000245
288.15	0.006093	0.000306
293.15	0.00763	0.000384
298.15	0.009754	0.00049
303.15	0.01237	0.00062
308.15	0.01572	0.00079
313.15	0.02036	0.00102
318.15	0.02654	0.00133

System: 1-(3-nitrophenyl)ethanone + propan-2-ol; phases: Liquid, Crystal
Fixed: Pressure, kPa = 101.2
Property: Mole fraction of 1-(3-nitrophenyl)ethanone (Liquid); method: Chromatography
Temperature, K	Mole fraction of 1-(3-nitrophenyl)ethanone	uncertainty
278.15	0.004327	0.000218
283.15	0.00517	0.00026
288.15	0.006346	0.000319
293.15	0.007784	0.000391
298.15	0.009444	0.000475
303.15	0.01166	0.00059
308.15	0.01454	0.00073
313.15	0.018	0.00091
318.15	0.02301	0.00116

System: 1-(3-nitrophenyl)ethanone + acetone; phases: Liquid, Crystal
Fixed: Pressure, kPa = 101.2
Property: Mole fraction of 1-(3-nitrophenyl)ethanone (Liquid); method: Chromatography
Temperature, K	Mole fraction of 1-(3-nitrophenyl)ethanone	uncertainty
278.15	0.1001	0.005
283.15	0.1208	0.0061
288.15	0.1462	0.0073
293.15	0.1791	0.009
298.15	0.2178	0.0109
303.15	0.2637	0.0133
308.15	0.3185	0.016
313.15	0.3838	0.0193
318.15	0.4575	0.023

System: 1-(3-nitrophenyl)ethanone + acetonitrile; phases: Liquid, Crystal
Fixed: Pressure, kPa = 101.2
Property: Mole fraction of 1-(3-nitrophenyl)ethanone (Liquid); method: Chromatography
Temperature, K	Mole fraction of 1-(3-nitrophenyl)ethanone	uncertainty
278.15	0.07174	0.00361
283.15	0.08918	0.00448
288.15	0.1156	0.0058
293.15	0.1466	0.0074
298.15	0.1846	0.0093
303.15	0.233	0.0117
308.15	0.292	0.0147
313.15	0.3673	0.0185
318.15	0.4539	0.0228

System: 1-(3-nitrophenyl)ethanone + ethyl acetate; phases: Liquid, Crystal
Fixed: Pressure, kPa = 101.2
Property: Mole fraction of 1-(3-nitrophenyl)ethanone (Liquid); method: Chromatography
Temperature, K	Mole fraction of 1-(3-nitrophenyl)ethanone	uncertainty
278.15	0.07819	0.00393
283.15	0.09063	0.00456
288.15	0.1088	0.0055
293.15	0.1316	0.0066
298.15	0.1589	0.008
303.15	0.1908	0.0096
308.15	0.2301	0.0116
313.15	0.2769	0.0139
318.15	0.3408	0.0171

System: 1-(3-nitrophenyl)ethanone + toluene; phases: Liquid, Crystal
Fixed: Pressure, kPa = 101.2
Property: Mole fraction of 1-(3-nitrophenyl)ethanone (Liquid); method: Chromatography
Temperature, K	Mole fraction of 1-(3-nitrophenyl)ethanone	uncertainty
278.15	0.05452	0.00274
283.15	0.06565	0.0033
288.15	0.08196	0.00412
293.15	0.1035	0.0052
298.15	0.1281	0.0064
303.15	0.1606	0.0081
308.15	0.2	0.0101
313.15	0.2535	0.0127
318.15	0.3282	0.0165

System: 1-(3-nitrophenyl)ethanone + cyclohexane; phases: Liquid, Crystal
Fixed: Pressure, kPa = 101.2
Property: Mole fraction of 1-(3-nitrophenyl)ethanone (Liquid); method: Chromatography
Temperature, K	Mole fraction of 1-(3-nitrophenyl)ethanone	uncertainty
283.15	0.001244	6.3e-05
288.15	0.00159	8e-05
293.15	0.00204	0.000103
298.15	0.002601	0.000131
303.15	0.003332	0.000168
308.15	0.004298	0.000216
313.15	0.005597	0.000281
318.15	0.007426	0.000373

System: 1-(4-nitrophenyl)ethanone + methanol; phases: Liquid, Crystal
Fixed: Pressure, kPa = 101.2
Property: Mole fraction of 1-(4-nitrophenyl)ethanone (Liquid); method: Chromatography
Temperature, K	Mole fraction of 1-(4-nitrophenyl)ethanone	uncertainty
278.15	0.008385	0.000422
283.15	0.01016	0.00051
288.15	0.01246	0.00063
293.15	0.01547	0.00078
298.15	0.01869	0.00094
303.15	0.02306	0.00116
308.15	0.02833	0.00142
313.15	0.03429	0.00172
318.15	0.04215	0.00212

System: 1-(4-nitrophenyl)ethanone + ethanol; phases: Liquid, Crystal
Fixed: Pressure, kPa = 101.2
Property: Mole fraction of 1-(4-nitrophenyl)ethanone (Liquid); method: Chromatography
Temperature, K	Mole fraction of 1-(4-nitrophenyl)ethanone	uncertainty
278.15	0.006668	0.000335
283.15	0.008212	0.000413
288.15	0.01004	0.0005
293.15	0.01231	0.00062
298.15	0.01548	0.00078
303.15	0.01896	0.00095
308.15	0.02356	0.00118
313.15	0.02934	0.00148
318.15	0.03652	0.00184

System: 1-(4-nitrophenyl)ethanone + propan-1-ol; phases: Liquid, Crystal
Fixed: Pressure, kPa = 101.2
Property: Mole fraction of 1-(4-nitrophenyl)ethanone (Liquid); method: Chromatography
Temperature, K	Mole fraction of 1-(4-nitrophenyl)ethanone	uncertainty
278.15	0.004812	0.000242
283.15	0.006083	0.000306
288.15	0.007617	0.000383
293.15	0.009681	0.000487
298.15	0.01206	0.00061
303.15	0.01537	0.00077
308.15	0.01938	0.00097
313.15	0.02456	0.00123
318.15	0.03129	0.00157

System: 1-(4-nitrophenyl)ethanone + propan-2-ol; phases: Liquid, Crystal
Fixed: Pressure, kPa = 101.2
Property: Mole fraction of 1-(4-nitrophenyl)ethanone (Liquid); method: Chromatography
Temperature, K	Mole fraction of 1-(4-nitrophenyl)ethanone	uncertainty
278.15	0.003487	0.000175
283.15	0.004549	0.000229
288.15	0.005773	0.00029
293.15	0.007578	0.000381
298.15	0.009782	0.000492
303.15	0.01277	0.00064
308.15	0.01686	0.00085
313.15	0.02228	0.00112
318.15	0.02958	0.00149

System: 1-(4-nitrophenyl)ethanone + acetone; phases: Liquid, Crystal
Fixed: Pressure, kPa = 101.2
Property: Mole fraction of 1-(4-nitrophenyl)ethanone (Liquid); method: Chromatography
Temperature, K	Mole fraction of 1-(4-nitrophenyl)ethanone	uncertainty
278.15	0.1338	0.0067
283.15	0.1576	0.0079
288.15	0.1849	0.0093
293.15	0.2156	0.0108
298.15	0.2499	0.0126
303.15	0.2872	0.0144
308.15	0.3301	0.0166
313.15	0.3764	0.0189
318.15	0.4283	0.0215

System: 1-(4-nitrophenyl)ethanone + acetonitrile; phases: Liquid, Crystal
Fixed: Pressure, kPa = 101.2
Property: Mole fraction of 1-(4-nitrophenyl)ethanone (Liquid); method: Chromatography
Temperature, K	Mole fraction of 1-(4-nitrophenyl)ethanone	uncertainty
278.15	0.1027	0.0052
283.15	0.1231	0.0062
288.15	0.1461	0.0073
293.15	0.1744	0.0088
298.15	0.2062	0.0104
303.15	0.2437	0.0122
308.15	0.287	0.0144
313.15	0.336	0.0169
318.15	0.3891	0.0196

System: 1-(4-nitrophenyl)ethanone + ethyl acetate; phases: Liquid, Crystal
Fixed: Pressure, kPa = 101.2
Property: Mole fraction of 1-(4-nitrophenyl)ethanone (Liquid); method: Chromatography
Temperature, K	Mole fraction of 1-(4-nitrophenyl)ethanone	uncertainty
278.15	0.1005	0.0051
283.15	0.117	0.0059
288.15	0.1368	0.0069
293.15	0.1609	0.0081
298.15	0.1875	0.0094
303.15	0.2196	0.011
308.15	0.257	0.0129
313.15	0.2996	0.0151
318.15	0.3455	0.0174

System: 1-(4-nitrophenyl)ethanone + toluene; phases: Liquid, Crystal
Fixed: Pressure, kPa = 101.2
Property: Mole fraction of 1-(4-nitrophenyl)ethanone (Liquid); method: Chromatography
Temperature, K	Mole fraction of 1-(4-nitrophenyl)ethanone	uncertainty
278.15	0.06736	0.00339
283.15	0.08059	0.00405
288.15	0.09595	0.00482
293.15	0.1136	0.0057
298.15	0.1368	0.0069
303.15	0.1638	0.0082
308.15	0.1952	0.0098
313.15	0.2316	0.0116
318.15	0.2746	0.0138

System: 1-(4-nitrophenyl)ethanone + cyclohexane; phases: Liquid, Crystal
Fixed: Pressure, kPa = 101.2
Property: Mole fraction of 1-(4-nitrophenyl)ethanone (Liquid); method: Chromatography
Temperature, K	Mole fraction of 1-(4-nitrophenyl)ethanone	uncertainty
283.15	0.001541	7.8e-05
288.15	0.00203	0.000102
293.15	0.002593	0.00013
298.15	0.003325	0.000167
303.15	0.004226	0.000213
308.15	0.005424	0.000273
313.15	0.006942	0.000349
318.15	0.008902	0.000448

System: benzoic acid + toluene; phases: Liquid, Crystal
Fixed: Pressure, kPa = 101.2
Property: Mole fraction of benzoic acid (Liquid); method: Chromatography
Temperature, K	Mole fraction of benzoic acid	uncertainty
283.15	0.04176	0.0021
293.15	0.06144	0.00309
303.15	0.08871	0.00446
313.15	0.1255	0.0063
