Measured thermophysical data. Determining the Solubility of Organic Compounds in Supercritical Carbon Dioxide Using Supercritical Fluid Chromatography Directly Interfaced to Supercritical Fluid Solubility Apparatus
Source: J. Chem. Eng. Data, 2016, 10.1021/acs.jced.6b00081
Compound 1: .alpha.-hydroxy-.alpha.-phenylacetophenone, C14H12O2, InChI=1S/C14H12O2/c15-13(11-7-3-1-4-8-11)14(16)12-9-5-2-6-10-12/h1-10,13,15H, purity 99.5%
Compound 2: 3,3',4,4'-benzophenonetetracarboxylic dianhydride, C17H6O7, InChI=1S/C17H6O7/c18-13(7-1-3-9-11(5-7)16(21)23-14(9)19)8-2-4-10-12(6-8)17(22)24-15(10)20/h1-6H, purity 98.5%
Compound 3: carbon dioxide, CO2, InChI=1S/CO2/c2-1-3, purity 99.999%

System: .alpha.-hydroxy-.alpha.-phenylacetophenone + carbon dioxide; phases: Fluid (supercritical or subcritical phases), Liquid
Property: Mole fraction of .alpha.-hydroxy-.alpha.-phenylacetophenone (Fluid (supercritical or subcritical phases)); method: Chromatography
Pressure, kPa	Temperature, K	Mole fraction of .alpha.-hydroxy-.alpha.-phenylacetophenone	uncertainty
12000	308	0.00018063	2.085e-05
14000	308	0.00020099	2.332e-05
16000	308	0.00021771	2.549e-05
18000	308	0.00024037	2.817e-05
20000	308	0.00024873	2.95e-05
22000	308	0.00026094	3.146e-05
24000	308	0.00026894	3.355e-05
12000	318	0.00020299	2.399e-05
14000	318	0.00023815	2.79e-05
16000	318	0.00027045	3.154e-05
18000	318	0.0002981	3.465e-05
20000	318	0.00032765	3.834e-05
22000	318	0.00035375	4.182e-05
24000	318	0.00039036	4.674e-05

System: carbon dioxide + 3,3',4,4'-benzophenonetetracarboxylic dianhydride; phases: Fluid (supercritical or subcritical phases), Liquid
Property: Mole fraction of 3,3',4,4'-benzophenonetetracarboxylic dianhydride (Fluid (supercritical or subcritical phases)); method: Chromatography
Pressure, kPa	Temperature, K	Mole fraction of 3,3',4,4'-benzophenonetetracarboxylic dianhydride	uncertainty
15000	328	1.26e-06	1.7e-07
17500	328	1.57e-06	2.1e-07
20000	328	2.01e-06	2.6e-07
22500	328	2.54e-06	3.3e-07
25000	328	3.08e-06	4e-07
27500	328	3.76e-06	4.8e-07
15000	343	8.1e-07	1.1e-07
17500	343	1.05e-06	1.5e-07
20000	343	1.71e-06	2.3e-07
22500	343	2.17e-06	2.9e-07
25000	343	2.97e-06	4e-07
27500	343	3.94e-06	5.1e-07
