Measured thermophysical data. Liquid-Liquid Equilibrium for the Ternary  System 2,2,3,3,4,4,5,5-Octafluoro-1-Pentanol  + Ethanol + Water at (298.15, 308.15, and  318.15) K
Source: J. Chem. Eng. Data, 2015, 10.1021/acs.jced.5b00436
Compound 1: 2,2,3,3,4,4,5,5-octafluoro-1-pentanol, C5H4F8O, InChI=1S/C5H4F8O/c6-2(7)4(10,11)5(12,13)3(8,9)1-14/h2,14H,1H2, purity 99.5%
Compound 2: ethanol, C2H6O, InChI=1S/C2H6O/c1-2-3/h3H,2H2,1H3, purity 99.7%
Compound 3: water, H2O, InChI=1S/H2O/h1H2, purity 99.8%

System: 2,2,3,3,4,4,5,5-octafluoro-1-pentanol; phases: Liquid
Property: Refractive index (Na D-line) (Liquid); method: Standard Abbe refractometry
Temperature, K	Pressure, kPa	Refractive index (Na D-line)	uncertainty
293.15	101.325	1.3171	0.0005

System: ethanol; phases: Liquid
Property: Refractive index (Na D-line) (Liquid); method: Standard Abbe refractometry
Temperature, K	Pressure, kPa	Refractive index (Na D-line)	uncertainty
293.15	101.325	1.3616	0.0005

System: water; phases: Liquid
Property: Refractive index (Na D-line) (Liquid); method: Standard Abbe refractometry
Temperature, K	Pressure, kPa	Refractive index (Na D-line)	uncertainty
293.15	101.325	1.3328	0.0005

System: ethanol + 2,2,3,3,4,4,5,5-octafluoro-1-pentanol + water; phases: Liquid mixture 2, Liquid mixture 1
Fixed: Pressure, kPa = 100
Property: Mole fraction of ethanol (Liquid mixture 2); method: Chromatography
Property: Mole fraction of 2,2,3,3,4,4,5,5-octafluoro-1-pentanol (Liquid mixture 1); method: Chromatography
Property: Mole fraction of ethanol (Liquid mixture 1); method: Chromatography
Temperature, K	Mole fraction of 2,2,3,3,4,4,5,5-octafluoro-1-pentanol	Mole fraction of ethanol	uncertainty	Mole fraction of 2,2,3,3,4,4,5,5-octafluoro-1-pentanol	uncertainty	Mole fraction of ethanol	uncertainty
298.15	0.0896	0.2846	0.0174	0.0065	0.0022	0.1412	
298.15	0.1186	0.305	0.0133	0.0037	0.0013	0.1278	
298.15	0.1484	0.3098	0.0102	0.0035	0.0009	0.1113	
298.15	0.1987	0.3052	0.0112	0.0023	0.001	0.0952	
298.15	0.2489	0.2869	0.0133	0.0016	0.0008	0.0764	
298.15	0.3089	0.2583	0.0151	0.0015	0.0008	0.0614	
298.15	0.3455	0.2321	0.0177	0.0021	0.0008	0.0494	
298.15	0.4116	0.1839	0.019	0.0014	0.0009	0.0358	
298.15	0.4698	0.1315	0.0209	0.0011	0.0008	0.0222	
298.15	0.5302	0.075	0.0226	0.0011	0.0008	0.0116	
298.15	0.5999	0		0.0017	0.0008	0	
308.15	0.2425	0.2858	0.0118	0.0019	0.0008	0.0754	
308.15	0.122	0.2818	0.0129	0.0047	0.0018	0.1102	
308.15	0.2963	0.2601	0.0144	0.0017	0.0008	0.0602	
308.15	0.3431	0.2318	0.0171	0.0012	0.0008	0.0464	
308.15	0.4045	0.186	0.0184	0.0014	0.0008	0.0339	
308.15	0.4641	0.1385	0.0203	0.0013	0.0008	0.022	
308.15	0.1834	0.2941	0.0102	0.0025	0.0011	0.091	
308.15	0.5266	0.0781	0.0234	0.0015	0.0008	0.0115	
308.15	0.0836	0.2515	0.0182	0.0082	0.0018	0.1237	
308.15	0.5952	0		0.0018	0.0008	0	
318.15	0.168	0.2893	0.0105	0.0033	0.001	0.0881	
318.15	0.4612	0.1366	0.0201	0.0016	0.0008	0.0209	
318.15	0.3019	0.2657	0.014	0.0016	0.0009	0.0568	
318.15	0.1063	0.2519	0.0174	0.0062	0.0015	0.1143	
318.15	0.5252	0.0818	0.0222	0.0012	0.0008	0.0108	
318.15	0.3549	0.2267	0.0182	0.0014	0.0008	0.0454	
318.15	0.3917	0.1977	0.0198	0.0012	0.0008	0.0336	
318.15	0.1354	0.2724	0.0158	0.0043	0.0014	0.0995	
318.15	0.5994	0		0.0019	0.0008	0	
318.15	0.2314	0.2871	0.0108	0.0026	0.001	0.0738	

System: 2,2,3,3,4,4,5,5-octafluoro-1-pentanol + water; phases: Liquid mixture 1, Liquid mixture 2
Fixed: Pressure, kPa = 100
Property: Mole fraction of 2,2,3,3,4,4,5,5-octafluoro-1-pentanol (Liquid mixture 1); method: Chromatography
Temperature, K	Mole fraction of 2,2,3,3,4,4,5,5-octafluoro-1-pentanol	uncertainty
298.15	0.0017	0.0008
318.15	0.0019	0.0008
308.15	0.0018	0.0008

System: 2,2,3,3,4,4,5,5-octafluoro-1-pentanol + water; phases: Liquid mixture 2, Liquid mixture 1
Fixed: Pressure, kPa = 100
Property: Mole fraction of 2,2,3,3,4,4,5,5-octafluoro-1-pentanol (Liquid mixture 2); method: Chromatography
Temperature, K	Mole fraction of 2,2,3,3,4,4,5,5-octafluoro-1-pentanol	uncertainty
298.15	0.5999	0.0202
318.15	0.5994	0.0202
308.15	0.5952	0.0202
