Measured thermophysical data. Thermophysical Properties and Carbon Dioxide Absorption Studies of Guanidinium-Based Carboxylate Ionic Liquids
Source: J. Chem. Eng. Data, 2019, 10.1021/acs.jced.9b00377
Compound 1: 1,1,3,3-tetramethylguanidinium butanoate, C9H21N3O2, InChI=1S/C5H13N3.C4H8O2/c1-7(2)5(6)8(3)4;1-2-3-4(5)6/h6H,1-4H3;2-3H2,1H3,(H,5,6), purity 98%
Compound 2: 1,1,3,3-tetramethylguanidinium pentanoate, C10H23N3O2, InChI=1S/C5H13N3.C5H10O2/c1-7(2)5(6)8(3)4;1-2-3-4-5(6)7/h6H,1-4H3;2-4H2,1H3,(H,6,7), purity 98%
Compound 3: 1,1,3,3-tetramethylguanidinium hexanoate, C11H25N3O2, InChI=1S/C6H12O2.C5H13N3/c1-2-3-4-5-6(7)8;1-7(2)5(6)8(3)4/h2-5H2,1H3,(H,7,8);6H,1-4H3, purity 98%
Compound 4: 1,1,3,3-tetramethylguanidinium heptanoate, C12H27N3O2, InChI=1S/C7H14O2.C5H13N3/c1-2-3-4-5-6-7(8)9;1-7(2)5(6)8(3)4/h2-6H2,1H3,(H,8,9);6H,1-4H3, purity 98%
Compound 5: 1,1,3,3-tetramethylguanidinium octanoate, C13H29N3O2, InChI=1S/C8H16O2.C5H13N3/c1-2-3-4-5-6-7-8(9)10;1-7(2)5(6)8(3)4/h2-7H2,1H3,(H,9,10);6H,1-4H3, purity 98%
Compound 6: carbon dioxide, CO2, InChI=1S/CO2/c2-1-3, purity 99%
Compound 7: 1,1,3,3-tetramethylguanidinium hydrogen carbonate, C6H15N3O3, InChI=1S/C5H13N3.CH2O3/c1-7(2)5(6)8(3)4;2-1(3)4/h6H,1-4H3;(H2,2,3,4)

System: 1,1,3,3-tetramethylguanidinium butanoate; phases: Liquid
Fixed: Pressure, kPa = 100
Property: Mass density, kg/m3 (Liquid); method: Vibrating tube method
Temperature, K	Mass density, kg/m3	uncertainty
293.15	1032.2	2.16
298.15	1028.74	2.16
303.15	1025.27	2.16
308.15	1021.74	2.16
313.15	1018.24	2.15
318.15	1014.77	2.15
323.15	1011.3	2.15
328.15	1007.79	2.15
333.15	1004.24	2.14
338.15	1000.67	2.14
343.15	997.07	2.14

System: 1,1,3,3-tetramethylguanidinium butanoate; phases: Liquid
Fixed: Pressure, kPa = 100
Property: Viscosity, Pa*s (Liquid); method: Falling or rolling sphere viscometry
Temperature, K	Viscosity, Pa*s	uncertainty
293.15	2.48	1.036
298.15	1.638	0.679
303.15	1.049	0.431
308.15	0.6941	0.2833
313.15	0.4531	0.1839
318.15	0.3182	0.1286
323.15	0.2235	0.09
328.15	0.1585	0.0637
333.15	0.114	0.0457
338.15	0.0881	0.0353
343.15	0.0657	0.0263

System: 1,1,3,3-tetramethylguanidinium butanoate; phases: Liquid
Fixed: Pressure, kPa = 100
Property: Speed of sound, m/s (Liquid); method: Single path-length method
Temperature, K	Speed of sound, m/s	uncertainty
293.15	1593.6	50
298.15	1576.5	50
303.15	1559.4	50
308.15	1542.3	50
313.15	1525.1	50
318.15	1508	50
323.15	1490.9	50
328.15	1475.5	50
333.15	1458.4	50
338.15	1441.3	50
343.15	1424.1	50

System: 1,1,3,3-tetramethylguanidinium butanoate; phases: Liquid
Fixed: Pressure, kPa = 100
Property: Refractive index (Na D-line) (Liquid); method: Standard Abbe refractometry
Temperature, K	Refractive index (Na D-line)	uncertainty
293.15	1.4823	0.01
298.15	1.4809	0.01
303.15	1.4794	0.01
308.15	1.4781	0.01
313.15	1.4766	0.01
318.15	1.4753	0.01
323.15	1.474	0.01
328.15	1.4727	0.01
333.15	1.4716	0.01
338.15	1.4704	0.01
343.15	1.4693	0.01

System: 1,1,3,3-tetramethylguanidinium pentanoate; phases: Liquid
Fixed: Pressure, kPa = 100
Property: Mass density, kg/m3 (Liquid); method: Vibrating tube method
Temperature, K	Mass density, kg/m3	uncertainty
293.15	1010.3	2.1
298.15	1006.9	2.1
303.15	1003.4	2.1
308.15	1000	2.1
313.15	996.64	2.14
318.15	993.25	2.14
323.15	989.84	2.14
328.15	986.42	2.14
333.15	982.98	2.13
338.15	979.53	2.13
343.15	976.07	2.13

System: 1,1,3,3-tetramethylguanidinium pentanoate; phases: Liquid
Fixed: Pressure, kPa = 100
Property: Viscosity, Pa*s (Liquid); method: Falling or rolling sphere viscometry
Temperature, K	Viscosity, Pa*s	uncertainty
293.15	1.241	0.511
298.15	0.7979	0.3264
303.15	0.5611	0.2283
308.15	0.3822	0.1548
313.15	0.2682	0.1082
318.15	0.1997	0.0804
323.15	0.1477	0.0593
328.15	0.1114	0.0447
333.15	0.0852	0.0341
338.15	0.0677	0.0271
343.15	0.054	0.0216

System: 1,1,3,3-tetramethylguanidinium pentanoate; phases: Liquid
Fixed: Pressure, kPa = 100
Property: Speed of sound, m/s (Liquid); method: Single path-length method
Temperature, K	Speed of sound, m/s	uncertainty
293.15	1540.6	50
298.15	1524.7	50
303.15	1508.7	50
308.15	1492.8	50
313.15	1476.8	50
318.15	1460.8	50
323.15	1444.9	50
328.15	1430.5	50
333.15	1414.6	50
338.15	1398.6	50
343.15	1382.7	50

System: 1,1,3,3-tetramethylguanidinium pentanoate; phases: Liquid
Fixed: Pressure, kPa = 100
Property: Refractive index (Na D-line) (Liquid); method: Standard Abbe refractometry
Temperature, K	Refractive index (Na D-line)	uncertainty
293.15	1.4776	0.01
298.15	1.4758	0.01
303.15	1.4736	0.01
308.15	1.4718	0.01
313.15	1.4699	0.01
318.15	1.4681	0.01
323.15	1.4664	0.01
328.15	1.4648	0.01
333.15	1.4633	0.01
338.15	1.4615	0.01
343.15	1.46	0.01

System: 1,1,3,3-tetramethylguanidinium hexanoate; phases: Liquid
Fixed: Pressure, kPa = 100
Property: Mass density, kg/m3 (Liquid); method: Vibrating tube method
Temperature, K	Mass density, kg/m3	uncertainty
293.15	997.51	2.14
298.15	994.1	2.14
303.15	990.61	2.14
308.15	987.16	2.14
313.15	983.73	2.13
318.15	980.29	2.13
323.15	976.82	2.13
328.15	973.32	2.13
333.15	969.78	2.13
338.15	966.22	2.13
343.15	962.63	2.13

System: 1,1,3,3-tetramethylguanidinium hexanoate; phases: Liquid
Fixed: Pressure, kPa = 100
Property: Viscosity, Pa*s (Liquid); method: Falling or rolling sphere viscometry
Temperature, K	Viscosity, Pa*s	uncertainty
293.15	1.534	0.635
298.15	1.001	0.411
303.15	0.6578	0.2683
308.15	0.4421	0.1794
313.15	0.3098	0.1252
318.15	0.2211	0.089
323.15	0.1595	0.0641
328.15	0.1185	0.0475
333.15	0.0894	0.0358
338.15	0.0693	0.0277
343.15	0.054	0.0216

System: 1,1,3,3-tetramethylguanidinium hexanoate; phases: Liquid
Fixed: Pressure, kPa = 100
Property: Speed of sound, m/s (Liquid); method: Single path-length method
Temperature, K	Speed of sound, m/s	uncertainty
293.15	1539	50
298.15	1522.2	50
303.15	1505.5	50
308.15	1488.8	50
313.15	1472.1	50
318.15	1455.4	50
323.15	1438.7	50
328.15	1423.6	50
333.15	1406.9	50
338.15	1390.2	50
343.15	1373.5	50

System: 1,1,3,3-tetramethylguanidinium hexanoate; phases: Liquid
Fixed: Pressure, kPa = 100
Property: Refractive index (Na D-line) (Liquid); method: Standard Abbe refractometry
Temperature, K	Refractive index (Na D-line)	uncertainty
293.15	1.4701	0.01
298.15	1.4684	0.01
303.15	1.466	0.01
308.15	1.4638	0.01
313.15	1.4619	0.01
318.15	1.4601	0.01
323.15	1.458	0.01
328.15	1.4563	0.01
333.15	1.4544	0.01
338.15	1.4528	0.01
343.15	1.4511	0.01

System: 1,1,3,3-tetramethylguanidinium heptanoate; phases: Liquid
Fixed: Pressure, kPa = 100
Property: Mass density, kg/m3 (Liquid); method: Vibrating tube method
Temperature, K	Mass density, kg/m3	uncertainty
293.15	986.16	2.14
298.15	982.69	2.13
303.15	979.2	2.13
308.15	975.61	2.13
313.15	972.09	2.13
318.15	968.56	2.13
323.15	965	2.13
328.15	961.39	2.13
333.15	957.74	2.13
338.15	954.06	2.12
343.15	950.35	2.12

System: 1,1,3,3-tetramethylguanidinium heptanoate; phases: Liquid
Fixed: Pressure, kPa = 100
Property: Viscosity, Pa*s (Liquid); method: Falling or rolling sphere viscometry
Temperature, K	Viscosity, Pa*s	uncertainty
293.15	1.827	0.758
298.15	1.144	0.471
303.15	0.7408	0.3027
308.15	0.4939	0.2007
313.15	0.3369	0.1362
318.15	0.2423	0.0977
323.15	0.1729	0.0695
328.15	0.1267	0.0508
333.15	0.0944	0.0378
338.15	0.0716	0.0287
343.15	0.0558	0.0223

System: 1,1,3,3-tetramethylguanidinium heptanoate; phases: Liquid
Fixed: Pressure, kPa = 100
Property: Speed of sound, m/s (Liquid); method: Single path-length method
Temperature, K	Speed of sound, m/s	uncertainty
293.15	1535.5	50
298.15	1517.9	50
303.15	1500.2	50
308.15	1482.5	50
313.15	1464.8	50
318.15	1447.2	50
323.15	1429.5	50
328.15	1413.6	50
333.15	1395.9	50
338.15	1378.2	50
343.15	1360.6	50

System: 1,1,3,3-tetramethylguanidinium heptanoate; phases: Liquid
Fixed: Pressure, kPa = 100
Property: Refractive index (Na D-line) (Liquid); method: Standard Abbe refractometry
Temperature, K	Refractive index (Na D-line)	uncertainty
293.15	1.4792	0.01
298.15	1.4776	0.01
303.15	1.4759	0.01
308.15	1.474	0.01
313.15	1.4722	0.01
318.15	1.4707	0.01
323.15	1.4689	0.01
328.15	1.4674	0.01
333.15	1.4656	0.01
338.15	1.464	0.01
343.15	1.4628	0.01

System: 1,1,3,3-tetramethylguanidinium octanoate; phases: Liquid
Fixed: Pressure, kPa = 100
Property: Mass density, kg/m3 (Liquid); method: Vibrating tube method
Temperature, K	Mass density, kg/m3	uncertainty
293.15	969.06	2.13
298.15	965.65	2.13
303.15	962.28	2.13
308.15	958.95	2.13
313.15	955.63	2.12
318.15	952.3	2.12
323.15	948.95	2.12
328.15	945.59	2.12
333.15	942.23	2.12
338.15	938.85	2.12
343.15	935.46	2.12

System: 1,1,3,3-tetramethylguanidinium octanoate; phases: Liquid
Fixed: Pressure, kPa = 100
Property: Viscosity, Pa*s (Liquid); method: Falling or rolling sphere viscometry
Temperature, K	Viscosity, Pa*s	uncertainty
293.15	1.093	0.449
298.15	0.7372	0.3012
303.15	0.5068	0.206
308.15	0.3476	0.1406
313.15	0.2496	0.1006
318.15	0.1868	0.0751
323.15	0.1388	0.0557
328.15	0.1057	0.0424
333.15	0.0812	0.0325
338.15	0.065	0.026
343.15	0.0525	0.021

System: 1,1,3,3-tetramethylguanidinium octanoate; phases: Liquid
Fixed: Pressure, kPa = 100
Property: Speed of sound, m/s (Liquid); method: Single path-length method
Temperature, K	Speed of sound, m/s	uncertainty
293.15	1497.3	50
298.15	1481.3	50
303.15	1465.4	50
308.15	1449.4	50
313.15	1433.5	50
318.15	1417.5	50
323.15	1401.6	50
328.15	1387.2	50
333.15	1371.3	50
338.15	1355.3	50
343.15	1339.4	50

System: 1,1,3,3-tetramethylguanidinium octanoate; phases: Liquid
Fixed: Pressure, kPa = 100
Property: Refractive index (Na D-line) (Liquid); method: Standard Abbe refractometry
Temperature, K	Refractive index (Na D-line)	uncertainty
293.15	1.4678	0.01
298.15	1.4657	0.01
303.15	1.4631	0.01
308.15	1.4612	0.01
313.15	1.4589	0.01
318.15	1.4565	0.01
323.15	1.4544	0.01
328.15	1.4523	0.01
333.15	1.4501	0.01
338.15	1.4482	0.01
343.15	1.4463	0.01

System: 1,1,3,3-tetramethylguanidinium hydrogen carbonate; phases: Crystal
Property: Mass density, kg/m3 (Crystal); method: X-ray diffraction
Temperature, K	Pressure, kPa	Mass density, kg/m3	uncertainty
173	101.325	1213	12

System: carbon dioxide + 1,1,3,3-tetramethylguanidinium butanoate; phases: Liquid, Gas
Property: Amount ratio of solute to solvent of carbon dioxide (Liquid); method: phase equilibration
Temperature, K	Pressure, kPa	Amount ratio of solute to solvent of carbon dioxide	uncertainty
298	100	0.181	0.001

System: carbon dioxide + 1,1,3,3-tetramethylguanidinium hexanoate; phases: Liquid, Gas
Property: Amount ratio of solute to solvent of carbon dioxide (Liquid); method: phase equilibration
Temperature, K	Pressure, kPa	Amount ratio of solute to solvent of carbon dioxide	uncertainty
298	100	0.223	0.001

System: carbon dioxide + 1,1,3,3-tetramethylguanidinium octanoate; phases: Liquid, Gas
Property: Amount ratio of solute to solvent of carbon dioxide (Liquid); method: phase equilibration
Temperature, K	Pressure, kPa	Amount ratio of solute to solvent of carbon dioxide	uncertainty
298	100	0.295	0.001
