Measured thermophysical data. Thermophysical Properties of Ternary Systems Potassium Formate + Propylene Glycol/Glycerol + Water
Source: J. Chem. Eng. Data, 2019, 10.1021/acs.jced.8b00742
Compound 1: potassium formate, CHKO2, InChI=1S/CH2O2.K/c2-1-3;/h1H,(H,2,3);/q;+1/p-1, purity 99.9%
Compound 2: 1,2-propanediol, C3H8O2, InChI=1S/C3H8O2/c1-3(5)2-4/h3-5H,2H2,1H3, purity 99.5%
Compound 3: glycerol, C3H8O3, InChI=1S/C3H8O3/c4-1-3(6)2-5/h3-6H,1-2H2, purity 99%
Compound 4: water, H2O, InChI=1S/H2O/h1H2, purity 99.9%
Compound 5: lithium bromide, BrLi, InChI=1S/BrH.Li/h1H;/q;+1/p-1, purity 99%

System: water; phases: Liquid, Gas
Property: Vapor or sublimation pressure, kPa (Liquid); method: Closed cell (Static) method
Temperature, K	Vapor or sublimation pressure, kPa	uncertainty
313.15	7.1	0.2
323.15	12.2	0.4
333.15	19.4	0.4
343.15	31.3	0.4
353.15	48.1	0.6
363.15	71.8	0.7
373.15	101.3	0.8
383.15	142.3	1.2
393.15	199.1	1.5
403.15	272.3	1.8
413.15	358.8	2.4
423.15	482.5	2.9
433.15	618.4	3.4
443.15	792.3	4.1
453.15	1005.2	4.7

System: potassium formate + 1,2-propanediol + water; phases: Liquid, Crystal
Fixed: Pressure, kPa = 100
Property: Solid-liquid equilibrium temperature, K (Liquid); method: VISOBS
Mass fraction of water	Solvent: Mass ratio of component to other component of binary solvent of potassium formate	Solid-liquid equilibrium temperature, K	uncertainty
0.155	2	303	7.3
0.13	2	313.4	7.9
0.118	2	322.7	9.5
0.104	2	332.6	10.1
0.091	2	344.5	10.9
0.171	3	303.7	7.3
0.145	3	314.5	7.9
0.131	3	324.7	9.2
0.116	3	334	8.9
0.101	3	343.6	8.4
0.18	4	304.5	7.1
0.153	4	314.9	7.7
0.138	4	325.3	8.9
0.123	4	334.6	8.6
0.107	4	344.4	8.6

System: potassium formate + 1,2-propanediol + water; phases: Liquid
Fixed: Temperature, K = 298.15
Fixed: Pressure, kPa = 100
Property: Mass density, kg/m3 (Liquid); method: Pycnometric method
Mass fraction of water	Solvent: Mass ratio of component to other component of binary solvent of potassium formate	Mass density, kg/m3	uncertainty
0.55	2	1198	22
0.4	2	1271	22
0.25	2	1339	22
0.6	3	1193	22
0.47	3	1278	22
0.33	3	1349	22
0.2	3	1426	22
0.62	4	1191	22
0.5	4	1272	22
0.37	4	1346	22
0.25	4	1422	22

System: potassium formate + 1,2-propanediol + water; phases: Liquid
Fixed: Temperature, K = 298.15
Fixed: Pressure, kPa = 100
Property: Viscosity, Pa*s (Liquid); method: Capillary tube (Ostwald; Ubbelohde) method
Mass fraction of water	Solvent: Mass ratio of component to other component of binary solvent of potassium formate	Viscosity, Pa*s	uncertainty
0.55	2	0.0026	0.0005
0.4	2	0.005	0.0008
0.25	2	0.0143	0.0032
0.6	3	0.0022	0.0004
0.47	3	0.0034	0.0005
0.33	3	0.0074	0.0012
0.2	3	0.0211	0.0057
0.62	4	0.0017	0.0004
0.5	4	0.0025	0.0005
0.37	4	0.0047	0.0007
0.25	4	0.0107	0.0021

System: potassium formate + 1,2-propanediol + water; phases: Liquid, Gas
Property: Vapor or sublimation pressure, kPa (Liquid); method: Closed cell (Static) method
Temperature, K	Solvent: Mass ratio of component to other component of binary solvent of potassium formate	Mass fraction of water	Vapor or sublimation pressure, kPa	uncertainty
313.15	4	0.625	5.9	0.2
318.15	4	0.625	7.4	0.4
323.15	4	0.625	9.8	0.4
328.15	4	0.625	12	0.6
333.15	4	0.625	15.3	0.4
338.15	4	0.625	19.5	0.6
343.15	4	0.625	23.9	0.5
348.15	4	0.625	29.6	0.3
353.15	4	0.625	35.9	0.5
358.15	4	0.625	43.5	0.7
363.15	4	0.625	52.4	0.5
368.15	4	0.625	62.7	0.7
373.15	4	0.625	74.8	0.9
378.15	4	0.625	88.5	1.1
383.15	4	0.625	105.1	1.3
388.15	4	0.625	122.9	1.3
393.15	4	0.625	142.9	1.5
398.15	4	0.625	165.8	1.9
403.15	4	0.625	191.5	1.9
408.15	4	0.625	220.1	2.3
413.15	4	0.625	252.6	2.3
418.15	4	0.625	287.9	2.5
423.15	4	0.625	326.3	2.6
428.15	4	0.625	369.7	3.1
433.15	4	0.625	418.2	3.4
438.15	4	0.625	471.4	3.8
443.15	4	0.625	530.5	4.4
448.15	4	0.625	592.3	4.4
453.15	4	0.625	661.2	4.9
313.15	4	0.5	5.2	0.2
318.15	4	0.5	6.3	0.4
323.15	4	0.5	7.8	0.2
328.15	4	0.5	10.1	0.4
333.15	4	0.5	12.5	0.4
338.15	4	0.5	15.7	0.4
343.15	4	0.5	19.3	0.4
348.15	4	0.5	23.6	0.5
353.15	4	0.5	28.7	0.7
358.15	4	0.5	34.9	0.5
363.15	4	0.5	41.2	0.7
368.15	4	0.5	49.2	0.7
373.15	4	0.5	58.3	0.7
378.15	4	0.5	69.1	0.9
383.15	4	0.5	81	1.1
388.15	4	0.5	94.3	1
393.15	4	0.5	109.5	1.4
398.15	4	0.5	126	1.4
403.15	4	0.5	144.8	1.8
408.15	4	0.5	165.6	1.6
413.15	4	0.5	188.7	1.9
418.15	4	0.5	213.4	1.9
423.15	4	0.5	241.8	2.4
428.15	4	0.5	272.5	2.8
433.15	4	0.5	305.9	2.8
438.15	4	0.5	343.5	3.2
443.15	4	0.5	383.4	3.4
448.15	4	0.5	426.9	4
453.15	4	0.5	473.6	4.3
313.15	4	0.375	4	0.2
318.15	4	0.375	5.1	0.6
323.15	4	0.375	6.3	0.4
328.15	4	0.375	7.5	0.6
333.15	4	0.375	9.2	0.2
338.15	4	0.375	11.5	0.4
343.15	4	0.375	13.9	0.4
348.15	4	0.375	17.2	0.4
353.15	4	0.375	20.5	0.5
358.15	4	0.375	24.6	0.7
363.15	4	0.375	29.5	0.9
368.15	4	0.375	34.6	0.7
373.15	4	0.375	39.9	0.7
378.15	4	0.375	46.6	0.9
383.15	4	0.375	54.3	1.1
388.15	4	0.375	63.4	1.2
393.15	4	0.375	72.9	1.2
398.15	4	0.375	83.1	1.6
403.15	4	0.375	95.5	1.3
408.15	4	0.375	107.8	1.4
413.15	4	0.375	122.1	1.6
418.15	4	0.375	137.7	1.9
423.15	4	0.375	155.1	2.3
428.15	4	0.375	173.7	2.4
433.15	4	0.375	193.9	2.7
438.15	4	0.375	215.4	3
443.15	4	0.375	239.9	3
448.15	4	0.375	265.8	3.6
453.15	4	0.375	294.1	3.6
313.15	4	0.312	3.2	0.4
318.15	4	0.312	3.9	0.2
323.15	4	0.312	4.7	0.6
328.15	4	0.312	6.3	0.4
333.15	4	0.312	7.8	0.4
338.15	4	0.312	9.6	0.6
343.15	4	0.312	11.5	0.6
348.15	4	0.312	13.5	0.6
353.15	4	0.312	16.2	0.8
358.15	4	0.312	19.5	0.5
363.15	4	0.312	23	0.7
368.15	4	0.312	26.3	0.9
373.15	4	0.312	31.4	0.7
378.15	4	0.312	36.7	0.9
383.15	4	0.312	41.7	1.1
388.15	4	0.312	48.8	1.1
393.15	4	0.312	55.3	1
398.15	4	0.312	63.7	1.4
403.15	4	0.312	72.5	1.6
408.15	4	0.312	81.8	1.4
413.15	4	0.312	92.1	1.3
418.15	4	0.312	103.6	1.7
423.15	4	0.312	115.6	2.1
428.15	4	0.312	129.5	2
433.15	4	0.312	144	2.3
438.15	4	0.312	159.7	2.6
443.15	4	0.312	177	2.8
448.15	4	0.312	196.1	3
453.15	4	0.312	215.6	3
313.15	4	0.25	2.5	0.4
318.15	4	0.25	3.3	0.2
323.15	4	0.25	4	0.4
328.15	4	0.25	5	0.4
333.15	4	0.25	6.1	0.6
338.15	4	0.25	7.2	0.6
343.15	4	0.25	8.7	0.6
348.15	4	0.25	10.6	0.4
353.15	4	0.25	12.2	0.4
358.15	4	0.25	14.4	0.4
363.15	4	0.25	16.6	0.5
368.15	4	0.25	19.5	0.7
373.15	4	0.25	22.7	0.9
378.15	4	0.25	26.5	0.5
383.15	4	0.25	30.4	0.7
388.15	4	0.25	34.8	0.9
393.15	4	0.25	40.2	1.1
398.15	4	0.25	45.8	1.3
403.15	4	0.25	51.5	1.6
408.15	4	0.25	58.2	1.4
413.15	4	0.25	65	1.3
418.15	4	0.25	72.5	1.7
423.15	4	0.25	81.6	1.8
428.15	4	0.25	90.8	2
433.15	4	0.25	100.3	2.1
438.15	4	0.25	111.7	2.4
443.15	4	0.25	122.6	2.6
448.15	4	0.25	135.2	2.5
453.15	4	0.25	148.7	3.1
313.15	4	0.187	1.6	0.2
318.15	4	0.187	2	0.2
323.15	4	0.187	2.6	0.4
328.15	4	0.187	3	0.4
333.15	4	0.187	3.8	0.4
338.15	4	0.187	4.6	0.4
343.15	4	0.187	5.5	0.6
348.15	4	0.187	6.7	0.6
353.15	4	0.187	8	0.4
358.15	4	0.187	9.2	0.4
363.15	4	0.187	10.8	0.6
368.15	4	0.187	12.7	0.5
373.15	4	0.187	15.5	0.5
378.15	4	0.187	17.5	0.9
383.15	4	0.187	20.2	0.9
388.15	4	0.187	22.8	1.1
393.15	4	0.187	26.1	0.9
398.15	4	0.187	29.7	1.3
403.15	4	0.187	33.4	1.2
408.15	4	0.187	37.4	1.4
413.15	4	0.187	41.7	1.3
418.15	4	0.187	46.8	1.8
423.15	4	0.187	51.7	1.5
428.15	4	0.187	57.9	1.9
433.15	4	0.187	63.6	2.2
438.15	4	0.187	70.2	2.1
443.15	4	0.187	77.1	2.3
448.15	4	0.187	84.9	2.3
453.15	4	0.187	93.7	2.5
313.15	3	0.6	5.6	0.4
318.15	3	0.6	7.1	0.4
323.15	3	0.6	9.3	0.6
328.15	3	0.6	11.6	0.4
333.15	3	0.6	14.8	0.6
338.15	3	0.6	18.6	0.4
343.15	3	0.6	22.7	0.5
348.15	3	0.6	28.1	0.3
353.15	3	0.6	33.7	0.7
358.15	3	0.6	41.3	0.7
363.15	3	0.6	49.9	0.7
368.15	3	0.6	59.4	0.8
373.15	3	0.6	71.1	0.7
378.15	3	0.6	84.3	1.1
383.15	3	0.6	99.3	1.5
388.15	3	0.6	116.2	1.2
393.15	3	0.6	134.6	1.3
398.15	3	0.6	155.7	1.4
403.15	3	0.6	178.9	1.7
408.15	3	0.6	206.4	1.9
413.15	3	0.6	236.6	2.2
418.15	3	0.6	270	2.2
423.15	3	0.6	299.7	2.6
428.15	3	0.6	348	3
433.15	3	0.6	389.7	3.3
438.15	3	0.6	439.5	3.6
443.15	3	0.6	495.2	4.1
448.15	3	0.6	553.4	4.4
453.15	3	0.6	616.6	4.8
313.15	3	0.467	4.7	0.2
318.15	3	0.467	5.6	0.4
323.15	3	0.467	7.3	0.6
328.15	3	0.467	9.4	0.2
333.15	3	0.467	11.7	0.4
338.15	3	0.467	14.3	0.4
343.15	3	0.467	17.5	0.6
348.15	3	0.467	21.1	0.6
353.15	3	0.467	26.5	0.5
358.15	3	0.467	31.6	0.9
363.15	3	0.467	37.4	0.5
368.15	3	0.467	44.7	0.9
373.15	3	0.467	52.2	0.8
378.15	3	0.467	61.7	0.8
383.15	3	0.467	72.6	1
388.15	3	0.467	83.9	1
393.15	3	0.467	98.2	1.3
398.15	3	0.467	111.5	1.4
403.15	3	0.467	129.1	1.5
408.15	3	0.467	146.5	1.7
413.15	3	0.467	167.1	1.9
418.15	3	0.467	188.5	2.3
423.15	3	0.467	213.7	2.2
428.15	3	0.467	240.1	2.3
433.15	3	0.467	269.4	2.6
438.15	3	0.467	301.8	3
443.15	3	0.467	336.3	3.3
448.15	3	0.467	374	3.8
453.15	3	0.467	414.7	4.3
313.15	3	0.333	3.4	0.2
318.15	3	0.333	4.1	0.6
323.15	3	0.333	5.2	0.4
328.15	3	0.333	6.3	0.6
333.15	3	0.333	7.6	0.2
338.15	3	0.333	9.4	0.4
343.15	3	0.333	11.5	0.4
348.15	3	0.333	13.9	0.4
353.15	3	0.333	16.8	0.4
358.15	3	0.333	19.9	0.6
363.15	3	0.333	23.8	0.8
368.15	3	0.333	27.6	0.7
373.15	3	0.333	33.4	0.9
378.15	3	0.333	38.4	1.1
383.15	3	0.333	44.3	0.8
388.15	3	0.333	51.3	1.2
393.15	3	0.333	59.1	0.9
398.15	3	0.333	67.5	1.3
403.15	3	0.333	76.9	1.2
408.15	3	0.333	88.2	1.6
413.15	3	0.333	98.7	1.5
418.15	3	0.333	110.6	1.8
423.15	3	0.333	124	2.2
428.15	3	0.333	138.5	2
433.15	3	0.333	154.8	2.3
438.15	3	0.333	171.7	2.5
443.15	3	0.333	190.5	2.8
448.15	3	0.333	210.7	3.1
453.15	3	0.333	232.8	3.4
313.15	3	0.267	2.5	0.4
318.15	3	0.267	3	0.6
323.15	3	0.267	3.8	0.4
328.15	3	0.267	4.6	0.6
333.15	3	0.267	5.9	0.6
338.15	3	0.267	7.1	0.4
343.15	3	0.267	9.2	0.6
348.15	3	0.267	10.7	0.6
353.15	3	0.267	12.6	0.4
358.15	3	0.267	15.2	0.4
363.15	3	0.267	17.3	0.6
368.15	3	0.267	20.3	0.7
373.15	3	0.267	24.5	0.7
378.15	3	0.267	27.9	0.9
383.15	3	0.267	31.9	0.7
388.15	3	0.267	37	0.9
393.15	3	0.267	42	0.8
398.15	3	0.267	47.5	1
403.15	3	0.267	54.7	1.2
408.15	3	0.267	60.7	1.1
413.15	3	0.267	69	1.5
418.15	3	0.267	77.4	1.7
423.15	3	0.267	86.5	1.8
428.15	3	0.267	96.2	1.7
433.15	3	0.267	107.1	2.2
438.15	3	0.267	119.2	2
443.15	3	0.267	131.4	2.5
448.15	3	0.267	144.7	2.8
453.15	3	0.267	159.6	2.8
313.15	3	0.2	1.7	0.2
318.15	3	0.2	2.3	0.2
323.15	3	0.2	2.8	0.2
328.15	3	0.2	3.2	0.2
333.15	3	0.2	4	0.4
338.15	3	0.2	4.7	0.4
343.15	3	0.2	5.6	0.6
348.15	3	0.2	7	0.4
353.15	3	0.2	8.2	0.4
358.15	3	0.2	10.2	0.6
363.15	3	0.2	11.3	0.3
368.15	3	0.2	13.5	0.5
373.15	3	0.2	16.2	0.7
378.15	3	0.2	18.5	0.7
383.15	3	0.2	21.5	0.5
388.15	3	0.2	24.1	0.7
393.15	3	0.2	27.8	0.9
398.15	3	0.2	30.8	1
403.15	3	0.2	35.1	1.2
408.15	3	0.2	39.7	1.2
413.15	3	0.2	44.1	1.6
418.15	3	0.2	49.1	1.6
423.15	3	0.2	54.9	1.5
428.15	3	0.2	61.8	1.8
433.15	3	0.2	67.8	2
438.15	3	0.2	75.7	2.1
443.15	3	0.2	82.9	2.5
448.15	3	0.2	91	2.7
453.15	3	0.2	100.4	2.6
313.15	2	0.55	5.3	0.2
318.15	2	0.55	6.6	0.2
323.15	2	0.55	8.3	0.2
328.15	2	0.55	10.6	0.4
333.15	2	0.55	13.4	0.4
338.15	2	0.55	16.4	0.6
343.15	2	0.55	20.8	0.5
348.15	2	0.55	25.1	0.5
353.15	2	0.55	30.5	0.9
358.15	2	0.55	37	0.7
363.15	2	0.55	44.4	0.6
368.15	2	0.55	53.1	0.6
373.15	2	0.55	62.2	0.8
378.15	2	0.55	74.1	0.9
383.15	2	0.55	86.5	1.1
388.15	2	0.55	101.1	1
393.15	2	0.55	117.4	1.3
398.15	2	0.55	135.7	1.5
403.15	2	0.55	156	1.6
408.15	2	0.55	178.8	1.9
413.15	2	0.55	202.7	2.1
418.15	2	0.55	232.2	2.3
423.15	2	0.55	263.7	2.6
428.15	2	0.55	298.8	2.8
433.15	2	0.55	336.5	3.2
438.15	2	0.55	380.2	3.5
443.15	2	0.55	423.7	3.6
448.15	2	0.55	471.9	4.1
453.15	2	0.55	525.6	4.3
313.15	2	0.4	3.8	0.4
318.15	2	0.4	4.8	0.6
323.15	2	0.4	6.4	0.4
328.15	2	0.4	7.7	0.6
333.15	2	0.4	9.4	0.4
338.15	2	0.4	11.5	0.6
343.15	2	0.4	14.5	0.4
348.15	2	0.4	17.5	0.6
353.15	2	0.4	20.9	0.6
358.15	2	0.4	24.6	0.8
363.15	2	0.4	29.7	0.7
368.15	2	0.4	35.1	1.1
373.15	2	0.4	40.8	0.9
378.15	2	0.4	46.9	0.9
383.15	2	0.4	54.7	1
388.15	2	0.4	64.3	1.2
393.15	2	0.4	74.2	1.2
398.15	2	0.4	84.2	1.3
403.15	2	0.4	96.8	1.2
408.15	2	0.4	110.3	1.5
413.15	2	0.4	124.6	1.7
418.15	2	0.4	141.5	1.8
423.15	2	0.4	160.6	2.2
428.15	2	0.4	179.8	2.3
433.15	2	0.4	204.3	2.4
438.15	2	0.4	221.8	2.8
443.15	2	0.4	250.3	3.2
448.15	2	0.4	275.3	3.2
453.15	2	0.4	305.4	3.8
313.15	2	0.25	2.3	0.2
318.15	2	0.25	2.9	0.4
323.15	2	0.25	3.6	0.4
328.15	2	0.25	4.4	0.6
333.15	2	0.25	5.4	0.4
338.15	2	0.25	6.5	0.4
343.15	2	0.25	7.3	0.6
348.15	2	0.25	8.6	0.8
353.15	2	0.25	10.4	0.6
358.15	2	0.25	12.6	0.6
363.15	2	0.25	15	0.8
368.15	2	0.25	17.7	0.7
373.15	2	0.25	20.8	0.9
378.15	2	0.25	23.3	1.1
383.15	2	0.25	27.5	0.9
388.15	2	0.25	31.5	0.9
393.15	2	0.25	35.3	1
398.15	2	0.25	39.9	1.2
403.15	2	0.25	45.6	1.6
408.15	2	0.25	52	1.3
413.15	2	0.25	60.1	1.7
418.15	2	0.25	65.8	1.6
423.15	2	0.25	72.8	2
428.15	2	0.25	80.8	2.1
433.15	2	0.25	89.8	1.9
438.15	2	0.25	100.2	2.3
443.15	2	0.25	111	2.5
448.15	2	0.25	122.3	2.8
453.15	2	0.25	134.8	3.1
313.15	2	0.175	1.6	0.2
318.15	2	0.175	1.9	0.2
323.15	2	0.175	2.3	0.2
328.15	2	0.175	2.9	0.4
333.15	2	0.175	3.2	0.4
338.15	2	0.175	4	0.2
343.15	2	0.175	4.5	0.4
348.15	2	0.175	5.3	0.4
353.15	2	0.175	6.7	0.8
358.15	2	0.175	8	0.6
363.15	2	0.175	9.1	0.8
368.15	2	0.175	10.3	0.6
373.15	2	0.175	12.2	0.7
378.15	2	0.175	14.3	0.8
383.15	2	0.175	16.4	1
388.15	2	0.175	18.8	0.9
393.15	2	0.175	21.2	1.3
398.15	2	0.175	24.1	1.1
403.15	2	0.175	26.9	1.1
408.15	2	0.175	30.8	1.3
413.15	2	0.175	34.3	1.6
418.15	2	0.175	37.4	1.4
423.15	2	0.175	41.7	1.6
428.15	2	0.175	46.6	1.9
433.15	2	0.175	52.6	1.9
438.15	2	0.175	57.8	1.8
443.15	2	0.175	63.8	2.2
448.15	2	0.175	69.7	2.3
453.15	2	0.175	76.1	2.7

System: potassium formate + glycerol + water; phases: Liquid, Crystal
Fixed: Pressure, kPa = 100
Property: Solid-liquid equilibrium temperature, K (Liquid); method: VISOBS
Mass fraction of water	Solvent: Mass ratio of component to other component of binary solvent of potassium formate	Solid-liquid equilibrium temperature, K	uncertainty
0.15	2	301.9	7.2
0.123	2	312.7	7.3
0.102	2	321.5	9.5
0.094	2	331.8	9.4
0.08	2	344	10.6
0.164	3	303	7
0.134	3	313.8	7.3
0.116	3	323.6	9
0.107	3	333.9	8.8
0.089	3	343.3	7.7
0.169	4	303.8	7.3
0.144	4	314.4	7.5
0.123	4	324.6	8.3
0.11	4	334	9.5
0.097	4	343.7	9.6

System: potassium formate + glycerol + water; phases: Liquid
Fixed: Temperature, K = 298.15
Fixed: Pressure, kPa = 100
Property: Mass density, kg/m3 (Liquid); method: Pycnometric method
Mass fraction of water	Solvent: Mass ratio of component to other component of binary solvent of potassium formate	Mass density, kg/m3	uncertainty
0.55	2	1227	26
0.4	2	1310	28
0.25	2	1434	30
0.6	3	1217	27
0.47	3	1305	28
0.33	3	1403	28
0.2	3	1493	29
0.62	4	1213	28
0.5	4	1299	27
0.37	4	1379	28
0.25	4	1471	29

System: potassium formate + glycerol + water; phases: Liquid
Fixed: Temperature, K = 298.15
Fixed: Pressure, kPa = 100
Property: Viscosity, Pa*s (Liquid); method: Capillary tube (Ostwald; Ubbelohde) method
Mass fraction of water	Solvent: Mass ratio of component to other component of binary solvent of potassium formate	Viscosity, Pa*s	uncertainty
0.55	2	0.0034	0.0007
0.4	2	0.0052	0.0015
0.25	2	0.0176	0.0067
0.6	3	0.0025	0.0006
0.47	3	0.0037	0.0008
0.33	3	0.0078	0.0024
0.2	3	0.0236	0.0103
0.62	4	0.002	0.0005
0.5	4	0.003	0.0007
0.37	4	0.0055	0.0014
0.25	4	0.0117	0.0037

System: potassium formate + glycerol + water; phases: Liquid, Gas
Property: Vapor or sublimation pressure, kPa (Liquid); method: Closed cell (Static) method
Temperature, K	Solvent: Mass ratio of component to other component of binary solvent of potassium formate	Mass fraction of water	Vapor or sublimation pressure, kPa	uncertainty
313.15	4	0.625	5.7	0.4
318.15	4	0.625	7.6	0.4
323.15	4	0.625	10.1	0.2
328.15	4	0.625	12.5	0.2
333.15	4	0.625	15.1	0.4
338.15	4	0.625	18.9	0.6
343.15	4	0.625	23.7	0.6
348.15	4	0.625	29.2	0.7
353.15	4	0.625	35.1	0.7
358.15	4	0.625	42.2	0.9
363.15	4	0.625	51.7	0.8
368.15	4	0.625	61.6	0.8
373.15	4	0.625	73.5	1
378.15	4	0.625	86.3	1.1
383.15	4	0.625	102.5	1.2
388.15	4	0.625	119.5	1.6
393.15	4	0.625	140.6	1.4
398.15	4	0.625	167.1	1.8
403.15	4	0.625	186.8	1.6
408.15	4	0.625	216.2	2.1
413.15	4	0.625	248.1	2.1
418.15	4	0.625	283.3	2.4
423.15	4	0.625	322.4	2.7
428.15	4	0.625	365.2	3.1
433.15	4	0.625	415.6	3.3
438.15	4	0.625	468.5	3.6
443.15	4	0.625	524.7	4.1
448.15	4	0.625	588.3	4.6
453.15	4	0.625	657.1	4.9
313.15	4	0.5	4.6	0.4
318.15	4	0.5	6.3	0.2
323.15	4	0.5	7.8	0.4
328.15	4	0.5	9.8	0.4
333.15	4	0.5	12	0.6
338.15	4	0.5	15.1	0.6
343.15	4	0.5	18.7	0.4
348.15	4	0.5	22.9	0.6
353.15	4	0.5	27.2	0.7
358.15	4	0.5	32.5	0.9
363.15	4	0.5	39.3	1.1
368.15	4	0.5	47	0.9
373.15	4	0.5	54.9	1.1
378.15	4	0.5	64.8	1
383.15	4	0.5	76.4	1.4
388.15	4	0.5	88.4	1.1
393.15	4	0.5	101.8	1.4
398.15	4	0.5	117.6	1.3
403.15	4	0.5	136.7	1.6
408.15	4	0.5	156.9	1.6
413.15	4	0.5	179.3	2
418.15	4	0.5	204.2	2.2
423.15	4	0.5	230.8	2.2
428.15	4	0.5	261.6	2.6
433.15	4	0.5	294.7	2.9
438.15	4	0.5	330.4	3.1
443.15	4	0.5	369.6	3.4
448.15	4	0.5	411.5	3.7
453.15	4	0.5	458.5	4.3
313.15	4	0.375	3.5	0.2
318.15	4	0.375	4.3	0.4
323.15	4	0.375	5.5	0.4
328.15	4	0.375	6.7	0.6
333.15	4	0.375	8.1	0.6
338.15	4	0.375	10	0.4
343.15	4	0.375	12.5	0.6
348.15	4	0.375	15.2	0.4
353.15	4	0.375	18.2	0.6
358.15	4	0.375	21.7	0.8
363.15	4	0.375	25.6	1
368.15	4	0.375	30.4	0.9
373.15	4	0.375	36.3	0.7
378.15	4	0.375	42.1	0.9
383.15	4	0.375	47.6	1
388.15	4	0.375	54.5	1
393.15	4	0.375	63.4	1.2
398.15	4	0.375	74.1	1.3
403.15	4	0.375	83.8	1.3
408.15	4	0.375	97.3	1.6
413.15	4	0.375	108.9	1.6
418.15	4	0.375	124.6	1.9
423.15	4	0.375	139.7	2.1
428.15	4	0.375	157.9	2.2
433.15	4	0.375	177.8	2.4
438.15	4	0.375	196.8	2.8
443.15	4	0.375	220.7	2.9
448.15	4	0.375	245.1	3.3
453.15	4	0.375	271.9	3.8
313.15	4	0.312	2.8	0.4
318.15	4	0.312	3.4	0.2
323.15	4	0.312	4	0.6
328.15	4	0.312	5.1	0.4
333.15	4	0.312	6.2	0.4
338.15	4	0.312	7.4	0.6
343.15	4	0.312	9.1	0.6
348.15	4	0.312	11.2	0.8
353.15	4	0.312	13.6	0.6
358.15	4	0.312	16.4	0.8
363.15	4	0.312	19.3	0.5
368.15	4	0.312	23.2	0.7
373.15	4	0.312	26.2	0.9
378.15	4	0.312	31.3	0.9
383.15	4	0.312	36.1	0.9
388.15	4	0.312	41.1	1.1
393.15	4	0.312	47.2	1.3
398.15	4	0.312	54.4	1.1
403.15	4	0.312	61.7	1.3
408.15	4	0.312	70.8	1.5
413.15	4	0.312	80.6	1.4
418.15	4	0.312	90.3	1.5
423.15	4	0.312	101.4	1.8
428.15	4	0.312	111.7	1.9
433.15	4	0.312	125.3	2.2
438.15	4	0.312	139.6	2.4
443.15	4	0.312	155.4	2.5
448.15	4	0.312	172.4	2.7
453.15	4	0.312	190.8	3.2
313.15	4	0.25	2.1	0.2
318.15	4	0.25	2.6	0.2
323.15	4	0.25	3	0.4
328.15	4	0.25	3.7	0.6
333.15	4	0.25	4.3	0.6
338.15	4	0.25	5.2	0.4
343.15	4	0.25	6.1	0.4
348.15	4	0.25	7.7	0.6
353.15	4	0.25	9.2	0.6
358.15	4	0.25	11.3	0.8
363.15	4	0.25	13.2	1
368.15	4	0.25	15.2	0.8
373.15	4	0.25	17.5	0.7
378.15	4	0.25	20.1	1.1
383.15	4	0.25	23.7	0.7
388.15	4	0.25	27.4	0.9
393.15	4	0.25	31.7	1.3
398.15	4	0.25	35.6	1
403.15	4	0.25	39.9	1.2
408.15	4	0.25	45.7	1.2
413.15	4	0.25	51.9	1.3
418.15	4	0.25	58.6	1.7
423.15	4	0.25	66.2	1.6
428.15	4	0.25	74.5	1.7
433.15	4	0.25	82.7	1.9
438.15	4	0.25	91.3	2.5
443.15	4	0.25	101.8	2.6
448.15	4	0.25	112.5	2.3
453.15	4	0.25	124.9	2.7
313.15	4	0.187	1.2	0.2
318.15	4	0.187	1.5	0.2
323.15	4	0.187	1.7	0.2
328.15	4	0.187	2.2	0.4
333.15	4	0.187	2.6	0.4
338.15	4	0.187	3.2	0.2
343.15	4	0.187	3.8	0.4
348.15	4	0.187	4.5	0.2
353.15	4	0.187	5.4	0.4
358.15	4	0.187	7.3	0.6
363.15	4	0.187	8.3	0.6
368.15	4	0.187	9.8	0.8
373.15	4	0.187	11.2	1
378.15	4	0.187	12.9	0.8
383.15	4	0.187	14.6	1
388.15	4	0.187	16.8	1.1
393.15	4	0.187	19.9	1.5
398.15	4	0.187	22.4	1.3
403.15	4	0.187	24.5	1.1
408.15	4	0.187	28.6	1.3
413.15	4	0.187	32.2	1.4
418.15	4	0.187	36.1	1.6
423.15	4	0.187	40.2	1.6
428.15	4	0.187	43.8	1.9
433.15	4	0.187	49.5	2.1
438.15	4	0.187	53.8	2.2
443.15	4	0.187	60.8	2.3
448.15	4	0.187	66.9	2.5
453.15	4	0.187	73.4	2.8
313.15	3	0.6	5.3	0.2
318.15	3	0.6	7.1	0.4
323.15	3	0.6	9.3	0.2
328.15	3	0.6	11.4	0.4
333.15	3	0.6	14.7	0.4
338.15	3	0.6	18.3	0.6
343.15	3	0.6	23.2	0.6
348.15	3	0.6	28.3	0.7
353.15	3	0.6	34.5	0.9
358.15	3	0.6	41.3	0.9
363.15	3	0.6	49.8	1.1
368.15	3	0.6	60.2	1.1
373.15	3	0.6	71.4	1
378.15	3	0.6	84.1	1.4
383.15	3	0.6	98.6	1.3
388.15	3	0.6	116.2	1.2
393.15	3	0.6	135.1	1.3
398.15	3	0.6	156.5	1.7
403.15	3	0.6	181.4	2
408.15	3	0.6	209.1	2.3
413.15	3	0.6	241.4	2.3
418.15	3	0.6	274.6	2.4
423.15	3	0.6	313	2.9
428.15	3	0.6	354.8	3.1
433.15	3	0.6	400.4	3.5
438.15	3	0.6	451.8	3.9
443.15	3	0.6	508.9	4.3
448.15	3	0.6	569.3	4.5
453.15	3	0.6	636.9	5.1
313.15	3	0.467	4.3	0.2
318.15	3	0.467	5.6	0.4
323.15	3	0.467	7.1	0.4
328.15	3	0.467	8.9	0.4
333.15	3	0.467	11.3	0.6
338.15	3	0.467	14.4	0.6
343.15	3	0.467	17.5	0.4
348.15	3	0.467	21.8	0.8
353.15	3	0.467	25.8	0.7
358.15	3	0.467	31.5	0.9
363.15	3	0.467	36.7	0.7
368.15	3	0.467	43.9	1.1
373.15	3	0.467	50.6	0.9
378.15	3	0.467	60.9	1
383.15	3	0.467	70.6	1.2
388.15	3	0.467	83.1	1.4
393.15	3	0.467	96.8	1.3
398.15	3	0.467	110.7	1.6
403.15	3	0.467	127.5	1.7
408.15	3	0.467	145.5	1.9
413.15	3	0.467	166.4	2
418.15	3	0.467	189.4	2.5
423.15	3	0.467	216.2	2.5
428.15	3	0.467	243.9	2.8
433.15	3	0.467	274.8	2.8
438.15	3	0.467	308.8	3.2
443.15	3	0.467	344.9	3.6
448.15	3	0.467	385.4	3.9
453.15	3	0.467	428	4.4
313.15	3	0.333	3.1	0.2
318.15	3	0.333	4	0.4
323.15	3	0.333	4.8	0.2
328.15	3	0.333	5.8	0.4
333.15	3	0.333	7.2	0.4
338.15	3	0.333	8.9	0.6
343.15	3	0.333	11.3	0.6
348.15	3	0.333	12.9	0.8
353.15	3	0.333	15.8	0.6
358.15	3	0.333	19.4	0.6
363.15	3	0.333	22.7	1
368.15	3	0.333	27.3	0.9
373.15	3	0.333	30.8	1.1
378.15	3	0.333	36.1	0.9
383.15	3	0.333	42	1.1
388.15	3	0.333	48.4	1.3
393.15	3	0.333	56.3	1.2
398.15	3	0.333	64.1	1.4
403.15	3	0.333	73.5	1.5
408.15	3	0.333	84.2	1.9
413.15	3	0.333	95.4	1.8
418.15	3	0.333	107.2	1.9
423.15	3	0.333	120.9	2
428.15	3	0.333	136.2	2.6
433.15	3	0.333	151.8	2.5
438.15	3	0.333	169.6	3.1
443.15	3	0.333	188.2	2.9
448.15	3	0.333	209	3.4
453.15	3	0.333	231.2	3.7
313.15	3	0.267	2.3	0.2
318.15	3	0.267	3	0.2
323.15	3	0.267	3.6	0.2
328.15	3	0.267	4.5	0.4
333.15	3	0.267	5.5	0.2
338.15	3	0.267	6.4	0.4
343.15	3	0.267	7.8	0.4
348.15	3	0.267	9.4	0.6
353.15	3	0.267	11.1	0.8
358.15	3	0.267	13.2	0.8
363.15	3	0.267	15.8	0.6
368.15	3	0.267	18.3	1
373.15	3	0.267	21.2	0.9
378.15	3	0.267	25	0.9
383.15	3	0.267	29.3	1.1
388.15	3	0.267	33.2	0.9
393.15	3	0.267	37.9	1.3
398.15	3	0.267	43.5	1.5
403.15	3	0.267	49.2	1.4
408.15	3	0.267	55.6	1.8
413.15	3	0.267	63.2	1.9
418.15	3	0.267	70.8	2.1
423.15	3	0.267	78.5	1.8
428.15	3	0.267	88.4	2.4
433.15	3	0.267	101.1	2.3
438.15	3	0.267	113.3	2.2
443.15	3	0.267	125.1	2.9
448.15	3	0.267	138.4	2.7
453.15	3	0.267	152.5	2.9
313.15	3	0.2	1.5	0.2
318.15	3	0.2	2	0.2
323.15	3	0.2	2.4	0.4
328.15	3	0.2	2.8	0.4
333.15	3	0.2	3.4	0.2
338.15	3	0.2	4.2	0.6
343.15	3	0.2	5.1	0.4
348.15	3	0.2	6	0.6
353.15	3	0.2	7.1	0.8
358.15	3	0.2	8.2	0.8
363.15	3	0.2	9.7	0.8
368.15	3	0.2	10.8	1
373.15	3	0.2	12.5	0.8
378.15	3	0.2	14.6	0.7
383.15	3	0.2	16.8	1.1
388.15	3	0.2	20.4	0.9
393.15	3	0.2	22.5	1.1
398.15	3	0.2	25.7	1.1
403.15	3	0.2	30	1.5
408.15	3	0.2	34.2	1.5
413.15	3	0.2	38.1	1.4
418.15	3	0.2	42.2	1.5
423.15	3	0.2	46.8	1.8
428.15	3	0.2	52.6	1.9
433.15	3	0.2	60.1	2.2
438.15	3	0.2	65.8	2.4
443.15	3	0.2	72.7	2.2
448.15	3	0.2	80.5	2.6
453.15	3	0.2	88.9	2.9
313.15	2	0.55	5.1	0.2
318.15	2	0.55	6.5	0.2
323.15	2	0.55	8.8	0.4
328.15	2	0.55	11.1	0.4
333.15	2	0.55	14.3	0.6
338.15	2	0.55	17.9	0.6
343.15	2	0.55	21.8	0.6
348.15	2	0.55	27	0.8
353.15	2	0.55	32.8	0.9
358.15	2	0.55	39.3	0.7
363.15	2	0.55	47.3	1.1
368.15	2	0.55	56.7	1
373.15	2	0.55	68.1	1.2
378.15	2	0.55	79.4	1.4
383.15	2	0.55	93.8	1.3
388.15	2	0.55	108.9	1.4
393.15	2	0.55	127.6	1.6
398.15	2	0.55	148.3	1.9
403.15	2	0.55	170.9	1.8
408.15	2	0.55	197.1	2.1
413.15	2	0.55	225.8	2.3
418.15	2	0.55	258.8	2.6
423.15	2	0.55	294.7	2.7
428.15	2	0.55	332.9	2.9
433.15	2	0.55	376.7	3.3
438.15	2	0.55	426.1	4
443.15	2	0.55	479.5	4
448.15	2	0.55	535.6	4.6
453.15	2	0.55	605	5.2
313.15	2	0.4	3.9	0.2
318.15	2	0.4	4.8	0.2
323.15	2	0.4	6.4	0.2
328.15	2	0.4	7.7	0.4
333.15	2	0.4	9.5	0.4
338.15	2	0.4	12.3	0.6
343.15	2	0.4	15.3	0.4
348.15	2	0.4	18.8	0.6
353.15	2	0.4	23.2	0.8
358.15	2	0.4	25.7	0.7
363.15	2	0.4	32	0.7
368.15	2	0.4	36.8	0.9
373.15	2	0.4	44.9	0.9
378.15	2	0.4	51.5	1.1
383.15	2	0.4	60.6	1.2
388.15	2	0.4	70.8	1.4
393.15	2	0.4	81.3	1.3
398.15	2	0.4	94.8	1.8
403.15	2	0.4	108.1	1.6
408.15	2	0.4	124.7	2
413.15	2	0.4	141.8	1.8
418.15	2	0.4	162.3	2.1
423.15	2	0.4	184.3	2.4
428.15	2	0.4	207.6	2.4
433.15	2	0.4	233.2	2.5
438.15	2	0.4	260.7	3.2
443.15	2	0.4	292	3.3
448.15	2	0.4	324.4	3.5
453.15	2	0.4	361.6	4.5
313.15	2	0.25	2.6	0.2
318.15	2	0.25	3.1	0.4
323.15	2	0.25	3.8	0.2
328.15	2	0.25	4.6	0.4
333.15	2	0.25	5.8	0.4
338.15	2	0.25	6.5	0.4
343.15	2	0.25	8.2	0.4
348.15	2	0.25	9.3	0.4
353.15	2	0.25	11.5	0.6
358.15	2	0.25	13.2	0.6
363.15	2	0.25	15.8	0.7
368.15	2	0.25	19.2	0.7
373.15	2	0.25	21.4	0.9
378.15	2	0.25	25.1	0.9
383.15	2	0.25	29.3	1.1
388.15	2	0.25	33.7	1.1
393.15	2	0.25	38.5	1.3
398.15	2	0.25	44.1	1.6
403.15	2	0.25	50.3	1.6
408.15	2	0.25	55.8	1.5
413.15	2	0.25	63.1	1.9
418.15	2	0.25	72.9	2
423.15	2	0.25	81.7	2.3
428.15	2	0.25	91.3	2.4
433.15	2	0.25	100.8	2.2
438.15	2	0.25	113.4	2.5
443.15	2	0.25	126.3	2.9
448.15	2	0.25	140.2	2.9
453.15	2	0.25	154.1	3.3
313.15	2	0.175	1.5	0.2
318.15	2	0.175	1.8	0.2
323.15	2	0.175	2.2	0.4
328.15	2	0.175	2.6	0.2
333.15	2	0.175	3.2	0.2
338.15	2	0.175	4.1	0.4
343.15	2	0.175	4.6	0.4
348.15	2	0.175	5.1	0.2
353.15	2	0.175	6.6	0.4
358.15	2	0.175	7.4	0.6
363.15	2	0.175	8.8	0.6
368.15	2	0.175	10.1	0.8
373.15	2	0.175	11.3	1
378.15	2	0.175	13.4	0.7
383.15	2	0.175	14.9	0.9
388.15	2	0.175	17.3	1.3
393.15	2	0.175	20.2	1.3
398.15	2	0.175	22.4	1.5
403.15	2	0.175	25.9	1.2
408.15	2	0.175	30.2	1.4
413.15	2	0.175	33.5	1.6
418.15	2	0.175	38.1	1.7
423.15	2	0.175	42.5	1.9
428.15	2	0.175	47.6	2
433.15	2	0.175	52.9	2.2
438.15	2	0.175	59.6	2.3
443.15	2	0.175	65.3	2.2
448.15	2	0.175	71.4	2.4
453.15	2	0.175	80.7	2.7

System: potassium formate + water; phases: Liquid, Crystal
Fixed: Pressure, kPa = 100
Property: Solid-liquid equilibrium temperature, K (Liquid); method: VISOBS
Mass fraction of potassium formate	Solid-liquid equilibrium temperature, K	uncertainty
0.772	302.8	7.1
0.803	314.5	8.4
0.811	324	8.4
0.824	334.5	9.7
0.836	343	9.3

System: potassium formate + water; phases: Liquid
Fixed: Temperature, K = 298.15
Fixed: Pressure, kPa = 100
Property: Mass density, kg/m3 (Liquid); method: Pycnometric method
Mass fraction of potassium formate	Mass density, kg/m3	uncertainty
0.5	1326	24
0.6	1423	25
0.7	1541	25

System: lithium bromide + water; phases: Liquid, Crystal of intercomponent compound 1
Fixed: Pressure, kPa = 100
Property: Solid-liquid equilibrium temperature, K (Liquid); method: VISOBS
Mass fraction of lithium bromide	Solid-liquid equilibrium temperature, K	uncertainty
0.615	302.3	6.3
0.635	311.2	6.3
0.649	319.5	6.5

System: lithium bromide + water; phases: Liquid, Crystal of intercomponent compound 2
Fixed: Pressure, kPa = 100
Property: Solid-liquid equilibrium temperature, K (Liquid); method: VISOBS
Mass fraction of lithium bromide	Solid-liquid equilibrium temperature, K	uncertainty
0.659	332.7	6
0.665	338.5	6
