Measured thermophysical data. Phase Behavior of Inorganic Salts Sodium Succinate and Ammonium Citrate in N-Ethylpyridinium Tetrafluoroborate Solution at Different Temperatures
Source: J. Chem. Eng. Data, 2016, 10.1021/acs.jced.5b01099
Compound 1: 1-ethylpyridinium tetrafluoroborate, C7H10BF4N, InChI=1S/C7H10N.BF4/c1-2-8-6-4-3-5-7-8;2-1(3,4)5/h3-7H,2H2,1H3;/q+1;-1, purity 99%
Compound 2: disodium succinate, C4H4Na2O4, InChI=1S/C4H6O4.2Na/c5-3(6)1-2-4(7)8;;/h1-2H2,(H,5,6)(H,7,8);;/q;2*+1/p-2, purity 99%
Compound 3: ammonium 2-hydroxypropane-1,2,3-tricarboxylate, C6H17N3O7, InChI=1S/C6H8O7.3H3N/c7-3(8)1-6(13,5(11)12)2-4(9)10;;;/h13H,1-2H2,(H,7,8)(H,9,10)(H,11,12);3*1H3, purity 99%
Compound 4: water, H2O, InChI=1S/H2O/h1H2, purity 99.9%

System: disodium succinate + 1-ethylpyridinium tetrafluoroborate + water; phases: Liquid mixture 1, Liquid mixture 2
Fixed: Pressure, kPa = 100
Property: Mass fraction of disodium succinate (Liquid mixture 1); method: Titration method
Temperature, K	Mass fraction of 1-ethylpyridinium tetrafluoroborate	Mass fraction of disodium succinate	uncertainty
308.15	0.7767	0.0056	0.0056
308.15	0.7509	0.0078	0.0078
308.15	0.7193	0.0107	0.0101
308.15	0.6943	0.0136	0.0101
308.15	0.6725	0.0165	0.0101
308.15	0.6568	0.019	0.0102
308.15	0.6352	0.0229	0.0102
308.15	0.6182	0.0259	0.0102
308.15	0.6004	0.029	0.0102
308.15	0.5812	0.0329	0.0103
308.15	0.5656	0.0365	0.0103
308.15	0.5545	0.0392	0.0104
308.15	0.5429	0.0425	0.0104
308.15	0.5269	0.0462	0.0104
308.15	0.5121	0.0503	0.0105
308.15	0.4993	0.0539	0.0106
308.15	0.4893	0.0576	0.0106
308.15	0.4864	0.0582	0.0106
308.15	0.4713	0.0625	0.0107
308.15	0.4575	0.0676	0.0108
308.15	0.4461	0.0716	0.0108
308.15	0.4402	0.0737	0.0108
308.15	0.432	0.0766	0.0109
308.15	0.4223	0.0801	0.0109
308.15	0.4126	0.0838	0.0109
308.15	0.4085	0.0853	0.011
308.15	0.4017	0.0879	0.011
308.15	0.3933	0.0911	0.011
308.15	0.3893	0.0927	0.0111
308.15	0.3833	0.0951	0.0111
308.15	0.3767	0.0977	0.0111
308.15	0.3659	0.102	0.0112
308.15	0.3608	0.104	0.0112
308.15	0.3591	0.1048	0.0112
308.15	0.3412	0.1121	0.0113
308.15	0.3309	0.1164	0.0113
308.15	0.3062	0.1269	0.0114
308.15	0.2884	0.1344	0.0116
308.15	0.2657	0.1445	0.0116
308.15	0.2393	0.1552	0.0119
308.15	0.2223	0.1652	0.0123
308.15	0.19	0.1816	0.0124
308.15	0.1688	0.193	0.0128
308.15	0.1531	0.2029	0.0136
308.15	0.1374	0.2154	0.0142
318.15	0.7676	0.0157	0.0101
318.15	0.724	0.0208	0.0101
318.15	0.6941	0.0256	0.0102
318.15	0.6745	0.029	0.0102
318.15	0.6445	0.0342	0.0101
318.15	0.6258	0.0385	0.0103
318.15	0.6075	0.0428	0.0103
318.15	0.589	0.0471	0.0102
318.15	0.5686	0.052	0.0105
318.15	0.5461	0.058	0.0105
318.15	0.5258	0.0637	0.0106
318.15	0.5046	0.0702	0.0105
318.15	0.4845	0.0756	0.0108
318.15	0.4624	0.0834	0.0107
318.15	0.4493	0.0879	0.011
318.15	0.4345	0.0936	0.011
318.15	0.4208	0.0988	0.011
318.15	0.4094	0.1033	0.0111
318.15	0.3846	0.1124	0.0112
318.15	0.3743	0.1171	0.0117
318.15	0.3604	0.1243	0.0115
318.15	0.3485	0.1298	0.0116
318.15	0.3387	0.1344	0.0117
318.15	0.332	0.1376	0.0115
318.15	0.3262	0.1404	0.0119
318.15	0.3193	0.1438	0.0123
318.15	0.314	0.1464	0.0121
318.15	0.2978	0.1546	0.0124
318.15	0.2941	0.1565	0.0117
318.15	0.281	0.1633	0.0123
318.15	0.2677	0.1694	0.0118
318.15	0.2569	0.1758	0.0132
318.15	0.247	0.1806	0.0123
318.15	0.2434	0.1823	0.0125
318.15	0.2392	0.1853	0.0129
318.15	0.2302	0.1914	0.0125
318.15	0.2162	0.1987	0.0133
318.15	0.2133	0.2008	0.0136
318.15	0.2043	0.2059	0.0121
318.15	0.1922	0.2143	0.0137
318.15	0.1846	0.2196	0.0132
318.15	0.1727	0.2272	0.013
318.15	0.157	0.2378	0.0138
318.15	0.1369	0.2532	0.0128
328.15	0.7008	0.0291	0.0101
328.15	0.6724	0.033	0.0102
328.15	0.6323	0.0413	0.0103
328.15	0.6047	0.0482	0.0104
328.15	0.5804	0.0542	0.0104
328.15	0.5511	0.062	0.0105
328.15	0.5364	0.0665	0.0106
328.15	0.5245	0.0703	0.0106
328.15	0.503	0.0766	0.0107
328.15	0.485	0.0826	0.0109
328.15	0.4574	0.0938	0.0111
328.15	0.4524	0.0959	0.0111
328.15	0.4356	0.1024	0.0113
328.15	0.4172	0.1103	0.0114
328.15	0.4185	0.1105	0.0114
328.15	0.4039	0.1168	0.0114
328.15	0.3882	0.1229	0.0114
328.15	0.3731	0.1298	0.0117
328.15	0.3527	0.1401	0.0118
328.15	0.3457	0.1437	0.0119
328.15	0.3239	0.1541	0.0119
328.15	0.3031	0.1639	0.0121
328.15	0.2895	0.1715	0.0123
328.15	0.2787	0.1768	0.0123
328.15	0.2621	0.1858	0.0126
328.15	0.2456	0.1953	0.0126
328.15	0.2324	0.2014	0.0126
328.15	0.2187	0.2089	0.0128
328.15	0.2046	0.2166	0.013
328.15	0.1928	0.2234	0.0133
328.15	0.1795	0.2319	0.0137
328.15	0.1672	0.2404	0.0137
328.15	0.1544	0.2483	0.0139
328.15	0.1429	0.2564	0.0142
328.15	0.1285	0.2663	0.0144
328.15	0.1166	0.2754	0.015
328.15	0.1015	0.2878	0.0153
328.15	0.088	0.2989	0.0157
328.15	0.0775	0.3086	0.0168
328.15	0.0697	0.3171	0.0169
328.15	0.0555	0.3323	0.0185
328.15	0.0465	0.3438	0.0189
328.15	0.0382	0.3559	0.0206
328.15	0.0336	0.3635	0.0224
328.15	0.0279	0.3741	0.0229
328.15	0.0232	0.384	0.0246

System: 1-ethylpyridinium tetrafluoroborate + ammonium 2-hydroxypropane-1,2,3-tricarboxylate + water; phases: Liquid mixture 1, Liquid mixture 2
Fixed: Pressure, kPa = 100
Property: Mass fraction of ammonium 2-hydroxypropane-1,2,3-tricarboxylate (Liquid mixture 1); method: Titration method
Temperature, K	Mass fraction of 1-ethylpyridinium tetrafluoroborate	Mass fraction of ammonium 2-hydroxypropane-1,2,3-tricarboxylate	uncertainty
308.15	0.694	0.0252	0.0101
308.15	0.6495	0.0322	0.0102
308.15	0.5636	0.0484	0.0104
308.15	0.5452	0.0527	0.0104
308.15	0.4998	0.0645	0.0105
308.15	0.4769	0.0714	0.0107
308.15	0.4555	0.079	0.0109
308.15	0.4443	0.084	0.0111
308.15	0.4325	0.0884	0.0111
308.15	0.4242	0.0914	0.0111
308.15	0.4108	0.0974	0.0112
308.15	0.4032	0.1005	0.0112
308.15	0.3964	0.1034	0.0113
308.15	0.3868	0.1069	0.0113
308.15	0.3803	0.1105	0.0113
308.15	0.3702	0.1144	0.0112
308.15	0.3576	0.1192	0.0115
308.15	0.3489	0.1241	0.0115
308.15	0.3385	0.1285	0.0116
308.15	0.3337	0.1298	0.0116
308.15	0.3311	0.1318	0.0115
308.15	0.3235	0.136	0.0119
308.15	0.3167	0.1383	0.0118
308.15	0.3103	0.1419	0.0118
308.15	0.3033	0.1457	0.0121
308.15	0.293	0.1509	0.0117
308.15	0.2891	0.1521	0.0118
308.15	0.2807	0.1557	0.0118
308.15	0.2757	0.1585	0.0124
308.15	0.2706	0.1609	0.0126
308.15	0.2676	0.1616	0.0125
308.15	0.2581	0.1697	0.0128
308.15	0.2492	0.1741	0.013
308.15	0.239	0.1809	0.0129
308.15	0.2348	0.1834	0.0131
308.15	0.226	0.189	0.0134
308.15	0.2167	0.1956	0.0135
308.15	0.1984	0.2097	0.0137
308.15	0.1911	0.2149	0.0139
308.15	0.1869	0.2169	0.0138
308.15	0.1835	0.2198	0.0138
308.15	0.1735	0.2277	0.0144
308.15	0.1694	0.2337	0.0145
308.15	0.1533	0.2445	0.0155
308.15	0.1459	0.2544	0.0155
308.15	0.1341	0.2675	0.0167
318.15	0.772	0.0168	0.0101
318.15	0.7603	0.018	0.0101
318.15	0.739	0.0199	0.0101
318.15	0.6959	0.026	0.0101
318.15	0.6753	0.0293	0.0102
318.15	0.6303	0.0376	0.0102
318.15	0.6011	0.043	0.0102
318.15	0.5732	0.0481	0.0103
318.15	0.5533	0.0521	0.0104
318.15	0.5307	0.0581	0.0105
318.15	0.5091	0.0636	0.0106
318.15	0.4863	0.0709	0.0107
318.15	0.4656	0.0772	0.0108
318.15	0.4428	0.0862	0.0111
318.15	0.4328	0.0908	0.0112
318.15	0.4197	0.096	0.0111
318.15	0.4136	0.0989	0.0111
318.15	0.4044	0.1023	0.0112
318.15	0.3897	0.1082	0.0114
318.15	0.3779	0.1142	0.0115
318.15	0.366	0.1192	0.0114
318.15	0.3593	0.1212	0.0113
318.15	0.35	0.1261	0.0114
318.15	0.343	0.1286	0.0117
318.15	0.3354	0.1318	0.0117
318.15	0.3219	0.1397	0.0119
318.15	0.3165	0.1417	0.0118
318.15	0.3083	0.1454	0.0117
318.15	0.2974	0.1506	0.0117
318.15	0.285	0.1559	0.0119
318.15	0.2698	0.1638	0.0124
318.15	0.2563	0.1722	0.013
318.15	0.2444	0.1798	0.0126
318.15	0.2369	0.1841	0.0132
318.15	0.2266	0.1916	0.0133
318.15	0.2179	0.1972	0.0138
318.15	0.2128	0.2014	0.0137
318.15	0.21	0.2056	0.0138
318.15	0.2026	0.2102	0.0144
318.15	0.2018	0.2132	0.0143
318.15	0.1934	0.2182	0.0142
318.15	0.1867	0.224	0.0147
318.15	0.1801	0.2295	0.0157
318.15	0.1763	0.2355	0.0163
318.15	0.173	0.2392	0.0164
318.15	0.168	0.2457	0.0167
318.15	0.1648	0.2475	0.0164
318.15	0.1554	0.2588	0.0161
318.15	0.1505	0.2637	0.0165
318.15	0.1431	0.2711	0.016
318.15	0.1375	0.2768	0.0168
318.15	0.1365	0.2778	0.0168
318.15	0.1295	0.2853	0.0163
318.15	0.1243	0.2909	0.0179
318.15	0.1188	0.297	0.0176
318.15	0.1041	0.3193	0.0185
318.15	0.0831	0.3472	0.0177
318.15	0.0673	0.3712	0.022
318.15	0.0673	0.3712	0.022
318.15	0.0588	0.3857	0.0217
318.15	0.0588	0.3857	0.0217
318.15	0.0505	0.4012	0.0234
318.15	0.0505	0.4012	0.0234
328.15	0.7773	0.0172	0.0101
328.15	0.7233	0.023	0.0101
328.15	0.4652	0.079	0.011
328.15	0.4454	0.0867	0.0111
328.15	0.4028	0.1048	0.0114
328.15	0.3986	0.1066	0.0114
328.15	0.3785	0.1175	0.0116
328.15	0.3708	0.1201	0.0116
328.15	0.3615	0.1247	0.0116
328.15	0.3531	0.1285	0.0118
328.15	0.3434	0.1339	0.012
328.15	0.335	0.138	0.012
328.15	0.3313	0.1413	0.0119
328.15	0.3181	0.1469	0.0119
328.15	0.3106	0.1507	0.0119
328.15	0.3027	0.1551	0.012
328.15	0.2906	0.1608	0.0122
328.15	0.2806	0.1667	0.0121
328.15	0.2701	0.1711	0.0131
328.15	0.2653	0.1766	0.013
328.15	0.2513	0.1864	0.0136
328.15	0.2348	0.1996	0.0138
328.15	0.2281	0.2042	0.0139
328.15	0.2191	0.2111	0.0142
328.15	0.2134	0.2157	0.0142
328.15	0.2055	0.2234	0.015
328.15	0.1987	0.228	0.0151
328.15	0.1846	0.2427	0.0159
328.15	0.1722	0.2551	0.0162
328.15	0.1582	0.2705	0.0181
328.15	0.1468	0.2883	0.0189
328.15	0.1332	0.3052	0.0181
328.15	0.119	0.3227	0.0181
328.15	0.1029	0.3417	0.0216
328.15	0.0929	0.367	0.0259
328.15	0.0848	0.3863	0.0288
328.15	0.0761	0.4	0.0248
