Measured thermophysical data. Isobaric Heat Capacity Measurements of Supercritical R1234yf
Source: J. Chem. Eng. Data, 2018, 10.1021/acs.jced.7b00946
Compound 1: 2,3,3,3-tetrafluoro-1-propene, C3H2F4, InChI=1S/C3H2F4/c1-2(4)3(5,6)7/h1H2, purity 99.99%

System: 2,3,3,3-tetrafluoro-1-propene; phases: Gas
Property: Molar heat capacity at constant pressure, J/K/mol (Gas); method: Flow calorimetry
Temperature, K	Pressure, kPa	Molar heat capacity at constant pressure, J/K/mol	uncertainty
373.15	3498	410.54973408	52.459132688
373.15	4114	394.583911088	29.650814128
373.15	4160	387.74141552	25.089150416
373.15	4441	288.525229784	18.246654848
373.15	4642	273.69982272	14.825407064
373.15	4921	245.18942452	12.544575208
373.15	5047	238.346928952	11.40415928
373.15	5955	210.97694668	10.263743352
373.15	6023	210.97694668	10.263743352
373.15	8021	188.16862812	9.123327424
373.15	8024	188.16862812	9.123327424
373.15	8020	187.028212192	9.123327424
393.15	4039	218.959858176	12.544575208
393.15	4040	217.819442248	12.544575208
393.15	4943	345.546026184	17.10623892
393.15	4944	339.843946544	17.10623892
393.15	5417	322.737707624	15.965822992
393.15	5417	322.737707624	15.965822992
393.15	5958	278.261486432	14.825407064
393.15	6022	275.980654576	26.229566344
393.15	7949	205.27486704	10.263743352
393.15	8043	205.27486704	10.263743352
393.15	10032	188.16862812	9.123327424
393.15	10032	188.16862812	9.123327424
413.15	4015	173.343221056	9.123327424
413.15	4989	207.555698896	10.263743352
413.15	5045	208.696114824	10.263743352
413.15	6037	244.049008592	11.40415928
413.15	6963	245.18942452	11.40415928
413.15	6965	241.768176736	11.40415928
413.15	8042	228.0831856	11.40415928
413.15	8043	228.0831856	11.40415928
413.15	10030	201.853619256	10.263743352
