Measured thermophysical data. Salt Effect on the Liquid-Liquid Equilibrium for the Water-Ethylene Glycol-Ethylene Glycol Diacetate System
Source: J. Chem. Eng. Data, 2019, 10.1021/acs.jced.8b01248
Compound 1: 1,2-ethanediol, C2H6O2, InChI=1S/C2H6O2/c3-1-2-4/h3-4H,1-2H2, purity 99%
Compound 2: ethylene diacetate, C6H10O4, InChI=1S/C6H10O4/c1-5(7)9-3-4-10-6(2)8/h3-4H2,1-2H3, purity 99%
Compound 3: sodium chloride, ClNa, InChI=1S/ClH.Na/h1H;/q;+1/p-1, purity 99%
Compound 4: calcium chloride, CaCl2, InChI=1S/Ca.2ClH/h;2*1H/q+2;;/p-2, purity 99%
Compound 5: potassium chloride, ClK, InChI=1S/ClH.K/h1H;/q;+1/p-1, purity 99%
Compound 6: water, H2O, InChI=1S/H2O/h1H2, purity 99.8%

System: water + 1,2-ethanediol + ethylene diacetate; phases: Liquid mixture 2, Liquid mixture 1
Fixed: Temperature, K = 303.2
Fixed: Pressure, kPa = 101.3
Property: Mass fraction of water (Liquid mixture 2); method: Chromatography
Property: Mass fraction of water (Liquid mixture 1); method: Chromatography
Property: Mass fraction of 1,2-ethanediol (Liquid mixture 1); method: Chromatography
Mass fraction of 1,2-ethanediol	Mass fraction of water	uncertainty	Mass fraction of water	uncertainty	Mass fraction of 1,2-ethanediol	uncertainty
0	0.0831	0.01	0.8354	0.0101	0	
0.0075	0.0846	0.01	0.7698	0.0138	0.0689	
0.0142	0.0849	0.01	0.7122	0.0138	0.1317	
0.0196	0.0859	0.01	0.6693	0.0139	0.1762	
0.0251	0.0864	0.01	0.6318	0.0132	0.2177	
0.0331	0.0866	0.01	0.5762	0.0133	0.2888	
0.0384	0.0868	0.01	0.5341	0.014	0.3358	
0.0396	0.0878	0.01	0.5037	0.0142	0.3678	
0.0409	0.0902	0.01	0.4849	0.0141	0.3881	

System: water + ethylene diacetate + sodium chloride; phases: Liquid mixture 2, Liquid mixture 1
Fixed: Temperature, K = 303.2
Fixed: Pressure, kPa = 101.3
Property: Mass fraction of water (Liquid mixture 2); method: Chromatography
Property: Mass fraction of water (Liquid mixture 1); method: Chromatography
Property: Mass fraction of ethylene diacetate (Liquid mixture 1); method: Chromatography
Mass fraction of ethylene diacetate	Mass fraction of water	uncertainty	Mass fraction of water	uncertainty	Mass fraction of ethylene diacetate	uncertainty
0.9169	0.0831	0.015	0.8354	0.0106	0.1646	
0.9416	0.0556	0.0149	0.856	0.0102	0.1012	
0.9623	0.0328	0.0149	0.8138	0.0136	0.0641	
0.9705	0.0244	0.0147	0.8006	0.0114	0.0393	

System: water + ethylene diacetate + calcium chloride; phases: Liquid mixture 2, Liquid mixture 1
Property: Mass fraction of water (Liquid mixture 2); method: Chromatography
Property: Mass fraction of water (Liquid mixture 1); method: Chromatography
Property: Mass fraction of ethylene diacetate (Liquid mixture 1); method: Chromatography
Temperature, K	Mass fraction of ethylene diacetate	Pressure, kPa	Mass fraction of water	uncertainty	Mass fraction of water	uncertainty	Mass fraction of ethylene diacetate	uncertainty
303.2	0.9693	101.3	0.0256	0.01	0.7853	0.0101	0.0576	

System: water + ethylene diacetate + potassium chloride; phases: Liquid mixture 2, Liquid mixture 1
Property: Mass fraction of water (Liquid mixture 2); method: Chromatography
Property: Mass fraction of water (Liquid mixture 1); method: Chromatography
Property: Mass fraction of ethylene diacetate (Liquid mixture 1); method: Chromatography
Temperature, K	Mass fraction of ethylene diacetate	Pressure, kPa	Mass fraction of water	uncertainty	Mass fraction of water	uncertainty	Mass fraction of ethylene diacetate	uncertainty
303.2	0.9523	101.3	0.0398	0.01	0.7803	0.0101	0.0636	

System: water + ethylene diacetate; phases: Liquid mixture 1, Liquid mixture 2
Property: Mass fraction of water (Liquid mixture 1); method: Chromatography
Temperature, K	Pressure, kPa	Mass fraction of water	uncertainty
303.2	101.3	0.8354	0.0101

System: water + ethylene diacetate; phases: Liquid mixture 2, Liquid mixture 1
Property: Mass fraction of water (Liquid mixture 2); method: Chromatography
Temperature, K	Pressure, kPa	Mass fraction of water	uncertainty
303.2	101.3	0.0831	0.01
