Measured thermophysical data. Thermodynamic Solubility and Mixing Properties of Phenformin in 14 Pure Solvents at Temperatures Ranging from 278.15 to 323.15 K
Source: J. Chem. Eng. Data, 2019, 10.1021/acs.jced.9b00844
Compound 1: N-(2-phenylethyl)imidodicarbonimidic diamide, C10H15N5, InChI=1S/C10H15N5/c11-9(12)15-10(13)14-7-6-8-4-2-1-3-5-8/h1-5H,6-7H2,(H6,11,12,13,14,15), purity 98.1%
Compound 2: methanol, CH4O, InChI=1S/CH4O/c1-2/h2H,1H3, purity 99.5%
Compound 3: ethanol, C2H6O, InChI=1S/C2H6O/c1-2-3/h3H,2H2,1H3, purity 99.7%
Compound 4: propan-1-ol, C3H8O, InChI=1S/C3H8O/c1-2-3-4/h4H,2-3H2,1H3, purity 99.4%
Compound 5: propan-2-ol, C3H8O, InChI=1S/C3H8O/c1-3(2)4/h3-4H,1-2H3, purity 99.7%
Compound 6: 1,2-ethanediol, C2H6O2, InChI=1S/C2H6O2/c3-1-2-4/h3-4H,1-2H2, purity 99.5%
Compound 7: ethyl acetate, C4H8O2, InChI=1S/C4H8O2/c1-3-6-4(2)5/h3H2,1-2H3, purity 99.7%
Compound 8: acetonitrile, C2H3N, InChI=1S/C2H3N/c1-2-3/h1H3, purity 99.4%
Compound 9: N-methylpyrrolidone, C5H9NO, InChI=1S/C5H9NO/c1-6-4-2-3-5(6)7/h2-4H2,1H3, purity 99.5%
Compound 10: butan-1-ol, C4H10O, InChI=1S/C4H10O/c1-2-3-4-5/h5H,2-4H2,1H3, purity 99.6%
Compound 11: dimethylformamide, C3H7NO, InChI=1S/C3H7NO/c1-4(2)3-5/h3H,1-2H3, purity 99.5%
Compound 12: 2-methyl-1-propanol, C4H10O, InChI=1S/C4H10O/c1-4(2)3-5/h4-5H,3H2,1-2H3, purity 99.5%
Compound 13: dimethyl sulfoxide, C2H6OS, InChI=1S/C2H6OS/c1-4(2)3/h1-2H3, purity 99.6%
Compound 14: 1,4-dioxane, C4H8O2, InChI=1S/C4H8O2/c1-2-6-4-3-5-1/h1-4H2, purity 99.5%
Compound 15: water, H2O, InChI=1S/H2O/h1H2, purity 99.9%

System: N-(2-phenylethyl)imidodicarbonimidic diamide; phases: Crystal, Liquid, Air at 1 atmosphere
Property: Triple point temperature, K (Crystal); method: DSC
Triple point temperature, K	uncertainty
446.85	1.22

System: N-(2-phenylethyl)imidodicarbonimidic diamide; phases: Crystal, Liquid, Air at 1 atmosphere
Property: Molar enthalpy of transition or fusion, kJ/mol (Crystal); method: DSC
Molar enthalpy of transition or fusion, kJ/mol	uncertainty
11.63	0.75

System: N-(2-phenylethyl)imidodicarbonimidic diamide + methanol; phases: Liquid, Crystal
Fixed: Pressure, kPa = 101.2
Property: Mole fraction of N-(2-phenylethyl)imidodicarbonimidic diamide (Liquid); method: Chromatography
Temperature, K	Mole fraction of N-(2-phenylethyl)imidodicarbonimidic diamide	uncertainty
278.15	0.002371	0.000128
283.15	0.002803	0.000152
288.15	0.003276	0.000177
293.15	0.003851	0.000208
298.15	0.004572	0.000247
303.15	0.005324	0.000288
308.15	0.006227	0.000337
313.15	0.007433	0.000402
318.15	0.008226	0.000445
323.15	0.01035	0.00056

System: N-(2-phenylethyl)imidodicarbonimidic diamide + ethanol; phases: Liquid, Crystal
Fixed: Pressure, kPa = 101.2
Property: Mole fraction of N-(2-phenylethyl)imidodicarbonimidic diamide (Liquid); method: Chromatography
Temperature, K	Mole fraction of N-(2-phenylethyl)imidodicarbonimidic diamide	uncertainty
278.15	0.001832	9.9e-05
283.15	0.002205	0.000119
288.15	0.002661	0.000144
293.15	0.003222	0.000174
298.15	0.003778	0.000204
303.15	0.004485	0.000242
308.15	0.005241	0.000283
313.15	0.006142	0.000332
318.15	0.007226	0.000391
323.15	0.008474	0.000458

System: N-(2-phenylethyl)imidodicarbonimidic diamide + propan-1-ol; phases: Liquid, Crystal
Fixed: Pressure, kPa = 101.2
Property: Mole fraction of N-(2-phenylethyl)imidodicarbonimidic diamide (Liquid); method: Chromatography
Temperature, K	Mole fraction of N-(2-phenylethyl)imidodicarbonimidic diamide	uncertainty
278.15	0.0009751	5.27e-05
283.15	0.001163	6.3e-05
288.15	0.001372	7.4e-05
293.15	0.001728	9.3e-05
298.15	0.002084	0.000113
303.15	0.002495	0.000135
308.15	0.002896	0.000157
313.15	0.003411	0.000184
318.15	0.003956	0.000214
323.15	0.004523	0.000244

System: N-(2-phenylethyl)imidodicarbonimidic diamide + propan-2-ol; phases: Liquid, Crystal
Fixed: Pressure, kPa = 101.2
Property: Mole fraction of N-(2-phenylethyl)imidodicarbonimidic diamide (Liquid); method: Chromatography
Temperature, K	Mole fraction of N-(2-phenylethyl)imidodicarbonimidic diamide	uncertainty
278.15	0.0008138	4.4e-05
283.15	0.000976	5.28e-05
288.15	0.001182	6.4e-05
293.15	0.001416	7.7e-05
298.15	0.001743	9.4e-05
303.15	0.002081	0.000112
308.15	0.002465	0.000133
313.15	0.002883	0.000156
318.15	0.003337	0.00018
323.15	0.003829	0.000207

System: N-(2-phenylethyl)imidodicarbonimidic diamide + 1,2-ethanediol; phases: Liquid, Crystal
Fixed: Pressure, kPa = 101.2
Property: Mole fraction of N-(2-phenylethyl)imidodicarbonimidic diamide (Liquid); method: Chromatography
Temperature, K	Mole fraction of N-(2-phenylethyl)imidodicarbonimidic diamide	uncertainty
278.15	0.003302	0.000178
283.15	0.003662	0.000198
288.15	0.004174	0.000226
293.15	0.004813	0.00026
298.15	0.005671	0.000307
303.15	0.006768	0.000366
308.15	0.007743	0.000419
313.15	0.009186	0.000497
318.15	0.01097	0.00059
323.15	0.01279	0.00069

System: N-(2-phenylethyl)imidodicarbonimidic diamide + ethyl acetate; phases: Liquid, Crystal
Fixed: Pressure, kPa = 101.2
Property: Mole fraction of N-(2-phenylethyl)imidodicarbonimidic diamide (Liquid); method: Chromatography
Temperature, K	Mole fraction of N-(2-phenylethyl)imidodicarbonimidic diamide	uncertainty
278.15	0.001567	8.5e-05
283.15	0.001836	9.9e-05
288.15	0.002204	0.000119
293.15	0.002653	0.000143
298.15	0.003178	0.000172
303.15	0.003786	0.000205
308.15	0.004454	0.000241
313.15	0.005213	0.000282
318.15	0.006031	0.000326
323.15	0.006952	0.000376

System: N-(2-phenylethyl)imidodicarbonimidic diamide + acetonitrile; phases: Liquid, Crystal
Fixed: Pressure, kPa = 101.2
Property: Mole fraction of N-(2-phenylethyl)imidodicarbonimidic diamide (Liquid); method: Chromatography
Temperature, K	Mole fraction of N-(2-phenylethyl)imidodicarbonimidic diamide	uncertainty
278.15	0.0002115	1.14e-05
283.15	0.0002597	1.4e-05
288.15	0.0003218	1.74e-05
293.15	0.0003979	2.15e-05
298.15	0.0004941	2.67e-05
303.15	0.000596	3.22e-05
308.15	0.0007096	3.84e-05
313.15	0.0008401	4.54e-05
318.15	0.001014	5.5e-05
323.15	0.001193	6.4e-05

System: N-(2-phenylethyl)imidodicarbonimidic diamide + N-methylpyrrolidone; phases: Liquid, Crystal
Fixed: Pressure, kPa = 101.2
Property: Mole fraction of N-(2-phenylethyl)imidodicarbonimidic diamide (Liquid); method: Chromatography
Temperature, K	Mole fraction of N-(2-phenylethyl)imidodicarbonimidic diamide	uncertainty
278.15	0.01134	0.00061
283.15	0.01399	0.00076
288.15	0.017	0.00092
293.15	0.02019	0.00109
298.15	0.02352	0.00127
303.15	0.02804	0.00152
308.15	0.03368	0.00182
313.15	0.04093	0.00221
318.15	0.04856	0.00263
323.15	0.05792	0.00313

System: N-(2-phenylethyl)imidodicarbonimidic diamide + butan-1-ol; phases: Liquid, Crystal
Fixed: Pressure, kPa = 101.2
Property: Mole fraction of N-(2-phenylethyl)imidodicarbonimidic diamide (Liquid); method: Chromatography
Temperature, K	Mole fraction of N-(2-phenylethyl)imidodicarbonimidic diamide	uncertainty
278.15	0.0006269	3.39e-05
283.15	0.0007775	4.2e-05
288.15	0.0009233	4.99e-05
293.15	0.001175	6.4e-05
298.15	0.001423	7.7e-05
303.15	0.001665	9e-05
308.15	0.001937	0.000105
313.15	0.002274	0.000123
318.15	0.002651	0.000143
323.15	0.003076	0.000166

System: N-(2-phenylethyl)imidodicarbonimidic diamide + dimethylformamide; phases: Liquid, Crystal
Fixed: Pressure, kPa = 101.2
Property: Mole fraction of N-(2-phenylethyl)imidodicarbonimidic diamide (Liquid); method: Chromatography
Temperature, K	Mole fraction of N-(2-phenylethyl)imidodicarbonimidic diamide	uncertainty
278.15	0.01581	0.00085
283.15	0.01914	0.00103
288.15	0.02256	0.00122
293.15	0.02556	0.00138
298.15	0.03034	0.00164
303.15	0.03528	0.00191
308.15	0.04111	0.00222
313.15	0.04909	0.00265
318.15	0.05794	0.00313
323.15	0.06547	0.00354

System: N-(2-phenylethyl)imidodicarbonimidic diamide + 2-methyl-1-propanol; phases: Liquid, Crystal
Fixed: Pressure, kPa = 101.2
Property: Mole fraction of N-(2-phenylethyl)imidodicarbonimidic diamide (Liquid); method: Chromatography
Temperature, K	Mole fraction of N-(2-phenylethyl)imidodicarbonimidic diamide	uncertainty
278.15	0.000518	2.8e-05
283.15	0.0006302	3.41e-05
288.15	0.0007919	4.28e-05
293.15	0.0009503	5.14e-05
298.15	0.001163	6.3e-05
303.15	0.001391	7.5e-05
308.15	0.001665	9e-05
313.15	0.001968	0.000106
318.15	0.002294	0.000124
323.15	0.002645	0.000143

System: N-(2-phenylethyl)imidodicarbonimidic diamide + water; phases: Liquid, Crystal
Fixed: Pressure, kPa = 101.2
Property: Mole fraction of N-(2-phenylethyl)imidodicarbonimidic diamide (Liquid); method: Chromatography
Temperature, K	Mole fraction of N-(2-phenylethyl)imidodicarbonimidic diamide	uncertainty
278.15	0.0003887	2.1e-05
283.15	0.0004813	2.6e-05
288.15	0.0005855	3.17e-05
293.15	0.0007391	4e-05
298.15	0.0008879	4.8e-05
303.15	0.001071	5.8e-05
308.15	0.001263	6.8e-05
313.15	0.001476	8e-05
318.15	0.001745	9.4e-05
323.15	0.002062	0.000111

System: N-(2-phenylethyl)imidodicarbonimidic diamide + dimethyl sulfoxide; phases: Liquid, Crystal
Fixed: Pressure, kPa = 101.2
Property: Mole fraction of N-(2-phenylethyl)imidodicarbonimidic diamide (Liquid); method: Chromatography
Temperature, K	Mole fraction of N-(2-phenylethyl)imidodicarbonimidic diamide	uncertainty
293.15	0.02175	0.00118
298.15	0.02497	0.00135
303.15	0.03051	0.00165
308.15	0.03592	0.00194
313.15	0.04308	0.00233
318.15	0.05085	0.00275
323.15	0.06028	0.00326

System: N-(2-phenylethyl)imidodicarbonimidic diamide + 1,4-dioxane; phases: Liquid, Crystal
Fixed: Pressure, kPa = 101.2
Property: Mole fraction of N-(2-phenylethyl)imidodicarbonimidic diamide (Liquid); method: Chromatography
Temperature, K	Mole fraction of N-(2-phenylethyl)imidodicarbonimidic diamide	uncertainty
288.15	0.0001657	9e-06
293.15	0.0002019	1.09e-05
298.15	0.0002488	1.35e-05
303.15	0.0003117	1.69e-05
308.15	0.0003789	2.05e-05
313.15	0.0004599	2.49e-05
318.15	0.0005512	2.98e-05
323.15	0.0006499	3.51e-05
