Measured thermophysical data. Heat of Absorption of CO2 and Heat Capacity Measurements in Aqueous Solutions of Benzylamine, N-(2-Aminoethyl)-ethanolamine, and Their Blends Using a Reaction Calorimeter
Source: J. Chem. Eng. Data, 2019, 10.1021/acs.jced.9b00205
Compound 1: benzylamine, C7H9N, InChI=1S/C7H9N/c8-6-7-4-2-1-3-5-7/h1-5H,6,8H2, purity 99%
Compound 2: N-(2-aminoethyl)ethanolamine, C4H12N2O, InChI=1S/C4H12N2O/c5-1-2-6-3-4-7/h6-7H,1-5H2, purity 99%
Compound 3: carbon dioxide, CO2, InChI=1S/CO2/c2-1-3, purity 99.9%
Compound 4: water, H2O, InChI=1S/H2O/h1H2, purity 99.8%

System: water; phases: Liquid
Fixed: Pressure, kPa = 100
Property: Molar heat capacity at constant pressure, J/K/mol (Liquid); method: Closed cup calorimetry 
Temperature, K	Molar heat capacity at constant pressure, J/K/mol	uncertainty
304.15	75.08768704	7.53038704
314.15	75.17776344	7.54840232
324.15	75.26783984	7.54840232
334.15	75.32188568	7.5664176
344.15	75.3939468	7.5664176

System: carbon dioxide + benzylamine + water; phases: Liquid, Gas
Property: Partial molar enthalpy, kJ/mol of carbon dioxide (Liquid); method: isoperibol calorimeter
Solvent: Molality, mol/kg of benzylamine	Temperature, K	Mole fraction of carbon dioxide	Partial molar enthalpy, kJ/mol of carbon dioxide	uncertainty
0.49	313.15	0.0026	-84.6	8.5
0.49	313.15	0.0051	-66.9	6.7
0.49	313.15	0.0068	-38.7	3.9
0.49	313.15	0.0084	-24	2.4
0.49	313.15	0.0099	-18	1.8
0.49	313.15	0.0109	-7.5	0.8
0.49	323.15	0.0028	-81.4	8.1
0.49	323.15	0.0057	-66.3	6.6
0.49	323.15	0.0072	-40.5	4.1
0.49	323.15	0.0087	-22.7	2.3
0.49	323.15	0.0102	-9.5	1
0.49	323.15	0.0115	-4.7	0.5
0.49	333.15	0.0025	-82.9	8.3
0.49	333.15	0.0059	-73	7.3
0.49	333.15	0.0082	-62.5	6.3
0.49	333.15	0.01	-20.5	2.1
1.04	313.15	0.0156	-25.6	2.6
1.04	313.15	0.0172	-19	1.9
1.04	313.15	0.0185	-12	1.2
1.04	323.15	0.0052	-86.7	8.7
1.04	323.15	0.0102	-74.7	7.5
1.04	323.15	0.0132	-46.9	4.7
1.04	323.15	0.0152	-23.1	2.3
1.04	323.15	0.0167	-14.8	1.5
1.04	333.15	0.0047	-86.8	8.7
1.04	333.15	0.0091	-83.2	8.3
1.04	333.15	0.0119	-83.3	8.3
1.04	333.15	0.0139	-35.2	3.5
1.04	333.15	0.0155	-20.2	2
1.04	313.15	0.005	-84.5	8.5
1.04	313.15	0.01	-73.4	7.3
1.04	313.15	0.0136	-42.2	4.2
1.04	343.15	0.0129	-36.2	3.6
1.04	343.15	0.0143	-23.7	2.4
1.04	343.15	0.0043	-91.5	9.2
1.04	343.15	0.0083	-88.7	8.9
1.04	343.15	0.011	-87.7	8.8
2.33	323.15	0.0267	-25.1	2.5
2.33	323.15	0.0279	-23.2	2.3
2.33	313.15	0.0061	-85.4	8.5
2.33	313.15	0.0123	-84.5	8.5
2.33	313.15	0.0183	-80.2	8
2.33	313.15	0.0228	-57.8	5.8
2.33	313.15	0.026	-34.2	3.4
2.33	313.15	0.0279	-26	2.6
2.33	333.15	0.006	-85.3	8.5
2.33	333.15	0.012	-86.5	8.7
2.33	333.15	0.0176	-84.6	8.5
2.33	333.15	0.022	-76.6	7.7
2.33	333.15	0.0249	-65.7	6.6
2.33	333.15	0.0269	-19.1	1.9
2.33	333.15	0.0287	-14.2	1.4
2.33	313.15	0.0295	-21.3	2.1
2.33	323.15	0.006	-84.9	8.5
2.33	323.15	0.0119	-83.8	8.4
2.33	343.15	0.023	-83.6	8.4
2.33	343.15	0.0252	-56	5.6
2.33	343.15	0.0063	-87.3	8.7
2.33	343.15	0.0125	-90.2	9
2.33	343.15	0.019	-89.9	9
2.33	323.15	0.0177	-79.6	8
2.33	323.15	0.0223	-63.7	6.4
2.33	323.15	0.0252	-37.3	3.7
4	333.15	0.0356	-62.8	6.3
4	333.15	0.0379	-36	3.6
4	333.15	0.0392	-31.2	3.1
4	323.15	0.039	-22.5	2.3
4	323.15	0.04	-13.1	1.3
4	313.15	0.0102	-88.7	8.9
4	313.15	0.0204	-84.5	8.5
4	313.15	0.0302	-80.1	8
4	313.15	0.0369	-53.9	5.4
4	333.15	0.0066	-86.1	8.6
4	323.15	0.0317	-78.4	7.8
4	323.15	0.0356	-60.2	6
4	323.15	0.0377	-42.9	4.3
4	333.15	0.0132	-85	8.5
4	333.15	0.0198	-82.9	8.3
4	333.15	0.0261	-82.6	8.3
4	343.15	0.0364	-52.4	5.2
4	343.15	0.0379	-24.7	2.5
4	343.15	0.0198	-83	8.3
4	343.15	0.0067	-86.3	8.6
4	343.15	0.0133	-85.6	8.6
4	343.15	0.026	-85.5	8.6
4	313.15	0.0392	-24	2.4
4	343.15	0.0312	-78.1	7.8
4	343.15	0.0346	-60.4	6
4	313.15	0.0403	-8.2	0.8
4	323.15	0.0065	-84.3	8.4
4	323.15	0.0131	-85	8.5
4	323.15	0.0195	-84.7	8.5
4	323.15	0.0258	-82.4	8.2
4	333.15	0.0317	-75.6	7.6

System: carbon dioxide + benzylamine + water; phases: Liquid, Gas
Property: Mole fraction of carbon dioxide (Liquid); method: Phase equilibration
Temperature, K	Solvent: Molality, mol/kg of benzylamine	Pressure, kPa of carbon dioxide	Mole fraction of carbon dioxide	uncertainty
313.15	4	4.0748	0.1509	0.1347
313.15	4	5.5089	0.3053	0.0989
313.15	4	8.6322	0.4567	0.1018
313.15	4	51.89	0.5618	0.0283
313.15	4	97.588	0.5984	0.0256
313.15	4	168.44	0.6166	0.0244
323.15	4	3.03	0.096	0.206
323.15	4	4.27	0.194	0.073
323.15	4	4.94	0.292	0.072
323.15	4	6.08	0.388	0.072
323.15	4	13.37	0.48	0.04
323.15	4	43	0.542	0.03
323.15	4	82.63	0.576	0.027
323.15	4	118.65	0.596	0.026
323.15	4	146.73	0.612	0.025
333.15	4	3.97	0.097	0.021
333.15	4	6.21	0.197	0.15
333.15	4	5.94	0.297	0.074
333.15	4	8.57	0.393	0.177
333.15	4	23.48	0.48	0.031
333.15	4	70.64	0.542	0.03
333.15	4	132.52	0.579	0.027
333.15	4	171.36	0.598	0.026
343.15	4	1.19	0.099	0.078
343.15	4	1.5	0.197	0.063
343.15	4	2.36	0.297	0.056
343.15	4	8.95	0.391	0.038
343.15	4	35.6	0.473	0.032
343.15	4	90.3	0.527	0.031
343.15	4	142.52	0.555	0.029
343.15	4	177.91	0.579	0.027
313.15	2.33	4.25	0.151	0.182
313.15	2.33	5.64	0.304	0.044
313.15	2.33	7.1	0.457	0.143
313.15	2.33	25.71	0.573	0.028
313.15	2.33	80.45	0.654	0.03
313.15	2.33	130.55	0.702	0.021
313.15	2.33	175.45	0.743	0.029
323.15	2.33	5.27	0.149	0.086
323.15	2.33	6.86	0.296	0.056
323.15	2.33	9.76	0.44	0.075
323.15	2.33	37.2	0.56	0.029
323.15	2.33	103.93	0.634	0.024
323.15	2.33	158.28	0.673	0.022
323.15	2.33	202.46	0.703	0.02
333.15	2.33	5.35	0.148	0.072
333.15	2.33	7.42	0.296	0.049
333.15	2.33	13.76	0.44	0.051
333.15	2.33	51.54	0.55	0.03
333.15	2.33	131.83	0.626	0.026
333.15	2.33	202.94	0.676	0.021
333.15	2.33	230.02	0.724	0.019
343.15	2.33	3.9	0.156	0.09
343.15	2.33	7.01	0.31	0.081
343.15	2.33	30.11	0.475	0.031
343.15	2.33	111.24	0.577	0.027
343.15	2.33	189.74	0.634	0.024
313.15	1.04	4.27	0.271	0.103
313.15	1.04	9.68	0.547	0.106
313.15	1.04	60.46	0.743	0.017
313.15	1.04	129.98	0.857	0.01
313.15	1.04	208.15	0.944	0.025
313.15	1.04	273.67	1.015	0.016
323.15	1.04	4.54	0.281	0.052
323.15	1.04	15.57	0.553	0.06
323.15	1.04	76.93	0.721	0.031
323.15	1.04	155.01	0.83	0.029
323.15	1.04	226.8	0.914	0.024
333.15	1.04	3.38	0.257	0.064
333.15	1.04	12.05	0.494	0.055
333.15	1.04	59.32	0.651	0.031
333.15	1.04	135.19	0.762	0.034
333.15	1.04	204.4	0.849	0.044
343.15	1.04	6.85	0.235	0.045
343.15	1.04	18.04	0.453	0.045
343.15	1.04	62.56	0.602	0.031
343.15	1.04	123.4	0.704	0.022
343.15	1.04	190.68	0.783	0.072
313.15	0.94	3.98	0.295	0.134
313.15	0.94	8.46	0.574	0.138
313.15	0.94	33.34	0.771	0.018
313.15	0.94	84.25	0.955	0.026
313.15	0.94	180.66	1.131	0.026
313.15	0.94	254.64	1.243	0.038
323.15	0.94	0.7	0.315	0.06
323.15	0.94	13.9	0.644	0.03
323.15	0.94	59.96	0.817	0.016
323.15	0.94	127.98	0.985	0.01
323.15	0.94	194.58	1.163	0.025
323.15	0.94	246.68	1.314	0.067
333.15	0.94	0.49	0.288	0.037
333.15	0.94	25.7	0.664	0.031
333.15	0.94	106.51	0.93	0.026
333.15	0.94	184.81	1.143	0.037

System: carbon dioxide + N-(2-aminoethyl)ethanolamine + water; phases: Liquid, Gas
Property: Partial molar enthalpy, kJ/mol of carbon dioxide (Liquid); method: isoperibol calorimeter
Solvent: Molality, mol/kg of N-(2-aminoethyl)ethanolamine	Temperature, K	Mole fraction of carbon dioxide	Partial molar enthalpy, kJ/mol of carbon dioxide	uncertainty
4.11	303.15	0.0065	-77.6	7.8
4.11	303.15	0.0129	-78.2	7.8
4.11	303.15	0.019	-77.3	7.7
4.11	303.15	0.0256	-76.8	7.7
4.11	303.15	0.0314	-76.2	7.6
4.11	303.15	0.0379	-76.2	7.6
4.11	303.15	0.0444	-74.2	7.4
4.11	303.15	0.0502	-76.8	7.7
4.11	303.15	0.0565	-70.8	7.1
4.11	303.15	0.0634	-63	6.3
4.11	303.15	0.069	-49	4.9
4.11	303.15	0.0718	-34.4	3.4
4.11	313.15	0.0071	-76.5	7.7
4.11	313.15	0.0143	-76.1	7.6
4.11	313.15	0.0214	-75.3	7.5
4.11	313.15	0.0288	-75.5	7.6
4.11	313.15	0.0361	-74.6	7.5
4.11	313.15	0.0435	-72.9	7.3
4.11	313.15	0.0509	-71.9	7.2
4.11	313.15	0.0585	-68.3	6.8
4.11	313.15	0.0653	-61.9	6.2
4.11	313.15	0.0699	-45.3	4.5
4.11	313.15	0.0721	-32.2	3.2
4.11	323.15	0.0078	-77.9	7.8
4.11	323.15	0.0155	-76.2	7.6
4.11	323.15	0.023	-77.2	7.7
4.11	323.15	0.0304	-74.6	7.5
4.11	323.15	0.0368	-74.3	7.4
4.11	323.15	0.0439	-74.4	7.4
4.11	323.15	0.0507	-70.4	7
4.11	323.15	0.0573	-66	6.6
4.11	323.15	0.0643	-62.5	6.3
4.11	323.15	0.0686	-55.8	5.6
4.11	323.15	0.071	-31.6	3.2
4.11	333.15	0.0081	-77.5	7.8
4.11	333.15	0.0155	-75.4	7.5
4.11	333.15	0.0233	-74.6	7.5
4.11	333.15	0.0316	-73.6	7.4
4.11	333.15	0.0389	-73.5	7.4
4.11	333.15	0.047	-70.7	7.1
4.11	333.15	0.055	-67.1	6.7
4.11	333.15	0.0621	-70.2	7
4.11	333.15	0.0667	-64.2	6.4
4.11	333.15	0.069	-33.6	3.4
4.11	333.15	0.0702	-15	1.5
2.4	303.15	0.0068	-75.9	7.6
2.4	303.15	0.0133	-75.3	7.5
2.4	303.15	0.0202	-73.7	7.4
2.4	303.15	0.0269	-71.6	7.2
2.4	303.15	0.0335	-67.9	6.8
2.4	303.15	0.0395	-62.5	6.3
2.4	303.15	0.0437	-37.9	3.8
2.4	303.15	0.0462	-33.8	3.4
2.4	313.15	0.0079	-76.8	7.7
2.4	313.15	0.0156	-75.1	7.5
2.4	313.15	0.0233	-72.5	7.3
2.4	313.15	0.0307	-70.4	7
2.4	313.15	0.0379	-62.5	6.3
2.4	313.15	0.0431	-49	4.9
2.4	313.15	0.0456	-32.2	3.2
2.4	323.15	0.0077	-75.5	7.6
2.4	323.15	0.0153	-73.6	7.4
2.4	323.15	0.0227	-71.3	7.1
2.4	323.15	0.03	-70.1	7
2.4	323.15	0.0371	-63.4	6.3
2.4	323.15	0.042	-54.3	5.4
2.4	323.15	0.0443	-37.4	3.7
2.4	333.15	0.0076	-77.2	7.7
2.4	333.15	0.0146	-75.9	7.6
2.4	333.15	0.0229	-75.1	7.5
2.4	333.15	0.0311	-73.8	7.4
2.4	333.15	0.0384	-70	7
2.4	333.15	0.0424	-63.2	6.3
2.4	333.15	0.0442	-52.4	5.2
1.07	303.15	0.0121	-68.5	6.9
1.07	303.15	0.0169	-50	5
1.07	303.15	0.0188	-27.7	2.8
1.07	303.15	0.0197	-14.5	1.5
1.07	313.15	0.0067	-75.5	7.6
1.07	313.15	0.0129	-72	7.2
1.07	313.15	0.0187	-63.8	6.4
1.07	313.15	0.0215	-41.6	4.2
1.07	313.15	0.0228	-29.9	3
1.07	323.15	0.0058	-78.6	7.9
1.07	323.15	0.0113	-70.8	7.1
1.07	323.15	0.0173	-66.8	6.7
1.07	323.15	0.0209	-49.8	5
1.07	323.15	0.0224	-37.8	3.8
1.07	333.15	0.0057	-83.1	8.3
1.07	333.15	0.012	-78.6	7.9
1.07	333.15	0.0182	-72.6	7.3
1.07	333.15	0.0208	-48.8	4.9
1.07	333.15	0.022	-17.6	1.8
0.51	303.15	0.0054	-74.3	7.4
0.51	303.15	0.0099	-57.8	5.8
0.51	303.15	0.0119	-27.7	2.8
0.51	303.15	0.0131	-20	2
0.51	313.15	0.0053	-76.3	7.6
0.51	313.15	0.0096	-62.7	6.3
0.51	313.15	0.011	-31.6	3.2
0.51	313.15	0.0121	-16.7	1.7
0.51	323.15	0.0049	-75.9	7.6
0.51	323.15	0.0093	-66.9	6.7
0.51	323.15	0.0108	-34.1	3.4
0.51	323.15	0.0117	-16.8	1.7
0.51	333.15	0.0062	-84.3	8.4
0.51	333.15	0.0095	-85.8	8.6
0.51	333.15	0.0106	-83.1	8.3

System: carbon dioxide + N-(2-aminoethyl)ethanolamine + water; phases: Liquid, Gas
Property: Mole fraction of carbon dioxide (Liquid); method: Phase equilibration
Temperature, K	Solvent: Molality, mol/kg of N-(2-aminoethyl)ethanolamine	Pressure, kPa of carbon dioxide	Mole fraction of carbon dioxide	uncertainty
303.15	4.11	6.39	0.094	0.215
303.15	4.11	8.28	0.187	0.705
303.15	4.11	9.08	0.277	0.259
303.15	4.11	9.49	0.375	0.253
303.15	4.11	9.67	0.463	0.247
303.15	4.11	9.58	0.563	0.237
303.15	4.11	9.88	0.664	0.232
303.15	4.11	10.02	0.755	0.227
303.15	4.11	10.37	0.856	0.226
303.15	4.11	15.77	0.968	0.045
303.15	4.11	60.66	1.059	0.004
303.15	4.11	126.62	1.105	0.007
313.15	4.11	3.24	0.102	0.645
313.15	4.11	4.11	0.207	0.101
313.15	4.11	4.39	0.313	0.097
313.15	4.11	4.53	0.425	0.094
313.15	4.11	4.47	0.536	0.088
313.15	4.11	4.34	0.65	0.079
313.15	4.11	3.96	0.767	0.069
313.15	4.11	5.87	0.888	0.117
313.15	4.11	21.53	0.999	0.014
313.15	4.11	91.89	1.074	0.006
313.15	4.11	166.79	1.11	0.009
323.15	4.11	0.7	0.112	0.082
323.15	4.11	0.77	0.225	0.061
323.15	4.11	6.9	0.337	0.043
323.15	4.11	6.97	0.448	0.048
323.15	4.11	7.65	0.546	0.049
323.15	4.11	12.87	0.657	0.023
323.15	4.11	13.41	0.763	0.016
323.15	4.11	16.44	0.869	0.04
323.15	4.11	23.92	0.982	0.03
323.15	4.11	99.8	1.053	0.007
323.15	4.11	184	1.092	0.009
333.15	4.11	0.97	0.117	0.487
333.15	4.11	1.24	0.225	0.448
333.15	4.11	1.57	0.342	0.067
333.15	4.11	2.26	0.467	0.065
333.15	4.11	2.81	0.579	0.076
333.15	4.11	3.39	0.706	0.448
333.15	4.11	3.57	0.832	0.522
333.15	4.11	27.06	0.946	0.017
333.15	4.11	99.47	1.021	0.01
333.15	4.11	188.04	1.06	0.008
333.15	4.11	245.96	1.08	0.008
303.15	2.4	4.59	0.163	0.137
303.15	2.4	6.68	0.321	0.225
303.15	2.4	7.41	0.491	0.236
303.15	2.4	7.57	0.659	0.234
303.15	2.4	7.9	0.826	0.237
303.15	2.4	12.05	0.98	0.105
303.15	2.4	54.29	1.09	0.006
303.15	2.4	139.83	1.155	0.019
313.15	2.4	0.85	0.19	0.358
313.15	2.4	1.21	0.379	0.325
313.15	2.4	1.23	0.567	0.251
313.15	2.4	1.28	0.756	0.179
313.15	2.4	5.36	0.94	0.091
313.15	2.4	61.85	1.073	0.008
313.15	2.4	161.88	1.138	0.014
323.15	2.4	0.9	0.185	0.262
323.15	2.4	0.68	0.37	0.248
323.15	2.4	1.35	0.554	0.243
323.15	2.4	1.92	0.737	0.223
323.15	2.4	6.18	0.918	0.03
323.15	2.4	67.21	1.046	0.014
323.15	2.4	163.23	1.106	0.007
333.15	2.4	0.02	0.183	0.341
333.15	2.4	0.72	0.353	0.36
333.15	2.4	0.74	0.56	0.188
333.15	2.4	3	0.766	0.068
333.15	2.4	28.4	0.951	0.03
333.15	2.4	139.01	1.055	0.011
333.15	2.4	244.3	1.101	0.01
303.15	1.07	2.32	0.458	0.038
303.15	1.07	4.03	0.642	0.039
303.15	1.07	111.57	0.901	0.058
303.15	1.07	241.28	1.002	0.046
303.15	1.07	303.69	1.052	0.021
313.15	1.07	2.9	0.352	0.069
313.15	1.07	4.49	0.687	0.056
313.15	1.07	15.92	1	
313.15	1.07	131.19	1.154	0.01
313.15	1.07	233.17	1.227	0.024
323.15	1.07	1.12	0.308	0.232
323.15	1.07	1.22	0.597	0.179
323.15	1.07	6.41	0.923	0.125
323.15	1.07	114.16	1.122	0.014
323.15	1.07	233.21	1.2	0.014
333.15	1.07	2.57	0.302	0.041
333.15	1.07	3.56	0.635	0.036
333.15	1.07	26.32	0.973	0.057
333.15	1.07	157.68	1.115	0.013
333.15	1.07	263.92	1.18	0.014
303.15	0.51	2.96	0.595	0.043
303.15	0.51	32.87	1.101	0.043
303.15	0.51	163.79	1.316	0.023
303.15	0.51	266.97	1.454	0.033
313.15	0.51	1.45	0.587	0.038
313.15	0.51	38.23	1.062	0.01
313.15	0.51	148.11	1.226	0.021
313.15	0.51	237.54	1.338	0.024
323.15	0.51	2.36	0.542	0.04
323.15	0.51	34.27	1.035	0.032
323.15	0.51	164.32	1.202	0.016
323.15	0.51	247.74	1.299	0.022
333.15	0.51	1.81	0.68	0.037
333.15	0.51	66.02	1.049	0.039
333.15	0.51	177.86	1.172	0.014

System: benzylamine + water; phases: Liquid
Fixed: Pressure, kPa = 100
Property: Molar heat capacity at constant pressure, J/K/mol (Liquid); method: Closed cup calorimetry 
Temperature, K	Molality, mol/kg of benzylamine	Molar heat capacity at constant pressure, J/K/mol	uncertainty
314.15	0.49	73.0759620220901	7.33015051147509
324.15	0.49	73.8841581041246	7.42412680008375
334.15	0.49	75.9328411957932	7.63087463502279
344.15	0.49	78.9588776889919	7.95039401629221
314.15	1.04	75.375550523766	7.56703701477181
324.15	1.04	76.6924115107522	7.70461950594948
334.15	1.04	78.6578756704332	7.90116592191758
344.15	1.04	82.1367472330686	8.25494947066016
314.15	2.33	78.6680437252831	7.90785608444208
324.15	2.33	80.5909923359808	8.10231156192836
334.15	2.33	82.5139409466784	8.29676703941464
344.15	2.33	87.5481771971566	8.8369211435432
314.15	4	83.2558913380171	8.35439740070067
324.15	4	85.3444906881922	8.57045940244293
334.15	4	87.6971658182746	8.81052829326766
344.15	4	91.8023438513775	9.24265229675218

System: N-(2-aminoethyl)ethanolamine + water; phases: Liquid
Fixed: Pressure, kPa = 100
Property: Molar heat capacity at constant pressure, J/K/mol (Liquid); method: Closed cup calorimetry 
Temperature, K	Molality, mol/kg of N-(2-aminoethyl)ethanolamine	Molar heat capacity at constant pressure, J/K/mol	uncertainty
304.15	0.51	71.7763832898507	7.20019769513169
314.15	0.51	72.6975574075046	7.29419505407597
324.15	0.51	74.2203146224019	7.46339030017567
334.15	0.51	77.2282301086188	7.76418184879736
304.15	1.07	73.823131634092	7.40588627622477
314.15	1.07	74.8446331894334	7.50410757962298
324.15	1.07	75.8661347447747	7.62197314370082
334.15	1.07	78.9306394107987	7.95592557525473
304.15	2.4	78.8937262118205	7.92175034739757
314.15	2.4	80.1888352604413	8.05126125225966
324.15	2.4	81.7429661187864	8.20235730793209
334.15	2.4	84.5922060257522	8.50454941927696
304.15	4.11	84.6510917222104	8.50343451086154
314.15	4.11	85.9445719013274	8.62320119411311
324.15	4.11	87.3099120903953	8.766921214015
334.15	4.11	91.4777926675499	9.22203461037097

System: benzylamine + N-(2-aminoethyl)ethanolamine + water; phases: Liquid
Fixed: Pressure, kPa = 100
Property: Molar heat capacity at constant pressure, J/K/mol (Liquid); method: Closed cup calorimetry 
Temperature, K	Molality, mol/kg of benzylamine	Molality, mol/kg of N-(2-aminoethyl)ethanolamine	Molar heat capacity at constant pressure, J/K/mol	uncertainty
314.15	2.03	2.09	85.0116781402657	8.52042300726333
324.15	2.03	2.09	86.7446455315735	8.71297493963086
334.15	2.03	2.09	90.0661663649135	9.04994082127404
314.15	2.71	1.39	84.3154476067149	8.47488222660299
324.15	2.71	1.39	86.289709943594	8.66749318629851
334.15	2.71	1.39	89.130721599103	8.95640962584179
