Measured thermophysical data. Isothermal Vapor-Liquid Equilibrium Measurements for the (R1234ze(E) + Ethane) System at Temperatures from 272.27 to 347.52 K
Source: J. Chem. Eng. Data, 2018, 10.1021/acs.jced.8b00653
Compound 1: ethane, C2H6, InChI=1S/C2H6/c1-2/h1-2H3
Compound 2: trans-1,3,3,3-tetrafluoropropene, C3H2F4, InChI=1S/C3H2F4/c4-2-1-3(5,6)7/h1-2H/b2-1+, purity 99.5%

System: ethane + trans-1,3,3,3-tetrafluoropropene; phases: Liquid, Gas
Property: Mole fraction of ethane (Liquid); method: Chromatography
Temperature, K	Pressure, kPa	Mole fraction of ethane	uncertainty
272.27	390.4	0.0511	0.0009
272.27	696.6	0.1489	0.0028
272.27	992	0.261	0.0053
272.27	1294	0.4009	0.0053
272.27	1593.2	0.5716	0.0056
272.27	1843.7	0.7267	0.0042
272.27	2004.5	0.8247	0.003
272.27	2157.1	0.9093	0.0018
283.36	748.3	0.1104	0.002
283.36	1131.2	0.2227	0.0039
283.36	1494.3	0.3482	0.0049
283.36	1864.6	0.5016	0.0057
283.36	2245.1	0.6754	0.0047
283.36	2706.9	0.878	0.0023
298.04	936.8	0.0904	0.0017
298.04	1501.6	0.2206	0.0034
298.04	2067.3	0.3751	0.005
298.04	2620.4	0.5464	0.0061
298.04	3163.9	0.7198	0.006
298.04	3730.6	0.8873	0.0028
308.04	1194.2	0.0968	0.0021
308.04	1890.9	0.2402	0.0044
308.04	2410.5	0.362	0.008
308.04	2980.2	0.5065	0.0058
308.04	3369.3	0.609	0.0056
308.04	3694.1	0.6926	0.0046
308.04	3875.3	0.7377	0.0044
308.04	3980.1	0.7634	0.0046
308.04	4093.6	0.7896	0.0036
308.04	4192.3	0.8123	0.0031
308.04	4290.5	0.8342	0.0029
308.04	4397.3	0.8579	0.0032
308.04	4487.2	0.8771	0.0024
308.04	4597.4	0.8989	0.0026
308.04	4692.5	0.9168	0.002
308.04	4744.4	0.9282	0.0018
323.18	1592	0.0932	0.0019
323.18	2303.1	0.2159	0.0049
323.18	2870.7	0.3178	0.0064
323.18	3487.6	0.4402	0.0064
323.18	3982.5	0.54	0.0055
323.18	4093.9	0.5622	0.0057
323.18	4192.9	0.5824	0.0053
323.18	4296.8	0.6022	0.0051
323.18	4392.3	0.6222	0.0052
323.18	4493.3	0.6435	0.0048
323.18	4591.9	0.6642	0.0047
323.18	4690.6	0.6843	0.0046
323.18	4791.6	0.7062	0.0044
323.18	4892.1	0.7328	0.0041
347.52	2160.2	0.0486	0.0011
347.52	2485.9	0.0919	0.0021
347.52	3007	0.1617	0.0027
347.52	3489.5	0.2291	0.004
347.52	4003	0.3035	0.0044
347.52	4173.2	0.3309	0.0045
347.52	4315.7	0.3529	0.0047
347.52	4409.7	0.3683	0.005
347.52	4513.5	0.3849	0.0052
347.52	4581.8	0.3979	0.0052
347.52	4729.4	0.4254	0.0052
347.52	4788.2	0.4395	0.0053
347.52	4830.3	0.4534	0.0055

System: ethane + trans-1,3,3,3-tetrafluoropropene; phases: Gas, Liquid
Property: Mole fraction of ethane (Gas); method: Chromatography
Temperature, K	Mole fraction of ethane	Mole fraction of ethane	uncertainty
272.27	0.0511	0.465	0.0064
272.27	0.1489	0.7045	0.006
272.27	0.261	0.798	0.0045
272.27	0.4009	0.8526	0.0029
272.27	0.5716	0.8924	0.0023
272.27	0.7267	0.9227	0.0016
272.27	0.8247	0.9436	0.0013
272.27	0.9093	0.9664	0.0008
283.36	0.1104	0.588	0.0064
283.36	0.2227	0.7304	0.0056
283.36	0.3482	0.8014	0.0039
283.36	0.5016	0.8514	0.003
283.36	0.6754	0.894	0.0026
283.36	0.878	0.949	0.0014
298.04	0.0904	0.461	0.0064
298.04	0.2206	0.6648	0.0061
298.04	0.3751	0.759	0.0048
298.04	0.5464	0.8235	0.0035
298.04	0.7198	0.8762	0.0032
298.04	0.8873	0.937	0.0016
308.04	0.0968	0.4235	0.0064
308.04	0.2402	0.6325	0.0069
308.04	0.362	0.7151	0.0061
308.04	0.5065	0.7775	0.0041
308.04	0.609	0.8124	0.0035
308.04	0.6926	0.84	0.003
308.04	0.7377	0.855	0.0031
308.04	0.7634	0.8641	0.0029
308.04	0.7896	0.874	0.0028
308.04	0.8123	0.8833	0.0025
308.04	0.8342	0.8927	0.0023
308.04	0.8579	0.9035	0.0024
308.04	0.8771	0.9128	0.0021
308.04	0.8989	0.9242	0.0018
308.04	0.9168	0.9331	0.0018
308.04	0.9282	0.9401	0.0016
323.18	0.0932	0.3493	0.0061
323.18	0.2159	0.5373	0.0084
323.18	0.3178	0.6247	0.0067
323.18	0.4402	0.6893	0.0055
323.18	0.54	0.7267	0.0049
323.18	0.5622	0.7346	0.0043
323.18	0.5824	0.7393	0.0046
323.18	0.6022	0.7461	0.0046
323.18	0.6222	0.7523	0.0041
323.18	0.6435	0.7584	0.0041
323.18	0.6642	0.763	0.0039
323.18	0.6843	0.7669	0.0038
323.18	0.7062	0.7689	0.0038
323.18	0.7328	0.763	0.0046
347.52	0.0486	0.1497	0.0041
347.52	0.0919	0.2424	0.0053
347.52	0.1617	0.352	0.0059
347.52	0.2291	0.4214	0.0073
347.52	0.3035	0.4773	0.0066
347.52	0.3309	0.4915	0.0064
347.52	0.3529	0.4994	0.0066
347.52	0.3683	0.5043	0.0064
347.52	0.3849	0.5065	0.0102
347.52	0.3979	0.5092	0.0072
347.52	0.4254	0.5105	0.0063
347.52	0.4395	0.5061	0.0065
347.52	0.4534	0.4973	0.0072
