Measured thermophysical data. Densities, Viscosities, Speeds of Sound, Bulk Moduli, Surface Tensions, and Flash Points of Binary Mixtures of Ethylcyclohexane or Methylcyclohexane with n-Dodecane or n-Hexadecane at 0.1 MPa
Source: J. Chem. Eng. Data, 2018, 10.1021/acs.jced.8b00008
Compound 1: ethylcyclohexane, C8H16, InChI=1S/C8H16/c1-2-8-6-4-3-5-7-8/h8H,2-7H2,1H3, purity 99.9%
Compound 2: methylcyclohexane, C7H14, InChI=1S/C7H14/c1-7-5-3-2-4-6-7/h7H,2-6H2,1H3, purity 99.9%
Compound 3: hexadecane, C16H34, InChI=1S/C16H34/c1-3-5-7-9-11-13-15-16-14-12-10-8-6-4-2/h3-16H2,1-2H3, purity 99.8%
Compound 4: dodecane, C12H26, InChI=1S/C12H26/c1-3-5-7-9-11-12-10-8-6-4-2/h3-12H2,1-2H3, purity 99.6%

System: ethylcyclohexane; phases: Liquid
Fixed: Pressure, kPa = 102
Property: Mass density, kg/m3 (Liquid); method: Vibrating tube method
Temperature, K	Mass density, kg/m3	uncertainty
293.15	787.98	0.2
303.15	779.91	0.2
313.15	771.79	0.2
323.15	763.6	0.21
333.15	755.36	0.21

System: ethylcyclohexane; phases: Liquid
Fixed: Pressure, kPa = 102
Property: Viscosity, Pa*s (Liquid); method: Concentric cylinders viscometry
Temperature, K	Viscosity, Pa*s	uncertainty
293.15	0.000858	1.2e-05
303.15	0.000725	1.1e-05
313.15	0.000649	1.1e-05
323.15	0.000572	1.1e-05
333.15	0.000504	1.1e-05

System: ethylcyclohexane; phases: Liquid
Fixed: Pressure, kPa = 102
Property: Speed of sound, m/s (Liquid); method: Single path-length method
Temperature, K	Speed of sound, m/s	uncertainty
293.15	1292.9	0.6
303.15	1249.9	0.6
313.15	1208	0.6
323.15	1166.9	0.6
333.15	1126.9	0.6

System: ethylcyclohexane; phases: Liquid, Gas
Property: Surface tension liquid-gas, N/m (Liquid); method: Pendant drop shape
Temperature, K	Surface tension liquid-gas, N/m	uncertainty
295.6	0.0253	0.0005

System: methylcyclohexane; phases: Liquid
Fixed: Pressure, kPa = 102
Property: Mass density, kg/m3 (Liquid); method: Vibrating tube method
Temperature, K	Mass density, kg/m3	uncertainty
293.15	769.3	0.2
298.15	764.99	0.21
303.15	760.64	0.21
313.15	751.92	0.21
323.15	743.13	0.21
333.15	734.25	0.21

System: methylcyclohexane; phases: Liquid
Fixed: Pressure, kPa = 102
Property: Viscosity, Pa*s (Liquid); method: Concentric cylinders viscometry
Temperature, K	Viscosity, Pa*s	uncertainty
293.15	0.00074	1.1e-05
298.15	0.000685	1.1e-05
303.15	0.000633	1.1e-05
313.15	0.000572	1.1e-05
323.15	0.000489	1.1e-05
333.15	0.00044	1.1e-05

System: methylcyclohexane; phases: Liquid
Fixed: Pressure, kPa = 102
Property: Speed of sound, m/s (Liquid); method: Single path-length method
Temperature, K	Speed of sound, m/s	uncertainty
293.15	1236.5	0.6
298.15	1214.5	0.6
303.15	1192.3	0.6
313.15	1149.2	0.6
323.15	1106.9	0.6
333.15	1065.7	0.6

System: methylcyclohexane; phases: Liquid, Gas
Property: Surface tension liquid-gas, N/m (Liquid); method: Pendant drop shape
Temperature, K	Surface tension liquid-gas, N/m	uncertainty
291.1	0.0237	0.0005

System: hexadecane; phases: Liquid
Fixed: Pressure, kPa = 102
Property: Mass density, kg/m3 (Liquid); method: Vibrating tube method
Temperature, K	Mass density, kg/m3	uncertainty
293.15	773.37	0.32
298.15	769.89	0.32
303.15	766.43	0.32
313.15	759.51	0.32
323.15	752.6	0.32
333.15	745.69	0.32

System: hexadecane; phases: Liquid
Fixed: Pressure, kPa = 102
Property: Viscosity, Pa*s (Liquid); method: Concentric cylinders viscometry
Temperature, K	Viscosity, Pa*s	uncertainty
293.15	0.00347	2e-05
298.15	0.00306	2e-05
303.15	0.00276	2e-05
313.15	0.00223	2e-05
323.15	0.00186	1e-05
333.15	0.00156	1e-05

System: hexadecane; phases: Liquid
Fixed: Pressure, kPa = 102
Property: Speed of sound, m/s (Liquid); method: Single path-length method
Temperature, K	Speed of sound, m/s	uncertainty
293.15	1357.4	0.6
298.15	1338.6	0.6
303.15	1319.7	0.6
313.15	1282.9	0.6
323.15	1247.1	0.6
333.15	1212.2	0.6

System: hexadecane; phases: Liquid, Gas
Property: Surface tension liquid-gas, N/m (Liquid); method: Pendant drop shape
Temperature, K	Surface tension liquid-gas, N/m	uncertainty
296.1	0.0269	0.0007

System: dodecane; phases: Liquid
Fixed: Pressure, kPa = 102
Property: Mass density, kg/m3 (Liquid); method: Vibrating tube method
Temperature, K	Mass density, kg/m3	uncertainty
293.15	748.73	0.7
298.15	745.11	0.7
303.15	741.77	0.7
313.15	734.87	0.7
323.15	726.88	0.7
333.15	719.53	0.7

System: dodecane; phases: Liquid
Fixed: Pressure, kPa = 102
Property: Viscosity, Pa*s (Liquid); method: Concentric cylinders viscometry
Temperature, K	Viscosity, Pa*s	uncertainty
293.15	0.00149	1e-05
298.15	0.00136	1e-05
303.15	0.00126	1e-05
313.15	0.00106	1e-05
323.15	0.000925	1.2e-05
333.15	0.000795	1.2e-05

System: dodecane; phases: Liquid
Fixed: Pressure, kPa = 102
Property: Speed of sound, m/s (Liquid); method: Single path-length method
Temperature, K	Speed of sound, m/s	uncertainty
293.15	1297.7	0.7
303.15	1259	0.7
313.15	1221.1	0.7
323.15	1183.9	0.7
333.15	1147.6	0.7

System: dodecane; phases: Liquid, Gas
Property: Surface tension liquid-gas, N/m (Liquid); method: Pendant drop shape
Temperature, K	Surface tension liquid-gas, N/m	uncertainty
294.6	0.025	0.0005

System: ethylcyclohexane + hexadecane; phases: Liquid
Fixed: Pressure, kPa = 102
Property: Mass density, kg/m3 (Liquid); method: Vibrating tube method
Mole fraction of ethylcyclohexane	Temperature, K	Mass density, kg/m3	uncertainty
0.0997	293.15	773.92	0.32
0.0997	303.15	766.96	0.32
0.0997	313.15	760.01	0.32
0.0997	323.15	753.07	0.32
0.0997	333.15	746.13	0.32
0.1997	293.15	774.6	0.32
0.1997	303.15	767.62	0.32
0.1997	313.15	760.63	0.32
0.1997	323.15	753.64	0.32
0.1997	333.15	746.63	0.32
0.3	293.15	775.39	0.32
0.3	303.15	768.36	0.32
0.3	313.15	761.32	0.32
0.3	323.15	754.28	0.32
0.3	333.15	747.21	0.32
0.4	293.15	776.26	0.32
0.4	303.15	769.18	0.32
0.4	313.15	762.08	0.32
0.4	323.15	754.97	0.32
0.4	333.15	747.82	0.32
0.4999	293.15	777.42	0.32
0.4999	303.15	770.25	0.32
0.4999	313.15	763.06	0.32
0.4999	323.15	755.86	0.32
0.4999	333.15	748.62	0.32
0.55	293.15	778.05	0.32
0.55	303.15	770.84	0.32
0.55	313.15	763.61	0.32
0.55	323.15	756.35	0.32
0.55	333.15	749.06	0.32
0.6	293.15	778.71	0.32
0.6	303.15	771.45	0.32
0.6	313.15	764.16	0.32
0.6	323.15	756.84	0.32
0.6	333.15	749.49	0.32
0.7001	293.15	780.35	0.32
0.7001	303.15	772.96	0.32
0.7001	313.15	765.54	0.32
0.7001	323.15	758.08	0.32
0.7001	333.15	750.57	0.32
0.8003	293.15	782.34	0.32
0.8003	303.15	774.78	0.32
0.8003	313.15	767.19	0.32
0.8003	323.15	759.55	0.32
0.8003	333.15	751.86	0.32
0.9	293.15	784.8	0.32
0.9	303.15	777.02	0.32
0.9	313.15	769.2	0.32
0.9	323.15	761.34	0.32
0.9	333.15	753.41	0.32

System: ethylcyclohexane + hexadecane; phases: Liquid
Fixed: Pressure, kPa = 102
Property: Speed of sound, m/s (Liquid); method: Single path-length method
Mole fraction of ethylcyclohexane	Temperature, K	Speed of sound, m/s	uncertainty
0.0997	293.15	1353.2	0.5
0.0997	303.15	1315.5	0.5
0.0997	313.15	1278.6	0.5
0.0997	323.15	1242.7	0.5
0.0997	333.15	1207.7	0.5
0.1997	293.15	1348.2	0.5
0.1997	303.15	1310.3	0.5
0.1997	313.15	1273.4	0.5
0.1997	323.15	1237.2	0.5
0.1997	333.15	1202.1	0.5
0.3	293.15	1343.1	0.5
0.3	303.15	1305.1	0.5
0.3	313.15	1268	0.5
0.3	323.15	1231.6	0.5
0.3	333.15	1196.2	0.5
0.4	293.15	1337.8	0.5
0.4	303.15	1299.6	0.5
0.4	313.15	1262.2	0.5
0.4	323.15	1225.6	0.5
0.4	333.15	1189.9	0.5
0.4999	293.15	1331.4	0.6
0.4999	303.15	1292.9	0.5
0.4999	313.15	1255.2	0.5
0.4999	323.15	1218.3	0.5
0.4999	333.15	1182.3	0.5
0.55	293.15	1328.1	0.5
0.55	303.15	1289.4	0.5
0.55	313.15	1251.5	0.5
0.55	323.15	1214.3	0.5
0.55	333.15	1178	0.5
0.6	293.15	1325.3	0.5
0.6	303.15	1286.4	0.5
0.6	313.15	1248.3	0.5
0.6	323.15	1211	0.5
0.6	333.15	1174.6	0.5
0.7001	293.15	1317.5	0.5
0.7001	303.15	1277.9	0.5
0.7001	313.15	1239.2	0.5
0.7001	323.15	1201.2	0.5
0.7001	333.15	1164.1	0.5
0.8003	293.15	1309.8	0.5
0.8003	303.15	1269.5	0.5
0.8003	313.15	1230	0.5
0.8003	323.15	1191.3	0.5
0.8003	333.15	1153.4	0.5
0.9	293.15	1301.6	0.5
0.9	303.15	1260.2	0.5
0.9	313.15	1219.7	0.5
0.9	323.15	1180	0.5
0.9	333.15	1141.2	0.5

System: ethylcyclohexane + hexadecane; phases: Liquid
Fixed: Pressure, kPa = 102
Property: Viscosity, Pa*s (Liquid); method: Concentric cylinders viscometry
Mole fraction of ethylcyclohexane	Temperature, K	Viscosity, Pa*s	uncertainty
0.0997	293.15	0.00317	2e-05
0.0997	303.15	0.00254	2e-05
0.0997	313.15	0.00207	1e-05
0.0997	323.15	0.00173	1e-05
0.0997	333.15	0.00146	1e-05
0.1997	293.15	0.00287	2e-05
0.1997	303.15	0.00233	2e-05
0.1997	313.15	0.0019	1e-05
0.1997	323.15	0.001595	1.3e-05
0.1997	333.15	0.001355	1.3e-05
0.3	293.15	0.00257	2e-05
0.3	303.15	0.0021	1e-05
0.3	313.15	0.00174	1e-05
0.3	323.15	0.00146	1e-05
0.3	333.15	0.00125	1e-05
0.4	293.15	0.00226	2e-05
0.4	303.15	0.00187	1e-05
0.4	313.15	0.00156	1e-05
0.4	323.15	0.00134	1e-05
0.4	333.15	0.00116	1e-05
0.4999	293.15	0.00199	1e-05
0.4999	303.15	0.00167	1e-05
0.4999	313.15	0.0014	1e-05
0.4999	323.15	0.00121	1e-05
0.4999	333.15	0.00103	1e-05
0.55	293.15	0.00189	1e-05
0.55	303.15	0.00158	1e-05
0.55	313.15	0.00134	1e-05
0.55	323.15	0.00115	1e-05
0.55	333.15	0.00099	1e-05
0.6	293.15	0.00173	1e-05
0.6	303.15	0.00146	1e-05
0.6	313.15	0.00124	1e-05
0.6	323.15	0.00109	1e-05
0.6	333.15	0.000937	1.2e-05
0.7001	293.15	0.00148	2e-05
0.7001	303.15	0.00127	1e-05
0.7001	313.15	0.00108	1e-05
0.7001	323.15	0.000948	1.2e-05
0.7001	333.15	0.000821	1.2e-05
0.8003	293.15	0.00125	1e-05
0.8003	303.15	0.00107	1e-05
0.8003	313.15	0.00093	2e-05
0.8003	323.15	0.000822	2.1e-05
0.8003	333.15	0.000716	1.1e-05
0.9	293.15	0.00104	1e-05
0.9	303.15	0.000896	1.2e-05
0.9	313.15	0.000782	1.2e-05
0.9	323.15	0.000693	1.1e-05
0.9	333.15	0.000607	1.1e-05

System: ethylcyclohexane + hexadecane; phases: Liquid, Gas
Fixed: Temperature, K = 296
Property: Surface tension liquid-gas, N/m (Liquid); method: Pendant drop shape
Mole fraction of ethylcyclohexane	Surface tension liquid-gas, N/m	uncertainty
0.0997	0.0268	0.0003
0.1997	0.0267	0.0003
0.3	0.0264	0.0003
0.4	0.0262	0.0003
0.4999	0.0263	0.0003
0.55	0.0262	0.0003
0.6	0.026	0.0003
0.7001	0.0259	0.0003
0.8003	0.0257	0.0003
0.9	0.0254	0.0003

System: ethylcyclohexane + dodecane; phases: Liquid
Fixed: Pressure, kPa = 102
Property: Mass density, kg/m3 (Liquid); method: Vibrating tube method
Mole fraction of ethylcyclohexane	Temperature, K	Mass density, kg/m3	uncertainty
0.1	293.15	751.13	0.7
0.1	303.15	743.84	0.7
0.1	313.15	736.53	0.7
0.1	323.15	729.18	0.7
0.1	333.15	721.79	0.7
0.216	293.15	754.22	0.7
0.216	303.15	746.88	0.7
0.216	313.15	739.51	0.7
0.216	323.15	732.1	0.7
0.216	333.15	724.65	0.7
0.2999	293.15	756.65	0.7
0.2999	303.15	749.28	0.7
0.2999	313.15	741.87	0.7
0.2999	323.15	734.42	0.7
0.2999	333.15	726.93	0.7
0.4	293.15	759.77	0.7
0.4	303.15	752.35	0.7
0.4	313.15	744.89	0.7
0.4	323.15	737.38	0.7
0.4	333.15	729.83	0.7
0.5	293.15	763.3	0.7
0.5	303.15	755.8	0.7
0.5	313.15	748.26	0.7
0.5	323.15	740.68	0.7
0.5	333.15	733.05	0.7
0.5999	293.15	767.13	0.7
0.5999	303.15	759.56	0.7
0.5999	313.15	751.95	0.7
0.5999	323.15	744.29	0.7
0.5999	333.15	736.58	0.7
0.7	293.15	771.4	0.7
0.7	303.15	763.73	0.7
0.7	313.15	756.03	0.7
0.7	323.15	748.27	0.7
0.7	333.15	740.46	0.7
0.8	293.15	776.25	0.7
0.8	303.15	768.48	0.7
0.8	313.15	760.66	0.7
0.8	323.15	752.78	0.7
0.8	333.15	744.85	0.7
0.9	293.15	781.76	0.7
0.9	303.15	773.85	0.7
0.9	313.15	765.89	0.7
0.9	323.15	757.88	0.7
0.9	333.15	749.79	0.7

System: ethylcyclohexane + dodecane; phases: Liquid
Fixed: Pressure, kPa = 102
Property: Speed of sound, m/s (Liquid); method: Single path-length method
Mole fraction of ethylcyclohexane	Temperature, K	Speed of sound, m/s	uncertainty
0.1	293.15	1296.6	0.6
0.1	303.15	1257.8	0.6
0.1	313.15	1219.8	0.6
0.1	323.15	1182.5	0.6
0.1	333.15	1146.2	0.6
0.216	293.15	1295.2	0.6
0.216	303.15	1256.6	0.6
0.216	313.15	1218.6	0.6
0.216	323.15	1181.1	0.6
0.216	333.15	1144.3	0.6
0.2999	293.15	1294.3	0.6
0.2999	303.15	1255.1	0.6
0.2999	313.15	1216.7	0.6
0.2999	323.15	1179	0.6
0.2999	333.15	1142.1	0.6
0.4	293.15	1293.4	0.6
0.4	303.15	1254	0.6
0.4	313.15	1215.3	0.6
0.4	323.15	1177.4	0.6
0.4	333.15	1140.5	0.6
0.5	293.15	1292.4	0.6
0.5	303.15	1253.1	0.6
0.5	313.15	1214.3	0.6
0.5	323.15	1176.1	0.6
0.5	333.15	1138.6	0.6
0.5999	293.15	1291.8	0.6
0.5999	303.15	1251.7	0.6
0.5999	313.15	1212.4	0.6
0.5999	323.15	1173.8	0.6
0.5999	333.15	1136.2	0.6
0.7	293.15	1291.3	0.5
0.7	303.15	1250.7	0.5
0.7	313.15	1210.9	0.5
0.7	323.15	1171.9	0.5
0.7	333.15	1133.9	0.6
0.8	293.15	1291.2	0.5
0.8	303.15	1250	0.5
0.8	313.15	1209.6	0.5
0.8	323.15	1170	0.5
0.8	333.15	1131.3	0.6
0.9	293.15	1291.7	0.5
0.9	303.15	1249.7	0.5
0.9	313.15	1208.6	0.5
0.9	323.15	1168.3	0.5
0.9	333.15	1128.9	0.5

System: ethylcyclohexane + dodecane; phases: Liquid
Fixed: Pressure, kPa = 102
Property: Viscosity, Pa*s (Liquid); method: Concentric cylinders viscometry
Mole fraction of ethylcyclohexane	Temperature, K	Viscosity, Pa*s	uncertainty
0.1	293.15	0.00143	1e-05
0.1	303.15	0.0012	1e-05
0.1	313.15	0.00102	1e-05
0.1	323.15	0.000893	1.2e-05
0.1	333.15	0.000769	1.2e-05
0.216	293.15	0.00134	1e-05
0.216	303.15	0.00115	1e-05
0.216	313.15	0.000973	1.2e-05
0.216	323.15	0.000858	1.2e-05
0.216	333.15	0.000757	1.2e-05
0.2999	293.15	0.0013	1e-05
0.2999	303.15	0.0011	1e-05
0.2999	313.15	0.000939	1.2e-05
0.2999	323.15	0.000823	1.2e-05
0.2999	333.15	0.000713	1.2e-05
0.4	293.15	0.00122	1e-05
0.4	303.15	0.00104	1e-05
0.4	313.15	0.000899	1.2e-05
0.4	323.15	0.00079	1.2e-05
0.4	333.15	0.000685	1.1e-05
0.5	293.15	0.00116	1e-05
0.5	303.15	0.000966	2.1e-05
0.5	313.15	0.000876	2.1e-05
0.5	323.15	0.000759	1.2e-05
0.5	333.15	0.000667	2.1e-05
0.5999	293.15	0.00113	1e-05
0.5999	303.15	0.000934	1.2e-05
0.5999	313.15	0.00085	1.2e-05
0.5999	323.15	0.000718	1.1e-05
0.5999	333.15	0.000627	1.1e-05
0.7	293.15	0.00107	1e-05
0.7	303.15	0.000887	1.2e-05
0.7	313.15	0.000789	1.2e-05
0.7	323.15	0.000686	1.1e-05
0.7	333.15	0.000601	1.1e-05
0.8	293.15	0.000998	1.2e-05
0.8	303.15	0.000832	1.2e-05
0.8	313.15	0.000743	1.2e-05
0.8	323.15	0.000646	1.1e-05
0.8	333.15	0.000567	1.1e-05
0.9	293.15	0.000932	1.2e-05
0.9	303.15	0.000782	1.2e-05
0.9	313.15	0.000698	1.1e-05
0.9	323.15	0.000614	1.1e-05
0.9	333.15	0.000537	1.1e-05

System: ethylcyclohexane + dodecane; phases: Liquid, Gas
Fixed: Temperature, K = 294
Property: Surface tension liquid-gas, N/m (Liquid); method: Pendant drop shape
Mole fraction of ethylcyclohexane	Surface tension liquid-gas, N/m	uncertainty
0.216	0.0251	0.0003
0.2999	0.0251	0.0003
0.4	0.0251	0.0003
0.5	0.0251	0.0003
0.5999	0.0252	0.0003
0.8	0.0252	0.0003

System: methylcyclohexane + hexadecane; phases: Liquid
Fixed: Pressure, kPa = 102
Property: Mass density, kg/m3 (Liquid); method: Vibrating tube method
Mole fraction of methylcyclohexane	Temperature, K	Mass density, kg/m3	uncertainty
0.1018	293.15	773	0.32
0.1018	298.15	769.51	0.32
0.1018	303.15	766.03	0.32
0.1018	313.15	759.08	0.32
0.1018	323.15	752.12	0.32
0.1018	333.15	745.15	0.32
0.2	293.15	772.68	0.32
0.2	298.15	769.17	0.32
0.2	303.15	765.67	0.32
0.2	313.15	758.66	0.32
0.2	323.15	751.64	0.32
0.2	333.15	744.61	0.32
0.3	293.15	772.21	0.32
0.3	298.15	768.68	0.32
0.3	303.15	765.15	0.32
0.3	313.15	758.08	0.32
0.3	323.15	751	0.32
0.3	333.15	743.89	0.32
0.4004	293.15	771.85	0.32
0.4004	298.15	768.28	0.32
0.4004	303.15	764.7	0.32
0.4004	313.15	757.54	0.32
0.4004	323.15	750.36	0.32
0.4004	333.15	743.16	0.32
0.4999	293.15	771.43	0.32
0.4999	298.15	767.82	0.32
0.4999	303.15	764.21	0.32
0.4999	313.15	756.95	0.32
0.4999	323.15	749.66	0.32
0.4999	333.15	742.34	0.32
0.6	293.15	770.99	0.32
0.6	298.15	767.29	0.32
0.6	303.15	763.6	0.32
0.6	313.15	756.18	0.32
0.6	323.15	748.73	0.32
0.6	333.15	741.25	0.32
0.7	293.15	770.52	0.32
0.7	298.15	766.75	0.32
0.7	303.15	762.96	0.32
0.7	313.15	755.37	0.32
0.7	323.15	747.73	0.32
0.7	333.15	740.03	0.32
0.8	293.15	770.06	0.32
0.8	298.15	766.16	0.32
0.8	303.15	762.24	0.32
0.8	313.15	754.38	0.32
0.8	323.15	746.47	0.32
0.8	333.15	738.5	0.32
0.9	293.15	769.64	0.32
0.9	298.15	765.56	0.32
0.9	303.15	761.47	0.32
0.9	313.15	753.24	0.32
0.9	323.15	744.96	0.32
0.9	333.15	736.61	0.32

System: methylcyclohexane + hexadecane; phases: Liquid
Fixed: Pressure, kPa = 102
Property: Speed of sound, m/s (Liquid); method: Single path-length method
Mole fraction of methylcyclohexane	Temperature, K	Speed of sound, m/s	uncertainty
0.1018	293.15	1350.5	0.5
0.1018	298.15	1331.5	0.5
0.1018	303.15	1312.7	0.5
0.1018	313.15	1275.9	0.5
0.1018	323.15	1239.9	0.5
0.1018	333.15	1204.9	0.5
0.2	293.15	1343.5	0.7
0.2	298.15	1324.6	0.6
0.2	303.15	1306	0.6
0.2	313.15	1269.1	0.5
0.2	323.15	1233	0.5
0.2	333.15	1197.7	0.5
0.3	293.15	1334.5	0.5
0.3	298.15	1315.4	0.5
0.3	303.15	1296.5	0.5
0.3	313.15	1259.4	0.5
0.3	323.15	1223	0.5
0.3	333.15	1187.7	0.5
0.4004	293.15	1325.6	0.5
0.4004	298.15	1306.5	0.5
0.4004	303.15	1287.5	0.5
0.4004	313.15	1250.2	0.6
0.4004	323.15	1213.5	0.7
0.4004	333.15	1177.8	0.5
0.4999	293.15	1316.2	0.5
0.4999	298.15	1297.4	0.5
0.4999	303.15	1278.4	0.5
0.4999	313.15	1240.7	0.5
0.4999	323.15	1203.7	0.5
0.4999	333.15	1167.2	0.5
0.6	293.15	1303.5	0.5
0.6	298.15	1284.3	0.5
0.6	303.15	1265	0.5
0.6	313.15	1226.9	0.5
0.6	323.15	1189.3	0.5
0.6	333.15	1152.3	0.5
0.7	293.15	1289.9	0.5
0.7	298.15	1270.5	0.5
0.7	303.15	1250.9	0.5
0.7	313.15	1212.1	0.5
0.7	323.15	1173.8	0.5
0.7	333.15	1136	0.5
0.8	293.15	1274.4	0.5
0.8	298.15	1254.1	0.5
0.8	303.15	1233.9	0.5
0.8	313.15	1194.1	0.5
0.8	323.15	1154.9	0.5
0.8	333.15	1116.2	0.5
0.9	293.15	1256.8	0.5
0.9	298.15	1236	0.5
0.9	303.15	1215.2	0.5
0.9	313.15	1174.1	0.5
0.9	323.15	1133.7	0.5
0.9	333.15	1094.2	0.8

System: methylcyclohexane + hexadecane; phases: Liquid
Fixed: Pressure, kPa = 102
Property: Viscosity, Pa*s (Liquid); method: Concentric cylinders viscometry
Mole fraction of methylcyclohexane	Temperature, K	Viscosity, Pa*s	uncertainty
0.1018	293.15	0.00314	2e-05
0.1018	298.15	0.00281	2e-05
0.1018	303.15	0.00252	2e-05
0.1018	313.15	0.00206	1e-05
0.1018	323.15	0.00172	1e-05
0.1018	333.15	0.00146	1e-05
0.2	293.15	0.00283	2e-05
0.2	298.15	0.00254	2e-05
0.2	303.15	0.00229	2e-05
0.2	313.15	0.00189	1e-05
0.2	323.15	0.00158	1e-05
0.2	333.15	0.00135	1e-05
0.3	293.15	0.00254	2e-05
0.3	298.15	0.00229	2e-05
0.3	303.15	0.00208	1e-05
0.3	313.15	0.00172	1e-05
0.3	323.15	0.00145	1e-05
0.3	333.15	0.00124	1e-05
0.4004	293.15	0.00224	2e-05
0.4004	298.15	0.00203	1e-05
0.4004	303.15	0.00185	1e-05
0.4004	313.15	0.00155	1e-05
0.4004	323.15	0.00131	1e-05
0.4004	333.15	0.00116	1e-05
0.4999	293.15	0.00196	1e-05
0.4999	298.15	0.00179	1e-05
0.4999	303.15	0.00165	1e-05
0.4999	313.15	0.00138	1e-05
0.4999	323.15	0.0012	1e-05
0.4999	333.15	0.00104	1e-05
0.6	293.15	0.00168	1e-05
0.6	298.15	0.00154	1e-05
0.6	303.15	0.00143	1e-05
0.6	313.15	0.0012	1e-05
0.6	323.15	0.00105	1e-05
0.6	333.15	0.000924	1.2e-05
0.7	293.15	0.00142	1e-05
0.7	298.15	0.00131	1e-05
0.7	303.15	0.00122	1e-05
0.7	313.15	0.00103	1e-05
0.7	323.15	0.00091	1.2e-05
0.7	333.15	0.000801	1.2e-05
0.8	293.15	0.001174	1.2e-05
0.8	298.15	0.001084	1.2e-05
0.8	303.15	0.001012	1.2e-05
0.8	313.15	0.000906	1.2e-05
0.8	323.15	0.000768	1.2e-05
0.8	333.15	0.00068	1.1e-05
0.9	293.15	0.000943	1.2e-05
0.9	298.15	0.000892	1.2e-05
0.9	303.15	0.00082	1.2e-05
0.9	313.15	0.000739	1.2e-05
0.9	323.15	0.000629	1.1e-05
0.9	333.15	0.000558	1.1e-05

System: methylcyclohexane + hexadecane; phases: Liquid, Gas
Fixed: Temperature, K = 293
Property: Surface tension liquid-gas, N/m (Liquid); method: Pendant drop shape
Mole fraction of methylcyclohexane	Surface tension liquid-gas, N/m	uncertainty
0.1018	0.0268	0.0003
0.2	0.0267	0.0003
0.3	0.0264	0.0003
0.4004	0.0262	0.0003
0.4999	0.026	0.0003
0.6	0.0255	0.0003
0.7	0.0252	0.0003
0.8	0.0247	0.0003
0.9	0.0243	0.0003

System: methylcyclohexane + dodecane; phases: Liquid
Fixed: Pressure, kPa = 102
Property: Mass density, kg/m3 (Liquid); method: Vibrating tube method
Mole fraction of methylcyclohexane	Temperature, K	Mass density, kg/m3	uncertainty
0.1	293.15	749.76	0.7
0.1	298.15	746.11	0.7
0.1	303.15	742.46	0.7
0.1	313.15	735.13	0.7
0.1	323.15	727.76	0.7
0.1	333.15	720.35	0.7
0.2001	293.15	750.92	0.7
0.2001	298.15	747.24	0.7
0.2001	303.15	743.56	0.7
0.2001	313.15	736.17	0.7
0.2001	323.15	728.74	0.7
0.2001	333.15	721.26	0.7
0.3	293.15	752.24	0.7
0.3	298.15	748.53	0.7
0.3	303.15	744.81	0.7
0.3	313.15	737.34	0.7
0.3	323.15	729.83	0.7
0.3	333.15	722.26	0.7
0.4001	293.15	753.73	0.7
0.4001	298.15	749.97	0.7
0.4001	303.15	746.21	0.7
0.4001	313.15	738.65	0.7
0.4001	323.15	731.05	0.7
0.4001	333.15	723.38	0.7
0.5	293.15	755.42	0.7
0.5	298.15	751.63	0.7
0.5	303.15	747.8	0.7
0.5	313.15	740.13	0.7
0.5	323.15	732.41	0.7
0.5	333.15	724.63	0.7
0.5999	293.15	757.37	0.7
0.5999	298.15	753.5	0.7
0.5999	303.15	749.62	0.7
0.5999	313.15	741.83	0.7
0.5999	323.15	733.97	0.7
0.5999	333.15	726.06	0.7
0.7	293.15	759.54	0.7
0.7	298.15	755.59	0.7
0.7	303.15	751.64	0.7
0.7	313.15	743.69	0.7
0.7	323.15	735.69	0.7
0.7	333.15	727.61	0.7
0.7999	293.15	762.21	0.7
0.7999	298.15	758.17	0.7
0.7999	303.15	754.12	0.7
0.7999	313.15	745.98	0.7
0.7999	323.15	737.77	0.7
0.7999	333.15	729.48	0.7
0.9	293.15	765.42	0.7
0.9	298.15	761.26	0.7
0.9	303.15	757.08	0.7
0.9	313.15	748.69	0.7
0.9	323.15	740.22	0.7
0.9	333.15	731.68	0.7

System: methylcyclohexane + dodecane; phases: Liquid
Fixed: Pressure, kPa = 102
Property: Speed of sound, m/s (Liquid); method: Single path-length method
Mole fraction of methylcyclohexane	Temperature, K	Speed of sound, m/s	uncertainty
0.1	293.15	1293.1	0.6
0.1	298.15	1273.6	0.6
0.1	303.15	1254.3	0.6
0.1	313.15	1216.3	0.6
0.1	323.15	1178.9	0.6
0.1	333.15	1142.5	0.6
0.2001	293.15	1288.3	0.6
0.2001	298.15	1268.7	0.6
0.2001	303.15	1249.3	0.6
0.2001	313.15	1211.1	0.6
0.2001	323.15	1173.5	0.6
0.2001	333.15	1137	0.6
0.3	293.15	1283.1	0.6
0.3	298.15	1263.4	0.6
0.3	303.15	1243.9	0.6
0.3	313.15	1205.4	0.6
0.3	323.15	1167.6	0.6
0.3	333.15	1130.7	0.6
0.4001	293.15	1277.5	0.6
0.4001	298.15	1257.7	0.6
0.4001	303.15	1238	0.6
0.4001	313.15	1199.2	0.6
0.4001	323.15	1161.1	0.6
0.4001	333.15	1124	0.6
0.5	293.15	1271.7	0.6
0.5	298.15	1251.7	0.6
0.5	303.15	1231.9	0.6
0.5	313.15	1192.9	0.7
0.5	323.15	1154.4	0.6
0.5	333.15	1116.6	0.6
0.5999	293.15	1265.3	0.6
0.5999	298.15	1245	0.6
0.5999	303.15	1224.8	0.6
0.5999	313.15	1185.2	0.6
0.5999	323.15	1146.3	0.6
0.5999	333.15	1108.3	0.6
0.7	293.15	1258.9	0.5
0.7	298.15	1238.2	0.5
0.7	303.15	1217.8	0.5
0.7	313.15	1177.6	0.5
0.7	323.15	1138.2	0.5
0.7	333.15	1099.9	0.5
0.7999	293.15	1251.8	0.5
0.7999	298.15	1230.8	0.5
0.7999	303.15	1209.9	0.6
0.7999	313.15	1169	0.7
0.7999	323.15	1128.8	0.8
0.7999	333.15	1089.6	1
0.9	293.15	1244.3	0.5
0.9	298.15	1222.7	0.5
0.9	303.15	1201.4	0.5
0.9	313.15	1159.5	0.5
0.9	323.15	1118.3	0.5
0.9	333.15	1078.2	0.5

System: methylcyclohexane + dodecane; phases: Liquid
Fixed: Pressure, kPa = 102
Property: Viscosity, Pa*s (Liquid); method: Concentric cylinders viscometry
Mole fraction of methylcyclohexane	Temperature, K	Viscosity, Pa*s	uncertainty
0.1	293.15	0.00141	1e-05
0.1	298.15	0.00129	1e-05
0.1	303.15	0.0012	1e-05
0.1	313.15	0.00101	1e-05
0.1	323.15	0.000892	1.2e-05
0.1	333.15	0.000783	1.2e-05
0.2001	293.15	0.00134	1e-05
0.2001	298.15	0.00123	1e-05
0.2001	303.15	0.00114	1e-05
0.2001	313.15	0.000965	1.2e-05
0.2001	323.15	0.000852	1.2e-05
0.2001	333.15	0.000752	1.2e-05
0.3	293.15	0.00126	1e-05
0.3	298.15	0.00116	1e-05
0.3	303.15	0.00108	1e-05
0.3	313.15	0.000916	1.2e-05
0.3	323.15	0.000813	1.2e-05
0.3	333.15	0.000716	1.2e-05
0.4001	293.15	0.00118	1e-05
0.4001	298.15	0.00109	1e-05
0.4001	303.15	0.00102	1e-05
0.4001	313.15	0.000871	1.2e-05
0.4001	323.15	0.000774	1.2e-05
0.4001	333.15	0.000692	2.1e-05
0.5	293.15	0.00111	1e-05
0.5	298.15	0.00104	1e-05
0.5	303.15	0.000959	1.2e-05
0.5	313.15	0.000858	1.2e-05
0.5	323.15	0.000732	1.2e-05
0.5	333.15	0.000641	1.1e-05
0.5999	293.15	0.00103	1e-05
0.5999	298.15	0.000968	1.2e-05
0.5999	303.15	0.000889	1.2e-05
0.5999	313.15	0.0008	1.2e-05
0.5999	323.15	0.000681	1.1e-05
0.5999	333.15	0.000606	1.1e-05
0.7	293.15	0.00095	1.2e-05
0.7	298.15	0.000898	1.2e-05
0.7	303.15	0.000826	1.2e-05
0.7	313.15	0.000744	1.2e-05
0.7	323.15	0.000634	1.1e-05
0.7	333.15	0.000564	1.1e-05
0.7999	293.15	0.000875	1.2e-05
0.7999	298.15	0.000828	1.2e-05
0.7999	303.15	0.000762	1.2e-05
0.7999	313.15	0.000689	1.1e-05
0.7999	323.15	0.000589	1.1e-05
0.7999	333.15	0.000527	1.1e-05
0.9	293.15	0.000798	1.2e-05
0.9	298.15	0.000755	1.2e-05
0.9	303.15	0.000696	1.1e-05
0.9	313.15	0.00063	1.1e-05
0.9	323.15	0.000538	1.1e-05
0.9	333.15	0.00048	1.1e-05

System: methylcyclohexane + dodecane; phases: Liquid, Gas
Fixed: Temperature, K = 293
Property: Surface tension liquid-gas, N/m (Liquid); method: Pendant drop shape
Mole fraction of methylcyclohexane	Surface tension liquid-gas, N/m	uncertainty
0.1	0.02486	0.00032
0.2001	0.02484	0.00032
0.3	0.02476	0.00032
0.4001	0.02473	0.00032
0.5	0.0245	0.00032
0.5999	0.02434	0.00032
0.7	0.02425	0.00032
0.7999	0.02411	0.00031
0.9	0.02395	0.00031
