Measured thermophysical data. Density, Speed of Sound, and Heat Capacity Measurements of Polyol Ester Lubricants
Source: J. Chem. Eng. Data, 2018, 10.1021/acs.jced.8b00358
Compound 1: pentaerythritol tetrapentanoate, C25H44O8, InChI=1S/C25H44O8/c1-5-9-13-21(26)30-17-25(18-31-22(27)14-10-6-2,19-32-23(28)15-11-7-3)20-33-24(29)16-12-8-4/h5-20H2,1-4H3, purity 96.7%
Compound 2: pentaerythritol tetraheptanoate, C33H60O8, InChI=1S/C33H60O8/c1-5-9-13-17-21-29(34)38-25-33(26-39-30(35)22-18-14-10-6-2,27-40-31(36)23-19-15-11-7-3)28-41-32(37)24-20-16-12-8-4/h5-28H2,1-4H3, purity 97.3%
Compound 3: pentaerythritol tetranonanoate, C41H76O8, InChI=1S/C41H76O8/c1-5-9-13-17-21-25-29-37(42)46-33-41(34-47-38(43)30-26-22-18-14-10-6-2,35-48-39(44)31-27-23-19-15-11-7-3)36-49-40(45)32-28-24-20-16-12-8-4/h5-36H2,1-4H3, purity 93%

System: pentaerythritol tetrapentanoate; phases: Liquid
Fixed: Pressure, kPa = 83
Property: Mass density, kg/m3 (Liquid); method: Vibrating tube method
Temperature, K	Mass density, kg/m3	uncertainty
343.15	977.88	2.6
338.15	981.88	2.62
333.15	985.88	2.63
328.15	989.89	2.64
323.15	993.9	2.65
318.15	997.92	2.66
313.15	1001.94	2.67
308.15	1005.97	2.69
303.15	1010	2.7
298.15	1014.04	2.71
293.15	1018.08	2.73
288.15	1022.14	2.74
283.15	1026.21	2.76
278.15	1030.29	2.77

System: pentaerythritol tetrapentanoate; phases: Liquid
Fixed: Pressure, kPa = 83
Fixed: Frequency, MHz = 3
Property: Speed of sound, m/s (Liquid); method: Single path-length method
Temperature, K	Speed of sound, m/s	uncertainty
343.15	1205.2	3.7
338.15	1220.5	3.7
333.15	1236.1	3.7
328.15	1251.8	3.7
323.15	1267.6	3.7
318.15	1283.6	3.7
313.15	1299.8	3.7
308.15	1316.2	3.7
303.15	1332.7	3.7
298.15	1349.3	3.7
293.15	1366.2	3.7
288.15	1383.2	3.7
283.15	1400.3	3.7
278.15	1417.7	3.7

System: pentaerythritol tetrapentanoate; phases: Liquid
Fixed: Pressure, kPa = 83
Property: Molar heat capacity at constant pressure, J/K/mol (Liquid); method: DSC
Temperature, K	Molar heat capacity at constant pressure, J/K/mol	uncertainty
263.14	805.33095024	34.02806832
264.15	806.27617436	34.02806832
265.15	807.22139848	34.02806832
266.14	808.1666226	34.02806832
267.14	809.11184672	34.50068038
268.15	809.58445878	34.50068038
269.14	810.5296829	34.50068038
270.14	811.47490702	34.50068038
271.15	812.42013114	34.50068038
272.14	813.36535526	34.50068038
273.14	814.78319144	34.50068038
274.14	815.72841556	34.50068038
275.15	816.67363968	34.02806832
276.14	817.6188638	34.50068038
277.14	819.03669998	34.50068038
278.15	819.9819241	34.50068038
279.15	820.92714822	34.50068038
280.15	821.87237234	34.50068038
281.14	822.81759646	34.50068038
282.15	823.76282058	34.50068038
283.15	824.7080447	34.02806832
284.15	825.65326882	34.50068038
285.15	827.071105	34.50068038
286.14	828.01632912	34.50068038
287.14	828.96155324	34.50068038
288.15	829.90677736	34.50068038
289.15	831.32461354	34.50068038
290.14	832.26983766	34.50068038
291.14	833.68767384	34.97329244
292.14	835.10551002	34.97329244
293.14	836.05073414	34.97329244
294.15	837.46857032	34.97329244
295.14	838.8864065	34.97329244
296.15	839.83163062	34.97329244
297.14	841.2494668	34.97329244
298.14	842.66730298	34.97329244
299.15	843.6125271	34.97329244
300.14	845.03036328	34.97329244
301.15	846.44819946	34.97329244
302.14	847.39342358	34.97329244
303.15	848.81125976	34.97329244
304.15	850.22909594	34.97329244
305.14	851.17432006	34.97329244
306.15	852.11954418	34.97329244
307.15	853.53738036	34.97329244
308.14	854.48260448	34.97329244
309.14	855.90044066	34.97329244
310.15	857.31827684	35.4459045
311.15	858.26350096	35.4459045
312.14	859.68133714	35.4459045
313.15	860.62656126	34.97329244
314.14	862.04439744	34.97329244
315.15	863.46223362	34.97329244
316.14	864.40745774	35.4459045
317.15	865.82529392	35.4459045
318.15	866.77051804	35.4459045
319.14	868.18835422	35.4459045
320.15	869.6061904	35.4459045
321.15	870.55141452	35.4459045
322.14	871.9692507	35.4459045
323.14	873.38708688	35.4459045
324.15	874.332311	35.4459045
325.14	875.75014718	35.4459045
326.15	876.6953713	35.4459045
327.15	878.11320748	35.4459045
328.15	879.53104366	35.4459045
329.14	880.47626778	35.91851656
330.15	881.89410396	35.91851656
331.15	883.31194014	35.91851656
332.14	884.25716426	35.91851656
333.14	885.67500044	35.91851656
334.15	887.09283662	35.91851656
335.14	888.5106728	35.91851656
336.14	889.92850898	35.91851656
337.14	891.34634516	35.91851656
338.14	892.29156928	35.91851656
339.15	893.70940546	35.91851656
340.14	895.12724164	36.39112862
341.14	896.07246576	36.39112862
342.15	897.01768988	36.39112862
343.14	898.43552606	36.39112862
344.15	899.38075018	36.39112862
345.15	900.79858636	36.39112862
346.15	902.21642254	36.39112862
347.14	903.16164666	36.39112862
348.14	904.57948284	36.39112862
349.15	905.99731902	36.39112862
350.14	907.4151552	36.39112862
351.14	908.36037932	36.39112862
352.14	909.7782155	36.39112862
353.14	911.19605168	36.86374068
354.15	912.61388786	36.86374068
355.14	913.55911198	36.86374068
356.15	914.97694816	36.86374068
357.15	916.39478434	36.86374068
358.14	917.81262052	36.86374068
359.15	918.75784464	36.86374068
360.15	920.17568082	36.86374068
361.14	921.593517	36.86374068
362.15	922.53874112	36.86374068
363.15	923.9565773	36.86374068
364.14	925.37441348	36.86374068
365.14	926.79224966	37.33635274
366.15	927.73747378	37.33635274
367.14	929.15530996	37.33635274
368.14	930.57314614	37.33635274
369.14	931.99098232	37.33635274
370.14	933.4088185	37.33635274
371.15	934.35404262	37.33635274
372.14	935.7718788	37.33635274
373.14	937.18971498	37.33635274
374.15	938.60755116	37.33635274
375.14	939.55277528	37.8089648
376.14	940.97061146	37.8089648
377.14	942.38844764	37.8089648
378.15	943.80628382	37.8089648
379.15	944.75150794	37.8089648
380.14	946.16934412	37.8089648
381.15	947.5871803	37.8089648
382.14	949.00501648	38.28157686
383.14	950.42285266	38.28157686
384.14	951.84068884	38.28157686
385.15	952.78591296	38.28157686
386.14	954.20374914	38.28157686
387.14	955.62158532	38.28157686
388.15	957.0394215	38.28157686
389.15	957.98464562	38.28157686
390.14	959.4024818	38.28157686
391.15	960.82031798	38.28157686
392.15	961.7655421	38.28157686
393.15	963.18337828	38.75418892
394.15	964.1286024	38.75418892
395.15	965.54643858	38.75418892
396.14	966.96427476	38.75418892
397.14	968.38211094	38.75418892
398.14	969.79994712	38.75418892
399.14	971.2177833	38.75418892
400.15	972.16300742	39.22680098
401.14	973.5808436	39.22680098
402.14	974.99867978	39.22680098
403.15	975.9439039	39.22680098
404.15	977.36174008	39.22680098
405.14	978.77957626	39.22680098
406.15	979.72480038	39.22680098
407.14	981.14263656	39.22680098
408.14	982.56047274	39.22680098
409.14	983.50569686	39.22680098
410.15	984.92353304	39.22680098
411.15	986.34136922	39.22680098
412.14	987.7592054	39.69941304
413.15	988.70442952	39.69941304
414.15	990.1222657	39.69941304
415.15	991.54010188	39.69941304
416.14	992.95793806	39.69941304
417.15	993.90316218	39.69941304
418.15	995.32099836	40.1720251
419.15	996.26622248	40.1720251
420.14	997.68405866	40.1720251
421.15	999.10189484	40.1720251
422.15	1000.04711896	40.1720251
423.15	1001.46495514	40.1720251
424.14	1002.88279132	40.1720251
425.15	1004.3006275	40.1720251
426.15	1005.24585162	40.64463716
427.14	1006.6636878	40.64463716
428.15	1008.08152398	40.64463716
429.15	1009.0267481	40.64463716
430.14	1010.44458428	40.64463716
431.15	1011.3898084	40.64463716
432.15	1012.80764458	40.64463716

System: pentaerythritol tetraheptanoate; phases: Liquid
Fixed: Pressure, kPa = 83
Property: Mass density, kg/m3 (Liquid); method: Vibrating tube method
Temperature, K	Mass density, kg/m3	uncertainty
343.15	940.2	2.07
338.15	943.92	2.08
333.15	947.66	2.08
328.15	951.39	2.09
323.15	955.13	2.09
318.15	958.87	2.1
313.15	962.62	2.1
308.15	966.38	2.11
303.15	970.14	2.11
298.15	973.91	2.12
293.15	977.69	2.13
288.15	981.48	2.13
283.15	985.27	2.14
278.15	989.09	2.14

System: pentaerythritol tetraheptanoate; phases: Liquid
Fixed: Pressure, kPa = 83
Fixed: Frequency, MHz = 3
Property: Speed of sound, m/s (Liquid); method: Single path-length method
Temperature, K	Speed of sound, m/s	uncertainty
343.15	1224.5	3.2
338.15	1239.6	3.2
333.15	1254.9	3.2
328.15	1270.4	3.2
323.15	1286.1	3.2
318.15	1301.9	3.2
313.15	1317.8	3.2
308.15	1333.9	3.2
303.15	1350.3	3.2
298.15	1367	3.2
293.15	1383.8	3.2
288.15	1400.7	3.2
283.15	1417.7	3.2
278.15	1435	3.2

System: pentaerythritol tetraheptanoate; phases: Liquid
Fixed: Pressure, kPa = 83
Property: Molar heat capacity at constant pressure, J/K/mol (Liquid); method: DSC
Temperature, K	Molar heat capacity at constant pressure, J/K/mol	uncertainty
293.14	1059.1175317	48.5404501
294.14	1060.2871811	48.5404501
295.14	1062.0416552	48.5404501
296.14	1063.7961293	48.5404501
297.14	1065.5506034	48.5404501
298.14	1066.7202528	48.5404501
299.14	1068.4747269	49.1252748
300.14	1070.229201	49.1252748
301.14	1071.3988504	49.1252748
302.14	1073.1533245	49.1252748
303.14	1074.9077986	48.5404501
304.14	1076.077448	48.5404501
305.14	1077.8319221	48.5404501
306.14	1079.0015715	48.5404501
307.14	1080.7560456	49.1252748
308.14	1082.5105197	49.1252748
309.14	1083.6801691	49.1252748
310.14	1085.4346432	49.1252748
311.14	1086.6042926	49.1252748
312.14	1088.3587667	48.5404501
313.14	1090.1132408	48.5404501
314.14	1091.8677149	48.5404501
315.14	1093.0373643	48.5404501
316.14	1094.7918384	49.1252748
317.14	1096.5463125	49.1252748
318.14	1098.3007866	48.5404501
319.14	1099.470436	48.5404501
320.14	1101.2249101	48.5404501
321.14	1102.9793842	48.5404501
322.13	1104.1490336	48.5404501
323.14	1105.9035077	48.5404501
324.14	1107.6579818	49.1252748
325.14	1108.8276312	49.1252748
326.14	1110.5821053	49.1252748
327.14	1112.3365794	49.1252748
328.14	1114.0910535	49.1252748
329.14	1115.8455276	49.1252748
330.14	1117.015177	49.1252748
331.14	1118.7696511	49.1252748
332.14	1120.5241252	49.1252748
333.14	1121.6937746	49.1252748
334.13	1123.4482487	49.1252748
335.14	1125.2027228	49.1252748
336.14	1126.9571969	49.7100995
337.14	1128.1268463	49.1252748
338.14	1129.8813204	49.1252748
339.14	1131.6357945	49.1252748
340.14	1133.3902686	49.1252748
341.13	1134.559918	49.1252748
342.14	1136.3143921	49.1252748
343.14	1138.0688662	49.1252748
344.14	1139.8233403	49.1252748
345.13	1141.5778144	49.1252748
346.14	1143.3322885	49.7100995
347.14	1145.0867626	49.7100995
348.14	1146.256412	49.1252748
349.14	1148.0108861	49.7100995
350.14	1149.7653602	49.7100995
351.14	1151.5198343	49.7100995
352.14	1153.2743084	49.7100995
353.14	1154.4439578	49.7100995
354.14	1156.1984319	49.7100995
355.14	1157.952906	49.7100995
356.14	1159.7073801	49.7100995
357.14	1160.8770295	49.7100995
358.14	1162.6315036	49.7100995
359.14	1164.3859777	49.7100995
360.14	1166.1404518	49.7100995
361.14	1167.8949259	49.7100995
362.14	1169.0645753	49.7100995
363.14	1170.8190494	50.2949242
364.14	1172.5735235	50.2949242
365.14	1174.3279976	50.2949242
366.14	1176.0824717	50.2949242
367.14	1177.2521211	50.2949242
368.14	1179.0065952	50.2949242
369.14	1180.7610693	50.2949242
370.14	1182.5155434	50.2949242
371.14	1184.2700175	50.2949242
372.14	1185.4396669	50.2949242
373.14	1187.194141	50.2949242
374.14	1188.9486151	50.2949242
375.14	1190.7030892	50.8797489
376.14	1192.4575633	50.8797489
378.14	1195.9665115	50.8797489
379.14	1197.7209856	50.8797489
380.14	1198.890635	50.8797489
381.14	1200.6451091	50.8797489
382.14	1202.3995832	50.8797489
383.14	1204.1540573	50.8797489
384.14	1205.9085314	50.8797489
385.14	1207.6630055	50.8797489
386.14	1209.4174796	50.8797489
387.14	1211.1719537	51.4645736
388.14	1212.9264278	51.4645736
389.14	1214.0960772	51.4645736
390.14	1215.8505513	51.4645736
391.14	1217.6050254	51.4645736
392.14	1219.3594995	51.4645736
393.14	1220.5291489	51.4645736
394.14	1222.283623	51.4645736
395.14	1224.0380971	51.4645736
396.14	1225.2077465	51.4645736
397.14	1226.9622206	51.4645736
398.14	1228.7166947	51.4645736
399.14	1230.4711688	52.0493983
400.14	1232.2256429	52.0493983
401.14	1233.980117	52.0493983
402.14	1235.7345911	52.0493983
403.14	1236.9042405	52.0493983
404.14	1238.6587146	52.0493983
405.14	1240.4131887	52.0493983
406.14	1242.1676628	52.0493983
407.14	1243.9221369	52.0493983
408.14	1245.676611	52.0493983
409.14	1247.4310851	52.0493983
410.14	1248.6007345	52.0493983
411.14	1250.3552086	52.634223
412.13	1252.1096827	52.634223
413.14	1253.8641568	52.634223
414.13	1255.6186309	52.634223
415.14	1257.373105	52.634223
416.14	1258.5427544	53.2190477
417.14	1260.2972285	53.2190477

System: pentaerythritol tetranonanoate; phases: Liquid
Fixed: Pressure, kPa = 83
Property: Mass density, kg/m3 (Liquid); method: Vibrating tube method
Temperature, K	Mass density, kg/m3	uncertainty
343.15	918.32	12.03
338.15	921.88	12.12
333.15	925.45	12.21
328.15	929.02	12.3
323.15	932.6	12.39
318.15	936.18	12.49
313.15	939.77	12.58
308.15	943.37	12.67
303.15	946.97	12.77
298.15	950.58	12.86
293.15	954.2	12.96
288.15	957.85	13.06
283.15	961.49	13.15

System: pentaerythritol tetranonanoate; phases: Liquid
Fixed: Pressure, kPa = 83
Fixed: Frequency, MHz = 3
Property: Speed of sound, m/s (Liquid); method: Single path-length method
Temperature, K	Speed of sound, m/s	uncertainty
343.15	1246.4	7.2
338.15	1261.4	7.2
333.15	1276.6	7.2
328.15	1292	7.2
323.15	1307.5	7.2
318.15	1323.2	7.2
313.15	1339.1	7.2
308.15	1355.2	7.2
303.15	1371.5	7.2
298.15	1387.9	7.2
293.15	1404.7	7.2
288.15	1421.7	7.2
283.15	1438.9	7.2

System: pentaerythritol tetranonanoate; phases: Liquid
Fixed: Pressure, kPa = 83
Property: Molar heat capacity at constant pressure, J/K/mol (Liquid); method: DSC
Temperature, K	Molar heat capacity at constant pressure, J/K/mol	uncertainty
313.13	1352.2524396	54.36891252
314.13	1354.34355162	54.36891252
315.14	1355.7376263	54.36891252
316.13	1357.82873832	54.36891252
317.14	1359.91985034	55.06594986
318.13	1362.01096236	54.36891252
319.13	1363.40503704	54.36891252
320.14	1365.49614906	55.06594986
321.13	1367.58726108	55.06594986
322.13	1368.98133576	55.06594986
323.14	1371.07244778	55.06594986
324.13	1373.1635598	55.06594986
325.13	1374.55763448	55.06594986
326.13	1376.6487465	55.7629872
327.13	1378.73985852	55.7629872
328.14	1380.83097054	55.06594986
329.14	1382.92208256	55.7629872
330.13	1384.31615724	55.06594986
331.13	1386.40726926	55.06594986
332.13	1388.49838128	55.7629872
333.13	1390.5894933	55.7629872
334.13	1392.68060532	55.7629872
335.13	1394.77171734	55.7629872
336.14	1396.86282936	55.7629872
337.13	1398.95394138	55.7629872
338.13	1401.0450534	56.46002454
339.13	1403.13616542	56.46002454
340.13	1405.22727744	56.46002454
341.14	1406.62135212	56.46002454
342.14	1408.71246414	56.46002454
343.13	1410.80357616	56.46002454
344.13	1412.89468818	56.46002454
345.14	1414.9858002	56.46002454
346.13	1417.07691222	56.46002454
347.13	1419.16802424	56.46002454
348.13	1421.25913626	56.46002454
349.13	1423.35024828	56.46002454
350.14	1425.4413603	56.46002454
351.13	1427.53247232	56.46002454
352.13	1429.62358434	56.46002454
353.14	1431.71469636	57.15706188
354.13	1433.80580838	57.15706188
355.14	1435.8969204	57.15706188
356.13	1437.98803242	57.15706188
357.13	1440.07914444	57.15706188
358.13	1442.17025646	57.15706188
359.13	1444.26136848	57.15706188
360.13	1446.3524805	57.15706188
361.13	1448.44359252	57.15706188
362.13	1450.53470454	57.15706188
363.13	1452.62581656	57.15706188
364.13	1454.71692858	57.85409922
365.13	1456.8080406	57.85409922
366.13	1458.89915262	57.85409922
367.13	1460.99026464	57.85409922
368.13	1463.08137666	57.85409922
369.13	1465.17248868	57.85409922
370.13	1467.2636007	57.85409922
371.13	1469.35471272	57.85409922
372.13	1471.44582474	57.85409922
373.13	1473.53693676	57.85409922
374.14	1475.62804878	58.55113656
375.14	1477.7191608	58.55113656
376.13	1479.81027282	58.55113656
377.13	1481.90138484	58.55113656
378.13	1483.99249686	58.55113656
379.13	1486.08360888	58.55113656
380.14	1488.1747209	58.55113656
381.13	1490.96287026	58.55113656
382.13	1493.05398228	58.55113656
383.13	1495.1450943	58.55113656
384.13	1497.23620632	58.55113656
385.13	1499.32731834	58.55113656
386.13	1501.41843036	58.55113656
387.13	1503.50954238	58.55113656
388.13	1505.6006544	58.55113656
389.13	1507.69176642	59.2481739
390.13	1509.78287844	59.2481739
391.13	1511.87399046	59.2481739
392.13	1513.96510248	59.2481739
393.13	1516.0562145	59.2481739
394.13	1518.14732652	59.2481739
395.14	1520.23843854	59.94521124
396.13	1523.0265879	59.94521124
397.13	1525.11769992	59.94521124
398.13	1527.20881194	59.94521124
399.13	1529.29992396	59.94521124
400.13	1531.39103598	59.94521124
401.13	1533.482148	59.94521124
402.14	1535.57326002	59.94521124
403.13	1537.66437204	59.94521124
404.14	1539.75548406	59.94521124
405.13	1541.84659608	59.94521124
406.13	1543.9377081	59.94521124
407.13	1546.02882012	59.94521124
408.13	1548.11993214	59.94521124
409.13	1550.9080815	60.64224858
410.14	1552.99919352	60.64224858
411.13	1554.3932682	60.64224858
412.14	1557.18141756	60.64224858
