Measured thermophysical data. Density and Volumetric Properties of Binary Mixtures of CO2 + Hexadecane from (303.2 to 473.2) K and Pressures up to 50.0 MPa
Source: J. Chem. Eng. Data, 2019, 10.1021/acs.jced.9b00078
Compound 1: carbon dioxide, CO2, InChI=1S/CO2/c2-1-3, purity 99.99%
Compound 2: hexadecane, C16H34, InChI=1S/C16H34/c1-3-5-7-9-11-13-15-16-14-12-10-8-6-4-2/h3-16H2,1-2H3, purity 99%

System: hexadecane; phases: Liquid
Property: Mass density, kg/m3 (Liquid); method: Other PVT measurement
Temperature, K	Pressure, kPa	Mass density, kg/m3	uncertainty
298.2	10000	775.86	2.04
303.2	10000	773.66	2.05
313.2	10000	764.59	2.04
323.2	10000	759.8	2.04
333.2	10000	753.38	2.04
348.2	10000	744.11	2.04
353.2	10000	740.03	2.04
373.2	10000	727.81	2.08
393.2	10000	713.25	2.08
413.2	10000	700.27	2.07
423.2	10000	694.3	2.08
433.2	10000	687.01	2.08
453.2	10000	674.02	2.07
463.2	10000	669.34	2.08
473.2	10000	660.45	2.11
298.2	20000	782.89	2.04
303.2	20000	779.38	2.04
313.2	20000	773.09	2.04
323.2	20000	766.48	2.04
333.2	20000	760.44	2.04
348.2	20000	751.32	2.04
353.2	20000	748.27	2.04
373.2	20000	736.02	2.07
393.2	20000	723.64	2.07
413.2	20000	711.23	2.07
423.2	20000	705.01	2.07
433.2	20000	698.74	2.07
453.2	20000	686.53	2.07
463.2	20000	680.32	2.07
473.2	20000	673.95	2.08
298.2	30000	788.75	2.05
303.2	30000	785.01	2.04
313.2	30000	778.81	2.04
323.2	30000	773.19	2.04
333.2	30000	767.3	2.04
348.2	30000	758.67	2.04
353.2	30000	755.72	2.04
373.2	30000	744.18	2.07
393.2	30000	732.3	2.07
413.2	30000	720.49	2.07
423.2	30000	714.62	2.07
433.2	30000	708.69	2.07
453.2	30000	696.77	2.07
463.2	30000	690.8	2.07
473.2	30000	685.23	2.07
298.2	40000	793.81	2.05
303.2	40000	790.38	2.04
313.2	40000	784.36	2.04
323.2	40000	778.83	2.04
333.2	40000	773.53	2.04
348.2	40000	765.1	2.04
353.2	40000	762.19	2.04
373.2	40000	751.02	2.07
393.2	40000	739.4	2.06
413.2	40000	728.42	2.06
423.2	40000	722.88	2.06
433.2	40000	717.4	2.06
453.2	40000	706.13	2.06
463.2	40000	700.49	2.06
473.2	40000	695.19	2.06
298.2	50000	799.18	2.05
303.2	50000	795.64	2.05
313.2	50000	789.46	2.04
323.2	50000	784.38	2.04
333.2	50000	779.1	2.04
348.2	50000	770.98	2.04
353.2	50000	768.11	2.04
373.2	50000	757.42	2.06
393.2	50000	746.41	2.06
413.2	50000	735.85	2.06
423.2	50000	730.73	2.06
433.2	50000	725.14	2.06
453.2	50000	714.59	2.06
463.2	50000	709.18	2.06
473.2	50000	704.05	2.06

System: carbon dioxide + hexadecane; phases: Liquid
Property: Mass density, kg/m3 (Liquid); method: Other PVT measurement
Pressure, kPa	Temperature, K	Mole fraction of carbon dioxide	Mass density, kg/m3	uncertainty
10000	303.2	0.2555	780.45	7.15
10000	313.2	0.2555	773.23	7.15
10000	333.2	0.2555	758.92	7.15
10000	353.2	0.2555	744.43	7.15
10000	373.2	0.2555	729.96	7.15
10000	393.2	0.2555	715.39	7.15
10000	413.2	0.2555	700.19	7.15
10000	433.2	0.2555	685.46	7.15
10000	453.2	0.2555	670.23	7.15
10000	473.2	0.2555	654.67	7.15
20000	303.2	0.2555	787.34	7.15
20000	313.2	0.2555	780.1	7.15
20000	333.2	0.2555	766.68	7.15
20000	353.2	0.2555	753	7.15
20000	373.2	0.2555	739.28	7.15
20000	393.2	0.2555	725.96	7.15
20000	413.2	0.2555	712.05	7.15
20000	433.2	0.2555	698.1	7.15
20000	453.2	0.2555	684	7.15
20000	473.2	0.2555	670.22	7.15
30000	303.2	0.2555	794.56	7.15
30000	313.2	0.2555	787.59	7.15
30000	333.2	0.2555	774.7	7.15
30000	353.2	0.2555	761.96	7.15
30000	373.2	0.2555	749.11	7.15
30000	393.2	0.2555	736.15	7.15
30000	413.2	0.2555	723.64	7.15
30000	433.2	0.2555	710.65	7.15
30000	453.2	0.2555	697.79	7.15
30000	473.2	0.2555	684.48	7.15
40000	303.2	0.2555	800.47	7.15
40000	313.2	0.2555	793.9	7.15
40000	333.2	0.2555	781.61	7.15
40000	353.2	0.2555	769.42	7.15
40000	373.2	0.2555	757.25	7.15
40000	393.2	0.2555	745.02	7.15
40000	413.2	0.2555	732.84	7.15
40000	433.2	0.2555	721.13	7.15
40000	453.2	0.2555	708.66	7.15
40000	473.2	0.2555	696.75	7.15
50000	303.2	0.2555	807.2	7.15
50000	313.2	0.2555	800.32	7.15
50000	333.2	0.2555	788.15	7.15
50000	353.2	0.2555	776.26	7.15
50000	373.2	0.2555	764.83	7.15
50000	393.2	0.2555	753.11	7.15
50000	413.2	0.2555	741.57	7.15
50000	433.2	0.2555	730.38	7.15
50000	453.2	0.2555	718.53	7.15
50000	473.2	0.2555	707.53	7.15
10000	313.2	0.3703	778.18	7.15
10000	333.2	0.3703	759.26	7.15
10000	353.2	0.3703	746.79	7.15
10000	373.2	0.3703	731.25	7.15
10000	393.2	0.3703	715.75	7.15
10000	413.2	0.3703	698.68	7.15
10000	433.2	0.3703	681.51	7.15
10000	453.2	0.3703	664.54	7.15
10000	473.2	0.3703	647.28	7.16
20000	303.2	0.3703	793.48	7.15
20000	313.2	0.3703	785.88	7.15
20000	333.2	0.3703	771.19	7.15
20000	353.2	0.3703	756.53	7.15
20000	373.2	0.3703	742.07	7.15
20000	393.2	0.3703	727.42	7.15
20000	413.2	0.3703	712.39	7.15
20000	433.2	0.3703	697.06	7.15
20000	453.2	0.3703	681.26	7.15
20000	473.2	0.3703	665.86	7.16
30000	303.2	0.3703	801.32	7.15
30000	313.2	0.3703	793.73	7.15
30000	333.2	0.3703	780.08	7.15
30000	353.2	0.3703	766.24	7.15
30000	373.2	0.3703	752.26	7.15
30000	393.2	0.3703	738.82	7.15
30000	413.2	0.3703	725.13	7.15
30000	433.2	0.3703	711.36	7.15
30000	453.2	0.3703	697.06	7.15
30000	473.2	0.3703	683.13	7.15
40000	303.2	0.3703	807.74	7.15
40000	313.2	0.3703	800.81	7.15
40000	333.2	0.3703	787.53	7.15
40000	353.2	0.3703	774.17	7.15
40000	373.2	0.3703	761.32	7.15
40000	393.2	0.3703	748.53	7.15
40000	413.2	0.3703	735.68	7.15
40000	433.2	0.3703	723.06	7.15
40000	453.2	0.3703	709.8	7.2
40000	473.2	0.3703	697.04	7.15
50000	303.2	0.3703	814.58	7.15
50000	313.2	0.3703	807.06	7.15
50000	333.2	0.3703	794.36	7.15
50000	353.2	0.3703	782.12	7.15
50000	373.2	0.3703	769.45	7.15
50000	393.2	0.3703	756.96	7.15
50000	413.2	0.3703	744.66	7.15
50000	433.2	0.3703	732.8	7.1
50000	453.2	0.3703	720.85	7.15
50000	473.2	0.3703	708.83	7.15
30000	303.2	0.7348	839.16	7.16
30000	313.2	0.7348	828.9	7.2
30000	333.2	0.7348	807.53	7.15
30000	353.2	0.7348	785.71	7.15
30000	373.2	0.7348	763.15	7.16
30000	393.2	0.7348	741.75	7.16
30000	413.2	0.7348	718.23	7.17
30000	433.2	0.7348	696.05	7.18
30000	453.2	0.7348	671.94	7.18
30000	473.2	0.7348	647.71	7.24
40000	303.2	0.7348	848.5	7.2
40000	313.2	0.7348	839.65	7.15
40000	333.2	0.7348	821.38	7.15
40000	353.2	0.7348	800.32	7.15
40000	373.2	0.7348	779.76	7.15
40000	393.2	0.7348	758.8	7.2
40000	413.2	0.7348	738	7
40000	433.2	0.7348	717.02	7.16
40000	453.2	0.7348	695.98	7.16
40000	473.2	0.7348	675.69	7.17
50000	303.2	0.7348	860.91	7.17
50000	313.2	0.7348	850.12	7.16
50000	333.2	0.7348	831.42	7.15
50000	353.2	0.7348	812.92	7.15
50000	373.2	0.7348	793.19	7.16
50000	393.2	0.7348	773.38	7.15
50000	413.2	0.7348	755.78	7.16
50000	433.2	0.7348	736.34	7.16
50000	453.2	0.7348	717.38	7.16
50000	473.2	0.7348	698.15	7.16
30000	303.2	0.8645	872.71	7.16
30000	313.2	0.8645	857.83	7.16
30000	333.2	0.8645	827.32	7.16
30000	353.2	0.8645	793.96	7.16
30000	373.2	0.8645	758.29	7.17
30000	393.2	0.8645	725.26	7.18
30000	413.2	0.8645	688.46	7.2
30000	433.2	0.8645	649.67	7.23
30000	453.2	0.8645	613.21	7.25
30000	473.2	0.8645	578.59	7.26
40000	303.2	0.8645	885.49	7.16
40000	313.2	0.8645	870.69	7.16
40000	333.2	0.8645	840.65	7.16
40000	353.2	0.8645	812.52	7.16
40000	373.2	0.8645	785.33	7.17
40000	393.2	0.8645	757.98	7.17
40000	413.2	0.8645	729.63	7.18
40000	433.2	0.8645	702.92	7.2
40000	453.2	0.8645	673.61	7.21
40000	473.2	0.8645	644.14	7.23
50000	303.2	0.8645	900.22	7.16
50000	313.2	0.8645	885.44	7.16
50000	333.2	0.8645	859.09	7.16
50000	353.2	0.8645	833.73	7.16
50000	373.2	0.8645	810.58	7.17
50000	393.2	0.8645	783.06	7.17
50000	413.2	0.8645	759.09	7.17
50000	433.2	0.8645	735.07	7.18
50000	453.2	0.8645	709.83	7.18
50000	473.2	0.8645	685.57	7.19
