Measured thermophysical data. pvT Properties for R 227ea and HFE 7100 in the Liquid Phase
Source: J. Chem. Eng. Data, 2016, 10.1021/acs.jced.5b00784
Compound 1: 1-methoxy-nonafluorobutane, C5H3F9O, InChI=1S/C5H3F9O/c1-15-5(13,14)3(8,9)2(6,7)4(10,11)12/h1H3, purity 99.91%
Compound 2: methyl nonafluoroisobutyl ether, C5H3F9O, InChI=1S/C5H3F9O/c1-15-5(13,14)2(6,3(7,8)9)4(10,11)12/h1H3, purity 99.91%
Compound 3: 1,1,1,2,3,3,3-heptafluoropropane, C3HF7, InChI=1S/C3HF7/c4-1(2(5,6)7)3(8,9)10/h1H, purity 99.9%

System: 1,1,1,2,3,3,3-heptafluoropropane; phases: Liquid
Property: Mass density, kg/m3 (Liquid); method: ISOCHOR
Temperature, K	Pressure, kPa	Mass density, kg/m3	uncertainty
279.512	839	1466.6	4.4
281.323	1993	1465.2	4.4
283.419	3331	1464.8	4.4
285.367	4577	1464.6	4.4
287.364	5848	1464.3	4.4
289.407	7162	1464.1	4.4
291.465	8474	1463	4
293.405	9717	1463.7	4.4
295.288	10924	1463.5	4.4
297.178	12136	1463.3	4.4
299.382	13527	1463.1	4.4
301.398	14839	1462.9	4.4
302.937	15829	1462.8	4.4
268.918	1786	1509.3	4.5
271.83	3840	1508.5	4.5
274.295	5598	1508.1	4.5
277.704	8059	1507.7	4.5
280.801	10284	1507.3	4.5
283.611	12288	1507	4.5
286.698	14495	1506.7	4.5
289.311	16361	1506.4	4.5
286.426	1142	1441.9	4.3
289.142	2747	1440.7	4.3
292.001	4466	1440.2	4.3
294.978	6251	1439.8	4.3
297.852	7978	1439.5	4.3
300.889	9788	1439.2	4.3
303.821	11544	1438.9	4.3
306.881	13381	1438.6	4.3
310.047	15281	1438.3	4.3
312.948	17014	1438	4.3
286.668	1203	1440.9	4.3
288.433	2193	1440	4.3
290.44	3367	1439.5	4.3
292.447	4875	1439.1	4.3
294.612	5846	1438.9	4.3
296.721	7101	1438	4
298.699	8273	1438.5	4.3
300.868	9562	1438.2	4.3
302.736	10686	1438.1	4.3
304.795	11916	1437.9	4.3
306.954	13205	1437.7	4.3
308.997	14427	1437.5	4.3
311.053	15654	1437.3	4.3
312.852	16727	1437.1	4.3

System: 1-methoxy-nonafluorobutane + methyl nonafluoroisobutyl ether; phases: Liquid
Fixed: Mole fraction of 1-methoxy-nonafluorobutane = 0.377
Property: Mass density, kg/m3 (Liquid); method: Vibrating tube method
Temperature, K	Pressure, kPa	Mass density, kg/m3	uncertainty
275.017	1984	1579.6	4.7
277.094	3723	1579.2	4.7
279.259	5543	1578.7	4.8
281.337	7289	1578.3	4.8
283.5	9101	1577.9	4.8
285.493	10769	1577.5	4.8
287.586	12510	1577.1	4.8
289.564	14156	1576.7	4.8
291.625	15869	1576.2	4.8
293.525	17446	1575.9	4.8
295.589	19153	1575.4	4.8
291.672	10101	1562	4.7
289.599	8448	1562.5	4.7
287.538	6789	1562.9	4.7
286.257	5757	1563.1	4.7
284.437	4290	1563.5	4.7
281.924	2278	1564	4.7
279.746	524	1564.4	4.7
279.434	273	1564.5	4.7
279.748	527	1564.4	4.7
280.461	1101	1564.3	4.7
282.377	2648	1563.9	4.7
283.651	3673	1563.6	4.7
285.416	5083	1563.3	4.7
288.039	7178	1562.8	4.7
289.6	8425	1562.5	4.7
291.665	10070	1562	4.7
287.535	6765	1562.9	4.7
286.256	5744	1563.1	4.7
292.609	10815	1561.9	4.7
294.314	12183	1561.5	4.7
296.289	13751	1561.1	4.7
298.566	15560	1560.7	4.7
300.654	17215	1560.3	4.7
302.596	18786	1559.9	4.7
302.596	18751	1559.9	4.7
301.342	17761	1560.1	4.7
299.645	16411	1560.5	4.7
295.319	12982	1561.3	4.7
293.435	11481	1561.7	4.7
291.665	10052	1562	4.7
289.721	8502	1562.4	4.7
287.675	6872	1562.8	4.7
285.935	5471	1563.2	4.7
284.037	3949	1563.6	4.7
281.94	2249	1564	4.7
280.941	1442	1564.2	4.7
292.704	10872	1561.2	4.7
287.265	6535	1562.3	4.7
281.546	1942	1563.5	4.7
280.365	972	1563.7	4.7
286.607	5994	1562.5	4.7
289.6	8462	1562.2	4.7
288.898	7893	1562.5	4.7
286.953	6330	1562.9	4.7
285.095	4838	1563.3	4.7
283.21	3315	1563.7	4.7
