Measured thermophysical data. Vapor Liquid Equilibria Measurements for the Five Linear C6 Esters with n-Octane
Source: J. Chem. Eng. Data, 2016, 10.1021/acs.jced.5b01058
Compound 1: heptane, C7H16, InChI=1S/C7H16/c1-3-5-7-6-4-2/h3-7H2,1-2H3, purity 99%
Compound 2: butanone, C4H8O, InChI=1S/C4H8O/c1-3-4(2)5/h3H2,1-2H3, purity 99.7%
Compound 3: octane, C8H18, InChI=1S/C8H18/c1-3-5-7-8-6-4-2/h3-8H2,1-2H3, purity 99%
Compound 4: methyl pentanoate, C6H12O2, InChI=1S/C6H12O2/c1-3-4-5-6(7)8-2/h3-5H2,1-2H3, purity 99%
Compound 5: ethyl butanoate, C6H12O2, InChI=1S/C6H12O2/c1-3-5-6(7)8-4-2/h3-5H2,1-2H3, purity 99%
Compound 6: propyl propanoate, C6H12O2, InChI=1S/C6H12O2/c1-3-5-8-6(7)4-2/h3-5H2,1-2H3, purity 99%
Compound 7: butyl ethanoate, C6H12O2, InChI=1S/C6H12O2/c1-3-4-5-8-6(2)7/h3-5H2,1-2H3, purity 99.5%
Compound 8: pentyl methanoate, C6H12O2, InChI=1S/C6H12O2/c1-2-3-4-5-8-6-7/h6H,2-5H2,1H3, purity 95%

System: heptane; phases: Liquid, Gas
Property: Vapor or sublimation pressure, kPa (Liquid); method: Ebulliometric method (Recirculating still)
Temperature, K	Vapor or sublimation pressure, kPa	uncertainty
368.85	94	0.7

System: butanone; phases: Liquid, Gas
Property: Vapor or sublimation pressure, kPa (Liquid); method: Ebulliometric method (Recirculating still)
Temperature, K	Vapor or sublimation pressure, kPa	uncertainty
350.25	94	0.7

System: octane; phases: Liquid, Gas
Property: Vapor or sublimation pressure, kPa (Liquid); method: Ebulliometric method (Recirculating still)
Temperature, K	Vapor or sublimation pressure, kPa	uncertainty
380.82	60	1
380.94	60	1
380.85	60	1
380.76	60	1
380.87	60	1
380.78	60	1
380.84	60	1

System: methyl pentanoate; phases: Liquid, Gas
Property: Vapor or sublimation pressure, kPa (Liquid); method: Ebulliometric method (Recirculating still)
Temperature, K	Vapor or sublimation pressure, kPa	uncertainty
400.48	101.3	0.9
400.07	100.4	0.9
398.03	95.08	0.96
395.42	88.17	0.94
391.14	77.71	0.91
387.18	69.02	0.9
382.55	59.35	0.75
378.84	52.83	0.83
374.53	45.81	0.81
370.86	40.47	0.79
366.7	35.06	0.78
361.82	29.41	0.77
383.29	60	0.8

System: ethyl butanoate; phases: Liquid, Gas
Property: Vapor or sublimation pressure, kPa (Liquid); method: Ebulliometric method (Recirculating still)
Temperature, K	Vapor or sublimation pressure, kPa	uncertainty
393.78	101.3	1.01
393.63	100.4	0.99
390.23	90.84	0.98
387.65	84.14	0.94
384.82	77.2	0.91
379.65	65.75	0.9
376.28	58.98	0.83
373.83	54.4	0.84
371.33	50	0.82
365.24	40.41	0.81
361.56	35.41	0.79
377.23	60	0.9
377.21	60	0.9

System: propyl propanoate; phases: Liquid, Gas
Property: Vapor or sublimation pressure, kPa (Liquid); method: Ebulliometric method (Recirculating still)
Temperature, K	Vapor or sublimation pressure, kPa	uncertainty
395.51	101.3	1
392.74	93.37	0.99
390.13	86.38	0.96
386.81	77.9	0.93
383.56	70.32	0.9
379.07	60.83	0.95
373.82	51.21	0.84
371.88	47.9	0.81
367.3	40.92	0.8
361.75	33.58	0.79
378.75	60	1

System: butyl ethanoate; phases: Liquid, Gas
Property: Vapor or sublimation pressure, kPa (Liquid); method: Ebulliometric method (Recirculating still)
Temperature, K	Vapor or sublimation pressure, kPa	uncertainty
399.09	101.3	1.03
398.35	99.03	1.03
394.58	88.69	0.96
391.2	80.09	0.93
388.06	72.71	0.89
382.08	60.15	0.87
380.1	56.43	0.83
373.32	45.02	0.82
370.9	41.42	0.79
364.47	32.95	0.78
361.85	29.92	0.77
382.01	60	0.9
381.99	60	0.9

System: pentyl methanoate; phases: Liquid, Gas
Property: Vapor or sublimation pressure, kPa (Liquid); method: Ebulliometric method (Recirculating still)
Temperature, K	Vapor or sublimation pressure, kPa	uncertainty
405.12	101.3	1.09
402.19	93.45	1.07
399.55	86.56	1.03
396.89	80.16	1
394.01	73.5	0.97
391.65	68.46	0.94
387.67	60.5	0.9
385.08	55.79	0.88
381.35	49.42	0.86
377.87	44.06	0.83
374.41	39.15	0.81
370.04	33.67	0.8
387.46	60	0.9
387.4	60	0.9

System: butanone + heptane; phases: Gas, Liquid
Property: Mole fraction of butanone (Gas); method: Chromatography
Temperature, K	Mole fraction of butanone	Mole fraction of butanone	uncertainty
368.85	0	0	
364.71	0.033	0.156	0.03
361.65	0.069	0.26	0.022
359.92	0.105	0.325	0.055
357.54	0.139	0.397	0.025
357.12	0.152	0.406	0.025
354.8	0.201	0.485	0.021
354.26	0.22	0.489	0.024
354.52	0.226	0.49	0.021
351.6	0.302	0.572	0.022
350.51	0.353	0.596	0.021
350.21	0.378	0.603	0.022
349.74	0.417	0.623	0.023
349.14	0.466	0.641	0.021
348.69	0.515	0.657	0.021
348.77	0.526	0.661	0.022
348.32	0.575	0.678	0.021
348.04	0.604	0.688	0.022
347.86	0.642	0.705	0.021
347.75	0.685	0.719	0.022
347.6	0.725	0.737	0.023
347.61	0.764	0.755	0.245
347.76	0.798	0.777	0.026
347.92	0.829	0.802	0.026
348.04	0.86	0.824	0.025
348.44	0.901	0.864	0.025
348.95	0.937	0.904	0.032
349.24	0.961	0.937	0.032
349.89	0.985	0.975	0.024
350.25	1	1	

System: butanone + heptane; phases: Liquid, Gas
Fixed: Pressure, kPa = 94
Property: Boiling temperature at pressure P, K (Liquid); method: Ebulliometric method (Recirculating still)
Mole fraction of butanone	Boiling temperature at pressure P, K	uncertainty
0	368.85	0.3
0.033	364.71	2.1
0.069	361.65	1.36
0.105	359.92	1.21
0.139	357.54	1.09
0.152	357.12	1.11
0.201	354.8	0.79
0.22	354.26	0.79
0.226	354.52	0.73
0.302	351.6	0.71
0.353	350.51	0.48
0.378	350.21	0.38
0.417	349.74	0.38
0.466	349.14	0.37
0.515	348.69	0.33
0.526	348.77	0.33
0.575	348.32	0.35
0.604	348.04	0.33
0.642	347.86	0.3
0.685	347.75	0.3
0.725	347.6	0.3
0.764	347.61	0.3
0.798	347.76	0.31
0.829	347.92	0.31
0.86	348.04	0.33
0.901	348.44	0.38
0.937	348.95	0.4
0.961	349.24	0.49
0.985	349.89	0.5
1	350.25	0.3

System: octane + methyl pentanoate; phases: Gas, Liquid
Property: Mole fraction of methyl pentanoate (Gas); method: Chromatography
Temperature, K	Mole fraction of methyl pentanoate	Mole fraction of methyl pentanoate	uncertainty
380.82	0	0	
380.94	0	0	
379.94	0.051	0.082	0.027
379.32	0.095	0.142	0.027
379.05	0.142	0.185	0.026
378.94	0.131	0.186	0.027
378.58	0.173	0.223	0.026
378.56	0.18	0.231	0.026
378.15	0.224	0.267	0.028
377.96	0.269	0.307	0.026
377.95	0.271	0.308	0.026
377.69	0.33	0.35	0.027
377.71	0.353	0.37	0.025
377.64	0.374	0.381	0.027
377.53	0.409	0.406	0.026
377.64	0.413	0.413	0.026
377.65	0.45	0.432	0.026
377.74	0.474	0.453	0.026
377.69	0.494	0.46	0.026
377.73	0.524	0.488	0.029
377.91	0.562	0.509	0.051
377.84	0.572	0.519	0.027
378.05	0.612	0.552	0.03
378.07	0.621	0.558	0.028
378.21	0.644	0.574	0.029
378.34	0.658	0.585	0.028
378.33	0.671	0.6	0.034
378.51	0.701	0.62	0.026
378.7	0.729	0.637	0.029
378.87	0.739	0.653	0.026
379.02	0.759	0.672	0.026
379.53	0.789	0.704	0.026
379.67	0.804	0.717	0.026
379.71	0.818	0.73	0.026
380.05	0.84	0.752	0.027
380.24	0.857	0.775	0.027
380.69	0.88	0.804	0.027
381.08	0.899	0.833	0.028
381.44	0.923	0.864	0.028
381.43	0.928	0.867	0.028
381.9	0.947	0.899	0.028
381.98	0.956	0.916	0.029
382.12	0.962	0.925	0.028
382.78	0.984	0.968	0.026
383.29	1	1	

System: octane + methyl pentanoate; phases: Liquid, Gas
Fixed: Pressure, kPa = 60
Property: Boiling temperature at pressure P, K (Liquid); method: Ebulliometric method (Recirculating still)
Mole fraction of methyl pentanoate	Boiling temperature at pressure P, K	uncertainty
0	380.82	0.35
0	380.94	0.35
0.051	379.94	0.47
0.095	379.32	0.43
0.142	379.05	0.4
0.131	378.94	0.4
0.173	378.58	0.41
0.18	378.56	0.41
0.224	378.15	0.38
0.269	377.96	0.36
0.271	377.95	0.36
0.33	377.69	0.36
0.353	377.71	0.35
0.374	377.64	0.36
0.409	377.53	0.35
0.413	377.64	0.35
0.45	377.65	0.35
0.474	377.74	0.35
0.494	377.69	0.35
0.524	377.73	0.36
0.562	377.91	0.36
0.572	377.84	0.36
0.612	378.05	0.37
0.621	378.07	0.37
0.644	378.21	0.37
0.658	378.34	0.37
0.671	378.33	0.37
0.701	378.51	0.37
0.729	378.7	0.39
0.739	378.87	0.39
0.759	379.02	0.44
0.789	379.53	0.42
0.804	379.67	0.43
0.818	379.71	0.4
0.84	380.05	0.47
0.857	380.24	0.47
0.88	380.69	0.5
0.899	381.08	0.51
0.923	381.44	0.49
0.928	381.43	0.47
0.947	381.9	0.57
0.956	381.98	0.6
0.962	382.12	0.59
0.984	382.78	0.6
1	383.29	0.35

System: ethyl butanoate + octane; phases: Gas, Liquid
Property: Mole fraction of ethyl butanoate (Gas); method: Chromatography
Temperature, K	Mole fraction of ethyl butanoate	Mole fraction of ethyl butanoate	uncertainty
380.85	0	0	
380.47	0.013	0.029	0.027
379.63	0.045	0.085	0.031
379.14	0.069	0.126	0.027
378.58	0.087	0.155	0.027
377.69	0.145	0.226	0.028
377.4	0.166	0.247	0.027
377.33	0.165	0.253	0.027
376.6	0.227	0.312	0.027
376.43	0.235	0.325	0.026
375.82	0.288	0.375	0.025
375.79	0.284	0.377	0.025
375.66	0.33	0.405	0.024
375.49	0.326	0.412	0.027
375.47	0.346	0.421	0.025
375.26	0.38	0.445	0.025
375.29	0.385	0.447	0.026
375.1	0.409	0.466	0.024
374.87	0.439	0.488	0.024
374.97	0.449	0.492	0.025
374.87	0.455	0.497	0.025
374.83	0.479	0.513	0.025
374.75	0.504	0.534	0.026
374.65	0.533	0.555	0.025
374.66	0.583	0.591	0.025
374.65	0.636	0.627	0.027
374.76	0.666	0.65	0.028
374.7	0.663	0.651	0.027
374.82	0.696	0.672	0.027
374.83	0.725	0.695	0.027
374.81	0.737	0.705	0.026
374.89	0.746	0.712	0.027
374.85	0.767	0.729	0.027
374.92	0.779	0.74	0.027
375.13	0.814	0.773	0.027
375.21	0.827	0.785	0.026
375.32	0.845	0.802	0.027
375.53	0.854	0.814	0.028
375.47	0.869	0.828	0.029
375.64	0.891	0.851	0.028
375.75	0.893	0.855	0.028
375.97	0.916	0.881	0.027
376.18	0.926	0.894	0.026
376.26	0.939	0.911	0.027
376.57	0.961	0.94	0.028
376.75	0.977	0.964	0.028
376.87	0.982	0.971	0.027
377.23	1	1	
377.21	1	1	

System: ethyl butanoate + octane; phases: Liquid, Gas
Fixed: Pressure, kPa = 60
Property: Boiling temperature at pressure P, K (Liquid); method: Ebulliometric method (Recirculating still)
Mole fraction of ethyl butanoate	Boiling temperature at pressure P, K	uncertainty
0	380.85	0.35
0.013	380.47	0.49
0.045	379.63	0.59
0.069	379.14	0.52
0.087	378.58	0.52
0.145	377.69	0.47
0.166	377.4	0.44
0.165	377.33	0.44
0.227	376.6	0.45
0.235	376.43	0.45
0.288	375.82	0.41
0.284	375.79	0.41
0.33	375.66	0.37
0.326	375.49	0.37
0.346	375.47	0.36
0.38	375.26	0.37
0.385	375.29	0.37
0.409	375.1	0.38
0.439	374.87	0.36
0.449	374.97	0.36
0.455	374.87	0.36
0.479	374.83	0.36
0.504	374.75	0.36
0.533	374.65	0.35
0.583	374.66	0.35
0.636	374.65	0.35
0.666	374.76	0.36
0.663	374.7	0.36
0.696	374.82	0.35
0.725	374.83	0.35
0.737	374.81	0.35
0.746	374.89	0.35
0.767	374.85	0.36
0.779	374.92	0.36
0.814	375.13	0.37
0.827	375.21	0.39
0.845	375.32	0.37
0.854	375.53	0.37
0.869	375.47	0.38
0.891	375.64	0.41
0.893	375.75	0.41
0.916	375.97	0.42
0.926	376.18	0.43
0.939	376.26	0.44
0.961	376.57	0.45
0.977	376.75	0.47
0.982	376.87	0.44
1	377.23	0.35
1	377.21	0.35

System: propyl propanoate + octane; phases: Gas, Liquid
Property: Mole fraction of propyl propanoate (Gas); method: Chromatography
Temperature, K	Mole fraction of propyl propanoate	Mole fraction of propyl propanoate	uncertainty
380.76	0	0	
380.87	0	0	
380.15	0.032	0.062	0.03
379.92	0.037	0.067	0.029
378.95	0.08	0.141	0.028
378.69	0.098	0.164	0.028
378.07	0.142	0.213	0.027
377.1	0.214	0.289	0.026
376.87	0.236	0.309	0.026
376.85	0.238	0.314	0.026
376.61	0.266	0.335	0.026
376.58	0.272	0.344	0.025
376.18	0.312	0.38	0.025
376.03	0.355	0.411	0.025
376.02	0.364	0.415	0.025
375.9	0.395	0.44	0.025
375.76	0.438	0.473	0.025
375.71	0.443	0.474	0.026
375.53	0.478	0.5	0.026
375.58	0.496	0.514	0.026
375.51	0.508	0.523	0.025
375.53	0.518	0.528	0.026
375.47	0.527	0.534	0.026
375.48	0.561	0.548	0.027
375.44	0.557	0.552	0.027
375.45	0.581	0.571	0.03
375.59	0.608	0.59	0.027
375.55	0.603	0.593	0.027
375.55	0.624	0.603	0.029
375.63	0.629	0.609	0.027
375.69	0.649	0.625	0.027
375.75	0.686	0.653	0.026
375.86	0.715	0.677	0.026
375.97	0.746	0.701	0.029
376.16	0.767	0.722	0.027
376.26	0.796	0.748	0.027
376.57	0.834	0.789	0.026
376.94	0.873	0.829	0.028
377.46	0.909	0.881	0.028
377.87	0.945	0.913	0.029
378.36	0.978	0.965	0.028
378.75	1	1	

System: propyl propanoate + octane; phases: Liquid, Gas
Fixed: Pressure, kPa = 60
Property: Boiling temperature at pressure P, K (Liquid); method: Ebulliometric method (Recirculating still)
Mole fraction of propyl propanoate	Boiling temperature at pressure P, K	uncertainty
0	380.76	0.35
0	380.87	0.35
0.032	380.15	0.58
0.037	379.92	0.57
0.08	378.95	0.49
0.098	378.69	0.5
0.142	378.07	0.45
0.214	377.1	0.44
0.236	376.87	0.4
0.238	376.85	0.4
0.266	376.61	0.4
0.272	376.58	0.4
0.312	376.18	0.38
0.355	376.03	0.36
0.364	376.02	0.36
0.395	375.9	0.36
0.438	375.76	0.36
0.443	375.71	0.36
0.478	375.53	0.36
0.496	375.58	0.35
0.508	375.51	0.35
0.518	375.53	0.35
0.527	375.47	0.35
0.561	375.48	0.35
0.557	375.44	0.35
0.581	375.45	0.35
0.608	375.59	0.36
0.603	375.55	0.35
0.624	375.55	0.36
0.629	375.63	0.35
0.649	375.69	0.35
0.686	375.75	0.36
0.715	375.86	0.36
0.746	375.97	0.37
0.767	376.16	0.37
0.796	376.26	0.37
0.834	376.57	0.39
0.873	376.94	0.42
0.909	377.46	0.44
0.945	377.87	0.44
0.978	378.36	0.47
1	378.75	0.35

System: octane + butyl ethanoate; phases: Gas, Liquid
Property: Mole fraction of butyl ethanoate (Gas); method: Chromatography
Temperature, K	Mole fraction of butyl ethanoate	Mole fraction of butyl ethanoate	uncertainty
380.78	0	0	
380.06	0.037	0.068	0.027
379.76	0.049	0.081	0.027
379.32	0.073	0.12	0.028
378.77	0.108	0.165	0.027
378.62	0.111	0.172	0.027
378.08	0.152	0.218	0.026
377.74	0.193	0.257	0.027
377.46	0.213	0.284	0.027
377.19	0.26	0.318	0.026
377.12	0.267	0.323	0.025
377.1	0.284	0.334	0.025
376.83	0.318	0.363	0.025
376.92	0.322	0.364	0.025
376.69	0.365	0.394	0.025
376.76	0.355	0.388	0.025
376.64	0.402	0.421	0.025
376.69	0.417	0.431	0.026
376.6	0.436	0.443	0.026
376.55	0.464	0.46	0.025
376.57	0.464	0.462	0.026
376.72	0.476	0.473	0.026
376.7	0.498	0.477	0.024
376.65	0.53	0.501	0.026
376.77	0.556	0.522	0.026
376.61	0.575	0.531	0.025
376.82	0.587	0.545	0.027
376.94	0.614	0.565	0.026
377.03	0.629	0.572	0.025
377.02	0.64	0.58	0.025
377.09	0.669	0.602	0.025
377.18	0.674	0.605	0.025
377.6	0.723	0.648	0.025
377.56	0.729	0.654	0.025
377.77	0.757	0.675	0.025
377.83	0.761	0.68	0.026
378.27	0.798	0.716	0.027
378.46	0.82	0.737	0.026
378.3	0.823	0.738	0.027
378.82	0.852	0.77	0.027
379.26	0.88	0.807	0.027
379.38	0.883	0.813	0.027
379.75	0.905	0.842	0.028
379.99	0.921	0.865	0.028
380.16	0.927	0.873	0.028
380.58	0.947	0.904	0.028
381.17	0.973	0.947	0.029
381.31	0.973	0.949	0.029
382.01	1	1	
381.99	1	1	

System: octane + butyl ethanoate; phases: Liquid, Gas
Fixed: Pressure, kPa = 60
Property: Boiling temperature at pressure P, K (Liquid); method: Ebulliometric method (Recirculating still)
Mole fraction of butyl ethanoate	Boiling temperature at pressure P, K	uncertainty
0	380.78	0.35
0.037	380.06	0.53
0.049	379.76	0.53
0.073	379.32	0.48
0.108	378.77	0.47
0.111	378.62	0.47
0.152	378.08	0.41
0.193	377.74	0.4
0.213	377.46	0.38
0.26	377.19	0.37
0.267	377.12	0.37
0.284	377.1	0.37
0.318	376.83	0.36
0.322	376.92	0.36
0.365	376.69	0.36
0.355	376.76	0.36
0.402	376.64	0.35
0.417	376.69	0.35
0.436	376.6	0.35
0.464	376.55	0.35
0.464	376.57	0.35
0.476	376.72	0.35
0.498	376.7	0.35
0.53	376.65	0.35
0.556	376.77	0.36
0.575	376.61	0.36
0.587	376.82	0.36
0.614	376.94	0.36
0.629	377.03	0.36
0.64	377.02	0.35
0.669	377.09	0.38
0.674	377.18	0.38
0.723	377.6	0.38
0.729	377.56	0.38
0.757	377.77	0.41
0.761	377.83	0.41
0.798	378.27	0.41
0.82	378.46	0.41
0.823	378.3	0.41
0.852	378.82	0.49
0.88	379.26	0.5
0.883	379.38	0.5
0.905	379.75	0.5
0.921	379.99	0.51
0.927	380.16	0.53
0.947	380.58	0.56
0.973	381.17	0.64
0.973	381.31	0.64
1	382.01	0.35
1	381.99	0.35

System: octane + pentyl methanoate; phases: Gas, Liquid
Property: Mole fraction of pentyl methanoate (Gas); method: Chromatography
Temperature, K	Mole fraction of pentyl methanoate	Mole fraction of pentyl methanoate	uncertainty
380.84	0	0	
380.82	0	0	
380.39	0.027	0.045	0.029
379.98	0.06	0.086	0.027
379.97	0.049	0.088	0.029
379.21	0.111	0.147	0.026
379.1	0.123	0.162	0.026
378.89	0.157	0.192	0.026
378.82	0.181	0.211	0.026
378.65	0.196	0.228	0.026
378.5	0.249	0.266	0.026
378.32	0.256	0.278	0.026
378.39	0.29	0.298	0.026
378.35	0.311	0.31	0.026
378.37	0.323	0.318	0.026
378.42	0.36	0.342	0.024
378.47	0.368	0.345	0.024
378.51	0.402	0.369	0.025
378.54	0.432	0.388	0.025
378.65	0.432	0.388	0.025
378.69	0.483	0.417	0.025
378.71	0.502	0.431	0.025
378.98	0.532	0.448	0.025
379.05	0.545	0.46	0.025
379.18	0.561	0.47	0.026
379.37	0.597	0.493	0.026
379.83	0.645	0.531	0.027
379.91	0.653	0.534	0.028
380.16	0.689	0.565	0.028
380.41	0.699	0.575	0.028
380.71	0.72	0.594	0.028
380.48	0.722	0.594	0.029
380.9	0.733	0.604	0.028
381.17	0.753	0.618	0.028
381.3	0.768	0.635	0.033
381.49	0.79	0.66	0.033
381.77	0.798	0.668	0.029
382.62	0.834	0.712	0.029
382.53	0.84	0.716	0.029
383	0.856	0.731	0.028
383.44	0.874	0.761	0.029
383.79	0.892	0.792	0.028
384.22	0.903	0.805	0.028
384.9	0.926	0.848	0.028
384.69	0.928	0.848	0.029
385.78	0.955	0.897	0.027
386.28	0.969	0.927	0.027
386.51	0.978	0.947	0.027
387.46	1	1	
387.4	1	1	

System: octane + pentyl methanoate; phases: Liquid, Gas
Fixed: Pressure, kPa = 60
Property: Boiling temperature at pressure P, K (Liquid); method: Ebulliometric method (Recirculating still)
Mole fraction of pentyl methanoate	Boiling temperature at pressure P, K	uncertainty
0	380.84	0.35
0	380.82	0.35
0.027	380.39	0.5
0.06	379.98	0.45
0.049	379.97	0.45
0.111	379.21	0.42
0.123	379.1	0.42
0.157	378.89	0.37
0.181	378.82	0.37
0.196	378.65	0.37
0.249	378.5	0.36
0.256	378.32	0.36
0.29	378.39	0.36
0.311	378.35	0.36
0.323	378.37	0.36
0.36	378.42	0.36
0.368	378.47	0.36
0.402	378.51	0.37
0.432	378.54	0.37
0.432	378.65	0.37
0.483	378.69	0.38
0.502	378.71	0.38
0.532	378.98	0.4
0.545	379.05	0.4
0.561	379.18	0.39
0.597	379.37	0.41
0.645	379.83	0.41
0.653	379.91	0.42
0.689	380.16	0.45
0.699	380.41	0.45
0.72	380.71	0.47
0.722	380.48	0.48
0.733	380.9	0.48
0.753	381.17	0.43
0.768	381.3	0.44
0.79	381.49	0.57
0.798	381.77	0.56
0.834	382.62	0.58
0.84	382.53	0.59
0.856	383	0.56
0.874	383.44	0.66
0.892	383.79	0.67
0.903	384.22	0.69
0.926	384.9	0.72
0.928	384.69	0.72
0.955	385.78	0.83
0.969	386.28	0.87
0.978	386.51	0.85
1	387.46	0.4
1	387.4	0.4
