Measured thermophysical data. Stable Phase Equilibrium of the Quaternary System Li2SO4 + Cs2SO4 + MgSO4 + H2O at 298.2 K
Source: J. Chem. Eng. Data, 2019, 10.1021/acs.jced.9b00162
Compound 1: lithium sulfate, Li2O4S, InChI=1S/2Li.H2O4S/c;;1-5(2,3)4/h;;(H2,1,2,3,4)/q2*+1;/p-2, purity 99.9%
Compound 2: magnesium sulfate, MgO4S, InChI=1S/Mg.H2O4S/c;1-5(2,3)4/h;(H2,1,2,3,4)/q+2;/p-2, purity 99%
Compound 3: water, H2O, InChI=1S/H2O/h1H2, purity 99.9%

System: lithium sulfate + magnesium sulfate + water; phases: Liquid, Crystal of intercomponent compound 1
Property: Mass fraction of magnesium sulfate (Liquid); method: chemical analysis
Mass fraction of lithium sulfate	Temperature, K	Pressure, kPa	Mass fraction of magnesium sulfate	uncertainty
0.1434	298.2	100	0.1919	0.002

System: lithium sulfate + magnesium sulfate + water; phases: Liquid, Crystal
Property: Mass fraction of magnesium sulfate (Liquid); method: chemical analysis
Mass fraction of lithium sulfate	Temperature, K	Pressure, kPa	Mass fraction of magnesium sulfate	uncertainty
0.1434	298.2	100	0.1919	0.002

System: lithium sulfate + magnesium sulfate + water; phases: Liquid
Property: Mass density, kg/m3 (Liquid); method: Pycnometric method
Mass fraction of lithium sulfate	Mass fraction of magnesium sulfate	Temperature, K	Pressure, kPa	Mass density, kg/m3	uncertainty
0.1434	0.1919	298.2	100	1333.8	1.1

System: lithium sulfate + magnesium sulfate + water; phases: Liquid
Property: Refractive index (Na D-line) (Liquid); method: Standard Abbe refractometry
Mass fraction of lithium sulfate	Mass fraction of magnesium sulfate	Temperature, K	Pressure, kPa	Refractive index (Na D-line)	uncertainty
0.1434	0.1919	298.2	100	1.3942	0.0004
