Measured thermophysical data. Isothermal Thermogravimetric Study for Determining Sublimation Enthalpies of Some Hydroxyflavones
Source: J. Chem. Eng. Data, 2018, 10.1021/acs.jced.7b01034
Compound 1: pyrene, C16H10, InChI=1S/C16H10/c1-3-11-7-9-13-5-2-6-14-10-8-12(4-1)15(11)16(13)14/h1-10H, purity 98%
Compound 2: anthracene, C14H10, InChI=1S/C14H10/c1-2-6-12-10-14-8-4-3-7-13(14)9-11(12)5-1/h1-10H, purity 99%
Compound 3: benzoic acid, C7H6O2, InChI=1S/C7H6O2/c8-7(9)6-4-2-1-3-5-6/h1-5H,(H,8,9), purity 99.99%
Compound 4: 3-hydroxyflavone, C15H10O3, InChI=1S/C15H10O3/c16-13-11-8-4-5-9-12(11)18-15(14(13)17)10-6-2-1-3-7-10/h1-9,17H, purity 98%
Compound 5: 5-hydroxyflavone, C15H10O3, InChI=1S/C15H10O3/c16-11-7-4-8-13-15(11)12(17)9-14(18-13)10-5-2-1-3-6-10/h1-9,16H, purity 97%
Compound 6: 6-hydroxyflavone, C15H10O3, InChI=1S/C15H10O3/c16-11-6-7-14-12(8-11)13(17)9-15(18-14)10-4-2-1-3-5-10/h1-9,16H, purity 98%
Compound 7: 7-hydroxyflavone, C15H10O3, InChI=1S/C15H10O3/c16-11-6-7-12-13(17)9-14(18-15(12)8-11)10-4-2-1-3-5-10/h1-9,16H, purity 98%
Compound 8: 6-aminoflavone, C15H11NO2, InChI=1S/C15H11NO2/c16-11-6-7-14-12(8-11)13(17)9-15(18-14)10-4-2-1-3-5-10/h1-9H,16H2, purity 97%

System: pyrene; phases: Crystal, Liquid, Air at 1 atmosphere
Property: Normal melting temperature, K (Crystal); method: DTA
Normal melting temperature, K	uncertainty
423.9	0.8

System: pyrene; phases: Crystal, Liquid, Air at 1 atmosphere
Property: Molar enthalpy of transition or fusion, kJ/mol (Crystal); method: DSC
Molar enthalpy of transition or fusion, kJ/mol	uncertainty
17.36	0.65

System: pyrene; phases: Crystal
Fixed: Pressure, kPa = 100
Property: Molar heat capacity at constant pressure, J/K/mol (Crystal); method: DSC
Temperature, K	Molar heat capacity at constant pressure, J/K/mol	uncertainty
293.15	221.9	11.1
298.15	225.8	11.3
303.15	230.2	11.5
308.15	234.3	11.7
313.15	238.7	11.9
318.15	243	12.2
323.15	247.5	12.4
328.15	252.6	12.6
333.15	258.1	12.9
338.15	263.6	13.2
343.15	268.9	13.4
348.15	274.1	13.7
353.15	279.8	14
358.15	285.4	14.3
363.15	291.4	14.6
368.15	298.2	14.9
373.15	304.6	15.2
378.15	310.7	15.5
383.15	317.5	15.9
388.15	325.7	16.3
393.15	333.7	16.7
398.15	341.5	17.1
403.15	349.9	17.5
408.15	359.2	18
413.15	372.2	18.6

System: pyrene; phases: Crystal, Gas
Property: Molar enthalpy of vaporization or sublimation, kJ/mol (Crystal); method: Derived by Second law
Temperature, K	Molar enthalpy of vaporization or sublimation, kJ/mol	uncertainty
388.15	98	2

System: anthracene; phases: Crystal, Liquid, Air at 1 atmosphere
Property: Normal melting temperature, K (Crystal); method: DTA
Normal melting temperature, K	uncertainty
489.7	0.6

System: anthracene; phases: Crystal, Liquid, Air at 1 atmosphere
Property: Molar enthalpy of transition or fusion, kJ/mol (Crystal); method: DSC
Molar enthalpy of transition or fusion, kJ/mol	uncertainty
30.66	1.66

System: anthracene; phases: Crystal
Fixed: Pressure, kPa = 100
Property: Molar heat capacity at constant pressure, J/K/mol (Crystal); method: DSC
Temperature, K	Molar heat capacity at constant pressure, J/K/mol	uncertainty
293.15	205.7	10.3
298.15	209.9	10.5
303.15	213.9	10.7
308.15	217.6	10.9
313.15	221.7	11.1
318.15	225.4	11.3
323.15	229.6	11.5
328.15	234.2	11.7
333.15	237.9	11.9
338.15	242.2	12.1
343.15	246.5	12.3
348.15	250.7	12.5
353.15	254.9	12.7
358.15	258.8	12.9
363.15	262.9	13.1
368.15	266.9	13.3
373.15	270.6	13.5
378.15	275.2	13.8
383.15	279.2	14
388.15	283.2	14.2
393.15	286.9	14.3
398.15	291.7	14.6
403.15	295.8	14.8
408.15	299.3	15
413.15	303.3	15.2
418.15	306.8	15.3
423.15	309.9	15.5
428.15	313.4	15.7
433.15	317.4	15.9

System: anthracene; phases: Crystal, Gas
Property: Molar enthalpy of vaporization or sublimation, kJ/mol (Crystal); method: Derived by Second law
Temperature, K	Molar enthalpy of vaporization or sublimation, kJ/mol	uncertainty
408.15	99	2.3

System: benzoic acid; phases: Crystal, Liquid, Air at 1 atmosphere
Property: Normal melting temperature, K (Crystal); method: DTA
Normal melting temperature, K	uncertainty
395.3	0.5

System: benzoic acid; phases: Crystal, Liquid, Air at 1 atmosphere
Property: Molar enthalpy of transition or fusion, kJ/mol (Crystal); method: DSC
Molar enthalpy of transition or fusion, kJ/mol	uncertainty
18.56	0.63

System: benzoic acid; phases: Crystal
Fixed: Pressure, kPa = 100
Property: Molar heat capacity at constant pressure, J/K/mol (Crystal); method: DSC
Temperature, K	Molar heat capacity at constant pressure, J/K/mol	uncertainty
293.15	143.2	7.2
298.15	145.2	7.3
303.15	147.5	7.4
308.15	149.6	7.5
313.15	151.4	7.6
318.15	153	7.7
323.15	155.4	7.8
328.15	157.8	7.9
333.15	160	8
338.15	162.2	8.1
343.15	164.4	8.2
348.15	166.6	8.3
353.15	169.1	8.5
358.15	171.7	8.6
363.15	174.4	8.7
368.15	176.8	8.8
373.15	179.2	9
378.15	182	9.1
383.15	185.4	9.3
388.15	190.1	9.5

System: benzoic acid; phases: Crystal, Gas
Property: Molar enthalpy of vaporization or sublimation, kJ/mol (Crystal); method: Derived by Second law
Temperature, K	Molar enthalpy of vaporization or sublimation, kJ/mol	uncertainty
381.15	88.3	2.4

System: 3-hydroxyflavone; phases: Crystal, Liquid, Air at 1 atmosphere
Property: Normal melting temperature, K (Crystal); method: DTA
Normal melting temperature, K	uncertainty
443.6	0.5

System: 3-hydroxyflavone; phases: Crystal, Liquid, Air at 1 atmosphere
Property: Molar enthalpy of transition or fusion, kJ/mol (Crystal); method: DSC
Molar enthalpy of transition or fusion, kJ/mol	uncertainty
32.45	1.23

System: 3-hydroxyflavone; phases: Crystal
Fixed: Pressure, kPa = 100
Property: Molar heat capacity at constant pressure, J/K/mol (Crystal); method: DSC
Temperature, K	Molar heat capacity at constant pressure, J/K/mol	uncertainty
293.15	268.9	13.4
298.15	270.1	13.5
303.15	272.8	13.6
308.15	275.3	13.8
313.15	278.3	13.9
318.15	280.8	14
323.15	284.2	14.2
328.15	287.6	14.4
333.15	291.5	14.6
338.15	295.2	14.8
343.15	298.9	14.9
348.15	303.2	15.2
353.15	306.8	15.3
358.15	310.8	15.5
363.15	315	15.8
368.15	319.4	16
373.15	323.7	16.2
378.15	328	16.4
383.15	332	16.6
388.15	336.9	16.8
393.15	341.6	17.1
398.15	346.8	17.3
403.15	351.6	17.6
408.15	356.3	17.8
413.15	361.2	18.1
418.15	366	18.3
423.15	372.3	18.6
428.15	379	19
433.15	386	19.3

System: 3-hydroxyflavone; phases: Crystal, Gas
Property: Molar enthalpy of vaporization or sublimation, kJ/mol (Crystal); method: Derived by Second law
Temperature, K	Molar enthalpy of vaporization or sublimation, kJ/mol	uncertainty
413.15	116.3	2.1

System: 5-hydroxyflavone; phases: Crystal, Liquid, Air at 1 atmosphere
Property: Normal melting temperature, K (Crystal); method: DTA
Normal melting temperature, K	uncertainty
431	0.5

System: 5-hydroxyflavone; phases: Crystal, Liquid, Air at 1 atmosphere
Property: Molar enthalpy of transition or fusion, kJ/mol (Crystal); method: DSC
Molar enthalpy of transition or fusion, kJ/mol	uncertainty
27.16	0.88

System: 5-hydroxyflavone; phases: Crystal
Fixed: Pressure, kPa = 100
Property: Molar heat capacity at constant pressure, J/K/mol (Crystal); method: DSC
Temperature, K	Molar heat capacity at constant pressure, J/K/mol	uncertainty
293.15	274.6	13.7
298.15	279.8	14
303.15	285.1	14.3
308.15	289.4	14.5
313.15	297	14.9
318.15	302.8	15.1
323.15	307	15.4
328.15	311.2	15.6
333.15	312.9	15.6
338.15	315.9	15.8
343.15	319.5	16
348.15	323.8	16.2
353.15	328.8	16.4
358.15	334.4	16.7
363.15	338.5	16.9
368.15	344.8	17.2
373.15	347.9	17.4
378.15	350.8	17.5
383.15	355.6	17.8
388.15	360.1	18
393.15	365.3	18.3
398.15	369.6	18.5
403.15	373.8	18.7
408.15	377.7	18.9
413.15	382.3	19.1
418.15	387.6	19.4
423.15	395.5	19.8

System: 5-hydroxyflavone; phases: Crystal, Gas
Property: Molar enthalpy of vaporization or sublimation, kJ/mol (Crystal); method: Derived by Second law
Temperature, K	Molar enthalpy of vaporization or sublimation, kJ/mol	uncertainty
403.15	113	2.7

System: 6-hydroxyflavone; phases: Crystal, Liquid, Air at 1 atmosphere
Property: Normal melting temperature, K (Crystal); method: DTA
Normal melting temperature, K	uncertainty
509.3	0.5

System: 6-hydroxyflavone; phases: Crystal, Liquid, Air at 1 atmosphere
Property: Molar enthalpy of transition or fusion, kJ/mol (Crystal); method: DSC
Molar enthalpy of transition or fusion, kJ/mol	uncertainty
32.41	1.34

System: 6-hydroxyflavone; phases: Crystal
Fixed: Pressure, kPa = 100
Property: Molar heat capacity at constant pressure, J/K/mol (Crystal); method: DSC
Temperature, K	Molar heat capacity at constant pressure, J/K/mol	uncertainty
293.15	244.4	12.2
298.15	250.3	12.5
303.15	255.3	12.8
308.15	260.4	13
313.15	265.7	13.3
318.15	271.1	13.6
323.15	277	13.9
328.15	282.6	14.1
333.15	287.5	14.4
338.15	292.7	14.6
343.15	297.3	14.9
348.15	302.4	15.1
353.15	307.1	15.4
358.15	312.4	15.6
363.15	317.2	15.9
368.15	321.9	16.1
373.15	326.7	16.3
378.15	330.6	16.5
383.15	335.1	16.8
388.15	339.8	17
393.15	344.4	17.2
398.15	348.9	17.4
403.15	353.2	17.7
408.15	358.3	17.9
413.15	362.3	18.1
418.15	365.8	18.3
423.15	370.3	18.5
428.15	373.7	18.7
433.15	376.9	18.8
438.15	380.8	19
443.15	383.5	19.2
448.15	385.7	19.3
453.15	388.4	19.4
458.15	391.5	19.6
463.15	394.2	19.7
468.15	397.1	19.9
473.15	399.2	20
478.15	402	20.1
483.15	404.1	20.2
488.15	406.1	20.3
493.15	408.4	20.4
498.15	412	20.6

System: 6-hydroxyflavone; phases: Crystal, Gas
Property: Molar enthalpy of vaporization or sublimation, kJ/mol (Crystal); method: Derived by Second law
Temperature, K	Molar enthalpy of vaporization or sublimation, kJ/mol	uncertainty
478.15	148.1	2

System: 7-hydroxyflavone; phases: Crystal, Liquid, Air at 1 atmosphere
Property: Normal melting temperature, K (Crystal); method: DTA
Normal melting temperature, K	uncertainty
515.3	1.2

System: 7-hydroxyflavone; phases: Crystal, Liquid, Air at 1 atmosphere
Property: Molar enthalpy of transition or fusion, kJ/mol (Crystal); method: DSC
Molar enthalpy of transition or fusion, kJ/mol	uncertainty
31.2	1.25

System: 7-hydroxyflavone; phases: Crystal
Fixed: Pressure, kPa = 100
Property: Molar heat capacity at constant pressure, J/K/mol (Crystal); method: DSC
Temperature, K	Molar heat capacity at constant pressure, J/K/mol	uncertainty
293.15	248.1	12.4
298.15	253.1	12.7
303.15	259.1	13
308.15	263.4	13.2
313.15	268.2	13.4
318.15	272	13.6
323.15	276.8	13.8
328.15	282.1	14.1
333.15	286	14.3
338.15	291.4	14.6
343.15	295.3	14.8
348.15	299.4	15
353.15	303.6	15.2
358.15	307.6	15.4
363.15	312.3	15.6
368.15	316.2	15.8
373.15	320.7	16
378.15	324.4	16.2
383.15	328.2	16.4
388.15	332.4	16.6
393.15	336	16.8
398.15	340.1	17
403.15	343.3	17.2
408.15	347	17.4
413.15	351.4	17.6
418.15	355.2	17.8
423.15	358.2	17.9
428.15	361.9	18.1
433.15	366.3	18.3
438.15	369.6	18.5
443.15	372.3	18.6
448.15	376.7	18.8
453.15	379.5	19
458.15	382.7	19.1
463.15	385.8	19.3
468.15	388.5	19.4
473.15	390.8	19.5
478.15	391.9	19.6
483.15	394	19.7
488.15	398.1	19.9
493.15	400.9	20
498.15	406.2	20.3

System: 7-hydroxyflavone; phases: Crystal, Gas
Property: Molar enthalpy of vaporization or sublimation, kJ/mol (Crystal); method: Derived by Second law
Temperature, K	Molar enthalpy of vaporization or sublimation, kJ/mol	uncertainty
473.15	154.6	2.5

System: 6-aminoflavone; phases: Crystal, Liquid, Air at 1 atmosphere
Property: Normal melting temperature, K (Crystal); method: DTA
Normal melting temperature, K	uncertainty
471.9	0.5

System: 6-aminoflavone; phases: Crystal, Liquid, Air at 1 atmosphere
Property: Molar enthalpy of transition or fusion, kJ/mol (Crystal); method: DSC
Molar enthalpy of transition or fusion, kJ/mol	uncertainty
30.4	1.05

System: 6-aminoflavone; phases: Crystal
Fixed: Pressure, kPa = 100
Property: Molar heat capacity at constant pressure, J/K/mol (Crystal); method: DSC
Temperature, K	Molar heat capacity at constant pressure, J/K/mol	uncertainty
293.15	272.6	13.6
298.15	277.9	13.9
303.15	283.4	14.2
308.15	287.6	14.4
313.15	292.2	14.6
318.15	296.7	14.8
323.15	301.6	15.1
328.15	306.3	15.3
333.15	311.1	15.6
338.15	316.1	15.8
343.15	320.4	16
348.15	324.5	16.2
353.15	328.9	16.4
358.15	333.6	16.7
363.15	338.1	16.9
368.15	342.2	17.1
373.15	346.1	17.3
378.15	349.8	17.5
383.15	353.8	17.7
388.15	358.5	17.9
393.15	361.8	18.1
398.15	367.2	18.4
403.15	371	18.6
408.15	374.6	18.7
413.15	378.3	18.9
418.15	381.8	19.1
423.15	385.4	19.3
428.15	390.1	19.5
433.15	395.3	19.8
438.15	400.4	20
443.15	406.4	20.3
448.15	411.3	20.6
453.15	418.5	20.9
458.15	427.8	21.4

System: 6-aminoflavone; phases: Crystal, Gas
Property: Molar enthalpy of vaporization or sublimation, kJ/mol (Crystal); method: Derived by Second law
Temperature, K	Molar enthalpy of vaporization or sublimation, kJ/mol	uncertainty
452.15	143.3	1.9
