Measured thermophysical data. Experimental Densities and Calculated Fractional Free Volumes of Ionic Liquids with Tri- and Tetra-substituted Imidazolium Cations
Source: J. Chem. Eng. Data, 2018, 10.1021/acs.jced.7b01033
Compound 1: 1-ethyl-2,3-dimethylimidazolium bis[(trifluoromethyl)sulfonyl]imide, C9H13F6N3O4S2, InChI=1S/C7H13N2.C2F6NO4S2/c1-4-9-6-5-8(3)7(9)2;3-1(4,5)14(10,11)9-15(12,13)2(6,7)8/h5-6H,4H2,1-3H3;/q+1;-1, purity 99%
Compound 2: 1,2-dimethyl-3-propylimidazolium bis[(trifluoromethyl)sulfonyl]imide, C10H15F6N3O4S2, InChI=1S/C8H15N2.C2F6NO4S2/c1-4-5-10-7-6-9(3)8(10)2;3-1(4,5)14(10,11)9-15(12,13)2(6,7)8/h6-7H,4-5H2,1-3H3;/q+1;-1, purity 99%
Compound 3: 1-butyl-2,3-dimethyl-1H-imidazolium bis(trifluoromethylsulfonyl)amide, C11H17F6N3O4S2, InChI=1S/C9H17N2.C2F6NO4S2/c1-4-5-6-11-8-7-10(3)9(11)2;3-1(4,5)14(10,11)9-15(12,13)2(6,7)8/h7-8H,4-6H2,1-3H3;/q+1;-1, purity 99%
Compound 4: 1-hexyl-2,3-dimethylimidazolium bis[(trifluoromethyl)sulfonyl]imide, C13H21F6N3O4S2, InChI=1S/C11H21N2.C2F6NO4S2/c1-4-5-6-7-8-13-10-9-12(3)11(13)2;3-1(4,5)14(10,11)9-15(12,13)2(6,7)8/h9-10H,4-8H2,1-3H3;/q+1;-1, purity 99%
Compound 5: 3-ethyl-1,5-dimethylimidazolium bis((trifluoromethyl)sulfonyl)amide, C9H13F6N3O4S2, InChI=1S/C7H13N2.C2F6NO4S2/c1-4-9-5-7(2)8(3)6-9;3-1(4,5)14(10,11)9-15(12,13)2(6,7)8/h5-6H,4H2,1-3H3;/q+1;-1, purity 99%
Compound 6: 3,4-dimethyl-1-propylimidazolium bis((trifluoromethyl)sulfonyl)amide, C10H15F6N3O4S2, InChI=1S/C8H15N2.C2F6NO4S2/c1-4-5-10-6-8(2)9(3)7-10;3-1(4,5)14(10,11)9-15(12,13)2(6,7)8/h6-7H,4-5H2,1-3H3;/q+1;-1, purity 99%
Compound 7: 1-butyl-3,4-dimethylimidazolium bis((trifluoromethyl)sulfonyl)amide, C11H17F6N3O4S2, InChI=1S/C9H17N2.C2F6NO4S2/c1-4-5-6-11-7-9(2)10(3)8-11;3-1(4,5)14(10,11)9-15(12,13)2(6,7)8/h7-8H,4-6H2,1-3H3;/q+1;-1, purity 99%
Compound 8: 1-hexyl-3,4-dimethylimidazolium bis((trifluoromethyl)sulfonyl)amide, C13H21F6N3O4S2, InChI=1S/C11H21N2.C2F6NO4S2/c1-4-5-6-7-8-13-9-11(2)12(3)10-13;3-1(4,5)14(10,11)9-15(12,13)2(6,7)8/h9-10H,4-8H2,1-3H3;/q+1;-1, purity 99%
Compound 9: 3-ethyl-1,4-dimethylimidazolium bis((trifluoromethyl)sulfonyl)amide, C9H13F6N3O4S2, InChI=1S/C7H13N2.C2F6NO4S2/c1-4-9-6-8(3)5-7(9)2;3-1(4,5)14(10,11)9-15(12,13)2(6,7)8/h5-6H,4H2,1-3H3;/q+1;-1, purity 99%
Compound 10: 3,5-dimethyl-1-propylimidazolium bis((trifluoromethyl)sulfonyl)amide, C10H15F6N3O4S2, InChI=1S/C8H15N2.C2F6NO4S2/c1-4-5-10-7-9(3)6-8(10)2;3-1(4,5)14(10,11)9-15(12,13)2(6,7)8/h6-7H,4-5H2,1-3H3;/q+1;-1, purity 99%
Compound 11: 3-butyl-1,4-dimethylimidazolium bis((trifluoromethyl)sulfonyl)amide, C11H17F6N3O4S2, InChI=1S/C9H17N2.C2F6NO4S2/c1-4-5-6-11-8-10(3)7-9(11)2;3-1(4,5)14(10,11)9-15(12,13)2(6,7)8/h7-8H,4-6H2,1-3H3;/q+1;-1, purity 99%
Compound 12: 3-hexyl-1,4-dimethylimidazolium bis((trifluoromethyl)sulfonyl)amide, C13H21F6N3O4S2, InChI=1S/C11H21N2.C2F6NO4S2/c1-4-5-6-7-8-13-10-12(3)9-11(13)2;3-1(4,5)14(10,11)9-15(12,13)2(6,7)8/h9-10H,4-8H2,1-3H3;/q+1;-1, purity 99%
Compound 13: 2,3-diethyl-1,5-dimethylimidazolium bis((trifluoromethyl)sulfonyl)amide, C11H17F6N3O4S2, InChI=1S/C9H17N2.C2F6NO4S2/c1-5-9-10(4)8(3)7-11(9)6-2;3-1(4,5)14(10,11)9-15(12,13)2(6,7)8/h7H,5-6H2,1-4H3;/q+1;-1, purity 99%
Compound 14: 2-ethyl-1,5-dimethyl-3-propylimidazolium bis((trifluoromethyl)sulfonyl)amide, C12H19F6N3O4S2, InChI=1S/C10H19N2.C2F6NO4S2/c1-5-7-12-8-9(3)11(4)10(12)6-2;3-1(4,5)14(10,11)9-15(12,13)2(6,7)8/h8H,5-7H2,1-4H3;/q+1;-1, purity 99%
Compound 15: 1-butyl-2-ethyl-3,4-dimethylimidazolium bis((trifluoromethyl)sulfonyl)amide, C13H21F6N3O4S2, InChI=1S/C11H21N2.C2F6NO4S2/c1-5-7-8-13-9-10(3)12(4)11(13)6-2;3-1(4,5)14(10,11)9-15(12,13)2(6,7)8/h9H,5-8H2,1-4H3;/q+1;-1, purity 99%
Compound 16: 2-ethyl-1-hexyl-3,4-dimethylimidazolium bis((trifluoromethyl)sulfonyl)amide, C15H25F6N3O4S2, InChI=1S/C13H25N2.C2F6NO4S2/c1-5-7-8-9-10-15-11-12(3)14(4)13(15)6-2;3-1(4,5)14(10,11)9-15(12,13)2(6,7)8/h11H,5-10H2,1-4H3;/q+1;-1, purity 99%
Compound 17: 2,3-diethyl-1,4-dimethylimidazolium bis((trifluoromethyl)sulfonyl)amide, C11H17F6N3O4S2, InChI=1S/C9H17N2.C2F6NO4S2/c1-5-9-10(4)7-8(3)11(9)6-2;3-1(4,5)14(10,11)9-15(12,13)2(6,7)8/h7H,5-6H2,1-4H3;/q+1;-1, purity 99%
Compound 18: 2-ethyl-1,4-dimethyl-3-propylimidazolium bis((trifluoromethyl)sulfonyl)amide, C12H19F6N3O4S2, InChI=1S/C10H19N2.C2F6NO4S2/c1-5-7-12-9(3)8-11(4)10(12)6-2;3-1(4,5)14(10,11)9-15(12,13)2(6,7)8/h8H,5-7H2,1-4H3;/q+1;-1, purity 99%
Compound 19: 1-butyl-2-ethyl-3,5-dimethylimidazolium bis((trifluoromethyl)sulfonyl)amide, C13H21F6N3O4S2, InChI=1S/C11H21N2.C2F6NO4S2/c1-5-7-8-13-10(3)9-12(4)11(13)6-2;3-1(4,5)14(10,11)9-15(12,13)2(6,7)8/h9H,5-8H2,1-4H3;/q+1;-1, purity 99%
Compound 20: 2-ethyl-3-hexyl-1,4-dimethylimidazolium bis((trifluoromethyl)sulfonyl)amide, C15H25F6N3O4S2, InChI=1S/C13H25N2.C2F6NO4S2/c1-5-7-8-9-10-15-12(3)11-14(4)13(15)6-2;3-1(4,5)14(10,11)9-15(12,13)2(6,7)8/h11H,5-10H2,1-4H3;/q+1;-1, purity 99%

System: 1-ethyl-2,3-dimethylimidazolium bis[(trifluoromethyl)sulfonyl]imide; phases: Liquid
Fixed: Pressure, kPa = 100.5
Property: Mass density, kg/m3 (Liquid); method: Vibrating tube method
Temperature, K	Mass density, kg/m3	uncertainty
293.15	1496.4	2.1
303.15	1486.7	2.1
313.15	1476.9	2.1
323.15	1467.3	2.1
333.15	1457.7	2.1
343.15	1448.2	2.1
353.15	1438.8	2.1

System: 1,2-dimethyl-3-propylimidazolium bis[(trifluoromethyl)sulfonyl]imide; phases: Liquid
Fixed: Pressure, kPa = 100.5
Property: Mass density, kg/m3 (Liquid); method: Vibrating tube method
Temperature, K	Mass density, kg/m3	uncertainty
293.15	1460	2.1
303.15	1450.3	2.1
313.15	1440.7	2.1
323.15	1431.2	2.1
333.15	1421.7	2.1
343.15	1412.4	2.1
353.15	1403	2.1

System: 1-butyl-2,3-dimethyl-1H-imidazolium bis(trifluoromethylsulfonyl)amide; phases: Liquid
Fixed: Pressure, kPa = 100.5
Property: Mass density, kg/m3 (Liquid); method: Vibrating tube method
Temperature, K	Mass density, kg/m3	uncertainty
293.15	1424	2.1
303.15	1414.6	2.1
313.15	1405.3	2.1
323.15	1396	2.1
333.15	1386.9	2.1
343.15	1377.8	2.1
353.15	1368.7	2.1

System: 1-hexyl-2,3-dimethylimidazolium bis[(trifluoromethyl)sulfonyl]imide; phases: Liquid
Fixed: Pressure, kPa = 100.5
Property: Mass density, kg/m3 (Liquid); method: Vibrating tube method
Temperature, K	Mass density, kg/m3	uncertainty
293.15	1362.2	2.1
303.15	1353.1	2.1
313.15	1344.1	2.1
323.15	1335.2	2.1
333.15	1326.3	2.1
343.15	1317.5	2.1
353.15	1308.7	2.1

System: 3-ethyl-1,5-dimethylimidazolium bis((trifluoromethyl)sulfonyl)amide + 3-ethyl-1,4-dimethylimidazolium bis((trifluoromethyl)sulfonyl)amide; phases: Liquid
Fixed: Pressure, kPa = 100.5
Fixed: Mole fraction of 3-ethyl-1,5-dimethylimidazolium bis((trifluoromethyl)sulfonyl)amide = 0.602
Property: Mass density, kg/m3 (Liquid); method: Vibrating tube method
Temperature, K	Mass density, kg/m3	uncertainty
293.15	1483.2	2.1
303.15	1473.3	2.1
313.15	1463.4	2.1
323.15	1453.6	2.1
333.15	1443.9	2.1
343.15	1434.2	2.1
353.15	1424.6	2.1

System: 3,4-dimethyl-1-propylimidazolium bis((trifluoromethyl)sulfonyl)amide + 3,5-dimethyl-1-propylimidazolium bis((trifluoromethyl)sulfonyl)amide; phases: Liquid
Fixed: Pressure, kPa = 100.5
Fixed: Mole fraction of 3,4-dimethyl-1-propylimidazolium bis((trifluoromethyl)sulfonyl)amide = 0.629
Property: Mass density, kg/m3 (Liquid); method: Vibrating tube method
Temperature, K	Mass density, kg/m3	uncertainty
293.15	1445.4	2.1
303.15	1435.6	2.1
313.15	1425.9	2.1
323.15	1416.3	2.1
333.15	1406.9	2.1
343.15	1397.3	2.1
353.15	1387.9	2.1

System: 1-butyl-3,4-dimethylimidazolium bis((trifluoromethyl)sulfonyl)amide + 3-butyl-1,4-dimethylimidazolium bis((trifluoromethyl)sulfonyl)amide; phases: Liquid
Fixed: Pressure, kPa = 100.5
Fixed: Mole fraction of 1-butyl-3,4-dimethylimidazolium bis((trifluoromethyl)sulfonyl)amide = 0.637
Property: Mass density, kg/m3 (Liquid); method: Vibrating tube method
Temperature, K	Mass density, kg/m3	uncertainty
313.15	1391.1	2.1
323.15	1381	2.1
333.15	1372.3	2.1
343.15	1363.1	2.1
353.15	1353.9	2.1

System: 1-hexyl-3,4-dimethylimidazolium bis((trifluoromethyl)sulfonyl)amide + 3-hexyl-1,4-dimethylimidazolium bis((trifluoromethyl)sulfonyl)amide; phases: Liquid
Fixed: Pressure, kPa = 100.5
Fixed: Mole fraction of 1-hexyl-3,4-dimethylimidazolium bis((trifluoromethyl)sulfonyl)amide = 0.637
Property: Mass density, kg/m3 (Liquid); method: Vibrating tube method
Temperature, K	Mass density, kg/m3	uncertainty
293.15	1352.5	2.1
303.15	1343.3	2.1
313.15	1334.2	2.1
323.15	1325.2	2.1
333.15	1316.3	2.1
343.15	1307.4	2.1
353.15	1298.5	2

System: 2,3-diethyl-1,5-dimethylimidazolium bis((trifluoromethyl)sulfonyl)amide + 2,3-diethyl-1,4-dimethylimidazolium bis((trifluoromethyl)sulfonyl)amide; phases: Liquid
Fixed: Pressure, kPa = 100.5
Fixed: Mole fraction of 2,3-diethyl-1,5-dimethylimidazolium bis((trifluoromethyl)sulfonyl)amide = 0.735
Property: Mass density, kg/m3 (Liquid); method: Vibrating tube method
Temperature, K	Mass density, kg/m3	uncertainty
293.15	1431.7	2.1
303.15	1422	2.1
313.15	1412.6	2.1
323.15	1403.1	2.1
333.15	1393.8	2.1
343.15	1384.6	2.1
353.15	1375.3	2.1

System: 2-ethyl-1,5-dimethyl-3-propylimidazolium bis((trifluoromethyl)sulfonyl)amide + 2-ethyl-1,4-dimethyl-3-propylimidazolium bis((trifluoromethyl)sulfonyl)amide; phases: Liquid
Fixed: Pressure, kPa = 100.5
Fixed: Mole fraction of 2-ethyl-1,5-dimethyl-3-propylimidazolium bis((trifluoromethyl)sulfonyl)amide = 0.763
Property: Mass density, kg/m3 (Liquid); method: Vibrating tube method
Temperature, K	Mass density, kg/m3	uncertainty
293.15	1401.2	2.1
303.15	1391.7	2.1
313.15	1382.3	2.1
323.15	1373	2.1
333.15	1363.8	2.1
343.15	1354.7	2.1
353.15	1345.5	2.1

System: 1-butyl-2-ethyl-3,4-dimethylimidazolium bis((trifluoromethyl)sulfonyl)amide + 1-butyl-2-ethyl-3,5-dimethylimidazolium bis((trifluoromethyl)sulfonyl)amide; phases: Liquid
Fixed: Pressure, kPa = 100.5
Fixed: Mole fraction of 1-butyl-2-ethyl-3,4-dimethylimidazolium bis((trifluoromethyl)sulfonyl)amide = 0.806
Property: Mass density, kg/m3 (Liquid); method: Vibrating tube method
Temperature, K	Mass density, kg/m3	uncertainty
293.15	1371.2	2.1
303.15	1361.9	2.1
313.15	1352.8	2.1
323.15	1343.7	2.1
333.15	1334.7	2.1
343.15	1325.8	2.1
353.15	1316.9	2.1

System: 2-ethyl-1-hexyl-3,4-dimethylimidazolium bis((trifluoromethyl)sulfonyl)amide + 2-ethyl-3-hexyl-1,4-dimethylimidazolium bis((trifluoromethyl)sulfonyl)amide; phases: Liquid
Fixed: Pressure, kPa = 100.5
Fixed: Mole fraction of 2-ethyl-1-hexyl-3,4-dimethylimidazolium bis((trifluoromethyl)sulfonyl)amide = 0.813
Property: Mass density, kg/m3 (Liquid); method: Vibrating tube method
Temperature, K	Mass density, kg/m3	uncertainty
293.15	1325.2	2.1
303.15	1316.2	2.1
313.15	1307.3	2.1
323.15	1298.5	2
333.15	1289.7	2
343.15	1281	2
353.15	1272.3	2
