Measured thermophysical data. Solubility Measurement and Thermodynamic Modeling for o-Toluenesulfonamide in 16 Solvents from T = 273.15 to 323.85 K
Source: J. Chem. Eng. Data, 2019, 10.1021/acs.jced.9b00445
Compound 1: o-toluenesulfonamide, C7H9NO2S, InChI=1S/C7H9NO2S/c1-6-4-2-3-5-7(6)11(8,9)10/h2-5H,1H3,(H2,8,9,10), purity 98%
Compound 2: methanol, CH4O, InChI=1S/CH4O/c1-2/h2H,1H3, purity 99.5%
Compound 3: ethanol, C2H6O, InChI=1S/C2H6O/c1-2-3/h3H,2H2,1H3, purity 99.7%
Compound 4: acetone, C3H6O, InChI=1S/C3H6O/c1-3(2)4/h1-2H3, purity 99.5%
Compound 5: ethyl acetate, C4H8O2, InChI=1S/C4H8O2/c1-3-6-4(2)5/h3H2,1-2H3, purity 99.5%
Compound 6: dichloromethane, CH2Cl2, InChI=1S/CH2Cl2/c2-1-3/h1H2, purity 99.5%
Compound 7: 2-methyl-1-propanol, C4H10O, InChI=1S/C4H10O/c1-4(2)3-5/h4-5H,3H2,1-2H3, purity 99.5%
Compound 8: 3-methylbutan-1-ol, C5H12O, InChI=1S/C5H12O/c1-5(2)3-4-6/h5-6H,3-4H2,1-2H3, purity 98.5%
Compound 9: acetonitrile, C2H3N, InChI=1S/C2H3N/c1-2-3/h1H3, purity 99.5%
Compound 10: propan-1-ol, C3H8O, InChI=1S/C3H8O/c1-2-3-4/h4H,2-3H2,1H3, purity 99.5%
Compound 11: butan-1-ol, C4H10O, InChI=1S/C4H10O/c1-2-3-4-5/h5H,2-4H2,1H3, purity 99%
Compound 12: propan-2-ol, C3H8O, InChI=1S/C3H8O/c1-3(2)4/h3-4H,1-2H3, purity 99.9%
Compound 13: cyclopentanone, C5H8O, InChI=1S/C5H8O/c6-5-3-1-2-4-5/h1-4H2, purity 99%
Compound 14: cyclohexanone, C6H10O, InChI=1S/C6H10O/c7-6-4-2-1-3-5-6/h1-5H2, purity 99%
Compound 15: methyl ethanoate, C3H6O2, InChI=1S/C3H6O2/c1-3(4)5-2/h1-2H3, purity 98%
Compound 16: ethyl methanoate, C3H6O2, InChI=1S/C3H6O2/c1-2-5-3-4/h3H,2H2,1H3, purity 97%
Compound 17: pentan-1-ol, C5H12O, InChI=1S/C5H12O/c1-2-3-4-5-6/h6H,2-5H2,1H3, purity 99.5%

System: o-toluenesulfonamide; phases: Crystal, Liquid, Air at 1 atmosphere
Property: Triple point temperature, K (Crystal); method: DSC
Triple point temperature, K	uncertainty
427.35	1.22

System: o-toluenesulfonamide; phases: Crystal, Liquid, Air at 1 atmosphere
Property: Molar enthalpy of transition or fusion, kJ/mol (Crystal); method: DSC
Molar enthalpy of transition or fusion, kJ/mol	uncertainty
29.43	1.86

System: o-toluenesulfonamide + methanol; phases: Liquid, Crystal
Fixed: Pressure, kPa = 100
Property: Mole fraction of o-toluenesulfonamide (Liquid); method: gravimetric
Temperature, K	Mole fraction of o-toluenesulfonamide	uncertainty
273.15	0.01279	0.00082
279.15	0.01603	0.00103
283.75	0.01893	0.00121
289.15	0.02327	0.00149
293.65	0.0269	0.00172
298.95	0.0311	0.00199
303.25	0.03553	0.00228
308.65	0.04218	0.0027
313.15	0.04893	0.00314
318.15	0.05674	0.00364
323.15	0.06582	0.00422

System: o-toluenesulfonamide + ethanol; phases: Liquid, Crystal
Fixed: Pressure, kPa = 100
Property: Mole fraction of o-toluenesulfonamide (Liquid); method: gravimetric
Temperature, K	Mole fraction of o-toluenesulfonamide	uncertainty
273.15	0.00764	0.00049
279.15	0.009713	0.000623
283.75	0.0116	0.00074
289.15	0.01466	0.00094
293.65	0.01664	0.00107
298.95	0.01957	0.00125
303.25	0.02257	0.00145
308.65	0.02753	0.00177
313.15	0.03151	0.00202
318.15	0.03736	0.0024
323.15	0.0439	0.00281

System: o-toluenesulfonamide + propan-1-ol; phases: Liquid, Crystal
Fixed: Pressure, kPa = 100
Property: Mole fraction of o-toluenesulfonamide (Liquid); method: gravimetric
Temperature, K	Mole fraction of o-toluenesulfonamide	uncertainty
273.15	0.00418	0.000269
279.15	0.005502	0.000353
283.75	0.006739	0.000433
289.15	0.008466	0.000543
293.65	0.01027	0.00066
298.95	0.01256	0.00081
303.25	0.01477	0.00095
308.65	0.01816	0.00116
313.15	0.02145	0.00138
318.15	0.02575	0.00165
323.15	0.03	0.00192

System: o-toluenesulfonamide + propan-2-ol; phases: Liquid, Crystal
Fixed: Pressure, kPa = 100
Property: Mole fraction of o-toluenesulfonamide (Liquid); method: gravimetric
Temperature, K	Mole fraction of o-toluenesulfonamide	uncertainty
273.15	0.003431	0.000221
279.15	0.004644	0.000298
283.75	0.005808	0.000373
289.15	0.007557	0.000485
293.65	0.009145	0.000587
298.95	0.0115	0.00074
303.25	0.0137	0.00088
308.65	0.01751	0.00112
313.15	0.02084	0.00134
318.15	0.02517	0.00161
323.15	0.03036	0.00195

System: o-toluenesulfonamide + butan-1-ol; phases: Liquid, Crystal
Fixed: Pressure, kPa = 100
Property: Mole fraction of o-toluenesulfonamide (Liquid); method: gravimetric
Temperature, K	Mole fraction of o-toluenesulfonamide	uncertainty
273.15	0.003407	0.000219
279.15	0.004515	0.00029
283.75	0.005559	0.000357
289.15	0.00731	0.000469
293.65	0.008296	0.000532
298.95	0.01043	0.00067
303.25	0.01231	0.00079
308.65	0.01541	0.00099
313.15	0.01808	0.00116
318.15	0.02182	0.0014
323.15	0.02623	0.00168

System: o-toluenesulfonamide + 2-methyl-1-propanol; phases: Liquid, Crystal
Fixed: Pressure, kPa = 100
Property: Mole fraction of o-toluenesulfonamide (Liquid); method: gravimetric
Temperature, K	Mole fraction of o-toluenesulfonamide	uncertainty
273.15	0.002049	0.000132
279.15	0.002845	0.000183
283.75	0.003625	0.000233
289.15	0.004757	0.000305
293.65	0.005905	0.000379
298.95	0.007683	0.000493
303.25	0.009343	0.0006
308.65	0.01203	0.00077
313.15	0.01445	0.00093
318.15	0.01778	0.00114
323.15	0.02153	0.00138

System: o-toluenesulfonamide + pentan-1-ol; phases: Liquid, Crystal
Fixed: Pressure, kPa = 100
Property: Mole fraction of o-toluenesulfonamide (Liquid); method: gravimetric
Temperature, K	Mole fraction of o-toluenesulfonamide	uncertainty
273.15	0.002703	0.000174
279.15	0.003632	0.000233
283.95	0.004559	0.000293
289.15	0.005684	0.000365
293.35	0.007048	0.000452
298.95	0.008749	0.000561
303.25	0.01078	0.00069
308.95	0.01336	0.00086
313.15	0.01576	0.00101
319.15	0.01954	0.00125
323.85	0.02295	0.00147

System: o-toluenesulfonamide + 3-methylbutan-1-ol; phases: Liquid, Crystal
Fixed: Pressure, kPa = 100
Property: Mole fraction of o-toluenesulfonamide (Liquid); method: gravimetric
Temperature, K	Mole fraction of o-toluenesulfonamide	uncertainty
273.15	0.002476	0.000159
279.15	0.003333	0.000214
283.95	0.004189	0.000269
289.15	0.005338	0.000343
293.35	0.006416	0.000412
298.95	0.008053	0.000517
303.25	0.009775	0.000628
308.95	0.01247	0.0008
313.15	0.01439	0.00092
319.15	0.01826	0.00117
323.85	0.02141	0.00137

System: o-toluenesulfonamide + acetone; phases: Liquid, Crystal
Fixed: Pressure, kPa = 100
Property: Mole fraction of o-toluenesulfonamide (Liquid); method: gravimetric
Temperature, K	Mole fraction of o-toluenesulfonamide	uncertainty
273.15	0.07284	0.00467
279.15	0.07868	0.00504
283.75	0.08438	0.0054
289.15	0.09095	0.00583
293.65	0.09729	0.00623
298.95	0.1053	0.0067
303.25	0.1133	0.0073
308.65	0.1243	0.008
313.15	0.1342	0.0086
318.15	0.1459	0.0093
323.15	0.1582	0.0101

System: o-toluenesulfonamide + ethyl acetate; phases: Liquid, Crystal
Fixed: Pressure, kPa = 100
Property: Mole fraction of o-toluenesulfonamide (Liquid); method: gravimetric
Temperature, K	Mole fraction of o-toluenesulfonamide	uncertainty
273.15	0.02208	0.00141
279.15	0.02479	0.00159
283.75	0.02776	0.00178
289.15	0.03066	0.00196
293.65	0.03363	0.00215
298.95	0.03769	0.00241
303.25	0.04159	0.00266
308.65	0.04709	0.00302
313.15	0.05183	0.00332
318.15	0.05777	0.0037
323.15	0.06431	0.00412

System: o-toluenesulfonamide + acetonitrile; phases: Liquid, Crystal
Fixed: Pressure, kPa = 100
Property: Mole fraction of o-toluenesulfonamide (Liquid); method: gravimetric
Temperature, K	Mole fraction of o-toluenesulfonamide	uncertainty
273.15	0.01671	0.00107
279.15	0.01955	0.00125
283.95	0.02199	0.00141
289.15	0.02584	0.00166
293.35	0.02975	0.00191
298.95	0.0347	0.00222
303.25	0.04007	0.00257
308.95	0.04765	0.00305
313.15	0.05331	0.00342
319.15	0.06342	0.00406
323.85	0.07231	0.00463

System: o-toluenesulfonamide + cyclohexanone; phases: Liquid, Crystal
Fixed: Pressure, kPa = 100
Property: Mole fraction of o-toluenesulfonamide (Liquid); method: gravimetric
Temperature, K	Mole fraction of o-toluenesulfonamide	uncertainty
273.15	0.08032	0.00514
279.15	0.08605	0.00551
283.95	0.09272	0.00594
289.15	0.09919	0.00635
293.35	0.1055	0.0068
298.95	0.1136	0.0073
303.25	0.1221	0.0078
308.95	0.1331	0.0085
313.15	0.1426	0.0091
319.15	0.1558	0.01
323.85	0.1683	0.0108

System: o-toluenesulfonamide + cyclopentanone; phases: Liquid, Crystal
Fixed: Pressure, kPa = 100
Property: Mole fraction of o-toluenesulfonamide (Liquid); method: gravimetric
Temperature, K	Mole fraction of o-toluenesulfonamide	uncertainty
273.15	0.09799	0.00628
279.15	0.1042	0.0067
283.95	0.1109	0.0071
289.15	0.1182	0.0076
293.35	0.1239	0.0079
298.95	0.1326	0.0085
303.25	0.1419	0.0091
308.95	0.1524	0.0098
313.15	0.1603	0.0103
319.15	0.1748	0.0112
323.85	0.1866	0.012

System: o-toluenesulfonamide + methyl ethanoate; phases: Liquid, Crystal
Fixed: Pressure, kPa = 100
Property: Mole fraction of o-toluenesulfonamide (Liquid); method: gravimetric
Temperature, K	Mole fraction of o-toluenesulfonamide	uncertainty
273.15	0.02703	0.00173
279.15	0.03033	0.00194
283.95	0.03372	0.00216
289.15	0.03739	0.0024
293.35	0.04052	0.0026
298.95	0.04602	0.00295
303.25	0.05127	0.00329
308.95	0.05804	0.00372
313.15	0.06369	0.00408
319.15	0.07305	0.00468
323.85	0.0809	0.00518

System: o-toluenesulfonamide + ethyl methanoate; phases: Liquid, Crystal
Fixed: Pressure, kPa = 100
Property: Mole fraction of o-toluenesulfonamide (Liquid); method: gravimetric
Temperature, K	Mole fraction of o-toluenesulfonamide	uncertainty
273.15	0.01297	0.00083
279.15	0.01457	0.00093
283.95	0.01654	0.00106
289.15	0.01845	0.00118
293.35	0.02065	0.00132
298.95	0.02387	0.00153
303.25	0.02727	0.00175
308.95	0.0316	0.00203
313.15	0.03537	0.00227
319.15	0.04082	0.00262
323.85	0.04607	0.00295

System: o-toluenesulfonamide + dichloromethane; phases: Liquid, Crystal
Fixed: Pressure, kPa = 100
Property: Mole fraction of o-toluenesulfonamide (Liquid); method: gravimetric
Temperature, K	Mole fraction of o-toluenesulfonamide	uncertainty
273.15	0.001612	0.000103
279.15	0.001989	0.000128
283.95	0.002329	0.00015
289.15	0.003043	0.000195
293.35	0.003652	0.000234
298.95	0.004634	0.000297
303.25	0.005468	0.000351
308.95	0.006971	0.000447
312.15	0.007848	0.000503
