Measured thermophysical data. Measurement and Correlation of Solubility of Hydrochlorothiazide in Monosolvents and Binary Solvent Mixtures from 283.15 to 323.15 K
Source: J. Chem. Eng. Data, 2019, 10.1021/acs.jced.9b00220
Compound 1: hydrochlorothiazide, C7H8ClN3O4S2, InChI=1S/C7H8ClN3O4S2/c8-4-1-5-7(2-6(4)16(9,12)13)17(14,15)11-3-10-5/h1-2,10-11H,3H2,(H2,9,12,13), purity 99.5%
Compound 2: methanol, CH4O, InChI=1S/CH4O/c1-2/h2H,1H3, purity 99.7%
Compound 3: ethanol, C2H6O, InChI=1S/C2H6O/c1-2-3/h3H,2H2,1H3, purity 99.5%
Compound 4: propan-1-ol, C3H8O, InChI=1S/C3H8O/c1-2-3-4/h4H,2-3H2,1H3, purity 99.5%
Compound 5: propan-2-ol, C3H8O, InChI=1S/C3H8O/c1-3(2)4/h3-4H,1-2H3, purity 99.5%
Compound 6: water, H2O, InChI=1S/H2O/h1H2, purity 99.9%
Compound 7: acetonitrile, C2H3N, InChI=1S/C2H3N/c1-2-3/h1H3, purity 99.5%
Compound 8: ethyl acetate, C4H8O2, InChI=1S/C4H8O2/c1-3-6-4(2)5/h3H2,1-2H3, purity 99.5%
Compound 9: butan-2-ol, C4H10O, InChI=1S/C4H10O/c1-3-4(2)5/h4-5H,3H2,1-2H3, purity 99.5%
Compound 10: pentan-1-ol, C5H12O, InChI=1S/C5H12O/c1-2-3-4-5-6/h6H,2-5H2,1H3, purity 99.5%
Compound 11: 2-methyl-1-propanol, C4H10O, InChI=1S/C4H10O/c1-4(2)3-5/h4-5H,3H2,1-2H3, purity 99.5%

System: hydrochlorothiazide; phases: Crystal, Liquid, Air at 1 atmosphere
Property: Triple point temperature, K (Crystal); method: DSC
Triple point temperature, K	uncertainty
544.91	1

System: hydrochlorothiazide; phases: Crystal, Liquid, Air at 1 atmosphere
Property: Molar enthalpy of transition or fusion, kJ/mol (Crystal); method: DSC
Molar enthalpy of transition or fusion, kJ/mol	uncertainty
31.3015050222	0.8842905918

System: hydrochlorothiazide + methanol; phases: Liquid, Crystal
Fixed: Pressure, kPa = 101.3
Property: Mole fraction of hydrochlorothiazide (Liquid); method: Titration method
Temperature, K	Mole fraction of hydrochlorothiazide	uncertainty
283.05	0.003573	0.000357
288.15	0.003784	0.000379
293.15	0.003976	0.000398
297.65	0.004245	0.000425
303.45	0.004486	0.000449
308.05	0.004735	0.000474
313.15	0.005011	0.000501
318.65	0.005369	0.000537
323.35	0.005733	0.000573

System: hydrochlorothiazide + propan-1-ol; phases: Liquid, Crystal
Fixed: Pressure, kPa = 101.3
Property: Mole fraction of hydrochlorothiazide (Liquid); method: Titration method
Temperature, K	Mole fraction of hydrochlorothiazide	uncertainty
283.25	0.000295	3e-05
288.75	0.000357	3.6e-05
293.95	0.000439	4.4e-05
298.65	0.000505	5.1e-05
303.65	0.0006	6e-05
308.65	0.000716	7.2e-05
313.35	0.000836	8.4e-05
317.85	0.000977	9.8e-05
325.15	0.001199	0.00012

System: hydrochlorothiazide + water; phases: Liquid, Crystal
Fixed: Pressure, kPa = 101.3
Property: Mole fraction of hydrochlorothiazide (Liquid); method: Titration method
Temperature, K	Mole fraction of hydrochlorothiazide	uncertainty
283.25	2.3e-05	2e-06
287.95	2.8e-05	3e-06
292.95	3.5e-05	4e-06
298.15	4.2e-05	4e-06
303.15	5.2e-05	5e-06
308.15	6.5e-05	7e-06
312.85	7.8e-05	8e-06
318.15	9.6e-05	1e-05
323.05	0.000111	1.1e-05

System: hydrochlorothiazide + ethyl acetate; phases: Liquid, Crystal
Fixed: Pressure, kPa = 101.3
Property: Mole fraction of hydrochlorothiazide (Liquid); method: Titration method
Temperature, K	Mole fraction of hydrochlorothiazide	uncertainty
283.15	0.00084	8.4e-05
288.25	0.0009	9e-05
293.05	0.000971	9.7e-05
299.25	0.001058	0.000106
303.25	0.001129	0.000113
308.65	0.001225	0.000123
313.25	0.001289	0.000129
318.15	0.001373	0.000137
323.05	0.001421	0.000142

System: hydrochlorothiazide + ethanol; phases: Liquid, Crystal
Fixed: Pressure, kPa = 101.3
Property: Mole fraction of hydrochlorothiazide (Liquid); method: Titration method
Temperature, K	Mole fraction of hydrochlorothiazide	uncertainty
279.95	0.001538	0.000154
285.86	0.001672	0.000167
291.46	0.001848	0.000185
296.34	0.002008	0.000201
301.7	0.002153	0.000215
307.17	0.002242	0.000224
311.9	0.002403	0.00024
316.15	0.002498	0.00025
323.7	0.002752	0.000275

System: hydrochlorothiazide + acetonitrile; phases: Liquid, Crystal
Fixed: Pressure, kPa = 101.3
Property: Mole fraction of hydrochlorothiazide (Liquid); method: Titration method
Temperature, K	Mole fraction of hydrochlorothiazide	uncertainty
283.15	0.002977	0.000298
288.15	0.003187	0.000319
293.25	0.003414	0.000342
298.15	0.003582	0.000358
303.15	0.003823	0.000382
308.05	0.004038	0.000404
313.65	0.004248	0.000425
318.25	0.004579	0.000458
323.45	0.004825	0.000483

System: hydrochlorothiazide + propan-2-ol; phases: Liquid, Crystal
Fixed: Pressure, kPa = 101.3
Property: Mole fraction of hydrochlorothiazide (Liquid); method: Titration method
Temperature, K	Mole fraction of hydrochlorothiazide	uncertainty
283.33	0.000221	2.2e-05
288.3	0.000288	2.9e-05
293.38	0.000359	3.6e-05
298.49	0.000458	4.6e-05
302.85	0.000562	5.6e-05
307.9	0.000732	7.3e-05
312.9	0.000929	9.3e-05
318.16	0.001164	0.000117
323.35	0.001415	0.000142

System: hydrochlorothiazide + butan-2-ol; phases: Liquid, Crystal
Fixed: Pressure, kPa = 101.3
Property: Mole fraction of hydrochlorothiazide (Liquid); method: Titration method
Temperature, K	Mole fraction of hydrochlorothiazide	uncertainty
283.3	0.000124	1.2e-05
288.24	0.000159	1.6e-05
293.17	0.000202	2e-05
298.2	0.000262	2.6e-05
303.04	0.000334	3.3e-05
307.85	0.000422	4.2e-05
312.91	0.000537	5.4e-05
318.03	0.000679	6.8e-05
323.13	0.000851	8.5e-05

System: hydrochlorothiazide + pentan-1-ol; phases: Liquid, Crystal
Fixed: Pressure, kPa = 101.3
Property: Mole fraction of hydrochlorothiazide (Liquid); method: Titration method
Temperature, K	Mole fraction of hydrochlorothiazide	uncertainty
282.94	4.4e-05	4e-06
288.39	5.9e-05	6e-06
293.37	7.7e-05	8e-06
297.82	9.8e-05	1e-05
302.63	0.000127	1.3e-05
307.76	0.000166	1.7e-05
312.95	0.000215	2.2e-05
317.7	0.000273	2.7e-05
322.05	0.000332	3.3e-05

System: hydrochlorothiazide + 2-methyl-1-propanol; phases: Liquid, Crystal
Fixed: Pressure, kPa = 101.3
Property: Mole fraction of hydrochlorothiazide (Liquid); method: Titration method
Temperature, K	Mole fraction of hydrochlorothiazide	uncertainty
282.85	6.6e-05	7e-06
288	8.6e-05	9e-06
293.57	0.000117	1.2e-05
298.4	0.000153	1.5e-05
302.64	0.000192	1.9e-05
308.22	0.000258	2.6e-05
312.94	0.000331	3.3e-05
317.83	0.000426	4.3e-05
322.6	0.000522	5.2e-05

System: hydrochlorothiazide + methanol + water; phases: Liquid, Crystal
Fixed: Pressure, kPa = 101.3
Property: Mole fraction of hydrochlorothiazide (Liquid); method: Titration method
Temperature, K	Solvent: Mole fraction of methanol	Mole fraction of hydrochlorothiazide	uncertainty
283.25	0	2.3e-05	2e-06
287.95	0	2.8e-05	3e-06
292.95	0	3.5e-05	4e-06
298.15	0	4.2e-05	4e-06
303.15	0	5.2e-05	5e-06
308.15	0	6.5e-05	7e-06
312.85	0	7.8e-05	8e-06
318.15	0	9.6e-05	1e-05
323.05	0	0.000111	1.1e-05
283.06	0.1	3.9e-05	5e-06
288.1	0.1	5.2e-05	6e-06
293.45	0.1	7.3e-05	9e-06
298.5	0.1	9.6e-05	1.2e-05
303.3	0.1	0.000123	1.5e-05
308.11	0.1	0.000165	2e-05
312.84	0.1	0.000215	2.5e-05
318.36	0.1	0.000282	3.3e-05
322.77	0.1	0.000357	4.3e-05
282.85	0.1999	0.000106	1.7e-05
287.9	0.1999	0.000142	3.1e-05
293.17	0.1999	0.000192	2.8e-05
298.43	0.1999	0.000253	3.6e-05
303.34	0.1999	0.000328	4.6e-05
308.05	0.1999	0.00042	5.8e-05
312.96	0.1999	0.000524	7.1e-05
318.15	0.1999	0.000686	9.1e-05
323.05	0.1999	0.000899	0.000114
283.06	0.3	0.000258	4.8e-05
288.6	0.3	0.000339	7.3e-05
293.64	0.3	0.000424	7.2e-05
298.56	0.3	0.000522	8.8e-05
303.37	0.3	0.00066	0.000106
308.32	0.3	0.000841	0.00013
312.9	0.3	0.001004	0.000152
317.67	0.3	0.001246	0.000181
322.64	0.3	0.001525	0.000212
282.9	0.4	0.000559	0.000102
288.3	0.4	0.000696	0.00012
293.38	0.4	0.000844	0.000143
298.45	0.4	0.001034	0.000165
303.37	0.4	0.001246	0.000194
308.64	0.4	0.00155	0.00023
313.2	0.4	0.001804	0.000264
318.1	0.4	0.002136	0.0003
323.05	0.4	0.00253	0.00035
283.35	0.4999	0.000971	0.000155
288.31	0.4999	0.001143	0.00018
293.22	0.4999	0.001368	0.000208
298.15	0.4999	0.001579	0.000233
303.46	0.4999	0.001899	0.000273
308.1	0.4999	0.002244	0.000309
313.45	0.4999	0.002637	0.000357
317.65	0.4999	0.003	0.000398
322.64	0.4999	0.003533	0.000444
282.98	0.5998	0.001365	0.000178
287.95	0.5998	0.001606	0.000205
293.08	0.5998	0.001873	0.000228
298.2	0.5998	0.002164	0.000259
303.46	0.5998	0.002558	0.000296
308.15	0.5998	0.002928	0.000333
313.44	0.5998	0.003422	0.000372
317.67	0.5998	0.003834	0.000423
320.65	0.5998	0.004355	0.000456
283.06	0.7	0.001909	0.00021
288.14	0.7	0.00219	0.000236
293.38	0.7	0.00246	0.000263
298.5	0.7	0.002788	0.000295
303.34	0.7	0.003125	0.000327
307.95	0.7	0.00355	0.000369
312.55	0.7	0.003999	0.000408
317.82	0.7	0.004507	0.000461
322.15	0.7	0.00517	0.000521
282.64	0.7999	0.002315	0.000242
288.15	0.7999	0.002605	0.00027
293.57	0.7999	0.002922	0.000301
298.55	0.7999	0.003255	0.000332
303.33	0.7999	0.003597	0.000365
308.03	0.7999	0.004039	0.000407
312.61	0.7999	0.004434	0.000445
317.87	0.7999	0.004932	0.000495
322.25	0.7999	0.005535	0.000554
283.04	0.8998	0.003072	0.00031
288	0.8998	0.003344	0.000336
293.22	0.8998	0.003625	0.000364
299.1	0.8998	0.003879	0.00039
303.25	0.8998	0.004175	0.000418
308.86	0.8998	0.004521	0.000453
313.6	0.8998	0.004801	0.00048
318.3	0.8998	0.005217	0.000522
322.83	0.8998	0.005627	0.000563
283.05	1	0.003573	0.000357
288.15	1	0.003784	0.000379
293.15	1	0.003976	0.000398
297.65	1	0.004245	0.000425
303.45	1	0.004486	0.000449
308.05	1	0.004735	0.000474
313.15	1	0.005011	0.000501
318.65	1	0.005369	0.000537
323.35	1	0.005733	0.000573

System: hydrochlorothiazide + acetonitrile + propan-1-ol; phases: Liquid, Crystal
Fixed: Pressure, kPa = 101.3
Property: Mole fraction of hydrochlorothiazide (Liquid); method: Titration method
Temperature, K	Solvent: Mole fraction of acetonitrile	Mole fraction of hydrochlorothiazide	uncertainty
283.25	0	0.000295	3e-05
288.75	0	0.000357	3.6e-05
293.95	0	0.000439	4.4e-05
298.65	0	0.000505	5.1e-05
303.65	0	0.0006	6e-05
308.65	0	0.000716	7.2e-05
313.35	0	0.000836	8.4e-05
317.85	0	0.000977	9.8e-05
325.15	0	0.001199	0.00012
283.13	0.1	0.001556	0.000178
288.4	0.1	0.001681	0.000191
293.56	0.1	0.001815	0.000205
298.55	0.1	0.001945	0.000218
303.13	0.1	0.002072	0.000231
308.15	0.1	0.002221	0.000245
312.85	0.1	0.002365	0.00026
317.4	0.1	0.002506	0.000273
322.97	0.1	0.002699	0.000299
283.13	0.2001	0.003176	0.000382
288.4	0.2001	0.003365	0.000402
293.56	0.2001	0.003575	0.000431
298.55	0.2001	0.003776	0.00045
303.13	0.2001	0.003961	0.000463
308.15	0.2001	0.004162	0.000487
312.85	0.2001	0.004377	0.000505
317.4	0.2001	0.004594	0.000527
322.97	0.2001	0.004849	0.000553
282.5	0.3	0.005074	0.000625
287.75	0.3	0.00532	0.000649
292.66	0.3	0.005547	0.000678
297.63	0.3	0.005797	0.000698
302.83	0.3	0.006054	0.000717
307.34	0.3	0.006286	0.000739
312.65	0.3	0.006542	0.000763
317.9	0.3	0.006835	0.000789
322.94	0.3	0.007108	0.000814
282.5	0.4	0.007213	0.000877
287.75	0.4	0.007464	0.000894
292.66	0.4	0.007714	0.000861
297.63	0.4	0.007953	0.000879
302.83	0.4	0.008209	0.000945
307.34	0.4	0.008435	0.000961
312.65	0.4	0.008718	0.00098
317.9	0.4	0.008992	0.001001
322.94	0.4	0.009255	0.001021
283.13	0.5002	0.009265	0.001023
288.27	0.5002	0.009446	0.001039
293.51	0.5002	0.00963	0.001003
298.37	0.5002	0.009794	0.001016
303.27	0.5002	0.009979	0.001075
308.05	0.5002	0.010153	0.001088
312.97	0.5002	0.010292	0.001095
318.03	0.5002	0.010512	0.001113
323.05	0.5002	0.010711	0.001127
283.13	0.6	0.01017	0.001022
288.27	0.6	0.010362	0.001041
293.51	0.6	0.010556	0.00106
298.37	0.6	0.010703	0.001074
303.27	0.6	0.010887	0.001092
308.05	0.6	0.011068	0.00111
312.97	0.6	0.011225	0.001125
318.03	0.6	0.011426	0.001145
323.05	0.6	0.011597	0.001161
282.97	0.7004	0.01011	0.00102
288.28	0.7004	0.010262	0.001036
293.5	0.7004	0.0104	0.00105
298.15	0.7004	0.010519	0.001062
302.98	0.7004	0.010656	0.001076
308.17	0.7004	0.010798	0.001091
312.99	0.7004	0.010925	0.001104
318.29	0.7004	0.011044	0.001116
322.91	0.7004	0.011148	0.001127
282.97	0.8	0.008632	0.000897
288.28	0.8	0.0088	0.000913
293.5	0.8	0.00895	0.000927
298.15	0.8	0.009074	0.000938
302.98	0.8	0.009215	0.000951
308.17	0.8	0.009368	0.000966
312.99	0.8	0.009506	0.000978
318.29	0.8	0.009667	0.000993
322.91	0.8	0.009794	0.001005
282.69	0.9	0.006044	0.000628
288	0.9	0.006213	0.000644
292.78	0.9	0.006386	0.00066
297.98	0.9	0.006557	0.000676
303.12	0.9	0.006735	0.000693
308.03	0.9	0.006918	0.00071
313.05	0.9	0.007095	0.000727
318.05	0.9	0.007275	0.000744
322.94	0.9	0.00745	0.00076
283.15	1	0.002977	0.000298
288.15	1	0.003187	0.000319
293.25	1	0.003414	0.000342
298.15	1	0.003582	0.000358
303.15	1	0.003823	0.000382
308.05	1	0.004038	0.000404
313.65	1	0.004248	0.000425
318.25	1	0.004579	0.000458
323.45	1	0.004825	0.000483
