Measured thermophysical data. Solubility of Diflufenican in Pure and Binary Solvent Systems
Source: J. Chem. Eng. Data, 2018, 10.1021/acs.jced.8b00632
Compound 1: N-(2,4-difluorophenyl)-2-(3-(trifluoromethyl)phenoxy)nicotinamide, C19H11F5N2O2, InChI=1S/C19H11F5N2O2/c20-12-6-7-16(15(21)10-12)26-17(27)14-5-2-8-25-18(14)28-13-4-1-3-11(9-13)19(22,23)24/h1-10H,(H,26,27), purity 99.3%
Compound 2: ethanol, C2H6O, InChI=1S/C2H6O/c1-2-3/h3H,2H2,1H3, purity 99.8%
Compound 3: benzene, C6H6, InChI=1S/C6H6/c1-2-4-6-5-3-1/h1-6H, purity 99.8%
Compound 4: ethyl acetate, C4H8O2, InChI=1S/C4H8O2/c1-3-6-4(2)5/h3H2,1-2H3, purity 99.7%
Compound 5: cyclohexane, C6H12, InChI=1S/C6H12/c1-2-4-6-5-3-1/h1-6H2, purity 99.7%
Compound 6: methanol, CH4O, InChI=1S/CH4O/c1-2/h2H,1H3, purity 99.5%
Compound 7: propan-2-ol, C3H8O, InChI=1S/C3H8O/c1-3(2)4/h3-4H,1-2H3, purity 99.7%
Compound 8: acetone, C3H6O, InChI=1S/C3H6O/c1-3(2)4/h1-2H3, purity 99.5%
Compound 9: toluene, C7H8, InChI=1S/C7H8/c1-7-5-3-2-4-6-7/h2-6H,1H3, purity 99.5%
Compound 10: water, H2O, InChI=1S/H2O/h1H2, purity 99.9%
Compound 11: potassium nitrate, KNO3, InChI=1S/K.NO3/c;2-1(3)4/q+1;-1, purity 99%

System: N-(2,4-difluorophenyl)-2-(3-(trifluoromethyl)phenoxy)nicotinamide; phases: Crystal, Liquid, Air at 1 atmosphere
Property: Normal melting temperature, K (Crystal); method: DTA
Normal melting temperature, K	uncertainty
435.52	0.61

System: N-(2,4-difluorophenyl)-2-(3-(trifluoromethyl)phenoxy)nicotinamide; phases: Crystal, Liquid, Air at 1 atmosphere
Property: Molar enthalpy of transition or fusion, kJ/mol (Crystal); method: DSC
Molar enthalpy of transition or fusion, kJ/mol	uncertainty
39.421	0.917

System: N-(2,4-difluorophenyl)-2-(3-(trifluoromethyl)phenoxy)nicotinamide + ethanol; phases: Liquid, Crystal
Fixed: Pressure, kPa = 101.3
Property: Mole fraction of N-(2,4-difluorophenyl)-2-(3-(trifluoromethyl)phenoxy)nicotinamide (Liquid); method: Titration method
Temperature, K	Mole fraction of N-(2,4-difluorophenyl)-2-(3-(trifluoromethyl)phenoxy)nicotinamide	uncertainty
278.15	0.0002507	1.51e-05
283.15	0.0003317	2e-05
288.15	0.0004299	2.59e-05
293.15	0.0005446	3.28e-05
298.15	0.0006807	4.1e-05
303.15	0.0008574	5.16e-05
308.15	0.001069	6.4e-05
313.15	0.001386	8.3e-05
318.15	0.001731	0.000104
323.15	0.002135	0.000128

System: N-(2,4-difluorophenyl)-2-(3-(trifluoromethyl)phenoxy)nicotinamide + ethyl acetate; phases: Liquid, Crystal
Fixed: Pressure, kPa = 101.3
Property: Mole fraction of N-(2,4-difluorophenyl)-2-(3-(trifluoromethyl)phenoxy)nicotinamide (Liquid); method: Titration method
Temperature, K	Mole fraction of N-(2,4-difluorophenyl)-2-(3-(trifluoromethyl)phenoxy)nicotinamide	uncertainty
278.15	0.01074	0.00065
283.15	0.01256	0.00076
288.15	0.0147	0.0009
293.15	0.01728	0.00104
298.15	0.02024	0.00122
303.15	0.02367	0.00142
308.15	0.02722	0.00164
313.15	0.03141	0.00189
318.15	0.03661	0.0022
323.15	0.04234	0.00254

System: N-(2,4-difluorophenyl)-2-(3-(trifluoromethyl)phenoxy)nicotinamide + acetone; phases: Liquid, Crystal
Fixed: Pressure, kPa = 101.3
Property: Mole fraction of N-(2,4-difluorophenyl)-2-(3-(trifluoromethyl)phenoxy)nicotinamide (Liquid); method: Titration method
Temperature, K	Mole fraction of N-(2,4-difluorophenyl)-2-(3-(trifluoromethyl)phenoxy)nicotinamide	uncertainty
278.15	0.009026	0.000543
283.15	0.01074	0.00065
288.15	0.01274	0.00077
293.15	0.0152	0.00091
298.15	0.018	0.00108
303.15	0.02105	0.00127
308.15	0.02467	0.00148
313.15	0.02903	0.00175
318.15	0.03388	0.00204
323.15	0.04085	0.00246

System: N-(2,4-difluorophenyl)-2-(3-(trifluoromethyl)phenoxy)nicotinamide + toluene; phases: Liquid, Crystal
Fixed: Pressure, kPa = 101.3
Property: Mole fraction of N-(2,4-difluorophenyl)-2-(3-(trifluoromethyl)phenoxy)nicotinamide (Liquid); method: Titration method
Temperature, K	Mole fraction of N-(2,4-difluorophenyl)-2-(3-(trifluoromethyl)phenoxy)nicotinamide	uncertainty
278.15	0.005126	0.000309
283.15	0.006377	0.000384
288.15	0.00779	0.000469
293.15	0.009536	0.000574
298.15	0.0116	0.0007
303.15	0.01417	0.00085
308.15	0.01773	0.00107
313.15	0.02147	0.00129
318.15	0.02522	0.00152
323.15	0.03028	0.00182

System: N-(2,4-difluorophenyl)-2-(3-(trifluoromethyl)phenoxy)nicotinamide + cyclohexane; phases: Liquid, Crystal
Fixed: Pressure, kPa = 101.3
Property: Mole fraction of N-(2,4-difluorophenyl)-2-(3-(trifluoromethyl)phenoxy)nicotinamide (Liquid); method: Titration method
Temperature, K	Mole fraction of N-(2,4-difluorophenyl)-2-(3-(trifluoromethyl)phenoxy)nicotinamide	uncertainty
283.15	0.0001034	6.3e-06
288.15	0.000162	9.8e-06
293.15	0.0002287	1.38e-05
298.15	0.0003341	2.02e-05
303.15	0.0004584	2.77e-05
308.15	0.0006134	3.7e-05
313.15	0.0008063	4.87e-05
318.15	0.001118	6.7e-05
323.15	0.001474	8.9e-05

System: N-(2,4-difluorophenyl)-2-(3-(trifluoromethyl)phenoxy)nicotinamide + benzene; phases: Liquid, Crystal
Fixed: Pressure, kPa = 101.3
Property: Mole fraction of N-(2,4-difluorophenyl)-2-(3-(trifluoromethyl)phenoxy)nicotinamide (Liquid); method: Titration method
Temperature, K	Mole fraction of N-(2,4-difluorophenyl)-2-(3-(trifluoromethyl)phenoxy)nicotinamide	uncertainty
283.15	0.005989	0.000361
288.15	0.007803	0.00047
293.15	0.009645	0.00058
298.15	0.0118	0.00071
303.15	0.01447	0.00087
308.15	0.01752	0.00105
313.15	0.02154	0.0013
318.15	0.02629	0.00158
323.15	0.03194	0.00192

System: N-(2,4-difluorophenyl)-2-(3-(trifluoromethyl)phenoxy)nicotinamide + methanol; phases: Liquid, Crystal
Fixed: Pressure, kPa = 101.3
Property: Mole fraction of N-(2,4-difluorophenyl)-2-(3-(trifluoromethyl)phenoxy)nicotinamide (Liquid); method: Titration method
Temperature, K	Mole fraction of N-(2,4-difluorophenyl)-2-(3-(trifluoromethyl)phenoxy)nicotinamide	uncertainty
278.15	0.0002353	1.42e-05
283.15	0.0002932	1.77e-05
288.15	0.0003772	2.27e-05
293.15	0.0004735	2.85e-05
298.15	0.0006004	3.62e-05
303.15	0.0007499	4.51e-05
308.15	0.0009377	5.65e-05
313.15	0.001174	7.1e-05
318.15	0.001475	8.9e-05
323.15	0.001873	0.000113

System: N-(2,4-difluorophenyl)-2-(3-(trifluoromethyl)phenoxy)nicotinamide + propan-2-ol; phases: Liquid, Crystal
Fixed: Pressure, kPa = 101.3
Property: Mole fraction of N-(2,4-difluorophenyl)-2-(3-(trifluoromethyl)phenoxy)nicotinamide (Liquid); method: Titration method
Temperature, K	Mole fraction of N-(2,4-difluorophenyl)-2-(3-(trifluoromethyl)phenoxy)nicotinamide	uncertainty
278.15	4.652e-05	2.84e-06
283.15	7.358e-05	4.47e-06
288.15	0.0001162	7.1e-06
293.15	0.0001827	1.11e-05
298.15	0.0002818	1.71e-05
303.15	0.0004314	2.62e-05
308.15	0.0006655	4.04e-05
313.15	0.001	6.1e-05
318.15	0.001519	9.2e-05
323.15	0.0022	0.000133

System: N-(2,4-difluorophenyl)-2-(3-(trifluoromethyl)phenoxy)nicotinamide + acetone + water; phases: Liquid, Crystal
Fixed: Pressure, kPa = 101.3
Property: Mole fraction of N-(2,4-difluorophenyl)-2-(3-(trifluoromethyl)phenoxy)nicotinamide (Liquid); method: Titration method
Temperature, K	Solvent: Mole fraction of acetone	Mole fraction of N-(2,4-difluorophenyl)-2-(3-(trifluoromethyl)phenoxy)nicotinamide	uncertainty
278.15	0.9	0.005682	0.000342
283.15	0.9	0.007102	0.000427
288.15	0.9	0.008648	0.00052
293.15	0.9	0.01036	0.00062
298.15	0.9	0.01245	0.00075
303.15	0.9	0.01532	0.00092
308.15	0.9	0.0187	0.00112
313.15	0.9	0.02238	0.00135
318.15	0.9	0.0263	0.00158
323.15	0.9	0.03045	0.00183
278.15	0.8	0.003677	0.000221
283.15	0.8	0.004597	0.000277
288.15	0.8	0.005673	0.000342
293.15	0.8	0.007098	0.000427
298.15	0.8	0.008779	0.000528
303.15	0.8	0.01091	0.00066
308.15	0.8	0.01305	0.00079
313.15	0.8	0.01589	0.00096
318.15	0.8	0.01945	0.00117
323.15	0.8	0.02301	0.00138
278.15	0.7	0.002327	0.00014
283.15	0.7	0.002963	0.000178
288.15	0.7	0.003736	0.000225
293.15	0.7	0.004687	0.000282
298.15	0.7	0.005822	0.00035
303.15	0.7	0.007193	0.000433
308.15	0.7	0.00882	0.000531
313.15	0.7	0.01074	0.00065
318.15	0.7	0.01303	0.00078
323.15	0.7	0.01565	0.00094
278.15	0.6	0.001221	7.4e-05
283.15	0.6	0.001561	9.4e-05
288.15	0.6	0.002025	0.000122
293.15	0.6	0.002538	0.000153
298.15	0.6	0.003276	0.000197
303.15	0.6	0.004119	0.000248
308.15	0.6	0.005091	0.000307
313.15	0.6	0.006334	0.000381
318.15	0.6	0.007811	0.00047
323.15	0.6	0.009523	0.000574
278.15	0.5	0.0004334	2.64e-05
283.15	0.5	0.000576	3.5e-05
288.15	0.5	0.0007603	4.61e-05
293.15	0.5	0.0009966	6.04e-05
298.15	0.5	0.001269	7.7e-05
303.15	0.5	0.001682	0.000102
308.15	0.5	0.002189	0.000132
313.15	0.5	0.002792	0.000169
318.15	0.5	0.003604	0.000218
323.15	0.5	0.004474	0.00027
278.15	1	0.009026	0.000543
283.15	1	0.01074	0.00065
288.15	1	0.01274	0.00077
293.15	1	0.0152	0.00091
298.15	1	0.018	0.00108
303.15	1	0.02105	0.00127
308.15	1	0.02467	0.00148
313.15	1	0.02903	0.00175
318.15	1	0.03388	0.00204
323.15	1	0.04085	0.00246

System: N-(2,4-difluorophenyl)-2-(3-(trifluoromethyl)phenoxy)nicotinamide + acetone + ethanol; phases: Liquid, Crystal
Fixed: Pressure, kPa = 101.3
Property: Mole fraction of N-(2,4-difluorophenyl)-2-(3-(trifluoromethyl)phenoxy)nicotinamide (Liquid); method: Titration method
Temperature, K	Solvent: Mole fraction of acetone	Mole fraction of N-(2,4-difluorophenyl)-2-(3-(trifluoromethyl)phenoxy)nicotinamide	uncertainty
278.15	0.9	0.007882	0.000474
283.15	0.9	0.009453	0.000569
288.15	0.9	0.01122	0.00067
293.15	0.9	0.01329	0.0008
298.15	0.9	0.01572	0.00095
303.15	0.9	0.01855	0.00112
308.15	0.9	0.02193	0.00132
313.15	0.9	0.02597	0.00156
318.15	0.9	0.03033	0.00182
323.15	0.9	0.03516	0.00211
278.15	0.8	0.006597	0.000397
283.15	0.8	0.008071	0.000486
288.15	0.8	0.009726	0.000585
293.15	0.8	0.01144	0.00069
298.15	0.8	0.01373	0.00083
303.15	0.8	0.0162	0.00097
308.15	0.8	0.01889	0.00114
313.15	0.8	0.02232	0.00134
318.15	0.8	0.02593	0.00156
323.15	0.8	0.03025	0.00182
278.15	0.7	0.005312	0.00032
283.15	0.7	0.006557	0.000395
288.15	0.7	0.007942	0.000478
293.15	0.7	0.00944	0.000568
298.15	0.7	0.01122	0.00067
303.15	0.7	0.01336	0.0008
308.15	0.7	0.01593	0.00096
313.15	0.7	0.01895	0.00114
318.15	0.7	0.02254	0.00136
323.15	0.7	0.02668	0.0016
278.15	0.6	0.004159	0.00025
283.15	0.6	0.005095	0.000307
288.15	0.6	0.006187	0.000372
293.15	0.6	0.00758	0.000456
298.15	0.6	0.009134	0.000549
303.15	0.6	0.01097	0.00066
308.15	0.6	0.01317	0.00079
313.15	0.6	0.01576	0.00095
318.15	0.6	0.01879	0.00113
323.15	0.6	0.02244	0.00135
278.15	0.5	0.003281	0.000198
283.15	0.5	0.004045	0.000243
288.15	0.5	0.004986	0.0003
293.15	0.5	0.006	0.000361
298.15	0.5	0.007119	0.000428
303.15	0.5	0.008549	0.000514
308.15	0.5	0.01038	0.00062
313.15	0.5	0.01259	0.00076
318.15	0.5	0.01515	0.00091
323.15	0.5	0.01806	0.00109
278.15	0.4	0.002296	0.000138
283.15	0.4	0.002876	0.000173
288.15	0.4	0.003571	0.000215
293.15	0.4	0.004288	0.000258
298.15	0.4	0.005279	0.000318
303.15	0.4	0.006362	0.000383
308.15	0.4	0.007704	0.000463
313.15	0.4	0.009082	0.000546
318.15	0.4	0.01094	0.00066
323.15	0.4	0.01316	0.00079
278.15	0.3	0.001538	9.3e-05
283.15	0.3	0.001963	0.000118
288.15	0.3	0.002436	0.000147
293.15	0.3	0.003025	0.000182
298.15	0.3	0.003692	0.000222
303.15	0.3	0.004505	0.000271
308.15	0.3	0.005467	0.000329
313.15	0.3	0.006531	0.000393
318.15	0.3	0.007888	0.000474
323.15	0.3	0.009381	0.000564
278.15	0.2	0.0009427	5.68e-05
283.15	0.2	0.001216	7.3e-05
288.15	0.2	0.00151	9.1e-05
293.15	0.2	0.001896	0.000114
298.15	0.2	0.002341	0.000141
303.15	0.2	0.002881	0.000173
308.15	0.2	0.003511	0.000211
313.15	0.2	0.004214	0.000254
318.15	0.2	0.005122	0.000308
323.15	0.2	0.006251	0.000376
278.15	0.1	0.0005217	3.14e-05
283.15	0.1	0.000657	3.96e-05
288.15	0.1	0.0008413	5.07e-05
293.15	0.1	0.001053	6.3e-05
298.15	0.1	0.001322	8e-05
303.15	0.1	0.001635	9.8e-05
308.15	0.1	0.002023	0.000122
313.15	0.1	0.002521	0.000152
318.15	0.1	0.003132	0.000188
323.15	0.1	0.00381	0.00023
278.15	1	0.009026	0.000543
283.15	1	0.01074	0.00065
288.15	1	0.01274	0.00077
293.15	1	0.0152	0.00091
298.15	1	0.018	0.00108
303.15	1	0.02105	0.00127
308.15	1	0.02467	0.00148
313.15	1	0.02903	0.00175
318.15	1	0.03388	0.00204
323.15	1	0.04085	0.00246
278.15	0	0.0002507	1.51e-05
283.15	0	0.0003317	2e-05
288.15	0	0.0004299	2.59e-05
293.15	0	0.0005446	3.28e-05
298.15	0	0.0006807	4.1e-05
303.15	0	0.0008574	5.16e-05
308.15	0	0.001069	6.4e-05
313.15	0	0.001386	8.3e-05
318.15	0	0.001731	0.000104
323.15	0	0.002135	0.000128

System: potassium nitrate + water; phases: Liquid, Crystal
Fixed: Pressure, kPa = 101.3
Property: Mole fraction of potassium nitrate (Liquid); method: Titration method
Temperature, K	Mole fraction of potassium nitrate	uncertainty
283.15	0.03507	0.00211
293.15	0.0534	0.00321
303.15	0.07549	0.00454
313.15	0.1043	0.0063
