Measured thermophysical data. Measurement and Correlation of the Solubility of Tetramethylpyrazine in Nine Monosolvents and Two Binary Solvent Systems
Source: J. Chem. Eng. Data, 2019, 10.1021/acs.jced.8b00888
Compound 1: tetramethylpyrazine, C8H12N2, InChI=1S/C8H12N2/c1-5-6(2)10-8(4)7(3)9-5/h1-4H3, purity 99%
Compound 2: methanol, CH4O, InChI=1S/CH4O/c1-2/h2H,1H3, purity 99.5%
Compound 3: ethanol, C2H6O, InChI=1S/C2H6O/c1-2-3/h3H,2H2,1H3, purity 99.5%
Compound 4: propan-1-ol, C3H8O, InChI=1S/C3H8O/c1-2-3-4/h4H,2-3H2,1H3, purity 99.5%
Compound 5: propan-2-ol, C3H8O, InChI=1S/C3H8O/c1-3(2)4/h3-4H,1-2H3, purity 99.5%
Compound 6: butan-1-ol, C4H10O, InChI=1S/C4H10O/c1-2-3-4-5/h5H,2-4H2,1H3, purity 99.5%
Compound 7: methyl ethanoate, C3H6O2, InChI=1S/C3H6O2/c1-3(4)5-2/h1-2H3, purity 99.5%
Compound 8: ethyl acetate, C4H8O2, InChI=1S/C4H8O2/c1-3-6-4(2)5/h3H2,1-2H3, purity 99.5%
Compound 9: acetonitrile, C2H3N, InChI=1S/C2H3N/c1-2-3/h1H3, purity 99.5%
Compound 10: acetone, C3H6O, InChI=1S/C3H6O/c1-3(2)4/h1-2H3, purity 99.5%
Compound 11: benzoic acid, C7H6O2, InChI=1S/C7H6O2/c8-7(9)6-4-2-1-3-5-6/h1-5H,(H,8,9), purity 99%

System: tetramethylpyrazine; phases: Crystal, Liquid, Air at 1 atmosphere
Property: Normal melting temperature, K (Crystal); method: DTA
Normal melting temperature, K	uncertainty
358.55	1.06

System: tetramethylpyrazine; phases: Crystal, Liquid, Air at 1 atmosphere
Property: Molar enthalpy of transition or fusion, kJ/mol (Crystal); method: DSC
Molar enthalpy of transition or fusion, kJ/mol	uncertainty
16.407	1.68

System: tetramethylpyrazine + methanol; phases: Liquid, Crystal
Fixed: Pressure, kPa = 100
Property: Mole fraction of tetramethylpyrazine (Liquid); method: spectroscopy
Temperature, K	Mole fraction of tetramethylpyrazine	uncertainty
273.15	0.1106	0.01107
278.15	0.11922	0.01194
283.15	0.14257	0.01429
288.15	0.16166	0.0162
293.15	0.19381	0.01942
298.15	0.22208	0.02226
303.15	0.26223	0.02627
308.15	0.29622	0.02967
313.15	0.34215	0.03427

System: tetramethylpyrazine + ethanol; phases: Liquid, Crystal
Fixed: Pressure, kPa = 100
Property: Mole fraction of tetramethylpyrazine (Liquid); method: spectroscopy
Temperature, K	Mole fraction of tetramethylpyrazine	uncertainty
273.15	0.06442	0.00646
278.15	0.07746	0.00777
283.15	0.09112	0.00914
288.15	0.10979	0.01101
293.15	0.12844	0.01289
298.15	0.1616	0.01621
303.15	0.1864	0.01868
308.15	0.21625	0.02167
313.15	0.2553	0.02558

System: tetramethylpyrazine + propan-1-ol; phases: Liquid, Crystal
Fixed: Pressure, kPa = 100
Property: Mole fraction of tetramethylpyrazine (Liquid); method: spectroscopy
Temperature, K	Mole fraction of tetramethylpyrazine	uncertainty
273.15	0.10232	0.01025
278.15	0.11411	0.01144
283.15	0.13787	0.01382
288.15	0.15812	0.01584
293.15	0.18534	0.01857
298.15	0.21261	0.0213
303.15	0.24466	0.02453
308.15	0.29971	0.03005
313.15	0.34745	0.03481

System: tetramethylpyrazine + propan-2-ol; phases: Liquid, Crystal
Fixed: Pressure, kPa = 100
Property: Mole fraction of tetramethylpyrazine (Liquid); method: spectroscopy
Temperature, K	Mole fraction of tetramethylpyrazine	uncertainty
273.15	0.05336	0.00538
278.15	0.0702	0.00704
283.15	0.08138	0.00816
288.15	0.09975	0.01
293.15	0.11513	0.01155
298.15	0.14234	0.01427
303.15	0.16554	0.01659
308.15	0.1963	0.01971
313.15	0.2489	0.02498

System: tetramethylpyrazine + butan-1-ol; phases: Liquid, Crystal
Fixed: Pressure, kPa = 100
Property: Mole fraction of tetramethylpyrazine (Liquid); method: spectroscopy
Temperature, K	Mole fraction of tetramethylpyrazine	uncertainty
273.15	0.1056	0.01059
278.15	0.12621	0.01266
283.15	0.15206	0.01524
288.15	0.17481	0.01752
293.15	0.20544	0.02058
298.15	0.23543	0.02358
303.15	0.2618	0.02622
308.15	0.3018	0.03024
313.15	0.35143	0.03521

System: tetramethylpyrazine + methyl ethanoate; phases: Liquid, Crystal
Fixed: Pressure, kPa = 100
Property: Mole fraction of tetramethylpyrazine (Liquid); method: spectroscopy
Temperature, K	Mole fraction of tetramethylpyrazine	uncertainty
273.15	0.07577	0.00761
278.15	0.09396	0.00943
283.15	0.11179	0.01121
288.15	0.13327	0.01336
293.15	0.15561	0.01561
298.15	0.18947	0.01899
303.15	0.21592	0.02164
308.15	0.25429	0.02548
313.15	0.29107	0.02915

System: tetramethylpyrazine + ethyl acetate; phases: Liquid, Crystal
Fixed: Pressure, kPa = 100
Property: Mole fraction of tetramethylpyrazine (Liquid); method: spectroscopy
Temperature, K	Mole fraction of tetramethylpyrazine	uncertainty
273.15	0.09584	0.00961
278.15	0.1134	0.01137
283.15	0.1356	0.01359
288.15	0.1595	0.01598
293.15	0.1808	0.01811
298.15	0.2121	0.02125
303.15	0.244	0.02445
308.15	0.2842	0.02849
313.15	0.3398	0.03406

System: tetramethylpyrazine + acetonitrile; phases: Liquid, Crystal
Fixed: Pressure, kPa = 100
Property: Mole fraction of tetramethylpyrazine (Liquid); method: spectroscopy
Temperature, K	Mole fraction of tetramethylpyrazine	uncertainty
273.15	0.02792	0.0028
278.15	0.03399	0.00341
283.15	0.04046	0.00406
288.15	0.05034	0.00505
293.15	0.05875	0.0059
298.15	0.07429	0.00745
303.15	0.08882	0.00892
308.15	0.1145	0.01151
313.15	0.1474	0.0148

System: tetramethylpyrazine + acetone; phases: Liquid, Crystal
Fixed: Pressure, kPa = 100
Property: Mole fraction of tetramethylpyrazine (Liquid); method: spectroscopy
Temperature, K	Mole fraction of tetramethylpyrazine	uncertainty
273.15	0.04589	0.00462
278.15	0.05918	0.00594
283.15	0.07123	0.00715
288.15	0.08695	0.00872
293.15	0.10589	0.01063
298.15	0.13234	0.01328
303.15	0.15632	0.01567
308.15	0.18513	0.01855
313.15	0.20924	0.02095

System: tetramethylpyrazine + methanol + acetonitrile; phases: Liquid, Crystal
Fixed: Pressure, kPa = 100
Property: Mole fraction of tetramethylpyrazine (Liquid); method: spectroscopy
Temperature, K	Solvent: Mole fraction of methanol	Mole fraction of tetramethylpyrazine	uncertainty
273.15	0.1	0.04128	0.00415
273.15	0.2	0.05697	0.00575
273.15	0.3	0.07063	0.00714
273.15	0.4	0.08658	0.00875
273.15	0.5	0.09708	0.00978
273.15	0.6	0.1064	0.01068
273.15	0.7	0.1145	0.01147
273.15	0.8	0.1161	0.01163
273.15	0.9	0.115	0.01152
278.15	0.1	0.04952	0.00498
278.15	0.2	0.06902	0.00695
278.15	0.3	0.08388	0.00846
278.15	0.4	0.10052	0.01014
278.15	0.5	0.11232	0.01131
278.15	0.6	0.12129	0.01217
278.15	0.7	0.1259	0.01261
278.15	0.8	0.12895	0.01292
278.15	0.9	0.12726	0.01275
283.15	0.1	0.0611	0.00614
283.15	0.2	0.08079	0.00813
283.15	0.3	0.09976	0.01006
283.15	0.4	0.11702	0.01181
283.15	0.5	0.13407	0.0135
283.15	0.6	0.14415	0.01446
283.15	0.7	0.14937	0.01497
283.15	0.8	0.15371	0.0154
283.15	0.9	0.15286	0.01531
288.15	0.1	0.07438	0.00748
288.15	0.2	0.095	0.00956
288.15	0.3	0.11607	0.0117
288.15	0.4	0.136	0.0137
288.15	0.5	0.15142	0.01524
288.15	0.6	0.1633	0.01638
288.15	0.7	0.17037	0.01707
288.15	0.8	0.17304	0.01734
288.15	0.9	0.16864	0.0169
293.15	0.1	0.08982	0.00902
293.15	0.2	0.1136	0.01143
293.15	0.3	0.13934	0.01403
293.15	0.4	0.16042	0.01615
293.15	0.5	0.18056	0.01816
293.15	0.6	0.19228	0.01928
293.15	0.7	0.19933	0.01998
293.15	0.8	0.20398	0.02044
293.15	0.9	0.20088	0.02013
298.15	0.1	0.10715	0.01077
298.15	0.2	0.13398	0.01348
298.15	0.3	0.15895	0.01599
298.15	0.4	0.17947	0.01806
298.15	0.5	0.19989	0.02011
298.15	0.6	0.21765	0.02183
298.15	0.7	0.2293	0.02298
298.15	0.8	0.23178	0.02324
298.15	0.9	0.22772	0.02283
303.15	0.1	0.13105	0.01316
303.15	0.2	0.16159	0.01624
303.15	0.3	0.19328	0.01943
303.15	0.4	0.21552	0.02166
303.15	0.5	0.23548	0.02366
303.15	0.6	0.25139	0.02522
303.15	0.7	0.26812	0.02688
303.15	0.8	0.28279	0.02834
303.15	0.9	0.28191	0.02825
308.15	0.1	0.15063	0.01513
308.15	0.2	0.18178	0.01827
308.15	0.3	0.21454	0.02158
308.15	0.4	0.2427	0.02441
308.15	0.5	0.26491	0.02664
308.15	0.6	0.28572	0.02869
308.15	0.7	0.30375	0.03047
308.15	0.8	0.31495	0.03156
308.15	0.9	0.31315	0.03137
313.15	0.1	0.19158	0.01924
313.15	0.2	0.22699	0.02282
313.15	0.3	0.26133	0.02629
313.15	0.4	0.29522	0.02968
313.15	0.5	0.31877	0.03208
313.15	0.6	0.35072	0.03523
313.15	0.7	0.37332	0.03744
313.15	0.8	0.38041	0.03812
313.15	0.9	0.36821	0.03689
273.15	1	0.1106	0.01107
278.15	1	0.11922	0.01194
283.15	1	0.14257	0.01429
288.15	1	0.16166	0.0162
293.15	1	0.19381	0.01942
298.15	1	0.22208	0.02226
303.15	1	0.26223	0.02627
308.15	1	0.29622	0.02967
313.15	1	0.34215	0.03427
273.15	0	0.02792	0.0028
278.15	0	0.03399	0.00341
283.15	0	0.04046	0.00406
288.15	0	0.05034	0.00505
293.15	0	0.05875	0.0059
298.15	0	0.07429	0.00745
303.15	0	0.08882	0.00892
308.15	0	0.1145	0.01151
313.15	0	0.1474	0.0148

System: tetramethylpyrazine + butan-1-ol + acetonitrile; phases: Liquid, Crystal
Fixed: Pressure, kPa = 100
Property: Mole fraction of tetramethylpyrazine (Liquid); method: spectroscopy
Temperature, K	Solvent: Mole fraction of butan-1-ol	Mole fraction of tetramethylpyrazine	uncertainty
273.15	0.1	0.05047	0.00508
273.15	0.2	0.07283	0.00735
273.15	0.3	0.09175	0.00926
273.15	0.4	0.10529	0.0106
273.15	0.5	0.11614	0.01168
273.15	0.6	0.12659	0.01269
273.15	0.7	0.13145	0.01316
273.15	0.8	0.13219	0.01323
273.15	0.9	0.1266	0.01268
278.15	0.1	0.06008	0.00605
278.15	0.2	0.08531	0.0086
278.15	0.3	0.10912	0.01099
278.15	0.4	0.12207	0.01226
278.15	0.5	0.1328	0.01333
278.15	0.6	0.13659	0.01369
278.15	0.7	0.14039	0.01406
278.15	0.8	0.14114	0.01414
278.15	0.9	0.13865	0.01389
283.15	0.1	0.07274	0.00731
283.15	0.2	0.09654	0.00972
283.15	0.3	0.12116	0.0122
283.15	0.4	0.13848	0.01395
283.15	0.5	0.15609	0.01569
283.15	0.6	0.16458	0.0165
283.15	0.7	0.16849	0.01689
283.15	0.8	0.17093	0.01713
283.15	0.9	0.16754	0.01679
288.15	0.1	0.08197	0.00825
288.15	0.2	0.11513	0.01161
288.15	0.3	0.14329	0.01444
288.15	0.4	0.16398	0.0165
288.15	0.5	0.17863	0.01795
288.15	0.6	0.1886	0.01891
288.15	0.7	0.19291	0.01934
288.15	0.8	0.19657	0.0197
288.15	0.9	0.18659	0.0187
293.15	0.1	0.10815	0.01087
293.15	0.2	0.13915	0.014
293.15	0.3	0.16941	0.01705
293.15	0.4	0.19521	0.01963
293.15	0.5	0.21429	0.02151
293.15	0.6	0.22519	0.02256
293.15	0.7	0.23362	0.0234
293.15	0.8	0.236	0.02364
293.15	0.9	0.22859	0.0229
298.15	0.1	0.12006	0.01207
298.15	0.2	0.15631	0.01572
298.15	0.3	0.18804	0.01891
298.15	0.4	0.2118	0.02128
298.15	0.5	0.2309	0.02316
298.15	0.6	0.24169	0.02421
298.15	0.7	0.2505	0.02507
298.15	0.8	0.25644	0.02566
298.15	0.9	0.25086	0.02511
303.15	0.1	0.15532	0.0156
303.15	0.2	0.18794	0.01888
303.15	0.3	0.21843	0.02194
303.15	0.4	0.2442	0.02452
303.15	0.5	0.26254	0.02633
303.15	0.6	0.27347	0.02739
303.15	0.7	0.27653	0.0277
303.15	0.8	0.27855	0.0279
303.15	0.9	0.27183	0.02723
308.15	0.1	0.17433	0.01749
308.15	0.2	0.21401	0.02149
308.15	0.3	0.24633	0.02473
308.15	0.4	0.27303	0.0274
308.15	0.5	0.29134	0.02923
308.15	0.6	0.30914	0.03098
308.15	0.7	0.32121	0.03217
308.15	0.8	0.32785	0.03283
308.15	0.9	0.32354	0.0324
313.15	0.1	0.20496	0.02055
313.15	0.2	0.24568	0.02464
313.15	0.3	0.2763	0.02773
313.15	0.4	0.30821	0.03092
313.15	0.5	0.32864	0.03295
313.15	0.6	0.3433	0.03437
313.15	0.7	0.35227	0.03526
313.15	0.8	0.35823	0.03585
313.15	0.9	0.35359	0.03539
273.15	0	0.02792	0.0028
278.15	0	0.03399	0.00341
283.15	0	0.04046	0.00406
288.15	0	0.05034	0.00505
293.15	0	0.05875	0.0059
298.15	0	0.07429	0.00745
303.15	0	0.08882	0.00892
308.15	0	0.1145	0.01151
313.15	0	0.1474	0.0148
273.15	1	0.1056	0.01059
278.15	1	0.12621	0.01266
283.15	1	0.15206	0.01524
288.15	1	0.17481	0.01752
293.15	1	0.20544	0.02058
298.15	1	0.23543	0.02358
303.15	1	0.2618	0.02622
308.15	1	0.3018	0.03024
313.15	1	0.35143	0.03521

System: benzoic acid + ethanol; phases: Liquid, Crystal
Fixed: Pressure, kPa = 100
Property: Mole fraction of benzoic acid (Liquid); method: spectroscopy
Temperature, K	Mole fraction of benzoic acid	uncertainty
288.15	0.143	0.014
293.15	0.153	0.015
298.15	0.168	0.017

System: benzoic acid + propan-2-ol; phases: Liquid, Crystal
Fixed: Pressure, kPa = 100
Property: Mole fraction of benzoic acid (Liquid); method: spectroscopy
Temperature, K	Mole fraction of benzoic acid	uncertainty
288.15	0.149	0.015
293.15	0.168	0.017
298.15	0.182	0.018

System: benzoic acid + acetone; phases: Liquid, Crystal
Fixed: Pressure, kPa = 100
Property: Mole fraction of benzoic acid (Liquid); method: spectroscopy
Temperature, K	Mole fraction of benzoic acid	uncertainty
288.15	0.149	0.015
293.15	0.186	0.019
298.15	0.208	0.021
