Measured thermophysical data. Viscosities and Densities of Fatty Alcohol Mixtures from 298.15 to 338.15 K: Estimation by Kay's Rule and Prediction by the UNIFAC-VISCO and GC-UNIMOD Group Contribution Methods
Source: J. Chem. Eng. Data, 2019, 10.1021/acs.jced.8b00992
Compound 1: hexan-1-ol, C6H14O, InChI=1S/C6H14O/c1-2-3-4-5-6-7/h7H,2-6H2,1H3, purity 98%
Compound 2: heptan-1-ol, C7H16O, InChI=1S/C7H16O/c1-2-3-4-5-6-7-8/h8H,2-7H2,1H3, purity 98%
Compound 3: octan-1-ol, C8H18O, InChI=1S/C8H18O/c1-2-3-4-5-6-7-8-9/h9H,2-8H2,1H3, purity 99%
Compound 4: nonan-1-ol, C9H20O, InChI=1S/C9H20O/c1-2-3-4-5-6-7-8-9-10/h10H,2-9H2,1H3, purity 98%
Compound 5: decan-1-ol, C10H22O, InChI=1S/C10H22O/c1-2-3-4-5-6-7-8-9-10-11/h11H,2-10H2,1H3, purity 98%
Compound 6: 1-undecanol, C11H24O, InChI=1S/C11H24O/c1-2-3-4-5-6-7-8-9-10-11-12/h12H,2-11H2,1H3, purity 98%
Compound 7: dodecan-1-ol, C12H26O, InChI=1S/C12H26O/c1-2-3-4-5-6-7-8-9-10-11-12-13/h13H,2-12H2,1H3, purity 98%

System: hexan-1-ol; phases: Liquid
Fixed: Pressure, kPa = 101.8
Property: Mass density, kg/m3 (Liquid); method: Vibrating tube method
Temperature, K	Mass density, kg/m3	uncertainty
298.15	815.5	8
308.15	808.4	8
318.15	801	8
328.15	793.5	8
338.15	785.9	8

System: hexan-1-ol; phases: Liquid
Fixed: Pressure, kPa = 101.8
Property: Viscosity, Pa*s (Liquid); method: Falling or rolling sphere viscometry
Temperature, K	Viscosity, Pa*s	uncertainty
298.15	0.0045817	6.6e-05
308.15	0.0034143	5.43e-05
318.15	0.0025874	4.7e-05
328.15	0.002001	4.24e-05
338.15	0.001575	3.96e-05

System: heptan-1-ol; phases: Liquid
Fixed: Pressure, kPa = 101.8
Property: Mass density, kg/m3 (Liquid); method: Vibrating tube method
Temperature, K	Mass density, kg/m3	uncertainty
298.15	819	8
308.15	811.9	8
318.15	804.7	8
328.15	797.4	8
338.15	789.9	8

System: heptan-1-ol; phases: Liquid
Fixed: Pressure, kPa = 101.8
Property: Viscosity, Pa*s (Liquid); method: Falling or rolling sphere viscometry
Temperature, K	Viscosity, Pa*s	uncertainty
298.15	0.0060288	8.17e-05
308.15	0.0044045	6.42e-05
318.15	0.0032764	5.31e-05
328.15	0.0024948	4.62e-05
338.15	0.0019383	4.2e-05

System: octan-1-ol; phases: Liquid
Fixed: Pressure, kPa = 101.8
Property: Mass density, kg/m3 (Liquid); method: Vibrating tube method
Temperature, K	Mass density, kg/m3	uncertainty
298.15	821.7	8
308.15	814.6	8
318.15	807.5	8
328.15	800.4	8
338.15	793.1	8

System: octan-1-ol; phases: Liquid
Fixed: Pressure, kPa = 101.8
Property: Viscosity, Pa*s (Liquid); method: Falling or rolling sphere viscometry
Temperature, K	Viscosity, Pa*s	uncertainty
298.15	0.0076415	7.49e-05
308.15	0.0054919	5.9e-05
318.15	0.0040235	4.92e-05
328.15	0.0030235	4.35e-05
338.15	0.0023227	4.01e-05

System: nonan-1-ol; phases: Liquid
Fixed: Pressure, kPa = 101.8
Property: Mass density, kg/m3 (Liquid); method: Vibrating tube method
Temperature, K	Mass density, kg/m3	uncertainty
298.15	823.9	8
308.15	817	8
318.15	810	8
328.15	802.9	8
338.15	795.7	8

System: nonan-1-ol; phases: Liquid
Fixed: Pressure, kPa = 101.8
Property: Viscosity, Pa*s (Liquid); method: Falling or rolling sphere viscometry
Temperature, K	Viscosity, Pa*s	uncertainty
298.15	0.0095256	0.0001219
308.15	0.0067249	8.95e-05
318.15	0.0048603	6.9e-05
328.15	0.003611	5.62e-05
338.15	0.0027497	4.83e-05

System: decan-1-ol; phases: Liquid
Fixed: Pressure, kPa = 101.8
Property: Mass density, kg/m3 (Liquid); method: Vibrating tube method
Temperature, K	Mass density, kg/m3	uncertainty
298.15	826.9	8
308.15	820	8
318.15	813	8
328.15	806	8
338.15	798.9	8

System: decan-1-ol; phases: Liquid
Fixed: Pressure, kPa = 101.8
Property: Viscosity, Pa*s (Liquid); method: Falling or rolling sphere viscometry
Temperature, K	Viscosity, Pa*s	uncertainty
298.15	0.011745	0.000149
308.15	0.0081473	0.0001058
318.15	0.0058085	7.92e-05
328.15	0.0042667	6.28e-05
338.15	0.0032197	5.25e-05

System: 1-undecanol; phases: Liquid
Fixed: Pressure, kPa = 101.8
Property: Mass density, kg/m3 (Liquid); method: Vibrating tube method
Temperature, K	Mass density, kg/m3	uncertainty
298.15	828	8
308.15	821	8
318.15	814.2	8
328.15	807.2	8
338.15	800.2	8

System: 1-undecanol; phases: Liquid
Fixed: Pressure, kPa = 101.8
Property: Viscosity, Pa*s (Liquid); method: Falling or rolling sphere viscometry
Temperature, K	Viscosity, Pa*s	uncertainty
298.15	0.014222	0.00018
308.15	0.0097666	0.0001248
318.15	0.0068822	9.13e-05
328.15	0.0050031	7.05e-05
338.15	0.0037436	5.75e-05

System: dodecan-1-ol; phases: Liquid
Fixed: Pressure, kPa = 101.8
Property: Mass density, kg/m3 (Liquid); method: Vibrating tube method
Temperature, K	Mass density, kg/m3	uncertainty
298.15	829.6	8
308.15	822.8	8
318.15	816	8
328.15	809.1	8
338.15	802.1	8

System: dodecan-1-ol; phases: Liquid
Fixed: Pressure, kPa = 101.8
Property: Viscosity, Pa*s (Liquid); method: Falling or rolling sphere viscometry
Temperature, K	Viscosity, Pa*s	uncertainty
298.15	0.016969	0.000215
308.15	0.0114743	0.0001455
318.15	0.008003	0.0001042
328.15	0.0057741	7.89e-05
338.15	0.0042875	6.3e-05

System: hexan-1-ol + heptan-1-ol; phases: Liquid
Fixed: Pressure, kPa = 101.8
Property: Mass density, kg/m3 (Liquid); method: Vibrating tube method
Temperature, K	Mole fraction of hexan-1-ol	Mass density, kg/m3	uncertainty
298.15	0.1128	818.3	0.7
298.15	0.3611	818.6	0.7
298.15	0.5306	818	0.7
298.15	0.6915	817.7	0.7
298.15	0.9117	816.1	0.8
308.15	0.1128	811.2	0.7
308.15	0.3611	811.3	0.7
308.15	0.5306	810.7	0.7
308.15	0.6915	810.3	0.7
308.15	0.9117	808.8	0.7
318.15	0.1128	804	0.7
318.15	0.3611	804.1	0.7
318.15	0.5306	803.4	0.7
318.15	0.6915	802.9	0.7
318.15	0.9117	801.5	0.7
328.15	0.1128	796.6	0.7
328.15	0.3611	796.6	0.7
328.15	0.5306	796	0.7
328.15	0.6915	795.4	0.7
328.15	0.9117	794	0.7
338.15	0.1128	789.2	0.7
338.15	0.3611	789	0.7
338.15	0.5306	788.5	0.7
338.15	0.6915	787.8	0.7
338.15	0.9117	786.3	0.7

System: hexan-1-ol + heptan-1-ol; phases: Liquid
Fixed: Pressure, kPa = 101.8
Property: Viscosity, Pa*s (Liquid); method: Falling or rolling sphere viscometry
Temperature, K	Mole fraction of hexan-1-ol	Viscosity, Pa*s	uncertainty
298.15	0.1128	0.005786	0.000334
298.15	0.3611	0.0053388	0.0003311
298.15	0.5306	0.0051734	0.0003303
298.15	0.6915	0.0048749	0.0003316
298.15	0.9117	0.0044998	0.0003304
308.15	0.1128	0.0042348	0.0003305
308.15	0.3611	0.003946	0.0003258
308.15	0.5306	0.0038291	0.0003256
308.15	0.6915	0.0036253	0.0003268
308.15	0.9117	0.0033466	0.0003242
318.15	0.1128	0.0031602	0.0003256
318.15	0.3611	0.0029631	0.0003234
318.15	0.5306	0.0028794	0.0003234
318.15	0.6915	0.0027366	0.000324
318.15	0.9117	0.0025355	0.0003226
328.15	0.1128	0.0024125	0.0003232
328.15	0.3611	0.0022737	0.0003222
328.15	0.5306	0.0022126	0.0003222
328.15	0.6915	0.0021108	0.0003225
328.15	0.9117	0.001967	0.0003218
338.15	0.1128	0.0018785	0.0003217
338.15	0.3611	0.0017789	0.0003216
338.15	0.5306	0.0017332	0.0003215
338.15	0.6915	0.0016585	0.0003216
338.15	0.9117	0.0015552	0.0003216

System: hexan-1-ol + octan-1-ol; phases: Liquid
Fixed: Pressure, kPa = 101.8
Property: Mass density, kg/m3 (Liquid); method: Vibrating tube method
Temperature, K	Mole fraction of hexan-1-ol	Mass density, kg/m3	uncertainty
298.15	0.1207	821.1	0.5
298.15	0.3506	820	0.5
298.15	0.5615	818.7	0.6
298.15	0.7463	817.5	0.7
298.15	0.9227	816.5	0.7
308.15	0.1207	814.1	0.5
308.15	0.3506	812.8	0.5
308.15	0.5615	811.5	0.6
308.15	0.7463	810.3	0.7
308.15	0.9227	809.2	0.7
318.15	0.1207	807	0.5
318.15	0.3506	805.7	0.6
318.15	0.5615	804.3	0.6
318.15	0.7463	803.1	0.7
318.15	0.9227	801.8	0.7
328.15	0.1207	799.8	0.5
328.15	0.3506	798.4	0.6
328.15	0.5615	797	0.6
328.15	0.7463	795.7	0.7
328.15	0.9227	794.4	0.7
338.15	0.1207	792.4	0.5
338.15	0.3506	791	0.6
338.15	0.5615	789.5	0.6
338.15	0.7463	788.1	0.7
338.15	0.9227	786.7	0.7

System: hexan-1-ol + octan-1-ol; phases: Liquid
Fixed: Pressure, kPa = 101.8
Property: Viscosity, Pa*s (Liquid); method: Falling or rolling sphere viscometry
Temperature, K	Mole fraction of hexan-1-ol	Viscosity, Pa*s	uncertainty
298.15	0.1207	0.0072269	0.0003472
298.15	0.3506	0.0064417	0.000345
298.15	0.5615	0.0057932	0.0003425
298.15	0.7463	0.0052342	0.0003408
298.15	0.9227	0.004736	0.0003394
308.15	0.1207	0.0052095	0.0003415
308.15	0.3506	0.0046946	0.0003319
308.15	0.5615	0.0042594	0.000331
308.15	0.7463	0.0038785	0.0003307
308.15	0.9227	0.0035298	0.0003265
318.15	0.1207	0.0038328	0.0003307
318.15	0.3506	0.0034813	0.0003263
318.15	0.5615	0.0031802	0.0003259
318.15	0.7463	0.0029135	0.0003258
318.15	0.9227	0.0026715	0.0003236
328.15	0.1207	0.0028899	0.0003256
328.15	0.3506	0.0026443	0.0003236
328.15	0.5615	0.0024278	0.0003235
328.15	0.7463	0.0022384	0.0003234
328.15	0.9227	0.0020632	0.0003224
338.15	0.1207	0.0022271	0.0003223
338.15	0.3506	0.0020497	0.0003223
338.15	0.5615	0.0018915	0.0003222
338.15	0.7463	0.0017516	0.0003222
338.15	0.9227	0.0016224	0.0003222

System: hexan-1-ol + nonan-1-ol; phases: Liquid
Fixed: Pressure, kPa = 101.8
Property: Mass density, kg/m3 (Liquid); method: Vibrating tube method
Temperature, K	Mole fraction of hexan-1-ol	Mass density, kg/m3	uncertainty
298.15	0.1351	823.2	0.7
298.15	0.4186	821.4	0.8
298.15	0.5817	820.1	0.7
298.15	0.7358	819.5	0.8
298.15	0.9282	816.8	0.9
308.15	0.1351	816.2	0.7
308.15	0.4186	814.4	0.7
308.15	0.5817	813	0.7
308.15	0.7358	812.3	0.8
308.15	0.9282	809.5	0.9
318.15	0.1351	809.2	0.7
318.15	0.4186	807.2	0.7
318.15	0.5817	805.8	0.7
318.15	0.7358	805	0.8
318.15	0.9282	802.2	0.9
328.15	0.1351	802.1	0.7
328.15	0.4186	800	0.8
328.15	0.5817	798.5	0.7
328.15	0.7358	797.6	0.8
328.15	0.9282	794.7	0.9
338.15	0.1351	794.9	0.7
338.15	0.4186	792.6	0.8
338.15	0.5817	791.1	0.7
338.15	0.7358	790	0.8
338.15	0.9282	787.1	0.9

System: hexan-1-ol + nonan-1-ol; phases: Liquid
Fixed: Pressure, kPa = 101.8
Property: Viscosity, Pa*s (Liquid); method: Falling or rolling sphere viscometry
Temperature, K	Mole fraction of hexan-1-ol	Viscosity, Pa*s	uncertainty
298.15	0.1351	0.0087309	0.000386
298.15	0.4186	0.0071772	0.0003778
298.15	0.5817	0.0063844	0.0003705
298.15	0.7358	0.0056064	0.0003607
298.15	0.9282	0.0048466	0.0003526
308.15	0.1351	0.0062056	0.0003643
308.15	0.4186	0.0051869	0.0003462
308.15	0.5817	0.0046513	0.0003447
308.15	0.7358	0.0041273	0.000341
308.15	0.9282	0.0035965	0.0003315
318.15	0.1351	0.0045099	0.0003418
318.15	0.4186	0.0038213	0.0003331
318.15	0.5817	0.0034531	0.0003326
318.15	0.7358	0.0030925	0.000331
318.15	0.9282	0.0027165	0.0003264
328.15	0.1351	0.0033689	0.0003311
328.15	0.4186	0.002887	0.0003271
328.15	0.5817	0.0026264	0.0003268
328.15	0.7358	0.0023735	0.0003262
328.15	0.9282	0.0020955	0.000324
338.15	0.1351	0.0025757	0.0003248
338.15	0.4186	0.0022298	0.0003244
338.15	0.5817	0.0020393	0.0003241
338.15	0.7358	0.0018566	0.0003237
338.15	0.9282	0.0016468	0.0003234

System: hexan-1-ol + decan-1-ol; phases: Liquid
Fixed: Pressure, kPa = 101.8
Property: Mass density, kg/m3 (Liquid); method: Vibrating tube method
Temperature, K	Mole fraction of hexan-1-ol	Mass density, kg/m3	uncertainty
298.15	0.1493	825.8	0.8
298.15	0.3989	823.5	0.8
298.15	0.6071	821.2	0.8
298.15	0.7831	818.9	0.8
298.15	0.9346	816.9	0.8
308.15	0.1493	818.8	0.8
308.15	0.3989	816.5	0.8
308.15	0.6071	814.1	0.8
308.15	0.7831	811.8	0.8
308.15	0.9346	809.6	0.9
318.15	0.1493	811.8	0.8
318.15	0.3989	809.4	0.8
318.15	0.6071	807	0.8
318.15	0.7831	804.6	0.9
318.15	0.9346	802.3	0.9
328.15	0.1493	804.8	0.8
328.15	0.3989	802.2	0.8
328.15	0.6071	799.7	0.8
328.15	0.7831	797.2	0.9
328.15	0.9346	794.8	0.9
338.15	0.1493	797.6	0.8
338.15	0.3989	795	0.8
338.15	0.6071	792.3	0.8
338.15	0.7831	789.7	0.9
338.15	0.9346	787.2	0.9

System: hexan-1-ol + decan-1-ol; phases: Liquid
Fixed: Pressure, kPa = 101.8
Property: Viscosity, Pa*s (Liquid); method: Falling or rolling sphere viscometry
Temperature, K	Mole fraction of hexan-1-ol	Viscosity, Pa*s	uncertainty
298.15	0.1493	0.0103797	0.0004325
298.15	0.3989	0.008464	0.0004199
298.15	0.6071	0.0070105	0.0004061
298.15	0.7831	0.0058219	0.0003947
298.15	0.9346	0.0049049	0.0003857
308.15	0.1493	0.0073069	0.0003999
308.15	0.3989	0.0060195	0.0003679
308.15	0.6071	0.0050682	0.0003606
308.15	0.7831	0.0042709	0.0003565
308.15	0.9346	0.0036433	0.000343
318.15	0.1493	0.0052503	0.000359
318.15	0.3989	0.0043926	0.0003434
318.15	0.6071	0.0037449	0.0003405
318.15	0.7831	0.0031908	0.0003388
318.15	0.9346	0.00275	0.000332
328.15	0.1493	0.0038836	0.0003393
328.15	0.3989	0.0032905	0.0003322
328.15	0.6071	0.0028369	0.000331
328.15	0.7831	0.002439	0.0003303
328.15	0.9346	0.0021206	0.0003269
338.15	0.1493	0.0029481	0.0003278
338.15	0.3989	0.0025226	0.0003269
338.15	0.6071	0.0021948	0.0003264
338.15	0.7831	0.0019019	0.0003261
338.15	0.9346	0.0016653	0.0003256

System: hexan-1-ol + 1-undecanol; phases: Liquid
Fixed: Pressure, kPa = 101.8
Property: Mass density, kg/m3 (Liquid); method: Vibrating tube method
Temperature, K	Mole fraction of hexan-1-ol	Mass density, kg/m3	uncertainty
298.15	0.1577	826.8	0.8
298.15	0.4196	824.2	0.8
298.15	0.6279	821.8	0.8
298.15	0.7981	819.2	0.9
298.15	0.9389	817.1	0.9
308.15	0.1577	819.8	0.8
308.15	0.4196	817.2	0.8
308.15	0.6279	814.6	0.8
308.15	0.7981	812.2	0.9
308.15	0.9389	809.9	0.9
318.15	0.1577	812.9	0.8
318.15	0.4196	810.2	0.8
318.15	0.6279	807.5	0.8
318.15	0.7981	805	0.9
318.15	0.9389	802.6	0.9
328.15	0.1577	805.9	0.8
328.15	0.4196	803.1	0.8
328.15	0.6279	800.3	0.9
328.15	0.7981	797.6	0.9
328.15	0.9389	795.1	0.9
338.15	0.1577	798.8	0.8
338.15	0.4196	795.9	0.8
338.15	0.6279	792.9	0.9
338.15	0.7981	790.2	0.9
338.15	0.9389	787.4	1

System: hexan-1-ol + 1-undecanol; phases: Liquid
Fixed: Pressure, kPa = 101.8
Property: Viscosity, Pa*s (Liquid); method: Falling or rolling sphere viscometry
Temperature, K	Mole fraction of hexan-1-ol	Viscosity, Pa*s	uncertainty
298.15	0.1577	0.0122993	0.0005068
298.15	0.4196	0.0095082	0.0004868
298.15	0.6279	0.007506	0.0004554
298.15	0.7981	0.0060641	0.0004432
298.15	0.9389	0.0047876	0.0004486
308.15	0.1577	0.0085495	0.0004463
308.15	0.4196	0.0067267	0.0004
308.15	0.6279	0.0054124	0.0003857
308.15	0.7981	0.0044363	0.0003826
308.15	0.9389	0.0035446	0.0003726
318.15	0.1577	0.0060833	0.0003818
318.15	0.4196	0.004876	0.0003591
318.15	0.6279	0.0039828	0.000353
318.15	0.7981	0.003309	0.0003524
318.15	0.9389	0.0026797	0.000348
328.15	0.1577	0.0044649	0.0003504
328.15	0.4196	0.0036334	0.0003401
328.15	0.6279	0.0030075	0.0003374
328.15	0.7981	0.0025261	0.0003375
328.15	0.9389	0.002073	0.0003357
338.15	0.1577	0.0033674	0.0003323
338.15	0.4196	0.0027733	0.0003312
338.15	0.6279	0.0023207	0.0003299
338.15	0.7981	0.001968	0.0003302
338.15	0.9389	0.0016301	0.0003314

System: hexan-1-ol + dodecan-1-ol; phases: Liquid
Fixed: Pressure, kPa = 101.8
Property: Mass density, kg/m3 (Liquid); method: Vibrating tube method
Temperature, K	Mole fraction of hexan-1-ol	Mass density, kg/m3	uncertainty
298.15	0.1701	828	0.8
298.15	0.4377	825	0.8
298.15	0.6449	822.2	0.9
298.15	0.8097	819.6	0.9
298.15	0.9429	816.9	1
308.15	0.1701	821.2	0.8
308.15	0.4377	818.1	0.8
308.15	0.6449	815.2	0.9
308.15	0.8097	812.5	0.9
308.15	0.9429	809.8	1
318.15	0.1701	814.3	0.8
318.15	0.4377	811.1	0.8
318.15	0.6449	808.2	0.9
318.15	0.8097	805.3	1
318.15	0.9429	802.5	1
328.15	0.1701	807.4	0.8
328.15	0.4377	804.1	0.8
328.15	0.6449	801	0.9
328.15	0.8097	798	1
328.15	0.9429	795.1	1
338.15	0.1701	800.3	0.8
338.15	0.4377	796.9	0.8
338.15	0.6449	793.7	0.9
338.15	0.8097	790.5	1
338.15	0.9429	787.5	1

System: hexan-1-ol + dodecan-1-ol; phases: Liquid
Fixed: Pressure, kPa = 101.8
Property: Viscosity, Pa*s (Liquid); method: Falling or rolling sphere viscometry
Temperature, K	Mole fraction of hexan-1-ol	Viscosity, Pa*s	uncertainty
298.15	0.1701	0.0144453	0.0006009
298.15	0.4377	0.0106963	0.0005683
298.15	0.6449	0.0081716	0.0005218
298.15	0.8097	0.0063342	0.0004859
298.15	0.9429	0.0050529	0.0004622
308.15	0.1701	0.009897	0.0005054
308.15	0.4377	0.0075172	0.0004404
308.15	0.6449	0.0058414	0.0004194
308.15	0.8097	0.0046401	0.0004024
308.15	0.9429	0.0037539	0.0003777
318.15	0.1701	0.0069779	0.000411
318.15	0.4377	0.0054108	0.0003792
318.15	0.6449	0.0042792	0.0003701
318.15	0.8097	0.0034551	0.0003626
318.15	0.9429	0.0028293	0.0003501
328.15	0.1701	0.0050826	0.0003651
328.15	0.4377	0.0040048	0.0003503
328.15	0.6449	0.0032172	0.0003461
328.15	0.8097	0.0026325	0.000343
328.15	0.9429	0.0021794	0.000337
338.15	0.1701	0.0038059	0.0003382
338.15	0.4377	0.0030435	0.0003366
338.15	0.6449	0.0024736	0.0003347
338.15	0.8097	0.0020462	0.0003332
338.15	0.9429	0.00171	0.0003326

System: heptan-1-ol + octan-1-ol; phases: Liquid
Fixed: Pressure, kPa = 101.8
Property: Mass density, kg/m3 (Liquid); method: Vibrating tube method
Temperature, K	Mole fraction of heptan-1-ol	Mass density, kg/m3	uncertainty
298.15	0.1105	821.5	0.5
298.15	0.3246	820.7	0.5
298.15	0.5285	820.2	0.6
298.15	0.723	819.5	0.6
298.15	0.9101	818.9	0.7
308.15	0.1105	814.5	0.5
308.15	0.3246	813.7	0.5
308.15	0.5285	813	0.6
308.15	0.723	812.3	0.6
308.15	0.9101	811.8	0.7
318.15	0.1105	807.4	0.5
318.15	0.3246	806.6	0.5
318.15	0.5285	805.9	0.6
318.15	0.723	805.2	0.6
318.15	0.9101	804.6	0.7
328.15	0.1105	800.2	0.5
328.15	0.3246	799.4	0.5
328.15	0.5285	798.7	0.6
328.15	0.723	798	0.6
328.15	0.9101	797.3	0.7
338.15	0.1105	792.9	0.5
338.15	0.3246	792	0.5
338.15	0.5285	791.3	0.6
338.15	0.723	790.6	0.6
338.15	0.9101	789.9	0.7

System: heptan-1-ol + octan-1-ol; phases: Liquid
Fixed: Pressure, kPa = 101.8
Property: Viscosity, Pa*s (Liquid); method: Falling or rolling sphere viscometry
Temperature, K	Mole fraction of heptan-1-ol	Viscosity, Pa*s	uncertainty
298.15	0.1105	0.0074417	0.0003315
298.15	0.3246	0.0071221	0.0003329
298.15	0.5285	0.0067416	0.0003337
298.15	0.723	0.0064145	0.000333
298.15	0.9101	0.006128	0.0003329
308.15	0.1105	0.0053625	0.0003317
308.15	0.3246	0.0051395	0.0003267
308.15	0.5285	0.0048845	0.000327
308.15	0.723	0.0046764	0.0003268
308.15	0.9101	0.0044736	0.0003251
318.15	0.1105	0.0039363	0.0003262
318.15	0.3246	0.0037803	0.0003238
318.15	0.5285	0.0036075	0.0003239
318.15	0.723	0.0034631	0.0003239
318.15	0.9101	0.0033244	0.0003231
328.15	0.1105	0.002963	0.0003234
328.15	0.3246	0.0028508	0.0003223
328.15	0.5285	0.0027304	0.0003224
328.15	0.723	0.0026293	0.0003224
328.15	0.9101	0.0025288	0.000322
338.15	0.1105	0.00228	0.0003215
338.15	0.3246	0.0021975	0.0003216
338.15	0.5285	0.0021103	0.0003217
338.15	0.723	0.0020364	0.0003217
338.15	0.9101	0.0019627	0.0003217

System: heptan-1-ol + nonan-1-ol; phases: Liquid
Fixed: Pressure, kPa = 101.8
Property: Mass density, kg/m3 (Liquid); method: Vibrating tube method
Temperature, K	Mole fraction of heptan-1-ol	Mass density, kg/m3	uncertainty
298.15	0.1184	823.7	0.7
298.15	0.3815	823.1	0.7
298.15	0.5514	821.3	0.8
298.15	0.7089	820.9	0.7
298.15	0.9183	819.1	0.8
308.15	0.1184	816.8	0.7
308.15	0.3815	816	0.7
308.15	0.5514	814.3	0.7
308.15	0.7089	813.7	0.7
308.15	0.9183	812	0.8
318.15	0.1184	809.8	0.7
318.15	0.3815	808.9	0.7
318.15	0.5514	807.2	0.7
318.15	0.7089	806.6	0.7
318.15	0.9183	804.8	0.8
328.15	0.1184	802.7	0.7
328.15	0.3815	801.7	0.7
328.15	0.5514	800	0.7
328.15	0.7089	799.3	0.7
328.15	0.9183	797.5	0.8
338.15	0.1184	795.4	0.7
338.15	0.3815	794.4	0.7
338.15	0.5514	792.7	0.7
338.15	0.7089	791.9	0.7
338.15	0.9183	790.1	0.8

System: heptan-1-ol + nonan-1-ol; phases: Liquid
Fixed: Pressure, kPa = 101.8
Property: Viscosity, Pa*s (Liquid); method: Falling or rolling sphere viscometry
Temperature, K	Mole fraction of heptan-1-ol	Viscosity, Pa*s	uncertainty
298.15	0.1184	0.0090135	0.0003667
298.15	0.3815	0.0079349	0.0003568
298.15	0.5514	0.0074696	0.0003522
298.15	0.7089	0.0068401	0.0003578
298.15	0.9183	0.0060132	0.0003553
308.15	0.1184	0.0063658	0.0003537
308.15	0.3815	0.0056801	0.0003368
308.15	0.5514	0.0053533	0.0003354
308.15	0.7089	0.0049605	0.0003387
308.15	0.9183	0.0044082	0.0003313
318.15	0.1184	0.0046183	0.0003363
318.15	0.3815	0.0041573	0.0003287
318.15	0.5514	0.003932	0.0003281
318.15	0.7089	0.0036622	0.0003296
318.15	0.9183	0.0032859	0.0003259
328.15	0.1184	0.0034431	0.0003283
328.15	0.3815	0.0031242	0.0003249
328.15	0.5514	0.002962	0.0003247
328.15	0.7089	0.0027722	0.0003253
328.15	0.9183	0.0025087	0.0003235
338.15	0.1184	0.0026296	0.0003236
338.15	0.3815	0.0024016	0.0003231
338.15	0.5514	0.0022809	0.0003229
338.15	0.7089	0.0021434	0.0003231
338.15	0.9183	0.0019543	0.000323

System: heptan-1-ol + decan-1-ol; phases: Liquid
Fixed: Pressure, kPa = 101.8
Property: Mass density, kg/m3 (Liquid); method: Vibrating tube method
Temperature, K	Mole fraction of heptan-1-ol	Mass density, kg/m3	uncertainty
298.15	0.1302	826.1	0.8
298.15	0.3682	824.5	0.8
298.15	0.5771	822.5	0.8
298.15	0.7604	821	0.8
298.15	0.9256	819.3	0.8
308.15	0.1302	819.2	0.8
308.15	0.3682	817.4	0.8
308.15	0.5771	815.7	0.8
308.15	0.7604	813.9	0.8
308.15	0.9256	812.2	0.8
318.15	0.1302	812.2	0.8
318.15	0.3682	810.4	0.8
318.15	0.5771	808.6	0.8
318.15	0.7604	806.8	0.8
318.15	0.9256	805.1	0.8
328.15	0.1302	805.2	0.8
328.15	0.3682	803.3	0.8
328.15	0.5771	801.4	0.8
328.15	0.7604	799.6	0.8
328.15	0.9256	797.8	0.8
338.15	0.1302	798	0.7
338.15	0.3682	796.1	0.8
338.15	0.5771	794.2	0.8
338.15	0.7604	792.3	0.8
338.15	0.9256	790.4	0.8

System: heptan-1-ol + decan-1-ol; phases: Liquid
Fixed: Pressure, kPa = 101.8
Property: Viscosity, Pa*s (Liquid); method: Falling or rolling sphere viscometry
Temperature, K	Mole fraction of heptan-1-ol	Viscosity, Pa*s	uncertainty
298.15	0.1302	0.0108247	0.0004049
298.15	0.3682	0.009364	0.0003952
298.15	0.5771	0.0081927	0.0003867
298.15	0.7604	0.0071547	0.00038
298.15	0.9256	0.006307	0.0003731
308.15	0.1302	0.0075864	0.0003831
308.15	0.3682	0.0066346	0.000356
308.15	0.5771	0.0058362	0.0003513
308.15	0.7604	0.0051804	0.0003481
308.15	0.9256	0.0045958	0.0003362
318.15	0.1302	0.0054382	0.0003506
318.15	0.3682	0.0048014	0.0003377
318.15	0.5771	0.0042641	0.0003357
318.15	0.7604	0.0038116	0.0003343
318.15	0.9256	0.003413	0.0003283
328.15	0.1302	0.0040088	0.0003352
328.15	0.3682	0.0035701	0.0003293
328.15	0.5771	0.0031974	0.0003284
328.15	0.7604	0.0028777	0.0003278
328.15	0.9256	0.0025937	0.0003249
338.15	0.1302	0.0030386	0.0003259
338.15	0.3682	0.0027232	0.0003254
338.15	0.5771	0.0024519	0.000325
338.15	0.7604	0.0022193	0.0003246
338.15	0.9256	0.0020121	0.0003244

System: heptan-1-ol + 1-undecanol; phases: Liquid
Fixed: Pressure, kPa = 101.8
Property: Mass density, kg/m3 (Liquid); method: Vibrating tube method
Temperature, K	Mole fraction of heptan-1-ol	Mass density, kg/m3	uncertainty
298.15	0.1397	826.9	0.8
298.15	0.388	825.3	0.8
298.15	0.5976	823.4	0.8
298.15	0.7764	822	0.8
298.15	0.9311	819.6	0.9
308.15	0.1397	820.2	0.8
308.15	0.388	818.4	0.8
308.15	0.5976	816.5	0.8
308.15	0.7764	814.9	0.8
308.15	0.9311	812.5	0.9
318.15	0.1397	813.3	0.8
318.15	0.388	811.4	0.8
318.15	0.5976	809.5	0.8
318.15	0.7764	807.7	0.8
318.15	0.9311	805.3	0.9
328.15	0.1397	806.3	0.8
328.15	0.388	804.3	0.8
328.15	0.5976	802.3	0.8
328.15	0.7764	800.5	0.8
328.15	0.9311	798.1	0.9
338.15	0.1397	799.2	0.8
338.15	0.388	797.1	0.8
338.15	0.5976	795.1	0.8
338.15	0.7764	793.2	0.8
338.15	0.9311	790.7	0.9

System: heptan-1-ol + 1-undecanol; phases: Liquid
Fixed: Pressure, kPa = 101.8
Property: Viscosity, Pa*s (Liquid); method: Falling or rolling sphere viscometry
Temperature, K	Mole fraction of heptan-1-ol	Viscosity, Pa*s	uncertainty
298.15	0.1397	0.0128213	0.0004788
298.15	0.388	0.0104923	0.0004568
298.15	0.5976	0.0088046	0.0004352
298.15	0.7764	0.0073648	0.0004325
298.15	0.9311	0.0060985	0.0004311
308.15	0.1397	0.0088665	0.0004326
308.15	0.388	0.0073627	0.0003842
308.15	0.5976	0.0062595	0.0003743
308.15	0.7764	0.0053106	0.0003754
308.15	0.9311	0.0044326	0.0003601
318.15	0.1397	0.0062987	0.0003735
318.15	0.388	0.005309	0.0003514
318.15	0.5976	0.0045544	0.0003473
318.15	0.7764	0.0039063	0.0003483
318.15	0.9311	0.0032889	0.0003412
328.15	0.1397	0.0046027	0.0003461
328.15	0.388	0.0039294	0.0003359
328.15	0.5976	0.0034049	0.0003342
328.15	0.7764	0.0029492	0.0003352
328.15	0.9311	0.0025032	0.0003322
338.15	0.1397	0.0034624	0.00033
338.15	0.388	0.0029844	0.0003289
338.15	0.5976	0.0026073	0.0003281
338.15	0.7764	0.0022761	0.0003288
338.15	0.9311	0.0019449	0.0003296

System: heptan-1-ol + dodecan-1-ol; phases: Liquid
Fixed: Pressure, kPa = 101.8
Property: Mass density, kg/m3 (Liquid); method: Vibrating tube method
Temperature, K	Mole fraction of heptan-1-ol	Mass density, kg/m3	uncertainty
298.15	0.1535	828.4	0.8
298.15	0.4063	826	0.8
298.15	0.6158	823.9	0.8
298.15	0.7897	821.5	0.9
298.15	0.937	819.5	0.8
308.15	0.1535	821.5	0.8
308.15	0.4063	819.1	0.8
308.15	0.6158	816.9	0.8
308.15	0.7897	814.7	0.9
308.15	0.937	812.4	0.9
318.15	0.1535	814.7	0.8
318.15	0.4063	812.2	0.8
318.15	0.6158	810	0.8
318.15	0.7897	807.7	0.9
318.15	0.937	805.3	0.9
328.15	0.1535	807.7	0.8
328.15	0.4063	805.2	0.8
328.15	0.6158	802.9	0.8
328.15	0.7897	800.5	0.9
328.15	0.937	798	0.9
338.15	0.1535	800.7	0.8
338.15	0.4063	798.1	0.8
338.15	0.6158	795.7	0.8
338.15	0.7897	793.2	0.9
338.15	0.937	790.6	0.9

System: heptan-1-ol + dodecan-1-ol; phases: Liquid
Fixed: Pressure, kPa = 101.8
Property: Viscosity, Pa*s (Liquid); method: Falling or rolling sphere viscometry
Temperature, K	Mole fraction of heptan-1-ol	Viscosity, Pa*s	uncertainty
298.15	0.1535	0.0149307	0.0005505
298.15	0.4063	0.0118947	0.0005265
298.15	0.6158	0.009619	0.000494
298.15	0.7897	0.007876	0.0004919
298.15	0.937	0.0062087	0.0005067
308.15	0.1535	0.0102463	0.0004825
308.15	0.4063	0.0082857	0.00042
308.15	0.6158	0.0067886	0.0004043
308.15	0.7897	0.0056416	0.0004048
308.15	0.937	0.0045157	0.0003919
318.15	0.1535	0.0072168	0.0003998
318.15	0.4063	0.0059173	0.000369
318.15	0.6158	0.0049129	0.0003618
318.15	0.7897	0.0041323	0.0003627
318.15	0.937	0.0033618	0.0003566
328.15	0.1535	0.0052351	0.0003591
328.15	0.4063	0.0043502	0.0003447
328.15	0.6158	0.0036558	0.0003416
328.15	0.7897	0.0031086	0.0003424
328.15	0.937	0.0025636	0.0003398
338.15	0.1535	0.0039115	0.0003349
338.15	0.4063	0.0032862	0.0003336
338.15	0.6158	0.0027864	0.0003321
338.15	0.7897	0.0023895	0.0003326
338.15	0.937	0.001996	0.0003341

System: octan-1-ol + nonan-1-ol; phases: Liquid
Fixed: Pressure, kPa = 101.8
Property: Mass density, kg/m3 (Liquid); method: Vibrating tube method
Temperature, K	Mole fraction of octan-1-ol	Mass density, kg/m3	uncertainty
298.15	0.1095	823.8	0.7
298.15	0.3227	823.4	0.6
298.15	0.5251	822.9	0.5
298.15	0.7208	822.4	0.5
298.15	0.9082	822.1	0.5
308.15	0.1095	816.9	0.7
308.15	0.3227	816.4	0.6
308.15	0.5251	815.9	0.5
308.15	0.7208	815.5	0.5
308.15	0.9082	815	0.5
318.15	0.1095	809.9	0.7
318.15	0.3227	809.4	0.6
318.15	0.5251	808.9	0.5
318.15	0.7208	808.4	0.5
318.15	0.9082	807.9	0.5
328.15	0.1095	802.8	0.7
328.15	0.3227	802.3	0.6
328.15	0.5251	801.8	0.5
328.15	0.7208	801.3	0.5
328.15	0.9082	800.8	0.5
338.15	0.1095	795.6	0.7
338.15	0.3227	795.1	0.6
338.15	0.5251	794.5	0.5
338.15	0.7208	794	0.5
338.15	0.9082	793.5	0.5

System: octan-1-ol + nonan-1-ol; phases: Liquid
Fixed: Pressure, kPa = 101.8
Property: Viscosity, Pa*s (Liquid); method: Falling or rolling sphere viscometry
Temperature, K	Mole fraction of octan-1-ol	Viscosity, Pa*s	uncertainty
298.15	0.1095	0.0092997	0.0003453
298.15	0.3227	0.0088853	0.0003416
298.15	0.5251	0.0084933	0.0003383
298.15	0.7208	0.0081366	0.0003357
298.15	0.9082	0.007796	0.0003339
308.15	0.1095	0.0065751	0.0003418
308.15	0.3227	0.0063172	0.0003307
308.15	0.5251	0.0060571	0.0003292
308.15	0.7208	0.005821	0.0003279
308.15	0.9082	0.0055955	0.0003245
318.15	0.1095	0.0047609	0.0003311
318.15	0.3227	0.0045791	0.0003258
318.15	0.5251	0.0044076	0.000325
318.15	0.7208	0.0042481	0.0003243
318.15	0.9082	0.0040934	0.0003227
328.15	0.1095	0.003542	0.0003258
328.15	0.3227	0.0034142	0.0003234
328.15	0.5251	0.0032939	0.000323
328.15	0.7208	0.0031816	0.0003226
328.15	0.9082	0.0030736	0.0003218
338.15	0.1095	0.0027002	0.0003225
338.15	0.3227	0.0026095	0.0003222
338.15	0.5251	0.0025202	0.000322
338.15	0.7208	0.0024409	0.0003218
338.15	0.9082	0.0023608	0.0003216

System: octan-1-ol + decan-1-ol; phases: Liquid
Fixed: Pressure, kPa = 101.8
Property: Mass density, kg/m3 (Liquid); method: Vibrating tube method
Temperature, K	Mole fraction of octan-1-ol	Mass density, kg/m3	uncertainty
298.15	0.1199	826.6	0.7
298.15	0.3407	825.5	0.6
298.15	0.5487	824.5	0.6
298.15	0.7394	823.5	0.5
298.15	0.918	822.6	0.5
308.15	0.1199	819.6	0.7
308.15	0.3407	818.6	0.6
308.15	0.5487	817.5	0.6
308.15	0.7394	816.5	0.5
308.15	0.918	815.5	0.5
318.15	0.1199	812.6	0.7
318.15	0.3407	811.6	0.6
318.15	0.5487	810.5	0.6
318.15	0.7394	809.5	0.5
318.15	0.918	808.5	0.5
328.15	0.1199	805.6	0.7
328.15	0.3407	804.6	0.6
328.15	0.5487	803.4	0.6
328.15	0.7394	802.4	0.5
328.15	0.918	801.3	0.5
338.15	0.1199	798.5	0.7
338.15	0.3407	797.4	0.6
338.15	0.5487	796.2	0.6
338.15	0.7394	795.1	0.5
338.15	0.918	794	0.5

System: octan-1-ol + decan-1-ol; phases: Liquid
Fixed: Pressure, kPa = 101.8
Property: Viscosity, Pa*s (Liquid); method: Falling or rolling sphere viscometry
Temperature, K	Mole fraction of octan-1-ol	Viscosity, Pa*s	uncertainty
298.15	0.1199	0.0111407	0.0003751
298.15	0.3407	0.0102067	0.0003687
298.15	0.5487	0.0093244	0.0003617
298.15	0.7394	0.0085875	0.0003563
298.15	0.918	0.0078876	0.0003543
308.15	0.1199	0.0077905	0.0003677
308.15	0.3407	0.0071624	0.0003428
308.15	0.5487	0.0066075	0.0003397
308.15	0.7394	0.0060916	0.0003371
308.15	0.918	0.0056582	0.0003267
318.15	0.1199	0.0055713	0.0003429
318.15	0.3407	0.0051558	0.0003314
318.15	0.5487	0.0047804	0.0003298
318.15	0.7394	0.0044376	0.0003287
318.15	0.918	0.0041351	0.0003238
328.15	0.1199	0.0041026	0.0003312
328.15	0.3407	0.0038193	0.0003262
328.15	0.5487	0.0035548	0.0003254
328.15	0.7394	0.0033167	0.0003248
328.15	0.918	0.0031043	0.0003225
338.15	0.1199	0.0031044	0.0003242
338.15	0.3407	0.0028998	0.0003237
338.15	0.5487	0.0027108	0.0003233
338.15	0.7394	0.0025376	0.0003229
338.15	0.918	0.0023841	0.0003226

System: octan-1-ol + 1-undecanol; phases: Liquid
Fixed: Pressure, kPa = 101.8
Property: Mass density, kg/m3 (Liquid); method: Vibrating tube method
Temperature, K	Mole fraction of octan-1-ol	Mass density, kg/m3	uncertainty
298.15	0.1273	827.3	0.7
298.15	0.3622	826.1	0.6
298.15	0.5698	824.7	0.6
298.15	0.756	823.5	0.5
298.15	0.9212	822.3	0.5
308.15	0.1273	820.4	0.7
308.15	0.3622	819.1	0.6
308.15	0.5698	817.8	0.6
308.15	0.756	816.6	0.5
308.15	0.9212	815.3	0.5
318.15	0.1273	813.5	0.7
318.15	0.3622	812.2	0.6
318.15	0.5698	810.8	0.6
318.15	0.756	809.6	0.5
318.15	0.9212	808.3	0.5
328.15	0.1273	806.6	0.7
328.15	0.3622	805.2	0.6
328.15	0.5698	803.8	0.6
328.15	0.756	802.5	0.6
328.15	0.9212	801.1	0.6
338.15	0.1273	799.5	0.7
338.15	0.3622	798.1	0.6
338.15	0.5698	796.6	0.6
338.15	0.756	795.2	0.6
338.15	0.9212	793.8	0.5

System: octan-1-ol + 1-undecanol; phases: Liquid
Fixed: Pressure, kPa = 101.8
Property: Viscosity, Pa*s (Liquid); method: Falling or rolling sphere viscometry
Temperature, K	Mole fraction of octan-1-ol	Viscosity, Pa*s	uncertainty
298.15	0.1273	0.013253	0.000428
298.15	0.3622	0.011614	0.0004149
298.15	0.5698	0.0102443	0.000401
298.15	0.756	0.0090942	0.0004152
298.15	0.9212	0.007658	0.0004414
308.15	0.1273	0.0091509	0.0004042
308.15	0.3622	0.0080964	0.0003635
308.15	0.5698	0.0072082	0.0003576
308.15	0.756	0.0064468	0.0003645
308.15	0.9212	0.0055	0.0003565
318.15	0.1273	0.0064744	0.0003601
318.15	0.3622	0.0057806	0.0003409
318.15	0.5698	0.0051874	0.0003383
318.15	0.756	0.0046728	0.0003419
318.15	0.9212	0.0040265	0.0003379
328.15	0.1273	0.004728	0.0003395
328.15	0.3622	0.0042499	0.0003308
328.15	0.5698	0.0038394	0.0003295
328.15	0.756	0.0034804	0.0003314
328.15	0.9212	0.0030281	0.0003298
338.15	0.1273	0.0035521	0.0003271
338.15	0.3622	0.0032108	0.0003262
338.15	0.5698	0.0029168	0.0003255
338.15	0.756	0.0026558	0.0003265
338.15	0.9212	0.0023299	0.0003282

System: octan-1-ol + dodecan-1-ol; phases: Liquid
Fixed: Pressure, kPa = 101.8
Property: Mass density, kg/m3 (Liquid); method: Vibrating tube method
Temperature, K	Mole fraction of octan-1-ol	Mass density, kg/m3	uncertainty
298.15	0.1377	828.7	0.7
298.15	0.3798	827.2	0.6
298.15	0.589	825.6	0.6
298.15	0.7701	824	0.6
298.15	0.9281	822.5	0.6
308.15	0.1377	821.9	0.7
308.15	0.3798	820.3	0.6
308.15	0.589	818.7	0.6
308.15	0.7701	817	0.6
308.15	0.9281	815.5	0.6
318.15	0.1377	815	0.7
318.15	0.3798	813.4	0.6
318.15	0.589	811.7	0.6
318.15	0.7701	810.1	0.6
318.15	0.9281	808.5	0.6
328.15	0.1377	808.1	0.7
328.15	0.3798	806.4	0.6
328.15	0.589	804.7	0.6
328.15	0.7701	803	0.6
328.15	0.9281	801.3	0.6
338.15	0.1377	801.1	0.7
338.15	0.3798	799.3	0.6
338.15	0.589	797.5	0.6
338.15	0.7701	795.8	0.6
338.15	0.9281	794	0.6

System: octan-1-ol + dodecan-1-ol; phases: Liquid
Fixed: Pressure, kPa = 101.8
Property: Viscosity, Pa*s (Liquid); method: Falling or rolling sphere viscometry
Temperature, K	Mole fraction of octan-1-ol	Viscosity, Pa*s	uncertainty
298.15	0.1377	0.0150833	0.0004762
298.15	0.3798	0.0129143	0.0004602
298.15	0.589	0.011111	0.0004507
298.15	0.7701	0.0095094	0.0004425
298.15	0.9281	0.0082043	0.0004324
308.15	0.1377	0.0102117	0.0004318
308.15	0.3798	0.0089575	0.0003813
308.15	0.589	0.0077454	0.0003824
308.15	0.7701	0.0067041	0.0003757
308.15	0.9281	0.0058732	0.0003483
318.15	0.1377	0.0072015	0.0003717
318.15	0.3798	0.0063567	0.0003498
318.15	0.589	0.0055526	0.00035
318.15	0.7701	0.0048562	0.0003474
318.15	0.9281	0.0042837	0.0003342
328.15	0.1377	0.0052458	0.0003453
328.15	0.3798	0.0046538	0.0003355
328.15	0.589	0.0040982	0.0003354
328.15	0.7701	0.0036111	0.0003343
328.15	0.9281	0.0032065	0.0003281
338.15	0.1377	0.0039175	0.0003291
338.15	0.3798	0.0035025	0.0003286
338.15	0.589	0.0031026	0.0003286
338.15	0.7701	0.0027535	0.0003281
338.15	0.9281	0.0024585	0.0003276

System: nonan-1-ol + decan-1-ol; phases: Liquid
Fixed: Pressure, kPa = 101.8
Property: Mass density, kg/m3 (Liquid); method: Vibrating tube method
Temperature, K	Mole fraction of nonan-1-ol	Mass density, kg/m3	uncertainty
298.15	0.1082	827.2	0.7
298.15	0.3202	826.6	0.7
298.15	0.5233	825.6	0.7
298.15	0.7188	824.9	0.7
298.15	0.9074	824.4	0.7
308.15	0.1082	820.2	0.7
308.15	0.3202	819.6	0.7
308.15	0.5233	818.5	0.7
308.15	0.7188	818	0.7
308.15	0.9074	817.4	0.7
318.15	0.1082	813.2	0.7
318.15	0.3202	812.6	0.7
318.15	0.5233	811.6	0.7
318.15	0.7188	811.1	0.7
318.15	0.9074	810.5	0.7
328.15	0.1082	806.2	0.7
328.15	0.3202	805.6	0.7
328.15	0.5233	804.6	0.7
328.15	0.7188	804	0.7
328.15	0.9074	803.4	0.7
338.15	0.1082	799.1	0.7
338.15	0.3202	798.4	0.7
338.15	0.5233	797.4	0.7
338.15	0.7188	796.9	0.7
338.15	0.9074	796.2	0.7

System: nonan-1-ol + decan-1-ol; phases: Liquid
Fixed: Pressure, kPa = 101.8
Property: Viscosity, Pa*s (Liquid); method: Falling or rolling sphere viscometry
Temperature, K	Mole fraction of nonan-1-ol	Viscosity, Pa*s	uncertainty
298.15	0.1082	0.0113623	0.0003572
298.15	0.3202	0.0109063	0.0003529
298.15	0.5233	0.010606	0.0003518
298.15	0.7188	0.01016	0.0003527
298.15	0.9074	0.0097264	0.0003509
308.15	0.1082	0.007899	0.0003518
308.15	0.3202	0.0076324	0.000336
308.15	0.5233	0.0074454	0.0003361
308.15	0.7188	0.0071249	0.000336
308.15	0.9074	0.0068764	0.0003317
318.15	0.1082	0.0056491	0.0003355
318.15	0.3202	0.0054628	0.0003285
318.15	0.5233	0.0053361	0.0003285
318.15	0.7188	0.0051237	0.0003284
318.15	0.9074	0.0049533	0.0003264
328.15	0.1082	0.0041553	0.0003279
328.15	0.3202	0.0040272	0.0003249
328.15	0.5233	0.0039306	0.0003248
328.15	0.7188	0.0037964	0.0003248
328.15	0.9074	0.0036708	0.0003238
338.15	0.1082	0.0031407	0.0003232
338.15	0.3202	0.0030519	0.000323
338.15	0.5233	0.0029806	0.000323
338.15	0.7188	0.002885	0.000323
338.15	0.9074	0.0027932	0.0003229

System: nonan-1-ol + 1-undecanol; phases: Liquid
Fixed: Pressure, kPa = 101.8
Property: Mass density, kg/m3 (Liquid); method: Vibrating tube method
Temperature, K	Mole fraction of nonan-1-ol	Mass density, kg/m3	uncertainty
298.15	0.116	827.6	0.7
298.15	0.3375	826.8	0.7
298.15	0.5442	825.9	0.7
298.15	0.7372	825.2	0.7
298.15	0.9152	824.4	0.7
308.15	0.116	820.7	0.7
308.15	0.3375	819.9	0.7
308.15	0.5442	819.1	0.7
308.15	0.7372	818.3	0.7
308.15	0.9152	817.5	0.7
318.15	0.116	813.8	0.7
318.15	0.3375	813	0.7
318.15	0.5442	812.1	0.7
318.15	0.7372	811.4	0.7
318.15	0.9152	810.5	0.7
328.15	0.116	806.8	0.7
328.15	0.3375	806	0.7
328.15	0.5442	805.1	0.7
328.15	0.7372	804.3	0.7
328.15	0.9152	803.4	0.7
338.15	0.116	799.8	0.7
338.15	0.3375	799	0.7
338.15	0.5442	798	0.7
338.15	0.7372	797.2	0.7
338.15	0.9152	796.3	0.7

System: nonan-1-ol + 1-undecanol; phases: Liquid
Fixed: Pressure, kPa = 101.8
Property: Viscosity, Pa*s (Liquid); method: Falling or rolling sphere viscometry
Temperature, K	Mole fraction of nonan-1-ol	Viscosity, Pa*s	uncertainty
298.15	0.116	0.0135683	0.0003953
298.15	0.3375	0.012522	0.0003907
298.15	0.5442	0.011526	0.000385
298.15	0.7372	0.010647	0.0003779
298.15	0.9152	0.0098743	0.0003732
308.15	0.116	0.0093837	0.0003869
308.15	0.3375	0.0086665	0.0003538
308.15	0.5442	0.0080406	0.00035
308.15	0.7372	0.0074759	0.0003473
308.15	0.9152	0.0069649	0.0003338
318.15	0.116	0.0066313	0.0003523
318.15	0.3375	0.0061572	0.0003365
318.15	0.5442	0.0057523	0.0003349
318.15	0.7372	0.0053663	0.000334
318.15	0.9152	0.0050167	0.0003274
328.15	0.116	0.0048282	0.0003354
328.15	0.3375	0.0045131	0.0003288
328.15	0.5442	0.004224	0.0003281
328.15	0.7372	0.0039585	0.0003274
328.15	0.9152	0.0037194	0.0003244
338.15	0.116	0.0036194	0.0003254
338.15	0.3375	0.0033989	0.0003251
338.15	0.5442	0.0031916	0.0003247
338.15	0.7372	0.0030021	0.0003244
338.15	0.9152	0.0028298	0.0003242

System: nonan-1-ol + dodecan-1-ol; phases: Liquid
Fixed: Pressure, kPa = 101.8
Property: Mass density, kg/m3 (Liquid); method: Vibrating tube method
Temperature, K	Mole fraction of nonan-1-ol	Mass density, kg/m3	uncertainty
298.15	0.1246	829	0.7
298.15	0.3557	827.9	0.7
298.15	0.5641	826.6	0.7
298.15	0.7516	825.6	0.7
298.15	0.9218	824.6	0.7
308.15	0.1246	822.1	0.7
308.15	0.3557	821	0.7
308.15	0.5641	819.8	0.7
308.15	0.7516	818.7	0.7
308.15	0.9218	817.6	0.7
318.15	0.1246	815.3	0.7
318.15	0.3557	814.2	0.7
318.15	0.5641	812.9	0.7
318.15	0.7516	811.8	0.7
318.15	0.9218	810.7	0.7
328.15	0.1246	808.4	0.7
328.15	0.3557	807.2	0.7
328.15	0.5641	805.9	0.7
328.15	0.7516	804.8	0.7
328.15	0.9218	803.6	0.7
338.15	0.1246	801.4	0.7
338.15	0.3557	800.2	0.7
338.15	0.5641	798.9	0.7
338.15	0.7516	797.6	0.7
338.15	0.9218	796.4	0.7

System: nonan-1-ol + dodecan-1-ol; phases: Liquid
Fixed: Pressure, kPa = 101.8
Property: Viscosity, Pa*s (Liquid); method: Falling or rolling sphere viscometry
Temperature, K	Mole fraction of nonan-1-ol	Viscosity, Pa*s	uncertainty
298.15	0.1246	0.0159117	0.0004629
298.15	0.3557	0.0140703	0.0004503
298.15	0.5641	0.012489	0.0004324
298.15	0.7516	0.0112033	0.0004205
298.15	0.9218	0.0100175	0.0004171
308.15	0.1246	0.0108603	0.0004341
308.15	0.3557	0.0096855	0.0003804
308.15	0.5641	0.0086767	0.0003732
308.15	0.7516	0.0078138	0.0003675
308.15	0.9218	0.007056	0.0003428
318.15	0.1246	0.0075988	0.0003745
318.15	0.3557	0.006831	0.0003486
318.15	0.5641	0.0061822	0.0003458
318.15	0.7516	0.0055908	0.0003435
318.15	0.9218	0.0050907	0.0003316
328.15	0.1246	0.0054941	0.0003458
328.15	0.3557	0.0049764	0.0003348
328.15	0.5641	0.0045195	0.0003333
328.15	0.7516	0.0041221	0.0003322
328.15	0.9218	0.0037669	0.0003267
338.15	0.1246	0.0040906	0.0003289
338.15	0.3557	0.0037272	0.0003282
338.15	0.5641	0.0034027	0.0003275
338.15	0.7516	0.0031203	0.0003269
338.15	0.9218	0.0028643	0.0003266

System: decan-1-ol + 1-undecanol; phases: Liquid
Fixed: Pressure, kPa = 101.8
Property: Mass density, kg/m3 (Liquid); method: Vibrating tube method
Temperature, K	Mole fraction of decan-1-ol	Mass density, kg/m3	uncertainty
298.15	0.1083	827.8	0.7
298.15	0.3183	827.7	0.7
298.15	0.5207	827.5	0.7
298.15	0.7164	827.2	0.7
298.15	0.907	827	0.7
308.15	0.1083	821	0.7
308.15	0.3183	820.8	0.7
308.15	0.5207	820.6	0.7
308.15	0.7164	820.3	0.7
308.15	0.907	820	0.7
318.15	0.1083	814.1	0.7
318.15	0.3183	813.9	0.7
318.15	0.5207	813.7	0.7
318.15	0.7164	813.4	0.7
318.15	0.907	813.1	0.7
328.15	0.1083	807.2	0.7
328.15	0.3183	807	0.7
328.15	0.5207	806.7	0.7
328.15	0.7164	806.4	0.7
328.15	0.907	806.1	0.7
338.15	0.1083	800.2	0.7
338.15	0.3183	799.9	0.7
338.15	0.5207	799.7	0.7
338.15	0.7164	799.3	0.7
338.15	0.907	799	0.7

System: decan-1-ol + 1-undecanol; phases: Liquid
Fixed: Pressure, kPa = 101.8
Property: Viscosity, Pa*s (Liquid); method: Falling or rolling sphere viscometry
Temperature, K	Mole fraction of decan-1-ol	Viscosity, Pa*s	uncertainty
298.15	0.1083	0.01395	0.0003729
298.15	0.3183	0.0134333	0.0003693
298.15	0.5207	0.0129773	0.0003661
298.15	0.7164	0.0125353	0.0003642
298.15	0.907	0.0120807	0.0003624
308.15	0.1083	0.0095931	0.0003685
308.15	0.3183	0.0092421	0.0003439
308.15	0.5207	0.0089625	0.0003423
308.15	0.7164	0.0086736	0.0003415
308.15	0.907	0.0083841	0.0003376
318.15	0.1083	0.0067479	0.0003419
318.15	0.3183	0.0065593	0.0003323
318.15	0.5207	0.0063316	0.0003317
318.15	0.7164	0.0061481	0.0003309
318.15	0.907	0.0059622	0.0003292
328.15	0.1083	0.0049167	0.0003311
328.15	0.3183	0.0047678	0.0003267
328.15	0.5207	0.0046297	0.0003264
328.15	0.7164	0.0044956	0.0003261
328.15	0.907	0.0043626	0.0003251
338.15	0.1083	0.0036827	0.0003243
338.15	0.3183	0.0035739	0.000324
338.15	0.5207	0.0034785	0.0003238
338.15	0.7164	0.0033818	0.0003237
338.15	0.907	0.003287	0.0003236

System: decan-1-ol + dodecan-1-ol; phases: Liquid
Fixed: Pressure, kPa = 101.8
Property: Mass density, kg/m3 (Liquid); method: Vibrating tube method
Temperature, K	Mole fraction of decan-1-ol	Mass density, kg/m3	uncertainty
298.15	0.1151	829.4	0.7
298.15	0.3347	828.8	0.7
298.15	0.5407	828.5	0.7
298.15	0.7346	828.1	0.7
298.15	0.9162	827.5	0.7
308.15	0.1151	822.5	0.7
308.15	0.3347	821.9	0.7
308.15	0.5407	821.5	0.7
308.15	0.7346	821.2	0.7
308.15	0.9162	820.6	0.7
318.15	0.1151	815.7	0.7
318.15	0.3347	815.1	0.7
318.15	0.5407	814.6	0.7
318.15	0.7346	814.3	0.7
318.15	0.9162	813.7	0.7
328.15	0.1151	808.8	0.7
328.15	0.3347	808.2	0.7
328.15	0.5407	807.7	0.7
328.15	0.7346	807.3	0.7
328.15	0.9162	806.7	0.7
338.15	0.1151	801.8	0.7
338.15	0.3347	801.2	0.7
338.15	0.5407	800.6	0.7
338.15	0.7346	800.3	0.7
338.15	0.9162	799.6	0.7

System: decan-1-ol + dodecan-1-ol; phases: Liquid
Fixed: Pressure, kPa = 101.8
Property: Viscosity, Pa*s (Liquid); method: Falling or rolling sphere viscometry
Temperature, K	Mole fraction of decan-1-ol	Viscosity, Pa*s	uncertainty
298.15	0.1151	0.0163527	0.0004231
298.15	0.3347	0.0151277	0.0004148
298.15	0.5407	0.014017	0.0004053
298.15	0.7346	0.0130263	0.0003961
298.15	0.9162	0.01215	0.0003898
308.15	0.1151	0.0110817	0.0004118
308.15	0.3347	0.0103093	0.0003632
308.15	0.5407	0.0096266	0.00036
308.15	0.7346	0.008957	0.0003566
308.15	0.9162	0.0083839	0.0003375
318.15	0.1151	0.0077519	0.0003623
318.15	0.3347	0.0072455	0.0003415
318.15	0.5407	0.0067749	0.0003395
318.15	0.7346	0.0063568	0.0003376
318.15	0.9162	0.0059732	0.0003295
328.15	0.1151	0.0056015	0.0003401
328.15	0.3347	0.0052557	0.0003312
328.15	0.5407	0.0049372	0.0003302
328.15	0.7346	0.0046483	0.0003294
328.15	0.9162	0.0043849	0.0003256
338.15	0.1151	0.0041661	0.0003269
338.15	0.3347	0.00392	0.0003263
338.15	0.5407	0.0036983	0.0003259
338.15	0.7346	0.0034907	0.0003254
338.15	0.9162	0.003306	0.000325

System: 1-undecanol + dodecan-1-ol; phases: Liquid
Fixed: Pressure, kPa = 101.8
Property: Mass density, kg/m3 (Liquid); method: Vibrating tube method
Temperature, K	Mole fraction of 1-undecanol	Mass density, kg/m3	uncertainty
298.15	0.105	829.4	0.7
298.15	0.3165	829.2	0.7
298.15	0.5196	828.9	0.7
298.15	0.7165	828.4	0.7
298.15	0.9076	828	0.7
308.15	0.105	822.6	0.7
308.15	0.3165	822.3	0.7
308.15	0.5196	822	0.7
308.15	0.7165	821.6	0.7
308.15	0.9076	821.2	0.7
318.15	0.105	815.8	0.7
318.15	0.3165	815.5	0.7
318.15	0.5196	815.2	0.7
318.15	0.7165	814.8	0.7
318.15	0.9076	814.4	0.7
328.15	0.105	808.9	0.7
328.15	0.3165	808.6	0.7
328.15	0.5196	808.3	0.7
328.15	0.7165	807.9	0.7
328.15	0.9076	807.4	0.7
338.15	0.105	801.9	0.7
338.15	0.3165	801.6	0.7
338.15	0.5196	801.3	0.7
338.15	0.7165	800.9	0.7
338.15	0.9076	800.4	0.7

System: 1-undecanol + dodecan-1-ol; phases: Liquid
Fixed: Pressure, kPa = 101.8
Property: Viscosity, Pa*s (Liquid); method: Falling or rolling sphere viscometry
Temperature, K	Mole fraction of 1-undecanol	Viscosity, Pa*s	uncertainty
298.15	0.105	0.0166867	0.0003938
298.15	0.3165	0.016052	0.000388
298.15	0.5196	0.0155323	0.0003836
298.15	0.7165	0.0149973	0.0003803
298.15	0.9076	0.0145113	0.0003768
308.15	0.105	0.0112943	0.0003882
308.15	0.3165	0.0109053	0.0003521
308.15	0.5196	0.0105803	0.0003504
308.15	0.7165	0.010234	0.0003492
308.15	0.9076	0.0099049	0.0003453
318.15	0.105	0.0078947	0.0003515
318.15	0.3165	0.0076329	0.0003362
318.15	0.5196	0.0074175	0.0003353
318.15	0.7165	0.0071896	0.0003347
318.15	0.9076	0.0069766	0.0003326
328.15	0.105	0.0057	0.000335
328.15	0.3165	0.0055227	0.0003287
328.15	0.5196	0.0053763	0.0003283
328.15	0.7165	0.00522	0.000328
328.15	0.9076	0.0050699	0.0003267
338.15	0.105	0.0042356	0.0003254
338.15	0.3165	0.0041132	0.0003251
338.15	0.5196	0.004008	0.0003249
338.15	0.7165	0.0038975	0.0003247
338.15	0.9076	0.0037879	0.0003245
