Measured thermophysical data. Interionic Interactions of Aqueous Mixtures of Ionic Liquid 1-Hexyl-3-methylimidazolium Chloride with Phosphate Salts at T = (288.15 to 308.15) K: Volumetric, Acoustic and UV Absorption Studies
Source: J. Chem. Eng. Data, 2015, 10.1021/acs.jced.5b00326
Compound 1: 1-hexyl-3-methylimidazolium chloride, C10H19ClN2, InChI=1S/C10H19N2.ClH/c1-3-4-5-6-7-12-9-8-11(2)10-12;/h8-10H,3-7H2,1-2H3;1H/q+1;/p-1, purity 98.5%
Compound 2: disodium hydrogen phosphate, HNa2O4P, InChI=1S/2Na.H3O4P/c;;1-5(2,3)4/h;;(H3,1,2,3,4)/q2*+1;/p-2, purity 98%
Compound 3: dipotassium hydrogen phosphate, HK2O4P, InChI=1S/2K.H3O4P/c;;1-5(2,3)4/h;;(H3,1,2,3,4)/q2*+1;/p-2, purity 99%
Compound 4: water, H2O, InChI=1S/H2O/h1H2, purity 99.9%

System: water; phases: Liquid
Fixed: Pressure, kPa = 101
Property: Mass density, kg/m3 (Liquid); method: Vibrating tube method
Temperature, K	Mass density, kg/m3	uncertainty
288.15	999.11	14
293.15	998.211	14
298.15	997.047	14
303.15	995.656	14
308.15	994.039	14

System: water; phases: Liquid
Fixed: Pressure, kPa = 100
Fixed: Frequency, MHz = 3
Property: Speed of sound, m/s (Liquid); method: Sing-around technique in a fixed-path interferometer
Temperature, K	Speed of sound, m/s	uncertainty
288.15	1464.22	20.01
293.15	1482.14	20.01
298.15	1497.01	20.01
303.15	1511.84	20.01
308.15	1519.64	20.01

System: disodium hydrogen phosphate + water + 1-hexyl-3-methylimidazolium chloride; phases: Liquid
Fixed: Pressure, kPa = 101
Property: Mass density, kg/m3 (Liquid); method: Vibrating tube method
Solvent: Molality, mol/kg of 1-hexyl-3-methylimidazolium chloride	Temperature, K	Molality, mol/kg of disodium hydrogen phosphate	Mass density, kg/m3	uncertainty
0	288.15	0	999.11	14.003
0	288.15	0.02076	1001.705	14.003
0	288.15	0.04991	1005.349	14.003
0	288.15	0.07047	1007.919	14.003
0	288.15	0.10138	1011.783	14.003
0	288.15	0.19825	1023.891	14.003
0	288.15	0.29919	1036.509	14.004
0	288.15	0.39401	1048.361	14.004
0	288.15	0.49571	1061.074	14.004
0	288.15	0.59714	1073.753	14.005
0	288.15	0.69469	1085.946	14.005
0	288.15	0.79422	1098.388	14.005
0	288.15	0.87604	1108.615	14.005
0	288.15	0.97599	1121.109	14.006
0	293.15	0	998.211	14.003
0	293.15	0.02076	1000.781	14.003
0	293.15	0.04991	1004.39	14.003
0	293.15	0.07047	1006.935	14.003
0	293.15	0.10138	1010.762	14.003
0	293.15	0.19825	1022.754	14.003
0	293.15	0.29919	1035.251	14.004
0	293.15	0.39401	1046.989	14.004
0	293.15	0.49571	1059.58	14.004
0	293.15	0.59714	1072.137	14.004
0	293.15	0.69469	1084.214	14.005
0	293.15	0.79422	1096.535	14.005
0	293.15	0.87604	1106.665	14.005
0	293.15	0.97599	1119.039	14.006
0	298.15	0	997.047	14.003
0	298.15	0.02076	999.59	14.003
0	298.15	0.04991	1003.161	14.003
0	298.15	0.07047	1005.68	14.003
0	298.15	0.10138	1009.466	14.003
0	298.15	0.19825	1021.333	14.003
0	298.15	0.29919	1033.698	14.004
0	298.15	0.39401	1045.313	14.004
0	298.15	0.49571	1057.771	14.004
0	298.15	0.59714	1070.197	14.004
0	298.15	0.69469	1082.147	14.005
0	298.15	0.79422	1094.339	14.005
0	298.15	0.87604	1104.362	14.005
0	298.15	0.97599	1116.606	14.006
0	303.15	0	995.656	14.003
0	303.15	0.02076	998.178	14.003
0	303.15	0.04991	1001.72	14.003
0	303.15	0.07047	1004.218	14.003
0	303.15	0.10138	1007.974	14.003
0	303.15	0.19825	1019.743	14.003
0	303.15	0.29919	1032.008	14.004
0	303.15	0.39401	1043.528	14.004
0	303.15	0.49571	1055.885	14.004
0	303.15	0.59714	1068.209	14.004
0	303.15	0.69469	1080.061	14.005
0	303.15	0.79422	1092.154	14.005
0	303.15	0.87604	1102.095	14.005
0	303.15	0.97599	1114.239	14.006
0	308.15	0	994.039	14.003
0	308.15	0.02076	996.536	14.003
0	308.15	0.04991	1000.043	14.003
0	308.15	0.07047	1002.517	14.003
0	308.15	0.10138	1006.235	14.003
0	308.15	0.19825	1017.888	14.003
0	308.15	0.29919	1030.032	14.004
0	308.15	0.39401	1041.438	14.004
0	308.15	0.49571	1053.673	14.004
0	308.15	0.59714	1065.875	14.004
0	308.15	0.69469	1077.61	14.005
0	308.15	0.79422	1089.584	14.005
0	308.15	0.87604	1099.427	14.005
0	308.15	0.97599	1111.451	14.005
0.01	288.15	0	999.911	14.003
0.01	288.15	0.02382	1002.889	14.003
0.01	288.15	0.05054	1006.229	14.003
0.01	288.15	0.07024	1008.691	14.003
0.01	288.15	0.10258	1012.734	14.003
0.01	288.15	0.19472	1024.251	14.003
0.01	288.15	0.29723	1037.065	14.004
0.01	288.15	0.40068	1049.996	14.004
0.01	288.15	0.4949	1061.774	14.004
0.01	288.15	0.60038	1074.959	14.005
0.01	288.15	0.69809	1087.172	14.005
0.01	288.15	0.79136	1098.831	14.005
0.01	288.15	0.90505	1113.042	14.005
0.01	288.15	1.00069	1124.997	14.006
0.01	293.15	0	999.007	14.003
0.01	293.15	0.02382	1001.956	14.003
0.01	293.15	0.05054	1005.264	14.003
0.01	293.15	0.07024	1007.703	14.003
0.01	293.15	0.10258	1011.706	14.003
0.01	293.15	0.19472	1023.113	14.003
0.01	293.15	0.29723	1035.804	14.004
0.01	293.15	0.40068	1048.611	14.004
0.01	293.15	0.4949	1060.276	14.004
0.01	293.15	0.60038	1073.334	14.005
0.01	293.15	0.69809	1085.431	14.005
0.01	293.15	0.79136	1096.977	14.005
0.01	293.15	0.90505	1111.052	14.005
0.01	293.15	1.00069	1122.892	14.006
0.01	298.15	0	997.841	14.003
0.01	298.15	0.02382	1000.759	14.003
0.01	298.15	0.05054	1004.032	14.003
0.01	298.15	0.07024	1006.445	14.003
0.01	298.15	0.10258	1010.407	14.003
0.01	298.15	0.19472	1021.694	14.003
0.01	298.15	0.29723	1034.252	14.004
0.01	298.15	0.40068	1046.924	14.004
0.01	298.15	0.4949	1058.466	14.004
0.01	298.15	0.60038	1071.388	14.004
0.01	298.15	0.69809	1083.357	14.005
0.01	298.15	0.79136	1094.783	14.005
0.01	298.15	0.90505	1108.71	14.005
0.01	298.15	1.00069	1120.426	14.006
0.01	303.15	0	996.436	14.003
0.01	303.15	0.02382	999.33	14.003
0.01	303.15	0.05054	1002.577	14.003
0.01	303.15	0.07024	1004.97	14.003
0.01	303.15	0.10258	1008.899	14.003
0.01	303.15	0.19472	1020.094	14.003
0.01	303.15	0.29723	1032.549	14.004
0.01	303.15	0.40068	1045.119	14.004
0.01	303.15	0.4949	1056.566	14.004
0.01	303.15	0.60038	1069.382	14.004
0.01	303.15	0.69809	1081.254	14.005
0.01	303.15	0.79136	1092.586	14.005
0.01	303.15	0.90505	1106.4	14.005
0.01	303.15	1.00069	1118.02	14.006
0.01	308.15	0	994.818	14.003
0.01	308.15	0.02382	997.684	14.003
0.01	308.15	0.05054	1000.898	14.003
0.01	308.15	0.07024	1003.268	14.003
0.01	308.15	0.10258	1007.158	14.003
0.01	308.15	0.19472	1018.243	14.003
0.01	308.15	0.29723	1030.575	14.004
0.01	308.15	0.40068	1043.02	14.004
0.01	308.15	0.4949	1054.354	14.004
0.01	308.15	0.60038	1067.044	14.004
0.01	308.15	0.69809	1078.798	14.005
0.01	308.15	0.79136	1090.019	14.005
0.01	308.15	0.90505	1103.696	14.005
0.01	308.15	1.00069	1115.201	14.006
0.03	288.15	0	1000.168	14.003
0.03	288.15	0.02416	1003.188	14.003
0.03	288.15	0.0527	1006.756	14.003
0.03	288.15	0.06834	1008.711	14.003
0.03	288.15	0.09904	1012.548	14.003
0.03	288.15	0.20005	1025.174	14.003
0.03	288.15	0.29723	1037.322	14.004
0.03	288.15	0.40026	1050.201	14.004
0.03	288.15	0.5003	1062.706	14.004
0.03	288.15	0.59786	1074.901	14.005
0.03	288.15	0.69652	1087.233	14.005
0.03	288.15	0.80391	1100.657	14.005
0.03	288.15	0.89242	1111.721	14.005
0.03	288.15	0.99204	1124.173	14.006
0.03	293.15	0	999.246	14.003
0.03	293.15	0.02416	1002.237	14.003
0.03	293.15	0.0527	1005.77	14.003
0.03	293.15	0.06834	1007.706	14.003
0.03	293.15	0.09904	1011.507	14.003
0.03	293.15	0.20005	1024.012	14.003
0.03	293.15	0.29723	1036.043	14.004
0.03	293.15	0.40026	1048.798	14.004
0.03	293.15	0.5003	1061.183	14.004
0.03	293.15	0.59786	1073.261	14.005
0.03	293.15	0.69652	1085.475	14.005
0.03	293.15	0.80391	1098.77	14.005
0.03	293.15	0.89242	1109.728	14.005
0.03	293.15	0.99204	1122.061	14.006
0.03	298.15	0	998.052	14.003
0.03	298.15	0.02416	1001.012	14.003
0.03	298.15	0.0527	1004.508	14.003
0.03	298.15	0.06834	1006.424	14.003
0.03	298.15	0.09904	1010.184	14.003
0.03	298.15	0.20005	1022.558	14.003
0.03	298.15	0.29723	1034.463	14.004
0.03	298.15	0.40026	1047.084	14.004
0.03	298.15	0.5003	1059.339	14.004
0.03	298.15	0.59786	1071.29	14.004
0.03	298.15	0.69652	1083.376	14.005
0.03	298.15	0.80391	1096.531	14.005
0.03	298.15	0.89242	1107.373	14.005
0.03	298.15	0.99204	1119.577	14.006
0.03	303.15	0	996.623	14.003
0.03	303.15	0.02416	999.558	14.003
0.03	303.15	0.0527	1003.026	14.003
0.03	303.15	0.06834	1004.926	14.003
0.03	303.15	0.09904	1008.656	14.003
0.03	303.15	0.20005	1020.929	14.003
0.03	303.15	0.29723	1032.736	14.004
0.03	303.15	0.40026	1045.255	14.004
0.03	303.15	0.5003	1057.409	14.004
0.03	303.15	0.59786	1069.263	14.004
0.03	303.15	0.69652	1081.25	14.005
0.03	303.15	0.80391	1094.298	14.005
0.03	303.15	0.89242	1105.052	14.005
0.03	303.15	0.99204	1117.156	14.006
0.03	308.15	0	995.004	14.003
0.03	308.15	0.02416	997.91	14.003
0.03	308.15	0.0527	1001.344	14.003
0.03	308.15	0.06834	1003.225	14.003
0.03	308.15	0.09904	1006.919	14.003
0.03	308.15	0.20005	1019.07	14.003
0.03	308.15	0.29723	1030.761	14.004
0.03	308.15	0.40026	1043.155	14.004
0.03	308.15	0.5003	1055.19	14.004
0.03	308.15	0.59786	1066.927	14.004
0.03	308.15	0.69652	1078.795	14.005
0.03	308.15	0.80391	1091.714	14.005
0.03	308.15	0.89242	1102.362	14.005
0.03	308.15	0.99204	1114.346	14.006

System: disodium hydrogen phosphate + water + 1-hexyl-3-methylimidazolium chloride; phases: Liquid
Fixed: Pressure, kPa = 100
Fixed: Frequency, MHz = 3
Property: Speed of sound, m/s (Liquid); method: Sing-around technique in a fixed-path interferometer
Solvent: Molality, mol/kg of 1-hexyl-3-methylimidazolium chloride	Temperature, K	Molality, mol/kg of disodium hydrogen phosphate	Speed of sound, m/s	uncertainty
0	288.15	0	1464.22	20.05
0	288.15	0.02076	1467.75	20.05
0	288.15	0.04991	1472.71	20.05
0	288.15	0.07047	1476.21	20.05
0	288.15	0.10138	1481.46	20.05
0	288.15	0.19825	1497.94	20.05
0	288.15	0.29919	1515.11	20.05
0	288.15	0.39401	1531.24	20.05
0	288.15	0.49571	1548.54	20.05
0	288.15	0.59714	1565.79	20.05
0	288.15	0.69469	1582.39	20.05
0	288.15	0.79422	1599.32	20.05
0	288.15	0.87604	1613.23	20.05
0	288.15	0.97599	1630.24	20.05
0	293.15	0	1482.14	20.05
0	293.15	0.02076	1485.57	20.05
0	293.15	0.04991	1490.38	20.05
0	293.15	0.07047	1493.77	20.05
0	293.15	0.10138	1498.88	20.05
0	293.15	0.19825	1514.87	20.05
0	293.15	0.29919	1531.54	20.05
0	293.15	0.39401	1547.19	20.05
0	293.15	0.49571	1563.98	20.05
0	293.15	0.59714	1580.73	20.05
0	293.15	0.69469	1596.83	20.05
0	293.15	0.79422	1613.27	20.05
0	293.15	0.87604	1626.77	20.05
0	293.15	0.97599	1643.28	20.05
0	298.15	0	1497.01	20.05
0	298.15	0.02076	1500.33	20.05
0	298.15	0.04991	1505	20.05
0	298.15	0.07047	1508.29	20.05
0	298.15	0.10138	1513.24	20.05
0	298.15	0.19825	1528.75	20.05
0	298.15	0.29919	1544.91	20.05
0	298.15	0.39401	1560.09	20.05
0	298.15	0.49571	1576.37	20.05
0	298.15	0.59714	1592.61	20.05
0	298.15	0.69469	1608.23	20.05
0	298.15	0.79422	1624.16	20.05
0	298.15	0.87604	1637.26	20.05
0	298.15	0.97599	1653.27	20.05
0	303.15	0	1511.84	20.05
0	303.15	0.02076	1514.96	20.05
0	303.15	0.04991	1519.33	20.05
0	303.15	0.07047	1522.42	20.05
0	303.15	0.10138	1527.06	20.05
0	303.15	0.19825	1541.6	20.05
0	303.15	0.29919	1556.75	20.05
0	303.15	0.39401	1570.98	20.05
0	303.15	0.49571	1586.25	20.05
0	303.15	0.59714	1601.47	20.05
0	303.15	0.69469	1616.11	20.05
0	303.15	0.79422	1631.05	20.05
0	303.15	0.87604	1643.33	20.05
0	303.15	0.97599	1658.34	20.05
0	308.15	0	1519.64	20.05
0	308.15	0.02076	1522.76	20.05
0	308.15	0.04991	1527.13	20.05
0	308.15	0.07047	1530.22	20.05
0	308.15	0.10138	1534.86	20.05
0	308.15	0.19825	1549.4	20.05
0	308.15	0.29919	1564.55	20.05
0	308.15	0.39401	1578.78	20.05
0	308.15	0.49571	1594.05	20.05
0	308.15	0.59714	1609.27	20.05
0	308.15	0.69469	1623.91	20.05
0	308.15	0.79422	1638.85	20.05
0	308.15	0.87604	1651.13	20.05
0	308.15	0.97599	1666.14	20.05
0.01	288.15	0	1474.31	20.05
0.01	288.15	0.02382	1478.23	20.05
0.01	288.15	0.05054	1482.85	20.05
0.01	288.15	0.07024	1485.39	20.05
0.01	288.15	0.10258	1490.36	20.05
0.01	288.15	0.19472	1506.74	20.05
0.01	288.15	0.29723	1522.49	20.05
0.01	288.15	0.40068	1539.19	20.05
0.01	288.15	0.4949	1555.41	20.05
0.01	288.15	0.60038	1571.22	20.05
0.01	288.15	0.69809	1587.22	20.05
0.01	288.15	0.79136	1604.62	20.05
0.01	288.15	0.90505	1618.97	20.05
0.01	288.15	1.00069	1635.12	20.05
0.01	293.15	0	1490.11	20.05
0.01	293.15	0.02382	1493.89	20.05
0.01	293.15	0.05054	1498.35	20.05
0.01	293.15	0.07024	1500.8	20.05
0.01	293.15	0.10258	1505.6	20.05
0.01	293.15	0.19472	1521.4	20.05
0.01	293.15	0.29723	1536.6	20.05
0.01	293.15	0.40068	1552.71	20.05
0.01	293.15	0.4949	1568.36	20.05
0.01	293.15	0.60038	1583.62	20.05
0.01	293.15	0.69809	1599.05	20.05
0.01	293.15	0.79136	1615.84	20.05
0.01	293.15	0.90505	1629.68	20.05
0.01	293.15	1.00069	1645.27	20.05
0.01	298.15	0	1504.95	20.05
0.01	298.15	0.02382	1508.59	20.05
0.01	298.15	0.05054	1512.88	20.05
0.01	298.15	0.07024	1515.24	20.05
0.01	298.15	0.10258	1519.86	20.05
0.01	298.15	0.19472	1535.06	20.05
0.01	298.15	0.29723	1549.68	20.05
0.01	298.15	0.40068	1565.19	20.05
0.01	298.15	0.4949	1580.25	20.05
0.01	298.15	0.60038	1594.93	20.05
0.01	298.15	0.69809	1609.78	20.05
0.01	298.15	0.79136	1625.94	20.05
0.01	298.15	0.90505	1639.26	20.05
0.01	298.15	1.00069	1654.25	20.05
0.01	303.15	0	1516.97	20.05
0.01	303.15	0.02382	1520.52	20.05
0.01	303.15	0.05054	1524.71	20.05
0.01	303.15	0.07024	1527	20.05
0.01	303.15	0.10258	1531.51	20.05
0.01	303.15	0.19472	1546.34	20.05
0.01	303.15	0.29723	1560.6	20.05
0.01	303.15	0.40068	1575.73	20.05
0.01	303.15	0.4949	1590.41	20.05
0.01	303.15	0.60038	1604.74	20.05
0.01	303.15	0.69809	1619.22	20.05
0.01	303.15	0.79136	1634.98	20.05
0.01	303.15	0.90505	1647.98	20.05
0.01	303.15	1.00069	1662.6	20.05
0.01	308.15	0	1525.14	20.05
0.01	308.15	0.02382	1528.65	20.05
0.01	308.15	0.05054	1532.79	20.05
0.01	308.15	0.07024	1535.06	20.05
0.01	308.15	0.10258	1539.52	20.05
0.01	308.15	0.19472	1554.19	20.05
0.01	308.15	0.29723	1568.3	20.05
0.01	308.15	0.40068	1583.26	20.05
0.01	308.15	0.4949	1597.78	20.05
0.01	308.15	0.60038	1611.95	20.05
0.01	308.15	0.69809	1626.27	20.05
0.01	308.15	0.79136	1641.87	20.05
0.01	308.15	0.90505	1654.72	20.05
0.01	308.15	1.00069	1669.18	20.05
0.03	288.15	0	1474.31	20.05
0.03	288.15	0.02416	1478.23	20.05
0.03	288.15	0.0527	1482.85	20.05
0.03	288.15	0.06834	1485.39	20.05
0.03	288.15	0.09904	1490.36	20.05
0.03	288.15	0.20005	1506.74	20.05
0.03	288.15	0.29723	1522.49	20.05
0.03	288.15	0.40026	1539.19	20.05
0.03	288.15	0.5003	1555.41	20.05
0.03	288.15	0.59786	1571.22	20.05
0.03	288.15	0.69652	1587.22	20.05
0.03	288.15	0.80391	1604.62	20.05
0.03	288.15	0.89242	1618.97	20.05
0.03	288.15	0.99204	1635.12	20.05
0.03	293.15	0	1490.11	20.05
0.03	293.15	0.02416	1493.89	20.05
0.03	293.15	0.0527	1498.35	20.05
0.03	293.15	0.06834	1500.8	20.05
0.03	293.15	0.09904	1505.6	20.05
0.03	293.15	0.20005	1521.4	20.05
0.03	293.15	0.29723	1536.6	20.05
0.03	293.15	0.40026	1552.71	20.05
0.03	293.15	0.5003	1568.36	20.05
0.03	293.15	0.59786	1583.62	20.05
0.03	293.15	0.69652	1599.05	20.05
0.03	293.15	0.80391	1615.84	20.05
0.03	293.15	0.89242	1629.68	20.05
0.03	293.15	0.99204	1645.27	20.05
0.03	298.15	0	1504.95	20.05
0.03	298.15	0.02416	1508.59	20.05
0.03	298.15	0.0527	1512.88	20.05
0.03	298.15	0.06834	1515.24	20.05
0.03	298.15	0.09904	1519.86	20.05
0.03	298.15	0.20005	1535.06	20.05
0.03	298.15	0.29723	1549.68	20.05
0.03	298.15	0.40026	1565.19	20.05
0.03	298.15	0.5003	1580.25	20.05
0.03	298.15	0.59786	1594.93	20.05
0.03	298.15	0.69652	1609.78	20.05
0.03	298.15	0.80391	1625.94	20.05
0.03	298.15	0.89242	1639.26	20.05
0.03	298.15	0.99204	1654.25	20.05
0.03	303.15	0	1516.97	20.05
0.03	303.15	0.02416	1520.52	20.05
0.03	303.15	0.0527	1524.71	20.05
0.03	303.15	0.06834	1527	20.05
0.03	303.15	0.09904	1531.51	20.05
0.03	303.15	0.20005	1546.34	20.05
0.03	303.15	0.29723	1560.6	20.05
0.03	303.15	0.40026	1575.73	20.05
0.03	303.15	0.5003	1590.41	20.05
0.03	303.15	0.59786	1604.74	20.05
0.03	303.15	0.69652	1619.22	20.05
0.03	303.15	0.80391	1634.98	20.05
0.03	303.15	0.89242	1647.98	20.05
0.03	303.15	0.99204	1662.6	20.05
0.03	308.15	0	1525.14	20.05
0.03	308.15	0.02416	1528.65	20.05
0.03	308.15	0.0527	1532.79	20.05
0.03	308.15	0.06834	1535.06	20.05
0.03	308.15	0.09904	1539.52	20.05
0.03	308.15	0.20005	1554.19	20.05
0.03	308.15	0.29723	1568.3	20.05
0.03	308.15	0.40026	1583.26	20.05
0.03	308.15	0.5003	1597.78	20.05
0.03	308.15	0.59786	1611.95	20.05
0.03	308.15	0.69652	1626.27	20.05
0.03	308.15	0.80391	1641.87	20.05
0.03	308.15	0.89242	1654.72	20.05
0.03	308.15	0.99204	1669.18	20.05

System: water + dipotassium hydrogen phosphate + 1-hexyl-3-methylimidazolium chloride; phases: Liquid
Fixed: Pressure, kPa = 101
Property: Mass density, kg/m3 (Liquid); method: Vibrating tube method
Solvent: Molality, mol/kg of 1-hexyl-3-methylimidazolium chloride	Temperature, K	Molality, mol/kg of dipotassium hydrogen phosphate	Mass density, kg/m3	uncertainty
0	288.15	0	999.11	14.001
0	288.15	0.01907	1001.677	14.001
0	288.15	0.04894	1005.697	14.001
0	288.15	0.06838	1008.314	14.001
0	288.15	0.09992	1012.559	14.001
0	288.15	0.19917	1025.918	14.001
0	288.15	0.29929	1039.394	14.001
0	288.15	0.39647	1052.475	14.001
0	288.15	0.49422	1065.632	14.002
0	288.15	0.60002	1079.873	14.002
0	288.15	0.69693	1092.917	14.002
0	288.15	0.7929	1105.834	14.002
0	288.15	0.89158	1119.117	14.002
0	288.15	0.99071	1132.46	14.002
0	293.15	0	998.211	14.001
0	293.15	0.01907	1000.761	14.001
0	293.15	0.04894	1004.754	14.001
0	293.15	0.06838	1007.353	14.001
0	293.15	0.09992	1011.57	14.001
0	293.15	0.19917	1024.84	14.001
0	293.15	0.29929	1038.226	14.001
0	293.15	0.39647	1051.219	14.001
0	293.15	0.49422	1064.288	14.001
0	293.15	0.60002	1078.434	14.002
0	293.15	0.69693	1091.391	14.002
0	293.15	0.7929	1104.222	14.002
0	293.15	0.89158	1117.415	14.002
0	293.15	0.99071	1130.669	14.002
0	298.15	0	997.047	14.001
0	298.15	0.01907	999.574	14.001
0	298.15	0.04894	1003.532	14.001
0	298.15	0.06838	1006.107	14.001
0	298.15	0.09992	1010.286	14.001
0	298.15	0.19917	1023.437	14.001
0	298.15	0.29929	1036.703	14.001
0	298.15	0.39647	1049.579	14.001
0	298.15	0.49422	1062.531	14.001
0	298.15	0.60002	1076.55	14.002
0	298.15	0.69693	1089.39	14.002
0	298.15	0.7929	1102.106	14.002
0	298.15	0.89158	1115.181	14.002
0	298.15	0.99071	1128.316	14.002
0	303.15	0	995.656	14.001
0	303.15	0.01907	998.164	14.001
0	303.15	0.04894	1002.092	14.001
0	303.15	0.06838	1004.648	14.001
0	303.15	0.09992	1008.795	14.001
0	303.15	0.19917	1021.847	14.001
0	303.15	0.29929	1035.013	14.001
0	303.15	0.39647	1047.792	14.001
0	303.15	0.49422	1060.646	14.001
0	303.15	0.60002	1074.559	14.002
0	303.15	0.69693	1087.302	14.002
0	303.15	0.7929	1099.922	14.002
0	303.15	0.89158	1112.899	14.002
0	303.15	0.99071	1125.934	14.002
0	308.15	0	994.039	14.001
0	308.15	0.01907	996.53	14
0	308.15	0.04894	1000.431	14.001
0	308.15	0.06838	1002.969	14.001
0	308.15	0.09992	1007.089	14.001
0	308.15	0.19917	1020.051	14.001
0	308.15	0.29929	1033.126	14.001
0	308.15	0.39647	1045.818	14.001
0	308.15	0.49422	1058.584	14.001
0	308.15	0.60002	1072.402	14.002
0	308.15	0.69693	1085.058	14.002
0	308.15	0.7929	1097.592	14.002
0	308.15	0.89158	1110.479	14.002
0	308.15	0.99071	1123.426	14.002
0.01	288.15	0	999.911	14.001
0.01	288.15	0.01792	1002.323	14.001
0.01	288.15	0.04941	1006.562	14.001
0.01	288.15	0.06887	1009.181	14.001
0.01	288.15	0.0976	1013.048	14.001
0.01	288.15	0.1971	1026.441	14.001
0.01	288.15	0.29522	1039.648	14.001
0.01	288.15	0.39736	1053.396	14.001
0.01	288.15	0.49574	1066.638	14.002
0.01	288.15	0.59629	1080.172	14.002
0.01	288.15	0.68123	1091.605	14.002
0.01	288.15	0.80263	1107.945	14.002
0.01	288.15	0.89736	1120.696	14.002
0.01	293.15	0	999.007	14.001
0.01	293.15	0.01792	1001.403	14.001
0.01	293.15	0.04941	1005.613	14.001
0.01	293.15	0.06887	1008.215	14.001
0.01	293.15	0.0976	1012.056	14.001
0.01	293.15	0.1971	1025.359	14.001
0.01	293.15	0.29522	1038.478	14.001
0.01	293.15	0.39736	1052.134	14.001
0.01	293.15	0.49574	1065.287	14.002
0.01	293.15	0.59629	1078.731	14.002
0.01	293.15	0.68123	1090.087	14.002
0.01	293.15	0.80263	1106.319	14.002
0.01	293.15	0.89736	1118.984	14.002
0.01	298.15	0	997.841	14.001
0.01	298.15	0.01792	1000.215	14.001
0.01	298.15	0.04941	1004.388	14.001
0.01	298.15	0.06887	1006.966	14.001
0.01	298.15	0.0976	1010.773	14.001
0.01	298.15	0.1971	1023.957	14.001
0.01	298.15	0.29522	1036.958	14.001
0.01	298.15	0.39736	1050.491	14.001
0.01	298.15	0.49574	1063.527	14.001
0.01	298.15	0.59629	1076.849	14.002
0.01	298.15	0.68123	1088.104	14.002
0.01	298.15	0.80263	1104.189	14.002
0.01	298.15	0.89736	1116.741	14.002
0.01	303.15	0	996.436	14.001
0.01	303.15	0.01792	998.792	14.001
0.01	303.15	0.04941	1002.933	14.001
0.01	303.15	0.06887	1005.492	14.001
0.01	303.15	0.0976	1009.27	14.001
0.01	303.15	0.1971	1022.355	14.001
0.01	303.15	0.29522	1035.257	14.001
0.01	303.15	0.39736	1048.689	14.001
0.01	303.15	0.49574	1061.626	14.001
0.01	303.15	0.59629	1074.848	14.002
0.01	303.15	0.68123	1086.018	14.002
0.01	303.15	0.80263	1101.982	14.002
0.01	303.15	0.89736	1114.439	14.002
0.01	308.15	0	994.818	14.001
0.01	308.15	0.01792	997.158	14.001
0.01	308.15	0.04941	1001.271	14.001
0.01	308.15	0.06887	1003.812	14.001
0.01	308.15	0.0976	1007.565	14.001
0.01	308.15	0.1971	1020.559	14.001
0.01	308.15	0.29522	1033.374	14.001
0.01	308.15	0.39736	1046.713	14.001
0.01	308.15	0.49574	1059.562	14.001
0.01	308.15	0.59629	1072.693	14.002
0.01	308.15	0.68123	1083.787	14.002
0.01	308.15	0.80263	1099.641	14.002
0.01	308.15	0.89736	1112.013	14.002
0.03	288.15	0	1000.168	14.001
0.03	288.15	0.0202	1002.887	14.001
0.03	288.15	0.05015	1006.918	14.001
0.03	288.15	0.06693	1009.177	14.001
0.03	288.15	0.10084	1013.741	14.001
0.03	288.15	0.19983	1027.065	14.001
0.03	288.15	0.29697	1040.14	14.001
0.03	288.15	0.39622	1053.499	14.001
0.03	288.15	0.49702	1067.067	14.002
0.03	288.15	0.59076	1079.684	14.002
0.03	288.15	0.69712	1094	14.002
0.03	288.15	0.7977	1107.538	14.002
0.03	288.15	0.89397	1120.496	14.002
0.03	288.15	0.98926	1133.322	14.002
0.03	293.15	0	999.246	14.001
0.03	293.15	0.0202	1001.947	14.001
0.03	293.15	0.05015	1005.951	14.001
0.03	293.15	0.06693	1008.195	14.001
0.03	293.15	0.10084	1012.728	14.001
0.03	293.15	0.19983	1025.963	14.001
0.03	293.15	0.29697	1038.951	14.001
0.03	293.15	0.39622	1052.221	14.001
0.03	293.15	0.49702	1065.698	14.002
0.03	293.15	0.59076	1078.231	14.002
0.03	293.15	0.69712	1092.451	14.002
0.03	293.15	0.7977	1105.898	14.002
0.03	293.15	0.89397	1118.77	14.002
0.03	293.15	0.98926	1131.51	14.002
0.03	298.15	0	998.052	14.001
0.03	298.15	0.0202	1000.729	14.001
0.03	298.15	0.05015	1004.697	14.001
0.03	298.15	0.06693	1006.92	14.001
0.03	298.15	0.10084	1011.413	14.001
0.03	298.15	0.19983	1024.529	14.001
0.03	298.15	0.29697	1037.401	14.001
0.03	298.15	0.39622	1050.551	14.001
0.03	298.15	0.49702	1063.907	14.001
0.03	298.15	0.59076	1076.328	14.002
0.03	298.15	0.69712	1090.42	14.002
0.03	298.15	0.7977	1103.747	14.002
0.03	298.15	0.89397	1116.503	14.002
0.03	298.15	0.98926	1129.129	14.002
0.03	303.15	0	996.623	14.001
0.03	303.15	0.0202	999.279	14.001
0.03	303.15	0.05015	1003.218	14.001
0.03	303.15	0.06693	1005.424	14.001
0.03	303.15	0.10084	1009.883	14.001
0.03	303.15	0.19983	1022.901	14.001
0.03	303.15	0.29697	1035.675	14.001
0.03	303.15	0.39622	1048.726	14.001
0.03	303.15	0.49702	1061.981	14.001
0.03	303.15	0.59076	1074.308	14.002
0.03	303.15	0.69712	1088.294	14.002
0.03	303.15	0.7977	1101.521	14.002
0.03	303.15	0.89397	1114.18	14.002
0.03	303.15	0.98926	1126.711	14.002
0.03	308.15	0	995.004	14.001
0.03	308.15	0.0202	997.642	14.001
0.03	308.15	0.05015	1001.554	14.001
0.03	308.15	0.06693	1003.745	14.001
0.03	308.15	0.10084	1008.174	14.001
0.03	308.15	0.19983	1021.102	14.001
0.03	308.15	0.29697	1033.788	14.001
0.03	308.15	0.39622	1046.75	14.001
0.03	308.15	0.49702	1059.915	14.001
0.03	308.15	0.59076	1072.157	14.002
0.03	308.15	0.69712	1086.048	14.002
0.03	308.15	0.7977	1099.184	14.002
0.03	308.15	0.89397	1111.756	14.002
0.03	308.15	0.98926	1124.201	14.002

System: water + dipotassium hydrogen phosphate + 1-hexyl-3-methylimidazolium chloride; phases: Liquid
Fixed: Pressure, kPa = 100
Fixed: Frequency, MHz = 3
Property: Speed of sound, m/s (Liquid); method: Sing-around technique in a fixed-path interferometer
Solvent: Molality, mol/kg of 1-hexyl-3-methylimidazolium chloride	Temperature, K	Molality, mol/kg of dipotassium hydrogen phosphate	Speed of sound, m/s	uncertainty
0	288.15	0	1464.22	20.03
0	288.15	0.01907	1466.9	20.03
0	288.15	0.04894	1471.11	20.03
0	288.15	0.06838	1473.84	20.03
0	288.15	0.09992	1478.28	20.03
0	288.15	0.19917	1492.24	20.03
0	288.15	0.29929	1506.33	20.03
0	288.15	0.39647	1520	20.03
0	288.15	0.49422	1533.76	20.03
0	288.15	0.60002	1548.64	20.03
0	288.15	0.69693	1562.28	20.03
0	288.15	0.7929	1575.78	20.03
0	288.15	0.89158	1589.67	20.03
0	288.15	0.99071	1603.61	20.03
0	293.15	0	1482.14	20.03
0	293.15	0.01907	1484.82	20.03
0	293.15	0.04894	1489.03	20.03
0	293.15	0.06838	1491.76	20.03
0	293.15	0.09992	1496.2	20.03
0	293.15	0.19917	1510.16	20.03
0	293.15	0.29929	1524.25	20.03
0	293.15	0.39647	1537.92	20.03
0	293.15	0.49422	1551.68	20.03
0	293.15	0.60002	1566.56	20.03
0	293.15	0.69693	1580.2	20.03
0	293.15	0.7929	1593.7	20.03
0	293.15	0.89158	1607.59	20.03
0	293.15	0.99071	1621.53	20.03
0	298.15	0	1497.01	20.03
0	298.15	0.01907	1499.69	20.03
0	298.15	0.04894	1503.9	20.03
0	298.15	0.06838	1506.63	20.03
0	298.15	0.09992	1511.07	20.03
0	298.15	0.19917	1525.03	20.03
0	298.15	0.29929	1539.12	20.03
0	298.15	0.39647	1552.79	20.03
0	298.15	0.49422	1566.55	20.03
0	298.15	0.60002	1581.43	20.03
0	298.15	0.69693	1595.07	20.03
0	298.15	0.7929	1608.57	20.03
0	298.15	0.89158	1622.46	20.03
0	298.15	0.99071	1636.4	20.03
0	303.15	0	1511.84	20.03
0	303.15	0.01907	1514.52	20.03
0	303.15	0.04894	1518.73	20.03
0	303.15	0.06838	1521.46	20.03
0	303.15	0.09992	1525.9	20.03
0	303.15	0.19917	1539.86	20.03
0	303.15	0.29929	1553.95	20.03
0	303.15	0.39647	1567.62	20.03
0	303.15	0.49422	1581.38	20.03
0	303.15	0.60002	1596.26	20.03
0	303.15	0.69693	1609.9	20.03
0	303.15	0.7929	1623.4	20.03
0	303.15	0.89158	1637.29	20.03
0	303.15	0.99071	1651.23	20.03
0	308.15	0	1519.64	20.03
0	308.15	0.01907	1522.32	20.03
0	308.15	0.04894	1526.53	20.03
0	308.15	0.06838	1529.26	20.03
0	308.15	0.09992	1533.7	20.03
0	308.15	0.19917	1547.66	20.03
0	308.15	0.29929	1561.75	20.03
0	308.15	0.39647	1575.42	20.03
0	308.15	0.49422	1589.18	20.03
0	308.15	0.60002	1604.06	20.03
0	308.15	0.69693	1617.7	20.03
0	308.15	0.7929	1631.2	20.03
0	308.15	0.89158	1645.09	20.03
0	308.15	0.99071	1659.03	20.03
0.01	288.15	0	1468.56	20.03
0.01	288.15	0.01792	1471.2	20.03
0.01	288.15	0.04941	1475.84	20.03
0.01	288.15	0.06887	1478.7	20.03
0.01	288.15	0.0976	1482.94	20.03
0.01	288.15	0.1971	1497.59	20.03
0.01	288.15	0.29522	1512.05	20.03
0.01	288.15	0.39736	1527.09	20.03
0.01	288.15	0.49574	1541.58	20.03
0.01	288.15	0.59629	1556.39	20.03
0.01	288.15	0.68123	1568.91	20.03
0.01	288.15	0.80263	1586.79	20.03
0.01	288.15	0.89736	1600.74	20.03
0.01	288.15	0.99563	1615.22	20.04
0.01	293.15	0	1484.63	20.03
0.01	293.15	0.01792	1487.27	20.03
0.01	293.15	0.04941	1491.91	20.03
0.01	293.15	0.06887	1494.77	20.03
0.01	293.15	0.0976	1499.01	20.03
0.01	293.15	0.1971	1513.66	20.03
0.01	293.15	0.29522	1528.12	20.03
0.01	293.15	0.39736	1543.16	20.03
0.01	293.15	0.49574	1557.65	20.03
0.01	293.15	0.59629	1572.46	20.03
0.01	293.15	0.68123	1584.98	20.03
0.01	293.15	0.80263	1602.86	20.03
0.01	293.15	0.89736	1616.81	20.03
0.01	293.15	0.99563	1631.29	20.03
0.01	298.15	0	1498.72	20.03
0.01	298.15	0.01792	1501.36	20.03
0.01	298.15	0.04941	1506	20.03
0.01	298.15	0.06887	1508.86	20.03
0.01	298.15	0.0976	1513.1	20.03
0.01	298.15	0.1971	1527.75	20.03
0.01	298.15	0.29522	1542.21	20.03
0.01	298.15	0.39736	1557.25	20.03
0.01	298.15	0.49574	1571.74	20.03
0.01	298.15	0.59629	1586.55	20.03
0.01	298.15	0.68123	1599.07	20.03
0.01	298.15	0.80263	1616.95	20.03
0.01	298.15	0.89736	1630.9	20.03
0.01	298.15	0.99563	1645.38	20.03
0.01	303.15	0	1510.96	20.03
0.01	303.15	0.01792	1513.6	20.03
0.01	303.15	0.04941	1518.24	20.03
0.01	303.15	0.06887	1521.1	20.03
0.01	303.15	0.0976	1525.34	20.03
0.01	303.15	0.1971	1539.99	20.03
0.01	303.15	0.29522	1554.45	20.03
0.01	303.15	0.39736	1569.49	20.03
0.01	303.15	0.49574	1583.98	20.03
0.01	303.15	0.59629	1598.79	20.03
0.01	303.15	0.68123	1611.31	20.03
0.01	303.15	0.80263	1629.19	20.03
0.01	303.15	0.89736	1643.14	20.03
0.01	303.15	0.99563	1657.62	20.03
0.01	308.15	0	1521.26	20.03
0.01	308.15	0.01792	1523.9	20.03
0.01	308.15	0.04941	1528.54	20.03
0.01	308.15	0.06887	1531.4	20.03
0.01	308.15	0.0976	1535.64	20.03
0.01	308.15	0.1971	1550.29	20.03
0.01	308.15	0.29522	1564.75	20.03
0.01	308.15	0.39736	1579.79	20.03
0.01	308.15	0.49574	1594.28	20.03
0.01	308.15	0.59629	1609.09	20.03
0.01	308.15	0.68123	1621.61	20.03
0.01	308.15	0.80263	1639.49	20.03
0.01	308.15	0.89736	1653.44	20.03
0.01	308.15	0.99563	1667.92	20.03
0.03	288.15	0	1474.31	20.03
0.03	288.15	0.0202	1477.24	20.03
0.03	288.15	0.05015	1481.59	20.03
0.03	288.15	0.06693	1484.03	20.03
0.03	288.15	0.10084	1488.95	20.03
0.03	288.15	0.19983	1503.33	20.03
0.03	288.15	0.29697	1517.43	20.03
0.03	288.15	0.39622	1531.84	20.03
0.03	288.15	0.49702	1546.48	20.03
0.03	288.15	0.59076	1560.09	20.03
0.03	288.15	0.69712	1575.53	20.03
0.03	288.15	0.7977	1590.14	20.03
0.03	288.15	0.89397	1604.11	20.03
0.03	288.15	0.98926	1617.95	20.03
0.03	293.15	0	1490.11	20.03
0.03	293.15	0.0202	1493.04	20.03
0.03	293.15	0.05015	1497.39	20.03
0.03	293.15	0.06693	1499.83	20.03
0.03	293.15	0.10084	1504.75	20.03
0.03	293.15	0.19983	1519.13	20.03
0.03	293.15	0.29697	1533.23	20.03
0.03	293.15	0.39622	1547.64	20.03
0.03	293.15	0.49702	1562.28	20.03
0.03	293.15	0.59076	1575.89	20.03
0.03	293.15	0.69712	1591.33	20.03
0.03	293.15	0.7977	1605.94	20.03
0.03	293.15	0.89397	1619.91	20.03
0.03	293.15	0.98926	1633.75	20.03
0.03	298.15	0	1504.95	20.03
0.03	298.15	0.0202	1507.88	20.03
0.03	298.15	0.05015	1512.23	20.03
0.03	298.15	0.06693	1514.67	20.03
0.03	298.15	0.10084	1519.59	20.03
0.03	298.15	0.19983	1533.97	20.03
0.03	298.15	0.29697	1548.07	20.03
0.03	298.15	0.39622	1562.48	20.03
0.03	298.15	0.49702	1577.12	20.03
0.03	298.15	0.59076	1590.73	20.03
0.03	298.15	0.69712	1606.17	20.03
0.03	298.15	0.7977	1620.78	20.03
0.03	298.15	0.89397	1634.75	20.03
0.03	298.15	0.98926	1648.59	20.03
0.03	303.15	0	1516.97	20.03
0.03	303.15	0.0202	1519.9	20.03
0.03	303.15	0.05015	1524.25	20.03
0.03	303.15	0.06693	1526.69	20.03
0.03	303.15	0.10084	1531.61	20.03
0.03	303.15	0.19983	1545.99	20.03
0.03	303.15	0.29697	1560.09	20.03
0.03	303.15	0.39622	1574.5	20.03
0.03	303.15	0.49702	1589.14	20.03
0.03	303.15	0.59076	1602.75	20.03
0.03	303.15	0.69712	1618.19	20.03
0.03	303.15	0.7977	1632.8	20.03
0.03	303.15	0.89397	1646.77	20.03
0.03	303.15	0.98926	1660.61	20.03
0.03	308.15	0	1525.14	20.03
0.03	308.15	0.0202	1528.07	20.03
0.03	308.15	0.05015	1532.42	20.03
0.03	308.15	0.06693	1534.86	20.03
0.03	308.15	0.10084	1539.78	20.03
0.03	308.15	0.19983	1554.16	20.03
0.03	308.15	0.29697	1568.26	20.03
0.03	308.15	0.39622	1582.67	20.03
0.03	308.15	0.49702	1597.31	20.03
0.03	308.15	0.59076	1610.92	20.03
0.03	308.15	0.69712	1626.36	20.03
0.03	308.15	0.7977	1640.97	20.03
0.03	308.15	0.89397	1654.94	20.03
0.03	308.15	0.98926	1668.78	20.03

System: disodium hydrogen phosphate + water; phases: Liquid
Fixed: Pressure, kPa = 101
Property: Mass density, kg/m3 (Liquid); method: Vibrating tube method
Temperature, K	Molality, mol/kg of disodium hydrogen phosphate	Mass density, kg/m3	uncertainty
288.15	0.02076	1001.705	14
288.15	0.04991	1005.349	14
288.15	0.07047	1007.919	14
288.15	0.10138	1011.783	14
288.15	0.19825	1023.891	14
288.15	0.29919	1036.509	14
288.15	0.39401	1048.361	14
288.15	0.49571	1061.074	14
288.15	0.59714	1073.753	14
288.15	0.69469	1085.946	14
288.15	0.79422	1098.388	14
288.15	0.87604	1108.615	14
288.15	0.97599	1121.109	14
293.15	0.02076	1000.781	14
293.15	0.04991	1004.39	14
293.15	0.07047	1006.935	14
293.15	0.10138	1010.762	14
293.15	0.19825	1022.754	14
293.15	0.29919	1035.251	14
293.15	0.39401	1046.989	14
293.15	0.49571	1059.58	14
293.15	0.59714	1072.137	14
293.15	0.69469	1084.214	14
293.15	0.79422	1096.535	14
293.15	0.87604	1106.665	14
293.15	0.97599	1119.039	14
298.15	0.02076	999.59	14
298.15	0.04991	1003.161	14
298.15	0.07047	1005.68	14
298.15	0.10138	1009.466	14
298.15	0.19825	1021.333	14
298.15	0.29919	1033.698	14
298.15	0.39401	1045.313	14
298.15	0.49571	1057.771	14
298.15	0.59714	1070.197	14
298.15	0.69469	1082.147	14
298.15	0.79422	1094.339	14
298.15	0.87604	1104.362	14
298.15	0.97599	1116.606	14
303.15	0.02076	998.178	14
303.15	0.04991	1001.72	14
303.15	0.07047	1004.218	14
303.15	0.10138	1007.974	14
303.15	0.19825	1019.743	14
303.15	0.29919	1032.008	14
303.15	0.39401	1043.528	14
303.15	0.49571	1055.885	14
303.15	0.59714	1068.209	14
303.15	0.69469	1080.061	14
303.15	0.79422	1092.154	14
303.15	0.87604	1102.095	14
303.15	0.97599	1114.239	14
308.15	0.02076	996.536	14
308.15	0.04991	1000.043	14
308.15	0.07047	1002.517	14
308.15	0.10138	1006.235	14
308.15	0.19825	1017.888	14
308.15	0.29919	1030.032	14
308.15	0.39401	1041.438	14
308.15	0.49571	1053.673	14
308.15	0.59714	1065.875	14
308.15	0.69469	1077.61	14
308.15	0.79422	1089.584	14
308.15	0.87604	1099.427	14
308.15	0.97599	1111.451	14

System: disodium hydrogen phosphate + water; phases: Liquid
Fixed: Pressure, kPa = 100
Fixed: Frequency, MHz = 3
Property: Speed of sound, m/s (Liquid); method: Sing-around technique in a fixed-path interferometer
Temperature, K	Molality, mol/kg of disodium hydrogen phosphate	Speed of sound, m/s	uncertainty
288.15	0.02076	1467.75	20.01
288.15	0.04991	1472.71	20.01
288.15	0.07047	1476.21	20.01
288.15	0.10138	1481.46	20.01
288.15	0.19825	1497.94	20.01
288.15	0.29919	1515.11	20.02
288.15	0.39401	1531.24	20.02
288.15	0.49571	1548.54	20.02
288.15	0.59714	1565.79	20.02
288.15	0.69469	1582.39	20.02
288.15	0.79422	1599.32	20.02
288.15	0.87604	1613.23	20.02
288.15	0.97599	1630.24	20.02
293.15	0.02076	1485.57	20.01
293.15	0.04991	1490.38	20.01
293.15	0.07047	1493.77	20.01
293.15	0.10138	1498.88	20.01
293.15	0.19825	1514.87	20.01
293.15	0.29919	1531.54	20.01
293.15	0.39401	1547.19	20.02
293.15	0.49571	1563.98	20.02
293.15	0.59714	1580.73	20.02
293.15	0.69469	1596.83	20.02
293.15	0.79422	1613.27	20.02
293.15	0.87604	1626.77	20.02
293.15	0.97599	1643.28	20.02
298.15	0.02076	1500.33	20.01
298.15	0.04991	1505	20.01
298.15	0.07047	1508.29	20.01
298.15	0.10138	1513.24	20.01
298.15	0.19825	1528.75	20.01
298.15	0.29919	1544.91	20.01
298.15	0.39401	1560.09	20.01
298.15	0.49571	1576.37	20.01
298.15	0.59714	1592.61	20.02
298.15	0.69469	1608.23	20.02
298.15	0.79422	1624.16	20.02
298.15	0.87604	1637.26	20.02
298.15	0.97599	1653.27	20.02
303.15	0.02076	1514.96	20.01
303.15	0.04991	1519.33	20.01
303.15	0.07047	1522.42	20.01
303.15	0.10138	1527.06	20.01
303.15	0.19825	1541.6	20.01
303.15	0.29919	1556.75	20.01
303.15	0.39401	1570.98	20.01
303.15	0.49571	1586.25	20.01
303.15	0.59714	1601.47	20.02
303.15	0.69469	1616.11	20.02
303.15	0.79422	1631.05	20.02
303.15	0.87604	1643.33	20.02
303.15	0.97599	1658.34	20.02
308.15	0.02076	1522.76	20.01
308.15	0.04991	1527.13	20.01
308.15	0.07047	1530.22	20.01
308.15	0.10138	1534.86	20.01
308.15	0.19825	1549.4	20.01
308.15	0.29919	1564.55	20.01
308.15	0.39401	1578.78	20.01
308.15	0.49571	1594.05	20.01
308.15	0.59714	1609.27	20.02
308.15	0.69469	1623.91	20.02
308.15	0.79422	1638.85	20.02
308.15	0.87604	1651.13	20.02
308.15	0.97599	1666.14	20.02

System: water + 1-hexyl-3-methylimidazolium chloride; phases: Liquid
Fixed: Pressure, kPa = 101
Property: Mass density, kg/m3 (Liquid); method: Vibrating tube method
Molality, mol/kg of 1-hexyl-3-methylimidazolium chloride	Temperature, K	Mass density, kg/m3	uncertainty
0.01	288.15	999.911	14
0.03	288.15	1000.168	14
0.01	293.15	999.007	14
0.03	293.15	999.246	14
0.01	298.15	997.841	14
0.03	298.15	998.052	14
0.01	303.15	996.436	14
0.03	303.15	996.623	14
0.01	308.15	994.818	14
0.03	308.15	995.004	14

System: water + 1-hexyl-3-methylimidazolium chloride; phases: Liquid
Fixed: Pressure, kPa = 100
Fixed: Frequency, MHz = 3
Property: Speed of sound, m/s (Liquid); method: Sing-around technique in a fixed-path interferometer
Molality, mol/kg of 1-hexyl-3-methylimidazolium chloride	Temperature, K	Speed of sound, m/s	uncertainty
0.01	288.15	1474.31	20.01
0.01	293.15	1490.11	20.01
0.01	298.15	1504.95	20.01
0.01	303.15	1516.97	20.01
0.01	308.15	1525.14	20.01
0.03	288.15	1474.31	20.01
0.03	293.15	1490.11	20.01
0.03	298.15	1504.95	20.01
0.03	303.15	1516.97	20.01
0.03	308.15	1525.14	20.01
0.01	288.15	1468.56	20.02
0.01	293.15	1484.63	20.01
0.01	298.15	1498.72	20.01
0.01	303.15	1510.96	20.01
0.01	308.15	1521.26	20.01

System: water + dipotassium hydrogen phosphate; phases: Liquid
Fixed: Pressure, kPa = 101
Property: Mass density, kg/m3 (Liquid); method: Vibrating tube method
Temperature, K	Molality, mol/kg of dipotassium hydrogen phosphate	Mass density, kg/m3	uncertainty
288.15	0.01907	1001.677	14
288.15	0.04894	1005.697	14
288.15	0.06838	1008.314	14
288.15	0.09992	1012.559	14
288.15	0.19917	1025.918	14
288.15	0.29929	1039.394	14
288.15	0.39647	1052.475	14
288.15	0.49422	1065.632	14
288.15	0.60002	1079.873	14
288.15	0.69693	1092.917	14
288.15	0.7929	1105.834	14
288.15	0.89158	1119.117	14
288.15	0.99071	1132.46	14
293.15	0.01907	1000.761	14
293.15	0.04894	1004.754	14
293.15	0.06838	1007.353	14
293.15	0.09992	1011.57	14
293.15	0.19917	1024.84	14
293.15	0.29929	1038.226	14
293.15	0.39647	1051.219	14
293.15	0.49422	1064.288	14
293.15	0.60002	1078.434	14
293.15	0.69693	1091.391	14
293.15	0.7929	1104.222	14
293.15	0.89158	1117.415	14
293.15	0.99071	1130.669	14
298.15	0.01907	999.574	14
298.15	0.04894	1003.532	14
298.15	0.06838	1006.107	14
298.15	0.09992	1010.286	14
298.15	0.19917	1023.437	14
298.15	0.29929	1036.703	14
298.15	0.39647	1049.579	14
298.15	0.49422	1062.531	14
298.15	0.60002	1076.55	14
298.15	0.69693	1089.39	14
298.15	0.7929	1102.106	14
298.15	0.89158	1115.181	14
298.15	0.99071	1128.316	14
303.15	0.01907	998.164	14
303.15	0.04894	1002.092	14
303.15	0.06838	1004.648	14
303.15	0.09992	1008.795	14
303.15	0.19917	1021.847	14
303.15	0.29929	1035.013	14
303.15	0.39647	1047.792	14
303.15	0.49422	1060.646	14
303.15	0.60002	1074.559	14
303.15	0.69693	1087.302	14
303.15	0.7929	1099.922	14
303.15	0.89158	1112.899	14
303.15	0.99071	1125.934	14
308.15	0.01907	996.53	14
308.15	0.04894	1000.431	14
308.15	0.06838	1002.969	14
308.15	0.09992	1007.089	14
308.15	0.19917	1020.051	14
308.15	0.29929	1033.126	14
308.15	0.39647	1045.818	14
308.15	0.49422	1058.584	14
308.15	0.60002	1072.402	14
308.15	0.69693	1085.058	14
308.15	0.7929	1097.592	14
308.15	0.89158	1110.479	14
308.15	0.99071	1123.426	14

System: water + dipotassium hydrogen phosphate; phases: Liquid
Fixed: Pressure, kPa = 100
Property: Speed of sound, m/s (Liquid); method: Sing-around technique in a fixed-path interferometer
Temperature, K	Molality, mol/kg of dipotassium hydrogen phosphate	Speed of sound, m/s	uncertainty
288.15	0.01907	1466.9	20.01
288.15	0.04894	1471.11	20.01
288.15	0.06838	1473.84	20.01
288.15	0.09992	1478.28	20.01
288.15	0.19917	1492.24	20.02
288.15	0.29929	1506.33	20.02
288.15	0.39647	1520	20.02
288.15	0.49422	1533.76	20.02
288.15	0.60002	1548.64	20.02
288.15	0.69693	1562.28	20.02
288.15	0.7929	1575.78	20.02
288.15	0.89158	1589.67	20.02
288.15	0.99071	1603.61	20.02
293.15	0.01907	1484.82	20.01
293.15	0.04894	1489.03	20.01
293.15	0.06838	1491.76	20.01
293.15	0.09992	1496.2	20.01
293.15	0.19917	1510.16	20.01
293.15	0.29929	1524.25	20.02
293.15	0.39647	1537.92	20.02
293.15	0.49422	1551.68	20.02
293.15	0.60002	1566.56	20.02
293.15	0.69693	1580.2	20.02
293.15	0.7929	1593.7	20.02
293.15	0.89158	1607.59	20.02
293.15	0.99071	1621.53	20.02
298.15	0.01907	1499.69	20.01
298.15	0.04894	1503.9	20.01
298.15	0.06838	1506.63	20.01
298.15	0.09992	1511.07	20.01
298.15	0.19917	1525.03	20.01
298.15	0.29929	1539.12	20.01
298.15	0.39647	1552.79	20.01
298.15	0.49422	1566.55	20.02
298.15	0.60002	1581.43	20.02
298.15	0.69693	1595.07	20.02
298.15	0.7929	1608.57	20.02
298.15	0.89158	1622.46	20.02
298.15	0.99071	1636.4	20.02
303.15	0.01907	1514.52	20.01
303.15	0.04894	1518.73	20.01
303.15	0.06838	1521.46	20.01
303.15	0.09992	1525.9	20.01
303.15	0.19917	1539.86	20.01
303.15	0.29929	1553.95	20.01
303.15	0.39647	1567.62	20.01
303.15	0.49422	1581.38	20.01
303.15	0.60002	1596.26	20.01
303.15	0.69693	1609.9	20.02
303.15	0.7929	1623.4	20.02
303.15	0.89158	1637.29	20.02
303.15	0.99071	1651.23	20.02
308.15	0.01907	1522.32	20.01
308.15	0.04894	1526.53	20.01
308.15	0.06838	1529.26	20.01
308.15	0.09992	1533.7	20.01
308.15	0.19917	1547.66	20.01
308.15	0.29929	1561.75	20.01
308.15	0.39647	1575.42	20.01
308.15	0.49422	1589.18	20.01
308.15	0.60002	1604.06	20.01
308.15	0.69693	1617.7	20.01
308.15	0.7929	1631.2	20.01
308.15	0.89158	1645.09	20.02
308.15	0.99071	1659.03	20.02
