Measured thermophysical data. Isobaric Vapor Liquid Equilibrium for Nine Binary Systems of Cracking C5 Fraction at 250 kPa
Source: J. Chem. Eng. Data, 2016, 10.1021/acs.jced.6b00180
Compound 1: pentane, C5H12, InChI=1S/C5H12/c1-3-5-4-2/h3-5H2,1-2H3, purity 99.23%
Compound 2: 2-methylbutane, C5H12, InChI=1S/C5H12/c1-4-5(2)3/h5H,4H2,1-3H3, purity 99.45%
Compound 3: cyclopentane, C5H10, InChI=1S/C5H10/c1-2-4-5-3-1/h1-5H2, purity 99.53%
Compound 4: 2-methyl-2-butene, C5H10, InChI=1S/C5H10/c1-4-5(2)3/h4H,1-3H3, purity 99.65%
Compound 5: cyclopentene, C5H8, InChI=1S/C5H8/c1-2-4-5-3-1/h1-2H,3-5H2, purity 99.42%
Compound 6: 2-methyl-1,3-butadiene, C5H8, InChI=1S/C5H8/c1-4-5(2)3/h4H,1-2H2,3H3, purity 99.31%
Compound 7: ethanol, C2H6O, InChI=1S/C2H6O/c1-2-3/h3H,2H2,1H3, purity 99.76%
Compound 8: methanol, CH4O, InChI=1S/CH4O/c1-2/h2H,1H3, purity 99.83%
Compound 9: hexane, C6H14, InChI=1S/C6H14/c1-3-5-6-4-2/h3-6H2,1-2H3, purity 99.78%
Compound 10: acetone, C3H6O, InChI=1S/C3H6O/c1-3(2)4/h1-2H3, purity 99.66%

System: pentane; phases: Liquid
Property: Refractive index (Na D-line) (Liquid); method: Standard Abbe refractometry
Temperature, K	Pressure, kPa	Refractive index (Na D-line)	uncertainty
293.15	101.325	1.3578	0.0005

System: pentane; phases: Liquid, Gas
Property: Vapor or sublimation pressure, kPa (Liquid); method: Ebulliometric method (Recirculating still)
Temperature, K	Vapor or sublimation pressure, kPa	uncertainty
338.35	250	13

System: 2-methylbutane; phases: Liquid
Property: Refractive index (Na D-line) (Liquid); method: Standard Abbe refractometry
Temperature, K	Pressure, kPa	Refractive index (Na D-line)	uncertainty
293.15	101.325	1.3535	0.0005

System: 2-methylbutane; phases: Liquid, Gas
Property: Vapor or sublimation pressure, kPa (Liquid); method: Ebulliometric method (Recirculating still)
Temperature, K	Vapor or sublimation pressure, kPa	uncertainty
330.05	250	13

System: cyclopentane; phases: Liquid
Property: Refractive index (Na D-line) (Liquid); method: Standard Abbe refractometry
Temperature, K	Pressure, kPa	Refractive index (Na D-line)	uncertainty
293.15	101.325	1.4064	0.0005

System: cyclopentane; phases: Liquid, Gas
Property: Vapor or sublimation pressure, kPa (Liquid); method: Ebulliometric method (Recirculating still)
Temperature, K	Vapor or sublimation pressure, kPa	uncertainty
352.85	250	13

System: 2-methyl-2-butene; phases: Liquid
Property: Refractive index (Na D-line) (Liquid); method: Standard Abbe refractometry
Temperature, K	Pressure, kPa	Refractive index (Na D-line)	uncertainty
293.15	101.325	1.3876	0.0005

System: 2-methyl-2-butene; phases: Liquid, Gas
Property: Vapor or sublimation pressure, kPa (Liquid); method: Ebulliometric method (Recirculating still)
Temperature, K	Vapor or sublimation pressure, kPa	uncertainty
341.15	250	13

System: cyclopentene; phases: Liquid
Property: Refractive index (Na D-line) (Liquid); method: Standard Abbe refractometry
Temperature, K	Pressure, kPa	Refractive index (Na D-line)	uncertainty
293.15	101.325	1.4224	0.0005

System: cyclopentene; phases: Liquid, Gas
Property: Vapor or sublimation pressure, kPa (Liquid); method: Ebulliometric method (Recirculating still)
Temperature, K	Vapor or sublimation pressure, kPa	uncertainty
347.35	250	13

System: 2-methyl-1,3-butadiene; phases: Liquid
Property: Refractive index (Na D-line) (Liquid); method: Standard Abbe refractometry
Temperature, K	Pressure, kPa	Refractive index (Na D-line)	uncertainty
293.15	101.325	1.4218	0.0005

System: 2-methyl-1,3-butadiene; phases: Liquid, Gas
Property: Vapor or sublimation pressure, kPa (Liquid); method: Ebulliometric method (Recirculating still)
Temperature, K	Vapor or sublimation pressure, kPa	uncertainty
336.35	250	13

System: ethanol; phases: Liquid
Property: Refractive index (Na D-line) (Liquid); method: Standard Abbe refractometry
Temperature, K	Pressure, kPa	Refractive index (Na D-line)	uncertainty
293.15	101.325	1.3613	0.0005

System: ethanol; phases: Liquid, Gas
Property: Boiling temperature at pressure P, K (Liquid); method: Ebulliometric method (Recirculating still)
Pressure, kPa	Boiling temperature at pressure P, K	uncertainty
101.33	351.5	1

System: ethanol; phases: Liquid, Gas
Property: Vapor or sublimation pressure, kPa (Liquid); method: Ebulliometric method (Recirculating still)
Temperature, K	Vapor or sublimation pressure, kPa	uncertainty
351.55	101.3	5.1

System: methanol; phases: Liquid
Property: Refractive index (Na D-line) (Liquid); method: Standard Abbe refractometry
Temperature, K	Pressure, kPa	Refractive index (Na D-line)	uncertainty
293.15	101.325	1.3286	0.0005

System: methanol; phases: Liquid, Gas
Property: Boiling temperature at pressure P, K (Liquid); method: Ebulliometric method (Recirculating still)
Pressure, kPa	Boiling temperature at pressure P, K	uncertainty
101.33	337.8	1

System: hexane; phases: Liquid
Property: Refractive index (Na D-line) (Liquid); method: Standard Abbe refractometry
Temperature, K	Pressure, kPa	Refractive index (Na D-line)	uncertainty
293.15	101.325	1.3748	0.0005

System: hexane; phases: Liquid, Gas
Property: Boiling temperature at pressure P, K (Liquid); method: Ebulliometric method (Recirculating still)
Pressure, kPa	Boiling temperature at pressure P, K	uncertainty
101.33	341.9	1

System: acetone; phases: Liquid
Property: Refractive index (Na D-line) (Liquid); method: Standard Abbe refractometry
Temperature, K	Pressure, kPa	Refractive index (Na D-line)	uncertainty
293.15	101.325	1.3586	0.0005

System: acetone; phases: Liquid, Gas
Property: Boiling temperature at pressure P, K (Liquid); method: Ebulliometric method (Recirculating still)
Pressure, kPa	Boiling temperature at pressure P, K	uncertainty
101.33	329.3	1

System: acetone; phases: Liquid, Gas
Property: Vapor or sublimation pressure, kPa (Liquid); method: Ebulliometric method (Recirculating still)
Temperature, K	Vapor or sublimation pressure, kPa	uncertainty
329.35	101.3	5.1

System: ethanol + acetone; phases: Liquid, Gas
Fixed: Pressure, kPa = 101.3
Property: Boiling temperature at pressure P, K (Liquid); method: Ebulliometric method (Recirculating still)
Mole fraction of acetone	Boiling temperature at pressure P, K	uncertainty
0	351.55	1
0.0714	348.2	1.01
0.148	345.35	1.01
0.2107	343.25	1.01
0.3242	339.9	1.01
0.3928	338.35	1
0.5016	336.05	1
0.6343	333.8	1
0.7779	331.8	1
0.8977	330.3	1
1	329.35	1

System: ethanol + acetone; phases: Gas, Liquid
Property: Mole fraction of acetone (Gas); method: Chromatography
Mole fraction of acetone	Temperature, K	Mole fraction of acetone	uncertainty
0	351.55	0	
0.0714	348.2	0.2086	0.1164
0.148	345.35	0.3438	0.1001
0.2107	343.25	0.4312	0.0866
0.3242	339.9	0.5504	0.0251
0.3928	338.35	0.6107	0.0044
0.5016	336.05	0.6872	0.0194
0.6343	333.8	0.7699	0.0061
0.7779	331.8	0.8571	0.0032
0.8977	330.3	0.9346	0.0025
1	329.35	1	

System: pentane + cyclopentane; phases: Liquid, Gas
Fixed: Pressure, kPa = 250
Property: Boiling temperature at pressure P, K (Liquid); method: Ebulliometric method (Recirculating still)
Mole fraction of pentane	Boiling temperature at pressure P, K	uncertainty
0	352.85	1
0.1294	350.25	1
0.2332	348.35	1
0.3577	346.35	1
0.4925	344.45	1
0.6012	342.95	1
0.685	341.85	1
0.775	340.75	1
0.9043	339.3	1
1	338.35	1

System: pentane + cyclopentane; phases: Gas, Liquid
Property: Mole fraction of pentane (Gas); method: Chromatography
Temperature, K	Mole fraction of pentane	Mole fraction of pentane	uncertainty
352.85	0	0	
350.25	0.1294	0.1866	0.0905
348.35	0.2332	0.3195	0.0668
346.35	0.3577	0.4603	0.0832
344.45	0.4925	0.5907	0.0642
342.95	0.6012	0.6867	0.0648
341.85	0.685	0.7578	0.0292
340.75	0.775	0.8318	0.0673
339.3	0.9043	0.9313	0.0431
338.35	1	1	

System: pentane + cyclopentene; phases: Liquid, Gas
Fixed: Pressure, kPa = 250
Property: Boiling temperature at pressure P, K (Liquid); method: Ebulliometric method (Recirculating still)
Mole fraction of pentane	Boiling temperature at pressure P, K	uncertainty
0	347.35	1
0.0554	346.6	1
0.2027	344.8	1
0.3018	343.75	1
0.3848	342.9	1
0.4559	342.25	1
0.5397	341.5	1
0.6394	340.7	1
0.7186	340.1	1
0.7946	339.55	1
0.8928	338.9	1
1	338.35	1

System: pentane + cyclopentene; phases: Gas, Liquid
Property: Mole fraction of pentane (Gas); method: Chromatography
Mole fraction of pentane	Temperature, K	Mole fraction of pentane	uncertainty
0	347.35	0	
0.0554	346.6	0.074	0.074
0.2027	344.8	0.2553	0.0806
0.3018	343.75	0.3643	0.0044
0.3848	342.9	0.4492	0.0302
0.4559	342.25	0.5196	0.0055
0.5397	341.5	0.5976	0.017
0.6394	340.7	0.6889	0.0741
0.7186	340.1	0.7588	0.0355
0.7946	339.55	0.8257	0.0321
0.8928	338.9	0.9097	0.0029
1	338.35	1	

System: 2-methylbutane + 2-methyl-2-butene; phases: Liquid, Gas
Fixed: Pressure, kPa = 250
Property: Boiling temperature at pressure P, K (Liquid); method: Ebulliometric method (Recirculating still)
Mole fraction of 2-methylbutane	Boiling temperature at pressure P, K	uncertainty
0	341.15	1
0.0633	340.25	1
0.1296	339.35	1
0.1952	338.5	1
0.313	337.1	1
0.4056	336	1
0.5075	334.9	1
0.5871	334	1
0.6353	333.5	1
0.7336	332.5	1
0.7979	331.9	1
0.8994	330.95	1
1	330.05	1

System: 2-methylbutane + 2-methyl-2-butene; phases: Gas, Liquid
Property: Mole fraction of 2-methylbutane (Gas); method: Chromatography
Mole fraction of 2-methylbutane	Temperature, K	Mole fraction of 2-methylbutane	uncertainty
0	341.15	0	
0.0633	340.25	0.086	0.086
0.1296	339.35	0.1717	0.111
0.1952	338.5	0.252	0.0038
0.313	337.1	0.3861	0.0045
0.4056	336	0.4827	0.0636
0.5075	334.9	0.582	0.0048
0.5871	334	0.6567	0.0277
0.6353	333.5	0.7007	0.0277
0.7336	332.5	0.7869	0.0423
0.7979	331.9	0.841	0.0031
0.8994	330.95	0.9229	0.0771
1	330.05	1	

System: 2-methylbutane + cyclopentene; phases: Liquid, Gas
Fixed: Pressure, kPa = 250
Property: Boiling temperature at pressure P, K (Liquid); method: Ebulliometric method (Recirculating still)
Mole fraction of 2-methylbutane	Boiling temperature at pressure P, K	uncertainty
0	347.35	1
0.068	345.45	1
0.1346	343.75	1
0.2457	341.25	1
0.3119	339.9	1
0.4164	338.05	1
0.5234	336.35	1
0.6277	334.75	1
0.715	333.45	1
0.7998	332.35	1
1	330.05	1

System: 2-methylbutane + cyclopentene; phases: Gas, Liquid
Property: Mole fraction of 2-methylbutane (Gas); method: Chromatography
Mole fraction of 2-methylbutane	Temperature, K	Mole fraction of 2-methylbutane	uncertainty
0	347.35	0	
0.068	345.45	0.1131	0.0626
0.1346	343.75	0.2138	0.0628
0.2457	341.25	0.3607	0.0045
0.3119	339.9	0.4379	0.0595
0.4164	338.05	0.5431	0.0821
0.5234	336.35	0.6349	0.0542
0.6277	334.75	0.7213	0.0038
0.715	333.45	0.7908	0.0104
0.7998	332.35	0.8567	0.0103
1	330.05	1	

System: cyclopentane + 2-methyl-2-butene; phases: Liquid, Gas
Fixed: Pressure, kPa = 250
Property: Boiling temperature at pressure P, K (Liquid); method: Ebulliometric method (Recirculating still)
Mole fraction of cyclopentane	Boiling temperature at pressure P, K	uncertainty
0	341.15	1
0.1377	342.25	1
0.1921	342.7	1
0.3121	343.7	1
0.4013	344.65	1
0.5085	345.75	1
0.6	346.75	1
0.7085	348.05	1
0.8045	349.5	1
0.8735	350.65	1
1	352.85	1

System: cyclopentane + 2-methyl-2-butene; phases: Gas, Liquid
Property: Mole fraction of cyclopentane (Gas); method: Chromatography
Mole fraction of cyclopentane	Temperature, K	Mole fraction of cyclopentane	uncertainty
0	341.15	0	
0.1377	342.25	0.1098	0.0265
0.1921	342.7	0.1549	0.0278
0.3121	343.7	0.257	0.0103
0.4013	344.65	0.3349	0.0039
0.5085	345.75	0.4292	0.0203
0.6	346.75	0.5109	0.1439
0.7085	348.05	0.6242	0.0414
0.8045	349.5	0.7368	0.061
0.8735	350.65	0.8243	0.0037
1	352.85	1	

System: cyclopentene + cyclopentane; phases: Liquid, Gas
Fixed: Pressure, kPa = 250
Property: Boiling temperature at pressure P, K (Liquid); method: Ebulliometric method (Recirculating still)
Mole fraction of cyclopentane	Boiling temperature at pressure P, K	uncertainty
0	347.35	1
0.1895	348.05	1
0.2993	348.45	1
0.3689	348.75	1
0.4512	349.15	1
0.5273	349.55	1
0.6392	350.15	1
0.7298	350.7	1
0.8258	351.35	1
0.9061	352	1
1	352.85	1

System: cyclopentene + cyclopentane; phases: Gas, Liquid
Property: Mole fraction of cyclopentane (Gas); method: Chromatography
Mole fraction of cyclopentane	Temperature, K	Mole fraction of cyclopentane	uncertainty
0	347.35	0	
0.1895	348.05	0.1725	0.1725
0.2993	348.45	0.2752	0.0554
0.3689	348.75	0.341	0.0435
0.4512	349.15	0.4195	0.049
0.5273	349.55	0.4926	0.0701
0.6392	350.15	0.6018	0.0623
0.7298	350.7	0.6931	0.0962
0.8258	351.35	0.7963	0.0514
0.9061	352	0.8877	0.0603
1	352.85	1	

System: 2-methyl-1,3-butadiene + cyclopentane; phases: Liquid, Gas
Fixed: Pressure, kPa = 250
Property: Boiling temperature at pressure P, K (Liquid); method: Ebulliometric method (Recirculating still)
Mole fraction of cyclopentane	Boiling temperature at pressure P, K	uncertainty
0	336.35	1
0.1117	337.65	1
0.1788	338.45	1
0.2656	339.55	1
0.3511	340.65	1
0.4612	342.15	1
0.5749	343.85	1
0.6645	345.35	1
0.73	346.6	1
0.8239	348.55	1
0.93	351.05	1
1	352.85	1

System: 2-methyl-1,3-butadiene + cyclopentane; phases: Gas, Liquid
Property: Mole fraction of cyclopentane (Gas); method: Chromatography
Mole fraction of cyclopentane	Temperature, K	Mole fraction of cyclopentane	uncertainty
0	336.35	0	
0.1117	337.65	0.0782	0.0494
0.1788	338.45	0.1279	0.0494
0.2656	339.55	0.1946	0.1457
0.3511	340.65	0.2627	0.0373
0.4612	342.15	0.3535	0.0494
0.5749	343.85	0.4547	0.0734
0.6645	345.35	0.5462	0.0479
0.73	346.6	0.6204	0.0048
0.8239	348.55	0.7383	0.0594
0.93	351.05	0.8891	0.0758
1	352.85	1	

System: 2-methyl-1,3-butadiene + 2-methyl-2-butene; phases: Liquid, Gas
Fixed: Pressure, kPa = 250
Property: Boiling temperature at pressure P, K (Liquid); method: Ebulliometric method (Recirculating still)
Mole fraction of 2-methyl-1,3-butadiene	Boiling temperature at pressure P, K	uncertainty
0	341.15	1
0.1014	340.3	1
0.1995	339.6	1
0.2798	339.1	1
0.3962	338.45	1
0.4973	337.95	1
0.5897	337.55	1
0.6927	337.15	1
0.7709	336.9	1
0.8469	336.7	1
1	336.35	1

System: 2-methyl-1,3-butadiene + 2-methyl-2-butene; phases: Gas, Liquid
Property: Mole fraction of 2-methyl-1,3-butadiene (Gas); method: Chromatography
Mole fraction of 2-methyl-1,3-butadiene	Temperature, K	Mole fraction of 2-methyl-1,3-butadiene	uncertainty
0	341.15	0	
0.1014	340.3	0.1205	0.0032
0.1995	339.6	0.2305	0.0035
0.2798	339.1	0.3157	0.004
0.3962	338.45	0.4326	0.0048
0.4973	337.95	0.5294	0.0051
0.5897	337.55	0.6161	0.0046
0.6927	337.15	0.7125	0.004
0.7709	336.9	0.7856	0.0036
0.8469	336.7	0.8566	0.0032
1	336.35	1	

System: 2-methyl-1,3-butadiene + cyclopentene; phases: Liquid, Gas
Fixed: Pressure, kPa = 250
Property: Boiling temperature at pressure P, K (Liquid); method: Ebulliometric method (Recirculating still)
Mole fraction of 2-methyl-1,3-butadiene	Boiling temperature at pressure P, K	uncertainty
0	347.35	1
0.0818	346.05	1
0.13	345.35	1
0.2246	344	1
0.2909	343.15	1
0.388	342	1
0.4916	340.9	1
0.5941	339.85	1
0.6908	338.95	1
0.8056	337.9	1
0.9096	337.05	1
1	336.35	1

System: 2-methyl-1,3-butadiene + cyclopentene; phases: Gas, Liquid
Property: Mole fraction of 2-methyl-1,3-butadiene (Gas); method: Chromatography
Mole fraction of 2-methyl-1,3-butadiene	Temperature, K	Mole fraction of 2-methyl-1,3-butadiene	uncertainty
0	347.35	0	
0.0818	346.05	0.1124	0.0566
0.13	345.35	0.1749	0.1749
0.2246	344	0.2901	0.0639
0.2909	343.15	0.3647	0.0045
0.388	342	0.4664	0.0648
0.4916	340.9	0.5667	0.1471
0.5941	339.85	0.6603	0.0433
0.6908	338.95	0.7447	0.0039
0.8056	337.9	0.8427	0.0325
0.9096	337.05	0.9282	0.0482
1	336.35	1	
