Measured thermophysical data. Determination and Correlation of Liquid-Liquid Equilibria Data for Water + Cyclohexanol + (Mesityl Oxide, Toluene, and p-Xylene) Ternary Systems at Different Temperatures
Source: J. Chem. Eng. Data, 2018, 10.1021/acs.jced.7b00674
Compound 1: water, H2O, InChI=1S/H2O/h1H2, purity 99.92%
Compound 2: cyclohexanol, C6H12O, InChI=1S/C6H12O/c7-6-4-2-1-3-5-6/h6-7H,1-5H2, purity 99.5%
Compound 3: 1,4-dimethylbenzene, C8H10, InChI=1S/C8H10/c1-7-3-5-8(2)6-4-7/h3-6H,1-2H3, purity 99%
Compound 4: toluene, C7H8, InChI=1S/C7H8/c1-7-5-3-2-4-6-7/h2-6H,1H3, purity 99.5%
Compound 5: 4-methyl-3-penten-2-one, C6H10O, InChI=1S/C6H10O/c1-5(2)4-6(3)7/h4H,1-3H3, purity 98.5%

System: water; phases: Liquid
Property: Mass density, kg/m3 (Liquid); method: Vibrating tube method
Temperature, K	Pressure, kPa	Mass density, kg/m3	uncertainty
298.15	101.325	997	16

System: water; phases: Liquid
Property: Refractive index (Na D-line) (Liquid); method: Standard Abbe refractometry
Temperature, K	Pressure, kPa	Refractive index (Na D-line)	uncertainty
298.15	101.325	1.3324	0.012

System: cyclohexanol; phases: Liquid
Property: Mass density, kg/m3 (Liquid); method: Vibrating tube method
Temperature, K	Pressure, kPa	Mass density, kg/m3	uncertainty
298.15	101.325	961.5	16

System: cyclohexanol; phases: Liquid
Property: Refractive index (Na D-line) (Liquid); method: Standard Abbe refractometry
Temperature, K	Pressure, kPa	Refractive index (Na D-line)	uncertainty
298.15	101.325	1.4621	0.012

System: 1,4-dimethylbenzene; phases: Liquid
Property: Mass density, kg/m3 (Liquid); method: Vibrating tube method
Temperature, K	Pressure, kPa	Mass density, kg/m3	uncertainty
298.15	101.325	856.5	16

System: 1,4-dimethylbenzene; phases: Liquid
Property: Refractive index (Na D-line) (Liquid); method: Standard Abbe refractometry
Temperature, K	Pressure, kPa	Refractive index (Na D-line)	uncertainty
298.15	101.325	1.4931	0.012

System: toluene; phases: Liquid
Property: Mass density, kg/m3 (Liquid); method: Vibrating tube method
Temperature, K	Pressure, kPa	Mass density, kg/m3	uncertainty
298.15	101.325	862.1	16

System: toluene; phases: Liquid
Property: Refractive index (Na D-line) (Liquid); method: Standard Abbe refractometry
Temperature, K	Pressure, kPa	Refractive index (Na D-line)	uncertainty
298.15	101.325	1.4938	0.012

System: 4-methyl-3-penten-2-one; phases: Liquid
Property: Mass density, kg/m3 (Liquid); method: Vibrating tube method
Temperature, K	Pressure, kPa	Mass density, kg/m3	uncertainty
298.15	101.325	857.6	16

System: 4-methyl-3-penten-2-one; phases: Liquid
Property: Refractive index (Na D-line) (Liquid); method: Standard Abbe refractometry
Temperature, K	Pressure, kPa	Refractive index (Na D-line)	uncertainty
298.15	101.325	1.4416	0.012

System: water + cyclohexanol + toluene; phases: Liquid mixture 1, Liquid mixture 2
Fixed: Pressure, kPa = 101.3
Property: Mass fraction of toluene (Liquid mixture 1); method: Chromatography
Property: Mass fraction of toluene (Liquid mixture 2); method: Chromatography
Property: Mass fraction of cyclohexanol (Liquid mixture 2); method: Chromatography
Temperature, K	Mass fraction of cyclohexanol	Mass fraction of toluene	uncertainty	Mass fraction of toluene	uncertainty	Mass fraction of cyclohexanol	uncertainty
303.15	0.019	0.9797	0.0088	0.0018	0.0018	0.0053	
323.15	0.0286	0.97	0.0085	0.0043	0.0043	0.0048	
323.15	0.0472	0.9513	0.0084	0.0047	0.0047	0.0067	
323.15	0.0638	0.9352	0.0085	0.0044	0.0044	0.0086	
323.15	0.0807	0.9177	0.0085	0.0046	0.0046	0.0096	
323.15	0.0975	0.9013	0.0086	0.0046	0.0046	0.0109	
323.15	0.1141	0.8835	0.0086	0.005	0.005	0.0114	
323.15	0.1667	0.8306	0.0086	0.0064	0.006	0.0144	
303.15	0.0358	0.9615	0.0086	0.0014	0.0014	0.0082	
303.15	0.0488	0.9491	0.0084	0.0015	0.0015	0.0099	
303.15	0.0586	0.9391	0.0085	0.0017	0.0017	0.0108	
303.15	0.0762	0.9215	0.0085	0.0017	0.0017	0.012	
303.15	0.1227	0.8752	0.0086	0.0019	0.0019	0.0144	
303.15	0.1356	0.8623	0.0086	0.002	0.002	0.0155	
303.15	0.1528	0.8451	0.0086	0.0023	0.0023	0.0159	
323.15	0.0134	0.9849	0.0084	0.0039	0.0039	0.0025	

System: water + cyclohexanol + 1,4-dimethylbenzene; phases: Liquid mixture 2, Liquid mixture 1
Fixed: Pressure, kPa = 101.3
Property: Mass fraction of 1,4-dimethylbenzene (Liquid mixture 2); method: Chromatography
Property: Mass fraction of 1,4-dimethylbenzene (Liquid mixture 1); method: Chromatography
Property: Mass fraction of cyclohexanol (Liquid mixture 1); method: Chromatography
Temperature, K	Mass fraction of cyclohexanol	Mass fraction of 1,4-dimethylbenzene	uncertainty	Mass fraction of 1,4-dimethylbenzene	uncertainty	Mass fraction of cyclohexanol	uncertainty
303.15	0.0048	0.0016	0.0016	0.9858	0.0085	0.0135	
303.15	0.0109	0.0021	0.0021	0.9534	0.0085	0.0452	
303.15	0.0125	0.0026	0.0026	0.9428	0.0085	0.0562	
303.15	0.0141	0.0026	0.0026	0.9297	0.0085	0.0692	
303.15	0.0151	0.0027	0.0027	0.9135	0.0085	0.0854	
303.15	0.0174	0.003	0.003	0.8842	0.0085	0.1147	
303.15	0.0178	0.0038	0.0038	0.8683	0.0086	0.1303	
323.15	0.0032	0.003	0.003	0.9857	0.0085	0.0132	
323.15	0.0063	0.0033	0.0033	0.9701	0.0085	0.0289	
323.15	0.0115	0.0031	0.0031	0.9199	0.0086	0.0783	
323.15	0.0131	0.0033	0.0033	0.9026	0.0086	0.0952	
323.15	0.0146	0.0033	0.0033	0.8866	0.0086	0.1109	
323.15	0.0155	0.0036	0.0036	0.87	0.0087	0.1271	
323.15	0.0165	0.0042	0.0042	0.8524	0.0087	0.1441	
323.15	0.0172	0.0042	0.0042	0.8371	0.0086	0.1592	
303.15	0.0089	0.0012	0.0012	0.9684	0.0086	0.031	

System: water + cyclohexanol + 4-methyl-3-penten-2-one; phases: Liquid mixture 2, Liquid mixture 1
Fixed: Pressure, kPa = 101.3
Property: Mass fraction of 4-methyl-3-penten-2-one (Liquid mixture 2); method: Chromatography
Property: Mass fraction of 4-methyl-3-penten-2-one (Liquid mixture 1); method: Chromatography
Property: Mass fraction of cyclohexanol (Liquid mixture 1); method: Chromatography
Temperature, K	Mass fraction of cyclohexanol	Mass fraction of 4-methyl-3-penten-2-one	uncertainty	Mass fraction of 4-methyl-3-penten-2-one	uncertainty	Mass fraction of cyclohexanol	uncertainty
303.15	0.001	0.0455	0.006	0.9193	0.0091	0.018	
303.15	0.0053	0.0448	0.006	0.8639	0.0092	0.067	
303.15	0.0061	0.0449	0.006	0.8458	0.0095	0.0822	
303.15	0.0073	0.0447	0.006	0.8297	0.0088	0.0952	
303.15	0.0078	0.0446	0.006	0.8165	0.0087	0.1098	
303.15	0.0091	0.0441	0.006	0.8013	0.0091	0.1227	
303.15	0.0099	0.0439	0.006	0.7766	0.0092	0.1454	
323.15	0.0011	0.0385	0.006	0.9261	0.008	0.0166	
323.15	0.0023	0.0388	0.006	0.9131	0.0081	0.0314	
323.15	0.0033	0.0386	0.006	0.8973	0.0096	0.0484	
323.15	0.005	0.039	0.006	0.8724	0.0094	0.064	
323.15	0.0053	0.0394	0.006	0.858	0.0095	0.0809	
323.15	0.0073	0.0396	0.006	0.8343	0.0109	0.0949	
323.15	0.0081	0.0397	0.006	0.8143	0.0096	0.1101	
323.15	0.0093	0.04	0.006	0.7994	0.0091	0.1235	
303.15	0.0036	0.0451	0.006	0.8828	0.0091	0.0503	
