Measured thermophysical data. Liquid Liquid Equilibria in Aqueous Mixtures of Alkylmethylimidazolium Glutamate with Potassium Carbonate and Some Physicochemical Properties of Aqueous [Cnmim][Glu] (n = 4, 6, 8) Solutions
Source: J. Chem. Eng. Data, 2016, 10.1021/acs.jced.5b00948
Compound 1: potassium carbonate, CK2O3, InChI=1S/CH2O3.2K/c2-1(3)4;;/h(H2,2,3,4);;/q;2*+1/p-2, purity 99%
Compound 2: 1-butyl-3-methylimidazolium (S)-2-amino-4-carboxybutanoate, C13H23N3O4, InChI=1S/C8H15N2.C5H9NO4/c1-3-4-5-10-7-6-9(2)8-10;6-3(5(9)10)1-2-4(7)8/h6-8H,3-5H2,1-2H3;3H,1-2,6H2,(H,7,8)(H,9,10)/q+1;/p-1/t;3-/m.0/s1, purity 99.3%
Compound 3: 1-hexyl-3-methylimidazolium L-glutamate, C15H27N3O4, InChI=1S/C10H19N2.C5H9NO4/c1-3-4-5-6-7-12-9-8-11(2)10-12;6-3(5(9)10)1-2-4(7)8/h8-10H,3-7H2,1-2H3;3H,1-2,6H2,(H,7,8)(H,9,10)/q+1;/p-1/t;3-/m.0/s1, purity 99.4%
Compound 4: 1-methyl-3-octylimidazolium L-glutamate, C17H31N3O4, InChI=1S/C12H23N2.C5H9NO4/c1-3-4-5-6-7-8-9-14-11-10-13(2)12-14;6-3(5(9)10)1-2-4(7)8/h10-12H,3-9H2,1-2H3;3H,1-2,6H2,(H,7,8)(H,9,10)/q+1;/p-1/t;3-/m.0/s1, purity 99.1%
Compound 5: 1-methyl-3-octylimidazolium chloride, C12H23ClN2, InChI=1S/C12H23N2.ClH/c1-3-4-5-6-7-8-9-14-11-10-13(2)12-14;/h10-12H,3-9H2,1-2H3;1H/q+1;/p-1, purity 97%
Compound 6: 1-hexyl-3-methylimidazolium chloride, C10H19ClN2, InChI=1S/C10H19N2.ClH/c1-3-4-5-6-7-12-9-8-11(2)10-12;/h8-10H,3-7H2,1-2H3;1H/q+1;/p-1, purity 97%
Compound 7: water, H2O, InChI=1S/H2O/h1H2, purity 99.8%

System: water; phases: Liquid
Property: Mass density, kg/m3 (Liquid); method: Vibrating tube method
Pressure, kPa	Temperature, K	Mass density, kg/m3	uncertainty
100	298.15	997.1	1

System: water; phases: Liquid
Property: Refractive index (Na D-line) (Liquid); method: Standard Abbe refractometry
Pressure, kPa	Temperature, K	Refractive index (Na D-line)	uncertainty
100	298.15	1.3325	0.0004

System: potassium carbonate + water + 1-butyl-3-methylimidazolium (S)-2-amino-4-carboxybutanoate; phases: Liquid mixture 1, Liquid mixture 2
Fixed: Pressure, kPa = 100
Fixed: Temperature, K = 298.15
Property: Mass fraction of potassium carbonate (Liquid mixture 1); method: titration
Mass fraction of 1-butyl-3-methylimidazolium (S)-2-amino-4-carboxybutanoate	Mass fraction of potassium carbonate	uncertainty
0.533	0.092	0.003
0.483	0.104	0.003
0.437	0.117	0.003
0.408	0.126	0.003
0.365	0.137	0.004
0.324	0.155	0.004
0.266	0.179	0.004
0.224	0.199	0.005
0.187	0.215	0.005
0.155	0.234	0.006
0.124	0.256	0.006
0.083	0.284	0.007
0.068	0.298	0.007
0.052	0.319	0.008
0.035	0.34	0.009
0.024	0.371	0.011
0.014	0.404	0.014
0.009	0.452	0.022
0.008	0.489	0.031

System: potassium carbonate + water + 1-butyl-3-methylimidazolium (S)-2-amino-4-carboxybutanoate; phases: Liquid mixture 2, Liquid mixture 1
Fixed: Temperature, K = 298.15
Fixed: Pressure, kPa = 100
Property: Mass fraction of 1-butyl-3-methylimidazolium (S)-2-amino-4-carboxybutanoate (Liquid mixture 2); method: OTHER
Property: Mass fraction of potassium carbonate (Liquid mixture 1); method: OTHER
Property: Mass fraction of 1-butyl-3-methylimidazolium (S)-2-amino-4-carboxybutanoate (Liquid mixture 1); method: OTHER
Mass fraction of potassium carbonate	Mass fraction of 1-butyl-3-methylimidazolium (S)-2-amino-4-carboxybutanoate	uncertainty	Mass fraction of potassium carbonate	uncertainty	Mass fraction of 1-butyl-3-methylimidazolium (S)-2-amino-4-carboxybutanoate	uncertainty
0.388	0.02	0.002	0.164	0.004	0.303	
0.432	0.012	0.002	0.124	0.003	0.416	
0.453	0.009	0.002	0.102	0.003	0.492	
0.473	0.008	0.002	0.094	0.003	0.525	

System: potassium carbonate + water + 1-hexyl-3-methylimidazolium L-glutamate; phases: Liquid mixture 1, Liquid mixture 2
Fixed: Pressure, kPa = 100
Fixed: Temperature, K = 298.15
Property: Mass fraction of potassium carbonate (Liquid mixture 1); method: titration
Mass fraction of 1-hexyl-3-methylimidazolium L-glutamate	Mass fraction of potassium carbonate	uncertainty
0.524	0.081	0.003
0.467	0.092	0.003
0.435	0.102	0.003
0.389	0.116	0.003
0.32	0.142	0.004
0.271	0.163	0.004
0.239	0.181	0.004
0.211	0.194	0.005
0.151	0.226	0.005
0.081	0.274	0.007
0.069	0.284	0.007
0.057	0.295	0.007
0.037	0.317	0.008
0.025	0.335	0.009
0.011	0.366	0.01
0.006	0.397	0.015

System: potassium carbonate + water + 1-hexyl-3-methylimidazolium L-glutamate; phases: Liquid mixture 1, Liquid mixture 2
Fixed: Temperature, K = 298.15
Fixed: Pressure, kPa = 100
Property: Mass fraction of 1-hexyl-3-methylimidazolium L-glutamate (Liquid mixture 1); method: OTHER
Property: Mass fraction of potassium carbonate (Liquid mixture 2); method: OTHER
Property: Mass fraction of 1-hexyl-3-methylimidazolium L-glutamate (Liquid mixture 2); method: OTHER
Mass fraction of potassium carbonate	Mass fraction of 1-hexyl-3-methylimidazolium L-glutamate	uncertainty	Mass fraction of potassium carbonate	uncertainty	Mass fraction of 1-hexyl-3-methylimidazolium L-glutamate	uncertainty
0.317	0.037	0.003	0.111	0.003	0.405	
0.348	0.018	0.002	0.092	0.003	0.468	
0.366	0.011	0.002	0.086	0.003	0.504	
0.376	0.009	0.002	0.081	0.003	0.524	

System: potassium carbonate + water + 1-methyl-3-octylimidazolium L-glutamate; phases: Liquid mixture 1, Liquid mixture 2
Fixed: Pressure, kPa = 100
Fixed: Temperature, K = 298.15
Property: Mass fraction of potassium carbonate (Liquid mixture 1); method: titration
Mass fraction of 1-methyl-3-octylimidazolium L-glutamate	Mass fraction of potassium carbonate	uncertainty
0.457	0.127	0.003
0.416	0.136	0.004
0.388	0.143	0.004
0.361	0.15	0.004
0.328	0.162	0.004
0.293	0.172	0.004
0.258	0.186	0.005
0.214	0.203	0.005
0.189	0.215	0.005
0.145	0.237	0.006
0.123	0.251	0.006
0.105	0.263	0.006
0.085	0.278	0.007
0.055	0.307	0.008
0.036	0.334	0.009
0.03	0.353	0.01

System: potassium carbonate + water + 1-methyl-3-octylimidazolium L-glutamate; phases: Liquid mixture 2, Liquid mixture 1
Fixed: Temperature, K = 298.15
Fixed: Pressure, kPa = 100
Property: Mass fraction of 1-methyl-3-octylimidazolium L-glutamate (Liquid mixture 2); method: OTHER
Property: Mass fraction of potassium carbonate (Liquid mixture 1); method: OTHER
Property: Mass fraction of 1-methyl-3-octylimidazolium L-glutamate (Liquid mixture 1); method: OTHER
Mass fraction of potassium carbonate	Mass fraction of 1-methyl-3-octylimidazolium L-glutamate	uncertainty	Mass fraction of potassium carbonate	uncertainty	Mass fraction of 1-methyl-3-octylimidazolium L-glutamate	uncertainty
0.297	0.068	0.003	0.186	0.005	0.259	
0.316	0.051	0.003	0.169	0.004	0.299	
0.328	0.043	0.003	0.16	0.004	0.332	
0.342	0.034	0.003	0.144	0.004	0.379	

System: water + 1-butyl-3-methylimidazolium (S)-2-amino-4-carboxybutanoate; phases: Liquid
Fixed: Pressure, kPa = 100
Fixed: Temperature, K = 298.15
Property: Mass density, kg/m3 (Liquid); method: Vibrating tube method
Mass fraction of 1-butyl-3-methylimidazolium (S)-2-amino-4-carboxybutanoate	Mass density, kg/m3	uncertainty
0.111	1022.7	1
0.183	1038.8	1
0.273	1058.6	1
0.353	1075.4	1
0.42	1091	1
0.491	1105.2	1
0.561	1122.2	1
0.628	1136.6	1
0.717	1153.7	1
0.773	1167.1	1
0.836	1181.6	1
0.863	1185.8	1

System: water + 1-butyl-3-methylimidazolium (S)-2-amino-4-carboxybutanoate; phases: Liquid
Fixed: Pressure, kPa = 100
Fixed: Temperature, K = 298.15
Property: Refractive index (Na D-line) (Liquid); method: Standard Abbe refractometry
Mass fraction of 1-butyl-3-methylimidazolium (S)-2-amino-4-carboxybutanoate	Refractive index (Na D-line)	uncertainty
0.05	1.3448	0.0004
0.103	1.3584	0.0004
0.152	1.3724	0.0004
0.2	1.3838	0.0004
0.299	1.4025	0.0004
0.377	1.4179	0.0004
0.492	1.4473	0.0004
0.576	1.4684	0.0004

System: water + 1-butyl-3-methylimidazolium (S)-2-amino-4-carboxybutanoate; phases: Liquid
Fixed: Pressure, kPa = 100
Fixed: Temperature, K = 298.15
Property: Electrical conductivity, S/m (Liquid); method: Alternating current cell with electrodes
Molality, mol/kg of 1-butyl-3-methylimidazolium (S)-2-amino-4-carboxybutanoate	Electrical conductivity, S/m	uncertainty
0.061	0.2767	0.0052
0.101	0.3637	0.0059
0.142	0.4662	0.0065
0.196	0.5768	0.0069
0.253	0.6762	0.0076
0.361	0.8687	0.0094
0.439	1.0076	0.0105
0.541	1.1299	0.0115
0.628	1.2052	0.0122
0.715	1.2681	0.0128
0.848	1.3695	0.0138
0.963	1.4311	0.0144

System: water + 1-hexyl-3-methylimidazolium L-glutamate; phases: Liquid
Fixed: Pressure, kPa = 100
Fixed: Temperature, K = 298.15
Property: Mass density, kg/m3 (Liquid); method: Vibrating tube method
Mass fraction of 1-hexyl-3-methylimidazolium L-glutamate	Mass density, kg/m3	uncertainty
0.059	1006.5	1
0.104	1011.6	1
0.152	1020.5	1
0.212	1029.3	1
0.293	1042.6	1
0.351	1051.4	1
0.431	1063.2	1
0.53	1080.8	1
0.668	1101.7	1
0	997.1	1

System: water + 1-hexyl-3-methylimidazolium L-glutamate; phases: Liquid
Fixed: Pressure, kPa = 100
Fixed: Temperature, K = 298.15
Property: Refractive index (Na D-line) (Liquid); method: Standard Abbe refractometry
Mass fraction of 1-hexyl-3-methylimidazolium L-glutamate	Refractive index (Na D-line)	uncertainty
0.059	1.3449	0.0004
0.114	1.356	0.0004
0.214	1.3743	0.0004
0.313	1.3924	0.0004
0.399	1.4087	0.0004
0.492	1.4291	0.0004
0.58	1.4453	0.0004
0.646	1.4568	0.0004
0	1.3325	0.0004

System: water + 1-hexyl-3-methylimidazolium L-glutamate; phases: Liquid
Fixed: Pressure, kPa = 100
Fixed: Temperature, K = 298.15
Property: Electrical conductivity, S/m (Liquid); method: Alternating current cell with electrodes
Molality, mol/kg of 1-hexyl-3-methylimidazolium L-glutamate	Electrical conductivity, S/m	uncertainty
0.071	0.2317	0.0023
0.112	0.3382	0.0034
0.172	0.46	0.01
0.231	0.5772	0.0059
0.269	0.6761	0.0069
0.326	0.7834	0.0079
0.407	0.9231	0.0093
0.501	1.0109	0.0102
0.597	1.1069	0.0111
0.716	1.1977	0.012
0.855	1.2558	0.0126
1.016	1.2831	0.0128

System: water + 1-methyl-3-octylimidazolium L-glutamate; phases: Liquid
Fixed: Pressure, kPa = 100
Fixed: Temperature, K = 298.15
Property: Mass density, kg/m3 (Liquid); method: Vibrating tube method
Mass fraction of 1-methyl-3-octylimidazolium L-glutamate	Mass density, kg/m3	uncertainty
0.033	1002.3	1
0.09	1009	1
0.165	1019	1
0.215	1024.9	1
0.294	1035.6	1
0.396	1050.1	1
0.525	1066.6	1
0.658	1083.8	1
0.694	1089.2	1

System: water + 1-methyl-3-octylimidazolium L-glutamate; phases: Liquid
Fixed: Pressure, kPa = 100
Fixed: Temperature, K = 298.15
Property: Refractive index (Na D-line) (Liquid); method: Standard Abbe refractometry
Mass fraction of 1-methyl-3-octylimidazolium L-glutamate	Refractive index (Na D-line)	uncertainty
0.033	1.3393	0.0004
0.089	1.3495	0.0004
0.107	1.3523	0.0004
0.165	1.3611	0.0004
0.215	1.3687	0.0004
0.319	1.3853	0.0004
0.396	1.4008	0.0004
0.525	1.4216	0.0004
0.658	1.4446	0.0004

System: water + 1-methyl-3-octylimidazolium L-glutamate; phases: Liquid
Fixed: Pressure, kPa = 100
Fixed: Temperature, K = 298.15
Property: Electrical conductivity, S/m (Liquid); method: Alternating current cell with electrodes
Molality, mol/kg of 1-methyl-3-octylimidazolium L-glutamate	Electrical conductivity, S/m	uncertainty
0.091	0.2802	0.005
0.128	0.3579	0.0056
0.159	0.4256	0.0062
0.199	0.5181	0.0069
0.233	0.5929	0.0069
0.274	0.651	0.007
0.325	0.7075	0.0074
0.377	0.7587	0.0078
0.452	0.8351	0.0086
0.502	0.8898	0.009
0.577	0.9282	0.0093
0.643	0.9262	0.0093

System: water + 1-methyl-3-octylimidazolium chloride; phases: Liquid
Fixed: Pressure, kPa = 100
Fixed: Temperature, K = 298.15
Property: Electrical conductivity, S/m (Liquid); method: Alternating current cell with electrodes
Molality, mol/kg of 1-methyl-3-octylimidazolium chloride	Electrical conductivity, S/m	uncertainty
0.03	0.245	0.012
0.06	0.425	0.011
0.124	0.712	0.011
0.18	0.901	0.011
0.242	1.034	0.011
0.284	1.097	0.011
0.319	1.123	0.011
0.352	1.175	0.012
0.389	1.204	0.012
0.421	1.228	0.012
0.48	1.265	0.013
0.51	1.278	0.013
0.541	1.301	0.013

System: potassium carbonate + water + 1-hexyl-3-methylimidazolium chloride; phases: Liquid mixture 1, Liquid mixture 2
Fixed: Pressure, kPa = 100
Fixed: Temperature, K = 298.15
Property: Mass fraction of potassium carbonate (Liquid mixture 1); method: titration
Mass fraction of 1-hexyl-3-methylimidazolium chloride	Mass fraction of potassium carbonate	uncertainty
0.445	0.071	0.003
0.404	0.086	0.003
0.333	0.112	0.003
0.294	0.127	0.003
0.275	0.136	0.004
0.216	0.164	0.004
0.157	0.202	0.005
0.113	0.23	0.006
0.087	0.253	0.006
0.07	0.268	0.007
0.054	0.284	0.007
0.036	0.307	0.008
0.029	0.319	0.008
0.02	0.334	0.008
