Measured thermophysical data. Effect of Solvent Cation Alkyl-Chain Length on the Separation of Butylbenzene from n-Tetradecane Using Hexafluorophosphate-Based Ionic Liquids at (313.15 and 333.15) K and 101.3 kPa
Source: J. Chem. Eng. Data, 2018, 10.1021/acs.jced.8b00356
Compound 1: 1-butyl-3-methylimidazolium hexafluorophosphate, C8H15F6N2P, InChI=1S/C8H15N2.F6P/c1-3-4-5-10-7-6-9(2)8-10;1-7(2,3,4,5)6/h6-8H,3-5H2,1-2H3;/q+1;-1, purity 98%
Compound 2: 1-hexyl-3-methylimidazolium hexafluorophosphate, C10H19F6N2P, InChI=1S/C10H19N2.F6P/c1-3-4-5-6-7-12-9-8-11(2)10-12;1-7(2,3,4,5)6/h8-10H,3-7H2,1-2H3;/q+1;-1, purity 98%
Compound 3: 1-octyl-3-methylimidazolium hexafluorophosphate, C12H23F6N2P, InChI=1S/C12H23N2.F6P/c1-3-4-5-6-7-8-9-14-11-10-13(2)12-14;1-7(2,3,4,5)6/h10-12H,3-9H2,1-2H3;/q+1;-1, purity 98%
Compound 4: tetradecane, C14H30, InChI=1S/C14H30/c1-3-5-7-9-11-13-14-12-10-8-6-4-2/h3-14H2,1-2H3, purity 99%
Compound 5: butylbenzene, C10H14, InChI=1S/C10H14/c1-2-3-7-10-8-5-4-6-9-10/h4-6,8-9H,2-3,7H2,1H3, purity 99%

System: tetradecane + butylbenzene + 1-butyl-3-methylimidazolium hexafluorophosphate; phases: Liquid mixture 1, Liquid mixture 2
Fixed: Pressure, kPa = 101.3
Property: Mole fraction of tetradecane (Liquid mixture 1); method: Chromatography
Property: Mole fraction of tetradecane (Liquid mixture 2); method: Chromatography
Property: Mole fraction of butylbenzene (Liquid mixture 2); method: Chromatography
Temperature, K	Mole fraction of butylbenzene	Mole fraction of tetradecane	uncertainty	Mole fraction of tetradecane	uncertainty	Mole fraction of butylbenzene	uncertainty
313.15	0	1		0.004	0.002	0	
313.15	0.533	0.467	0.004	0.004	0.002	0.304	
313.15	0.56	0.44	0.004	0.004	0.002	0.323	
313.15	0.583	0.417	0.004	0.004	0.002	0.346	
313.15	0.643	0.357	0.004	0.003	0.002	0.392	
313.15	0.702	0.298	0.004	0.003	0.002	0.438	
313.15	0.778	0.222	0.003	0.003	0.002	0.5	
313.15	0.837	0.163	0.003	0.002	0.002	0.555	
313.15	0.89	0.11	0.003	0.002	0.002	0.598	
313.15	0.922	0.078	0.003	0.001	0.001	0.606	
313.15	0.998	0		0		0.7	
313.15	0.11	0.89	0.003	0.004	0.002	0.049	
333.15	0	1		0.005	0.002	0	
333.15	0.107	0.893	0.003	0.005	0.002	0.053	
333.15	0.195	0.805	0.003	0.005	0.002	0.1	
333.15	0.268	0.732	0.003	0.005	0.002	0.142	
333.15	0.329	0.671	0.004	0.005	0.002	0.183	
333.15	0.38	0.62	0.004	0.005	0.002	0.218	
333.15	0.424	0.576	0.004	0.005	0.002	0.247	
333.15	0.463	0.537	0.004	0.005	0.002	0.276	
333.15	0.497	0.503	0.005	0.005	0.002	0.301	
333.15	0.527	0.473	0.004	0.005	0.002	0.324	
313.15	0.2	0.8	0.003	0.004	0.002	0.092	
333.15	0.554	0.446	0.004	0.005	0.002	0.344	
333.15	0.579	0.421	0.004	0.005	0.002	0.369	
333.15	0.64	0.36	0.004	0.005	0.002	0.418	
333.15	0.7	0.3	0.004	0.004	0.002	0.466	
333.15	0.776	0.224	0.003	0.004	0.002	0.531	
333.15	0.836	0.164	0.003	0.003	0.002	0.588	
333.15	0.89	0.11	0.003	0.003	0.002	0.633	
333.15	0.921	0.079	0.003	0.002	0.002	0.642	
333.15	0.997	0		0		0.715	
313.15	0.273	0.727	0.003	0.004	0.002	0.132	
313.15	0.333	0.667	0.004	0.004	0.002	0.169	
313.15	0.384	0.616	0.004	0.004	0.002	0.203	
313.15	0.43	0.57	0.004	0.004	0.002	0.231	
313.15	0.468	0.532	0.004	0.004	0.002	0.258	
313.15	0.502	0.498	0.005	0.004	0.002	0.282	

System: tetradecane + butylbenzene + 1-hexyl-3-methylimidazolium hexafluorophosphate; phases: Liquid mixture 1, Liquid mixture 2
Fixed: Pressure, kPa = 101.3
Property: Mole fraction of tetradecane (Liquid mixture 1); method: Chromatography
Property: Mole fraction of tetradecane (Liquid mixture 2); method: Chromatography
Property: Mole fraction of butylbenzene (Liquid mixture 2); method: Chromatography
Temperature, K	Mole fraction of butylbenzene	Mole fraction of tetradecane	uncertainty	Mole fraction of tetradecane	uncertainty	Mole fraction of butylbenzene	uncertainty
313.15	0	1		0.005	0.002	0	
313.15	0.525	0.475	0.004	0.004	0.002	0.373	
313.15	0.552	0.448	0.004	0.004	0.002	0.397	
313.15	0.577	0.423	0.004	0.004	0.002	0.421	
313.15	0.638	0.362	0.004	0.003	0.002	0.472	
313.15	0.697	0.303	0.004	0.003	0.002	0.523	
313.15	0.774	0.226	0.003	0.003	0.002	0.596	
313.15	0.835	0.165	0.003	0.002	0.002	0.646	
313.15	0.889	0.111	0.003	0.002	0.002	0.693	
313.15	0.921	0.079	0.003	0.001	0.001	0.722	
313.15	0.997	0		0		0.75	
313.15	0.106	0.894	0.003	0.004	0.002	0.063	
333.15	0	1		0.006	0.002	0	
333.15	0.105	0.895	0.003	0.006	0.002	0.068	
333.15	0.191	0.809	0.003	0.006	0.002	0.125	
333.15	0.262	0.738	0.003	0.006	0.002	0.177	
333.15	0.322	0.678	0.004	0.005	0.002	0.221	
333.15	0.374	0.626	0.004	0.005	0.002	0.264	
333.15	0.418	0.582	0.004	0.005	0.002	0.299	
333.15	0.458	0.542	0.004	0.005	0.002	0.332	
333.15	0.492	0.508	0.005	0.005	0.002	0.361	
333.15	0.522	0.478	0.004	0.005	0.002	0.394	
313.15	0.193	0.807	0.003	0.004	0.002	0.118	
333.15	0.549	0.451	0.004	0.005	0.002	0.419	
333.15	0.573	0.427	0.004	0.005	0.002	0.443	
333.15	0.635	0.365	0.004	0.005	0.002	0.496	
333.15	0.694	0.306	0.004	0.005	0.002	0.549	
333.15	0.771	0.229	0.003	0.004	0.002	0.625	
333.15	0.832	0.168	0.003	0.003	0.002	0.677	
333.15	0.888	0.112	0.003	0.003	0.002	0.726	
333.15	0.92	0.08	0.003	0.002	0.002	0.756	
333.15	0.996	0		0		0.774	
313.15	0.265	0.735	0.003	0.004	0.002	0.167	
313.15	0.326	0.674	0.004	0.004	0.002	0.209	
313.15	0.378	0.622	0.004	0.004	0.002	0.249	
313.15	0.422	0.578	0.004	0.004	0.002	0.283	
313.15	0.461	0.539	0.004	0.004	0.002	0.313	
313.15	0.496	0.504	0.005	0.004	0.002	0.342	

System: tetradecane + butylbenzene + 1-octyl-3-methylimidazolium hexafluorophosphate; phases: Liquid mixture 2, Liquid mixture 1
Fixed: Pressure, kPa = 101.3
Property: Mole fraction of tetradecane (Liquid mixture 2); method: Chromatography
Property: Mole fraction of tetradecane (Liquid mixture 1); method: Chromatography
Property: Mole fraction of butylbenzene (Liquid mixture 1); method: Chromatography
Temperature, K	Mole fraction of butylbenzene	Mole fraction of tetradecane	uncertainty	Mole fraction of tetradecane	uncertainty	Mole fraction of butylbenzene	uncertainty
313.15	0	1		0.005	0.002	0	
313.15	0.528	0.472	0.004	0.004	0.002	0.451	
313.15	0.555	0.445	0.004	0.004	0.002	0.478	
313.15	0.579	0.421	0.004	0.004	0.002	0.502	
313.15	0.639	0.361	0.004	0.004	0.002	0.561	
313.15	0.697	0.303	0.004	0.004	0.002	0.625	
313.15	0.773	0.227	0.003	0.003	0.002	0.703	
313.15	0.833	0.167	0.003	0.002	0.002	0.767	
313.15	0.887	0.113	0.003	0.002	0.002	0.821	
313.15	0.919	0.081	0.003	0.001	0.001	0.86	
313.15	0.996	0		0		0.812	
313.15	0.107	0.893	0.003	0.005	0.002	0.084	
333.15	0	1		0.006	0.002	0	
333.15	0.106	0.894	0.003	0.007	0.002	0.088	
333.15	0.192	0.808	0.003	0.007	0.002	0.162	
333.15	0.264	0.736	0.003	0.007	0.002	0.224	
333.15	0.324	0.676	0.004	0.006	0.002	0.278	
333.15	0.376	0.624	0.004	0.006	0.002	0.325	
333.15	0.42	0.58	0.004	0.006	0.002	0.366	
333.15	0.459	0.541	0.004	0.006	0.002	0.405	
333.15	0.492	0.508	0.005	0.006	0.002	0.437	
333.15	0.521	0.479	0.004	0.006	0.002	0.467	
313.15	0.195	0.805	0.003	0.005	0.002	0.155	
333.15	0.548	0.452	0.004	0.006	0.002	0.495	
333.15	0.571	0.429	0.004	0.006	0.002	0.519	
333.15	0.631	0.369	0.004	0.006	0.002	0.58	
333.15	0.689	0.311	0.004	0.006	0.002	0.645	
333.15	0.766	0.234	0.003	0.005	0.002	0.725	
333.15	0.827	0.173	0.003	0.004	0.002	0.792	
333.15	0.883	0.117	0.003	0.003	0.002	0.849	
333.15	0.916	0.084	0.003	0.002	0.002	0.89	
333.15	0.995	0		0		0.842	
313.15	0.267	0.733	0.003	0.005	0.002	0.215	
313.15	0.328	0.672	0.004	0.005	0.002	0.266	
313.15	0.38	0.62	0.004	0.005	0.002	0.312	
313.15	0.425	0.575	0.004	0.004	0.002	0.352	
313.15	0.464	0.536	0.004	0.004	0.002	0.389	
313.15	0.498	0.502	0.005	0.004	0.002	0.421	

System: tetradecane + 1-butyl-3-methylimidazolium hexafluorophosphate; phases: Liquid mixture 2, Liquid mixture 1
Fixed: Pressure, kPa = 101.3
Property: Mole fraction of tetradecane (Liquid mixture 2); method: Chromatography
Temperature, K	Mole fraction of tetradecane	uncertainty
313.15	0.004	0.002
333.15	0.005	0.002

System: butylbenzene + 1-butyl-3-methylimidazolium hexafluorophosphate; phases: Liquid mixture 2, Liquid mixture 1
Fixed: Pressure, kPa = 101.3
Property: Mole fraction of butylbenzene (Liquid mixture 2); method: Chromatography
Temperature, K	Mole fraction of butylbenzene	uncertainty
313.15	0.7	0.003
333.15	0.715	0.003

System: butylbenzene + 1-butyl-3-methylimidazolium hexafluorophosphate; phases: Liquid mixture 1, Liquid mixture 2
Fixed: Pressure, kPa = 101.3
Property: Mole fraction of butylbenzene (Liquid mixture 1); method: Chromatography
Temperature, K	Mole fraction of butylbenzene	uncertainty
313.15	0.998	0.002
333.15	0.997	0.002

System: tetradecane + 1-hexyl-3-methylimidazolium hexafluorophosphate; phases: Liquid mixture 2, Liquid mixture 1
Fixed: Pressure, kPa = 101.3
Property: Mole fraction of tetradecane (Liquid mixture 2); method: Chromatography
Temperature, K	Mole fraction of tetradecane	uncertainty
313.15	0.005	0.002
333.15	0.006	0.002

System: butylbenzene + 1-hexyl-3-methylimidazolium hexafluorophosphate; phases: Liquid mixture 2, Liquid mixture 1
Fixed: Pressure, kPa = 101.3
Property: Mole fraction of butylbenzene (Liquid mixture 2); method: Chromatography
Temperature, K	Mole fraction of butylbenzene	uncertainty
313.15	0.75	0.003
333.15	0.774	0.003

System: butylbenzene + 1-hexyl-3-methylimidazolium hexafluorophosphate; phases: Liquid mixture 1, Liquid mixture 2
Fixed: Pressure, kPa = 101.3
Property: Mole fraction of butylbenzene (Liquid mixture 1); method: Chromatography
Temperature, K	Mole fraction of butylbenzene	uncertainty
313.15	0.997	0.002
333.15	0.996	0.002

System: tetradecane + 1-octyl-3-methylimidazolium hexafluorophosphate; phases: Liquid mixture 1, Liquid mixture 2
Fixed: Pressure, kPa = 101.3
Property: Mole fraction of tetradecane (Liquid mixture 1); method: Chromatography
Temperature, K	Mole fraction of tetradecane	uncertainty
313.15	0.005	0.002
333.15	0.006	0.002

System: butylbenzene + 1-octyl-3-methylimidazolium hexafluorophosphate; phases: Liquid mixture 1, Liquid mixture 2
Fixed: Pressure, kPa = 101.3
Property: Mole fraction of butylbenzene (Liquid mixture 1); method: Chromatography
Temperature, K	Mole fraction of butylbenzene	uncertainty
313.15	0.812	0.003
333.15	0.842	0.002

System: butylbenzene + 1-octyl-3-methylimidazolium hexafluorophosphate; phases: Liquid mixture 2, Liquid mixture 1
Fixed: Pressure, kPa = 101.3
Property: Mole fraction of butylbenzene (Liquid mixture 2); method: Chromatography
Temperature, K	Mole fraction of butylbenzene	uncertainty
313.15	0.996	0.002
333.15	0.995	0.002
