Measured thermophysical data. Speed of Sound Measurements and Fundamental Equations of State for Octamethyltrisiloxane and Decamethyltetrasiloxane
Source: J. Chem. Eng. Data, 2017, 10.1021/acs.jced.7b00092
Compound 1: octamethyltrisiloxane, C8H24O2Si3, InChI=1S/C8H24O2Si3/c1-11(2,3)9-13(7,8)10-12(4,5)6/h1-8H3
Compound 2: decamethyltetrasiloxane, C10H30O3Si4, InChI=1S/C10H30O3Si4/c1-14(2,3)11-16(7,8)13-17(9,10)12-15(4,5)6/h1-10H3

System: octamethyltrisiloxane; phases: Liquid
Fixed: Frequency, MHz = 8
Property: Speed of sound, m/s (Liquid); method: Pulse-echo method
Temperature, K	Pressure, kPa	Speed of sound, m/s	uncertainty
299.619	101	911.32	1.22
299.627	502	914.41	1.22
299.636	984	918.29	1.22
299.644	1480	922.14	1.22
299.647	2012	926.38	1.22
299.664	3441	937.36	1.21
299.692	5923	955.8	1.19
299.612	10196	986.47	1.17
299.676	20155	1050.26	1.17
299.709	30179	1107.31	1.18
349.908	111	742.97	1.29
349.686	558	748.58	1.3
349.647	1075	754.2	1.29
349.598	1556	759.34	1.26
349.589	2066	764.64	1.25
349.576	3704	781	1.25
349.606	6067	803.25	1.2
349.592	10127	839.26	1.16
349.605	20075	915.62	1.13
349.638	29800	980.01	1.15
399.965	508	588.68	1.44
399.965	993	595.83	1.64
399.958	1439	602.33	1.61
399.946	2018	610.77	1.49
399.957	3510	630.8	1.61
400.02	9928	704.99	1.25
400.15	19875	796.17	1.14
399.42	29701	873.39	1.1
449.99	492	436.7	2.27
449.96	1045	448.89	2.19
449.98	1523	458.69	2.1
450.01	1994	468.09	1.98
450.05	3497	495.73	1.8
450.09	6009	536.6	1.6
450.14	9983	591.45	1.35
450.22	20246	701.94	1.21
449.44	23518	734.5	1.15
499.04	1000	292.6	3.76
499.02	1521	313.47	3.43
498.96	1989	328.83	2.98
498.94	3487	373.05	2.48
499	5834	424.21	1.95
499.02	10178	498.23	1.54
499.05	16859	585.07	1.35
549.79	4484	279.71	2.89
549.74	6653	340.31	2.33
549.8	10050	411.61	1.88
549.84	12528	452.26	1.59
549.67	15312	492.6	1.47

System: decamethyltetrasiloxane; phases: Liquid
Fixed: Frequency, MHz = 8
Property: Speed of sound, m/s (Liquid); method: Pulse-echo method
Temperature, K	Pressure, kPa	Speed of sound, m/s	uncertainty
217.814	2	1231.95	1.12
217.806	1324	1238.8	1.13
217.848	9419	1278.37	1.16
217.899	19699	1325.19	1.21
217.992	40255	1409.21	1.28
218.013	60115	1481.33	1.34
218.085	79712	1545.87	1.41
218.165	98572	1602.99	1.46
218.238	118233	1658.39	1.58
249.842	1077	1110.11	1.02
249.843	9240	1156.24	1.06
249.804	19343	1208.71	1.1
249.8	39384	1300.35	1.18
249.737	59554	1380.75	1.25
249.647	80370	1454.87	1.32
249.534	98950	1515.2	1.38
249.424	119047	1575.46	1.52
299.902	16	925.67	0.86
299.935	121	926.31	0.87
299.96	958	932.76	0.88
299.915	1080	933.63	0.87
299.983	9659	994.25	0.92
299.995	19671	1056.26	0.98
300.006	40202	1164.31	1.06
300.002	60024	1252.37	1.13
300.005	80266	1331.24	1.21
300.004	99198	1397.65	1.27
300.035	119626	1463.06	1.43
349.925	1369	780.56	0.74
349.89	9447	851.51	0.8
349.899	19447	925.37	0.87
349.928	40092	1049.16	0.96
349.867	59744	1145.45	1.05
349.918	80462	1232.54	1.12
349.895	99170	1302.54	1.19
349.892	119296	1370.82	1.36
399.597	1077	636.31	0.64
399.665	1234	638.18	0.64
399.596	9691	731.33	0.7
399.669	20055	820.52	0.8
399.685	38533	945.04	0.88
399.695	60934	1064.32	0.97
399.696	81120	1154.26	1.05
399.696	99014	1224.64	1.11
399.553	120290	1300.12	1.32
450.052	1060	502.02	0.54
449.895	9702	623.33	0.62
449.92	19667	723.35	0.73
449.959	40506	876.94	0.83
449.99	59941	986.94	0.91
450.013	80184	1082.55	1
450.029	99670	1162.66	1.06
450.039	119488	1235.39	1.27
499.757	1001	371.6	0.46
499.824	1926	395	0.47
499.777	3058	420.07	0.48
499.717	4164	442.17	0.49
499.749	5168	460.32	0.51
499.608	9979	534.61	0.56
499.669	20291	650.54	0.68
499.695	40057	807.98	0.78
499.722	60022	927.39	0.86
499.751	80169	1026.54	0.95
499.802	99589	1109.02	1.02
499.886	119374	1183.6	1.23
