Measured thermophysical data. The Critical Temperatures of a Number of (i) (Chloroalkane (C3 C4) + Hydrocarbon (C6 C7)) Binary Mixtures and (ii) (Aromatic Halocarbon (Chlorobenzene, Fluorobenzene, 1,2-Dichlorobenzene, or 1,3-Dichlorobenzene) + Alkane (C8)) Binary Mixtures
Source: J. Chem. Eng. Data, 2017, 10.1021/acs.jced.7b00191
Compound 1: benzene, C6H6, InChI=1S/C6H6/c1-2-4-6-5-3-1/h1-6H, purity 99.9%
Compound 2: cyclohexane, C6H12, InChI=1S/C6H12/c1-2-4-6-5-3-1/h1-6H2, purity 99.5%
Compound 3: cyclooctane, C8H16, InChI=1S/C8H16/c1-2-4-6-8-7-5-3-1/h1-8H2, purity 99%
Compound 4: 1-chlorobutane, C4H9Cl, InChI=1S/C4H9Cl/c1-2-3-4-5/h2-4H2,1H3, purity 99.5%
Compound 5: chlorobenzene, C6H5Cl, InChI=1S/C6H5Cl/c7-6-4-2-1-3-5-6/h1-5H, purity 99.9%
Compound 6: 1,2-dichlorobenzene, C6H4Cl2, InChI=1S/C6H4Cl2/c7-5-3-1-2-4-6(5)8/h1-4H, purity 99%
Compound 7: 1,3-dichlorobenzene, C6H4Cl2, InChI=1S/C6H4Cl2/c7-5-2-1-3-6(8)4-5/h1-4H, purity 99%
Compound 8: 1,2-dichloropropane, C3H6Cl2, InChI=1S/C3H6Cl2/c1-3(5)2-4/h3H,2H2,1H3, purity 99%
Compound 9: 1,3-dichloropropane, C3H6Cl2, InChI=1S/C3H6Cl2/c4-2-1-3-5/h1-3H2, purity 99%
Compound 10: 2,2-dimethylbutane, C6H14, InChI=1S/C6H14/c1-5-6(2,3)4/h5H2,1-4H3, purity 99%
Compound 11: fluorobenzene, C6H5F, InChI=1S/C6H5F/c7-6-4-2-1-3-5-6/h1-5H, purity 99.7%
Compound 12: hexane, C6H14, InChI=1S/C6H14/c1-3-5-6-4-2/h3-6H2,1-2H3, purity 99.5%
Compound 13: heptane, C7H16, InChI=1S/C7H16/c1-3-5-7-6-4-2/h3-7H2,1-2H3, purity 99.5%
Compound 14: octane, C8H18, InChI=1S/C8H18/c1-3-5-7-8-6-4-2/h3-8H2,1-2H3, purity 99%
Compound 15: 2,2,4-trimethylpentane, C8H18, InChI=1S/C8H18/c1-7(2)6-8(3,4)5/h7H,6H2,1-5H3, purity 99.8%

System: benzene; phases: Liquid, Gas
Property: Critical temperature, K (Liquid); method: Visual observation in an unstirred cell
Critical temperature, K	uncertainty
562.2	2.8

System: 1,2-dichlorobenzene; phases: Liquid, Gas
Property: Critical temperature, K (Liquid); method: Visual observation in an unstirred cell
Critical temperature, K	uncertainty
698.8	2.8

System: 2,2-dimethylbutane; phases: Liquid, Gas
Property: Critical temperature, K (Liquid); method: Visual observation in an unstirred cell
Critical temperature, K	uncertainty
489.4	2.8

System: fluorobenzene; phases: Liquid, Gas
Property: Critical temperature, K (Liquid); method: Visual observation in an unstirred cell
Critical temperature, K	uncertainty
557.3	2.8

System: hexane; phases: Liquid, Gas
Property: Critical temperature, K (Liquid); method: Visual observation in an unstirred cell
Critical temperature, K	uncertainty
507.4	2.8

System: heptane; phases: Liquid, Gas
Property: Critical temperature, K (Liquid); method: Visual observation in an unstirred cell
Critical temperature, K	uncertainty
540.6	2.8

System: octane; phases: Liquid, Gas
Property: Critical temperature, K (Liquid); method: Visual observation in an unstirred cell
Critical temperature, K	uncertainty
568.8	2.8

System: 2,2,4-trimethylpentane; phases: Liquid, Gas
Property: Critical temperature, K (Liquid); method: Visual observation in an unstirred cell
Critical temperature, K	uncertainty
544	2.8

System: benzene + 1,2-dichloropropane; phases: Liquid, Gas
Property: Critical temperature, K (Liquid); method: Visual observation in an unstirred cell
Mole fraction of 1,2-dichloropropane	Critical temperature, K	uncertainty
0	562.2	2.8
0.071	563.4	2.8
0.247	566.1	2.8
0.348	567.4	2.8
0.356	567.5	2.8
0.42	568.5	2.8
0.6646	572.4	2.8
0.702	572.9	2.8

System: 1,2-dichloropropane + cyclohexane; phases: Liquid, Gas
Property: Critical temperature, K (Liquid); method: Visual observation in an unstirred cell
Mole fraction of 1,2-dichloropropane	Critical temperature, K	uncertainty
0.135	554.5	2.8
0.14	554.3	2.8
0.177	554.8	2.8
0.341	556.2	2.8
0.442	558.6	2.8
0.562	561.2	2.8
0.655	564.4	2.8
0.73	567.2	2.8
0.853	571.8	2.8

System: 2,2-dimethylbutane + 1,2-dichloropropane; phases: Liquid, Gas
Property: Critical temperature, K (Liquid); method: Visual observation in an unstirred cell
Mole fraction of 1,2-dichloropropane	Critical temperature, K	uncertainty
0	489.4	2.8
0.172	500.4	2.9
0.308	511.2	2.9
0.331	512.5	2.9
0.58	537.2	3
0.645	543.7	3
0.809	560.1	2.9
0.847	563.4	2.9

System: 1,2-dichloropropane + hexane; phases: Liquid, Gas
Property: Critical temperature, K (Liquid); method: Visual observation in an unstirred cell
Mole fraction of 1,2-dichloropropane	Critical temperature, K	uncertainty
0	507.4	2.8
0.205	515	2.8
0.252	515.3	2.9
0.427	526.4	2.9
0.716	550.1	2.9
0.739	551.7	2.9
0.843	560.8	3
0.89	565.9	3

System: 1,2-dichloropropane + heptane; phases: Liquid, Gas
Property: Critical temperature, K (Liquid); method: Visual observation in an unstirred cell
Mole fraction of 1,2-dichloropropane	Critical temperature, K	uncertainty
0	540.6	2.8
0.129	541.9	2.8
0.195	542.8	2.8
0.29	544.4	2.8
0.347	546	2.8
0.57	553.2	2.8
0.669	557.7	2.8
0.737	561.2	2.9
0.816	565.7	2.9

System: benzene + 1,3-dichloropropane; phases: Liquid, Gas
Property: Critical temperature, K (Liquid); method: Visual observation in an unstirred cell
Mole fraction of 1,3-dichloropropane	Critical temperature, K	uncertainty
0	562.2	2.8
0.186	573.3	2.9
0.266	577.8	2.9
0.33	581.1	2.9
0.394	584.6	2.9
0.46	588	2.8
0.654	597.8	2.9
0.683	599.3	2.8
0.781	603.8	2.8

System: cyclohexane + 1,3-dichloropropane; phases: Liquid, Gas
Property: Critical temperature, K (Liquid); method: Visual observation in an unstirred cell
Mole fraction of 1,3-dichloropropane	Critical temperature, K	uncertainty
0.099	556.5	2.8
0.18	559.4	2.9
0.473	576.5	2.9
0.617	586.4	2.9
0.821	602.4	2.9
0.843	604	2.9

System: 2,2-dimethylbutane + 1,3-dichloropropane; phases: Liquid, Gas
Property: Critical temperature, K (Liquid); method: Visual observation in an unstirred cell
Mole fraction of 1,3-dichloropropane	Critical temperature, K	uncertainty
0	489.4	2.8
0.12	501.6	3
0.156	505.4	3
0.219	513.3	3
0.292	520.5	3.1
0.569	562	3.2
0.671	576.3	3.1
0.82	595.1	3.1

System: hexane + 1,3-dichloropropane; phases: Liquid, Gas
Property: Critical temperature, K (Liquid); method: Visual observation in an unstirred cell
Mole fraction of 1,3-dichloropropane	Critical temperature, K	uncertainty
0	507.4	2.8
0.187	521.5	2.9
0.259	528.5	3
0.295	532.1	3
0.361	539	3
0.577	564.5	3
0.687	577.5	3
0.931	606.1	3

System: 1,3-dichloropropane + heptane; phases: Liquid, Gas
Property: Critical temperature, K (Liquid); method: Visual observation in an unstirred cell
Mole fraction of 1,3-dichloropropane	Critical temperature, K	uncertainty
0	540.6	2.8
0.18	546.5	2.8
0.183	546.7	2.8
0.295	552.1	2.9
0.421	559.9	2.9
0.543	567.2	2.9
0.753	586.9	2.9
0.77	587.9	2.9
0.85	595.8	3

System: benzene + 1-chlorobutane; phases: Liquid, Gas
Property: Critical temperature, K (Liquid); method: Visual observation in an unstirred cell
Mole fraction of 1-chlorobutane	Critical temperature, K	uncertainty
0	562.2	2.8
0.191	557.4	2.8
0.26	555.6	2.8
0.341	553.4	2.8
0.532	548.9	2.8
0.729	544.3	2.8
0.873	541.3	2.8

System: 1-chlorobutane + cyclohexane; phases: Liquid, Gas
Property: Critical temperature, K (Liquid); method: Visual observation in an unstirred cell
Mole fraction of 1-chlorobutane	Critical temperature, K	uncertainty
0.082	552	2.8
0.092	551.8	2.8
0.16	549.7	2.8
0.211	548.8	2.8
0.435	544.5	2.8
0.535	543.1	2.8
0.644	542	2.8
0.708	541.4	2.8
0.811	540.2	2.8

System: 1-chlorobutane + 2,2,4-trimethylpentane; phases: Liquid, Gas
Property: Critical temperature, K (Liquid); method: Visual observation in an unstirred cell
Mole fraction of 1-chlorobutane	Critical temperature, K	uncertainty
0	544	2.8
0.233	541.9	2.8
0.294	541.2	2.8
0.428	539.9	2.8
0.458	539.7	2.8
0.602	538.9	2.8
0.805	538.3	2.8
0.849	538.2	2.8

System: 1-chlorobutane + hexane; phases: Liquid, Gas
Property: Critical temperature, K (Liquid); method: Visual observation in an unstirred cell
Mole fraction of 1-chlorobutane	Critical temperature, K	uncertainty
0	507.4	2.8
0.088	509.2	2.8
0.11	509.5	2.8
0.223	512.1	2.8
0.334	514.8	2.8
0.372	516.2	2.8
0.613	524.5	2.8
0.807	530.8	2.8

System: fluorobenzene + 2,2,4-trimethylpentane; phases: Liquid, Gas
Property: Critical temperature, K (Liquid); method: Visual observation in an unstirred cell
Mole fraction of 2,2,4-trimethylpentane	Critical temperature, K	uncertainty
0	557.3	2.8
0.091	553.6	2.8
0.152	552.4	2.8
0.307	547.3	2.8
0.43	545.9	2.8
0.636	544.1	2.8
0.695	543.7	2.8
0.819	542.9	2.8
1	544	2.8

System: chlorobenzene + 2,2,4-trimethylpentane; phases: Liquid, Gas
Property: Critical temperature, K (Liquid); method: Visual observation in an unstirred cell
Mole fraction of 2,2,4-trimethylpentane	Critical temperature, K	uncertainty
0.057	627.7	3
0.136	618.8	3
0.425	586.7	3
0.561	575.5	2.9
0.738	561.7	2.9
0.794	556.4	2.9
1	544	2.8

System: 1,2-dichlorobenzene + 2,2,4-trimethylpentane; phases: Liquid, Gas
Property: Critical temperature, K (Liquid); method: Visual observation in an unstirred cell
Mole fraction of 2,2,4-trimethylpentane	Critical temperature, K	uncertainty
0	698.8	2.8
0.059	687.1	3.4
0.332	638.9	3.3
0.487	614.4	3.2
0.618	594.1	3.2
0.773	571.1	3.2
0.863	558.6	3
1	544	2.8

System: 2,2,4-trimethylpentane + 1,3-dichlorobenzene; phases: Liquid, Gas
Property: Critical temperature, K (Liquid); method: Visual observation in an unstirred cell
Mole fraction of 2,2,4-trimethylpentane	Critical temperature, K	uncertainty
0.091	667.1	2.9
0.112	665.2	2.9
0.226	645.2	3.2
0.429	614.7	3.2
0.653	583.6	3.1
0.837	560.4	3.1
0.854	558.2	3.1
1	544	2.8

System: cyclooctane + fluorobenzene; phases: Liquid, Gas
Property: Critical temperature, K (Liquid); method: Visual observation in an unstirred cell
Mole fraction of cyclooctane	Critical temperature, K	uncertainty
0	557.3	2.8
0.081	563.6	2.9
0.209	574	2.9
0.3	581.5	3
0.467	597.7	3
0.668	619.1	3
0.879	637.5	2.9

System: chlorobenzene + cyclooctane; phases: Liquid, Gas
Property: Critical temperature, K (Liquid); method: Visual observation in an unstirred cell
Mole fraction of cyclooctane	Critical temperature, K	uncertainty
0.097	632.6	2.8
0.131	632.5	2.8
0.254	633.9	2.8
0.448	637.1	2.8
0.53	639.7	2.8
0.795	644.7	2.8
0.873	646.4	2.8

System: 1,2-dichlorobenzene + cyclooctane; phases: Liquid, Gas
Property: Critical temperature, K (Liquid); method: Visual observation in an unstirred cell
Mole fraction of cyclooctane	Critical temperature, K	uncertainty
0	698.8	2.8
0.098	694.2	2.9
0.158	687.9	2.9
0.335	674.5	2.9
0.576	663.1	2.8
0.629	661.4	2.8
0.844	653.1	2.8

System: cyclooctane + 1,3-dichlorobenzene; phases: Liquid, Gas
Property: Critical temperature, K (Liquid); method: Visual observation in an unstirred cell
Mole fraction of cyclooctane	Critical temperature, K	uncertainty
0.123	678.5	2.8
0.229	673.4	2.9
0.282	670.1	2.8
0.454	663.3	2.8
0.613	658.1	2.8
0.796	653.3	2.8

System: 1,2-dichlorobenzene + octane; phases: Liquid, Gas
Property: Critical temperature, K (Liquid); method: Visual observation in an unstirred cell
Mole fraction of octane	Critical temperature, K	uncertainty
0	698.8	2.8
0.079	682.5	3.4
0.146	671.4	3.3
0.294	644.7	3
0.322	641.6	3
0.49	614.3	3.1
0.67	596.5	3
0.888	576.1	2.9
1	568.8	2.8

System: octane + 1,3-dichlorobenzene; phases: Liquid, Gas
Property: Critical temperature, K (Liquid); method: Visual observation in an unstirred cell
Mole fraction of octane	Critical temperature, K	uncertainty
0.256	649.9	3
0.308	643.7	3.1
0.432	625.2	3.1
0.649	598.1	3
0.808	583.1	2.9
0.909	577.2	2.9
1	568.8	2.8
