Measured thermophysical data. Experimental and Modeling Studies on the Solubility of 2-Chloro-N-(4-methylphenyl)propanamide (S1) in Binary Ethyl Acetate + Hexane, Toluene + Hexane, Acetone + Hexane, and Butanone + Hexane Solvent Mixtures Using Polythermal Method
Source: J. Chem. Eng. Data, 2017, 10.1021/acs.jced.7b00288
Compound 1: 2-chloro-N-(4-methylphenyl)propanamide, C10H12ClNO, InChI=1S/C10H12ClNO/c1-7-3-5-9(6-4-7)12-10(13)8(2)11/h3-6,8H,1-2H3,(H,12,13), purity 99%
Compound 2: ethyl acetate, C4H8O2, InChI=1S/C4H8O2/c1-3-6-4(2)5/h3H2,1-2H3, purity 99.5%
Compound 3: toluene, C7H8, InChI=1S/C7H8/c1-7-5-3-2-4-6-7/h2-6H,1H3, purity 99.9%
Compound 4: acetone, C3H6O, InChI=1S/C3H6O/c1-3(2)4/h1-2H3, purity 99.8%
Compound 5: butanone, C4H8O, InChI=1S/C4H8O/c1-3-4(2)5/h3H2,1-2H3, purity 99.7%
Compound 6: hexane, C6H14, InChI=1S/C6H14/c1-3-5-6-4-2/h3-6H2,1-2H3, purity 97%
Compound 7: N-acetyl-p-aminophenol, C8H9NO2, InChI=1S/C8H9NO2/c1-6(10)9-7-2-4-8(11)5-3-7/h2-5,11H,1H3,(H,9,10), purity 98%
Compound 8: water, H2O, InChI=1S/H2O/h1H2, purity 99.9%

System: 2-chloro-N-(4-methylphenyl)propanamide; phases: Crystal, Liquid, Air at 1 atmosphere
Property: Normal melting temperature, K (Crystal); method: DTA
Normal melting temperature, K	uncertainty
394.83	0.43

System: 2-chloro-N-(4-methylphenyl)propanamide; phases: Crystal, Liquid, Air at 1 atmosphere
Property: Molar enthalpy of transition or fusion, kJ/mol (Crystal); method: DSC
Molar enthalpy of transition or fusion, kJ/mol	uncertainty
26.77	0.86

System: N-acetyl-p-aminophenol + water; phases: Liquid, Crystal
Fixed: Pressure, kPa = 101.3
Property: Solid-liquid equilibrium temperature, K (Liquid); method: VISOBS
Mole fraction of N-acetyl-p-aminophenol	Solid-liquid equilibrium temperature, K	uncertainty
0.00132	288.24	4
0.00153	293.62	4
0.00181	298.66	4
0.0021	302.88	4
0.00247	307.94	4
0.00293	312.88	4
0.00345	318.2	4
0.00408	322.99	4

System: 2-chloro-N-(4-methylphenyl)propanamide + ethyl acetate + hexane; phases: Liquid, Crystal
Fixed: Pressure, kPa = 101.3
Property: Solid-liquid equilibrium temperature, K (Liquid); method: VISOBS
Solvent: Mass fraction of ethyl acetate	Mole fraction of 2-chloro-N-(4-methylphenyl)propanamide	Solid-liquid equilibrium temperature, K	uncertainty
0.8	0.02687	273.43	4
0.8	0.03271	280.55	4
0.8	0.03529	284.51	4
0.8	0.04108	289.9	4
0.8	0.04912	295.86	4
0.8	0.06109	302.06	4
0.8	0.06924	307.8	4
0.8	0.08002	311.78	4
0.8	0.09477	316.97	4
0.8	0.1162	321.82	4
0.6	0.01677	275.08	4
0.6	0.02045	282.86	4
0.6	0.02621	291.34	4
0.6	0.03347	298.87	4
0.6	0.03998	303.81	4
0.6	0.04492	306.38	4
0.6	0.05479	315	4
0.6	0.06542	320.32	4
0.6	0.08545	324.32	4
0.6	0.10071	327.67	4
0.4	0.01047	278.92	4
0.4	0.01274	282.01	4
0.4	0.01368	288.62	4
0.4	0.01666	291.49	4
0.4	0.0179	300.2	4
0.4	0.0233	305.25	4
0.4	0.03001	312.3	4
0.4	0.0408	318.43	4
0.4	0.05084	325.13	4
0.4	0.05971	327.67	4
0.2	0.00277	275.79	4
0.2	0.00351	280.71	4
0.2	0.0044	286.57	4
0.2	0.00568	292.96	4
0.2	0.00785	302.07	4
0.2	0.00907	309.19	4
0.2	0.01091	314.89	4
0.2	0.01459	318.71	4
0.2	0.01623	321.54	4
0.2	0.02098	327.67	4

System: 2-chloro-N-(4-methylphenyl)propanamide + toluene + hexane; phases: Liquid, Crystal
Fixed: Pressure, kPa = 101.3
Property: Solid-liquid equilibrium temperature, K (Liquid); method: VISOBS
Solvent: Mass fraction of toluene	Mole fraction of 2-chloro-N-(4-methylphenyl)propanamide	Solid-liquid equilibrium temperature, K	uncertainty
1	0.00517	273.24	4
1	0.00719	278.33	4
1	0.00929	285.5	4
1	0.01251	290.93	4
1	0.01675	297.29	4
1	0.02	301.24	4
1	0.02785	307.73	4
1	0.03558	312.06	4
1	0.0413	315.66	4
1	0.05794	321.66	4
0.8	0.00407	278.26	4
0.8	0.00539	286.03	4
0.8	0.00675	292.31	4
0.8	0.00998	297.02	4
0.8	0.01297	302.36	4
0.8	0.01798	308.95	4
0.8	0.02175	313.74	4
0.8	0.02624	316.55	4
0.8	0.03305	321.18	4
0.8	0.04468	326.46	4
0.6	0.0025	278.51	4
0.6	0.00295	281.86	4
0.6	0.00363	285.78	4
0.6	0.00463	289.67	4
0.6	0.00612	296.39	4
0.6	0.00869	308.14	4
0.6	0.00995	311.71	4
0.6	0.01164	315.29	4
0.6	0.01402	320.67	4
0.6	0.01845	324.07	4
0.4	0.00156	285.35	4
0.4	0.00292	293.53	4
0.4	0.00392	297.25	4
0.4	0.00579	304.24	4
0.4	0.00667	307.91	4
0.4	0.00769	313.39	4
0.4	0.0084	318.25	4
0.4	0.00985	321.77	4
0.4	0.01313	326.94	4
0.4	0.0155	331.62	4

System: 2-chloro-N-(4-methylphenyl)propanamide + acetone + hexane; phases: Liquid, Crystal
Fixed: Pressure, kPa = 101.3
Property: Solid-liquid equilibrium temperature, K (Liquid); method: VISOBS
Solvent: Mass fraction of acetone	Mole fraction of 2-chloro-N-(4-methylphenyl)propanamide	Solid-liquid equilibrium temperature, K	uncertainty
1	0.06158	271.96	4
1	0.07673	283.37	4
1	0.08113	287.02	4
1	0.08608	290.81	4
1	0.09166	294.37	4
1	0.10533	300.04	4
1	0.11381	302.89	4
1	0.13568	305.58	4
1	0.15009	307.95	4
1	0.15507	310.94	4
0.8	0.05017	269.81	4
0.8	0.06104	279.02	4
0.8	0.06845	285.52	4
0.8	0.07793	287.18	4
0.8	0.08192	292.69	4
0.8	0.10198	300.27	4
0.8	0.12272	306.06	4
0.8	0.13506	308.65	4
0.8	0.14253	313.31	4
0.8	0.17203	318.18	4
0.6	0.04251	276.51	4
0.6	0.05589	284.73	4
0.6	0.05783	286.58	4
0.6	0.06459	290.72	4
0.6	0.07315	294.67	4
0.6	0.08431	298.49	4
0.6	0.09949	302.48	4
0.6	0.12135	307.52	4
0.6	0.15514	313.5	4
0.6	0.19187	318.38	4
0.4	0.01951	279.77	4
0.4	0.02043	282.54	4
0.4	0.02692	291.55	4
0.4	0.03729	292.79	4
0.4	0.04585	299	4
0.4	0.05431	300.62	4
0.4	0.06329	306.58	4
0.4	0.07582	312.23	4
0.4	0.08735	315.07	4
0.4	0.10302	318.8	4

System: 2-chloro-N-(4-methylphenyl)propanamide + butanone + hexane; phases: Liquid, Crystal
Fixed: Pressure, kPa = 101.3
Property: Solid-liquid equilibrium temperature, K (Liquid); method: VISOBS
Solvent: Mass fraction of butanone	Mole fraction of 2-chloro-N-(4-methylphenyl)propanamide	Solid-liquid equilibrium temperature, K	uncertainty
1	0.07741	271.23	4
1	0.08287	275.52	4
1	0.08916	280.9	4
1	0.10512	285.45	4
1	0.11545	291.46	4
1	0.12804	296.73	4
1	0.13038	302.41	4
1	0.14888	307.63	4
1	0.17349	313.15	4
1	0.20785	319.11	4
0.8	0.04639	267.1	4
0.8	0.05733	275.61	4
0.8	0.06911	282.71	4
0.8	0.07846	288.74	4
0.8	0.08851	294.84	4
0.8	0.09589	296.95	4
0.8	0.11011	303.07	4
0.8	0.12929	309.04	4
0.8	0.16263	316.09	4
0.8	0.19535	321.41	4
0.6	0.03505	274.6	4
0.6	0.04419	281.33	4
0.6	0.05176	286.43	4
0.6	0.05689	291.08	4
0.6	0.07079	294.49	4
0.6	0.08225	300.32	4
0.6	0.09815	306.78	4
0.6	0.11266	311.37	4
0.6	0.13222	315.91	4
0.6	0.15998	322.92	4
0.4	0.01855	274.95	4
0.4	0.02244	284.12	4
0.4	0.03182	294.62	4
0.4	0.05001	302.86	4
0.4	0.05526	305.01	4
0.4	0.06174	306.8	4
0.4	0.06994	309.25	4
0.4	0.08066	312.4	4
0.4	0.09526	315.87	4
0.4	0.1163	320.5	4

System: 2-chloro-N-(4-methylphenyl)propanamide + toluene; phases: Liquid, Crystal
Fixed: Pressure, kPa = 101.3
Property: Solid-liquid equilibrium temperature, K (Liquid); method: VISOBS
Mole fraction of 2-chloro-N-(4-methylphenyl)propanamide	Solid-liquid equilibrium temperature, K	uncertainty
0.00517	273.24	4
0.00719	278.33	4
0.00929	285.5	4
0.01251	290.93	4
0.01675	297.29	4
0.02	301.24	4
0.02785	307.73	4
0.03558	312.06	4
0.0413	315.66	4
0.05794	321.66	4

System: 2-chloro-N-(4-methylphenyl)propanamide + acetone; phases: Liquid, Crystal
Fixed: Pressure, kPa = 101.3
Property: Solid-liquid equilibrium temperature, K (Liquid); method: VISOBS
Mole fraction of 2-chloro-N-(4-methylphenyl)propanamide	Solid-liquid equilibrium temperature, K	uncertainty
0.06158	271.96	4
0.07673	283.37	4
0.08113	287.02	4
0.08608	290.81	4
0.09166	294.37	4
0.10533	300.04	4
0.11381	302.89	4
0.13568	305.58	4
0.15009	307.95	4
0.15507	310.94	4

System: 2-chloro-N-(4-methylphenyl)propanamide + butanone; phases: Liquid, Crystal
Fixed: Pressure, kPa = 101.3
Property: Solid-liquid equilibrium temperature, K (Liquid); method: VISOBS
Mole fraction of 2-chloro-N-(4-methylphenyl)propanamide	Solid-liquid equilibrium temperature, K	uncertainty
0.07741	271.23	4
0.08287	275.52	4
0.08916	280.9	4
0.10512	285.45	4
0.11545	291.46	4
0.12804	296.73	4
0.13038	302.41	4
0.14888	307.63	4
0.17349	313.15	4
0.20785	319.11	4
