Measured thermophysical data. Viscosities of Liquid Hexadecane at Temperatures between 323 K and 673 K and Pressures up to 4 MPa Measured Using a Dual-Capillary Viscometer
Source: J. Chem. Eng. Data, 2019, 10.1021/acs.jced.8b00930
Compound 1: hexadecane, C16H34, InChI=1S/C16H34/c1-3-5-7-9-11-13-15-16-14-12-10-8-6-4-2/h3-16H2,1-2H3, purity 99.6%

System: hexadecane; phases: Liquid
Property: Viscosity, Pa*s (Liquid); method: Capillary tube (Ostwald; Ubbelohde) method
Temperature, K	Pressure, kPa	Viscosity, Pa*s	uncertainty
323.7	970	0.001857	6.3e-05
322.7	1940	0.001885	6.6e-05
323.8	1980	0.001878	6.6e-05
323.7	3000	0.001904	6.5e-05
323.8	3910	0.001925	6.6e-05
372.7	990	0.000909	3.1e-05
372.7	1960	0.000922	8.3e-05
372.8	2970	0.000929	3.1e-05
372.8	3950	0.000947	0.000149
373.9	980	0.000896	3.1e-05
373.9	2000	0.000909	8.3e-05
373.9	2980	0.000915	3.1e-05
373.9	3900	0.000936	0.000169
422.9	1990	0.000554	1.9e-05
422.9	2970	0.000557	1.9e-05
422.9	3840	0.000568	2e-05
471.9	1000	0.000358	1.3e-05
472	2010	0.000363	1.2e-05
472.1	2910	0.000371	1.3e-05
472.1	3870	0.000374	1.5e-05
473.7	3990	0.000375	2e-05
521.9	970	0.000245	8e-06
521.9	1960	0.000254	9e-06
521.9	2950	0.00026	9e-06
522	3830	0.000267	9e-06
572.2	2000	0.000187	6e-06
572.1	2930	0.000192	7e-06
572.2	3850	0.000196	7e-06
621.9	2010	0.000131	5e-06
622	2890	0.000137	5e-06
622.1	3820	0.000142	5e-06
623.2	3990	0.000143	5e-06
673.2	2000	9.1e-05	3e-06
673.6	3000	9.7e-05	3e-06
672.6	3990	0.000104	4e-06
