Measured thermophysical data. Vapor Pressure Measurements and Correlation for trans-1-Chloro-3,3,3-trifluoroprop-1-ene
Source: J. Chem. Eng. Data, 2019, 10.1021/acs.jced.9b00001
Compound 1: (E)-1-chloro-3,3,3-trifluoroprop-1-ene, C3H2ClF3, InChI=1S/C3H2ClF3/c4-2-1-3(5,6)7/h1-2H/b2-1+, purity 99.271%

System: (E)-1-chloro-3,3,3-trifluoroprop-1-ene; phases: Liquid, Gas
Property: Vapor or sublimation pressure, kPa (Liquid); method: Closed cell (Static) method
Temperature, K	Vapor or sublimation pressure, kPa	uncertainty
253.171	17.85	0.33
257.158	22.05	0.34
260.172	25.84	0.34
263.21	30.13	0.34
267.037	36.26	0.35
267.041	36.26	0.36
270.139	41.85	0.37
273.137	47.91	0.37
277.105	57.02	0.38
280.145	64.83	0.39
283.094	73.21	0.41
287.122	86.04	0.42
290.141	96.6	0.44
290.158	96.73	0.44
293.087	108.04	0.44
293.171	108.4	0.45
297.153	125.37	0.48
297.16	125.42	0.49
300.151	139.48	0.5
303.156	154.83	0.51
307.159	177.3	0.54
310.15	195.73	0.57
313.153	215.48	0.59
317.157	244.36	0.62
320.163	267.95	0.65
323.151	293.08	0.67
323.255	293.99	0.68
323.359	295.01	0.69
327.162	329.62	0.73
330.151	359.02	0.77
333.138	390.34	0.8
333.142	390.35	0.8
333.153	390.53	0.81
337.155	435.75	0.87
340.155	472.19	0.92
343.129	510.48	0.96
343.15	510.8	0.96
343.186	511.2	0.96
347.15	566.08	1.03
350.163	610.55	1.09
353.177	657.68	1.16
353.184	657.72	1.16
353.194	657.8	1.16
357.159	724.03	1.25
360.156	777.18	1.32
363.168	833.48	1.4
363.2	834.12	1.39
363.226	834.57	1.39
367.172	913.02	1.5
370.165	976.1	1.6
373.172	1042.63	1.7
373.192	1043.17	1.7
373.195	1043.26	1.71
377.153	1136.09	1.86
380.152	1210.36	1.98
383.205	1289.73	2.11
383.21	1289.93	2.11
383.223	1290.45	2.11
387.164	1398.34	2.28
390.151	1484.77	2.42
393.168	1576.17	2.57
393.204	1577.72	2.57
393.209	1577.39	2.57
397.18	1703.98	2.78
400.238	1806.72	2.94
403.142	1908.38	3.11
403.155	1908.95	3.11
403.224	1911.41	3.11
403.257	1912.9	3.12
407.132	2055.47	3.35
410.174	2173.26	3.54
413.104	2291.67	3.73
413.179	2294.52	3.74
413.186	2294.63	3.74
413.195	2295.1	3.74
417.176	2463.87	4.01
420.133	2595.75	4.23
423.147	2735.4	4.45
423.154	2736.01	4.45
423.194	2737.46	4.46
427.189	2932.68	4.77
430.247	3090.57	5.03
343.152	510.94	0.87
353.188	657.95	1.08
363.228	835.18	1.37
373.169	1043.1	1.7
383.219	1290.59	2.11
393.21	1578.05	2.57
397.218	1705.74	2.78
400.233	1806.87	2.94
403.219	1911.94	3.12
408.249	2098.34	3.42
413.19	2294.89	3.74
418.233	2510.39	4.09
423.18	2737.1	4.46
