Measured thermophysical data. Solubility Modeling of 4-(Methylsulfonyl)benzaldehyde in Nine Organic Solvents at Elevated Temperatures
Source: J. Chem. Eng. Data, 2016, 10.1021/acs.jced.5b01053
Compound 1: 4-(methylsulfonyl)benzaldehyde, C8H8O3S, InChI=1S/C8H8O3S/c1-12(10,11)8-4-2-7(6-9)3-5-8/h2-6H,1H3
Compound 2: methanol, CH4O, InChI=1S/CH4O/c1-2/h2H,1H3, purity 99.5%
Compound 3: ethanol, C2H6O, InChI=1S/C2H6O/c1-2-3/h3H,2H2,1H3, purity 99.7%
Compound 4: propan-1-ol, C3H8O, InChI=1S/C3H8O/c1-2-3-4/h4H,2-3H2,1H3, purity 99.5%
Compound 5: propan-2-ol, C3H8O, InChI=1S/C3H8O/c1-3(2)4/h3-4H,1-2H3, purity 99.7%
Compound 6: butan-1-ol, C4H10O, InChI=1S/C4H10O/c1-2-3-4-5/h5H,2-4H2,1H3, purity 99.5%
Compound 7: acetone, C3H6O, InChI=1S/C3H6O/c1-3(2)4/h1-2H3, purity 99.5%
Compound 8: acetonitrile, C2H3N, InChI=1S/C2H3N/c1-2-3/h1H3, purity 99.6%
Compound 9: toluene, C7H8, InChI=1S/C7H8/c1-7-5-3-2-4-6-7/h2-6H,1H3, purity 99.5%
Compound 10: acetic acid, C2H4O2, InChI=1S/C2H4O2/c1-2(3)4/h1H3,(H,3,4), purity 99.5%

System: 4-(methylsulfonyl)benzaldehyde; phases: Crystal, Liquid, Air at 1 atmosphere
Property: Molar enthalpy of transition or fusion, kJ/mol (Crystal); method: DSC
Molar enthalpy of transition or fusion, kJ/mol	uncertainty
26.19	0.96

System: 4-(methylsulfonyl)benzaldehyde; phases: Crystal
Property: Mass density, kg/m3 (Crystal); method: Vibrating tube method
Temperature, K	Pressure, kPa	Mass density, kg/m3	uncertainty
298.15	101.325	1289	3

System: 4-(methylsulfonyl)benzaldehyde; phases: Crystal, Liquid
Property: Solid-liquid equilibrium temperature, K (Crystal); method: DTA
Pressure, kPa	Solid-liquid equilibrium temperature, K	uncertainty
101	431.49	1.02

System: acetonitrile + 4-(methylsulfonyl)benzaldehyde; phases: Liquid, Crystal
Fixed: Pressure, kPa = 101.3
Property: Mole fraction of 4-(methylsulfonyl)benzaldehyde (Liquid); method: Chromatography
Temperature, K	Mole fraction of 4-(methylsulfonyl)benzaldehyde	uncertainty
283.15	0.005984	0.000241
285.65	0.006612	0.000266
288.15	0.007336	0.000295
290.65	0.008142	0.000328
293.15	0.00903	0.000364
295.65	0.01007	0.00041
298.15	0.01109	0.00045
300.65	0.01235	0.0005
303.15	0.01367	0.00055
305.65	0.01522	0.00061
308.15	0.01697	0.00068
310.65	0.01898	0.00076
313.15	0.02097	0.00084
315.65	0.02301	0.00093
318.15	0.02518	0.00101

System: methanol + 4-(methylsulfonyl)benzaldehyde; phases: Liquid, Crystal
Fixed: Pressure, kPa = 101.3
Property: Mole fraction of 4-(methylsulfonyl)benzaldehyde (Liquid); method: Chromatography
Temperature, K	Mole fraction of 4-(methylsulfonyl)benzaldehyde	uncertainty
283.15	0.002056	8.3e-05
285.65	0.0022	8.8e-05
288.15	0.002423	9.7e-05
290.65	0.002659	0.000107
293.15	0.002954	0.000119
295.65	0.003246	0.000131
298.15	0.003577	0.000144
300.65	0.003921	0.000158
303.15	0.004311	0.000173
305.65	0.004711	0.00019
308.15	0.005184	0.000209
310.65	0.005718	0.00023
313.15	0.00623	0.00025
315.65	0.006777	0.000272
318.15	0.007393	0.000297

System: ethanol + 4-(methylsulfonyl)benzaldehyde; phases: Liquid, Crystal
Fixed: Pressure, kPa = 101.3
Property: Mole fraction of 4-(methylsulfonyl)benzaldehyde (Liquid); method: Chromatography
Temperature, K	Mole fraction of 4-(methylsulfonyl)benzaldehyde	uncertainty
283.15	0.0008687	3.49e-05
285.65	0.0009439	3.8e-05
288.15	0.001034	4.2e-05
290.65	0.001166	4.7e-05
293.15	0.001297	5.2e-05
295.65	0.001432	5.8e-05
298.15	0.001584	6.4e-05
300.65	0.001737	7e-05
303.15	0.001916	7.7e-05
305.65	0.00212	8.5e-05
308.15	0.00235	9.5e-05
310.65	0.002576	0.000104
313.15	0.002837	0.000114
315.65	0.003108	0.000125
318.15	0.003411	0.000137

System: propan-1-ol + 4-(methylsulfonyl)benzaldehyde; phases: Liquid, Crystal
Fixed: Pressure, kPa = 101.3
Property: Mole fraction of 4-(methylsulfonyl)benzaldehyde (Liquid); method: Chromatography
Temperature, K	Mole fraction of 4-(methylsulfonyl)benzaldehyde	uncertainty
283.15	0.000541	2.17e-05
285.65	0.0005874	2.36e-05
288.15	0.0006585	2.66e-05
290.65	0.0007418	2.99e-05
293.15	0.0008347	3.37e-05
295.65	0.0009331	3.76e-05
298.15	0.001052	4.2e-05
300.65	0.001149	4.6e-05
303.15	0.001264	5.1e-05
305.65	0.00141	5.7e-05
308.15	0.001571	6.3e-05
310.65	0.001758	7.1e-05
313.15	0.001944	7.8e-05
315.65	0.002157	8.7e-05
318.15	0.002413	9.7e-05

System: propan-2-ol + 4-(methylsulfonyl)benzaldehyde; phases: Liquid, Crystal
Fixed: Pressure, kPa = 101.3
Property: Mole fraction of 4-(methylsulfonyl)benzaldehyde (Liquid); method: Chromatography
Temperature, K	Mole fraction of 4-(methylsulfonyl)benzaldehyde	uncertainty
283.15	0.0002877	1.16e-05
285.65	0.0003213	1.29e-05
288.15	0.0003549	1.43e-05
290.65	0.0004049	1.63e-05
293.15	0.0004451	1.79e-05
295.65	0.0005016	2.02e-05
298.15	0.0005598	2.26e-05
300.65	0.0006287	2.53e-05
303.15	0.0007033	2.84e-05
305.65	0.0007959	3.21e-05
308.15	0.0008943	3.61e-05
310.65	0.001007	4.1e-05
313.15	0.001125	4.5e-05
315.65	0.001251	5e-05
318.15	0.001393	5.6e-05

System: acetone + 4-(methylsulfonyl)benzaldehyde; phases: Liquid, Crystal
Fixed: Pressure, kPa = 101.3
Property: Mole fraction of 4-(methylsulfonyl)benzaldehyde (Liquid); method: Chromatography
Temperature, K	Mole fraction of 4-(methylsulfonyl)benzaldehyde	uncertainty
283.15	0.007978	0.000321
285.65	0.008716	0.00035
288.15	0.009372	0.000377
290.65	0.0104	0.00042
293.15	0.01141	0.00046
295.65	0.01258	0.00051
298.15	0.01361	0.00055
300.65	0.0148	0.00059
303.15	0.01608	0.00065
305.65	0.0174	0.0007
308.15	0.01888	0.00076
310.65	0.02061	0.00083
313.15	0.02255	0.00091
315.65	0.02451	0.00099
318.15	0.0269	0.00108

System: toluene + 4-(methylsulfonyl)benzaldehyde; phases: Liquid, Crystal
Fixed: Pressure, kPa = 101.3
Property: Mole fraction of 4-(methylsulfonyl)benzaldehyde (Liquid); method: Chromatography
Temperature, K	Mole fraction of 4-(methylsulfonyl)benzaldehyde	uncertainty
283.15	0.0007462	3.01e-05
285.65	0.0008249	3.32e-05
288.15	0.0009189	3.7e-05
290.65	0.00103	4.2e-05
293.15	0.001155	4.7e-05
295.65	0.001282	5.2e-05
298.15	0.001437	5.8e-05
300.65	0.001612	6.5e-05
303.15	0.001802	7.3e-05
305.65	0.002001	8.1e-05
308.15	0.002241	9e-05
310.65	0.002499	0.000101
313.15	0.002759	0.000111
315.65	0.003076	0.000124
318.15	0.003395	0.000137

System: acetic acid + 4-(methylsulfonyl)benzaldehyde; phases: Liquid, Crystal
Fixed: Pressure, kPa = 101.3
Property: Mole fraction of 4-(methylsulfonyl)benzaldehyde (Liquid); method: Chromatography
Temperature, K	Mole fraction of 4-(methylsulfonyl)benzaldehyde	uncertainty
283.15	0.003364	0.000135
285.65	0.003684	0.000148
288.15	0.00401	0.000161
290.65	0.004451	0.000179
293.15	0.004877	0.000196
295.65	0.005389	0.000217
298.15	0.005978	0.000241
300.65	0.006625	0.000267
303.15	0.007271	0.000293
305.65	0.008109	0.000327
308.15	0.008955	0.00036
310.65	0.009843	0.000396
313.15	0.01079	0.00043
315.65	0.01175	0.00047
318.15	0.01285	0.00052

System: butan-1-ol + 4-(methylsulfonyl)benzaldehyde; phases: Liquid, Crystal
Fixed: Pressure, kPa = 101.3
Property: Mole fraction of 4-(methylsulfonyl)benzaldehyde (Liquid); method: Chromatography
Temperature, K	Mole fraction of 4-(methylsulfonyl)benzaldehyde	uncertainty
283.15	0.0005956	2.4e-05
285.65	0.0006516	2.62e-05
288.15	0.000724	2.92e-05
290.65	0.0008279	3.34e-05
293.15	0.0009235	3.72e-05
295.65	0.001019	4.1e-05
298.15	0.001139	4.6e-05
300.65	0.001279	5.2e-05
303.15	0.001404	5.7e-05
305.65	0.001549	6.2e-05
308.15	0.001712	6.9e-05
310.65	0.00191	7.7e-05
313.15	0.002108	8.5e-05
315.65	0.002324	9.4e-05
318.15	0.002598	0.000105
