Measured thermophysical data. Phase Equilibria in the Ternary System (LiCl + Li2SO4 + H2O) at T = (288.15 and 308.15) K: Experimental Determination and Model Simulation
Source: J. Chem. Eng. Data, 2016, 10.1021/acs.jced.5b00805
Compound 1: lithium chloride, ClLi, InChI=1S/ClH.Li/h1H;/q;+1/p-1, purity 98%
Compound 2: water, H2O, InChI=1S/H2O/h1H2, purity 99.9%
Compound 3: lithium sulfate, Li2O4S, InChI=1S/2Li.H2O4S/c;;1-5(2,3)4/h;;(H2,1,2,3,4)/q2*+1;/p-2, purity 99%

System: lithium chloride + water + lithium sulfate; phases: Liquid, Crystal of intercomponent compound 1
Fixed: Pressure, kPa = 100
Property: Mass fraction of lithium sulfate (Liquid); method: titration+gravimetric+spectroscopy
Mass fraction of lithium chloride	Temperature, K	Mass fraction of lithium sulfate	uncertainty
0	288.15	0.2601	0.00166
0.0317	288.15	0.2102	0.00137
0.0612	288.15	0.1651	0.00118
0.0901	288.15	0.1237	0.00107
0.1206	288.15	0.0847	0.00102
0.1488	288.15	0.0538	0.00076
0.1997	288.15	0.0227	0.00055
0.2399	288.15	0.0139	0.00025
0.3008	288.15	0.006	0.00019
0.3438	288.15	0.0036	8e-05
0.3786	288.15	0.003	4e-05
0.3883	288.15	0.0029	3e-05
0.4397	288.15	0.0015	7e-05
0	308.15	0.2537	0.00161
0.041	308.15	0.1879	0.00125
0.0788	308.15	0.133	0.00106
0.123	308.15	0.077	0.00099
0.1516	308.15	0.0486	0.00078
0.1969	308.15	0.0184	0.00062
0.228	308.15	0.0103	0.00028
0.2652	308.15	0.0045	0.00018
0.3085	308.15	0.0015	8e-05
0.3537	308.15	0.00081	3e-05
0.3913	308.15	0.00059	1e-05
0.448	308.15	0.00058	1e-05
0.4651	308.15	0.00057	1e-05

System: lithium chloride + water + lithium sulfate; phases: Liquid, Crystal of intercomponent compound 2
Fixed: Pressure, kPa = 100
Property: Mass fraction of lithium sulfate (Liquid); method: titration+gravimetric+spectroscopy
Mass fraction of lithium chloride	Temperature, K	Mass fraction of lithium sulfate	uncertainty
0.4397	288.15	0.0015	0.0015
0.439	288.15	0.00097	0.00097
0.4394	288.15	0.00036	0.00036
0.4413	288.15	0	
0.4651	308.15	0.00057	0.00057
0.463	308.15	0.00055	3e-05
0.4652	308.15	0.00048	0.00048
0.4664	308.15	0	

System: lithium chloride + water + lithium sulfate; phases: Liquid
Fixed: Pressure, kPa = 100
Property: Mass density, kg/m3 (Liquid); method: Vibrating tube method
Mass fraction of lithium chloride	Mass fraction of lithium sulfate	Temperature, K	Mass density, kg/m3	uncertainty
0	0.2601	288.15	1236.43	2.69
0.0317	0.2102	288.15	1206.92	2.11
0.0612	0.1651	288.15	1181.4	1.92
0.0901	0.1237	288.15	1160.8	1.3
0.1206	0.0847	288.15	1143.51	1.24
0.1488	0.0538	288.15	1133.24	1.2
0.1997	0.0227	288.15	1132.16	1.23
0.2399	0.0139	288.15	1147.02	1.5
0.3008	0.006	288.15	1187.37	1.56
0.3438	0.0036	288.15	1213.54	2.39
0.3786	0.003	288.15	1245.22	1.72
0.3883	0.0029	288.15	1252.81	2.27
0.4397	0.0015	288.15	1285.67	2.27
0	0.2537	308.15	1226.22	2.63
0.041	0.1879	308.15	1185.74	1.03
0.0788	0.133	308.15	1157.56	1.73
0.123	0.077	308.15	1133.65	1.22
0.1516	0.0486	308.15	1125.22	1.22
0.1969	0.0184	308.15	1126.28	1.19
0.228	0.0103	308.15	1136.64	1.44
0.2652	0.0045	308.15	1157.92	1.48
0.3085	0.0015	308.15	1184.58	1.68
0.3537	0.00081	308.15	1218.2	1.82
0.3913	0.00059	308.15	1245.41	2.02
0.448	0.00058	308.15	1287.49	2.79
0.4651	0.00057	308.15	1303.57	2.82

System: lithium chloride + water + lithium sulfate; phases: Liquid
Fixed: Pressure, kPa = 100
Property: Mass density, kg/m3 (Liquid); method: Vibrating tube method
Mass fraction of lithium chloride	Mass fraction of lithium sulfate	Temperature, K	Mass density, kg/m3	uncertainty
0.4397	0.0015	288.15	1285.67	1.07
0.439	0.00097	288.15	1285.97	7.14
0.4394	0.00036	288.15	1289.55	2.85
0.4413	0	288.15	1287.19	4.87
0.4651	0.00057	308.15	1303.57	2.77
0.463	0.00055	308.15	1301.06	3.3
0.4652	0.00048	308.15	1301.07	2.77
0.4664	0	308.15	1301.11	1.02

System: lithium chloride + water + lithium sulfate; phases: Liquid
Fixed: Pressure, kPa = 100
Property: Refractive index (Na D-line) (Liquid); method: Standard Abbe refractometry
Mass fraction of lithium chloride	Mass fraction of lithium sulfate	Temperature, K	Refractive index (Na D-line)	uncertainty
0	0.2601	288.15	1.3845	0.0026
0.0317	0.2102	288.15	1.3821	0.0011
0.0612	0.1651	288.15	1.3809	0.0005
0.0901	0.1237	288.15	1.3801	0.0004
0.1206	0.0847	288.15	1.3799	0.0004
0.1488	0.0538	288.15	1.3807	0.0004
0.1997	0.0227	288.15	1.3858	0.0004
0.2399	0.0139	288.15	1.3927	0.0005
0.3008	0.006	288.15	1.4076	0.0005
0.3438	0.0036	288.15	1.4162	0.0007
0.3786	0.003	288.15	1.4259	0.0005
0.3883	0.0029	288.15	1.4274	0.0005
0.4397	0.0015	288.15	1.439	0.0007
0	0.2537	308.15	1.3738	0.0026
0.041	0.1879	308.15	1.3715	0.0004
0.0788	0.133	308.15	1.3703	0.0005
0.123	0.077	308.15	1.3701	0.0004
0.1516	0.0486	308.15	1.3721	0.0004
0.1969	0.0184	308.15	1.3769	0.0004
0.228	0.0103	308.15	1.382	0.0005
0.2652	0.0045	308.15	1.3901	0.0005
0.3085	0.0015	308.15	1.3999	0.0006
0.3537	0.00081	308.15	1.4108	0.0006
0.3913	0.00059	308.15	1.4193	0.0007
0.448	0.00058	308.15	1.4324	0.0007
0.4651	0.00057	308.15	1.4363	0.0007

System: lithium chloride + water + lithium sulfate; phases: Liquid
Fixed: Pressure, kPa = 100
Property: Refractive index (Na D-line) (Liquid); method: Standard Abbe refractometry
Mass fraction of lithium chloride	Mass fraction of lithium sulfate	Temperature, K	Refractive index (Na D-line)	uncertainty
0.4397	0.0015	288.15	1.439	0.0004
0.439	0.00097	288.15	1.4392	0.0023
0.4394	0.00036	288.15	1.4384	0.001
0.4413	0	288.15	1.4394	0.0016
0.4651	0.00057	308.15	1.4363	0.0004
0.463	0.00055	308.15	1.4363	0.0004
0.4652	0.00048	308.15	1.4364	0.0004
0.4664	0	308.15	1.4365	0.0004

System: water + lithium sulfate; phases: Liquid, Crystal of intercomponent compound 1
Fixed: Pressure, kPa = 100
Property: Mass fraction of lithium sulfate (Liquid); method: titration+gravimetric+spectroscopy
Temperature, K	Mass fraction of lithium sulfate	uncertainty
288.15	0.2601	0.00166
308.15	0.2537	0.00161

System: water + lithium sulfate; phases: Liquid
Fixed: Pressure, kPa = 100
Property: Mass density, kg/m3 (Liquid); method: Vibrating tube method
Mass fraction of lithium sulfate	Temperature, K	Mass density, kg/m3	uncertainty
0.2601	288.15	1236.43	1.03
0.2537	308.15	1226.22	1.03

System: water + lithium sulfate; phases: Liquid
Fixed: Pressure, kPa = 100
Property: Refractive index (Na D-line) (Liquid); method: Standard Abbe refractometry
Mass fraction of lithium sulfate	Temperature, K	Refractive index (Na D-line)	uncertainty
0.2601	288.15	1.3845	0.0004
0.2537	308.15	1.3738	0.0004

System: lithium chloride + water; phases: Liquid, Crystal of intercomponent compound 1
Fixed: Pressure, kPa = 100
Property: Mass fraction of lithium chloride (Liquid); method: titration+gravimetric+spectroscopy
Temperature, K	Mass fraction of lithium chloride	uncertainty
288.15	0.4413	0.0028
308.15	0.4664	0.003

System: lithium chloride + water; phases: Liquid
Fixed: Pressure, kPa = 100
Property: Mass density, kg/m3 (Liquid); method: Vibrating tube method
Mass fraction of lithium chloride	Temperature, K	Mass density, kg/m3	uncertainty
0.4413	288.15	1287.19	1.07
0.4664	308.15	1301.11	1.08

System: lithium chloride + water; phases: Liquid
Fixed: Pressure, kPa = 100
Property: Refractive index (Na D-line) (Liquid); method: Standard Abbe refractometry
Mass fraction of lithium chloride	Temperature, K	Refractive index (Na D-line)	uncertainty
0.4413	288.15	1.4394	0.0004
0.4664	308.15	1.4365	0.0004
