Measured thermophysical data. Densities, Viscosities, and Refractive Indexes of Good's Buffer Ionic Liquids
Source: J. Chem. Eng. Data, 2016, 10.1021/acs.jced.5b00936
Compound 1: tetrabutylammonium 2-hydroxy-3-morpholinopropanesulfonate, C23H50N2O5S, InChI=1S/C16H36N.C7H15NO5S/c1-5-9-13-17(14-10-6-2,15-11-7-3)16-12-8-4;9-7(6-14(10,11)12)5-8-1-3-13-4-2-8/h5-16H2,1-4H3;7,9H,1-6H2,(H,10,11,12)/q+1;/p-1, purity 99%
Compound 2: tetrabutylphosphonium 2-hydroxy-3-morpholinopropanesulfonate, C23H50NO5PS, InChI=1S/C16H36P.C7H15NO5S/c1-5-9-13-17(14-10-6-2,15-11-7-3)16-12-8-4;9-7(6-14(10,11)12)5-8-1-3-13-4-2-8/h5-16H2,1-4H3;7,9H,1-6H2,(H,10,11,12)/q+1;/p-1, purity 99%
Compound 3: 2-hydroxy-N,N,N-trimethylethanaminium 2-hydroxy-3-morpholinopropanesulfonate, C12H28N2O6S, InChI=1S/C7H15NO5S.C5H14NO/c9-7(6-14(10,11)12)5-8-1-3-13-4-2-8;1-6(2,3)4-5-7/h7,9H,1-6H2,(H,10,11,12);7H,4-5H2,1-3H3/q;+1/p-1, purity 97%
Compound 4: tetrabutylammonium 2-(bis(2-hydroxyethyl)amino)ethanesulfonate, C22H50N2O5S, InChI=1S/C16H36N.C6H15NO5S/c1-5-9-13-17(14-10-6-2,15-11-7-3)16-12-8-4;8-4-1-7(2-5-9)3-6-13(10,11)12/h5-16H2,1-4H3;8-9H,1-6H2,(H,10,11,12)/q+1;/p-1, purity 99%
Compound 5: tetrabutylphosphonium 2-(bis(2-hydroxyethyl)amino)ethanesulfonate, C22H50NO5PS, InChI=1S/C16H36P.C6H15NO5S/c1-5-9-13-17(14-10-6-2,15-11-7-3)16-12-8-4;8-4-1-7(2-5-9)3-6-13(10,11)12/h5-16H2,1-4H3;8-9H,1-6H2,(H,10,11,12)/q+1;/p-1, purity 99%
Compound 6: 2-hydroxy-N,N,N-trimethylethanaminium 2-(bis(2-hydroxyethyl)amino)ethanesulfonate, C11H28N2O6S, InChI=1S/C6H15NO5S.C5H14NO/c8-4-1-7(2-5-9)3-6-13(10,11)12;1-6(2,3)4-5-7/h8-9H,1-6H2,(H,10,11,12);7H,4-5H2,1-3H3/q;+1/p-1, purity 97%
Compound 7: tetrabutylammonium 3-((1,3-dihydroxy-2-(hydroxymethyl)propan-2-yl)amino)-2-hydroxypropanesulfonate, C23H52N2O7S, InChI=1S/C16H36N.C7H17NO7S/c1-5-9-13-17(14-10-6-2,15-11-7-3)16-12-8-4;9-3-7(4-10,5-11)8-1-6(12)2-16(13,14)15/h5-16H2,1-4H3;6,8-12H,1-5H2,(H,13,14,15)/q+1;/p-1, purity 99%
Compound 8: tetrabutylphosphonium 3-((1,3-dihydroxy-2-(hydroxymethyl)propan-2-yl)amino)-2-hydroxypropanesulfonate, C23H52NO7PS, InChI=1S/C16H36P.C7H17NO7S/c1-5-9-13-17(14-10-6-2,15-11-7-3)16-12-8-4;9-3-7(4-10,5-11)8-1-6(12)2-16(13,14)15/h5-16H2,1-4H3;6,8-12H,1-5H2,(H,13,14,15)/q+1;/p-1, purity 99%
Compound 9: 2-hydroxy-N,N,N-trimethylethanaminium 3-((1,3-dihydroxy-2-(hydroxymethyl)propan-2-yl)amino)-2-hydroxypropanesulfonate, C12H30N2O8S, InChI=1S/C7H17NO7S.C5H14NO/c9-3-7(4-10,5-11)8-1-6(12)2-16(13,14)15;1-6(2,3)4-5-7/h6,8-12H,1-5H2,(H,13,14,15);7H,4-5H2,1-3H3/q;+1/p-1, purity 97%
Compound 10: tetrabutylammonium 3-(cyclohexylamino)-2-hydroxypropanesulfonate, C25H54N2O4S, InChI=1S/C16H36N.C9H19NO4S/c1-5-9-13-17(14-10-6-2,15-11-7-3)16-12-8-4;11-9(7-15(12,13)14)6-10-8-4-2-1-3-5-8/h5-16H2,1-4H3;8-11H,1-7H2,(H,12,13,14)/q+1;/p-1, purity 97%
Compound 11: tetrabutylphosphonium 3-(cyclohexylamino)-2-hydroxypropanesulfonate, C25H54NO4PS, InChI=1S/C16H36P.C9H19NO4S/c1-5-9-13-17(14-10-6-2,15-11-7-3)16-12-8-4;11-9(7-15(12,13)14)6-10-8-4-2-1-3-5-8/h5-16H2,1-4H3;8-11H,1-7H2,(H,12,13,14)/q+1;/p-1, purity 97%
Compound 12: 2-hydroxy-N,N,N-trimethylethanaminium 3-(cyclohexylamino)-2-hydroxypropanesulfonate, C14H32N2O5S, InChI=1S/C9H19NO4S.C5H14NO/c11-9(7-15(12,13)14)6-10-8-4-2-1-3-5-8;1-6(2,3)4-5-7/h8-11H,1-7H2,(H,12,13,14);7H,4-5H2,1-3H3/q;+1/p-1, purity 97%

System: tetrabutylammonium 2-hydroxy-3-morpholinopropanesulfonate; phases: Liquid
Fixed: Pressure, kPa = 100
Property: Mass density, kg/m3 (Liquid); method: Vibrating tube method
Temperature, K	Mass density, kg/m3	uncertainty
308.15	1051.2	1
313.15	1048.2	1
318.15	1045.3	1
323.15	1042.3	1
328.15	1039.4	1
333.15	1035.8	1
338.15	1033.1	1
343.15	1030.4	1
348.15	1027.6	1
353.15	1024.7	1

System: tetrabutylammonium 2-hydroxy-3-morpholinopropanesulfonate; phases: Liquid
Fixed: Pressure, kPa = 100
Property: Viscosity, Pa*s (Liquid); method: Concentric cylinders viscometry
Temperature, K	Viscosity, Pa*s	uncertainty
308.15	34.148	4.3819
313.15	18.392	2.2763
318.15	10.603	1.2713
323.15	6.3811	0.7439
328.15	3.9763	0.4522
333.15	2.5717	0.2862
338.15	1.7029	0.1859
343.15	1.1583	0.1244
348.15	0.8071	0.0854
353.15	0.5749	0.0601

System: tetrabutylammonium 2-hydroxy-3-morpholinopropanesulfonate; phases: Liquid
Fixed: Pressure, kPa = 100
Property: Refractive index (Na D-line) (Liquid); method: Standard Abbe refractometry
Temperature, K	Refractive index (Na D-line)	uncertainty
308.15	1.48328	0.00106
313.15	1.48188	0.00106
318.15	1.48038	0.00106
323.15	1.47873	0.00106
328.15	1.47693	0.00106
333.15	1.47525	0.00106
338.15	1.47377	0.00106
343.15	1.47242	0.00106
348.15	1.47111	0.00106
353.15	1.46984	0.00106

System: tetrabutylphosphonium 2-hydroxy-3-morpholinopropanesulfonate; phases: Liquid
Fixed: Pressure, kPa = 100
Property: Mass density, kg/m3 (Liquid); method: Vibrating tube method
Temperature, K	Mass density, kg/m3	uncertainty
288.15	1062.9	1
293.15	1059.9	1
298.15	1056.8	1
303.15	1053.7	1
308.15	1050.5	1
313.15	1047.5	1
318.15	1044.4	1
323.15	1041.3	1
328.15	1038.2	1
333.15	1035.1	1
338.15	1032.1	1
343.15	1029.1	1
348.15	1026.2	1

System: tetrabutylphosphonium 2-hydroxy-3-morpholinopropanesulfonate; phases: Liquid
Fixed: Pressure, kPa = 100
Property: Viscosity, Pa*s (Liquid); method: Concentric cylinders viscometry
Temperature, K	Viscosity, Pa*s	uncertainty
288.15	22.869	2.8655
293.15	12.43	1.5041
298.15	7.3129	0.8589
303.15	4.4936	0.5142
308.15	2.8598	0.3199
313.15	1.8892	0.2072
318.15	1.277	0.1377
323.15	0.8867	0.0942
328.15	0.6304	0.0661
333.15	0.4578	0.0475
338.15	0.3392	0.0349
343.15	0.2556	0.0261
348.15	0.1958	0.0199
353.15	0.1523	0.0154

System: tetrabutylphosphonium 2-hydroxy-3-morpholinopropanesulfonate; phases: Liquid
Fixed: Pressure, kPa = 100
Property: Refractive index (Na D-line) (Liquid); method: Standard Abbe refractometry
Temperature, K	Refractive index (Na D-line)	uncertainty
288.15	1.4959	0.00106
293.15	1.49447	0.00106
298.15	1.49299	0.00106
303.15	1.49152	0.00106
308.15	1.48999	0.00106
313.15	1.48836	0.00106
318.15	1.4866	0.00106
323.15	1.48573	0.00106
328.15	1.4841	0.00106
333.15	1.48239	0.00106
338.15	1.48069	0.00106
343.15	1.47908	0.00106
348.15	1.47761	0.00106
353.15	1.47622	0.00106

System: 2-hydroxy-N,N,N-trimethylethanaminium 2-hydroxy-3-morpholinopropanesulfonate; phases: Liquid
Fixed: Pressure, kPa = 100
Property: Mass density, kg/m3 (Liquid); method: Vibrating tube method
Temperature, K	Mass density, kg/m3	uncertainty
308.15	1235.3	3
313.15	1232	2.9
318.15	1228.7	2.9
323.15	1225.6	2.9
328.15	1222.5	2.9
333.15	1219.5	2.9
338.15	1216.5	2.9
343.15	1213.5	2.8
348.15	1211.6	2.8
353.15	1209.7	2.8

System: 2-hydroxy-N,N,N-trimethylethanaminium 2-hydroxy-3-morpholinopropanesulfonate; phases: Liquid
Fixed: Pressure, kPa = 100
Property: Viscosity, Pa*s (Liquid); method: Concentric cylinders viscometry
Temperature, K	Viscosity, Pa*s	uncertainty
308.15	49.189	6.4891
313.15	28.09	3.5857
318.15	16.897	2.094
323.15	10.898	1.3174
328.15	6.9332	0.8177
333.15	4.6003	0.531
338.15	3.0994	0.3508
343.15	2.1588	0.2402
348.15	1.5455	0.1694
353.15	1.1223	0.1214

System: 2-hydroxy-N,N,N-trimethylethanaminium 2-hydroxy-3-morpholinopropanesulfonate; phases: Liquid
Fixed: Pressure, kPa = 100
Property: Refractive index (Na D-line) (Liquid); method: Standard Abbe refractometry
Temperature, K	Refractive index (Na D-line)	uncertainty
308.15	1.49778	0.0012
313.15	1.49658	0.0012
318.15	1.49531	0.0012
323.15	1.49453	0.0012
328.15	1.49323	0.0012
333.15	1.49185	0.0012
338.15	1.48995	0.0012
343.15	1.48831	0.0012
348.15	1.48671	0.0012
353.15	1.4852	0.0012

System: tetrabutylammonium 2-(bis(2-hydroxyethyl)amino)ethanesulfonate; phases: Liquid
Fixed: Pressure, kPa = 100
Property: Mass density, kg/m3 (Liquid); method: Vibrating tube method
Temperature, K	Mass density, kg/m3	uncertainty
313.15	1052.4	1
318.15	1049.6	1
323.15	1046.8	1
328.15	1044	1
333.15	1041.2	1
338.15	1038.4	1
343.15	1035.6	1
348.15	1032.8	1
353.15	1030.1	1

System: tetrabutylammonium 2-(bis(2-hydroxyethyl)amino)ethanesulfonate; phases: Liquid
Fixed: Pressure, kPa = 100
Property: Viscosity, Pa*s (Liquid); method: Concentric cylinders viscometry
Temperature, K	Viscosity, Pa*s	uncertainty
313.15	12.001	1.4485
318.15	7.5825	0.8922
323.15	4.9706	0.5717
328.15	3.3466	0.3772
333.15	2.3057	0.2552
338.15	1.6218	0.1766
343.15	1.1632	0.1249
348.15	0.8483	0.09
353.15	0.63	0.0661

System: tetrabutylammonium 2-(bis(2-hydroxyethyl)amino)ethanesulfonate; phases: Liquid
Fixed: Pressure, kPa = 100
Property: Refractive index (Na D-line) (Liquid); method: Standard Abbe refractometry
Temperature, K	Refractive index (Na D-line)	uncertainty
288.15	1.49093	0.00106
293.15	1.48966	0.00106
298.15	1.48834	0.00106
303.15	1.48706	0.00106
308.15	1.48577	0.00106
313.15	1.48445	0.00106
318.15	1.48317	0.00106
323.15	1.48185	0.00106
328.15	1.48052	0.00106
333.15	1.4792	0.00106
338.15	1.47784	0.00106
343.15	1.47646	0.00106
348.15	1.47502	0.00106
353.15	1.47363	0.00106

System: tetrabutylphosphonium 2-(bis(2-hydroxyethyl)amino)ethanesulfonate; phases: Liquid
Fixed: Pressure, kPa = 100
Property: Mass density, kg/m3 (Liquid); method: Vibrating tube method
Temperature, K	Mass density, kg/m3	uncertainty
288.15	1066.8	1
293.15	1063.9	1
298.15	1061	1
303.15	1058.1	1
308.15	1055.3	1
313.15	1052.4	1
318.15	1049.6	1
323.15	1046.8	1
328.15	1044	1
333.15	1041.2	1
338.15	1038.4	1
343.15	1035.6	1
348.15	1032.8	1
353.15	1030.1	1

System: tetrabutylphosphonium 2-(bis(2-hydroxyethyl)amino)ethanesulfonate; phases: Liquid
Fixed: Pressure, kPa = 100
Property: Viscosity, Pa*s (Liquid); method: Concentric cylinders viscometry
Temperature, K	Viscosity, Pa*s	uncertainty
288.15	41.313	5.3618
293.15	24.078	3.0269
298.15	14.082	1.7158
303.15	8.5049	1.0072
308.15	5.3158	0.6137
313.15	3.3709	0.3801
318.15	2.1994	0.2429
323.15	1.3569	0.1467
328.15	0.871	0.0925
333.15	0.6118	0.0641
338.15	0.4589	0.0476
343.15	0.3523	0.0363
348.15	0.2736	0.028
353.15	0.2145	0.0218

System: tetrabutylphosphonium 2-(bis(2-hydroxyethyl)amino)ethanesulfonate; phases: Liquid
Fixed: Pressure, kPa = 100
Property: Refractive index (Na D-line) (Liquid); method: Standard Abbe refractometry
Temperature, K	Refractive index (Na D-line)	uncertainty
288.15	1.49778	0.00106
293.15	1.4964	0.00106
298.15	1.49502	0.00106
303.15	1.49365	0.00106
308.15	1.49333	0.00106
313.15	1.49198	0.00106
318.15	1.49061	0.00106
323.15	1.48921	0.00106
328.15	1.48744	0.00106
333.15	1.4859	0.00106
338.15	1.48437	0.00106
343.15	1.48287	0.00106
348.15	1.48142	0.00106
353.15	1.48003	0.00106

System: 2-hydroxy-N,N,N-trimethylethanaminium 2-(bis(2-hydroxyethyl)amino)ethanesulfonate; phases: Liquid
Fixed: Pressure, kPa = 100
Property: Mass density, kg/m3 (Liquid); method: Vibrating tube method
Temperature, K	Mass density, kg/m3	uncertainty
293.15	1248	3
298.15	1244.8	3
303.15	1241.8	3
308.15	1238.9	3
313.15	1236.1	3
318.15	1233.3	2.9
323.15	1230.5	2.9
328.15	1227.7	2.9
333.15	1224.9	2.9
338.15	1222.2	2.9
343.15	1219.5	2.9
348.15	1216.8	2.9
353.15	1214.1	2.8

System: 2-hydroxy-N,N,N-trimethylethanaminium 2-(bis(2-hydroxyethyl)amino)ethanesulfonate; phases: Liquid
Fixed: Pressure, kPa = 100
Property: Viscosity, Pa*s (Liquid); method: Concentric cylinders viscometry
Temperature, K	Viscosity, Pa*s	uncertainty
293.15	33.236	4.2833
298.15	20.518	2.5712
303.15	13.056	1.5943
308.15	8.6316	1.0301
313.15	5.8484	0.6835
318.15	4.0458	0.4639
323.15	2.861	0.3225
328.15	2.0617	0.2289
333.15	1.5268	0.1672
338.15	1.1366	0.123
343.15	0.8581	0.0918
348.15	0.6588	0.0698
353.15	0.5127	0.0539

System: 2-hydroxy-N,N,N-trimethylethanaminium 2-(bis(2-hydroxyethyl)amino)ethanesulfonate; phases: Liquid
Fixed: Pressure, kPa = 100
Property: Refractive index (Na D-line) (Liquid); method: Standard Abbe refractometry
Temperature, K	Refractive index (Na D-line)	uncertainty
298.15	1.50047	0.0012
303.15	1.49937	0.0012
308.15	1.49826	0.0012
313.15	1.49716	0.0012
318.15	1.49602	0.0012
323.15	1.49476	0.0012
328.15	1.49317	0.0012
333.15	1.49148	0.0012
338.15	1.49052	0.0012
343.15	1.48921	0.0012
348.15	1.48749	0.0012
353.15	1.48633	0.0012

System: tetrabutylammonium 3-((1,3-dihydroxy-2-(hydroxymethyl)propan-2-yl)amino)-2-hydroxypropanesulfonate; phases: Crystal, Liquid, Air at 1 atmosphere
Property: Triple point temperature, K (Crystal); method: DSC
Triple point temperature, K	uncertainty
364.15	0.81

System: tetrabutylphosphonium 3-((1,3-dihydroxy-2-(hydroxymethyl)propan-2-yl)amino)-2-hydroxypropanesulfonate; phases: Crystal, Liquid, Air at 1 atmosphere
Property: Triple point temperature, K (Crystal); method: DSC
Triple point temperature, K	uncertainty
369.15	0.81

System: 2-hydroxy-N,N,N-trimethylethanaminium 3-((1,3-dihydroxy-2-(hydroxymethyl)propan-2-yl)amino)-2-hydroxypropanesulfonate; phases: Liquid
Fixed: Pressure, kPa = 100
Property: Mass density, kg/m3 (Liquid); method: Vibrating tube method
Temperature, K	Mass density, kg/m3	uncertainty
328.15	1316.4	3.4
333.15	1313.3	3.3
338.15	1310.3	3.3
343.15	1307.4	3.3
348.15	1304.6	3.3
353.15	1301.8	3.3

System: 2-hydroxy-N,N,N-trimethylethanaminium 3-((1,3-dihydroxy-2-(hydroxymethyl)propan-2-yl)amino)-2-hydroxypropanesulfonate; phases: Liquid
Fixed: Pressure, kPa = 100
Property: Viscosity, Pa*s (Liquid); method: Concentric cylinders viscometry
Temperature, K	Viscosity, Pa*s	uncertainty
328.15	56.778	7.5544
333.15	34.168	4.4116
338.15	21.501	2.7016
343.15	14.013	1.718
348.15	9.3559	1.1214
353.15	6.3854	0.7498

System: 2-hydroxy-N,N,N-trimethylethanaminium 3-((1,3-dihydroxy-2-(hydroxymethyl)propan-2-yl)amino)-2-hydroxypropanesulfonate; phases: Liquid
Fixed: Pressure, kPa = 100
Property: Refractive index (Na D-line) (Liquid); method: Standard Abbe refractometry
Temperature, K	Refractive index (Na D-line)	uncertainty
323.15	1.50991	0.0012
328.15	1.50884	0.0012
333.15	1.50769	0.0012
338.15	1.50654	0.0012
343.15	1.50552	0.0012
348.15	1.5044	0.0012
353.15	1.50327	0.0012

System: tetrabutylammonium 3-(cyclohexylamino)-2-hydroxypropanesulfonate; phases: Liquid
Fixed: Pressure, kPa = 100
Property: Mass density, kg/m3 (Liquid); method: Vibrating tube method
Temperature, K	Mass density, kg/m3	uncertainty
308.15	1020.4	2.1
313.15	1017.3	2
318.15	1014.4	2
323.15	1011.5	2
328.15	1008.6	2
333.15	1005.7	2
338.15	1002.8	2
343.15	999.9	2
348.15	997.2	2
353.15	994.3	2

System: tetrabutylammonium 3-(cyclohexylamino)-2-hydroxypropanesulfonate; phases: Liquid
Fixed: Pressure, kPa = 100
Property: Viscosity, Pa*s (Liquid); method: Concentric cylinders viscometry
Temperature, K	Viscosity, Pa*s	uncertainty
308.15	41.227	5.3821
313.15	22.114	2.7843
318.15	12.579	1.5333
323.15	7.4804	0.886
328.15	4.6093	0.5322
333.15	2.9357	0.3314
338.15	1.9268	0.2133
343.15	1.2994	0.1414
348.15	0.8985	0.0963
353.15	0.6357	0.0673

System: tetrabutylammonium 3-(cyclohexylamino)-2-hydroxypropanesulfonate; phases: Liquid
Fixed: Pressure, kPa = 100
Property: Refractive index (Na D-line) (Liquid); method: Standard Abbe refractometry
Temperature, K	Refractive index (Na D-line)	uncertainty
308.15	1.48329	0.0012
313.15	1.48189	0.0012
318.15	1.48037	0.0012
323.15	1.47937	0.0012
328.15	1.47772	0.0012
333.15	1.47617	0.0012
338.15	1.47449	0.0012
343.15	1.47291	0.0012
348.15	1.47137	0.0012
353.15	1.46985	0.0012

System: tetrabutylphosphonium 3-(cyclohexylamino)-2-hydroxypropanesulfonate; phases: Liquid
Fixed: Pressure, kPa = 100
Property: Mass density, kg/m3 (Liquid); method: Vibrating tube method
Temperature, K	Mass density, kg/m3	uncertainty
288.15	1037.4	2.1
293.15	1034.2	2.1
298.15	1031.1	2.1
303.15	1028.2	2.1
308.15	1025.1	2.1
313.15	1022.1	2.1
318.15	1019	2.1
323.15	1016	2
328.15	1012.9	2
333.15	1009.8	2
338.15	1006.8	2
343.15	1003.8	2
348.15	1000.9	2
353.15	997.9	2

System: tetrabutylphosphonium 3-(cyclohexylamino)-2-hydroxypropanesulfonate; phases: Liquid
Fixed: Pressure, kPa = 100
Property: Viscosity, Pa*s (Liquid); method: Concentric cylinders viscometry
Temperature, K	Viscosity, Pa*s	uncertainty
288.15	32.956	4.2457
293.15	17.587	2.1853
298.15	10.098	1.2158
303.15	6.4816	0.7618
308.15	3.796	0.434
313.15	2.4419	0.2732
318.15	1.6242	0.1784
323.15	1.1097	0.12
328.15	0.7796	0.0831
333.15	0.5582	0.0588
338.15	0.409	0.0427
343.15	0.3046	0.0315
348.15	0.231	0.0238
353.15	0.1779	0.0182

System: tetrabutylphosphonium 3-(cyclohexylamino)-2-hydroxypropanesulfonate; phases: Liquid
Fixed: Pressure, kPa = 100
Property: Refractive index (Na D-line) (Liquid); method: Standard Abbe refractometry
Temperature, K	Refractive index (Na D-line)	uncertainty
288.15	1.49654	0.0012
293.15	1.49497	0.0012
298.15	1.49313	0.0012
303.15	1.49162	0.0012
308.15	1.48983	0.0012
313.15	1.48782	0.0012
318.15	1.48724	0.0012
323.15	1.48547	0.0012
328.15	1.48368	0.0012
333.15	1.48202	0.0012
338.15	1.48045	0.0012
343.15	1.47902	0.0012
348.15	1.47764	0.0012
353.15	1.4763	0.0012

System: 2-hydroxy-N,N,N-trimethylethanaminium 3-(cyclohexylamino)-2-hydroxypropanesulfonate; phases: Crystal, Liquid, Air at 1 atmosphere
Property: Triple point temperature, K (Crystal); method: DSC
Triple point temperature, K	uncertainty
365.15	0.81
