Measured thermophysical data. Density, Viscosity, and Refractive Index of Binary Mixtures of Fatty Acid Ethyl Esters with Ethylcyclohexane
Source: J. Chem. Eng. Data, 2019, 10.1021/acs.jced.9b00544
Compound 1: ethylcyclohexane, C8H16, InChI=1S/C8H16/c1-2-8-6-4-3-5-7-8/h8H,2-7H2,1H3, purity 99%
Compound 2: ethyl decanoate, C12H24O2, InChI=1S/C12H24O2/c1-3-5-6-7-8-9-10-11-12(13)14-4-2/h3-11H2,1-2H3, purity 98%
Compound 3: ethyl dodecanoate, C14H28O2, InChI=1S/C14H28O2/c1-3-5-6-7-8-9-10-11-12-13-14(15)16-4-2/h3-13H2,1-2H3, purity 99%
Compound 4: ethyl tetradecanoate, C16H32O2, InChI=1S/C16H32O2/c1-3-5-6-7-8-9-10-11-12-13-14-15-16(17)18-4-2/h3-15H2,1-2H3, purity 98%

System: ethylcyclohexane; phases: Liquid
Fixed: Pressure, kPa = 100
Property: Mass density, kg/m3 (Liquid); method: Vibrating tube method
Temperature, K	Mass density, kg/m3	uncertainty
293.15	787.98	1.59
298.15	783.95	1.58
303.15	779.92	1.58
308.15	775.87	1.57
313.15	771.8	1.56
318.15	767.72	1.55
323.15	763.62	1.54

System: ethylcyclohexane; phases: Liquid
Fixed: Pressure, kPa = 100
Property: Viscosity, Pa*s (Liquid); method: Falling or rolling sphere viscometry
Temperature, K	Viscosity, Pa*s	uncertainty
293.15	0.000847	1.8e-05
298.15	0.000797	1.7e-05
303.15	0.000747	1.6e-05
308.15	0.000705	1.5e-05
313.15	0.000662	1.4e-05
318.15	0.000627	1.4e-05
323.15	0.000585	1.3e-05
293.15	0.000846	1.8e-05
298.15	0.000796	1.7e-05
318.15	0.000628	1.4e-05

System: ethylcyclohexane; phases: Liquid
Fixed: Pressure, kPa = 100
Property: Refractive index (Na D-line) (Liquid); method: Standard Abbe refractometry
Temperature, K	Refractive index (Na D-line)	uncertainty
293.15	1.4332	0.0011
298.15	1.4306	0.0011
303.15	1.4285	0.0011
308.15	1.4264	0.0011
313.15	1.4241	0.0011
318.15	1.4218	0.0011
323.15	1.4198	0.0011

System: ethyl decanoate; phases: Liquid
Fixed: Pressure, kPa = 100
Property: Mass density, kg/m3 (Liquid); method: Vibrating tube method
Temperature, K	Mass density, kg/m3	uncertainty
293.15	864.06	1.84
298.15	860.01	1.83
303.15	855.94	1.82
308.15	851.87	1.81
313.15	847.8	1.8
318.15	843.72	1.79
323.15	839.64	1.79

System: ethyl decanoate; phases: Liquid
Fixed: Pressure, kPa = 100
Property: Viscosity, Pa*s (Liquid); method: Falling or rolling sphere viscometry
Temperature, K	Viscosity, Pa*s	uncertainty
293.15	0.002328	5.5e-05
298.15	0.002117	5e-05
303.15	0.001914	4.5e-05
308.15	0.001746	4.1e-05
313.15	0.0016	3.8e-05
318.15	0.001473	3.5e-05
323.15	0.001357	3.2e-05

System: ethyl decanoate; phases: Liquid
Fixed: Pressure, kPa = 100
Property: Refractive index (Na D-line) (Liquid); method: Standard Abbe refractometry
Temperature, K	Refractive index (Na D-line)	uncertainty
293.15	1.426	0.0011
298.15	1.4232	0.0011
303.15	1.4222	0.0011
308.15	1.4194	0.0011
313.15	1.4175	0.0011
318.15	1.4156	0.0011
323.15	1.4136	0.0011

System: ethyl dodecanoate; phases: Liquid
Fixed: Pressure, kPa = 100
Property: Mass density, kg/m3 (Liquid); method: Vibrating tube method
Temperature, K	Mass density, kg/m3	uncertainty
293.15	862.16	1.74
298.15	858.25	1.73
303.15	854.36	1.72
308.15	850.46	1.71
313.15	846.56	1.71
318.15	842.66	1.7
323.15	838.75	1.69

System: ethyl dodecanoate; phases: Liquid
Fixed: Pressure, kPa = 100
Property: Viscosity, Pa*s (Liquid); method: Falling or rolling sphere viscometry
Temperature, K	Viscosity, Pa*s	uncertainty
293.15	0.003374	7.4e-05
298.15	0.003015	6.6e-05
303.15	0.002702	5.9e-05
308.15	0.00243	5.3e-05
313.15	0.002203	4.8e-05
318.15	0.002021	4.4e-05
323.15	0.001827	4e-05

System: ethyl dodecanoate; phases: Liquid
Fixed: Pressure, kPa = 100
Property: Refractive index (Na D-line) (Liquid); method: Standard Abbe refractometry
Temperature, K	Refractive index (Na D-line)	uncertainty
293.15	1.4315	0.0011
298.15	1.4289	0.0011
303.15	1.4276	0.0011
308.15	1.4256	0.0011
313.15	1.4233	0.0011
318.15	1.4215	0.0011
323.15	1.4198	0.0011

System: ethyl tetradecanoate; phases: Liquid
Fixed: Pressure, kPa = 100
Property: Mass density, kg/m3 (Liquid); method: Vibrating tube method
Temperature, K	Mass density, kg/m3	uncertainty
293.15	860.9	1.83
298.15	857.11	1.82
303.15	853.32	1.82
308.15	849.54	1.81
313.15	845.76	1.8
318.15	841.98	1.79
323.15	838.23	1.78

System: ethyl tetradecanoate; phases: Liquid
Fixed: Pressure, kPa = 100
Property: Viscosity, Pa*s (Liquid); method: Falling or rolling sphere viscometry
Temperature, K	Viscosity, Pa*s	uncertainty
293.15	0.004751	0.000111
298.15	0.004188	9.8e-05
303.15	0.00372	8.7e-05
308.15	0.003322	7.8e-05
313.15	0.002961	6.9e-05
318.15	0.002699	6.3e-05
323.15	0.002451	5.8e-05

System: ethyl tetradecanoate; phases: Liquid
Fixed: Pressure, kPa = 100
Property: Refractive index (Na D-line) (Liquid); method: Standard Abbe refractometry
Temperature, K	Refractive index (Na D-line)	uncertainty
293.15	1.4367	0.0011
298.15	1.434	0.0011
303.15	1.4327	0.0011
308.15	1.4304	0.0011
313.15	1.4283	0.0011
318.15	1.4264	0.0011
323.15	1.4249	0.0011

System: ethylcyclohexane + ethyl decanoate; phases: Liquid
Fixed: Pressure, kPa = 100
Property: Mass density, kg/m3 (Liquid); method: Vibrating tube method
Temperature, K	Mole fraction of ethylcyclohexane	Mass density, kg/m3	uncertainty
293.15	0	864.06	1.84
293.15	0.1001	858.95	1.81
293.15	0.1999	853.43	1.78
293.15	0.3001	847.49	1.76
293.15	0.4	841.05	1.73
293.15	0.5002	834.06	1.71
293.15	0.5998	826.45	1.69
293.15	0.7	818.1	1.66
293.15	0.8	808.98	1.64
293.15	0.9001	798.94	1.62
293.15	1	787.98	1.59
298.15	0	860.01	1.83
298.15	0.1001	854.91	1.8
298.15	0.1999	849.42	1.77
298.15	0.3001	843.46	1.75
298.15	0.4	837.03	1.73
298.15	0.5002	830.05	1.7
298.15	0.5998	822.44	1.68
298.15	0.7	814.08	1.66
298.15	0.8	804.96	1.63
298.15	0.9001	794.92	1.61
298.15	1	783.95	1.58
303.15	0	855.94	1.82
303.15	0.1001	850.85	1.79
303.15	0.1999	845.36	1.77
303.15	0.3001	839.42	1.74
303.15	0.4	832.99	1.72
303.15	0.5002	826.01	1.69
303.15	0.5998	818.4	1.67
303.15	0.7	810.06	1.65
303.15	0.8	800.92	1.63
303.15	0.9001	790.89	1.6
303.15	1	779.92	1.58
308.15	0	851.87	1.81
308.15	0.1001	846.79	1.78
308.15	0.1999	841.29	1.76
308.15	0.3001	835.36	1.73
308.15	0.4	828.93	1.71
308.15	0.5002	821.95	1.69
308.15	0.5998	814.35	1.66
308.15	0.7	806.01	1.64
308.15	0.8	796.88	1.62
308.15	0.9001	786.85	1.59
308.15	1	775.87	1.57
313.15	0	847.8	1.8
313.15	0.1001	842.73	1.78
313.15	0.1999	837.22	1.75
313.15	0.3001	831.31	1.72
313.15	0.4	824.88	1.7
313.15	0.5002	817.89	1.68
313.15	0.5998	810.3	1.65
313.15	0.7	801.95	1.63
313.15	0.8	792.83	1.61
313.15	0.9001	782.79	1.59
313.15	1	771.8	1.56
318.15	0	843.72	1.79
318.15	0.1001	838.65	1.77
318.15	0.1999	833.15	1.74
318.15	0.3001	827.24	1.72
318.15	0.4	820.81	1.69
318.15	0.5002	813.83	1.67
318.15	0.5998	806.24	1.65
318.15	0.7	797.88	1.62
318.15	0.8	788.75	1.6
318.15	0.9001	778.72	1.58
318.15	1	767.72	1.55
323.15	0	839.64	1.79
323.15	0.1001	834.58	1.76
323.15	0.1999	829.08	1.73
323.15	0.3001	823.17	1.71
323.15	0.4	816.74	1.68
323.15	0.5002	809.75	1.66
323.15	0.5998	802.16	1.64
323.15	0.7	793.8	1.62
323.15	0.8	784.67	1.59
323.15	0.9001	774.64	1.57
323.15	1	763.62	1.54

System: ethylcyclohexane + ethyl decanoate; phases: Liquid
Fixed: Pressure, kPa = 100
Property: Viscosity, Pa*s (Liquid); method: Falling or rolling sphere viscometry
Temperature, K	Mole fraction of ethylcyclohexane	Viscosity, Pa*s	uncertainty
293.15	0	0.002328	5.5e-05
293.15	0.1001	0.002153	5e-05
293.15	0.1999	0.001979	4.6e-05
293.15	0.3001	0.001807	4.1e-05
293.15	0.4	0.001642	3.7e-05
293.15	0.5002	0.001487	3.3e-05
293.15	0.5998	0.001342	3e-05
293.15	0.7	0.001204	2.7e-05
293.15	0.8	0.001079	2.4e-05
293.15	0.9001	0.00096	2.1e-05
293.15	1	0.000847	1.8e-05
298.15	0	0.002117	5e-05
298.15	0.1001	0.001963	4.6e-05
298.15	0.1999	0.001807	4.2e-05
298.15	0.3001	0.001655	3.8e-05
298.15	0.4	0.00151	3.4e-05
298.15	0.5002	0.001373	3.1e-05
298.15	0.5998	0.001242	2.8e-05
298.15	0.7	0.00112	2.5e-05
298.15	0.8	0.001007	2.2e-05
298.15	0.9001	0.0009	2e-05
298.15	1	0.000797	1.7e-05
303.15	0	0.001914	4.5e-05
303.15	0.1001	0.001778	4.1e-05
303.15	0.1999	0.001642	3.8e-05
303.15	0.3001	0.00151	3.5e-05
303.15	0.4	0.001382	3.1e-05
303.15	0.5002	0.001261	2.8e-05
303.15	0.5998	0.001146	2.6e-05
303.15	0.7	0.001038	2.3e-05
303.15	0.8	0.000936	2.1e-05
303.15	0.9001	0.00084	1.8e-05
303.15	1	0.000747	1.6e-05
308.15	0	0.001746	4.1e-05
308.15	0.1001	0.001626	3.8e-05
308.15	0.1999	0.001503	3.5e-05
308.15	0.3001	0.001384	3.2e-05
308.15	0.4	0.001271	2.9e-05
308.15	0.5002	0.001165	2.6e-05
308.15	0.5998	0.001063	2.4e-05
308.15	0.7	0.000966	2.1e-05
308.15	0.8	0.000873	1.9e-05
308.15	0.9001	0.000786	1.7e-05
308.15	1	0.000705	1.5e-05
313.15	0	0.0016	3.8e-05
313.15	0.1001	0.001494	3.5e-05
313.15	0.1999	0.001385	3.2e-05
313.15	0.3001	0.001276	2.9e-05
313.15	0.4	0.001174	2.7e-05
313.15	0.5002	0.001078	2.4e-05
313.15	0.5998	0.000987	2.2e-05
313.15	0.7	0.0009	2e-05
313.15	0.8	0.000815	1.8e-05
313.15	0.9001	0.000734	1.6e-05
313.15	1	0.000662	1.4e-05
318.15	0	0.001473	3.5e-05
318.15	0.1001	0.001377	3.2e-05
318.15	0.1999	0.001279	3e-05
318.15	0.3001	0.001185	2.7e-05
318.15	0.4	0.001095	2.5e-05
318.15	0.5002	0.00101	2.3e-05
318.15	0.5998	0.000928	2.1e-05
318.15	0.7	0.000846	1.9e-05
318.15	0.8	0.000767	1.7e-05
318.15	0.9001	0.000692	1.5e-05
318.15	1	0.000627	1.4e-05
323.15	0	0.001357	3.2e-05
323.15	0.1001	0.00127	3e-05
323.15	0.1999	0.001184	2.7e-05
323.15	0.3001	0.001102	2.5e-05
323.15	0.4	0.001021	2.3e-05
323.15	0.5002	0.000943	2.1e-05
323.15	0.5998	0.000867	1.9e-05
323.15	0.7	0.000793	1.8e-05
323.15	0.8	0.000722	1.6e-05
323.15	0.9001	0.000652	1.4e-05
323.15	1	0.000585	1.3e-05

System: ethylcyclohexane + ethyl decanoate; phases: Liquid
Fixed: Pressure, kPa = 100
Property: Refractive index (Na D-line) (Liquid); method: Standard Abbe refractometry
Temperature, K	Mole fraction of ethylcyclohexane	Refractive index (Na D-line)	uncertainty
293.15	0	1.426	0.0011
293.15	0.1001	1.4264	0.0011
293.15	0.1999	1.4267	0.0011
293.15	0.3001	1.4272	0.0011
293.15	0.4	1.4277	0.0011
293.15	0.5002	1.4283	0.0011
293.15	0.5998	1.4289	0.0011
293.15	0.7	1.4297	0.0011
293.15	0.8	1.4306	0.0011
293.15	0.9001	1.4317	0.0011
293.15	1	1.4332	0.0011
298.15	0	1.4232	0.0011
298.15	0.1001	1.4235	0.0011
298.15	0.1999	1.4238	0.0011
298.15	0.3001	1.4244	0.0011
298.15	0.4	1.4248	0.0011
298.15	0.5002	1.4251	0.0011
298.15	0.5998	1.4255	0.0011
298.15	0.7	1.4264	0.0011
298.15	0.8	1.4271	0.0011
298.15	0.9001	1.4286	0.0011
298.15	1	1.4306	0.0011
303.15	0	1.4222	0.0011
303.15	0.1001	1.4223	0.0011
303.15	0.1999	1.4225	0.0011
303.15	0.3001	1.423	0.0011
303.15	0.4	1.4233	0.0011
303.15	0.5002	1.4238	0.0011
303.15	0.5998	1.4243	0.0011
303.15	0.7	1.425	0.0011
303.15	0.8	1.4259	0.0011
303.15	0.9001	1.427	0.0011
303.15	1	1.4285	0.0011
308.15	0	1.4194	0.0011
308.15	0.1001	1.4198	0.0011
308.15	0.1999	1.4201	0.0011
308.15	0.3001	1.4205	0.0011
308.15	0.4	1.421	0.0011
308.15	0.5002	1.4216	0.0011
308.15	0.5998	1.4222	0.0011
308.15	0.7	1.4229	0.0011
308.15	0.8	1.4238	0.0011
308.15	0.9001	1.425	0.0011
308.15	1	1.4264	0.0011
313.15	0	1.4175	0.0011
313.15	0.1001	1.4177	0.0011
313.15	0.1999	1.418	0.0011
313.15	0.3001	1.4183	0.0011
313.15	0.4	1.4185	0.0011
313.15	0.5002	1.4189	0.0011
313.15	0.5998	1.4194	0.0011
313.15	0.7	1.4202	0.0011
313.15	0.8	1.421	0.0011
313.15	0.9001	1.4222	0.0011
313.15	1	1.4241	0.0011
318.15	0	1.4156	0.0011
318.15	0.1001	1.4158	0.0011
318.15	0.1999	1.416	0.0011
318.15	0.3001	1.4163	0.0011
318.15	0.4	1.4166	0.0011
318.15	0.5002	1.417	0.001
318.15	0.5998	1.4176	0.0011
318.15	0.7	1.4182	0.0011
318.15	0.8	1.419	0.001
318.15	0.9001	1.4202	0.0011
318.15	1	1.4218	0.0011
323.15	0	1.4136	0.0011
323.15	0.1001	1.4136	0.0011
323.15	0.1999	1.4138	0.0011
323.15	0.3001	1.4142	0.0011
323.15	0.4	1.4145	0.0011
323.15	0.5002	1.4148	0.0011
323.15	0.5998	1.4154	0.0011
323.15	0.7	1.416	0.0011
323.15	0.8	1.4166	0.0011
323.15	0.9001	1.4178	0.0011
323.15	1	1.4198	0.0011

System: ethylcyclohexane + ethyl dodecanoate; phases: Liquid
Fixed: Pressure, kPa = 100
Property: Mass density, kg/m3 (Liquid); method: Vibrating tube method
Temperature, K	Mole fraction of ethylcyclohexane	Mass density, kg/m3	uncertainty
293.15	0	862.16	1.74
293.15	0.1001	857.77	1.73
293.15	0.1999	852.98	1.72
293.15	0.3	847.71	1.71
293.15	0.3999	841.89	1.7
293.15	0.5001	835.38	1.69
293.15	0.5999	828.15	1.67
293.15	0.7	819.99	1.65
293.15	0.7999	810.73	1.64
293.15	0.9	800.15	1.62
293.15	1	787.98	1.59
298.15	0	858.25	1.73
298.15	0.1001	853.87	1.72
298.15	0.1999	849.08	1.71
298.15	0.3	843.79	1.7
298.15	0.3999	837.97	1.69
298.15	0.5001	831.47	1.68
298.15	0.5999	824.24	1.66
298.15	0.7	816.06	1.65
298.15	0.7999	806.77	1.63
298.15	0.9	796.17	1.61
298.15	1	783.95	1.58
303.15	0	854.36	1.72
303.15	0.1001	849.97	1.71
303.15	0.1999	845.19	1.7
303.15	0.3	839.89	1.69
303.15	0.3999	834.06	1.68
303.15	0.5001	827.55	1.67
303.15	0.5999	820.3	1.66
303.15	0.7	812.1	1.64
303.15	0.7999	802.8	1.62
303.15	0.9	792.17	1.6
303.15	1	779.92	1.58
308.15	0	850.46	1.71
308.15	0.1001	846.07	1.71
308.15	0.1999	841.28	1.7
308.15	0.3	835.98	1.69
308.15	0.3999	830.14	1.67
308.15	0.5001	823.61	1.66
308.15	0.5999	816.34	1.65
308.15	0.7	808.15	1.63
308.15	0.7999	798.81	1.61
308.15	0.9	788.15	1.59
308.15	1	775.87	1.57
313.15	0	846.56	1.71
313.15	0.1001	842.16	1.7
313.15	0.1999	837.37	1.69
313.15	0.3	832.07	1.68
313.15	0.3999	826.21	1.67
313.15	0.5001	819.68	1.65
313.15	0.5999	812.41	1.64
313.15	0.7	804.18	1.62
313.15	0.7999	794.82	1.61
313.15	0.9	784.12	1.58
313.15	1	771.8	1.56
318.15	0	842.66	1.7
318.15	0.1001	838.27	1.69
318.15	0.1999	833.47	1.68
318.15	0.3	828.16	1.67
318.15	0.3999	822.28	1.66
318.15	0.5001	815.74	1.65
318.15	0.5999	808.46	1.63
318.15	0.7	800.21	1.62
318.15	0.7999	790.84	1.6
318.15	0.9	780.08	1.58
318.15	1	767.72	1.55
323.15	0	838.75	1.69
323.15	0.1001	834.36	1.68
323.15	0.1999	829.55	1.67
323.15	0.3	824.24	1.66
323.15	0.3999	818.35	1.65
323.15	0.5001	811.79	1.64
323.15	0.5999	804.49	1.62
323.15	0.7	796.22	1.61
323.15	0.7999	786.83	1.59
323.15	0.9	776.03	1.57
323.15	1	763.62	1.54

System: ethylcyclohexane + ethyl dodecanoate; phases: Liquid
Fixed: Pressure, kPa = 100
Property: Viscosity, Pa*s (Liquid); method: Falling or rolling sphere viscometry
Temperature, K	Mole fraction of ethylcyclohexane	Viscosity, Pa*s	uncertainty
293.15	0	0.003374	7.4e-05
293.15	0.1001	0.00307	6.7e-05
293.15	0.1999	0.002768	6e-05
293.15	0.3	0.002476	5.4e-05
293.15	0.3999	0.002193	4.8e-05
293.15	0.5001	0.001919	4.2e-05
293.15	0.5999	0.001663	3.6e-05
293.15	0.7	0.001429	3.1e-05
293.15	0.7999	0.001219	2.7e-05
293.15	0.9	0.001023	2.2e-05
293.15	1	0.000846	1.8e-05
298.15	0	0.003015	6.6e-05
298.15	0.1001	0.002752	6e-05
298.15	0.1999	0.002485	5.4e-05
298.15	0.3	0.002228	4.9e-05
298.15	0.3999	0.001977	4.3e-05
298.15	0.5001	0.001742	3.8e-05
298.15	0.5999	0.001519	3.3e-05
298.15	0.7	0.001318	2.9e-05
298.15	0.7999	0.001134	2.5e-05
298.15	0.9	0.000963	2.1e-05
298.15	1	0.000796	1.7e-05
303.15	0	0.002702	5.9e-05
303.15	0.1001	0.002479	5.4e-05
303.15	0.1999	0.002251	4.9e-05
303.15	0.3	0.002027	4.4e-05
303.15	0.3999	0.001808	3.9e-05
303.15	0.5001	0.001597	3.5e-05
303.15	0.5999	0.001402	3.1e-05
303.15	0.7	0.001222	2.7e-05
303.15	0.7999	0.001057	2.3e-05
303.15	0.9	0.000901	2e-05
303.15	1	0.000747	1.6e-05
308.15	0	0.00243	5.3e-05
308.15	0.1001	0.002232	4.9e-05
308.15	0.1999	0.002036	4.4e-05
308.15	0.3	0.001841	4e-05
308.15	0.3999	0.001651	3.6e-05
308.15	0.5001	0.001468	3.2e-05
308.15	0.5999	0.001296	2.8e-05
308.15	0.7	0.001131	2.5e-05
308.15	0.7999	0.000981	2.1e-05
308.15	0.9	0.000837	1.8e-05
308.15	1	0.000705	1.5e-05
313.15	0	0.002203	4.8e-05
313.15	0.1001	0.002033	4.4e-05
313.15	0.1999	0.00186	4.1e-05
313.15	0.3	0.001686	3.7e-05
313.15	0.3999	0.001516	3.3e-05
313.15	0.5001	0.001352	3e-05
313.15	0.5999	0.001197	2.6e-05
313.15	0.7	0.00105	2.3e-05
313.15	0.7999	0.000913	2e-05
313.15	0.9	0.000786	1.7e-05
313.15	1	0.000662	1.4e-05
318.15	0	0.002021	4.4e-05
318.15	0.1001	0.00187	4.1e-05
318.15	0.1999	0.001716	3.7e-05
318.15	0.3	0.001561	3.4e-05
318.15	0.3999	0.001406	3.1e-05
318.15	0.5001	0.001258	2.7e-05
318.15	0.5999	0.001119	2.4e-05
318.15	0.7	0.000987	2.2e-05
318.15	0.7999	0.000864	1.9e-05
318.15	0.9	0.000745	1.6e-05
318.15	1	0.000628	1.4e-05
323.15	0	0.001827	4e-05
323.15	0.1001	0.001697	3.7e-05
323.15	0.1999	0.001562	3.4e-05
323.15	0.3	0.001423	3.1e-05
323.15	0.3999	0.001289	2.8e-05
323.15	0.5001	0.001159	2.5e-05
323.15	0.5999	0.001036	2.3e-05
323.15	0.7	0.00092	2e-05
323.15	0.7999	0.00081	1.8e-05
323.15	0.9	0.0007	1.5e-05
323.15	1	0.000585	1.3e-05

System: ethylcyclohexane + ethyl dodecanoate; phases: Liquid
Fixed: Pressure, kPa = 100
Property: Refractive index (Na D-line) (Liquid); method: Standard Abbe refractometry
Temperature, K	Mole fraction of ethylcyclohexane	Refractive index (Na D-line)	uncertainty
293.15	0	1.4315	0.0011
293.15	0.1001	1.4315	0.0011
293.15	0.1999	1.4316	0.0011
293.15	0.3	1.4316	0.0011
293.15	0.3999	1.4316	0.0011
293.15	0.5001	1.4316	0.0011
293.15	0.5999	1.4316	0.0011
293.15	0.7	1.4317	0.0011
293.15	0.7999	1.4321	0.0011
293.15	0.9	1.4327	0.0011
293.15	1	1.4332	0.0011
298.15	0	1.4289	0.0011
298.15	0.1001	1.4289	0.0011
298.15	0.1999	1.4289	0.0011
298.15	0.3	1.4289	0.0011
298.15	0.3999	1.4289	0.0011
298.15	0.5001	1.4289	0.0011
298.15	0.5999	1.4289	0.0011
298.15	0.7	1.4289	0.0011
298.15	0.7999	1.429	0.001
298.15	0.9	1.4294	0.0011
298.15	1	1.4306	0.0011
303.15	0	1.4276	0.0011
303.15	0.1001	1.4276	0.0011
303.15	0.1999	1.4276	0.0011
303.15	0.3	1.4276	0.0011
303.15	0.3999	1.4276	0.0011
303.15	0.5001	1.4276	0.0011
303.15	0.5999	1.4276	0.0011
303.15	0.7	1.4277	0.0011
303.15	0.7999	1.4279	0.0011
303.15	0.9	1.4282	0.0011
303.15	1	1.4285	0.0011
308.15	0	1.4256	0.0011
308.15	0.1001	1.4256	0.0011
308.15	0.1999	1.4256	0.0011
308.15	0.3	1.4256	0.0011
308.15	0.3999	1.4256	0.0011
308.15	0.5001	1.4256	0.0011
308.15	0.5999	1.4256	0.0011
308.15	0.7	1.4256	0.0011
308.15	0.7999	1.4258	0.0011
308.15	0.9	1.426	0.0011
308.15	1	1.4264	0.0011
313.15	0	1.4233	0.0011
313.15	0.1001	1.4233	0.0011
313.15	0.1999	1.4233	0.0011
313.15	0.3	1.4232	0.0011
313.15	0.3999	1.4233	0.0011
313.15	0.5001	1.4233	0.0011
313.15	0.5999	1.4233	0.0011
313.15	0.7	1.4232	0.0011
313.15	0.7999	1.4234	0.0011
313.15	0.9	1.4236	0.0011
313.15	1	1.4241	0.0011
318.15	0	1.4215	0.0011
318.15	0.1001	1.4216	0.0011
318.15	0.1999	1.4216	0.0011
318.15	0.3	1.4216	0.0011
318.15	0.3999	1.4216	0.0011
318.15	0.5001	1.4216	0.0011
318.15	0.5999	1.4216	0.0011
318.15	0.7	1.4216	0.0011
318.15	0.7999	1.4216	0.0011
318.15	0.9	1.4217	0.0011
318.15	1	1.4218	0.0011
323.15	0	1.4198	0.0011
323.15	0.1001	1.4198	0.0011
323.15	0.1999	1.4198	0.0011
323.15	0.3	1.4198	0.0011
323.15	0.3999	1.4198	0.0011
323.15	0.5001	1.4198	0.0011
323.15	0.5999	1.4198	0.0011
323.15	0.7	1.4198	0.0011
323.15	0.7999	1.4198	0.0011
323.15	0.9	1.4198	0.0011
323.15	1	1.4198	0.0011

System: ethylcyclohexane + ethyl tetradecanoate; phases: Liquid
Fixed: Pressure, kPa = 100
Property: Mass density, kg/m3 (Liquid); method: Vibrating tube method
Temperature, K	Mole fraction of ethylcyclohexane	Mass density, kg/m3	uncertainty
293.15	0	860.9	1.83
293.15	0.0998	857.08	1.81
293.15	0.2	852.8	1.78
293.15	0.3001	848.03	1.76
293.15	0.4002	842.68	1.74
293.15	0.5	836.6	1.72
293.15	0.6	829.64	1.69
293.15	0.6999	821.63	1.67
293.15	0.8	812.24	1.65
293.15	0.9	801.22	1.62
293.15	1	787.98	1.59
298.15	0	857.11	1.82
298.15	0.0998	853.31	1.8
298.15	0.2	849.04	1.77
298.15	0.3001	844.23	1.75
298.15	0.4002	838.86	1.73
298.15	0.5	832.78	1.71
298.15	0.6	825.81	1.69
298.15	0.6999	817.79	1.66
298.15	0.8	808.36	1.64
298.15	0.9	797.26	1.61
298.15	1	783.95	1.58
303.15	0	853.32	1.82
303.15	0.0998	849.52	1.79
303.15	0.2	845.25	1.77
303.15	0.3001	840.43	1.74
303.15	0.4002	835.06	1.72
303.15	0.5	828.96	1.7
303.15	0.6	821.96	1.68
303.15	0.6999	813.91	1.66
303.15	0.8	804.44	1.63
303.15	0.9	793.29	1.61
303.15	1	779.92	1.58
308.15	0	849.54	1.81
308.15	0.0998	845.74	1.78
308.15	0.2	841.46	1.76
308.15	0.3001	836.64	1.74
308.15	0.4002	831.25	1.71
308.15	0.5	825.13	1.69
308.15	0.6	818.1	1.67
308.15	0.6999	810.01	1.65
308.15	0.8	800.5	1.62
308.15	0.9	789.32	1.6
308.15	1	775.87	1.57
313.15	0	845.76	1.8
313.15	0.0998	841.95	1.77
313.15	0.2	837.68	1.75
313.15	0.3001	832.86	1.73
313.15	0.4002	827.43	1.71
313.15	0.5	821.3	1.68
313.15	0.6	814.23	1.66
313.15	0.6999	806.11	1.64
313.15	0.8	796.57	1.62
313.15	0.9	785.33	1.59
313.15	1	771.8	1.56
318.15	0	841.98	1.79
318.15	0.0998	838.16	1.77
318.15	0.2	833.88	1.74
318.15	0.3001	829.07	1.72
318.15	0.4002	823.62	1.7
318.15	0.5	817.46	1.68
318.15	0.6	810.37	1.65
318.15	0.6999	802.21	1.63
318.15	0.8	792.63	1.61
318.15	0.9	781.32	1.58
318.15	1	767.72	1.55
323.15	0	838.23	1.78
323.15	0.0998	834.4	1.76
323.15	0.2	830.1	1.73
323.15	0.3001	825.28	1.71
323.15	0.4002	819.81	1.69
323.15	0.5	813.62	1.67
323.15	0.6	806.5	1.65
323.15	0.6999	798.29	1.63
323.15	0.8	788.67	1.6
323.15	0.9	777.31	1.57
323.15	1	763.62	1.54

System: ethylcyclohexane + ethyl tetradecanoate; phases: Liquid
Fixed: Pressure, kPa = 100
Property: Viscosity, Pa*s (Liquid); method: Falling or rolling sphere viscometry
Temperature, K	Mole fraction of ethylcyclohexane	Viscosity, Pa*s	uncertainty
293.15	0	0.004751	0.000111
293.15	0.0998	0.004251	9.9e-05
293.15	0.2	0.003768	8.7e-05
293.15	0.3001	0.003305	7.6e-05
293.15	0.4002	0.002865	6.5e-05
293.15	0.5	0.00244	5.5e-05
293.15	0.6	0.002053	4.6e-05
293.15	0.6999	0.001709	3.8e-05
293.15	0.8	0.001387	3.1e-05
293.15	0.9	0.001105	2.4e-05
293.15	1	0.000847	1.8e-05
298.15	0	0.004188	9.8e-05
298.15	0.0998	0.003763	8.8e-05
298.15	0.2	0.003351	7.7e-05
298.15	0.3001	0.002962	6.8e-05
298.15	0.4002	0.002582	5.9e-05
298.15	0.5	0.002221	5e-05
298.15	0.6	0.00188	4.2e-05
298.15	0.6999	0.001572	3.5e-05
298.15	0.8	0.001286	2.8e-05
298.15	0.9	0.001034	2.3e-05
298.15	1	0.000797	1.7e-05
303.15	0	0.00372	8.7e-05
303.15	0.0998	0.003361	7.8e-05
303.15	0.2	0.003011	6.9e-05
303.15	0.3001	0.002672	6.1e-05
303.15	0.4002	0.00234	5.3e-05
303.15	0.5	0.002022	4.6e-05
303.15	0.6	0.001726	3.9e-05
303.15	0.6999	0.00145	3.2e-05
303.15	0.8	0.001199	2.6e-05
303.15	0.9	0.000972	2.1e-05
303.15	1	0.000747	1.6e-05
308.15	0	0.003322	7.8e-05
308.15	0.0998	0.00301	7e-05
308.15	0.2	0.002709	6.2e-05
308.15	0.3001	0.002411	5.5e-05
308.15	0.4002	0.00212	4.8e-05
308.15	0.5	0.001845	4.2e-05
308.15	0.6	0.001579	3.5e-05
308.15	0.6999	0.001335	3e-05
308.15	0.8	0.00111	2.5e-05
308.15	0.9	0.000904	2e-05
308.15	1	0.000705	1.5e-05
313.15	0	0.002961	6.9e-05
313.15	0.0998	0.002694	6.3e-05
313.15	0.2	0.002432	5.6e-05
313.15	0.3001	0.00218	5e-05
313.15	0.4002	0.001925	4.4e-05
313.15	0.5	0.001685	3.8e-05
313.15	0.6	0.001454	3.3e-05
313.15	0.6999	0.001234	2.7e-05
313.15	0.8	0.001031	2.3e-05
313.15	0.9	0.000839	1.8e-05
313.15	1	0.000662	1.4e-05
318.15	0	0.002699	6.3e-05
318.15	0.0998	0.002461	5.7e-05
318.15	0.2	0.002227	5.1e-05
318.15	0.3001	0.002	4.6e-05
318.15	0.4002	0.001775	4e-05
318.15	0.5	0.001558	3.5e-05
318.15	0.6	0.001353	3e-05
318.15	0.6999	0.001152	2.6e-05
318.15	0.8	0.000964	2.1e-05
318.15	0.9	0.000791	1.7e-05
318.15	1	0.000627	1.4e-05
323.15	0	0.002451	5.8e-05
323.15	0.0998	0.002242	5.2e-05
323.15	0.2	0.002032	4.7e-05
323.15	0.3001	0.001829	4.2e-05
323.15	0.4002	0.001628	3.7e-05
323.15	0.5	0.001436	3.2e-05
323.15	0.6	0.001251	2.8e-05
323.15	0.6999	0.001071	2.4e-05
323.15	0.8	0.0009	2e-05
323.15	0.9	0.000736	1.6e-05
323.15	1	0.000585	1.3e-05

System: ethylcyclohexane + ethyl tetradecanoate; phases: Liquid
Fixed: Pressure, kPa = 100
Property: Refractive index (Na D-line) (Liquid); method: Standard Abbe refractometry
Temperature, K	Mole fraction of ethylcyclohexane	Refractive index (Na D-line)	uncertainty
293.15	0	1.4367	0.0011
293.15	0.0998	1.4365	0.0011
293.15	0.2	1.4362	0.0011
293.15	0.3001	1.4358	0.0011
293.15	0.4002	1.4354	0.0011
293.15	0.5	1.4349	0.0011
293.15	0.6	1.4344	0.0011
293.15	0.6999	1.434	0.0011
293.15	0.8	1.4337	0.0011
293.15	0.9	1.4334	0.0011
293.15	1	1.4332	0.0011
298.15	0	1.434	0.0011
298.15	0.0998	1.4338	0.0011
298.15	0.2	1.4335	0.0011
298.15	0.3001	1.4333	0.0011
298.15	0.4002	1.433	0.0011
298.15	0.5	1.4325	0.0011
298.15	0.6	1.4323	0.0011
298.15	0.6999	1.4319	0.0011
298.15	0.8	1.4317	0.0011
298.15	0.9	1.4308	0.0011
298.15	1	1.4306	0.0011
303.15	0	1.4327	0.0011
303.15	0.0998	1.4325	0.0011
303.15	0.2	1.4321	0.0011
303.15	0.3001	1.4317	0.0011
303.15	0.4002	1.4313	0.0011
303.15	0.5	1.431	0.0011
303.15	0.6	1.4307	0.0011
303.15	0.6999	1.4303	0.0011
303.15	0.8	1.4298	0.0011
303.15	0.9	1.4292	0.0011
303.15	1	1.4285	0.0011
308.15	0	1.4304	0.0011
308.15	0.0998	1.4303	0.0011
308.15	0.2	1.4297	0.0011
308.15	0.3001	1.4295	0.0011
308.15	0.4002	1.4293	0.0011
308.15	0.5	1.4288	0.0011
308.15	0.6	1.4286	0.0011
308.15	0.6999	1.428	0.0011
308.15	0.8	1.4276	0.0011
308.15	0.9	1.4269	0.0011
308.15	1	1.4264	0.0011
313.15	0	1.4283	0.0011
313.15	0.0998	1.4281	0.0011
313.15	0.2	1.4278	0.0011
313.15	0.3001	1.4274	0.0011
313.15	0.4002	1.427	0.0011
313.15	0.5	1.4265	0.0011
313.15	0.6	1.426	0.0011
313.15	0.6999	1.4255	0.0011
313.15	0.8	1.425	0.0011
313.15	0.9	1.4245	0.0011
313.15	1	1.4241	0.0011
318.15	0	1.4264	0.0011
318.15	0.0998	1.4262	0.0011
318.15	0.2	1.426	0.0011
318.15	0.3001	1.4257	0.0011
318.15	0.4002	1.4255	0.0011
318.15	0.5	1.425	0.0011
318.15	0.6	1.4247	0.0011
318.15	0.6999	1.424	0.0011
318.15	0.8	1.4235	0.0011
318.15	0.9	1.4226	0.0011
318.15	1	1.4218	0.0011
323.15	0	1.4249	0.0011
323.15	0.0998	1.4248	0.0011
323.15	0.2	1.4246	0.0011
323.15	0.3001	1.4243	0.0011
323.15	0.4002	1.4239	0.0011
323.15	0.5	1.4235	0.0011
323.15	0.6	1.423	0.0011
323.15	0.6999	1.4223	0.0011
323.15	0.8	1.4216	0.0011
323.15	0.9	1.4208	0.0011
323.15	1	1.4198	0.0011
