Measured thermophysical data. Solubility Modeling and Solvent Effect of 2-Amino-6-chloropurine in Twelve Neat Solvents
Source: J. Chem. Eng. Data, 2019, 10.1021/acs.jced.8b01014
Compound 1: 2-amino-6-chloropurine, C5H4ClN5, InChI=1S/C5H4ClN5/c6-3-2-4(9-1-8-2)11-5(7)10-3/h1H,(H3,7,8,9,10,11), purity 98.2%
Compound 2: methanol, CH4O, InChI=1S/CH4O/c1-2/h2H,1H3, purity 99.7%
Compound 3: ethanol, C2H6O, InChI=1S/C2H6O/c1-2-3/h3H,2H2,1H3, purity 99.4%
Compound 4: propan-1-ol, C3H8O, InChI=1S/C3H8O/c1-2-3-4/h4H,2-3H2,1H3, purity 99.5%
Compound 5: butan-1-ol, C4H10O, InChI=1S/C4H10O/c1-2-3-4-5/h5H,2-4H2,1H3, purity 99.4%
Compound 6: propan-2-ol, C3H8O, InChI=1S/C3H8O/c1-3(2)4/h3-4H,1-2H3, purity 99.5%
Compound 7: 2-methyl-1-propanol, C4H10O, InChI=1S/C4H10O/c1-4(2)3-5/h4-5H,3H2,1-2H3, purity 99.4%
Compound 8: dimethyl sulfoxide, C2H6OS, InChI=1S/C2H6OS/c1-4(2)3/h1-2H3, purity 99.4%
Compound 9: dimethylformamide, C3H7NO, InChI=1S/C3H7NO/c1-4(2)3-5/h3H,1-2H3, purity 99.5%
Compound 10: butanone, C4H8O, InChI=1S/C4H8O/c1-3-4(2)5/h3H2,1-2H3, purity 99.4%
Compound 11: 1,2-ethanediol, C2H6O2, InChI=1S/C2H6O2/c3-1-2-4/h3-4H,1-2H2, purity 99.5%
Compound 12: 1,4-dioxane, C4H8O2, InChI=1S/C4H8O2/c1-2-6-4-3-5-1/h1-4H2, purity 99.5%
Compound 13: water, H2O, InChI=1S/H2O/h1H2, purity 99.9%

System: 2-amino-6-chloropurine + methanol; phases: Liquid, Crystal
Fixed: Pressure, kPa = 101.2
Property: Mole fraction of 2-amino-6-chloropurine (Liquid); method: Chromatography
Temperature, K	Mole fraction of 2-amino-6-chloropurine	uncertainty
278.15	3.086e-05	1.39e-06
283.15	3.96e-05	1.78e-06
288.15	4.936e-05	2.22e-06
293.15	6.136e-05	2.75e-06
298.15	7.533e-05	3.38e-06
303.15	9.43e-05	4.23e-06
308.15	0.0001118	5e-06
313.15	0.0001374	6.2e-06
318.15	0.0001684	7.6e-06
323.15	0.0001979	8.9e-06
328.15	0.0002326	1.04e-05
333.15	0.0002791	1.25e-05

System: 2-amino-6-chloropurine + ethanol; phases: Liquid, Crystal
Fixed: Pressure, kPa = 101.2
Property: Mole fraction of 2-amino-6-chloropurine (Liquid); method: Chromatography
Temperature, K	Mole fraction of 2-amino-6-chloropurine	uncertainty
278.15	4.386e-05	1.97e-06
283.15	5.421e-05	2.43e-06
288.15	6.873e-05	3.09e-06
293.15	8.557e-05	3.84e-06
298.15	0.0001052	4.7e-06
303.15	0.0001251	5.6e-06
308.15	0.0001528	6.9e-06
313.15	0.0001843	8.3e-06
318.15	0.0002178	9.8e-06
323.15	0.0002579	1.16e-05
328.15	0.0003027	1.36e-05
333.15	0.0003569	1.6e-05

System: 2-amino-6-chloropurine + propan-1-ol; phases: Liquid, Crystal
Fixed: Pressure, kPa = 101.2
Property: Mole fraction of 2-amino-6-chloropurine (Liquid); method: Chromatography
Temperature, K	Mole fraction of 2-amino-6-chloropurine	uncertainty
278.15	0.000103	4.6e-06
283.15	0.0001221	5.5e-06
288.15	0.0001493	6.7e-06
293.15	0.0001744	7.8e-06
298.15	0.0002016	9e-06
303.15	0.0002339	1.05e-05
308.15	0.0002737	1.23e-05
313.15	0.0003144	1.41e-05
318.15	0.000362	1.62e-05
323.15	0.0004201	1.88e-05
328.15	0.000472	2.12e-05
333.15	0.0005394	2.42e-05

System: 2-amino-6-chloropurine + butan-1-ol; phases: Liquid, Crystal
Fixed: Pressure, kPa = 101.2
Property: Mole fraction of 2-amino-6-chloropurine (Liquid); method: Chromatography
Temperature, K	Mole fraction of 2-amino-6-chloropurine	uncertainty
278.15	0.0001353	6.1e-06
283.15	0.0001592	7.1e-06
288.15	0.0001853	8.3e-06
293.15	0.0002102	9.4e-06
298.15	0.0002419	1.09e-05
303.15	0.0002756	1.24e-05
308.15	0.0003155	1.42e-05
313.15	0.0003584	1.61e-05
318.15	0.0004093	1.84e-05
323.15	0.0004609	2.07e-05
328.15	0.0005149	2.31e-05
333.15	0.0005857	2.63e-05

System: 2-amino-6-chloropurine + propan-2-ol; phases: Liquid, Crystal
Fixed: Pressure, kPa = 101.2
Property: Mole fraction of 2-amino-6-chloropurine (Liquid); method: Chromatography
Temperature, K	Mole fraction of 2-amino-6-chloropurine	uncertainty
278.15	5.988e-05	2.69e-06
283.15	7.43e-05	3.34e-06
288.15	9.383e-05	4.21e-06
293.15	0.0001137	5.1e-06
298.15	0.0001367	6.1e-06
303.15	0.000165	7.4e-06
308.15	0.000195	8.7e-06
313.15	0.0002304	1.03e-05
318.15	0.000266	1.19e-05
323.15	0.0003141	1.41e-05
328.15	0.0003629	1.63e-05
333.15	0.0004313	1.94e-05

System: 2-amino-6-chloropurine + 2-methyl-1-propanol; phases: Liquid, Crystal
Fixed: Pressure, kPa = 101.2
Property: Mole fraction of 2-amino-6-chloropurine (Liquid); method: Chromatography
Temperature, K	Mole fraction of 2-amino-6-chloropurine	uncertainty
278.15	8.803e-05	3.95e-06
283.15	0.0001061	4.8e-06
288.15	0.0001312	5.9e-06
293.15	0.0001553	7e-06
298.15	0.0001804	8.1e-06
303.15	0.0002107	9.5e-06
308.15	0.0002439	1.09e-05
313.15	0.0002796	1.25e-05
318.15	0.0003253	1.46e-05
323.15	0.0003728	1.67e-05
328.15	0.0004326	1.94e-05
333.15	0.0004986	2.24e-05

System: 2-amino-6-chloropurine + dimethyl sulfoxide; phases: Liquid, Crystal
Fixed: Pressure, kPa = 101.2
Property: Mole fraction of 2-amino-6-chloropurine (Liquid); method: Chromatography
Temperature, K	Mole fraction of 2-amino-6-chloropurine	uncertainty
298.15	0.01081	0.00049
303.15	0.01269	0.00057
308.15	0.01501	0.00067
313.15	0.01718	0.00077
318.15	0.02035	0.00091
323.15	0.024	0.00108
328.15	0.02842	0.00128
333.15	0.03313	0.00149

System: 2-amino-6-chloropurine + dimethylformamide; phases: Liquid, Crystal
Fixed: Pressure, kPa = 101.2
Property: Mole fraction of 2-amino-6-chloropurine (Liquid); method: Chromatography
Temperature, K	Mole fraction of 2-amino-6-chloropurine	uncertainty
278.15	0.002259	0.000101
283.15	0.002662	0.000119
288.15	0.003127	0.00014
293.15	0.003661	0.000164
298.15	0.004274	0.000192
303.15	0.004974	0.000223
308.15	0.005773	0.000259
313.15	0.006683	0.0003
318.15	0.007715	0.000346
323.15	0.008884	0.000399
328.15	0.01001	0.00045
333.15	0.01207	0.00054

System: 2-amino-6-chloropurine + butanone; phases: Liquid, Crystal
Fixed: Pressure, kPa = 101.2
Property: Mole fraction of 2-amino-6-chloropurine (Liquid); method: Chromatography
Temperature, K	Mole fraction of 2-amino-6-chloropurine	uncertainty
278.15	0.0001783	8e-06
283.15	0.0002135	9.6e-06
288.15	0.0002563	1.15e-05
293.15	0.0003033	1.36e-05
298.15	0.000352	1.58e-05
303.15	0.0004079	1.83e-05
308.15	0.000476	2.14e-05
313.15	0.000547	2.45e-05
318.15	0.0006259	2.81e-05
323.15	0.0007233	3.25e-05
328.15	0.0008405	3.77e-05
333.15	0.001002	4.5e-05

System: 2-amino-6-chloropurine + 1,2-ethanediol; phases: Liquid, Crystal
Fixed: Pressure, kPa = 101.2
Property: Mole fraction of 2-amino-6-chloropurine (Liquid); method: Chromatography
Temperature, K	Mole fraction of 2-amino-6-chloropurine	uncertainty
278.15	0.0005488	2.46e-05
283.15	0.000634	2.84e-05
288.15	0.0007193	3.23e-05
293.15	0.0008231	3.69e-05
298.15	0.0009235	4.14e-05
303.15	0.001042	4.7e-05
308.15	0.001168	5.2e-05
313.15	0.001299	5.8e-05
318.15	0.001449	6.5e-05
323.15	0.001604	7.2e-05
328.15	0.001771	7.9e-05
333.15	0.001977	8.9e-05

System: 2-amino-6-chloropurine + 1,4-dioxane; phases: Liquid, Crystal
Fixed: Pressure, kPa = 101.2
Property: Mole fraction of 2-amino-6-chloropurine (Liquid); method: Chromatography
Temperature, K	Mole fraction of 2-amino-6-chloropurine	uncertainty
288.15	7.484e-05	3.36e-06
293.15	9.156e-05	4.11e-06
298.15	0.0001124	5e-06
303.15	0.0001349	6.1e-06
308.15	0.0001621	7.3e-06
313.15	0.0001949	8.7e-06
318.15	0.0002359	1.06e-05
323.15	0.0002768	1.24e-05
328.15	0.0003253	1.46e-05
333.15	0.000396	1.78e-05

System: 2-amino-6-chloropurine + water; phases: Liquid, Crystal
Fixed: Pressure, kPa = 101.2
Property: Mole fraction of 2-amino-6-chloropurine (Liquid); method: Chromatography
Temperature, K	Mole fraction of 2-amino-6-chloropurine	uncertainty
278.15	3.283e-06	1.48e-07
283.15	4.657e-06	2.09e-07
288.15	6.526e-06	2.93e-07
293.15	9.04e-06	4.06e-07
298.15	1.239e-05	5.6e-07
303.15	1.68e-05	7.5e-07
308.15	2.256e-05	1.01e-06
313.15	3.001e-05	1.35e-06
318.15	3.956e-05	1.78e-06
323.15	5.171e-05	2.32e-06
328.15	6.704e-05	3.01e-06
333.15	8.625e-05	3.87e-06
