Measured thermophysical data. Assessment of Pyrrolidinium-Based Ionic Liquid for the Separation of Binary Mixtures Based on Activity Coefficients at Infinite Dilution
Source: J. Chem. Eng. Data, 2019, 10.1021/acs.jced.9b00341
Compound 1: 1-(2,3-dihydroxypropyl)-1-methyl-2-oxopyrrolidinium chloride, C8H16ClNO3, InChI=1S/C8H16NO3.ClH/c1-9(5-7(11)6-10)4-2-3-8(9)12;/h7,10-11H,2-6H2,1H3;1H/q+1;/p-1
Compound 2: 2,2-dimethylbutane, C6H14, InChI=1S/C6H14/c1-5-6(2,3)4/h5H2,1-4H3, purity 95%
Compound 3: pentane, C5H12, InChI=1S/C5H12/c1-3-5-4-2/h3-5H2,1-2H3, purity 99%
Compound 4: hexane, C6H14, InChI=1S/C6H14/c1-3-5-6-4-2/h3-6H2,1-2H3, purity 99%
Compound 5: heptane, C7H16, InChI=1S/C7H16/c1-3-5-7-6-4-2/h3-7H2,1-2H3, purity 99.5%
Compound 6: nonane, C9H20, InChI=1S/C9H20/c1-3-5-7-9-8-6-4-2/h3-9H2,1-2H3, purity 99%
Compound 7: decane, C10H22, InChI=1S/C10H22/c1-3-5-7-9-10-8-6-4-2/h3-10H2,1-2H3, purity 98%
Compound 8: 1-pentene, C5H10, InChI=1S/C5H10/c1-3-5-4-2/h3H,1,4-5H2,2H3, purity 99%
Compound 9: hex-1-ene, C6H12, InChI=1S/C6H12/c1-3-5-6-4-2/h3H,1,4-6H2,2H3, purity 99%
Compound 10: 1-heptene, C7H14, InChI=1S/C7H14/c1-3-5-7-6-4-2/h3H,1,4-7H2,2H3, purity 99%
Compound 11: 1-nonene, C9H18, InChI=1S/C9H18/c1-3-5-7-9-8-6-4-2/h3H,1,4-9H2,2H3, purity 99%
Compound 12: 1-decene, C10H20, InChI=1S/C10H20/c1-3-5-7-9-10-8-6-4-2/h3H,1,4-10H2,2H3, purity 99%
Compound 13: cyclohexene, C6H10, InChI=1S/C6H10/c1-2-4-6-5-3-1/h1-2H,3-6H2, purity 99%
Compound 14: cyclohexane, C6H12, InChI=1S/C6H12/c1-2-4-6-5-3-1/h1-6H2, purity 99%
Compound 15: cyclooctane, C8H16, InChI=1S/C8H16/c1-2-4-6-8-7-5-3-1/h1-8H2, purity 99%
Compound 16: 1-pentyne, C5H8, InChI=1S/C5H8/c1-3-5-4-2/h1H,4-5H2,2H3, purity 99%
Compound 17: 1-hexyne, C6H10, InChI=1S/C6H10/c1-3-5-6-4-2/h1H,4-6H2,2H3, purity 99%
Compound 18: 1-heptyne, C7H12, InChI=1S/C7H12/c1-3-5-7-6-4-2/h1H,4-7H2,2H3, purity 99%
Compound 19: benzene, C6H6, InChI=1S/C6H6/c1-2-4-6-5-3-1/h1-6H, purity 99.7%
Compound 20: toluene, C7H8, InChI=1S/C7H8/c1-7-5-3-2-4-6-7/h2-6H,1H3, purity 99.5%
Compound 21: ethylbenzene, C8H10, InChI=1S/C8H10/c1-2-8-6-4-3-5-7-8/h3-7H,2H2,1H3, purity 99.8%
Compound 22: 1,3-dimethylbenzene, C8H10, InChI=1S/C8H10/c1-7-4-3-5-8(2)6-7/h3-6H,1-2H3, purity 99.5%
Compound 23: 1,4-dimethylbenzene, C8H10, InChI=1S/C8H10/c1-7-3-5-8(2)6-4-7/h3-6H,1-2H3, purity 99.5%
Compound 24: 1,2-dimethylbenzene, C8H10, InChI=1S/C8H10/c1-7-5-3-4-6-8(7)2/h3-6H,1-2H3, purity 99.5%
Compound 25: methanol, CH4O, InChI=1S/CH4O/c1-2/h2H,1H3, purity 99.9%
Compound 26: ethanol, C2H6O, InChI=1S/C2H6O/c1-2-3/h3H,2H2,1H3, purity 99.8%
Compound 27: propan-1-ol, C3H8O, InChI=1S/C3H8O/c1-2-3-4/h4H,2-3H2,1H3, purity 99.7%
Compound 28: butan-1-ol, C4H10O, InChI=1S/C4H10O/c1-2-3-4-5/h5H,2-4H2,1H3, purity 99.8%
Compound 29: tetrahydrofuran, C4H8O, InChI=1S/C4H8O/c1-2-4-5-3-1/h1-4H2, purity 99.5%
Compound 30: acetonitrile, C2H3N, InChI=1S/C2H3N/c1-2-3/h1H3, purity 99.8%
Compound 31: thiophene, C4H4S, InChI=1S/C4H4S/c1-2-4-5-3-1/h1-4H, purity 99%
Compound 32: acetone, C3H6O, InChI=1S/C3H6O/c1-3(2)4/h1-2H3, purity 99.9%
Compound 33: butanone, C4H8O, InChI=1S/C4H8O/c1-3-4(2)5/h3H2,1-2H3, purity 99.5%
Compound 34: water, H2O, InChI=1S/H2O/h1H2, purity 99.9%

System: 1-(2,3-dihydroxypropyl)-1-methyl-2-oxopyrrolidinium chloride + 2,2-dimethylbutane; phases: Liquid
Fixed: Mole fraction of 2,2-dimethylbutane = 0
Fixed: Pressure, kPa = 101.325
Property: Activity coefficient of 2,2-dimethylbutane (Liquid); method: Chromatography
Temperature, K	Activity coefficient of 2,2-dimethylbutane	uncertainty
313.15	15.311	1.61
323.15	13.8	1.451
333.15	12.14	1.277
343.15	10.741	1.129

System: 1-(2,3-dihydroxypropyl)-1-methyl-2-oxopyrrolidinium chloride + pentane; phases: Liquid
Fixed: Mole fraction of pentane = 0
Fixed: Pressure, kPa = 101.325
Property: Activity coefficient of pentane (Liquid); method: Chromatography
Temperature, K	Activity coefficient of pentane	uncertainty
313.15	11.552	1.215
323.15	10.831	1.139
333.15	9.44	0.993
343.15	8.167	0.859

System: 1-(2,3-dihydroxypropyl)-1-methyl-2-oxopyrrolidinium chloride + hexane; phases: Liquid
Fixed: Mole fraction of hexane = 0
Fixed: Pressure, kPa = 101.325
Property: Activity coefficient of hexane (Liquid); method: Chromatography
Temperature, K	Activity coefficient of hexane	uncertainty
313.15	18.091	1.903
323.15	17.116	1.801
333.15	14.686	1.545
343.15	12.982	1.365

System: 1-(2,3-dihydroxypropyl)-1-methyl-2-oxopyrrolidinium chloride + heptane; phases: Liquid
Fixed: Mole fraction of heptane = 0
Fixed: Pressure, kPa = 101.325
Property: Activity coefficient of heptane (Liquid); method: Chromatography
Temperature, K	Activity coefficient of heptane	uncertainty
313.15	26.395	2.778
323.15	23.644	2.488
333.15	22.098	2.325
343.15	19.65	2.067

System: 1-(2,3-dihydroxypropyl)-1-methyl-2-oxopyrrolidinium chloride + nonane; phases: Liquid
Fixed: Mole fraction of nonane = 0
Fixed: Pressure, kPa = 101.325
Property: Activity coefficient of nonane (Liquid); method: Chromatography
Temperature, K	Activity coefficient of nonane	uncertainty
313.15	47.806	5.034
323.15	43.9	4.622
333.15	41.174	4.335
343.15	38.942	4.099

System: 1-(2,3-dihydroxypropyl)-1-methyl-2-oxopyrrolidinium chloride + decane; phases: Liquid
Fixed: Mole fraction of decane = 0
Fixed: Pressure, kPa = 101.325
Property: Activity coefficient of decane (Liquid); method: Chromatography
Temperature, K	Activity coefficient of decane	uncertainty
313.15	66.647	7.019
323.15	61.932	6.522
333.15	56.8	5.981
343.15	54.571	5.747

System: 1-(2,3-dihydroxypropyl)-1-methyl-2-oxopyrrolidinium chloride + 1-pentene; phases: Liquid
Fixed: Mole fraction of 1-pentene = 0
Fixed: Pressure, kPa = 101.325
Property: Activity coefficient of 1-pentene (Liquid); method: Chromatography
Temperature, K	Activity coefficient of 1-pentene	uncertainty
313.15	7.912	0.832
323.15	7.465	0.785
333.15	7.508	0.789
343.15	7.472	0.785

System: 1-(2,3-dihydroxypropyl)-1-methyl-2-oxopyrrolidinium chloride + hex-1-ene; phases: Liquid
Fixed: Mole fraction of hex-1-ene = 0
Fixed: Pressure, kPa = 101.325
Property: Activity coefficient of hex-1-ene (Liquid); method: Chromatography
Temperature, K	Activity coefficient of hex-1-ene	uncertainty
313.15	10.121	1.064
323.15	9.823	1.033
333.15	9.859	1.037
343.15	9.709	1.021

System: 1-(2,3-dihydroxypropyl)-1-methyl-2-oxopyrrolidinium chloride + 1-heptene; phases: Liquid
Fixed: Mole fraction of 1-heptene = 0
Fixed: Pressure, kPa = 101.325
Property: Activity coefficient of 1-heptene (Liquid); method: Chromatography
Temperature, K	Activity coefficient of 1-heptene	uncertainty
313.15	14.203	1.494
323.15	14.077	1.481
333.15	13.349	1.404
343.15	12.735	1.339

System: 1-(2,3-dihydroxypropyl)-1-methyl-2-oxopyrrolidinium chloride + 1-nonene; phases: Liquid
Fixed: Mole fraction of 1-nonene = 0
Fixed: Pressure, kPa = 101.325
Property: Activity coefficient of 1-nonene (Liquid); method: Chromatography
Temperature, K	Activity coefficient of 1-nonene	uncertainty
313.15	24.581	2.587
323.15	23.386	2.461
333.15	22.314	2.348
343.15	22.199	2.336

System: 1-(2,3-dihydroxypropyl)-1-methyl-2-oxopyrrolidinium chloride + 1-decene; phases: Liquid
Fixed: Mole fraction of 1-decene = 0
Fixed: Pressure, kPa = 101.325
Property: Activity coefficient of 1-decene (Liquid); method: Chromatography
Temperature, K	Activity coefficient of 1-decene	uncertainty
313.15	29.938	3.151
323.15	28.892	3.041
333.15	27.562	2.901
343.15	27.123	2.854

System: 1-(2,3-dihydroxypropyl)-1-methyl-2-oxopyrrolidinium chloride + cyclohexene; phases: Liquid
Fixed: Mole fraction of cyclohexene = 0
Fixed: Pressure, kPa = 101.325
Property: Activity coefficient of cyclohexene (Liquid); method: Chromatography
Temperature, K	Activity coefficient of cyclohexene	uncertainty
313.15	4.216	0.443
323.15	4.154	0.436
333.15	4.11	0.432
343.15	3.986	0.419

System: 1-(2,3-dihydroxypropyl)-1-methyl-2-oxopyrrolidinium chloride + cyclohexane; phases: Liquid
Fixed: Mole fraction of cyclohexane = 0
Fixed: Pressure, kPa = 101.325
Property: Activity coefficient of cyclohexane (Liquid); method: Chromatography
Temperature, K	Activity coefficient of cyclohexane	uncertainty
313.15	4.501	0.473
323.15	4.311	0.453
333.15	4.17	0.438
343.15	3.987	0.419

System: 1-(2,3-dihydroxypropyl)-1-methyl-2-oxopyrrolidinium chloride + cyclooctane; phases: Liquid
Fixed: Mole fraction of cyclooctane = 0
Fixed: Pressure, kPa = 101.325
Property: Activity coefficient of cyclooctane (Liquid); method: Chromatography
Temperature, K	Activity coefficient of cyclooctane	uncertainty
313.15	7.123	0.749
323.15	6.494	0.683
333.15	6.019	0.633
343.15	5.638	0.593

System: 1-(2,3-dihydroxypropyl)-1-methyl-2-oxopyrrolidinium chloride + 1-pentyne; phases: Liquid
Fixed: Mole fraction of 1-pentyne = 0
Fixed: Pressure, kPa = 101.325
Property: Activity coefficient of 1-pentyne (Liquid); method: Chromatography
Temperature, K	Activity coefficient of 1-pentyne	uncertainty
313.15	2.566	0.269
323.15	2.7	0.284
333.15	2.87	0.301
343.15	3.101	0.326

System: 1-(2,3-dihydroxypropyl)-1-methyl-2-oxopyrrolidinium chloride + 1-hexyne; phases: Liquid
Fixed: Mole fraction of 1-hexyne = 0
Fixed: Pressure, kPa = 101.325
Property: Activity coefficient of 1-hexyne (Liquid); method: Chromatography
Temperature, K	Activity coefficient of 1-hexyne	uncertainty
313.15	3.452	0.363
323.15	3.62	0.38
333.15	3.772	0.396
343.15	3.979	0.418

System: 1-(2,3-dihydroxypropyl)-1-methyl-2-oxopyrrolidinium chloride + 1-heptyne; phases: Liquid
Fixed: Mole fraction of 1-heptyne = 0
Fixed: Pressure, kPa = 101.325
Property: Activity coefficient of 1-heptyne (Liquid); method: Chromatography
Temperature, K	Activity coefficient of 1-heptyne	uncertainty
313.15	4.035	0.424
323.15	4.217	0.443
333.15	4.444	0.467
343.15	4.806	0.505

System: 1-(2,3-dihydroxypropyl)-1-methyl-2-oxopyrrolidinium chloride + benzene; phases: Liquid
Fixed: Mole fraction of benzene = 0
Fixed: Pressure, kPa = 101.325
Property: Activity coefficient of benzene (Liquid); method: Chromatography
Temperature, K	Activity coefficient of benzene	uncertainty
313.15	1.51	0.156
323.15	1.615	0.168
333.15	1.737	0.181
343.15	1.853	0.194

System: 1-(2,3-dihydroxypropyl)-1-methyl-2-oxopyrrolidinium chloride + toluene; phases: Liquid
Fixed: Mole fraction of toluene = 0
Fixed: Pressure, kPa = 101.325
Property: Activity coefficient of toluene (Liquid); method: Chromatography
Temperature, K	Activity coefficient of toluene	uncertainty
313.15	1.893	0.198
323.15	2.004	0.21
333.15	2.111	0.222
343.15	2.279	0.239

System: 1-(2,3-dihydroxypropyl)-1-methyl-2-oxopyrrolidinium chloride + ethylbenzene; phases: Liquid
Fixed: Mole fraction of ethylbenzene = 0
Fixed: Pressure, kPa = 101.325
Property: Activity coefficient of ethylbenzene (Liquid); method: Chromatography
Temperature, K	Activity coefficient of ethylbenzene	uncertainty
313.15	2.875	0.302
323.15	3.008	0.316
333.15	3.192	0.335
343.15	3.363	0.353

System: 1-(2,3-dihydroxypropyl)-1-methyl-2-oxopyrrolidinium chloride + 1,3-dimethylbenzene; phases: Liquid
Fixed: Mole fraction of 1,3-dimethylbenzene = 0
Fixed: Pressure, kPa = 101.325
Property: Activity coefficient of 1,3-dimethylbenzene (Liquid); method: Chromatography
Temperature, K	Activity coefficient of 1,3-dimethylbenzene	uncertainty
313.15	3.321	0.349
323.15	3.552	0.373
333.15	3.761	0.395
343.15	3.942	0.414

System: 1-(2,3-dihydroxypropyl)-1-methyl-2-oxopyrrolidinium chloride + 1,4-dimethylbenzene; phases: Liquid
Fixed: Mole fraction of 1,4-dimethylbenzene = 0
Fixed: Pressure, kPa = 101.325
Property: Activity coefficient of 1,4-dimethylbenzene (Liquid); method: Chromatography
Temperature, K	Activity coefficient of 1,4-dimethylbenzene	uncertainty
313.15	3.16	0.332
323.15	3.357	0.353
333.15	3.55	0.373
343.15	3.733	0.392

System: 1-(2,3-dihydroxypropyl)-1-methyl-2-oxopyrrolidinium chloride + 1,2-dimethylbenzene; phases: Liquid
Fixed: Mole fraction of 1,2-dimethylbenzene = 0
Fixed: Pressure, kPa = 101.325
Property: Activity coefficient of 1,2-dimethylbenzene (Liquid); method: Chromatography
Temperature, K	Activity coefficient of 1,2-dimethylbenzene	uncertainty
313.15	2.535	0.266
323.15	2.673	0.281
333.15	2.851	0.299
343.15	3.003	0.315

System: 1-(2,3-dihydroxypropyl)-1-methyl-2-oxopyrrolidinium chloride + methanol; phases: Liquid
Fixed: Mole fraction of methanol = 0
Fixed: Pressure, kPa = 101.325
Property: Activity coefficient of methanol (Liquid); method: Chromatography
Temperature, K	Activity coefficient of methanol	uncertainty
313.15	0.177	0.032
323.15	0.236	0.035
333.15	0.319	0.04
343.15	0.443	0.05

System: 1-(2,3-dihydroxypropyl)-1-methyl-2-oxopyrrolidinium chloride + ethanol; phases: Liquid
Fixed: Mole fraction of ethanol = 0
Fixed: Pressure, kPa = 101.325
Property: Activity coefficient of ethanol (Liquid); method: Chromatography
Temperature, K	Activity coefficient of ethanol	uncertainty
313.15	0.209	0.033
323.15	0.281	0.038
333.15	0.381	0.045
343.15	0.518	0.057

System: 1-(2,3-dihydroxypropyl)-1-methyl-2-oxopyrrolidinium chloride + propan-1-ol; phases: Liquid
Fixed: Mole fraction of propan-1-ol = 0
Fixed: Pressure, kPa = 101.325
Property: Activity coefficient of propan-1-ol (Liquid); method: Chromatography
Temperature, K	Activity coefficient of propan-1-ol	uncertainty
313.15	0.335	0.042
323.15	0.429	0.049
333.15	0.534	0.058
343.15	0.672	0.07

System: 1-(2,3-dihydroxypropyl)-1-methyl-2-oxopyrrolidinium chloride + butan-1-ol; phases: Liquid
Fixed: Mole fraction of butan-1-ol = 0
Fixed: Pressure, kPa = 101.325
Property: Activity coefficient of butan-1-ol (Liquid); method: Chromatography
Temperature, K	Activity coefficient of butan-1-ol	uncertainty
313.15	0.456	0.051
323.15	0.539	0.058
333.15	0.649	0.068
343.15	0.792	0.082

System: 1-(2,3-dihydroxypropyl)-1-methyl-2-oxopyrrolidinium chloride + tetrahydrofuran; phases: Liquid
Fixed: Mole fraction of tetrahydrofuran = 0
Fixed: Pressure, kPa = 101.325
Property: Activity coefficient of tetrahydrofuran (Liquid); method: Chromatography
Temperature, K	Activity coefficient of tetrahydrofuran	uncertainty
313.15	1.053	0.107
323.15	1.22	0.125
333.15	1.437	0.149
343.15	1.659	0.173

System: 1-(2,3-dihydroxypropyl)-1-methyl-2-oxopyrrolidinium chloride + acetonitrile; phases: Liquid
Fixed: Mole fraction of acetonitrile = 0
Fixed: Pressure, kPa = 101.325
Property: Activity coefficient of acetonitrile (Liquid); method: Chromatography
Temperature, K	Activity coefficient of acetonitrile	uncertainty
313.15	2.63	0.276
323.15	2.845	0.299
333.15	3.038	0.319
343.15	3.207	0.337

System: 1-(2,3-dihydroxypropyl)-1-methyl-2-oxopyrrolidinium chloride + thiophene; phases: Liquid
Fixed: Mole fraction of thiophene = 0
Fixed: Pressure, kPa = 101.325
Property: Activity coefficient of thiophene (Liquid); method: Chromatography
Temperature, K	Activity coefficient of thiophene	uncertainty
313.15	0.811	0.083
323.15	0.948	0.097
333.15	1.097	0.112
343.15	1.256	0.129

System: 1-(2,3-dihydroxypropyl)-1-methyl-2-oxopyrrolidinium chloride + acetone; phases: Liquid
Fixed: Mole fraction of acetone = 0
Fixed: Pressure, kPa = 101.325
Property: Activity coefficient of acetone (Liquid); method: Chromatography
Temperature, K	Activity coefficient of acetone	uncertainty
313.15	0.676	0.071
323.15	0.884	0.09
333.15	1.115	0.114
343.15	1.43	0.148

System: 1-(2,3-dihydroxypropyl)-1-methyl-2-oxopyrrolidinium chloride + butanone; phases: Liquid
Fixed: Mole fraction of butanone = 0
Fixed: Pressure, kPa = 101.325
Property: Activity coefficient of butanone (Liquid); method: Chromatography
Temperature, K	Activity coefficient of butanone	uncertainty
313.15	1.129	0.115
323.15	1.352	0.139
333.15	1.636	0.17
343.15	2.016	0.212

System: 1-(2,3-dihydroxypropyl)-1-methyl-2-oxopyrrolidinium chloride + water; phases: Liquid
Fixed: Mole fraction of water = 0
Fixed: Pressure, kPa = 101.325
Property: Activity coefficient of water (Liquid); method: Chromatography
Temperature, K	Activity coefficient of water	uncertainty
313.15	0.932	0.095
323.15	0.839	0.086
333.15	0.762	0.079
343.15	0.698	0.073
