Measured thermophysical data. Heat Capacity and Phase Behavior of Selected Oligo(ethylene glycol)s
Source: J. Chem. Eng. Data, 2019, 10.1021/acs.jced.9b00140
Compound 1: 1,2-ethanediol, C2H6O2, InChI=1S/C2H6O2/c3-1-2-4/h3-4H,1-2H2, purity 99.81%
Compound 2: diethylene glycol, C4H10O3, InChI=1S/C4H10O3/c5-1-3-7-4-2-6/h5-6H,1-4H2, purity 99.98%
Compound 3: triethylene glycol, C6H14O4, InChI=1S/C6H14O4/c7-1-3-9-5-6-10-4-2-8/h7-8H,1-6H2, purity 99.9%
Compound 4: tetraethylene glycol, C8H18O5, InChI=1S/C8H18O5/c9-1-3-11-5-7-13-8-6-12-4-2-10/h9-10H,1-8H2, purity 99.2%
Compound 5: 3,6,9,12-tetraoxatetradecane-1,14-diol, C10H22O6, InChI=1S/C10H22O6/c11-1-3-13-5-7-15-9-10-16-8-6-14-4-2-12/h11-12H,1-10H2, purity 99.3%
Compound 6: 3,6,9,12,15-pentaoxaheptadecane-1,17-diol, C12H26O7, InChI=1S/C12H26O7/c13-1-3-15-5-7-17-9-11-19-12-10-18-8-6-16-4-2-14/h13-14H,1-12H2, purity 98.5%

System: 1,2-ethanediol; phases: Crystal, Liquid, Air at 1 atmosphere
Property: Triple point temperature, K (Crystal); method: DSC
Triple point temperature, K	uncertainty
259.9	0.8

System: 1,2-ethanediol; phases: Crystal, Liquid, Air at 1 atmosphere
Property: Molar enthalpy of transition or fusion, kJ/mol (Crystal); method: DSC
Molar enthalpy of transition or fusion, kJ/mol	uncertainty
12.2	0.5

System: 1,2-ethanediol; phases: Liquid
Fixed: Pressure, kPa = 100
Property: Molar heat capacity at constant pressure, J/K/mol (Liquid); method: Extra sensitive DSC
Temperature, K	Molar heat capacity at constant pressure, J/K/mol	uncertainty
265	139.849213836	5.40439887
265.47	139.932358434	5.40439887
270	141.262672002	5.487543468
270	141.262672002	5.487543468
275	142.676130168	5.487543468
275	142.676130168	5.487543468
280	144.089588334	5.570688066
280	144.089588334	5.570688066
285	145.586191098	5.653832664
285	145.586191098	5.653832664
290	147.249083058	5.736977262
290	147.249083058	5.736977262
295	148.911975018	5.736977262
295	148.911975018	5.736977262
300	150.325433184	5.82012186
300	150.408577782	5.82012186
305	151.905180546	5.903266458
305	151.905180546	5.903266458
310	153.484927908	5.903266458
310	153.484927908	5.903266458
315	154.981530672	5.986411056
315	154.981530672	5.986411056
320	156.561278034	6.069555654
320	156.561278034	6.069555654
325	158.224169994	6.152700252
325	158.141025396	6.152700252
330	159.803917356	6.152700252
330	159.720772758	6.152700252
335	161.549953914	6.23584485
335	161.549953914	6.23584485
340	163.129701276	6.318989448
340	163.129701276	6.318989448
345	164.543159442	6.402134046
345	164.543159442	6.402134046
350	166.039762206	6.402134046
350	165.956617608	6.402134046
355	167.53636497	6.485278644
355	167.53636497	6.485278644
357.98	168.534100146	6.568423242
357.99	168.450955548	6.485278644

System: diethylene glycol; phases: Crystal, Liquid, Air at 1 atmosphere
Property: Triple point temperature, K (Crystal); method: DSC
Triple point temperature, K	uncertainty
265.1	0.8

System: diethylene glycol; phases: Crystal, Liquid, Air at 1 atmosphere
Property: Molar enthalpy of transition or fusion, kJ/mol (Crystal); method: DSC
Molar enthalpy of transition or fusion, kJ/mol	uncertainty
18.1	0.7

System: diethylene glycol; phases: Metastable liquid
Fixed: Pressure, kPa = 100
Property: Molar heat capacity at constant pressure, J/K/mol (Metastable liquid); method: Extra sensitive DSC
Temperature, K	Molar heat capacity at constant pressure, J/K/mol	uncertainty
261.22	234.88348935	9.062761182
261.71	234.88348935	9.062761182
265	235.71493533	9.14590578
265	235.881224526	9.14590578
270	237.045248898	9.14590578
270	237.37782729	9.229050378
275	238.541851662	9.229050378
275	238.874430054	9.229050378
280	240.204743622	9.312194976
280	240.454177416	9.312194976
285	241.867635582	9.395339574
285	242.283358572	9.395339574
290	243.447382944	9.395339574
290	243.779961336	9.478484172
295	245.110274904	9.478484172
295	245.2765641	9.478484172
300	246.93945606	9.56162877
300	247.105745256	9.56162877
305	248.519203422	9.644773368
305	248.768637216	9.644773368
310	250.182095382	9.727917966
310	250.348384578	9.727917966
315	251.92813194	9.727917966
315	252.094421136	9.727917966
320	253.507879302	9.811062564
320	253.757313096	9.811062564
325	255.337060458	9.894207162
325	255.503349654	9.894207162
330	257.249386212	9.97735176
330	257.33253081	9.97735176
335	259.577434956	10.060496358
335	259.743724152	10.060496358
340	261.48976071	10.143640956
340	261.48976071	10.143640956
345	263.069508072	10.226785554
345	263.069508072	10.226785554
350	265.148123022	10.309930152
350	265.23126762	10.309930152
355	267.30988257	10.39307475
355	267.476171766	10.39307475
357.95	268.806485334	10.39307475
357.97	268.640196138	10.39307475

System: triethylene glycol; phases: Crystal, Liquid, Air at 1 atmosphere
Property: Triple point temperature, K (Crystal); method: DSC
Triple point temperature, K	uncertainty
262.7	0.8

System: triethylene glycol; phases: Crystal, Liquid, Air at 1 atmosphere
Property: Molar enthalpy of transition or fusion, kJ/mol (Crystal); method: DSC
Molar enthalpy of transition or fusion, kJ/mol	uncertainty
23.6	0.9

System: triethylene glycol; phases: Metastable liquid
Fixed: Pressure, kPa = 100
Property: Molar heat capacity at constant pressure, J/K/mol (Metastable liquid); method: Extra sensitive DSC
Temperature, K	Molar heat capacity at constant pressure, J/K/mol	uncertainty
266.29	323.43248622	12.554834298
266.32	323.43248622	12.554834298
270	325.09537818	12.554834298
270	325.09537818	12.554834298
275	326.75827014	12.637978896
275	326.75827014	12.637978896
280	328.254872904	12.721123494
280	328.171728306	12.721123494
285	329.917764864	12.804268092
285	329.834620266	12.804268092
290	331.663801422	12.804268092
290	331.580656824	12.804268092
295	333.40983798	12.88741269
295	333.243548784	12.88741269
300	335.155874538	12.970557288
300	335.155874538	12.970557288
305	337.234489488	13.053701886
305	337.068200292	13.053701886
310	338.980526046	13.136846484
310	338.897381448	13.136846484
315	340.8928518	13.219991082
315	340.8928518	13.219991082
320	343.137755946	13.30313568
320	342.97146675	13.30313568
325	345.299515494	13.386280278
325	345.299515494	13.386280278
330	347.294985846	13.469424876
330	347.710708836	13.469424876
335	349.789323786	13.552569474
335	350.03875758	13.552569474
340	352.366806324	13.635714072
340	352.449950922	13.635714072
345	354.528565872	13.71885867
345	354.279132078	13.71885867
350	356.357747028	13.802003268
350	355.692590244	13.802003268
353.04	357.355482204	13.802003268
353.4	357.10604841	13.802003268

System: tetraethylene glycol; phases: Crystal, Liquid, Air at 1 atmosphere
Property: Triple point temperature, K (Crystal); method: DSC
Triple point temperature, K	uncertainty
268.3	0.8

System: tetraethylene glycol; phases: Crystal, Liquid, Air at 1 atmosphere
Property: Molar enthalpy of transition or fusion, kJ/mol (Crystal); method: DSC
Molar enthalpy of transition or fusion, kJ/mol	uncertainty
30.1	1.1

System: tetraethylene glycol; phases: Metastable liquid
Fixed: Pressure, kPa = 100
Property: Molar heat capacity at constant pressure, J/K/mol (Metastable liquid); method: Extra sensitive DSC
Temperature, K	Molar heat capacity at constant pressure, J/K/mol	uncertainty
260.72	417.80160495	16.21319661
260.79	417.884749548	16.21319661
265	418.300472538	16.21319661
265	418.466761734	16.21319661
270	419.381352312	16.21319661
270	419.298207714	16.21319661
275	420.628521282	16.296341208
275	420.545376684	16.296341208
280	421.792545654	16.296341208
280	421.709401056	16.296341208
285	423.20600382	16.379485806
285	422.956570026	16.379485806
290	424.86889578	16.462630404
290	424.702606584	16.462630404
295	426.698076936	16.545775002
295	426.698076936	16.545775002
300	428.277824298	16.545775002
300	428.360968896	16.6289196
305	430.023860856	16.6289196
305	430.023860856	16.6289196
310	431.853042012	16.712064198
310	431.769897414	16.712064198
315	433.59907857	16.795208796
315	433.59907857	16.795208796
320	435.26197053	16.878353394
320	435.428259726	16.878353394
325	437.590019274	16.961497992
325	437.590019274	16.961497992
330	440.084357214	17.04464259
330	440.167501812	17.04464259
335	442.911273546	17.127787188
335	443.077562742	17.127787188
340	444.906743898	17.210931786
340	444.574165506	17.210931786
345	446.735925054	17.294076384
345	446.153912868	17.294076384
350	449.39655219	17.377220982
350	449.230262994	17.377220982
355	452.140323924	17.543510178
355	452.223468522	17.543510178
357.55	453.803215884	17.543510178
357.97	453.96950508	17.543510178

System: 3,6,9,12-tetraoxatetradecane-1,14-diol; phases: Crystal, Liquid, Air at 1 atmosphere
Property: Triple point temperature, K (Crystal); method: DSC
Triple point temperature, K	uncertainty
275.5	0.8

System: 3,6,9,12-tetraoxatetradecane-1,14-diol; phases: Crystal, Liquid, Air at 1 atmosphere
Property: Molar enthalpy of transition or fusion, kJ/mol (Crystal); method: DSC
Molar enthalpy of transition or fusion, kJ/mol	uncertainty
37	1.3

System: 3,6,9,12-tetraoxatetradecane-1,14-diol; phases: Metastable liquid
Fixed: Pressure, kPa = 100
Property: Molar heat capacity at constant pressure, J/K/mol (Metastable liquid); method: Extra sensitive DSC
Temperature, K	Molar heat capacity at constant pressure, J/K/mol	uncertainty
261.44	515.579652198	19.95470352
261.54	515.4965076	19.95470352
265	515.330218404	19.95470352
265	515.4965076	19.95470352
270	515.330218404	19.95470352
270	515.413363002	19.95470352
275	515.91223059	19.95470352
275	515.995375188	19.95470352
280	516.74367657	20.037848118
280	516.826821168	20.037848118
285	517.57512255	20.037848118
285	517.99084554	20.037848118
290	517.907700942	20.037848118
290	517.907700942	20.037848118
295	519.736882098	20.120992716
295	520.152605088	20.120992716
300	521.233484862	20.204137314
300	521.566063254	20.204137314
305	522.646943028	20.204137314
305	522.896376822	20.287281912
310	524.060401194	20.287281912
310	524.392979586	20.287281912
315	525.640148556	20.37042651
315	525.88958235	20.37042651
320	527.13675132	20.453571108
320	527.386185114	20.453571108
325	529.547944662	20.536715706
325	529.298510868	20.536715706
330	531.70970421	20.619860304
330	531.377125818	20.619860304
335	534.952343532	20.703004902
335	535.03548813	20.703004902
340	537.11410308	20.7861495
340	537.11410308	20.7861495
345	539.19271803	20.869294098
345	539.275862628	20.869294098
350	542.10277896	21.035583294
350	541.853345166	20.952438696
355	545.262273684	21.118727892
355	544.5971169	21.118727892
357.78	546.426298056	21.20187249
357.99	547.257744036	21.20187249

System: 3,6,9,12,15-pentaoxaheptadecane-1,17-diol; phases: Crystal, Liquid, Air at 1 atmosphere
Property: Triple point temperature, K (Crystal); method: DSC
Triple point temperature, K	uncertainty
280.8	0.8

System: 3,6,9,12,15-pentaoxaheptadecane-1,17-diol; phases: Crystal, Liquid, Air at 1 atmosphere
Property: Molar enthalpy of transition or fusion, kJ/mol (Crystal); method: DSC
Molar enthalpy of transition or fusion, kJ/mol	uncertainty
44.3	1.6

System: 3,6,9,12,15-pentaoxaheptadecane-1,17-diol; phases: Liquid
Fixed: Pressure, kPa = 100
Property: Molar heat capacity at constant pressure, J/K/mol (Liquid); method: Extra sensitive DSC
Temperature, K	Molar heat capacity at constant pressure, J/K/mol	uncertainty
292.37	615.353169798	23.862499626
295	615.519458994	23.862499626
295.02	616.683483366	23.862499626
300	617.514929346	23.945644224
300	616.51719417	23.862499626
305	618.762098316	23.945644224
305	617.598073944	23.945644224
310	619.926122688	24.028788822
310	619.094676708	23.945644224
315	621.256436256	24.028788822
315	620.508134874	24.028788822
320	622.919328216	24.11193342
320	622.087882236	24.11193342
325	624.665364774	24.195078018
325	624.00020799	24.195078018
330	626.743979724	24.278222616
330	626.07882294	24.278222616
335	628.656305478	24.361367214
335	628.323727086	24.361367214
340	630.23605284	24.444511812
340	629.986619046	24.361367214
345	632.231523192	24.52765641
345	632.73039078	24.52765641
350	635.889885504	24.610801008
350	635.557307112	24.610801008
355	638.96623563	24.777090204
355	638.716801836	24.777090204
357.95	640.795416786	24.777090204
358.03	640.296549198	24.777090204
