Measured thermophysical data. Bubble-Point Measurements of n-Propane + n-Decane Binary Mixtures with Comparisons of Binary Mixture Interaction Parameters for Linear Alkanes
Source: J. Chem. Eng. Data, 2016, 10.1021/acs.jced.6b00258
Compound 1: propane, C3H8, InChI=1S/C3H8/c1-3-2/h3H2,1-2H3
Compound 2: decane, C10H22, InChI=1S/C10H22/c1-3-5-7-9-10-8-6-4-2/h3-10H2,1-2H3

System: propane + decane; phases: Liquid, Gas
Property: Vapor or sublimation pressure, kPa (Liquid); method: Closed cell (Static) method
Mole fraction of propane	Temperature, K	Vapor or sublimation pressure, kPa	uncertainty
0.731	270	313.52	8.33
0.731	275	365.03	8.51
0.731	280	421.76	8.69
0.731	285	483.56	8.88
0.731	285	483.62	8.88
0.731	290	551.33	9.08
0.731	290	552.15	9.08
0.731	295	626.26	9.28
0.731	300	707.93	9.51
0.731	300	707.79	9.51
0.731	305	796.24	9.85
0.731	310	891.91	10.21
0.731	315	991.98	12.74
0.731	315	993.51	12.74
0.731	320	1100.52	13.14
0.731	320	1100.05	13.14
0.731	325	1203.46	13.54
0.731	325	1192.51	13.52
0.731	330	1309.73	13.89
0.731	330	1309.68	13.89
0.731	335	1439.13	14.29
0.731	340	1576.56	14.84
0.731	345	1721.22	15.33
0.731	350	1872.35	15.84
0.731	355	2030.24	16.49
0.731	360	2197.17	17.21
0.731	365	2370.02	17.84
0.731	370	2550.34	18.52
0.726	270	311.98	12.1
0.726	275	361.33	12.23
0.726	280	417.09	12.37
0.726	285	478.5	12.51
0.726	290	546.77	12.66
0.726	295	621.12	12.82
0.726	295	622.86	12.81
0.726	300	703.77	13.02
0.726	300	703.8	13.01
0.726	305	789.97	13.32
0.726	305	791.16	13.31
0.726	305	792.09	13.3
0.726	310	883.8	13.68
0.726	315	986.17	15.72
0.726	315	985.25	15.73
0.726	315	986.82	15.71
0.726	320	1092.67	16.57
0.726	320	1092.77	16.56
0.726	325	1182.63	16.56
0.726	325	1182.62	16.56
0.726	325	1186.52	16.49
0.726	330	1307.04	16.85
0.726	335	1431.75	17.26
0.726	340	1571.75	17.81
0.726	345	1721.82	18.4
0.726	350	1865.24	18.92
0.726	355	2027.28	19.79
0.726	360	2192.82	20.49
0.726	365	2354.31	21.51
0.726	370	2533.71	22.82
0.512	270	219.56	7.58
0.512	275	253.73	7.83
0.512	280	290.84	8.1
0.512	285	332.58	8.41
0.512	290	378.2	8.79
0.512	295	427.64	9.25
0.512	300	481.47	9.72
0.512	300	481.91	9.51
0.512	305	538.64	10.15
0.512	305	539.51	10.15
0.512	310	601.44	10.83
0.512	310	601.28	10.83
0.512	315	668.53	14
0.512	315	665.85	14
0.512	320	735.93	14.7
0.512	325	810.9	15.51
0.512	330	890.63	16.39
0.512	335	974.55	17.24
0.512	340	1057.58	18.56
0.512	340	1056.73	18.56
0.512	345	1143.83	19.62
0.305	270	128.26	14.25
0.305	275	146.46	14.27
0.305	280	167.81	14.31
0.305	285	191.2	14.35
0.305	290	216.65	14.4
0.305	295	244.25	14.44
0.305	300	274.06	14.49
0.305	305	306.04	14.53
0.305	310	340.33	14.58
0.305	315	375.39	16.76
0.305	315	376.87	16.76
0.305	320	414.09	16.81
0.305	325	454.83	14.73
0.305	330	497.85	14.8
0.305	335	538.68	14.86
0.305	335	543.26	14.86
0.305	340	585.45	14.91
0.305	345	634.21	17.08
0.305	350	684.98	17.13
0.305	355	737.84	17.21
0.305	360	792.61	17.31
0.305	365	849.17	17.44
0.305	370	907.62	17.72
0.148	270	62.8	6.04
0.148	275	70.65	6.1
0.148	280	80.52	6.19
0.148	285	91.7	6.27
0.148	290	103.63	6.33
0.148	295	116.52	6.41
0.148	300	130.49	6.49
0.148	305	144.31	6.58
0.148	305	145.39	6.58
0.148	310	159.14	6.64
0.148	310	161.3	6.64
0.148	315	175.99	10.78
0.148	320	193.56	10.82
0.148	325	212.55	10.86
0.148	325	212.41	10.86
0.148	330	232.25	10.93
0.148	330	231.47	10.93
0.148	335	252.61	10.97
0.148	335	253.43	10.97
0.148	340	275.22	11.03
0.148	340	274.77	11.03
0.148	345	298.16	11.08
0.148	350	320.88	11.15
0.148	355	346.09	11.19
0.148	360	371.7	11.26
0.148	365	398.97	11.33
0.148	370	426.05	11.38
