Measured thermophysical data. Melting of Eutectic Mixtures in Silica and Carbon Nanopores
Source: J. Chem. Eng. Data, 2015, 10.1021/acs.jced.5b00131
Compound 1: tetrachloromethane, CCl4, InChI=1S/CCl4/c2-1(3,4)5, purity 99%
Compound 2: 1,3-dibromobenzene, C6H4Br2, InChI=1S/C6H4Br2/c7-5-2-1-3-6(8)4-5/h1-4H, purity 97%
Compound 3: bromobenzene, C6H5Br, InChI=1S/C6H5Br/c7-6-4-2-1-3-5-6/h1-5H, purity 99%

System: tetrachloromethane; phases: Liquid
Property: Mass density, kg/m3 (Liquid); method: Vibrating tube method
Temperature, K	Pressure, kPa	Mass density, kg/m3	uncertainty
298	101.325	1594	10

System: tetrachloromethane; phases: Crystal 1, Liquid, Air at 1 atmosphere
Property: Triple point temperature, K (Crystal 1); method: dielectric measurements
Triple point temperature, K	uncertainty
250.4	1.6

System: 1,3-dibromobenzene; phases: Liquid
Property: Mass density, kg/m3 (Liquid); method: Vibrating tube method
Temperature, K	Pressure, kPa	Mass density, kg/m3	uncertainty
298	101.325	1952	12

System: 1,3-dibromobenzene; phases: Crystal, Liquid, Air at 1 atmosphere
Property: Triple point temperature, K (Crystal); method: dielectric measurements
Triple point temperature, K	uncertainty
266	1.6

System: bromobenzene; phases: Liquid
Property: Mass density, kg/m3 (Liquid); method: Vibrating tube method
Temperature, K	Pressure, kPa	Mass density, kg/m3	uncertainty
298	101.325	1491	10

System: tetrachloromethane + 1,3-dibromobenzene; phases: Crystal 1, Crystal, Liquid, Air at 1 atmosphere
Property: Eutectic temperature, K (Crystal 1); method: dielectric
Eutectic temperature, K	uncertainty
218.2	1.4

System: tetrachloromethane + 1,3-dibromobenzene; phases: Crystal 1, Liquid, Air at 1 atmosphere
Property: Triple point temperature, K (Crystal 1); method: dielectric
Mole fraction of 1,3-dibromobenzene	Triple point temperature, K	uncertainty
0	250.4	1.4
0.1	225	5.3

System: tetrachloromethane + 1,3-dibromobenzene; phases: Crystal, Liquid, Air at 1 atmosphere
Property: Triple point temperature, K (Crystal); method: dielectric
Mole fraction of 1,3-dibromobenzene	Triple point temperature, K	uncertainty
0.2	220.5	2.3
0.3	229.7	2.3
0.4	237.8	1.9
0.5	242.7	1.7
0.6	247.2	1.8
0.7	254.1	1.9
0.8	259	1.6
1	266	1.4
