Measured thermophysical data. Thermodynamic Properties of Octamethylcyclotetrasiloxane
Source: J. Chem. Eng. Data, 2016, 10.1021/acs.jced.6b00261
Compound 1: octamethylcyclotetrasiloxane, C8H24O4Si4, InChI=1S/C8H24O4Si4/c1-13(2)9-14(3,4)11-16(7,8)12-15(5,6)10-13/h1-8H3, purity 99.58%

System: octamethylcyclotetrasiloxane; phases: Liquid
Fixed: Frequency, MHz = 8
Property: Speed of sound, m/s (Liquid); method: Pulse-echo method
Temperature, K	Pressure, kPa	Speed of sound, m/s	uncertainty
299.787	130	911.09	1.27
299.797	520	913.77	1.27
299.806	980	916.96	1.27
299.812	1500	920.51	1.27
299.818	1980	923.9	1.26
299.831	3440	933.79	1.24
299.85	6010	950.89	1.24
300.151	10240	978.63	1.18
299.672	14920	1006.82	1.14
350.07	120	747.75	0.95
350.059	530	751.64	1.52
350.054	960	755.62	1.6
350.049	1480	760.43	1.59
350.041	1960	764.8	1.38
350.043	3530	778.49	1.43
350.032	6210	800.86	1.38
349.997	10200	832.31	1.34
349.978	14970	866.97	1.25
350.348	22660	915.86	1.21
349.965	26230	939.02	1.2
399.707	120	600.99	1.31
399.705	510	605.91	1.93
399.699	1030	612.25	1.9
399.698	1460	617.43	1.88
399.7	2040	624.18	1.73
399.678	3610	641.86	1.74
399.644	6070	667.98	1.64
399.637	10120	706.83	1.53
399.635	15100	749.46	1.44
399.687	19290	782.02	1.31
399.616	19680	784.97	1.31
449.642	130	461.18	2.91
449.641	500	467.67	2.66
449.632	960	475.36	2.71
449.703	1490	484.22	2.6
449.688	1960	491.86	2.35
449.77	3600	516.36	2.22
449.868	5900	547.45	1.98
450	10040	596.17	1.8
450.194	15080	646.97	1.67
450.225	16420	659.13	1.57
499.923	330	321.35	5.94
499.942	520	329.04	5.93
499.924	1490	354.75	3.85
499.914	2030	367.4	3.35
499.882	3480	398.42	2.93
499.877	6030	444.06	2.39
500	10650	509.56	2.02
499.927	11150	515.95	2.02
549.607	3880	300.55	3.79
549.564	4550	317.1	3.66
549.552	5070	329.01	3.47
549.544	5510	338.9	3.49
549.973	6640	364.29	3.49
