Measured thermophysical data. Vapor Liquid Equilibrium for Binary Mixtures of Acetates in the Direct Esterification of Fusel Oil
Source: J. Chem. Eng. Data, 2017, 10.1021/acs.jced.6b00221
Compound 1: ethyl acetate, C4H8O2, InChI=1S/C4H8O2/c1-3-6-4(2)5/h3H2,1-2H3, purity 99%
Compound 2: 2-methylpropyl ethanoate, C6H12O2, InChI=1S/C6H12O2/c1-5(2)4-8-6(3)7/h5H,4H2,1-3H3, purity 98%
Compound 3: 3-methylbutyl ethanoate, C7H14O2, InChI=1S/C7H14O2/c1-6(2)4-5-9-7(3)8/h6H,4-5H2,1-3H3, purity 99%

System: ethyl acetate; phases: Liquid, Gas
Property: Boiling temperature at pressure P, K (Liquid); method: Ebulliometric method (Recirculating still)
Pressure, kPa	Boiling temperature at pressure P, K	uncertainty
54.99	332.82	0.19
59.98	335.16	0.18
70	339.42	0.16
75	340.92	0.15
80	343.18	0.16
84.99	344.93	0.14
89.91	346.58	0.13
95.01	348.2	0.13
101.33	350.16	0.13
104.99	351.26	0.12
109.98	352.67	0.11
119.9	355.36	0.11
124.98	356.62	0.11
129.93	357.86	0.1
134.95	359.08	0.1
139.96	360.24	0.1
149.95	362.48	0.1
154.97	363.56	0.09
159.96	364.6	0.09
164.99	365.64	0.09
174.99	367.61	0.09
180	368.58	0.08
185	369.5	0.08

System: ethyl acetate; phases: Liquid, Gas
Property: Vapor or sublimation pressure, kPa (Liquid); method: Ebulliometric method (Recirculating still)
Temperature, K	Vapor or sublimation pressure, kPa	uncertainty
330.41	50	0.3
349.7	100	0.3
362.48	150	0.3

System: 2-methylpropyl ethanoate; phases: Liquid, Gas
Property: Boiling temperature at pressure P, K (Liquid); method: Ebulliometric method (Recirculating still)
Pressure, kPa	Boiling temperature at pressure P, K	uncertainty
39.99	361	0.26
49.98	367.41	0.24
59.99	372.89	0.21
70	377.39	0.18
80	381.58	0.18
90	385.54	0.17
100	389.37	0.15
110	392.35	0.14
120	395.26	0.14
130	398.16	0.13
140	400.84	0.13
150	403.64	0.14

System: 2-methylpropyl ethanoate; phases: Liquid, Gas
Property: Vapor or sublimation pressure, kPa (Liquid); method: Ebulliometric method (Recirculating still)
Temperature, K	Vapor or sublimation pressure, kPa	uncertainty
367.51	50	0.3
389.37	100	0.4
403.64	150	0.4
388.93	100	0.4
403.22	150	0.4

System: 3-methylbutyl ethanoate; phases: Liquid, Gas
Property: Boiling temperature at pressure P, K (Liquid); method: Ebulliometric method (Recirculating still)
Pressure, kPa	Boiling temperature at pressure P, K	uncertainty
20	365.29	0.43
29.98	376.06	0.38
40.01	384.31	0.3
49.99	391.07	0.25
60	396.76	0.21
70	401.72	0.19
80.01	406.18	0.17
90	410.24	0.16
100.01	413.9	0.14
110	417.15	0.14
119.99	420.43	0.13
130	423.46	0.12
139.99	426.33	0.12
149.99	429.05	0.11
160.01	431.61	0.11

System: 3-methylbutyl ethanoate; phases: Liquid, Gas
Property: Vapor or sublimation pressure, kPa (Liquid); method: Ebulliometric method (Recirculating still)
Temperature, K	Vapor or sublimation pressure, kPa	uncertainty
413.99	100	0.3

System: 2-methylpropyl ethanoate + ethyl acetate; phases: Liquid, Gas
Property: Boiling temperature at pressure P, K (Liquid); method: Ebulliometric method (Recirculating still)
Mole fraction of ethyl acetate	Pressure, kPa	Boiling temperature at pressure P, K	uncertainty
0	50	367.51	0.22
0.061	50	363.08	1.22
0.256	50	351.87	1.07
0.374	50	346.72	0.85
0.459	50	343.46	0.72
0.526	50	341.49	0.67
0.604	50	338.84	0.67
0.63	50	338.22	0.53
0.712	50	336.2	0.51
0.833	50	333.44	0.47
0.949	50	331.06	0.41
1	50	330.41	0.18
0	100	389.37	0.25
0.058	100	384.96	1.28
0.152	100	378.93	1.22
0.26	100	372.8	1.11
0.379	100	367.4	0.79
0.465	100	364.03	0.78
0.549	100	360.78	0.71
0.606	100	359.32	0.69
0.637	100	358.28	0.36
0.708	100	356.36	0.5
0.829	100	353.11	0.52
0.941	100	350.69	0.52
1	100	349.7	0.19
0	150	403.64	0.26
0.053	150	399.57	1.42
0.148	150	393.26	1.22
0.312	150	383.99	1.04
0.461	150	377.44	0.85
0.554	150	374.17	0.75
0.599	150	372.52	0.67
0.631	150	371.75	0.59
0.7	150	369.77	0.63
0.817	150	366.19	0.55
0.929	150	363.89	0.45
1	150	362.48	0.19

System: 2-methylpropyl ethanoate + ethyl acetate; phases: Gas, Liquid
Property: Mole fraction of ethyl acetate (Gas); method: Chromatography
Mole fraction of ethyl acetate	Pressure, kPa	Mole fraction of ethyl acetate	uncertainty
0	50	0	
0.061	50	0.192	0.047
0.256	50	0.558	0.039
0.374	50	0.698	0.03
0.459	50	0.773	0.026
0.526	50	0.815	0.024
0.604	50	0.864	0.023
0.63	50	0.873	0.022
0.712	50	0.913	0.022
0.833	50	0.955	0.021
0.949	50	0.987	0.013
1	50	1	
0	100	0	
0.058	100	0.17	0.052
0.152	100	0.374	0.042
0.26	100	0.542	0.035
0.379	100	0.681	0.029
0.465	100	0.757	0.026
0.549	100	0.821	0.024
0.606	100	0.853	0.023
0.637	100	0.866	0.023
0.708	100	0.904	0.022
0.829	100	0.95	0.021
0.941	100	0.985	0.015
1	100	1	
0	150	0	
0.053	150	0.149	0.051
0.148	150	0.354	0.04
0.312	150	0.603	0.033
0.461	150	0.743	0.027
0.554	150	0.808	0.025
0.599	150	0.838	0.023
0.631	150	0.854	0.023
0.7	150	0.892	0.022
0.817	150	0.943	0.021
0.929	150	0.98	0.02
1	150	1	

System: 2-methylpropyl ethanoate + 3-methylbutyl ethanoate; phases: Liquid, Gas
Property: Boiling temperature at pressure P, K (Liquid); method: Ebulliometric method (Recirculating still)
Mole fraction of 2-methylpropyl ethanoate	Pressure, kPa	Boiling temperature at pressure P, K	uncertainty
0	100	413.99	0.18
0.045	100	412.52	0.71
0.194	100	407.37	0.71
0.264	100	405.05	0.65
0.29	100	404.44	0.61
0.371	100	401.97	0.62
0.428	100	400.4	0.55
0.474	100	399.33	0.5
0.571	100	397.13	0.5
0.642	100	395.47	0.52
0.695	100	394.16	0.42
0.806	100	392.31	0.39
1	100	388.93	0.2
0.087	150	426.36	0.72
0.179	150	423.25	0.69
0.272	150	420.38	0.68
0.355	150	417.62	0.66
0.41	150	416.17	0.56
0.449	150	415.28	0.57
0.522	150	413.34	0.59
0.569	150	412.06	0.54
0.635	150	410.6	0.55
0.688	150	409.17	0.55
0.746	150	407.88	0.49
0.801	150	406.84	0.48
0.846	150	405.82	0.44
1	150	403.22	0.26

System: 2-methylpropyl ethanoate + 3-methylbutyl ethanoate; phases: Gas, Liquid
Property: Mole fraction of 2-methylpropyl ethanoate (Gas); method: Chromatography
Mole fraction of 2-methylpropyl ethanoate	Pressure, kPa	Mole fraction of 2-methylpropyl ethanoate	uncertainty
0	100	0	
0.045	100	0.085	0.04
0.194	100	0.339	0.038
0.264	100	0.435	0.034
0.29	100	0.466	0.031
0.371	100	0.56	0.031
0.428	100	0.624	0.029
0.474	100	0.664	0.027
0.571	100	0.747	0.026
0.642	100	0.799	0.025
0.695	100	0.836	0.024
0.806	100	0.902	0.023
1	100	1	
0.087	150	0.158	0.038
0.179	150	0.305	0.036
0.272	150	0.43	0.033
0.355	150	0.534	0.032
0.41	150	0.595	0.03
0.449	150	0.631	0.027
0.522	150	0.69	0.027
0.569	150	0.732	0.027
0.635	150	0.784	0.025
0.688	150	0.82	0.025
0.746	150	0.86	0.024
0.801	150	0.894	0.024
0.846	150	0.921	0.023
1	150	1	
