Measured thermophysical data. Vapor-Liquid Equilibrium Study of the Gamma- Valerolactone-Water Binary System
Source: J. Chem. Eng. Data, 2016, 10.1021/acs.jced.5b00849
Compound 1: water, H2O, InChI=1S/H2O/h1H2, purity 99.99%
Compound 2: .gamma.-valerolactone, C5H8O2, InChI=1S/C5H8O2/c1-4-2-3-5(6)7-4/h4H,2-3H2,1H3, purity 98%
Compound 3: methanol, CH4O, InChI=1S/CH4O/c1-2/h2H,1H3, purity 98.5%

System: water; phases: Liquid
Fixed: Pressure, kPa = 101
Property: Refractive index (Na D-line) (Liquid); method: Standard Abbe refractometry
Temperature, K	Refractive index (Na D-line)	uncertainty
293.2	1.3332	0.0004
298.2	1.3327	0.0004

System: water; phases: Liquid, Gas
Property: Vapor or sublimation pressure, kPa (Liquid); method: Ebulliometric method (Recirculating still)
Temperature, K	Vapor or sublimation pressure, kPa	uncertainty
319.6	10.1	4
373.2	101.325	4.038
354.8	50.6	4

System: .gamma.-valerolactone; phases: Liquid, Gas
Property: Vapor or sublimation pressure, kPa (Liquid); method: Ebulliometric method (Recirculating still)
Temperature, K	Vapor or sublimation pressure, kPa	uncertainty
347.1	0.67	4
356	1.33	4
370.4	2.67	4
384.5	5.07	4
401.4	10.13	4
416.4	17.33	4
426.5	24	4
435.3	31.6	4
442.7	39.46	4.01
451.5	50.66	4.01
459.2	62.26	4.01
465.3	73.06	4.02
469	80.53	4.03
477.8	101.19	4.02
401.4	10.1	4
480.2	101.325	4
451.5	50.6	4

System: .gamma.-valerolactone; phases: Liquid
Fixed: Pressure, kPa = 101
Property: Refractive index (Na D-line) (Liquid); method: Standard Abbe refractometry
Temperature, K	Refractive index (Na D-line)	uncertainty
293.2	1.4339	0.0004
298.2	1.4316	0.0004

System: methanol; phases: Liquid, Gas
Property: Boiling temperature at pressure P, K (Liquid); method: Ebulliometric method (Recirculating still)
Pressure, kPa	Boiling temperature at pressure P, K	uncertainty
40	315.7	2.8
46.66	319	2.6
58.8	324.3	2.3
67.59	327.5	2.1
76.13	330.6	2.1

System: .gamma.-valerolactone + water; phases: Liquid
Fixed: Pressure, kPa = 101
Property: Refractive index (Na D-line) (Liquid); method: Standard Abbe refractometry
Temperature, K	Mole fraction of .gamma.-valerolactone	Refractive index (Na D-line)	uncertainty
293.2	0	1.3332	0.0004
293.2	0.0158	1.342	0.0004
293.2	0.0318	1.3505	0.0004
293.2	0.0532	1.3591	0.0004
293.2	0.0789	1.3682	0.0004
293.2	0.1066	1.3761	0.0004
293.2	0.1405	1.3837	0.0004
293.2	0.1855	1.3913	0.0004
293.2	0.2295	1.3987	0.0004
293.2	0.2964	1.4062	0.0004
293.2	0.3833	1.4135	0.0004
293.2	0.5097	1.4204	0.0004
293.2	0.7092	1.4273	0.0004
293.2	1	1.4339	0.0004
298.2	0	1.3327	0.0004
298.2	0.0158	1.3411	0.0004
298.2	0.0318	1.3499	0.0004
298.2	0.0532	1.3585	0.0004
298.2	0.0789	1.3671	0.0004
298.2	0.1066	1.3751	0.0004
298.2	0.1405	1.3826	0.0004
298.2	0.1855	1.39	0.0004
298.2	0.2295	1.397	0.0004
298.2	0.2964	1.4046	0.0004
298.2	0.3833	1.4119	0.0004
298.2	0.5097	1.4186	0.0004
298.2	0.7092	1.4259	0.0004
298.2	1	1.4316	0.0004

System: .gamma.-valerolactone + water; phases: Gas, Liquid
Property: Mole fraction of water (Gas); method: from refractive indices
Mole fraction of water	Temperature, K	Mole fraction of water	uncertainty
1	373.2	1	
0.9986	373.2	0.9991	0.0009
0.9983	373.2	0.999	0.001
0.9967	373.2	0.998	0.002
0.9917	373.2	0.9953	0.0047
0.9891	373.2	0.994	0.006
0.9862	373.2	0.9931	0.0069
0.9849	373.2	0.9926	0.0074
0.9815	373.2	0.9917	0.0083
0.9775	373.3	0.9905	0.0095
0.972	373.4	0.9887	0.0113
0.9275	373.7	0.9845	0.0155
0.827	374.1	0.9813	0.0187
0.7943	374.2	0.9811	0.0189
0.7222	374.5	0.9801	0.0199
0.6641	375	0.9791	0.02
0.599	375.5	0.9789	0.02
0.478	377.6	0.9751	0.02
0.4481	378.5	0.9749	0.02
0	480.2	0	
1	354.8	1	
0.9866	354.9	0.993	0.007
0.9579	354.9	0.9868	0.0132
0.9567	355	0.9867	0.0133
0.803	355.5	0.9826	0.0174
0.7801	355.8	0.9824	0.0176
0.4952	357.3	0.9775	0.02
0.4575	359.2	0.9753	0.02
0.3252	361.8	0.972	0.02
0.1983	372.4	0.9526	0.02
0	451.5	0	
1	319.6	1	
0.9967	319.6	0.9986	0.0014
0.9826	319.8	0.9947	0.0053
0.9361	320	0.9889	0.0111
0.7984	320.3	0.9823	0.0177
0.7509	320.3	0.9839	0.0161
0.4994	321.2	0.9832	0.0168
0.3052	323.1	0.9767	0.02
0.1853	329.8	0.9686	0.02
0.1099	340.1	0.9389	0.02
0	401.4	0	

System: .gamma.-valerolactone + water; phases: Liquid, Gas
Property: Boiling temperature at pressure P, K (Liquid); method: Ebulliometric method (Recirculating still)
Pressure, kPa	Mole fraction of water	Boiling temperature at pressure P, K	uncertainty
101.325	1	373.2	2.1
101.325	0.9986	373.2	2.1
101.325	0.9983	373.2	2.1
101.325	0.9967	373.2	2.1
101.325	0.9917	373.2	2.1
101.325	0.9891	373.2	2.1
101.325	0.9862	373.2	2.1
101.325	0.9849	373.2	2.1
101.325	0.9815	373.2	2.1
101.325	0.9775	373.3	2.1
101.325	0.972	373.4	2.1
101.325	0.9275	373.7	2.1
101.325	0.827	374.1	2.1
101.325	0.7943	374.2	2.1
101.325	0.7222	374.5	2.1
101.325	0.6641	375	2.1
101.325	0.599	375.5	2.3
101.325	0.478	377.6	2.3
101.325	0.4481	378.5	2.2
101.325	0	480.2	3.2
50.6	1	354.8	3.3
50.6	0.9866	354.9	4.9
50.6	0.9579	354.9	6.1
50.6	0.9567	355	5.9
50.6	0.803	355.5	5.3
50.6	0.7801	355.8	5.3
50.6	0.4952	357.3	5.4
50.6	0.4575	359.2	3.5
50.6	0.3252	361.8	6
50.6	0.1983	372.4	10.4
50.6	0	451.5	4.8
10.1	1	319.6	4.9
10.1	0.9967	319.6	4.9
10.1	0.9826	319.8	4.9
10.1	0.9361	320	4.9
10.1	0.7984	320.3	4.9
10.1	0.7509	320.3	5
10.1	0.4994	321.2	5
10.1	0.3052	323.1	5.2
10.1	0.1853	329.8	6
10.1	0.1099	340.1	11.1
10.1	0	401.4	7

System: methanol + water; phases: Gas, Liquid
Property: Mole fraction of methanol (Gas); method: from refractive indices
Mole fraction of methanol	Temperature, K	Mole fraction of methanol	uncertainty
0.8525	339.2	0.9443	0.0223
0.774	340.7	0.9056	0.0469
0.7344	341.6	0.8972	0.0469
0.5796	344.3	0.8355	0.0206
0.5854	345.2	0.8287	0.0212
0.5066	346.5	0.7895	0.0243
0.4894	347.2	0.7856	0.0243
0.3602	349.6	0.7151	0.0207
0.2565	351.8	0.6621	0.021
0.1709	355.3	0.5679	0.0206
0.0942	361.5	0.4172	0.0251
0.0568	365.2	0.2812	0.0207
0.0317	368.1	0.2027	0.1758
0.0249	369.7	0.1433	0.0368
0.0171	371	0.0916	0.0223
0.0085	371.9	0.0568	0.0228

System: methanol + water; phases: Liquid, Gas
Fixed: Pressure, kPa = 101.33
Property: Boiling temperature at pressure P, K (Liquid); method: Ebulliometric method (Recirculating still)
Mole fraction of methanol	Boiling temperature at pressure P, K	uncertainty
0.8525	339.2	0.9
0.774	340.7	0.9
0.7344	341.6	0.9
0.5796	344.3	0.9
0.5854	345.2	0.9
0.5066	346.5	0.9
0.4894	347.2	0.9
0.3602	349.6	0.9
0.2565	351.8	1
0.1709	355.3	1.4
0.0942	361.5	1.9
0.0568	365.2	2.3
0.0317	368.1	2.9
0.0249	369.7	2.9
0.0171	371	2.6
0.0085	371.9	1.6
