Measured thermophysical data. Temperature of Maximum Density for Binary Aqueous Solutions of Five Amino Acids
Source: J. Chem. Eng. Data, 2019, 10.1021/acs.jced.9b00752
Compound 1: 3-(p-hydroxyphenyl)-L-alanine, C9H11NO3, InChI=1S/C9H11NO3/c10-8(9(12)13)5-6-1-3-7(11)4-2-6/h1-4,8,11H,5,10H2,(H,12,13)/t8-/m0/s1, purity 99%
Compound 2: L-tryptophan, C11H12N2O2, InChI=1S/C11H12N2O2/c12-9(11(14)15)5-7-6-13-10-4-2-1-3-8(7)10/h1-4,6,9,13H,5,12H2,(H,14,15)/t9-/m0/s1, purity 99%
Compound 3: L-histidine, C6H9N3O2, InChI=1S/C6H9N3O2/c7-5(6(10)11)1-4-2-8-3-9-4/h2-3,5H,1,7H2,(H,8,9)(H,10,11)/t5-/m0/s1, purity 99%
Compound 4: L-phenylalanine, C9H11NO2, InChI=1S/C9H11NO2/c10-8(9(11)12)6-7-4-2-1-3-5-7/h1-5,8H,6,10H2,(H,11,12)/t8-/m0/s1, purity 99%
Compound 5: L-proline, C5H9NO2, InChI=1S/C5H9NO2/c7-5(8)4-2-1-3-6-4/h4,6H,1-3H2,(H,7,8)/t4-/m0/s1, purity 99%
Compound 6: water, H2O, InChI=1S/H2O/h1H2, purity 99.9%

System: 3-(p-hydroxyphenyl)-L-alanine + water; phases: Liquid
Fixed: Pressure, kPa = 100
Property: Mass density, kg/m3 (Liquid); method: Vibrating tube method
Temperature, K	Molality, mol/kg of 3-(p-hydroxyphenyl)-L-alanine	Mass density, kg/m3	uncertainty
283.15	0.0005	999.71	0.105
282.65	0.0005	999.751	0.105
282.15	0.0005	999.79	0.105
281.65	0.0005	999.824	0.105
281.15	0.0005	999.858	0.105
280.65	0.0005	999.886	0.105
280.15	0.0005	999.91	0.105
279.65	0.0005	999.932	0.105
279.15	0.0005	999.948	0.105
278.65	0.0005	999.962	0.105
278.15	0.0005	999.972	0.105
277.65	0.0005	999.978	0.105
277.15	0.0005	999.979	0.105
276.65	0.0005	999.98	0.105
276.15	0.0005	999.972	0.105
275.65	0.0005	999.963	0.105
275.15	0.0005	999.95	0.105
274.65	0.0005	999.932	0.105
274.15	0.0005	999.909	0.105
273.65	0.0005	999.883	0.105
283.15	0.001	999.741	0.105
282.65	0.001	999.781	0.105
282.15	0.001	999.821	0.105
281.65	0.001	999.857	0.105
281.15	0.001	999.89	0.105
280.65	0.001	999.918	0.105
280.15	0.001	999.941	0.105
279.65	0.001	999.964	0.105
279.15	0.001	999.981	0.105
278.65	0.001	999.995	0.105
278.15	0.001	1000.004	0.105
277.65	0.001	1000.01	0.105
277.15	0.001	1000.013	0.105
276.65	0.001	1000.012	0.105
276.15	0.001	1000.005	0.105
275.65	0.001	999.997	0.105
275.15	0.001	999.984	0.105
274.65	0.001	999.965	0.105
274.15	0.001	999.942	0.105
273.65	0.001	999.917	0.105
283.15	0.0011	999.765	0.105
282.65	0.0011	999.809	0.105
282.15	0.0011	999.848	0.105
281.65	0.0011	999.883	0.105
281.15	0.0011	999.917	0.105
280.65	0.0011	999.946	0.105
280.15	0.0011	999.968	0.105
279.65	0.0011	999.989	0.105
279.15	0.0011	1000.008	0.105
278.65	0.0011	1000.021	0.105
278.15	0.0011	1000.033	0.105
277.65	0.0011	1000.037	0.105
277.15	0.0011	1000.04	0.105
276.65	0.0011	1000.039	0.105
276.15	0.0011	1000.032	0.105
275.65	0.0011	1000.023	0.105
275.15	0.0011	1000.011	0.105
274.65	0.0011	999.993	0.105
274.15	0.0011	999.97	0.105
273.65	0.0011	999.943	0.105
283.15	0.0022	999.835	0.105
282.65	0.0022	999.876	0.105
282.15	0.0022	999.916	0.105
281.65	0.0022	999.951	0.105
281.15	0.0022	999.984	0.105
280.65	0.0022	1000.012	0.105
280.15	0.0022	1000.036	0.105
279.65	0.0022	1000.058	0.105
279.15	0.0022	1000.076	0.105
278.65	0.0022	1000.09	0.105
278.15	0.0022	1000.1	0.105
277.65	0.0022	1000.106	0.105
277.15	0.0022	1000.109	0.105
276.65	0.0022	1000.108	0.105
276.15	0.0022	1000.1	0.105
275.65	0.0022	1000.093	0.105
275.15	0.0022	1000.08	0.105
274.65	0.0022	1000.061	0.105
274.15	0.0022	1000.039	0.105
273.65	0.0022	1000.012	0.105
283.15	0.0026	999.854	0.105
282.65	0.0026	999.897	0.105
282.15	0.0026	999.937	0.105
281.65	0.0026	999.971	0.105
281.15	0.0026	1000.003	0.105
280.65	0.0026	1000.034	0.105
280.15	0.0026	1000.058	0.105
279.65	0.0026	1000.079	0.105
279.15	0.0026	1000.097	0.105
278.65	0.0026	1000.111	0.105
278.15	0.0026	1000.121	0.105
277.65	0.0026	1000.127	0.105
277.15	0.0026	1000.13	0.105
276.65	0.0026	1000.129	0.105
276.15	0.0026	1000.122	0.105
275.65	0.0026	1000.114	0.105
275.15	0.0026	1000.101	0.105
274.65	0.0026	1000.082	0.105
274.15	0.0026	1000.061	0.105
273.65	0.0026	1000.035	0.105
283.15	0.0035	999.919	0.105
282.65	0.0035	999.961	0.105
282.15	0.0035	1000.001	0.105
281.65	0.0035	1000.035	0.105
281.15	0.0035	1000.07	0.105
280.65	0.0035	1000.098	0.105
280.15	0.0035	1000.123	0.105
279.65	0.0035	1000.144	0.105
279.15	0.0035	1000.161	0.105
278.65	0.0035	1000.177	0.105
278.15	0.0035	1000.186	0.105
277.65	0.0035	1000.193	0.105
277.15	0.0035	1000.195	0.105
276.65	0.0035	1000.194	0.105
276.15	0.0035	1000.188	0.105
275.65	0.0035	1000.181	0.105
275.15	0.0035	1000.167	0.105
274.65	0.0035	1000.148	0.105
274.15	0.0035	1000.128	0.105
273.65	0.0035	1000.101	0.105
283.15	0.0036	999.92	0.105
282.65	0.0036	999.962	0.105
282.15	0.0036	1000.002	0.105
281.65	0.0036	1000.036	0.105
281.15	0.0036	1000.069	0.105
280.65	0.0036	1000.099	0.105
280.15	0.0036	1000.123	0.105
279.65	0.0036	1000.145	0.105
279.15	0.0036	1000.163	0.105
278.65	0.0036	1000.177	0.105
278.15	0.0036	1000.188	0.105
277.65	0.0036	1000.192	0.105
277.15	0.0036	1000.196	0.105
276.65	0.0036	1000.195	0.105
276.15	0.0036	1000.187	0.105
275.65	0.0036	1000.181	0.105
275.15	0.0036	1000.168	0.105
274.65	0.0036	1000.149	0.105
274.15	0.0036	1000.127	0.105
273.65	0.0036	1000.102	0.105
283.15	0.0038	999.925	0.105
282.65	0.0038	999.967	0.105
282.15	0.0038	1000.008	0.105
281.65	0.0038	1000.042	0.105
281.15	0.0038	1000.075	0.105
280.65	0.0038	1000.104	0.105
280.15	0.0038	1000.128	0.105
279.65	0.0038	1000.15	0.105
279.15	0.0038	1000.167	0.105
278.65	0.0038	1000.182	0.105
278.15	0.0038	1000.192	0.105
277.65	0.0038	1000.198	0.105
277.15	0.0038	1000.201	0.105
276.65	0.0038	1000.2	0.105
276.15	0.0038	1000.193	0.105
275.65	0.0038	1000.185	0.105
275.15	0.0038	1000.173	0.105
274.65	0.0038	1000.155	0.105
274.15	0.0038	1000.133	0.105
273.65	0.0038	1000.107	0.105
283.15	0.0045	999.976	0.105
282.65	0.0045	1000.018	0.105
282.15	0.0045	1000.059	0.105
281.65	0.0045	1000.093	0.105
281.15	0.0045	1000.127	0.105
280.65	0.0045	1000.154	0.105
280.15	0.0045	1000.178	0.105
279.65	0.0045	1000.202	0.105
279.15	0.0045	1000.217	0.105
278.65	0.0045	1000.232	0.105
278.15	0.0045	1000.242	0.105
277.65	0.0045	1000.248	0.105
277.15	0.0045	1000.252	0.105
276.65	0.0045	1000.252	0.105
276.15	0.0045	1000.245	0.105
275.65	0.0045	1000.237	0.105
275.15	0.0045	1000.226	0.105
274.65	0.0045	1000.206	0.105
274.15	0.0045	1000.183	0.105
273.65	0.0045	1000.158	0.105
283.15	0.0045	999.985	0.105
282.65	0.0045	1000.027	0.105
282.15	0.0045	1000.068	0.105
281.65	0.0045	1000.102	0.105
281.15	0.0045	1000.136	0.105
280.65	0.0045	1000.164	0.105
280.15	0.0045	1000.189	0.105
279.65	0.0045	1000.21	0.105
279.15	0.0045	1000.227	0.105
278.65	0.0045	1000.243	0.105
278.15	0.0045	1000.253	0.105
277.65	0.0045	1000.257	0.105
277.15	0.0045	1000.262	0.105
276.65	0.0045	1000.262	0.105
276.15	0.0045	1000.254	0.105
275.65	0.0045	1000.247	0.105
275.15	0.0045	1000.235	0.105
274.65	0.0045	1000.215	0.105
274.15	0.0045	1000.196	0.105
273.65	0.0045	1000.168	0.105
283.15	0.0047	999.98	0.105
282.65	0.0047	1000.024	0.105
282.15	0.0047	1000.063	0.105
281.65	0.0047	1000.098	0.105
281.15	0.0047	1000.13	0.105
280.65	0.0047	1000.161	0.105
280.15	0.0047	1000.185	0.105
279.65	0.0047	1000.207	0.105
279.15	0.0047	1000.223	0.105
278.65	0.0047	1000.239	0.105
278.15	0.0047	1000.249	0.105
277.65	0.0047	1000.255	0.105
277.15	0.0047	1000.258	0.105
276.65	0.0047	1000.259	0.105
276.15	0.0047	1000.252	0.105
275.65	0.0047	1000.244	0.105
275.15	0.0047	1000.23	0.105
274.65	0.0047	1000.213	0.105
274.15	0.0047	1000.192	0.105
273.65	0.0047	1000.165	0.105
283.15	0.0053	1000.025	0.105
282.65	0.0053	1000.066	0.105
282.15	0.0053	1000.104	0.105
281.65	0.0053	1000.14	0.105
281.15	0.0053	1000.175	0.105
280.65	0.0053	1000.202	0.105
280.15	0.0053	1000.228	0.105
279.65	0.0053	1000.25	0.105
279.15	0.0053	1000.267	0.105
278.65	0.0053	1000.282	0.105
278.15	0.0053	1000.292	0.105
277.65	0.0053	1000.297	0.105
277.15	0.0053	1000.3	0.105
276.65	0.0053	1000.302	0.105
276.15	0.0053	1000.294	0.105
275.65	0.0053	1000.287	0.105
275.15	0.0053	1000.275	0.105
274.65	0.0053	1000.257	0.105
274.15	0.0053	1000.234	0.105
273.65	0.0053	1000.209	0.105
283.15	0.0053	1000.035	0.105
282.65	0.0053	1000.077	0.105
282.15	0.0053	1000.118	0.105
281.65	0.0053	1000.152	0.105
281.15	0.0053	1000.185	0.105
280.65	0.0053	1000.214	0.105
280.15	0.0053	1000.239	0.105
279.65	0.0053	1000.262	0.105
279.15	0.0053	1000.279	0.105
278.65	0.0053	1000.293	0.105
278.15	0.0053	1000.303	0.105
277.65	0.0053	1000.31	0.105
277.15	0.0053	1000.312	0.105
276.65	0.0053	1000.312	0.105
276.15	0.0053	1000.306	0.105
275.65	0.0053	1000.298	0.105
275.15	0.0053	1000.285	0.105
274.65	0.0053	1000.267	0.105
274.15	0.0053	1000.246	0.105
273.65	0.0053	1000.221	0.105
283.15	0.0055	1000.023	0.105
282.65	0.0055	1000.066	0.105
282.15	0.0055	1000.104	0.105
281.65	0.0055	1000.14	0.105
281.15	0.0055	1000.173	0.105
280.65	0.0055	1000.202	0.105
280.15	0.0055	1000.225	0.105
279.65	0.0055	1000.247	0.105
279.15	0.0055	1000.266	0.105
278.65	0.0055	1000.28	0.105
278.15	0.0055	1000.292	0.105
277.65	0.0055	1000.296	0.105
277.15	0.0055	1000.3	0.105
276.65	0.0055	1000.299	0.105
276.15	0.0055	1000.293	0.105
275.65	0.0055	1000.286	0.105
275.15	0.0055	1000.273	0.105
274.65	0.0055	1000.255	0.105
274.15	0.0055	1000.233	0.105
273.65	0.0055	1000.208	0.105

System: L-tryptophan + water; phases: Liquid
Fixed: Pressure, kPa = 100
Property: Mass density, kg/m3 (Liquid); method: Vibrating tube method
Temperature, K	Molality, mol/kg of L-tryptophan	Mass density, kg/m3	uncertainty
283.15	0.0035	999.908	0.123
282.65	0.0035	999.95	0.123
282.15	0.0035	999.99	0.123
281.65	0.0035	1000.025	0.123
281.15	0.0035	1000.056	0.123
280.65	0.0035	1000.087	0.123
280.15	0.0035	1000.11	0.123
279.65	0.0035	1000.133	0.123
279.15	0.0035	1000.15	0.123
278.65	0.0035	1000.164	0.123
278.15	0.0035	1000.174	0.123
277.65	0.0035	1000.181	0.123
277.15	0.0035	1000.185	0.124
276.65	0.0035	1000.182	0.123
276.15	0.0035	1000.179	0.124
275.65	0.0035	1000.168	0.124
275.15	0.0035	1000.154	0.124
274.65	0.0035	1000.137	0.124
274.15	0.0035	1000.115	0.124
273.65	0.0035	1000.091	0.124
283.15	0.009	1000.261	0.122
282.65	0.009	1000.305	0.122
282.15	0.009	1000.344	0.122
281.65	0.009	1000.379	0.122
281.15	0.009	1000.412	0.122
280.65	0.009	1000.444	0.122
280.15	0.009	1000.468	0.123
279.65	0.009	1000.489	0.123
279.15	0.009	1000.51	0.123
278.65	0.009	1000.524	0.123
278.15	0.009	1000.535	0.123
277.65	0.009	1000.541	0.123
277.15	0.009	1000.547	0.123
276.65	0.009	1000.542	0.123
276.15	0.009	1000.542	0.123
275.65	0.009	1000.531	0.123
275.15	0.009	1000.518	0.123
274.65	0.009	1000.501	0.123
274.15	0.009	1000.479	0.123
273.65	0.009	1000.456	0.123
283.15	0.0179	1000.821	0.122
282.65	0.0179	1000.865	0.122
282.15	0.0179	1000.904	0.122
281.65	0.0179	1000.942	0.122
281.15	0.0179	1000.975	0.122
280.65	0.0179	1001.007	0.122
280.15	0.0179	1001.034	0.122
279.65	0.0179	1001.056	0.122
279.15	0.0179	1001.078	0.122
278.65	0.0179	1001.09	0.122
278.15	0.0179	1001.103	0.123
277.65	0.0179	1001.11	0.123
277.15	0.0179	1001.116	0.123
276.65	0.0179	1001.117	0.123
276.15	0.0179	1001.113	0.123
275.65	0.0179	1001.106	0.123
275.15	0.0179	1001.093	0.123
274.65	0.0179	1001.078	0.123
274.15	0.0179	1001.058	0.123
273.65	0.0179	1001.036	0.123
283.15	0.0306	1001.617	0.122
282.65	0.0306	1001.663	0.122
282.15	0.0306	1001.706	0.122
281.65	0.0306	1001.742	0.122
281.15	0.0306	1001.779	0.122
280.65	0.0306	1001.811	0.122
280.15	0.0306	1001.84	0.122
279.65	0.0306	1001.862	0.123
279.15	0.0306	1001.885	0.123
278.65	0.0306	1001.9	0.123
278.15	0.0306	1001.915	0.123
277.65	0.0306	1001.923	0.123
277.15	0.0306	1001.93	0.123
276.65	0.0306	1001.931	0.123
276.15	0.0306	1001.932	0.123
275.65	0.0306	1001.924	0.123
275.15	0.0306	1001.914	0.123
274.65	0.0306	1001.9	0.123
274.15	0.0306	1001.881	0.123
273.65	0.0306	1001.863	0.123
283.15	0.0352	1001.91	0.122
282.65	0.0352	1001.958	0.122
282.15	0.0352	1001.999	0.122
281.65	0.0352	1002.037	0.122
281.15	0.0352	1002.074	0.122
280.65	0.0352	1002.107	0.122
280.15	0.0352	1002.134	0.122
279.65	0.0352	1002.159	0.123
279.15	0.0352	1002.182	0.123
278.65	0.0352	1002.197	0.123
278.15	0.0352	1002.212	0.123
277.65	0.0352	1002.223	0.123
277.15	0.0352	1002.23	0.123
276.65	0.0352	1002.231	0.123
276.15	0.0352	1002.233	0.123
275.65	0.0352	1002.226	0.123
275.15	0.0352	1002.215	0.123
274.65	0.0352	1002.202	0.123
274.15	0.0352	1002.185	0.123
273.65	0.0352	1002.164	0.123
283.15	0.0429	1002.391	0.122
282.65	0.0429	1002.44	0.122
282.15	0.0429	1002.483	0.122
281.65	0.0429	1002.52	0.122
281.15	0.0429	1002.557	0.122
280.65	0.0429	1002.593	0.122
280.15	0.0429	1002.621	0.122
279.65	0.0429	1002.646	0.122
279.15	0.0429	1002.67	0.123
278.65	0.0429	1002.687	0.123
278.15	0.0429	1002.704	0.123
277.65	0.0429	1002.715	0.123
277.15	0.0429	1002.723	0.123
276.65	0.0429	1002.723	0.123
276.15	0.0429	1002.725	0.123
275.65	0.0429	1002.722	0.123
275.15	0.0429	1002.711	0.123
274.65	0.0429	1002.699	0.123
274.15	0.0429	1002.683	0.123
273.65	0.0429	1002.664	0.123
283.15	0.0536	1003.063	0.122
282.65	0.0536	1003.113	0.122
282.15	0.0536	1003.155	0.122
281.65	0.0536	1003.197	0.122
281.15	0.0536	1003.234	0.122
280.65	0.0536	1003.27	0.122
280.15	0.0536	1003.299	0.122
279.65	0.0536	1003.326	0.122
279.15	0.0536	1003.35	0.122
278.65	0.0536	1003.369	0.123
278.15	0.0536	1003.386	0.123
277.65	0.0536	1003.398	0.123
277.15	0.0536	1003.407	0.123
276.65	0.0536	1003.413	0.123
276.15	0.0536	1003.413	0.123
275.65	0.0536	1003.411	0.123
275.15	0.0536	1003.402	0.123
274.65	0.0536	1003.392	0.123
274.15	0.0536	1003.376	0.123
273.65	0.0536	1003.36	0.123
283.15	0.0595	1003.429	0.122
282.65	0.0595	1003.478	0.122
282.15	0.0595	1003.522	0.122
281.65	0.0595	1003.563	0.122
281.15	0.0595	1003.601	0.122
280.65	0.0595	1003.639	0.122
280.15	0.0595	1003.668	0.122
279.65	0.0595	1003.695	0.122
279.15	0.0595	1003.72	0.122
278.65	0.0595	1003.74	0.122
278.15	0.0595	1003.757	0.122
277.65	0.0595	1003.77	0.122
277.15	0.0595	1003.781	0.122
276.65	0.0595	1003.785	0.122
276.15	0.0595	1003.788	0.123
275.65	0.0595	1003.786	0.123
275.15	0.0595	1003.778	0.123
274.65	0.0595	1003.768	0.123
274.15	0.0595	1003.753	0.123
273.65	0.0595	1003.736	0.123
283.15	0.0659	1003.823	0.122
282.65	0.0659	1003.873	0.122
282.15	0.0659	1003.916	0.122
281.65	0.0659	1003.959	0.122
281.15	0.0659	1003.997	0.122
280.65	0.0659	1004.035	0.122
280.15	0.0659	1004.066	0.122
279.65	0.0659	1004.092	0.122
279.15	0.0659	1004.12	0.122
278.65	0.0659	1004.14	0.122
278.15	0.0659	1004.157	0.122
277.65	0.0659	1004.171	0.122
277.15	0.0659	1004.181	0.123
276.65	0.0659	1004.187	0.123
276.15	0.0659	1004.192	0.123
275.65	0.0659	1004.189	0.123
275.15	0.0659	1004.182	0.123
274.65	0.0659	1004.172	0.123
274.15	0.0659	1004.158	0.123
273.65	0.0659	1004.145	0.123
283.15	0.0769	1004.503	0.122
282.65	0.0769	1004.556	0.122
282.15	0.0769	1004.602	0.122
281.65	0.0769	1004.644	0.122
281.15	0.0769	1004.684	0.122
280.65	0.0769	1004.721	0.122
280.15	0.0769	1004.755	0.122
279.65	0.0769	1004.785	0.122
279.15	0.0769	1004.81	0.122
278.65	0.0769	1004.833	0.122
278.15	0.0769	1004.85	0.123
277.65	0.0769	1004.866	0.123
277.15	0.0769	1004.878	0.123
276.65	0.0769	1004.885	0.123
276.15	0.0769	1004.891	0.123
275.65	0.0769	1004.89	0.123
275.15	0.0769	1004.885	0.123
274.65	0.0769	1004.878	0.123
274.15	0.0769	1004.865	0.123
273.65	0.0769	1004.85	0.123

System: L-histidine + water; phases: Liquid
Fixed: Pressure, kPa = 100
Property: Mass density, kg/m3 (Liquid); method: Vibrating tube method
Temperature, K	Molality, mol/kg of L-histidine	Mass density, kg/m3	uncertainty
283.15	0.0078	1000.176	0.119
282.65	0.0078	1000.218	0.119
282.15	0.0078	1000.257	0.119
281.65	0.0078	1000.292	0.119
281.15	0.0078	1000.326	0.119
280.65	0.0078	1000.355	0.119
280.15	0.0078	1000.378	0.119
279.65	0.0078	1000.401	0.119
279.15	0.0078	1000.419	0.119
278.65	0.0078	1000.434	0.119
278.15	0.0078	1000.443	0.119
277.65	0.0078	1000.452	0.12
277.15	0.0078	1000.454	0.12
276.65	0.0078	1000.455	0.12
276.15	0.0078	1000.45	0.12
275.65	0.0078	1000.441	0.12
275.15	0.0078	1000.428	0.12
274.65	0.0078	1000.411	0.12
274.15	0.0078	1000.389	0.12
273.65	0.0078	1000.364	0.12
283.15	0.0176	1000.733	0.12
282.65	0.0176	1000.776	0.121
282.15	0.0176	1000.817	0.121
281.65	0.0176	1000.852	0.121
281.15	0.0176	1000.888	0.121
280.65	0.0176	1000.917	0.121
280.15	0.0176	1000.942	0.121
279.65	0.0176	1000.965	0.121
279.15	0.0176	1000.984	0.121
278.65	0.0176	1000.999	0.121
278.15	0.0176	1001.01	0.121
277.65	0.0176	1001.019	0.121
277.15	0.0176	1001.023	0.121
276.65	0.0176	1001.023	0.121
276.15	0.0176	1001.019	0.121
275.65	0.0176	1001.014	0.121
275.15	0.0176	1001.001	0.121
274.65	0.0176	1000.985	0.121
274.15	0.0176	1000.964	0.121
273.65	0.0176	1000.942	0.122
283.15	0.0269	1001.321	0.12
282.65	0.0269	1001.364	0.12
282.15	0.0269	1001.406	0.12
281.65	0.0269	1001.442	0.12
281.15	0.0269	1001.478	0.12
280.65	0.0269	1001.509	0.12
280.15	0.0269	1001.535	0.12
279.65	0.0269	1001.559	0.12
279.15	0.0269	1001.579	0.12
278.65	0.0269	1001.597	0.12
278.15	0.0269	1001.608	0.12
277.65	0.0269	1001.617	0.12
277.15	0.0269	1001.622	0.12
276.65	0.0269	1001.624	0.121
276.15	0.0269	1001.623	0.121
275.65	0.0269	1001.616	0.121
275.15	0.0269	1001.605	0.121
274.65	0.0269	1001.59	0.121
274.15	0.0269	1001.572	0.121
273.65	0.0269	1001.549	0.121
283.15	0.048	1002.529	0.121
282.65	0.048	1002.573	0.121
282.15	0.048	1002.617	0.121
281.65	0.048	1002.654	0.121
281.15	0.048	1002.692	0.121
280.65	0.048	1002.725	0.121
280.15	0.048	1002.752	0.121
279.65	0.048	1002.78	0.121
279.15	0.048	1002.8	0.121
278.65	0.048	1002.819	0.121
278.15	0.048	1002.835	0.121
277.65	0.048	1002.846	0.121
277.15	0.048	1002.853	0.121
276.65	0.048	1002.857	0.121
276.15	0.048	1002.859	0.121
275.65	0.048	1002.855	0.121
275.15	0.048	1002.846	0.122
274.65	0.048	1002.833	0.122
274.15	0.048	1002.817	0.122
273.65	0.048	1002.799	0.122
283.15	0.0636	1003.529	0.12
282.65	0.0636	1003.578	0.12
282.15	0.0636	1003.623	0.12
281.65	0.0636	1003.661	0.12
281.15	0.0636	1003.7	0.12
280.65	0.0636	1003.733	0.12
280.15	0.0636	1003.764	0.12
279.65	0.0636	1003.792	0.12
279.15	0.0636	1003.817	0.121
278.65	0.0636	1003.837	0.121
278.15	0.0636	1003.852	0.121
277.65	0.0636	1003.868	0.121
277.15	0.0636	1003.876	0.121
276.65	0.0636	1003.882	0.121
276.15	0.0636	1003.883	0.121
275.65	0.0636	1003.884	0.121
275.15	0.0636	1003.878	0.121
274.65	0.0636	1003.867	0.121
274.15	0.0636	1003.853	0.121
273.65	0.0636	1003.834	0.121
283.15	0.0856	1004.741	0.119
282.65	0.0856	1004.79	0.119
282.15	0.0856	1004.838	0.119
281.65	0.0856	1004.882	0.119
281.15	0.0856	1004.92	0.119
280.65	0.0856	1004.957	0.119
280.15	0.0856	1004.99	0.119
279.65	0.0856	1005.019	0.12
279.15	0.0856	1005.046	0.12
278.65	0.0856	1005.068	0.12
278.15	0.0856	1005.086	0.12
277.65	0.0856	1005.102	0.12
277.15	0.0856	1005.112	0.12
276.65	0.0856	1005.121	0.12
276.15	0.0856	1005.127	0.12
275.65	0.0856	1005.127	0.12
275.15	0.0856	1005.125	0.12
274.65	0.0856	1005.116	0.12
274.15	0.0856	1005.106	0.12
273.65	0.0856	1005.09	0.12
283.15	0.0982	1005.488	0.119
282.65	0.0982	1005.537	0.119
282.15	0.0982	1005.586	0.119
281.65	0.0982	1005.63	0.119
281.15	0.0982	1005.671	0.119
280.65	0.0982	1005.709	0.119
280.15	0.0982	1005.741	0.119
279.65	0.0982	1005.772	0.119
279.15	0.0982	1005.8	0.119
278.65	0.0982	1005.823	0.119
278.15	0.0982	1005.845	0.119
277.65	0.0982	1005.863	0.119
277.15	0.0982	1005.873	0.119
276.65	0.0982	1005.883	0.119
276.15	0.0982	1005.891	0.119
275.65	0.0982	1005.89	0.119
275.15	0.0982	1005.888	0.119
274.65	0.0982	1005.884	0.119
274.15	0.0982	1005.874	0.119
273.65	0.0982	1005.859	0.119
283.15	0.115	1006.355	0.12
282.65	0.115	1006.406	0.12
282.15	0.115	1006.456	0.12
281.65	0.115	1006.5	0.12
281.15	0.115	1006.544	0.12
280.65	0.115	1006.582	0.12
280.15	0.115	1006.615	0.12
279.65	0.115	1006.65	0.12
279.15	0.115	1006.677	0.12
278.65	0.115	1006.704	0.12
278.15	0.115	1006.726	0.12
277.65	0.115	1006.746	0.12
277.15	0.115	1006.758	0.12
276.65	0.115	1006.77	0.12
276.15	0.115	1006.779	0.12
275.65	0.115	1006.783	0.12
275.15	0.115	1006.782	0.12
274.65	0.115	1006.775	0.12
274.15	0.115	1006.77	0.12
273.65	0.115	1006.758	0.121
283.15	0.1268	1007.126	0.122
282.65	0.1268	1007.178	0.122
282.15	0.1268	1007.229	0.123
281.65	0.1268	1007.274	0.123
281.15	0.1268	1007.319	0.123
280.65	0.1268	1007.359	0.123
280.15	0.1268	1007.395	0.123
279.65	0.1268	1007.429	0.123
279.15	0.1268	1007.459	0.123
278.65	0.1268	1007.485	0.123
278.15	0.1268	1007.509	0.123
277.65	0.1268	1007.528	0.123
277.15	0.1268	1007.545	0.123
276.65	0.1268	1007.557	0.123
276.15	0.1268	1007.567	0.123
275.65	0.1268	1007.573	0.123
275.15	0.1268	1007.573	0.123
274.65	0.1268	1007.57	0.123
274.15	0.1268	1007.565	0.123
273.65	0.1268	1007.554	0.124
283.15	0.138	1007.787	0.122
282.65	0.138	1007.84	0.122
282.15	0.138	1007.892	0.122
281.65	0.138	1007.939	0.122
281.15	0.138	1007.985	0.122
280.65	0.138	1008.027	0.123
280.15	0.138	1008.063	0.123
279.65	0.138	1008.097	0.123
279.15	0.138	1008.127	0.123
278.65	0.138	1008.157	0.123
278.15	0.138	1008.182	0.123
277.65	0.138	1008.202	0.123
277.15	0.138	1008.22	0.123
276.65	0.138	1008.234	0.123
276.15	0.138	1008.245	0.123
275.65	0.138	1008.251	0.123
275.15	0.138	1008.253	0.123
274.65	0.138	1008.252	0.123
274.15	0.138	1008.246	0.123
273.65	0.138	1008.239	0.123
283.15	0.1586	1009.082	0.123
282.65	0.1586	1009.135	0.123
282.15	0.1586	1009.191	0.123
281.65	0.1586	1009.237	0.123
281.15	0.1586	1009.285	0.123
280.65	0.1586	1009.328	0.123
280.15	0.1586	1009.367	0.123
279.65	0.1586	1009.406	0.123
279.15	0.1586	1009.439	0.123
278.65	0.1586	1009.468	0.123
278.15	0.1586	1009.495	0.123
277.65	0.1586	1009.518	0.123
277.15	0.1586	1009.536	0.124
276.65	0.1586	1009.554	0.124
276.15	0.1586	1009.567	0.124
275.65	0.1586	1009.576	0.124
275.15	0.1586	1009.58	0.124
274.65	0.1586	1009.58	0.124
274.15	0.1586	1009.578	0.124
273.65	0.1586	1009.572	0.124

System: L-phenylalanine + water; phases: Liquid
Fixed: Pressure, kPa = 100
Property: Mass density, kg/m3 (Liquid); method: Vibrating tube method
Temperature, K	Molality, mol/kg of L-phenylalanine	Mass density, kg/m3	uncertainty
283.15	0.0036	999.87	0.114
282.65	0.0036	999.913	0.114
282.15	0.0036	999.952	0.114
281.65	0.0036	999.986	0.114
281.15	0.0036	1000.02	0.114
280.65	0.0036	1000.045	0.114
280.15	0.0036	1000.071	0.114
279.65	0.0036	1000.094	0.114
279.15	0.0036	1000.11	0.114
278.65	0.0036	1000.124	0.114
278.15	0.0036	1000.133	0.114
277.65	0.0036	1000.141	0.115
277.15	0.0036	1000.143	0.115
276.65	0.0036	1000.14	0.115
276.15	0.0036	1000.137	0.115
275.65	0.0036	1000.129	0.115
275.15	0.0036	1000.115	0.115
274.65	0.0036	1000.095	0.115
274.15	0.0036	1000.075	0.115
273.65	0.0036	1000.049	0.115
283.15	0.011	1000.209	0.114
282.65	0.011	1000.251	0.114
282.15	0.011	1000.291	0.114
281.65	0.011	1000.326	0.114
281.15	0.011	1000.359	0.114
280.65	0.011	1000.388	0.114
280.15	0.011	1000.412	0.114
279.65	0.011	1000.434	0.114
279.15	0.011	1000.452	0.114
278.65	0.011	1000.467	0.114
278.15	0.011	1000.478	0.114
277.65	0.011	1000.487	0.114
277.15	0.011	1000.49	0.114
276.65	0.011	1000.489	0.115
276.15	0.011	1000.486	0.115
275.65	0.011	1000.478	0.115
275.15	0.011	1000.464	0.115
274.65	0.011	1000.446	0.115
274.15	0.011	1000.425	0.115
273.65	0.011	1000.402	0.115
283.15	0.0183	1000.543	0.114
282.65	0.0183	1000.586	0.114
282.15	0.0183	1000.628	0.114
281.65	0.0183	1000.663	0.114
281.15	0.0183	1000.697	0.114
280.65	0.0183	1000.725	0.114
280.15	0.0183	1000.751	0.114
279.65	0.0183	1000.773	0.114
279.15	0.0183	1000.793	0.114
278.65	0.0183	1000.81	0.114
278.15	0.0183	1000.82	0.114
277.65	0.0183	1000.829	0.114
277.15	0.0183	1000.831	0.114
276.65	0.0183	1000.833	0.115
276.15	0.0183	1000.831	0.114
275.65	0.0183	1000.82	0.114
275.15	0.0183	1000.809	0.115
274.65	0.0183	1000.793	0.115
274.15	0.0183	1000.772	0.115
273.65	0.0183	1000.75	0.115
283.15	0.033	1001.205	0.115
282.65	0.033	1001.25	0.115
282.15	0.033	1001.292	0.115
281.65	0.033	1001.327	0.115
281.15	0.033	1001.364	0.115
280.65	0.033	1001.394	0.115
280.15	0.033	1001.42	0.115
279.65	0.033	1001.445	0.115
279.15	0.033	1001.466	0.115
278.65	0.033	1001.483	0.115
278.15	0.033	1001.494	0.115
277.65	0.033	1001.504	0.115
277.15	0.033	1001.509	0.115
276.65	0.033	1001.512	0.115
276.15	0.033	1001.511	0.115
275.65	0.033	1001.503	0.115
275.15	0.033	1001.494	0.115
274.65	0.033	1001.478	0.115
274.15	0.033	1001.459	0.115
273.65	0.033	1001.438	0.115
283.15	0.0443	1001.773	0.114
282.65	0.0443	1001.818	0.114
282.15	0.0443	1001.858	0.114
281.65	0.0443	1001.898	0.114
281.15	0.0443	1001.934	0.114
280.65	0.0443	1001.963	0.115
280.15	0.0443	1001.991	0.115
279.65	0.0443	1002.017	0.115
279.15	0.0443	1002.038	0.115
278.65	0.0443	1002.055	0.115
278.15	0.0443	1002.069	0.115
277.65	0.0443	1002.08	0.115
277.15	0.0443	1002.086	0.115
276.65	0.0443	1002.087	0.115
276.15	0.0443	1002.089	0.115
275.65	0.0443	1002.082	0.115
275.15	0.0443	1002.074	0.115
274.65	0.0443	1002.058	0.115
274.15	0.0443	1002.042	0.115
273.65	0.0443	1002.019	0.115
283.15	0.0536	1002.147	0.113
282.65	0.0536	1002.193	0.113
282.15	0.0536	1002.238	0.113
281.65	0.0536	1002.276	0.113
281.15	0.0536	1002.313	0.113
280.65	0.0536	1002.345	0.114
280.15	0.0536	1002.373	0.114
279.65	0.0536	1002.4	0.114
279.15	0.0536	1002.422	0.114
278.65	0.0536	1002.44	0.114
278.15	0.0536	1002.456	0.114
277.65	0.0536	1002.468	0.114
277.15	0.0536	1002.474	0.114
276.65	0.0536	1002.478	0.114
276.15	0.0536	1002.479	0.114
275.65	0.0536	1002.476	0.114
275.15	0.0536	1002.467	0.114
274.65	0.0536	1002.455	0.114
274.15	0.0536	1002.438	0.114
273.65	0.0536	1002.419	0.114
283.15	0.0623	1002.551	0.114
282.65	0.0623	1002.598	0.114
282.15	0.0623	1002.643	0.114
281.65	0.0623	1002.682	0.114
281.15	0.0623	1002.72	0.114
280.65	0.0623	1002.752	0.114
280.15	0.0623	1002.782	0.115
279.65	0.0623	1002.81	0.115
279.15	0.0623	1002.833	0.115
278.65	0.0623	1002.853	0.115
278.15	0.0623	1002.868	0.115
277.65	0.0623	1002.88	0.115
277.15	0.0623	1002.888	0.115
276.65	0.0623	1002.892	0.115
276.15	0.0623	1002.894	0.115
275.65	0.0623	1002.892	0.115
275.15	0.0623	1002.883	0.115
274.65	0.0623	1002.873	0.115
274.15	0.0623	1002.857	0.115
273.65	0.0623	1002.838	0.115
283.15	0.074	1003.079	0.115
282.65	0.074	1003.127	0.115
282.15	0.074	1003.171	0.115
281.65	0.074	1003.212	0.115
281.15	0.074	1003.252	0.115
280.65	0.074	1003.283	0.115
280.15	0.074	1003.316	0.115
279.65	0.074	1003.342	0.115
279.15	0.074	1003.367	0.115
278.65	0.074	1003.387	0.115
278.15	0.074	1003.407	0.115
277.65	0.074	1003.419	0.115
277.15	0.074	1003.428	0.115
276.65	0.074	1003.433	0.115
276.15	0.074	1003.435	0.115
275.65	0.074	1003.434	0.115
275.15	0.074	1003.428	0.115
274.65	0.074	1003.417	0.115
274.15	0.074	1003.402	0.115
273.65	0.074	1003.385	0.115
283.15	0.0855	1003.626	0.115
282.65	0.0855	1003.674	0.115
282.15	0.0855	1003.719	0.115
281.65	0.0855	1003.761	0.115
281.15	0.0855	1003.8	0.115
280.65	0.0855	1003.833	0.115
280.15	0.0855	1003.865	0.115
279.65	0.0855	1003.895	0.115
279.15	0.0855	1003.919	0.115
278.65	0.0855	1003.941	0.115
278.15	0.0855	1003.958	0.115
277.65	0.0855	1003.973	0.115
277.15	0.0855	1003.983	0.115
276.65	0.0855	1003.989	0.116
276.15	0.0855	1003.996	0.116
275.65	0.0855	1003.994	0.116
275.15	0.0855	1003.987	0.116
274.65	0.0855	1003.976	0.116
274.15	0.0855	1003.964	0.116
273.65	0.0855	1003.95	0.116
283.15	0.0981	1004.21	0.115
282.65	0.0981	1004.26	0.115
282.15	0.0981	1004.307	0.115
281.65	0.0981	1004.348	0.115
281.15	0.0981	1004.39	0.115
280.65	0.0981	1004.426	0.115
280.15	0.0981	1004.458	0.115
279.65	0.0981	1004.489	0.116
279.15	0.0981	1004.515	0.116
278.65	0.0981	1004.54	0.116
278.15	0.0981	1004.559	0.116
277.65	0.0981	1004.574	0.116
277.15	0.0981	1004.587	0.116
276.65	0.0981	1004.594	0.116
276.15	0.0981	1004.599	0.116
275.65	0.0981	1004.601	0.116
275.15	0.0981	1004.597	0.116
274.65	0.0981	1004.589	0.116
274.15	0.0981	1004.579	0.116
273.65	0.0981	1004.562	0.116
283.15	0.1158	1005.056	0.116
282.65	0.1158	1005.106	0.116
282.15	0.1158	1005.156	0.116
281.65	0.1158	1005.2	0.116
281.15	0.1158	1005.242	0.116
280.65	0.1158	1005.281	0.116
280.15	0.1158	1005.315	0.116
279.65	0.1158	1005.347	0.116
279.15	0.1158	1005.375	0.116
278.65	0.1158	1005.399	0.116
278.15	0.1158	1005.419	0.116
277.65	0.1158	1005.438	0.116
277.15	0.1158	1005.45	0.116
276.65	0.1158	1005.46	0.116
276.15	0.1158	1005.468	0.116
275.65	0.1158	1005.472	0.116
275.15	0.1158	1005.469	0.116
274.65	0.1158	1005.465	0.116
274.15	0.1158	1005.455	0.116
273.65	0.1158	1005.443	0.116

System: L-proline + water; phases: Liquid
Fixed: Pressure, kPa = 100
Property: Mass density, kg/m3 (Liquid); method: Vibrating tube method
Temperature, K	Molality, mol/kg of L-proline	Mass density, kg/m3	uncertainty
283.15	0.0132	1000.151	0.11
282.65	0.0132	1000.192	0.11
282.15	0.0132	1000.231	0.11
281.65	0.0132	1000.269	0.11
281.15	0.0132	1000.303	0.11
280.65	0.0132	1000.328	0.11
280.15	0.0132	1000.353	0.11
279.65	0.0132	1000.376	0.11
279.15	0.0132	1000.395	0.11
278.65	0.0132	1000.411	0.11
278.15	0.0132	1000.42	0.11
277.65	0.0132	1000.43	0.11
277.15	0.0132	1000.434	0.111
276.65	0.0132	1000.43	0.11
276.15	0.0132	1000.424	0.11
275.65	0.0132	1000.414	0.11
275.15	0.0132	1000.403	0.11
274.65	0.0132	1000.388	0.11
274.15	0.0132	1000.367	0.11
273.65	0.0132	1000.341	0.11
283.15	0.0326	1000.811	0.11
282.65	0.0326	1000.853	0.11
282.15	0.0326	1000.891	0.11
281.65	0.0326	1000.932	0.11
281.15	0.0326	1000.968	0.11
280.65	0.0326	1000.993	0.11
280.15	0.0326	1001.019	0.11
279.65	0.0326	1001.043	0.11
279.15	0.0326	1001.063	0.11
278.65	0.0326	1001.079	0.11
278.15	0.0326	1001.092	0.11
277.65	0.0326	1001.103	0.11
277.15	0.0326	1001.109	0.11
276.65	0.0326	1001.105	0.11
276.15	0.0326	1001.1	0.11
275.65	0.0326	1001.094	0.11
275.15	0.0326	1001.081	0.11
274.65	0.0326	1001.068	0.11
274.15	0.0326	1001.048	0.11
273.65	0.0326	1001.024	0.11
283.15	0.0542	1001.53	0.11
282.65	0.0542	1001.573	0.11
282.15	0.0542	1001.615	0.11
281.65	0.0542	1001.656	0.11
281.15	0.0542	1001.692	0.11
280.65	0.0542	1001.719	0.11
280.15	0.0542	1001.748	0.11
279.65	0.0542	1001.772	0.11
279.15	0.0542	1001.794	0.11
278.65	0.0542	1001.812	0.11
278.15	0.0542	1001.825	0.11
277.65	0.0542	1001.836	0.11
277.15	0.0542	1001.845	0.11
276.65	0.0542	1001.841	0.11
276.15	0.0542	1001.839	0.11
275.65	0.0542	1001.835	0.11
275.15	0.0542	1001.824	0.11
274.65	0.0542	1001.813	0.11
274.15	0.0542	1001.795	0.11
273.65	0.0542	1001.774	0.11
283.15	0.0692	1002.027	0.11
282.65	0.0692	1002.07	0.11
282.15	0.0692	1002.115	0.11
281.65	0.0692	1002.154	0.11
281.15	0.0692	1002.192	0.11
280.65	0.0692	1002.219	0.11
280.15	0.0692	1002.248	0.11
279.65	0.0692	1002.275	0.11
279.15	0.0692	1002.298	0.11
278.65	0.0692	1002.316	0.11
278.15	0.0692	1002.329	0.11
277.65	0.0692	1002.342	0.11
277.15	0.0692	1002.349	0.11
276.65	0.0692	1002.347	0.11
276.15	0.0692	1002.347	0.11
275.65	0.0692	1002.344	0.11
275.15	0.0692	1002.335	0.11
274.65	0.0692	1002.324	0.11
274.15	0.0692	1002.31	0.11
273.65	0.0692	1002.288	0.11
283.15	0.0808	1002.415	0.11
282.65	0.0808	1002.459	0.11
282.15	0.0808	1002.504	0.11
281.65	0.0808	1002.547	0.11
281.15	0.0808	1002.586	0.11
280.65	0.0808	1002.614	0.11
280.15	0.0808	1002.644	0.11
279.65	0.0808	1002.671	0.11
279.15	0.0808	1002.695	0.11
278.65	0.0808	1002.714	0.11
278.15	0.0808	1002.728	0.11
277.65	0.0808	1002.742	0.11
277.15	0.0808	1002.753	0.11
276.65	0.0808	1002.752	0.11
276.15	0.0808	1002.75	0.11
275.65	0.0808	1002.747	0.11
275.15	0.0808	1002.74	0.11
274.65	0.0808	1002.729	0.11
274.15	0.0808	1002.714	0.11
273.65	0.0808	1002.692	0.11
283.15	0.1014	1003.111	0.11
282.65	0.1014	1003.156	0.111
282.15	0.1014	1003.201	0.111
281.65	0.1014	1003.245	0.111
281.15	0.1014	1003.284	0.111
280.65	0.1014	1003.314	0.111
280.15	0.1014	1003.345	0.111
279.65	0.1014	1003.374	0.111
279.15	0.1014	1003.398	0.111
278.65	0.1014	1003.42	0.111
278.15	0.1014	1003.435	0.111
277.65	0.1014	1003.451	0.111
277.15	0.1014	1003.461	0.111
276.65	0.1014	1003.463	0.111
276.15	0.1014	1003.462	0.111
275.65	0.1014	1003.461	0.111
275.15	0.1014	1003.455	0.111
274.65	0.1014	1003.445	0.111
274.15	0.1014	1003.432	0.111
273.65	0.1014	1003.415	0.111
283.15	0.1196	1003.765	0.11
282.65	0.1196	1003.812	0.11
282.15	0.1196	1003.857	0.11
281.65	0.1196	1003.902	0.11
281.15	0.1196	1003.942	0.11
280.65	0.1196	1003.972	0.11
280.15	0.1196	1004.003	0.11
279.65	0.1196	1004.034	0.11
279.15	0.1196	1004.059	0.111
278.65	0.1196	1004.081	0.111
278.15	0.1196	1004.099	0.111
277.65	0.1196	1004.116	0.111
277.15	0.1196	1004.129	0.111
276.65	0.1196	1004.129	0.111
276.15	0.1196	1004.133	0.111
275.65	0.1196	1004.131	0.111
275.15	0.1196	1004.127	0.111
274.65	0.1196	1004.12	0.111
274.15	0.1196	1004.108	0.111
273.65	0.1196	1004.091	0.111
283.15	0.1326	1004.159	0.11
282.65	0.1326	1004.214	0.11
282.15	0.1326	1004.261	0.11
281.65	0.1326	1004.306	0.11
281.15	0.1326	1004.347	0.11
280.65	0.1326	1004.378	0.11
280.15	0.1326	1004.411	0.11
279.65	0.1326	1004.441	0.11
279.15	0.1326	1004.468	0.11
278.65	0.1326	1004.488	0.11
278.15	0.1326	1004.508	0.11
277.65	0.1326	1004.522	0.11
277.15	0.1326	1004.538	0.11
276.65	0.1326	1004.541	0.11
276.15	0.1326	1004.542	0.11
275.65	0.1326	1004.543	0.11
275.15	0.1326	1004.54	0.11
274.65	0.1326	1004.532	0.11
274.15	0.1326	1004.52	0.11
273.65	0.1326	1004.504	0.11
283.15	0.1555	1004.901	0.146
282.65	0.1555	1004.95	0.146
282.15	0.1555	1004.997	0.146
281.65	0.1555	1005.043	0.147
281.15	0.1555	1005.087	0.149
280.65	0.1555	1005.12	0.147
280.15	0.1555	1005.153	0.149
279.65	0.1555	1005.186	0.149
279.15	0.1555	1005.214	0.149
278.65	0.1555	1005.237	0.149
278.15	0.1555	1005.257	0.149
277.65	0.1555	1005.276	0.15
277.15	0.1555	1005.291	0.151
276.65	0.1555	1005.298	0.149
276.15	0.1555	1005.3	0.15
275.65	0.1555	1005.304	0.149
275.15	0.1555	1005.302	0.15
274.65	0.1555	1005.296	0.15
274.15	0.1555	1005.286	0.151
273.65	0.1555	1005.273	0.151
283.15	0.1568	1005.033	0.146
282.65	0.1568	1005.081	0.146
282.15	0.1568	1005.129	0.146
281.65	0.1568	1005.176	0.146
281.15	0.1568	1005.22	0.145
280.65	0.1568	1005.253	0.147
280.15	0.1568	1005.29	0.148
279.65	0.1568	1005.321	0.147
279.15	0.1568	1005.349	0.147
278.65	0.1568	1005.374	0.148
278.15	0.1568	1005.394	0.149
277.65	0.1568	1005.413	0.148
277.15	0.1568	1005.429	0.147
276.65	0.1568	1005.434	0.148
276.15	0.1568	1005.439	0.149
275.65	0.1568	1005.44	0.148
275.15	0.1568	1005.44	0.148
274.65	0.1568	1005.434	0.149
274.15	0.1568	1005.425	0.15
273.65	0.1568	1005.414	0.151
283.15	0.1835	1005.829	0.11
282.65	0.1835	1005.878	0.11
282.15	0.1835	1005.927	0.11
281.65	0.1835	1005.976	0.11
281.15	0.1835	1006.022	0.11
280.65	0.1835	1006.055	0.11
280.15	0.1835	1006.09	0.11
279.65	0.1835	1006.124	0.11
279.15	0.1835	1006.153	0.11
278.65	0.1835	1006.18	0.11
278.15	0.1835	1006.201	0.11
277.65	0.1835	1006.222	0.11
277.15	0.1835	1006.239	0.11
276.65	0.1835	1006.245	0.11
276.15	0.1835	1006.251	0.11
275.65	0.1835	1006.257	0.11
275.15	0.1835	1006.256	0.11
274.65	0.1835	1006.253	0.11
274.15	0.1835	1006.246	0.11
273.65	0.1835	1006.234	0.11
283.15	0.2076	1006.6	0.112
282.65	0.2076	1006.651	0.112
282.15	0.2076	1006.702	0.112
281.65	0.2076	1006.753	0.112
281.15	0.2076	1006.798	0.112
280.65	0.2076	1006.834	0.112
280.15	0.2076	1006.871	0.112
279.65	0.2076	1006.907	0.112
279.15	0.2076	1006.938	0.112
278.65	0.2076	1006.965	0.112
278.15	0.2076	1006.988	0.112
277.65	0.2076	1007.009	0.112
277.15	0.2076	1007.029	0.112
276.65	0.2076	1007.037	0.112
276.15	0.2076	1007.045	0.112
275.65	0.2076	1007.05	0.112
275.15	0.2076	1007.053	0.112
274.65	0.2076	1007.052	0.112
274.15	0.2076	1007.047	0.112
273.65	0.2076	1007.038	0.112
283.15	0.2212	1007.258	0.116
282.65	0.2212	1007.309	0.116
282.15	0.2212	1007.362	0.116
281.65	0.2212	1007.413	0.116
281.15	0.2212	1007.46	0.116
280.65	0.2212	1007.496	0.116
280.15	0.2212	1007.535	0.116
279.65	0.2212	1007.572	0.116
279.15	0.2212	1007.603	0.116
278.65	0.2212	1007.632	0.116
278.15	0.2212	1007.656	0.116
277.65	0.2212	1007.681	0.116
277.15	0.2212	1007.699	0.116
276.65	0.2212	1007.707	0.117
276.15	0.2212	1007.719	0.117
275.65	0.2212	1007.724	0.117
275.15	0.2212	1007.729	0.117
274.65	0.2212	1007.729	0.117
274.15	0.2212	1007.727	0.117
273.65	0.2212	1007.717	0.117
