Measured thermophysical data. Effect of Caffeine on the Physicochemical Properties of Neurotransmitter GABA: Thermodynamic and Theoretical Approach
Source: J. Chem. Eng. Data, 2019, 10.1021/acs.jced.9b00327
Compound 1: caffeine, C8H10N4O2, InChI=1S/C8H10N4O2/c1-10-4-9-6-5(10)7(13)12(3)8(14)11(6)2/h4H,1-3H3, purity 99%
Compound 2: 4-aminobutanoic acid, C4H9NO2, InChI=1S/C4H9NO2/c5-3-1-2-4(6)7/h1-3,5H2,(H,6,7), purity 98%
Compound 3: water, H2O, InChI=1S/H2O/h1H2

System: water; phases: Liquid
Fixed: Pressure, kPa = 100
Property: Mass density, kg/m3 (Liquid); method: Vibrating tube method
Temperature, K	Mass density, kg/m3	uncertainty
293.15	998.207	1.001
298.15	997.047	1.001
303.15	995.649	1.001
308.15	994.041	1.001
313.15	992.215	1.001
318.15	990.214	1.001

System: water; phases: Liquid
Fixed: Pressure, kPa = 100
Property: Speed of sound, m/s (Liquid); method: Single path-length method
Temperature, K	Speed of sound, m/s	uncertainty
293.15	1482.94	4.01
298.15	1496.92	4.01
303.15	1509.25	4.01
308.15	1519.88	4.01
313.15	1528.94	4.01
318.15	1536.53	4.01

System: 4-aminobutanoic acid + caffeine + water; phases: Liquid
Fixed: Pressure, kPa = 100
Property: Mass density, kg/m3 (Liquid); method: Vibrating tube method
Temperature, K	Molality, mol/kg of 4-aminobutanoic acid	Solvent: Molality, mol/kg of caffeine	Mass density, kg/m3	uncertainty
293.15	0	0	998.207	1.243
293.15	0.09972	0	1000.992	1.168
293.15	0.14785	0	1002.314	1.164
293.15	0.19424	0	1003.573	1.16
293.15	0.24493	0	1004.936	1.157
293.15	0.29367	0	1006.232	1.154
293.15	0.3452	0	1007.584	1.151
293.15	0.39278	0	1008.815	1.031
293.15	0	0.005	998.731	1.186
293.15	0.0988	0.005	1001.666	1.168
293.15	0.14894	0.005	1003.121	4.564
293.15	0.19827	0.005	1004.534	7.453
293.15	0.2487	0.005	1005.955	5.33
293.15	0.29968	0.005	1007.366	1.168
293.15	0.34692	0.005	1008.656	1.165
293.15	0	0.01	998.986	1.161
293.15	0.10046	0.01	1001.962	1.184
293.15	0.14954	0.01	1003.368	1.177
293.15	0.20038	0.01	1004.802	1.169
293.15	0.24816	0.01	1006.117	1.163
293.15	0.29756	0.01	1007.445	1.153
293.15	0.34568	0.01	1008.698	1.18
293.15	0	0.02	999.492	1.188
293.15	0.10103	0.02	1002.508	1.183
293.15	0.19995	0.02	1005.359	1.177
293.15	0.24876	0.02	1006.732	1.17
293.15	0.29925	0.02	1008.127	1.165
293.15	0.34811	0.02	1009.448	1.159
293.15	0.39887	0.02	1010.782	1.155
293.15	0	0.04	1000.685	1.191
293.15	0.09755	0.04	1003.625	1.188
293.15	0.20503	0.04	1006.791	1.182
293.15	0.29503	0.04	1009.38	1.177
293.15	0.34488	0.04	1010.793	1.174
293.15	0.37637	0.04	1011.679	1.17
293.15	0.4421	0.04	1013.502	1.169
293.15	0	0.06	1001.781	1.186
293.15	0.10629	0.06	1004.926	1.183
293.15	0.20687	0.06	1007.841	1.178
293.15	0.30975	0.06	1010.765	1.174
293.15	0.35514	0.06	1012.034	1.17
293.15	0.38764	0.06	1012.935	1.167
293.15	0.44993	0.06	1014.643	1.167
298.15	0	0	997.047	1.215
298.15	0.09972	0	999.771	1.16
298.15	0.14785	0	1001.048	1.154
298.15	0.19424	0	1002.258	1.153
298.15	0.24493	0	1003.556	1.144
298.15	0.29367	0	1004.779	1.134
298.15	0.3452	0	1006.039	1.124
298.15	0.39278	0	1007.19	1.061
298.15	0	0.005	997.275	1.183
298.15	0.0988	0.005	1000.177	1.159
298.15	0.14894	0.005	1001.576	1.179
298.15	0.19827	0.005	1002.926	1.168
298.15	0.2487	0.005	1004.248	1.158
298.15	0.29968	0.005	1005.518	1.136
298.15	0.34692	0.005	1006.698	1.128
298.15	0	0.01	997.549	1.166
298.15	0.10046	0.01	1000.496	1.184
298.15	0.14954	0.01	1001.871	1.138
298.15	0.20038	0.01	1003.237	1.154
298.15	0.24816	0.01	1004.459	1.148
298.15	0.29756	0.01	1005.72	1.203
298.15	0.34568	0.01	1006.829	1.306
298.15	0	0.02	998.082	1.18
298.15	0.10103	0.02	1001.094	1.179
298.15	0.19995	0.02	1003.864	1.173
298.15	0.24876	0.02	1005.199	1.158
298.15	0.29925	0.02	1006.521	1.147
298.15	0.34811	0.02	1007.715	1.139
298.15	0.39887	0.02	1008.969	1.222
298.15	0	0.04	999.091	1.173
298.15	0.09755	0.04	1002.021	1.179
298.15	0.20503	0.04	1005.03	1.164
298.15	0.29503	0.04	1007.377	1.16
298.15	0.34488	0.04	1008.619	1.162
298.15	0.37637	0.04	1009.426	1.117
298.15	0.4421	0.04	1011.006	1.257
298.15	0	0.06	1000.023	1.163
298.15	0.10629	0.06	1003.215	1.181
298.15	0.20687	0.06	1006.037	1.16
298.15	0.30975	0.06	1008.697	1.165
298.15	0.35514	0.06	1009.81	1.158
298.15	0.38764	0.06	1010.623	1.111
298.15	0.44993	0.06	1012.094	1.295
303.15	0	0	995.649	1.254
303.15	0.09972	0	998.354	1.158
303.15	0.14785	0	999.634	1.155
303.15	0.19424	0	1000.852	1.171
303.15	0.24493	0	1002.165	1.173
303.15	0.29367	0	1003.41	1.173
303.15	0.3452	0	1004.711	1.178
303.15	0.39278	0	1005.889	1.052
303.15	0	0.005	996.169	1.19
303.15	0.0988	0.005	999.13	1.158
303.15	0.14894	0.005	1000.594	1.216
303.15	0.19827	0.005	1002.025	1.217
303.15	0.2487	0.005	1003.456	1.228
303.15	0.29968	0.005	1004.875	1.18
303.15	0.34692	0.005	1006.184	1.185
303.15	0	0.01	996.422	1.231
303.15	0.10046	0.01	999.442	1.178
303.15	0.14954	0.01	1000.879	1.241
303.15	0.20038	0.01	1002.34	1.174
303.15	0.24816	0.01	1003.681	1.169
303.15	0.29756	0.01	1005.043	1.09
303.15	0.34568	0.01	1006.328	1.042
303.15	0	0.02	996.912	1.216
303.15	0.10103	0.02	999.985	1.188
303.15	0.19995	0.02	1002.888	1.175
303.15	0.24876	0.02	1004.291	1.176
303.15	0.29925	0.02	1005.717	1.169
303.15	0.34811	0.02	1007.058	1.164
303.15	0.39887	0.02	1008.422	1.084
303.15	0	0.04	997.986	1.227
303.15	0.09755	0.04	1001.001	1.194
303.15	0.20503	0.04	1004.211	1.182
303.15	0.29503	0.04	1006.799	1.166
303.15	0.34488	0.04	1008.206	1.157
303.15	0.37637	0.04	1009.102	1.19
303.15	0.4421	0.04	1010.886	1.078
303.15	0	0.06	999.147	1.242
303.15	0.10629	0.06	1002.443	1.196
303.15	0.20687	0.06	1005.484	1.189
303.15	0.30975	0.06	1008.509	1.161
303.15	0.35514	0.06	1009.803	1.156
303.15	0.38764	0.06	1010.742	1.21
303.15	0.44993	0.06	1012.48	1.047
308.15	0	0	994.041	1.219
308.15	0.09972	0	996.682	1.153
308.15	0.14785	0	997.926	1.148
308.15	0.19424	0	999.104	1.147
308.15	0.24493	0	1000.368	1.141
308.15	0.29367	0	1001.564	1.134
308.15	0.3452	0	1002.804	1.127
308.15	0.39278	0	1003.924	1.029
308.15	0	0.005	994.279	1.186
308.15	0.0988	0.005	997.214	1.152
308.15	0.14894	0.005	998.63	1.177
308.15	0.19827	0.005	1000.005	1.17
308.15	0.2487	0.005	1001.351	1.166
308.15	0.29968	0.005	1002.648	1.139
308.15	0.34692	0.005	1003.86	1.135
308.15	0	0.01	994.556	1.169
308.15	0.10046	0.01	997.555	1.187
308.15	0.14954	0.01	998.963	1.142
308.15	0.20038	0.01	1000.366	1.162
308.15	0.24816	0.01	1001.644	1.154
308.15	0.29756	0.01	1002.917	1.208
308.15	0.34568	0.01	1004.082	1.305
308.15	0	0.02	995.092	1.188
308.15	0.10103	0.02	998.168	1.187
308.15	0.19995	0.02	1001.044	1.181
308.15	0.24876	0.02	1002.406	1.167
308.15	0.29925	0.02	1003.796	1.16
308.15	0.34811	0.02	1005.075	1.152
308.15	0.39887	0.02	1006.388	1.208
308.15	0	0.04	996.095	1.188
308.15	0.09755	0.04	999.108	1.19
308.15	0.20503	0.04	1002.269	1.177
308.15	0.29503	0.04	1004.748	1.17
308.15	0.34488	0.04	1006.079	1.17
308.15	0.37637	0.04	1006.932	1.135
308.15	0.4421	0.04	1008.587	1.219
308.15	0	0.06	997.015	1.176
308.15	0.10629	0.06	1000.308	1.189
308.15	0.20687	0.06	1003.191	1.167
308.15	0.30975	0.06	1005.938	1.173
308.15	0.35514	0.06	1007.082	1.167
308.15	0.38764	0.06	1007.946	1.116
308.15	0.44993	0.06	1009.442	1.305
313.15	0	0	992.215	1.257
313.15	0.09972	0	994.848	1.152
313.15	0.14785	0	996.089	1.147
313.15	0.19424	0	997.262	1.149
313.15	0.24493	0	998.525	1.145
313.15	0.29367	0	999.722	1.139
313.15	0.3452	0	1000.957	1.133
313.15	0.39278	0	1002.075	1.091
313.15	0	0.005	992.732	1.194
313.15	0.0988	0.005	995.738	1.152
313.15	0.14894	0.005	997.235	1.201
313.15	0.19827	0.005	998.681	1.196
313.15	0.2487	0.005	1000.144	1.201
313.15	0.29968	0.005	1001.58	1.154
313.15	0.34692	0.005	1002.909	1.151
313.15	0	0.01	992.974	1.212
313.15	0.10046	0.01	996.053	1.188
313.15	0.14954	0.01	997.519	1.213
313.15	0.20038	0.01	999.01	1.181
313.15	0.24816	0.01	1000.393	1.176
313.15	0.29756	0.01	1001.791	1.13
313.15	0.34568	0.01	1003.109	1.098
313.15	0	0.02	993.452	1.217
313.15	0.10103	0.02	996.587	1.195
313.15	0.19995	0.02	999.558	1.183
313.15	0.24876	0.02	1000.995	1.181
313.15	0.29925	0.02	1002.448	1.176
313.15	0.34811	0.02	1003.843	1.172
313.15	0.39887	0.02	1005.246	1.107
313.15	0	0.04	994.51	1.235
313.15	0.09755	0.04	997.596	1.202
313.15	0.20503	0.04	1000.894	1.19
313.15	0.29503	0.04	1003.555	1.174
313.15	0.34488	0.04	1005.001	1.165
313.15	0.37637	0.04	1005.921	1.198
313.15	0.4421	0.04	1007.781	1.089
313.15	0	0.06	995.632	1.255
313.15	0.10629	0.06	999.034	1.205
313.15	0.20687	0.06	1002.169	1.198
313.15	0.30975	0.06	1005.303	1.172
313.15	0.35514	0.06	1006.653	1.166
313.15	0.38764	0.06	1007.613	1.218
313.15	0.44993	0.06	1009.425	1.054
318.15	0	0	990.214	1.265
318.15	0.09972	0	992.851	1.154
318.15	0.14785	0	994.097	1.149
318.15	0.19424	0	995.285	1.145
318.15	0.24493	0	996.567	1.141
318.15	0.29367	0	997.781	1.138
318.15	0.3452	0	999.045	1.136
318.15	0.39278	0	1000.2	1.103
318.15	0	0.005	990.833	1.196
318.15	0.0988	0.005	993.863	1.153
318.15	0.14894	0.005	995.372	8.715
318.15	0.19827	0.005	996.831	14.896
318.15	0.2487	0.005	998.301	10.552
318.15	0.29968	0.005	999.768	1.177
318.15	0.34692	0.005	1001.122	1.176
318.15	0	0.01	990.981	1.181
318.15	0.10046	0.01	994.083	1.194
318.15	0.14954	0.01	995.557	1.19
318.15	0.20038	0.01	997.062	1.183
318.15	0.24816	0.01	998.455	1.178
318.15	0.29756	0.01	999.863	1.166
318.15	0.34568	0.01	1001.191	1.199
318.15	0	0.02	991.327	1.202
318.15	0.10103	0.02	994.48	1.195
318.15	0.19995	0.02	997.434	1.186
318.15	0.24876	0.02	998.849	1.175
318.15	0.29925	0.02	1000.268	1.171
318.15	0.34811	0.02	1001.647	1.166
318.15	0.39887	0.02	1003.021	1.161
318.15	0	0.04	992.156	1.209
318.15	0.09755	0.04	995.265	1.199
318.15	0.20503	0.04	998.5	1.181
318.15	0.29503	0.04	1001.024	1.168
318.15	0.34488	0.04	1002.378	1.161
318.15	0.37637	0.04	1003.223	1.154
318.15	0.4421	0.04	1004.935	1.152
318.15	0	0.06	992.958	1.209
318.15	0.10629	0.06	996.348	1.201
318.15	0.20687	0.06	999.397	1.185
318.15	0.30975	0.06	1002.367	1.174
318.15	0.35514	0.06	1003.596	1.165
318.15	0.38764	0.06	1004.508	1.157
318.15	0.44993	0.06	1006.123	1.151

System: 4-aminobutanoic acid + caffeine + water; phases: Liquid
Fixed: Pressure, kPa = 100
Property: Speed of sound, m/s (Liquid); method: Single path-length method
Temperature, K	Molality, mol/kg of 4-aminobutanoic acid	Solvent: Molality, mol/kg of caffeine	Speed of sound, m/s	uncertainty
293.15	0	0	1482.94	4.47
293.15	0.09972	0	1491.39	4.47
293.15	0.14785	0	1495.44	4.47
293.15	0.19424	0	1499.34	4.46
293.15	0.24493	0	1503.55	4.46
293.15	0.29367	0	1507.61	4.45
293.15	0.3452	0	1511.84	4.45
293.15	0.39278	0	1515.73	5.09
298.15	0	0	1496.92	4.48
298.15	0.09972	0	1504.99	4.44
298.15	0.14785	0	1508.89	4.45
298.15	0.19424	0	1512.65	4.52
298.15	0.24493	0	1516.75	4.53
298.15	0.29367	0	1520.69	4.52
298.15	0.3452	0	1524.85	4.53
298.15	0.39278	0	1528.65	5.05
303.15	0	0	1509.25	4.45
303.15	0.09972	0	1517.04	4.41
303.15	0.14785	0	1520.8	4.42
303.15	0.19424	0	1524.41	4.5
303.15	0.24493	0	1528.37	4.5
303.15	0.29367	0	1532.17	4.5
303.15	0.3452	0	1536.18	4.5
303.15	0.39278	0	1539.87	4.68
303.15	0.09972	0	1517.04	4.41
308.15	0	0	1519.88	4.46
308.15	0.09972	0	1527.44	4.4
308.15	0.14785	0	1531.09	4.41
308.15	0.19424	0	1534.59	4.49
308.15	0.24493	0	1538.45	4.48
308.15	0.29367	0	1542.11	4.48
308.15	0.3452	0	1546	4.48
308.15	0.39278	0	1549.57	4.68
308.15	0.09972	0	1527.44	4.4
313.15	0	0	1528.94	4.5
313.15	0.09972	0	1536.28	4.38
313.15	0.14785	0	1539.81	4.39
313.15	0.19424	0	1543.22	4.46
313.15	0.24493	0	1546.95	4.46
313.15	0.29367	0	1550.53	4.46
313.15	0.3452	0	1554.32	4.47
313.15	0.39278	0	1557.81	4.17
318.15	0	0	1536.53	4.48
318.15	0.09972	0	1543.67	4.38
318.15	0.14785	0	1547.11	4.38
318.15	0.19424	0	1550.42	4.38
318.15	0.24493	0	1554.03	4.38
318.15	0.29367	0	1557.48	4.37
318.15	0.3452	0	1561.12	4.37
318.15	0.39278	0	1564.46	4.15
298.15	0	0.005	1497.15	4.42
298.15	0.0988	0.005	1504.82	4.43
298.15	0.14894	0.005	1508.5	4.53
298.15	0.19827	0.005	1511.93	4.49
298.15	0.2487	0.005	1515.26	4.45
298.15	0.29968	0.005	1518.22	4.44
298.15	0.34692	0.005	1521.47	4.48
303.15	0	0.005	1509.48	4.39
303.15	0.0988	0.005	1516.71	4.41
303.15	0.14894	0.005	1520.35	4.49
303.15	0.19827	0.005	1523.86	4.46
303.15	0.2487	0.005	1527.44	4.43
303.15	0.29968	0.005	1531.04	4.46
303.15	0.34692	0.005	1534.35	4.46
308.15	0	0.005	1520.09	4.41
308.15	0.0988	0.005	1527.54	4.4
308.15	0.14894	0.005	1531.06	4.5
308.15	0.19827	0.005	1534.54	4.49
308.15	0.2487	0.005	1537.94	4.46
308.15	0.29968	0.005	1541.07	4.42
308.15	0.34692	0.005	1544.1	4.43
313.15	0	0.005	1529.13	4.45
313.15	0.0988	0.005	1537.18	4.38
313.15	0.14894	0.005	1541.15	4.54
313.15	0.19827	0.005	1545.01	4.53
313.15	0.2487	0.005	1548.91	4.53
313.15	0.29968	0.005	1552.68	4.45
313.15	0.34692	0.005	1556.15	4.46
293.15	0	0.005	1483	4.47
293.15	0.0988	0.005	1491.31	4.47
293.15	0.14894	0.005	1495.09	9.39
293.15	0.19827	0.005	1498.93	20.24
293.15	0.2487	0.005	1502.49	20.02
293.15	0.29968	0.005	1505.74	4.33
293.15	0.34692	0.005	1508.96	4.36
318.15	0	0.005	1536.69	4.47
318.15	0.0988	0.005	1544.98	4.38
318.15	0.14894	0.005	1548.96	13.24
318.15	0.19827	0.005	1552.87	20.52
318.15	0.2487	0.005	1556.77	13.54
318.15	0.29968	0.005	1560.34	4.37
318.15	0.34692	0.005	1563.85	4.4
293.15	0	0.01	1483.47	4.43
298.15	0	0.01	1497.57	4.49
298.15	0.10046	0.01	1505.66	4.4
298.15	0.14954	0.01	1509.55	4.46
298.15	0.20038	0.01	1513.55	4.43
298.15	0.24816	0.01	1517.31	4.41
298.15	0.29756	0.01	1521	4.35
303.15	0	0.01	1509.85	4.45
303.15	0.10046	0.01	1518.13	4.38
303.15	0.14954	0.01	1522.12	4.46
303.15	0.20038	0.01	1526.27	4.45
303.15	0.24816	0.01	1530.15	4.44
303.15	0.29756	0.01	1534.12	4.3
303.15	0.34568	0.01	1537.92	4.21
298.15	0.34568	0.01	1524.66	4.39
308.15	0	0.01	1520.43	4.46
308.15	0.10046	0.01	1528.21	4.39
308.15	0.14954	0.01	1531.91	4.41
308.15	0.20038	0.01	1535.78	4.41
308.15	0.24816	0.01	1539.34	4.39
308.15	0.29756	0.01	1542.93	4.4
308.15	0.34568	0.01	1546.38	4.5
313.15	0	0.01	1529.43	4.51
313.15	0.10046	0.01	1537.75	4.43
313.15	0.14954	0.01	1541.75	4.54
313.15	0.20038	0.01	1545.91	4.45
313.15	0.24816	0.01	1549.76	4.44
313.15	0.29756	0.01	1553.71	4.27
313.15	0.34568	0.01	1557.51	4.18
293.15	0.10046	0.01	1492.18	4.45
293.15	0.14954	0.01	1496.36	4.48
293.15	0.20038	0.01	1500.65	4.47
293.15	0.24816	0.01	1504.67	4.46
293.15	0.29756	0.01	1508.74	4.45
293.15	0.34568	0.01	1512.64	5.11
318.15	0	0.01	1536.97	4.45
318.15	0.10046	0.01	1545.5	4.46
318.15	0.14954	0.01	1549.63	4.47
318.15	0.20038	0.01	1553.9	4.46
318.15	0.24816	0.01	1557.86	4.45
318.15	0.29756	0.01	1561.86	4.46
318.15	0.34568	0.01	1565.88	4.79
293.15	0.19995	0.02	1500.72	4.43
298.15	0	0.02	1498.04	4.46
298.15	0.10103	0.02	1505.83	4.36
298.15	0.19995	0.02	1511.77	4.31
298.15	0.24876	0.02	1514.23	4.24
298.15	0.29925	0.02	1516.42	4.24
298.15	0.34811	0.02	1518.66	4.21
293.15	0	0.02	1483.98	4.49
293.15	0.10103	0.02	1492.79	4.47
303.15	0	0.02	1510.28	4.5
303.15	0.10103	0.02	1518.61	4.44
303.15	0.19995	0.02	1526.36	4.39
303.15	0.24876	0.02	1529.89	4.39
303.15	0.29925	0.02	1533.56	4.38
308.15	0	0.02	1520.8	4.49
308.15	0.10103	0.02	1529.06	4.45
308.15	0.19995	0.02	1537.06	4.43
308.15	0.24876	0.02	1540.76	4.44
308.15	0.29925	0.02	1544.95	4.46
308.15	0.34811	0.02	1549.07	4.43
308.15	0.39887	0.02	1552.78	4.25
298.15	0.39887	0.02	1520.22	4.92
303.15	0.34811	0.02	1537.03	4.39
303.15	0.39887	0.02	1540.71	4.15
313.15	0	0.02	1529.75	4.5
313.15	0.10103	0.02	1538.14	4.45
313.15	0.19995	0.02	1546.05	4.42
313.15	0.24876	0.02	1549.76	4.41
313.15	0.29925	0.02	1553.62	4.4
313.15	0.34811	0.02	1557.22	4.4
313.15	0.39887	0.02	1561.01	4.41
293.15	0.24876	0.02	1504.41	4.4
293.15	0.29925	0.02	1508.19	4.39
293.15	0.34811	0.02	1511.66	4.38
293.15	0.39887	0.02	1515.34	4.39
318.15	0	0.02	1537.24	4.47
318.15	0.10103	0.02	1545.73	4.46
318.15	0.19995	0.02	1553.78	4.45
318.15	0.24876	0.02	1557.69	4.44
318.15	0.29925	0.02	1561.78	4.43
318.15	0.34811	0.02	1565.49	4.42
318.15	0.39887	0.02	1569.43	4.42
293.15	0.09755	0.04	1494.01	4.51
298.15	0	0.04	1499.04	4.5
298.15	0.09755	0.04	1507.06	4.44
298.15	0.20503	0.04	1515.6	4.42
298.15	0.29503	0.04	1522.24	4.4
298.15	0.34488	0.04	1525.71	4.37
298.15	0.37637	0.04	1527.66	4.29
293.15	0.20503	0.04	1503.49	4.48
293.15	0.29503	0.04	1510.95	4.46
303.15	0	0.04	1511.15	4.52
303.15	0.09755	0.04	1519.41	4.46
303.15	0.20503	0.04	1528.11	4.43
303.15	0.29503	0.04	1535.05	4.39
303.15	0.34488	0.04	1538.7	4.35
293.15	0.34488	0.04	1515.02	4.45
293.15	0	0.04	1485.11	4.52
308.15	0	0.04	1521.58	4.48
308.15	0.09755	0.04	1529.46	4.42
308.15	0.20503	0.04	1537.43	4.39
308.15	0.29503	0.04	1543.76	4.38
308.15	0.34488	0.04	1547.17	4.36
313.15	0	0.04	1530.43	4.5
313.15	0.09755	0.04	1538.53	4.45
313.15	0.20503	0.04	1547.16	4.42
313.15	0.29503	0.04	1553.86	4.38
313.15	0.34488	0.04	1557.49	4.35
313.15	0.37637	0.04	1559.53	4.37
313.15	0.4421	0.04	1563.85	4.23
298.15	0.4421	0.04	1531.57	4.45
303.15	0.37637	0.04	1540.79	4.38
303.15	0.4421	0.04	1545.03	4.2
308.15	0.37637	0.04	1549.07	4.28
308.15	0.4421	0.04	1552.81	4.39
293.15	0.37637	0.04	1517.57	4.41
293.15	0.4421	0.04	1522.47	4.4
318.15	0	0.04	1537.84	4.44
318.15	0.09755	0.04	1545.69	4.43
318.15	0.20503	0.04	1554.06	4.41
318.15	0.29503	0.04	1560.56	4.38
318.15	0.34488	0.04	1564.16	4.38
318.15	0.37637	0.04	1566.35	4.33
318.15	0.4421	0.04	1570.3	4.31
293.15	0.35514	0.06	1517.04	4.44
298.15	0	0.06	1500.06	4.51
298.15	0.10629	0.06	1509.03	4.47
298.15	0.20687	0.06	1517.36	4.45
298.15	0.30975	0.06	1525.76	4.45
298.15	0.35514	0.06	1529.25	4.43
298.15	0.38764	0.06	1531.83	4.39
298.15	0.44993	0.06	1536.37	4.48
293.15	0.38764	0.06	1519.76	4.41
293.15	0	0.06	1486.22	4.53
303.15	0	0.06	1512.1	4.55
303.15	0.10629	0.06	1521.53	4.5
303.15	0.20687	0.06	1530.33	4.49
303.15	0.30975	0.06	1539.17	4.44
303.15	0.35514	0.06	1542.99	4.43
303.15	0.38764	0.06	1545.72	4.52
303.15	0.44993	0.06	1550.88	4.23
293.15	0.10629	0.06	1496.04	4.51
293.15	0.20687	0.06	1504.82	4.48
308.15	0	0.06	1522.43	4.49
308.15	0.10629	0.06	1531.15	4.44
308.15	0.20687	0.06	1539.15	4.44
308.15	0.30975	0.06	1547.45	4.44
308.15	0.35514	0.06	1550.81	4.42
308.15	0.38764	0.06	1553.32	4.38
308.15	0.44993	0.06	1557.92	4.54
293.15	0.30975	0.06	1513.47	4.46
313.15	0	0.06	1531.2	4.52
313.15	0.10629	0.06	1540.4	4.48
313.15	0.20687	0.06	1548.93	4.47
313.15	0.30975	0.06	1557.47	4.43
313.15	0.35514	0.06	1561.16	4.42
313.15	0.38764	0.06	1563.8	4.47
313.15	0.44993	0.06	1568.65	4.28
293.15	0.44993	0.06	1524.27	4.39
318.15	0	0.06	1538.52	4.47
318.15	0.10629	0.06	1547.42	4.46
318.15	0.20687	0.06	1555.62	4.45
318.15	0.30975	0.06	1564	4.44
318.15	0.35514	0.06	1567.56	4.43
318.15	0.38764	0.06	1570.1	4.41
318.15	0.44993	0.06	1574.8	4.41

System: 4-aminobutanoic acid + water; phases: Liquid
Fixed: Pressure, kPa = 100
Property: Mass density, kg/m3 (Liquid); method: Vibrating tube method
Temperature, K	Molality, mol/kg of 4-aminobutanoic acid	Mass density, kg/m3	uncertainty
293.15	0.09972	1000.992	1.142
293.15	0.14785	1002.314	1.14
293.15	0.19424	1003.573	1.137
293.15	0.24493	1004.936	1.135
293.15	0.29367	1006.232	1.132
293.15	0.3452	1007.584	1.129
293.15	0.39278	1008.815	1.127
298.15	0.09972	999.771	1.146
298.15	0.14785	1001.048	1.131
298.15	0.19424	1002.258	1.126
298.15	0.24493	1003.556	1.122
298.15	0.29367	1004.779	1.117
298.15	0.3452	1006.039	1.113
298.15	0.39278	1007.19	1.132
303.15	0.09972	998.354	1.15
303.15	0.14785	999.634	1.132
303.15	0.19424	1000.852	1.129
303.15	0.24493	1002.165	1.125
303.15	0.29367	1003.41	1.123
303.15	0.3452	1004.711	1.118
303.15	0.39278	1005.889	1.079
308.15	0.09972	996.682	1.137
308.15	0.14785	997.926	1.124
308.15	0.19424	999.104	1.12
308.15	0.24493	1000.368	1.116
308.15	0.29367	1001.564	1.113
308.15	0.3452	1002.804	1.109
308.15	0.39278	1003.924	1.113
313.15	0.09972	994.848	1.136
313.15	0.14785	996.089	1.124
313.15	0.19424	997.262	1.12
313.15	0.24493	998.525	1.116
313.15	0.29367	999.722	1.112
313.15	0.3452	1000.957	1.108
313.15	0.39278	1002.075	1.104
318.15	0.09972	992.851	1.127
318.15	0.14785	994.097	1.126
318.15	0.19424	995.285	1.123
318.15	0.24493	996.567	1.12
318.15	0.29367	997.781	1.116
318.15	0.3452	999.045	1.114
318.15	0.39278	1000.2	1.112

System: 4-aminobutanoic acid + water; phases: Liquid
Fixed: Pressure, kPa = 100
Property: Speed of sound, m/s (Liquid); method: Single path-length method
Temperature, K	Molality, mol/kg of 4-aminobutanoic acid	Speed of sound, m/s	uncertainty
293.15	0.09972	1491.39	4.35
293.15	0.14785	1495.44	4.35
293.15	0.19424	1499.34	4.34
293.15	0.24493	1503.55	4.34
293.15	0.29367	1507.61	4.34
293.15	0.3452	1511.84	4.33
293.15	0.39278	1515.73	4.33
298.15	0.09972	1504.99	4.41
298.15	0.14785	1508.89	4.32
298.15	0.19424	1512.65	4.32
298.15	0.24493	1516.75	4.32
298.15	0.29367	1520.69	4.32
298.15	0.3452	1524.85	4.32
298.15	0.39278	1528.65	4.23
303.15	0.09972	1517.04	4.39
303.15	0.14785	1520.8	4.3
303.15	0.19424	1524.41	4.3
303.15	0.24493	1528.37	4.3
303.15	0.29367	1532.17	4.3
303.15	0.3452	1536.18	4.3
303.15	0.39278	1539.87	4.23
308.15	0.09972	1527.44	4.36
308.15	0.14785	1531.09	4.28
308.15	0.19424	1534.59	4.29
308.15	0.24493	1538.45	4.28
308.15	0.29367	1542.11	4.28
308.15	0.3452	1546	4.28
308.15	0.39278	1549.57	4.21
313.15	0.09972	1536.28	4.34
313.15	0.14785	1539.81	4.27
313.15	0.19424	1543.22	4.27
313.15	0.24493	1546.95	4.27
313.15	0.29367	1550.53	4.27
313.15	0.3452	1554.32	4.27
313.15	0.39278	1557.81	4.2
318.15	0.09972	1543.67	4.25
318.15	0.14785	1547.11	4.25
318.15	0.19424	1550.42	4.25
318.15	0.24493	1554.03	4.25
318.15	0.29367	1557.48	4.25
318.15	0.3452	1561.12	4.25
318.15	0.39278	1564.46	4.25

System: caffeine + water; phases: Liquid
Fixed: Pressure, kPa = 100
Property: Mass density, kg/m3 (Liquid); method: Vibrating tube method
Temperature, K	Molality, mol/kg of caffeine	Mass density, kg/m3	uncertainty
293.15	0.005	998.731	1.021
293.15	0.01	998.986	1.021
293.15	0.02	999.492	1.021
293.15	0.04	1000.685	1.021
293.15	0.06	1001.781	1.021
298.15	0.005	997.275	1.02
298.15	0.01	997.549	1.02
298.15	0.02	998.082	1.02
298.15	0.04	999.091	1.02
298.15	0.06	1000.023	1.02
303.15	0.005	996.169	1.02
303.15	0.01	996.422	1.02
303.15	0.02	996.912	1.02
303.15	0.04	997.986	1.02
303.15	0.06	999.147	1.02
308.15	0.005	994.279	1.02
308.15	0.01	994.556	1.02
308.15	0.02	995.092	1.02
308.15	0.04	996.095	1.02
308.15	0.06	997.015	1.02
313.15	0.005	992.732	1.02
313.15	0.01	992.974	1.02
313.15	0.02	993.452	1.02
313.15	0.04	994.51	1.02
313.15	0.06	995.632	1.02
318.15	0.005	990.833	1.02
318.15	0.01	990.981	1.02
318.15	0.02	991.327	1.02
318.15	0.04	992.156	1.021
318.15	0.06	992.958	1.021

System: caffeine + water; phases: Liquid
Fixed: Pressure, kPa = 100
Property: Speed of sound, m/s (Liquid); method: Single path-length method
Temperature, K	Molality, mol/kg of caffeine	Speed of sound, m/s	uncertainty
298.15	0.005	1497.15	4.01
303.15	0.005	1509.48	4.01
308.15	0.005	1520.09	4.01
313.15	0.005	1529.13	4.01
293.15	0.005	1483	4.01
318.15	0.005	1536.69	4.01
293.15	0.01	1483.47	4.01
298.15	0.01	1497.57	4.01
303.15	0.01	1509.85	4.01
308.15	0.01	1520.43	4.01
313.15	0.01	1529.43	4.01
318.15	0.01	1536.97	4.01
298.15	0.02	1498.04	4.01
293.15	0.02	1483.98	4.01
303.15	0.02	1510.28	4.01
308.15	0.02	1520.8	4.01
313.15	0.02	1529.75	4.01
318.15	0.02	1537.24	4.01
298.15	0.04	1499.04	4.01
303.15	0.04	1511.15	4.01
293.15	0.04	1485.11	4.01
308.15	0.04	1521.58	4.01
313.15	0.04	1530.43	4.01
318.15	0.04	1537.84	4.01
298.15	0.06	1500.06	4.01
293.15	0.06	1486.22	4.01
303.15	0.06	1512.1	4.01
308.15	0.06	1522.43	4.01
313.15	0.06	1531.2	4.01
318.15	0.06	1538.52	4.01
