Measured thermophysical data. Densities and Speeds of Sound for Sucrose in Aqueous Solutions of Ammonium Phosphate Salts at Different Temperatures through Density and Speed of Sound Measurements
Source: J. Chem. Eng. Data, 2019, 10.1021/acs.jced.8b01157
Compound 1: D-sucrose, C12H22O11, InChI=1S/C12H22O11/c13-1-4-6(16)8(18)9(19)11(21-4)23-12(3-15)10(20)7(17)5(2-14)22-12/h4-11,13-20H,1-3H2/t4-,5-,6-,7-,8+,9-,10+,11-,12+/m1/s1, purity 99%
Compound 2: ammonium dihydrogen phosphate, H6NO4P, InChI=1S/H3N.H3O4P/c;1-5(2,3)4/h1H3;(H3,1,2,3,4), purity 99%
Compound 3: diammonium hydrogen phosphate, H9N2O4P, InChI=1S/2H3N.H3O4P/c;;1-5(2,3)4/h2*1H3;(H3,1,2,3,4), purity 99%
Compound 4: water, H2O, InChI=1S/H2O/h1H2

System: D-sucrose + water + ammonium dihydrogen phosphate; phases: Liquid
Fixed: Pressure, kPa = 100
Property: Mass density, kg/m3 (Liquid); method: Vibrating tube method
Temperature, K	Molality, mol/kg of D-sucrose	Solvent: Molality, mol/kg of ammonium dihydrogen phosphate	Mass density, kg/m3	uncertainty
288.15	0	0.5	1029.999	1.158
288.15	0.09939	0.5	1042.356	1.175
288.15	0.2006	0.5	1054.397	1.239
288.15	0.30022	0.5	1065.744	1.327
288.15	0.39737	0.5	1076.364	1.424
288.15	0.50034	0.5	1087.161	1.535
288.15	0.60024	0.5	1097.206	1.657
288.15	0	1	1057.615	1.465
288.15	0.09992	1	1069.669	1.468
288.15	0.20072	1	1081.289	1.509
288.15	0.29951	1	1092.184	1.568
288.15	0.39743	1	1102.521	1.64
288.15	0.49653	1	1112.552	1.718
288.15	0.60091	1	1122.664	1.756
288.15	0	1.5	1082.555	1.812
288.15	0.09935	1.5	1094.149	1.795
288.15	0.19831	1.5	1105.176	1.814
288.15	0.29998	1.5	1115.995	1.852
288.15	0.40076	1.5	1126.233	1.902
288.15	0.49788	1.5	1135.688	1.955
288.15	0.60101	1.5	1145.314	2.036
298.15	0	0.5	1026.452	1.157
298.15	0.09939	0.5	1038.701	1.175
298.15	0.2006	0.5	1050.637	1.237
298.15	0.30022	0.5	1061.885	1.323
298.15	0.39737	0.5	1072.398	1.419
298.15	0.50034	0.5	1083.089	1.528
298.15	0.60024	0.5	1093.026	1.657
298.15	0	1	1054.224	1.473
298.15	0.09992	1	1066.166	1.476
298.15	0.20072	1	1077.677	1.515
298.15	0.29951	1	1088.465	1.572
298.15	0.39743	1	1098.697	1.642
298.15	0.49653	1	1108.623	1.718
298.15	0.60091	1	1118.638	1.784
298.15	0	1.5	1079.601	1.82
298.15	0.09935	1.5	1091.074	1.811
298.15	0.19831	1.5	1101.979	1.828
298.15	0.29998	1.5	1112.676	1.864
298.15	0.40076	1.5	1122.812	1.912
298.15	0.49788	1.5	1132.157	1.962
298.15	0.60101	1.5	1141.647	2.016
308.15	0	0.5	1023.325	1.159
308.15	0.09939	0.5	1035.443	1.175
308.15	0.2006	0.5	1047.249	1.236
308.15	0.30022	0.5	1058.371	1.32
308.15	0.39737	0.5	1068.761	1.413
308.15	0.50034	0.5	1079.324	1.52
308.15	0.60024	0.5	1089.149	1.627
308.15	0	1	1050.982	1.464
308.15	0.09992	1	1062.805	1.467
308.15	0.20072	1	1074.196	1.505
308.15	0.29951	1	1084.869	1.562
308.15	0.39743	1	1094.997	1.63
308.15	0.49653	1	1104.822	1.705
308.15	0.60091	1	1114.699	1.744
308.15	0	1.5	1075.845	1.802
308.15	0.09935	1.5	1087.2	1.79
308.15	0.19831	1.5	1097.989	1.807
308.15	0.29998	1.5	1108.572	1.842
308.15	0.40076	1.5	1118.585	1.889
308.15	0.49788	1.5	1127.83	1.939
308.15	0.60101	1.5	1137.227	2.004
318.15	0	0.5	1019.736	1.149
318.15	0.09939	0.5	1031.728	1.165
318.15	0.2006	0.5	1043.407	1.226
318.15	0.30022	0.5	1054.404	1.309
318.15	0.39737	0.5	1064.684	1.401
318.15	0.50034	0.5	1075.133	1.507
318.15	0.60024	0.5	1084.854	1.624
318.15	0	1	1046.479	1.456
318.15	0.09992	1	1058.188	1.459
318.15	0.20072	1	1069.465	1.497
318.15	0.29951	1	1080.028	1.553
318.15	0.39743	1	1090.044	1.62
318.15	0.49653	1	1099.76	1.695
318.15	0.60091	1	1109.568	1.75
318.15	0	1.5	1071.755	1.828
318.15	0.09935	1.5	1082.985	1.809
318.15	0.19831	1.5	1093.657	1.825
318.15	0.29998	1.5	1104.125	1.858
318.15	0.40076	1.5	1114.026	1.903
318.15	0.49788	1.5	1123.162	1.95
318.15	0.60101	1.5	1132.443	2.023

System: D-sucrose + water + ammonium dihydrogen phosphate; phases: Liquid
Fixed: Pressure, kPa = 100
Fixed: Frequency, MHz = 3
Property: Speed of sound, m/s (Liquid); method: Single path-length method
Temperature, K	Molality, mol/kg of D-sucrose	Solvent: Molality, mol/kg of ammonium dihydrogen phosphate	Speed of sound, m/s	uncertainty
288.15	0	0.5	1507.3	2.3
288.15	0.09939	0.5	1517	2.3
288.15	0.2006	0.5	1527	2
288.15	0.30022	0.5	1536.7	2.3
288.15	0.39737	0.5	1546.3	2.4
288.15	0.50034	0.5	1556.4	2.5
288.15	0.60024	0.5	1566.2	2.6
288.15	0	1	1544.3	2.6
288.15	0.09992	1	1554.53	2.57
288.15	0.20072	1	1564.79	2.59
288.15	0.29951	1	1574.85	2.62
288.15	0.39743	1	1584.8	2.66
288.15	0.49653	1	1594.93	2.72
288.15	0.60091	1	1605.62	2.64
288.15	0	1.5	1579	3
288.15	0.09935	1.5	1588	2.9
288.15	0.19831	1.5	1596.9	2.9
288.15	0.29998	1.5	1606.1	2.9
288.15	0.40076	1.5	1615.2	2.9
288.15	0.49788	1.5	1624	2.9
288.15	0.60101	1.5	1633.3	2.9
298.15	0	0.5	1534.9	2.3
298.15	0.09939	0.5	1544.7	2.3
298.15	0.2006	0.5	1554.6	2.3
298.15	0.30022	0.5	1564.4	2.3
298.15	0.39737	0.5	1573.9	2.4
298.15	0.50034	0.5	1584	2.5
298.15	0.60024	0.5	1593.8	2.4
298.15	0	1	1569.7	2.5
298.15	0.09992	1	1579.7	2.52
298.15	0.20072	1	1589.79	2.54
298.15	0.29951	1	1599.5	2.57
298.15	0.39743	1	1609.62	2.61
298.15	0.49653	1	1619.03	2.66
298.15	0.60091	1	1629.02	2.64
298.15	0	1.5	1602.4	2.8
298.15	0.09935	1.5	1611.3	2.8
298.15	0.19831	1.5	1620.3	2.8
298.15	0.29998	1.5	1629.4	2.8
298.15	0.40076	1.5	1638.5	2.8
298.15	0.49788	1.5	1647.3	2.8
298.15	0.60101	1.5	1656.6	2.8
308.15	0	0.5	1555.9	2.2
308.15	0.09939	0.5	1565.7	2.2
308.15	0.2006	0.5	1575.6	2.3
308.15	0.30022	0.5	1585.4	2.3
308.15	0.39737	0.5	1594.9	2.4
308.15	0.50034	0.5	1605	2.5
308.15	0.60024	0.5	1614.8	2.4
308.15	0	1	1588.9	2.5
308.15	0.09992	1	1598.62	2.49
308.15	0.20072	1	1608.44	2.5
308.15	0.29951	1	1618.52	2.53
308.15	0.39743	1	1627.86	2.58
308.15	0.49653	1	1638.49	2.67
308.15	0.60091	1	1649.77	2.58
308.15	0	1.5	1619.9	2.7
308.15	0.09935	1.5	1628.8	2.8
308.15	0.19831	1.5	1637.8	2.8
308.15	0.29998	1.5	1647	2.7
308.15	0.40076	1.5	1656	2.8
308.15	0.49788	1.5	1664.8	2.8
308.15	0.60101	1.5	1674.1	2.7
318.15	0	0.5	1570.9	2.2
318.15	0.09939	0.5	1580.6	2.2
318.15	0.2006	0.5	1590.6	2.3
318.15	0.30022	0.5	1600.3	2.3
318.15	0.39737	0.5	1609.9	2.4
318.15	0.50034	0.5	1620	2.4
318.15	0.60024	0.5	1629.8	2.5
318.15	0	1	1602.6	2.4
318.15	0.09992	1	1611.57	2.45
318.15	0.20072	1	1621.82	2.47
318.15	0.29951	1	1632.19	2.5
318.15	0.39743	1	1641.85	2.55
318.15	0.49653	1	1652.29	2.59
318.15	0.60091	1	1661.53	2.52
318.15	0	1.5	1631.1	2.7
318.15	0.09935	1.5	1640.1	2.7
318.15	0.19831	1.5	1649	2.7
318.15	0.29998	1.5	1658.2	2.7
318.15	0.40076	1.5	1667.3	2.7
318.15	0.49788	1.5	1676	2.7
318.15	0.60101	1.5	1685.4	2.8

System: D-sucrose + water + diammonium hydrogen phosphate; phases: Liquid
Fixed: Pressure, kPa = 100
Property: Mass density, kg/m3 (Liquid); method: Vibrating tube method
Temperature, K	Molality, mol/kg of D-sucrose	Solvent: Molality, mol/kg of diammonium hydrogen phosphate	Mass density, kg/m3	uncertainty
288.15	0	0.5	1032.606	1.222
288.15	0.09925	0.5	1044.801	1.236
288.15	0.19877	0.5	1056.493	1.292
288.15	0.29839	0.5	1067.688	1.372
288.15	0.4001	0.5	1078.621	1.466
288.15	0.50137	0.5	1089.051	1.567
288.15	0.60057	0.5	1098.855	1.681
288.15	0	1	1066.397	1.652
288.15	0.09961	1	1078.178	1.649
288.15	0.19977	1	1089.485	1.678
288.15	0.29747	1	1100.014	1.723
288.15	0.39822	1	1110.387	1.781
288.15	0.49739	1	1120.157	1.845
288.15	0.598	1	1129.649	1.865
288.15	0	1.5	1097.529	2.129
288.15	0.09935	1.5	1108.792	2.103
288.15	0.19915	1.5	1119.571	2.11
288.15	0.29681	1.5	1129.625	2.129
288.15	0.40057	1.5	1139.818	2.161
288.15	0.49698	1.5	1148.845	2.195
288.15	0.59791	1.5	1157.899	2.252
298.15	0	0.5	1030.712	1.227
298.15	0.09925	0.5	1042.811	1.236
298.15	0.19877	0.5	1054.408	1.291
298.15	0.29839	0.5	1065.509	1.369
298.15	0.4001	0.5	1076.342	1.462
298.15	0.50137	0.5	1086.681	1.56
298.15	0.60057	0.5	1096.38	1.604
298.15	0	1	1064.032	1.644
298.15	0.09961	1	1075.717	1.641
298.15	0.19977	1	1086.925	1.669
298.15	0.29747	1	1097.355	1.714
298.15	0.39822	1	1107.652	1.772
298.15	0.49739	1	1117.337	1.835
298.15	0.598	1	1126.733	1.864
298.15	0	1.5	1095.182	2.083
298.15	0.09935	1.5	1106.343	2.079
298.15	0.19915	1.5	1117.019	2.085
298.15	0.29681	1.5	1126.971	2.104
298.15	0.40057	1.5	1137.072	2.136
298.15	0.49698	1.5	1146.027	2.169
298.15	0.59791	1.5	1154.975	2.159
308.15	0	0.5	1026.097	1.219
308.15	0.09925	0.5	1038.116	1.235
308.15	0.19877	0.5	1049.629	1.289
308.15	0.29839	0.5	1060.646	1.366
308.15	0.4001	0.5	1071.417	1.458
308.15	0.50137	0.5	1081.689	1.556
308.15	0.60057	0.5	1091.322	1.703
308.15	0	1	1060.217	1.637
308.15	0.09961	1	1071.807	1.634
308.15	0.19977	1	1082.919	1.661
308.15	0.29747	1	1093.268	1.705
308.15	0.39822	1	1103.471	1.761
308.15	0.49739	1	1113.062	1.823
308.15	0.598	1	1122.361	1.838
308.15	0	1.5	1090.108	2.084
308.15	0.09935	1.5	1101.185	2.054
308.15	0.19915	1.5	1111.779	2.061
308.15	0.29681	1.5	1121.661	2.079
308.15	0.40057	1.5	1131.678	2.112
308.15	0.49698	1.5	1140.558	2.145
308.15	0.59791	1.5	1149.454	2.228
318.15	0	0.5	1022.846	1.209
318.15	0.09925	0.5	1034.78	1.223
318.15	0.19877	0.5	1046.216	1.277
318.15	0.29839	0.5	1057.158	1.354
318.15	0.4001	0.5	1067.853	1.446
318.15	0.50137	0.5	1078.053	1.542
318.15	0.60057	0.5	1087.599	1.651
318.15	0	1	1055.59	1.626
318.15	0.09961	1	1067.113	1.623
318.15	0.19977	1	1078.157	1.651
318.15	0.29747	1	1088.443	1.694
318.15	0.39822	1	1098.588	1.75
318.15	0.49739	1	1108.133	1.812
318.15	0.598	1	1117.385	1.838
318.15	0	1.5	1086.187	2.101
318.15	0.09935	1.5	1097.186	2.074
318.15	0.19915	1.5	1107.702	2.079
318.15	0.29681	1.5	1117.505	2.097
318.15	0.40057	1.5	1127.436	2.126
318.15	0.49698	1.5	1136.23	2.156
318.15	0.59791	1.5	1145.033	2.21

System: D-sucrose + water + diammonium hydrogen phosphate; phases: Liquid
Fixed: Pressure, kPa = 100
Fixed: Frequency, MHz = 3
Property: Speed of sound, m/s (Liquid); method: Single path-length method
Temperature, K	Molality, mol/kg of D-sucrose	Solvent: Molality, mol/kg of diammonium hydrogen phosphate	Speed of sound, m/s	uncertainty
288.15	0	0.5	1517.7	2.4
288.15	0.09925	0.5	1527.3	2.4
288.15	0.19877	0.5	1537	2.4
288.15	0.29839	0.5	1546.6	2.5
288.15	0.4001	0.5	1556.5	2.5
288.15	0.50137	0.5	1566.4	2.6
288.15	0.60057	0.5	1576	2.68
288.15	0	1	1572	3.1
288.15	0.09961	1	1582.4	3.1
288.15	0.19977	1	1592.6	3.1
288.15	0.29747	1	1602.3	3.2
288.15	0.39822	1	1612.2	3.2
288.15	0.49739	1	1622.1	3.3
288.15	0.598	1	1632.4	3.3
288.15	0	1.5	1629.6	4.1
288.15	0.09935	1.5	1639.4	4
288.15	0.19915	1.5	1649.3	4
288.15	0.29681	1.5	1658.9	4.1
288.15	0.40057	1.5	1669.2	4.1
288.15	0.49698	1.5	1678.7	4.1
288.15	0.59791	1.5	1688.7	4.2
298.15	0	0.5	1544.3	2.4
298.15	0.09925	0.5	1553.9	2.4
298.15	0.19877	0.5	1563.6	2.4
298.15	0.29839	0.5	1573.2	2.5
298.15	0.4001	0.5	1583.1	2.5
298.15	0.50137	0.5	1592.9	2.6
298.15	0.60057	0.5	1602.6	2.6
298.15	0	1	1597.9	3
298.15	0.09961	1	1607.9	3
298.15	0.19977	1	1618	3
298.15	0.29747	1	1627.8	3.1
298.15	0.39822	1	1637.9	3.1
298.15	0.49739	1	1647.9	3.2
298.15	0.598	1	1658	3.2
298.15	0	1.5	1650.4	3.7
298.15	0.09935	1.5	1660.3	3.7
298.15	0.19915	1.5	1670.1	3.7
298.15	0.29681	1.5	1679.8	3.8
298.15	0.40057	1.5	1690.1	3.8
298.15	0.49698	1.5	1699.6	3.8
298.15	0.59791	1.5	1709.6	3.8
308.15	0	0.5	1564.8	2.4
308.15	0.09925	0.5	1574.5	2.4
308.15	0.19877	0.5	1584.1	2.4
308.15	0.29839	0.5	1593.8	2.4
308.15	0.4001	0.5	1603.7	2.5
308.15	0.50137	0.5	1613.5	2.6
308.15	0.60057	0.5	1623.2	2.6
308.15	0	1	1614.1	2.9
308.15	0.09961	1	1624.1	2.9
308.15	0.19977	1	1634.2	3
308.15	0.29747	1	1644	3
308.15	0.39822	1	1654.1	3
308.15	0.49739	1	1664.1	3.1
308.15	0.598	1	1674.2	3.1
308.15	0	1.5	1664.4	3.7
308.15	0.09935	1.5	1674.2	3.7
308.15	0.19915	1.5	1684.1	3.7
308.15	0.29681	1.5	1693.8	3.7
308.15	0.40057	1.5	1704	3.7
308.15	0.49698	1.5	1713.6	3.8
308.15	0.59791	1.5	1723.6	3.8
318.15	0	0.5	1581.3	2.3
318.15	0.09925	0.5	1590.9	2.3
318.15	0.19877	0.5	1600.6	2.4
318.15	0.29839	0.5	1610.3	2.4
318.15	0.4001	0.5	1620.1	2.5
318.15	0.50137	0.5	1630	2.5
318.15	0.60057	0.5	1639.6	2.6
318.15	0	1	1628.3	2.9
318.15	0.09961	1	1638.4	2.9
318.15	0.19977	1	1648.3	2.9
318.15	0.29747	1	1658.2	2.9
318.15	0.39822	1	1668.4	3
318.15	0.49739	1	1678.4	3
318.15	0.598	1	1688.5	3.1
318.15	0	1.5	1676.6	3.6
318.15	0.09935	1.5	1686.5	3.6
318.15	0.19915	1.5	1696.4	3.6
318.15	0.29681	1.5	1706	3.6
318.15	0.40057	1.5	1716.3	3.7
318.15	0.49698	1.5	1725.8	3.7
318.15	0.59791	1.5	1735.8	3.7

System: water + ammonium dihydrogen phosphate; phases: Liquid
Fixed: Pressure, kPa = 100
Property: Mass density, kg/m3 (Liquid); method: Vibrating tube method
Temperature, K	Molality, mol/kg of ammonium dihydrogen phosphate	Mass density, kg/m3	uncertainty
288.15	0.5	1029.999	1.144
288.15	1	1057.615	1.452
288.15	1.5	1082.555	1.802
298.15	0.5	1026.452	1.144
298.15	1	1054.224	1.461
298.15	1.5	1079.601	1.81
308.15	0.5	1023.325	1.145
308.15	1	1050.982	1.452
308.15	1.5	1075.845	1.792
318.15	0.5	1019.736	1.135
318.15	1	1046.479	1.444
318.15	1.5	1071.755	1.818

System: water + ammonium dihydrogen phosphate; phases: Liquid
Fixed: Pressure, kPa = 100
Fixed: Frequency, MHz = 3
Property: Speed of sound, m/s (Liquid); method: Single path-length method
Temperature, K	Molality, mol/kg of ammonium dihydrogen phosphate	Speed of sound, m/s	uncertainty
288.15	0.5	1507.3	2.2
288.15	1	1544.3	2.5
288.15	1.5	1579	2.9
298.15	0.5	1534.9	2.1
298.15	1	1569.7	2.4
298.15	1.5	1602.4	2.7
308.15	0.5	1555.9	2.1
308.15	1	1588.9	2.4
308.15	1.5	1619.9	2.7
318.15	0.5	1570.9	2.1
318.15	1	1602.6	2.4
318.15	1.5	1631.1	2.7

System: water + diammonium hydrogen phosphate; phases: Liquid
Fixed: Pressure, kPa = 100
Property: Mass density, kg/m3 (Liquid); method: Vibrating tube method
Temperature, K	Molality, mol/kg of diammonium hydrogen phosphate	Mass density, kg/m3	uncertainty
288.15	0.5	1032.606	1.208
288.15	1	1066.397	1.64
288.15	1.5	1097.529	2.121
298.15	0.5	1030.712	1.213
298.15	1	1064.032	1.633
298.15	1.5	1095.182	2.074
308.15	0.5	1026.097	1.207
308.15	1	1060.217	1.626
308.15	1.5	1090.108	2.075
318.15	0.5	1022.846	1.196
318.15	1	1055.59	1.615
318.15	1.5	1086.187	2.092

System: water + diammonium hydrogen phosphate; phases: Liquid
Fixed: Pressure, kPa = 100
Fixed: Frequency, MHz = 3
Property: Speed of sound, m/s (Liquid); method: Single path-length method
Temperature, K	Molality, mol/kg of diammonium hydrogen phosphate	Speed of sound, m/s	uncertainty
288.15	0.5	1517.7	2.3
288.15	1	1572	3
288.15	1.5	1629.6	4
298.15	0.5	1544.3	2.3
298.15	1	1597.9	2.9
298.15	1.5	1650.4	3.6
308.15	0.5	1564.8	2.3
308.15	1	1614.1	2.8
308.15	1.5	1664.4	3.6
318.15	0.5	1581.3	2.2
318.15	1	1628.3	2.8
318.15	1.5	1676.6	3.5
