Measured thermophysical data. Determination and Correlation of Solubility of Borneol, Camphor, and Isoborneol in Different Solvents
Source: J. Chem. Eng. Data, 2019, 10.1021/acs.jced.9b00045
Compound 1: endo-1,7,7-trimethylbicylco[2.2.1]heptan-2-ol, C10H18O, InChI=1S/C10H18O/c1-9(2)7-4-5-10(9,3)8(11)6-7/h7-8,11H,4-6H2,1-3H3, purity 99%
Compound 2: 1,7,7-trimethylbicyclo[2.2.1]-2-heptanone, C10H16O, InChI=1S/C10H16O/c1-9(2)7-4-5-10(9,3)8(11)6-7/h7H,4-6H2,1-3H3, purity 99%
Compound 3: exo-isoborneol, C10H18O, InChI=1S/C10H18O/c1-9(2)7-4-5-10(9,3)8(11)6-7/h7-8,11H,4-6H2,1-3H3/t7-,8-,10+/m1/s1, purity 99%
Compound 4: acetone, C3H6O, InChI=1S/C3H6O/c1-3(2)4/h1-2H3, purity 99.5%
Compound 5: ethanol, C2H6O, InChI=1S/C2H6O/c1-2-3/h3H,2H2,1H3, purity 99.7%
Compound 6: 1-(1-methylethyl)-4-methylbenzene, C10H14, InChI=1S/C10H14/c1-8(2)10-6-4-9(3)5-7-10/h4-8H,1-3H3, purity 99%
Compound 7: 1,4-dimethylbenzene, C8H10, InChI=1S/C8H10/c1-7-3-5-8(2)6-4-7/h3-6H,1-2H3, purity 99%

System: endo-1,7,7-trimethylbicylco[2.2.1]heptan-2-ol; phases: Crystal, Liquid, Air at 1 atmosphere
Property: Triple point temperature, K (Crystal); method: DSC
Triple point temperature, K	uncertainty
478.3	1.2

System: endo-1,7,7-trimethylbicylco[2.2.1]heptan-2-ol; phases: Crystal, Liquid, Air at 1 atmosphere
Property: Molar enthalpy of transition or fusion, kJ/mol (Crystal); method: DSC
Molar enthalpy of transition or fusion, kJ/mol	uncertainty
8.29	0.31

System: exo-isoborneol; phases: Crystal, Liquid, Air at 1 atmosphere
Property: Triple point temperature, K (Crystal); method: DSC
Triple point temperature, K	uncertainty
482.7	1.2

System: exo-isoborneol; phases: Crystal, Liquid, Air at 1 atmosphere
Property: Molar enthalpy of transition or fusion, kJ/mol (Crystal); method: DSC
Molar enthalpy of transition or fusion, kJ/mol	uncertainty
8.8	0.32

System: endo-1,7,7-trimethylbicylco[2.2.1]heptan-2-ol + acetone; phases: Liquid, Crystal
Fixed: Pressure, kPa = 101.3
Property: Mole fraction of endo-1,7,7-trimethylbicylco[2.2.1]heptan-2-ol (Liquid); method: Chromatography
Temperature, K	Mole fraction of endo-1,7,7-trimethylbicylco[2.2.1]heptan-2-ol	uncertainty
297.05	0.0672	0.01
303.15	0.0905	0.01
309.55	0.1196	0.01
313.75	0.1568	0.0101
318.75	0.2167	0.0101
322.75	0.2696	0.0102
327.15	0.3574	0.0102

System: endo-1,7,7-trimethylbicylco[2.2.1]heptan-2-ol + ethanol; phases: Liquid, Crystal
Fixed: Pressure, kPa = 101.3
Property: Mole fraction of endo-1,7,7-trimethylbicylco[2.2.1]heptan-2-ol (Liquid); method: Chromatography
Temperature, K	Mole fraction of endo-1,7,7-trimethylbicylco[2.2.1]heptan-2-ol	uncertainty
297.95	0.1121	0.01
302.25	0.1135	0.01
307.35	0.1161	0.01
313.15	0.1197	0.01
318.05	0.1246	0.01
323.55	0.133	0.01
327.25	0.1369	0.01
333.05	0.1447	0.01
336.35	0.1513	0.01
338.75	0.1591	0.01
343.55	0.1703	0.01
348.7	0.1858	0.01

System: endo-1,7,7-trimethylbicylco[2.2.1]heptan-2-ol + 1-(1-methylethyl)-4-methylbenzene; phases: Liquid, Crystal
Fixed: Pressure, kPa = 101.3
Property: Mole fraction of endo-1,7,7-trimethylbicylco[2.2.1]heptan-2-ol (Liquid); method: Chromatography
Temperature, K	Mole fraction of endo-1,7,7-trimethylbicylco[2.2.1]heptan-2-ol	uncertainty
296.65	0.1547	0.01
305.35	0.1822	0.01
309.15	0.1982	0.01
314.35	0.2225	0.01
319.55	0.2507	0.01
323.15	0.2652	0.01
328.75	0.2947	0.01
332.95	0.3226	0.01
338.95	0.3671	0.0101
343.75	0.394	0.0101
348.85	0.433	0.0101

System: endo-1,7,7-trimethylbicylco[2.2.1]heptan-2-ol + 1,4-dimethylbenzene; phases: Liquid, Crystal
Fixed: Pressure, kPa = 101.3
Property: Mole fraction of endo-1,7,7-trimethylbicylco[2.2.1]heptan-2-ol (Liquid); method: Chromatography
Temperature, K	Mole fraction of endo-1,7,7-trimethylbicylco[2.2.1]heptan-2-ol	uncertainty
298.15	0.1453	0.01
300.45	0.1515	0.01
304.35	0.1596	0.01
307.75	0.1719	0.01
313.25	0.1886	0.01
317.85	0.2085	0.01
320.95	0.2245	0.01
324.15	0.2404	0.01
327.65	0.2582	0.01
332.55	0.2931	0.01
334.15	0.308	0.0101
337.35	0.3407	0.0101
341.55	0.3752	0.0101
344.85	0.4091	0.0101
348.85	0.464	0.0101

System: 1,7,7-trimethylbicyclo[2.2.1]-2-heptanone + acetone; phases: Liquid, Crystal
Fixed: Pressure, kPa = 101.3
Property: Mole fraction of 1,7,7-trimethylbicyclo[2.2.1]-2-heptanone (Liquid); method: Chromatography
Temperature, K	Mole fraction of 1,7,7-trimethylbicyclo[2.2.1]-2-heptanone	uncertainty
303.15	0.5529	0.0101
308.15	0.5707	0.0101
313.55	0.594	0.0101
319.25	0.6138	0.0101
323.15	0.6266	0.0101

System: 1,7,7-trimethylbicyclo[2.2.1]-2-heptanone + ethanol; phases: Liquid, Crystal
Fixed: Pressure, kPa = 101.3
Property: Mole fraction of 1,7,7-trimethylbicyclo[2.2.1]-2-heptanone (Liquid); method: Chromatography
Temperature, K	Mole fraction of 1,7,7-trimethylbicyclo[2.2.1]-2-heptanone	uncertainty
303.15	0.3655	0.01
308.15	0.3958	0.01
313.15	0.4123	0.0101
318.15	0.4509	0.0101
322.95	0.5084	0.0101
327.95	0.5376	0.0101
333.35	0.5876	0.0101
338.15	0.6304	0.0102
343.15	0.6992	0.0102

System: 1,7,7-trimethylbicyclo[2.2.1]-2-heptanone + 1-(1-methylethyl)-4-methylbenzene; phases: Liquid, Crystal
Fixed: Pressure, kPa = 101.3
Property: Mole fraction of 1,7,7-trimethylbicyclo[2.2.1]-2-heptanone (Liquid); method: Chromatography
Temperature, K	Mole fraction of 1,7,7-trimethylbicyclo[2.2.1]-2-heptanone	uncertainty
303.85	0.5802	0.0101
308.05	0.5894	0.0101
313.15	0.6007	0.0101
317.95	0.6088	0.0101
323.65	0.6241	0.0101
328.15	0.6308	0.0101
333.35	0.641	0.0101
337.95	0.6518	0.0101
343.05	0.6642	0.0101

System: 1,7,7-trimethylbicyclo[2.2.1]-2-heptanone + 1,4-dimethylbenzene; phases: Liquid, Crystal
Fixed: Pressure, kPa = 101.3
Property: Mole fraction of 1,7,7-trimethylbicyclo[2.2.1]-2-heptanone (Liquid); method: Chromatography
Temperature, K	Mole fraction of 1,7,7-trimethylbicyclo[2.2.1]-2-heptanone	uncertainty
303.05	0.6003	0.0101
308.15	0.6369	0.0101
313.15	0.66	0.0101
318.15	0.6833	0.0101
323.25	0.7139	0.0101
327.85	0.7359	0.0102
328.15	0.7387	0.0102
333.15	0.7702	0.0101
338.35	0.7948	0.0102
343.15	0.824	0.0102

System: exo-isoborneol + acetone; phases: Liquid, Crystal
Fixed: Pressure, kPa = 101.3
Property: Mole fraction of exo-isoborneol (Liquid); method: Chromatography
Temperature, K	Mole fraction of exo-isoborneol	uncertainty
296.95	0.3369	0.01
298.85	0.3428	0.01
303.35	0.3684	0.01
305.65	0.3798	0.0101
307.65	0.3975	0.0101
312.45	0.4242	0.0101
317.25	0.4532	0.0101
321.25	0.4773	0.0101

System: exo-isoborneol + ethanol; phases: Liquid, Crystal
Fixed: Pressure, kPa = 101.3
Property: Mole fraction of exo-isoborneol (Liquid); method: Chromatography
Temperature, K	Mole fraction of exo-isoborneol	uncertainty
298.35	0.3631	0.01
303.15	0.3687	0.01
307.65	0.3844	0.01
310.75	0.3859	0.01
313.05	0.3943	0.01
316.35	0.4001	0.01
318.35	0.4062	0.01
320.15	0.4194	0.01
323.95	0.4231	0.01
327.75	0.442	0.01
328.05	0.4427	0.01
333.05	0.4561	0.0101
338.3	0.4876	0.0101
343.15	0.4988	0.0101
348.05	0.5138	0.0101

System: exo-isoborneol + 1-(1-methylethyl)-4-methylbenzene; phases: Liquid, Crystal
Fixed: Pressure, kPa = 101.3
Property: Mole fraction of exo-isoborneol (Liquid); method: Chromatography
Temperature, K	Mole fraction of exo-isoborneol	uncertainty
303.55	0.317	0.01
308.25	0.3281	0.01
313.15	0.3407	0.01
318.45	0.3581	0.01
322.85	0.3773	0.01
328.45	0.397	0.01
334.25	0.4154	0.01
337.05	0.4202	0.01
342.75	0.4402	0.01

System: exo-isoborneol + 1,4-dimethylbenzene; phases: Liquid, Crystal
Fixed: Pressure, kPa = 101.3
Property: Mole fraction of exo-isoborneol (Liquid); method: Chromatography
Temperature, K	Mole fraction of exo-isoborneol	uncertainty
303.55	0.3094	0.01
308.25	0.3288	0.01
313.15	0.3446	0.01
318.45	0.3575	0.01
323.55	0.38	0.01
329.05	0.4141	0.0101
335.35	0.4401	0.0101
339.5	0.4616	0.0101
345.05	0.4968	0.0101
