Measured thermophysical data. Vapor-Liquid Equilibrium for Binary Mixtures of 3-Cyano-1-butene + RS-4-Vinyl-1-cyclohexene, 3-Cyano-1-butene + ZE-1-Cyano-2-butene and RS-4-Vinyl-1-cyclohexene + ZE-1-Cyano-2-butene
Source: J. Chem. Eng. Data, 2018, 10.1021/acs.jced.8b00158
Compound 1: 2-methyl-3-butenenitrile, C5H7N, InChI=1S/C5H7N/c1-3-5(2)4-6/h3,5H,1H2,2H3, purity 91.6%
Compound 2: 4-ethenylcyclohexene, C8H12, InChI=1S/C8H12/c1-2-8-6-4-3-5-7-8/h2-4,8H,1,5-7H2, purity 95.9%
Compound 3: 3-pentenenitrile, C5H7N, InChI=1S/C5H7N/c1-2-3-4-5-6/h2-3H,4H2,1H3, purity 94%

System: 2-methyl-3-butenenitrile + 4-ethenylcyclohexene; phases: Liquid, Gas
Fixed: Pressure, kPa = 100
Property: Boiling temperature at pressure P, K (Liquid); method: Ebulliometric method (Recirculating still)
Mole fraction of 2-methyl-3-butenenitrile	Boiling temperature at pressure P, K	uncertainty
0.134	396	0.51
0.195	394.65	0.48
0.292	392.85	0.42
0.37	392.05	0.37
0.453	391.25	0.35
0.51	390.95	0.32
0.676	391	0.32
0.788	391.45	0.38
0.919	393.55	0.43

System: 2-methyl-3-butenenitrile + 4-ethenylcyclohexene; phases: Gas, Liquid
Fixed: Pressure, kPa = 100
Property: Mole fraction of 2-methyl-3-butenenitrile (Gas); method: Chromatography
Mole fraction of 2-methyl-3-butenenitrile	Mole fraction of 2-methyl-3-butenenitrile	uncertainty
0.134	0.275	0.027
0.195	0.344	0.026
0.292	0.433	0.023
0.37	0.47	0.02
0.453	0.501	0.02
0.51	0.534	0.021
0.676	0.616	0.021
0.788	0.702	0.026
0.919	0.859	0.028

System: 2-methyl-3-butenenitrile + 3-pentenenitrile; phases: Liquid, Gas
Fixed: Pressure, kPa = 100
Property: Boiling temperature at pressure P, K (Liquid); method: Ebulliometric method (Recirculating still)
Mole fraction of 2-methyl-3-butenenitrile	Boiling temperature at pressure P, K	uncertainty
0.084	415	0.65
0.172	412.29	0.59
0.324	408.43	0.55
0.406	406.62	0.5
0.546	403.73	0.49
0.556	403.55	0.49
0.665	401.46	0.47
0.823	398.59	0.46
0.876	397.7	0.44

System: 2-methyl-3-butenenitrile + 3-pentenenitrile; phases: Gas, Liquid
Fixed: Pressure, kPa = 100
Property: Mole fraction of 2-methyl-3-butenenitrile (Gas); method: Chromatography
Mole fraction of 2-methyl-3-butenenitrile	Mole fraction of 2-methyl-3-butenenitrile	uncertainty
0.084	0.164	0.033
0.172	0.299	0.03
0.324	0.48	0.028
0.406	0.56	0.025
0.546	0.683	0.024
0.556	0.691	0.024
0.665	0.777	0.023
0.823	0.889	0.022
0.876	0.924	0.022

System: 4-ethenylcyclohexene + 3-pentenenitrile; phases: Liquid, Gas
Property: Vapor or sublimation pressure, kPa (Liquid); method: Ebulliometric method (Recirculating still)
Mole fraction of 4-ethenylcyclohexene	Temperature, K	Vapor or sublimation pressure, kPa	uncertainty
0.1	373.15	35.7	1
0.168	373.15	40.2	1
0.29	373.15	45.6	1
0.361	373.15	47.1	1
0.494	373.15	49.7	1.1
0.602	373.15	50.2	1.1
0.731	373.15	50.4	1.1
0.743	373.15	50.4	1.1
0.856	373.15	49	1
0.11	383.15	46.1	1
0.173	383.15	51.8	1.3
0.271	383.15	58.5	1.4
0.361	383.15	61.3	1.3
0.49	383.15	64.8	1.4
0.569	383.15	65.8	1.4
0.733	383.15	67	1.4
0.787	383.15	66.8	1.4
0.852	383.15	65.9	1.4
0.124	403.15	85	2
0.179	403.15	90.3	2.1
0.272	403.15	97	2.1
0.403	403.15	103.6	2.2
0.469	403.15	106.5	2.2
0.628	403.15	111.3	2.3
0.725	403.15	113	2.3
0.737	403.15	113.1	2.3
0.86	403.15	111.5	2.3

System: 4-ethenylcyclohexene + 3-pentenenitrile; phases: Gas, Liquid
Property: Mole fraction of 4-ethenylcyclohexene (Gas); method: Chromatography
Mole fraction of 4-ethenylcyclohexene	Temperature, K	Mole fraction of 4-ethenylcyclohexene	uncertainty
0.1	373.15	0.323	0.036
0.168	373.15	0.441	0.029
0.29	373.15	0.564	0.025
0.361	373.15	0.612	0.02
0.494	373.15	0.661	0.02
0.602	373.15	0.697	0.02
0.731	373.15	0.75	0.02
0.743	373.15	0.755	0.02
0.856	373.15	0.804	0.02
0.11	383.15	0.306	0.031
0.173	383.15	0.405	0.028
0.271	383.15	0.505	0.026
0.361	383.15	0.576	0.021
0.49	383.15	0.621	0.02
0.569	383.15	0.656	0.02
0.733	383.15	0.726	0.02
0.787	383.15	0.758	0.021
0.852	383.15	0.801	0.022
0.124	403.15	0.321	0.032
0.179	403.15	0.401	0.029
0.272	403.15	0.503	0.024
0.403	403.15	0.593	0.022
0.469	403.15	0.631	0.02
0.628	403.15	0.69	0.02
0.725	403.15	0.732	0.021
0.737	403.15	0.739	0.021
0.86	403.15	0.821	0.022
