Measured thermophysical data. Measurement and Correlation of the Dissolution Equilibria of o-Iodoaniline and p-Iodoaniline in Pure Solvents
Source: J. Chem. Eng. Data, 2018, 10.1021/acs.jced.7b00840
Compound 1: 2-iodoaniline, C6H6IN, InChI=1S/C6H6IN/c7-5-3-1-2-4-6(5)8/h1-4H,8H2, purity 99.8%
Compound 2: 4-iodoaniline, C6H6IN, InChI=1S/C6H6IN/c7-5-1-3-6(8)4-2-5/h1-4H,8H2, purity 99.8%
Compound 3: 1,2-ethanediol, C2H6O2, InChI=1S/C2H6O2/c3-1-2-4/h3-4H,1-2H2, purity 99%
Compound 4: methanol, CH4O, InChI=1S/CH4O/c1-2/h2H,1H3, purity 99.5%
Compound 5: ethyl acetate, C4H8O2, InChI=1S/C4H8O2/c1-3-6-4(2)5/h3H2,1-2H3, purity 99.5%
Compound 6: hexane, C6H14, InChI=1S/C6H14/c1-3-5-6-4-2/h3-6H2,1-2H3, purity 97%
Compound 7: cyclohexane, C6H12, InChI=1S/C6H12/c1-2-4-6-5-3-1/h1-6H2, purity 99.5%
Compound 8: dichloromethane, CH2Cl2, InChI=1S/CH2Cl2/c2-1-3/h1H2, purity 99.5%
Compound 9: trichloromethane, CHCl3, InChI=1S/CHCl3/c2-1(3)4/h1H, purity 99.5%
Compound 10: tetrachloromethane, CCl4, InChI=1S/CCl4/c2-1(3,4)5, purity 99.5%
Compound 11: ethanol, C2H6O, InChI=1S/C2H6O/c1-2-3/h3H,2H2,1H3, purity 99.7%
Compound 12: propan-2-ol, C3H8O, InChI=1S/C3H8O/c1-3(2)4/h3-4H,1-2H3, purity 99.7%
Compound 13: benzene, C6H6, InChI=1S/C6H6/c1-2-4-6-5-3-1/h1-6H, purity 99.5%
Compound 14: water, H2O, InChI=1S/H2O/h1H2, purity 99.8%
Compound 15: potassium chloride, ClK, InChI=1S/ClH.K/h1H;/q;+1/p-1, purity 99.5%

System: 2-iodoaniline; phases: Crystal, Liquid, Air at 1 atmosphere
Property: Triple point temperature, K (Crystal); method: VISOBS
Triple point temperature, K	uncertainty
325.7	1.16

System: 4-iodoaniline; phases: Crystal, Liquid, Air at 1 atmosphere
Property: Triple point temperature, K (Crystal); method: VISOBS
Triple point temperature, K	uncertainty
332.35	0.87

System: 4-iodoaniline + water; phases: Liquid, Crystal
Fixed: Pressure, kPa = 100
Property: Mole fraction of 4-iodoaniline (Liquid); method: Titration method
Temperature, K	Mole fraction of 4-iodoaniline	uncertainty
283.95	9.32e-05	3.73e-05
287.35	0.000105	4.2e-05
290.25	0.000121	4.8e-05
295.45	0.000145	5.8e-05
298.45	0.000163	6.5e-05
304.75	0.000204	8.2e-05
309.05	0.000243	9.7e-05
314.05	0.000281	0.000112
323.05	0.000316	0.000126

System: 4-iodoaniline + dichloromethane; phases: Liquid, Crystal
Fixed: Pressure, kPa = 100
Property: Mole fraction of 4-iodoaniline (Liquid); method: Titration method
Temperature, K	Mole fraction of 4-iodoaniline	uncertainty
282.45	0.209	0.084
285.75	0.236	0.094
289.75	0.271	0.108
293.75	0.308	0.123
298.55	0.356	0.142
305.55	0.422	0.169
312.35	0.549	0.18

System: 4-iodoaniline + trichloromethane; phases: Liquid, Crystal
Fixed: Pressure, kPa = 100
Property: Mole fraction of 4-iodoaniline (Liquid); method: Titration method
Temperature, K	Mole fraction of 4-iodoaniline	uncertainty
319.95	0.668	0.133
317.75	0.626	0.15
313.25	0.557	0.177
307.45	0.461	0.184
302.85	0.393	0.157
299.35	0.352	0.141
295.55	0.304	0.122
288.15	0.232	0.093
285.05	0.208	0.083
283.75	0.198	0.079

System: 4-iodoaniline + methanol; phases: Liquid, Crystal
Fixed: Pressure, kPa = 100
Property: Mole fraction of 4-iodoaniline (Liquid); method: Titration method
Temperature, K	Mole fraction of 4-iodoaniline	uncertainty
277.65	0.0917	0.0367
282.55	0.109	0.044
287.7	0.128	0.051
292.05	0.157	0.063
297.95	0.194	0.078
303.35	0.265	0.106
305.15	0.29	0.116
311.55	0.398	0.159
319.25	0.484	0.194

System: 4-iodoaniline + 1,2-ethanediol; phases: Liquid, Crystal
Fixed: Pressure, kPa = 100
Property: Mole fraction of 4-iodoaniline (Liquid); method: Titration method
Temperature, K	Mole fraction of 4-iodoaniline	uncertainty
280.25	0.0631	0.0252
284.75	0.0689	0.0276
288.85	0.0761	0.0304
293.75	0.0861	0.0344
298.55	0.0991	0.0396
303.55	0.117	0.047
308.95	0.142	0.057
313.75	0.182	0.073
318.55	0.241	0.096
323.15	0.357	0.143

System: 4-iodoaniline + ethyl acetate; phases: Liquid, Crystal
Fixed: Pressure, kPa = 100
Property: Mole fraction of 4-iodoaniline (Liquid); method: Titration method
Temperature, K	Mole fraction of 4-iodoaniline	uncertainty
275.85	0.328	0.131
283.65	0.368	0.147
289.05	0.399	0.16
293.55	0.435	0.174
296.55	0.467	0.187
300.45	0.49	0.196
305.35	0.537	0.185
310.45	0.593	0.163
313.55	0.635	0.146
316.15	0.667	0.133

System: 4-iodoaniline + hexane; phases: Liquid, Crystal
Fixed: Pressure, kPa = 100
Property: Mole fraction of 4-iodoaniline (Liquid); method: Titration method
Temperature, K	Mole fraction of 4-iodoaniline	uncertainty
281.65	0.0038	0.00152
283.65	0.00421	0.00168
288.35	0.00501	0.002
294.5	0.00707	0.00283
298.55	0.008	0.0032
303	0.0105	0.0042
308.25	0.0132	0.0053
313.05	0.0177	0.0071
315.85	0.0211	0.0084
320.35	0.0251	0.01

System: 4-iodoaniline + tetrachloromethane; phases: Liquid, Crystal
Fixed: Pressure, kPa = 100
Property: Mole fraction of 4-iodoaniline (Liquid); method: Titration method
Temperature, K	Mole fraction of 4-iodoaniline	uncertainty
303.55	0.101	0.04
308.15	0.152	0.061
311.65	0.211	0.085
315.75	0.399	0.16
318.85	0.485	0.194
322.65	0.629	0.149

System: 4-iodoaniline + ethanol; phases: Liquid, Crystal
Fixed: Pressure, kPa = 100
Property: Mole fraction of 4-iodoaniline (Liquid); method: Titration method
Temperature, K	Mole fraction of 4-iodoaniline	uncertainty
320.35	0.641	0.144
313.15	0.437	0.175
309.05	0.308	0.123
304.35	0.229	0.092
298.55	0.173	0.069
293.35	0.139	0.056
287.65	0.109	0.044

System: 4-iodoaniline + propan-2-ol; phases: Liquid, Crystal
Fixed: Pressure, kPa = 100
Property: Mole fraction of 4-iodoaniline (Liquid); method: Titration method
Temperature, K	Mole fraction of 4-iodoaniline	uncertainty
318.05	0.536	0.186
313.25	0.366	0.147
308.55	0.239	0.096
303.85	0.169	0.068
300.05	0.131	0.052
295.05	0.103	0.041
291.45	0.0881	0.0353

System: 4-iodoaniline + benzene; phases: Liquid, Crystal
Fixed: Pressure, kPa = 100
Property: Mole fraction of 4-iodoaniline (Liquid); method: Titration method
Temperature, K	Mole fraction of 4-iodoaniline	uncertainty
320.65	0.73	0.108
313.25	0.575	0.17
307.95	0.458	0.183
302.65	0.365	0.146
297.95	0.304	0.122
292.15	0.237	0.095
288.15	0.188	0.075

System: 4-iodoaniline + cyclohexane; phases: Liquid, Crystal
Fixed: Pressure, kPa = 100
Property: Mole fraction of 4-iodoaniline (Liquid); method: Titration method
Temperature, K	Mole fraction of 4-iodoaniline	uncertainty
283.85	0.00681	0.00272
288.75	0.00819	0.00328
293.15	0.00952	0.00381
298.45	0.0128	0.0051
304.15	0.0171	0.0068
309.65	0.0237	0.0095
314.05	0.033	0.0132
318.85	0.0467	0.0187
323.35	0.066	0.0264

System: 2-iodoaniline + water; phases: Liquid, Crystal
Fixed: Pressure, kPa = 100
Property: Mole fraction of 2-iodoaniline (Liquid); method: Titration method
Temperature, K	Mole fraction of 2-iodoaniline	uncertainty
308.15	0.000146	5.8e-05
302.35	0.000135	5.4e-05
299.35	0.000126	5e-05
296.55	0.000115	4.6e-05
293.05	0.000103	4.1e-05
290.65	9.21e-05	3.68e-05
287.05	8.15e-05	3.26e-05
284.55	7.37e-05	2.95e-05
279.35	6.22e-05	2.49e-05

System: 2-iodoaniline + methanol; phases: Liquid, Crystal
Fixed: Pressure, kPa = 100
Property: Mole fraction of 2-iodoaniline (Liquid); method: Titration method
Temperature, K	Mole fraction of 2-iodoaniline	uncertainty
313.05	0.451	0.18
310.15	0.399	0.16
306.25	0.247	0.099
299.35	0.147	0.059
296.25	0.125	0.05
290.75	0.096	0.0384
285.25	0.077	0.0308
281.15	0.0647	0.0259

System: 2-iodoaniline + 1,2-ethanediol; phases: Liquid, Crystal
Fixed: Pressure, kPa = 100
Property: Mole fraction of 2-iodoaniline (Liquid); method: Titration method
Temperature, K	Mole fraction of 2-iodoaniline	uncertainty
311.35	0.0872	0.0349
307.95	0.0751	0.03
303.15	0.0585	0.0234
299.25	0.0509	0.0204
293.15	0.0413	0.0165
289.55	0.0364	0.0146
285.45	0.0324	0.013
280.55	0.0277	0.0111

System: 2-iodoaniline + ethyl acetate; phases: Liquid, Crystal
Fixed: Pressure, kPa = 100
Property: Mole fraction of 2-iodoaniline (Liquid); method: Titration method
Temperature, K	Mole fraction of 2-iodoaniline	uncertainty
277.05	0.295	0.118
281.65	0.325	0.13
291.05	0.408	0.163
293.45	0.435	0.174
297.55	0.472	0.189
300.65	0.512	0.195
306.05	0.576	0.17
310.35	0.628	0.149
311.25	0.651	0.14
312.45	0.673	0.131

System: 2-iodoaniline + hexane; phases: Liquid, Crystal
Fixed: Pressure, kPa = 100
Property: Mole fraction of 2-iodoaniline (Liquid); method: Titration method
Temperature, K	Mole fraction of 2-iodoaniline	uncertainty
312.55	0.0649	0.026
308.15	0.0494	0.0198
304.55	0.0399	0.016
301.05	0.0335	0.0134
296.35	0.0253	0.0101
290.95	0.0194	0.0078
287.15	0.0157	0.0063
283.15	0.0128	0.0051

System: 2-iodoaniline + cyclohexane; phases: Liquid, Crystal
Fixed: Pressure, kPa = 100
Property: Mole fraction of 2-iodoaniline (Liquid); method: Titration method
Temperature, K	Mole fraction of 2-iodoaniline	uncertainty
312.65	0.163	0.065
311.65	0.144	0.058
306.85	0.0921	0.0369
304.35	0.0706	0.0283
299.45	0.05	0.02
295.75	0.0398	0.0159
293.05	0.0338	0.0135
286.45	0.0235	0.0094
278.75	0.0151	0.006

System: 2-iodoaniline + dichloromethane; phases: Liquid, Crystal
Fixed: Pressure, kPa = 100
Property: Mole fraction of 2-iodoaniline (Liquid); method: Titration method
Temperature, K	Mole fraction of 2-iodoaniline	uncertainty
313.25	0.659	0.136
307.15	0.562	0.175
303.65	0.498	0.199
299.65	0.441	0.176
295.65	0.396	0.158
288.95	0.318	0.127
284.55	0.273	0.109
280.85	0.255	0.102

System: 2-iodoaniline + trichloromethane; phases: Liquid, Crystal
Fixed: Pressure, kPa = 100
Property: Mole fraction of 2-iodoaniline (Liquid); method: Titration method
Temperature, K	Mole fraction of 2-iodoaniline	uncertainty
313.55	0.691	0.124
310.35	0.626	0.15
305.35	0.528	0.189
298.35	0.427	0.171
293.75	0.358	0.143
289.35	0.309	0.124
285.35	0.271	0.108
282.85	0.247	0.099

System: 2-iodoaniline + tetrachloromethane; phases: Liquid, Crystal
Fixed: Pressure, kPa = 100
Property: Mole fraction of 2-iodoaniline (Liquid); method: Titration method
Temperature, K	Mole fraction of 2-iodoaniline	uncertainty
315.65	0.661	0.136
309.65	0.455	0.182
305.65	0.347	0.139
302.25	0.268	0.107
299.15	0.21	0.084
296.25	0.173	0.069
286.45	0.0946	0.0379
281.95	0.0695	0.0278

System: 2-iodoaniline + ethanol; phases: Liquid, Crystal
Fixed: Pressure, kPa = 100
Property: Mole fraction of 2-iodoaniline (Liquid); method: Titration method
Temperature, K	Mole fraction of 2-iodoaniline	uncertainty
315.05	0.548	0.181
311.25	0.378	0.151
307.15	0.257	0.103
303.75	0.2	0.08
300.55	0.163	0.065
296.05	0.13	0.052
289.75	0.097	0.0388
284.15	0.0755	0.0302

System: 2-iodoaniline + propan-2-ol; phases: Liquid, Crystal
Fixed: Pressure, kPa = 100
Property: Mole fraction of 2-iodoaniline (Liquid); method: Titration method
Temperature, K	Mole fraction of 2-iodoaniline	uncertainty
316.45	0.615	0.154
312.45	0.375	0.15
308.45	0.223	0.089
302.95	0.141	0.056
298.85	0.111	0.044
292.95	0.0805	0.0322
289.25	0.0652	0.0261
284.05	0.0524	0.021

System: 2-iodoaniline + benzene; phases: Liquid, Crystal
Fixed: Pressure, kPa = 100
Property: Mole fraction of 2-iodoaniline (Liquid); method: Titration method
Temperature, K	Mole fraction of 2-iodoaniline	uncertainty
318.35	0.767	0.093
311.35	0.622	0.151
305.75	0.499	0.2
300.35	0.407	0.163
294.05	0.311	0.124
289.45	0.251	0.1
285.05	0.211	0.084
318.35	0.767	0.093

System: potassium chloride + water; phases: Liquid, Crystal
Fixed: Pressure, kPa = 100
Property: Mole fraction of potassium chloride (Liquid); method: Titration method
Temperature, K	Mole fraction of potassium chloride	uncertainty
278.15	0.0667	0.008
288.35	0.0736	0.0088
292.95	0.0775	0.0093
303.15	0.0836	0.01
313.15	0.0904	0.0109
323.15	0.0946	0.0114
