Measured thermophysical data. Separation of Protocatechuic Acid Using Di-(2-ethylhexyl)phosphoric Acid in Isobutyl Acetate, Toluene, and Petroleum Ether
Source: J. Chem. Eng. Data, 2018, 10.1021/acs.jced.7b00797
Compound 1: 3,4-dihydroxybenzoic acid, C7H6O4, InChI=1S/C7H6O4/c8-5-2-1-4(7(10)11)3-6(5)9/h1-3,8-9H,(H,10,11), purity 98%
Compound 2: 2-methylpropyl ethanoate, C6H12O2, InChI=1S/C6H12O2/c1-5(2)4-8-6(3)7/h5H,4H2,1-3H3, purity 98%
Compound 3: toluene, C7H8, InChI=1S/C7H8/c1-7-5-3-2-4-6-7/h2-6H,1H3, purity 99.5%
Compound 4: water, H2O, InChI=1S/H2O/h1H2, purity 99.8%

System: 3,4-dihydroxybenzoic acid + 2-methylpropyl ethanoate + water; phases: Liquid mixture 1, Liquid mixture 2
Fixed: Temperature, K = 298
Fixed: Pressure, kPa = 101.325
Property: Molality, mol/kg of 3,4-dihydroxybenzoic acid (Liquid mixture 1); method: UV spectroscopy
Molality, mol/kg of 3,4-dihydroxybenzoic acid	Molality, mol/kg of 3,4-dihydroxybenzoic acid	uncertainty
0.0005	0.0005	0.0005
0.0013	0.0017	0.0017
0.002	0.003	0.002
0.0027	0.0043	0.002
0.0035	0.0065	0.002

System: 3,4-dihydroxybenzoic acid + toluene + water; phases: Liquid mixture 1, Liquid mixture 2
Fixed: Temperature, K = 298
Fixed: Pressure, kPa = 101.325
Property: Molality, mol/kg of 3,4-dihydroxybenzoic acid (Liquid mixture 1); method: UV spectroscopy
Molality, mol/kg of 3,4-dihydroxybenzoic acid	Molality, mol/kg of 3,4-dihydroxybenzoic acid	uncertainty
0.0009	8e-05	8e-05
0.0027	0.0003	0.0003
0.0044	0.0006	0.0006
0.006	0.001	0.001
0.0084	0.002	0.002
