Measured thermophysical data. Solid Liquid Equilibria in the Quaternary System K+//H2PO42 , SO42 ,Cl H2O at 298.2 K and 323.2 K
Source: J. Chem. Eng. Data, 2016, 10.1021/acs.jced.5b00579
Compound 1: monopotassium phosphate, H2KO4P, InChI=1S/K.H3O4P/c;1-5(2,3)4/h;(H3,1,2,3,4)/q+1;/p-1, purity 99.5%
Compound 2: potassium sulfate, K2O4S, InChI=1S/2K.H2O4S/c;;1-5(2,3)4/h;;(H2,1,2,3,4)/q2*+1;/p-2, purity 99%
Compound 3: potassium chloride, ClK, InChI=1S/ClH.K/h1H;/q;+1/p-1, purity 99.8%
Compound 4: water, H2O, InChI=1S/H2O/h1H2, purity 99.8%

System: water + monopotassium phosphate + potassium sulfate; phases: Liquid, Crystal
Fixed: Pressure, kPa = 100
Property: Mass fraction of potassium sulfate (Liquid); method: gravimetric and titration
Temperature, K	Mass fraction of monopotassium phosphate	Mass fraction of potassium sulfate	uncertainty
298.2	0.1716	0.0601	0.0024
323.2	0.2353	0.0808	0.0032

System: water + monopotassium phosphate + potassium sulfate; phases: Liquid, Crystal
Fixed: Pressure, kPa = 100
Property: Mass fraction of potassium sulfate (Liquid); method: gravimetric and titration
Temperature, K	Mass fraction of monopotassium phosphate	Mass fraction of potassium sulfate	uncertainty
298.2	0.1716	0.0601	0.0024
323.2	0.2353	0.0808	0.0032

System: potassium chloride + water + monopotassium phosphate; phases: Liquid, Crystal
Fixed: Pressure, kPa = 100
Property: Mass fraction of potassium chloride (Liquid); method: gravimetric and titration
Temperature, K	Mass fraction of monopotassium phosphate	Mass fraction of potassium chloride	uncertainty
298.2	0.0355	0.2497	0.0021
323.2	0.0498	0.2723	0.0023

System: potassium chloride + water + monopotassium phosphate; phases: Liquid, Crystal
Fixed: Pressure, kPa = 100
Property: Mass fraction of potassium chloride (Liquid); method: gravimetric and titration
Temperature, K	Mass fraction of monopotassium phosphate	Mass fraction of potassium chloride	uncertainty
298.2	0.0355	0.2497	0.0021
323.2	0.0498	0.2723	0.0023

System: potassium chloride + water + potassium sulfate; phases: Liquid, Crystal
Fixed: Pressure, kPa = 100
Property: Mass fraction of potassium chloride (Liquid); method: gravimetric and titration
Temperature, K	Mass fraction of potassium sulfate	Mass fraction of potassium chloride	uncertainty
298.2	0.011	0.2605	0.0022
323.2	0.0124	0.2904	0.0024

System: potassium chloride + water + potassium sulfate; phases: Liquid, Crystal
Fixed: Pressure, kPa = 100
Property: Mass fraction of potassium chloride (Liquid); method: gravimetric and titration
Temperature, K	Mass fraction of potassium sulfate	Mass fraction of potassium chloride	uncertainty
298.2	0.011	0.2605	0.0022
323.2	0.0124	0.2904	0.0024
