Measured thermophysical data. Measurement and Correlation of Solubility of Two Isomers of Cyanopyridine in Eight Pure Solvents from 268.15 K to 318.15 K
Source: J. Chem. Eng. Data, 2017, 10.1021/acs.jced.7b00301
Compound 1: ethanol, C2H6O, InChI=1S/C2H6O/c1-2-3/h3H,2H2,1H3, purity 99.5%
Compound 2: methanol, CH4O, InChI=1S/CH4O/c1-2/h2H,1H3, purity 99.5%
Compound 3: butan-1-ol, C4H10O, InChI=1S/C4H10O/c1-2-3-4-5/h5H,2-4H2,1H3, purity 99.5%
Compound 4: 2-methyl-1-propanol, C4H10O, InChI=1S/C4H10O/c1-4(2)3-5/h4-5H,3H2,1-2H3, purity 99.5%
Compound 5: ethyl acetate, C4H8O2, InChI=1S/C4H8O2/c1-3-6-4(2)5/h3H2,1-2H3, purity 99.5%
Compound 6: acetone, C3H6O, InChI=1S/C3H6O/c1-3(2)4/h1-2H3, purity 99.5%
Compound 7: tetrachloromethane, CCl4, InChI=1S/CCl4/c2-1(3,4)5, purity 99.5%
Compound 8: propan-1-ol, C3H8O, InChI=1S/C3H8O/c1-2-3-4/h4H,2-3H2,1H3, purity 99.5%
Compound 9: 3-cyanopyridine, C6H4N2, InChI=1S/C6H4N2/c7-4-6-2-1-3-8-5-6/h1-3,5H, purity 99%
Compound 10: 4-cyanopyridine, C6H4N2, InChI=1S/C6H4N2/c7-5-6-1-3-8-4-2-6/h1-4H, purity 98%

System: 3-cyanopyridine; phases: Crystal, Liquid, Air at 1 atmosphere
Property: Normal melting temperature, K (Crystal); method: DTA
Normal melting temperature, K	uncertainty
325.05	0.41

System: 3-cyanopyridine; phases: Crystal, Liquid, Air at 1 atmosphere
Property: Molar enthalpy of transition or fusion, kJ/mol (Crystal); method: DSC
Molar enthalpy of transition or fusion, kJ/mol	uncertainty
16.73	1.71

System: 4-cyanopyridine; phases: Crystal, Liquid, Air at 1 atmosphere
Property: Normal melting temperature, K (Crystal); method: DTA
Normal melting temperature, K	uncertainty
353.55	0.5

System: 4-cyanopyridine; phases: Crystal, Liquid, Air at 1 atmosphere
Property: Molar enthalpy of transition or fusion, kJ/mol (Crystal); method: DSC
Molar enthalpy of transition or fusion, kJ/mol	uncertainty
18.09	0.56

System: 3-cyanopyridine + ethanol; phases: Liquid, Crystal
Fixed: Pressure, kPa = 100
Property: Mole fraction of 3-cyanopyridine (Liquid); method: gravimetric
Temperature, K	Mole fraction of 3-cyanopyridine	uncertainty
268.15	0.0429	0.0112
273.15	0.0593	0.0154
278.15	0.0903	0.0235
288.15	0.201	0.052
298.15	0.339	0.088
308.15	0.491	0.128
318.15	0.627	0.097

System: 3-cyanopyridine + methanol; phases: Liquid, Crystal
Fixed: Pressure, kPa = 100
Property: Mole fraction of 3-cyanopyridine (Liquid); method: gravimetric
Temperature, K	Mole fraction of 3-cyanopyridine	uncertainty
268.15	0.0877	0.0123
273.15	0.111	0.016
278.15	0.153	0.021
288.15	0.267	0.037
298.15	0.404	0.057
308.15	0.541	0.064
318.15	0.726	0.038

System: 3-cyanopyridine + butan-1-ol; phases: Liquid, Crystal
Fixed: Pressure, kPa = 100
Property: Mole fraction of 3-cyanopyridine (Liquid); method: gravimetric
Temperature, K	Mole fraction of 3-cyanopyridine	uncertainty
268.15	0.025	0.008
273.15	0.0393	0.0126
278.15	0.0645	0.0206
288.15	0.164	0.052
298.15	0.275	0.088
308.15	0.427	0.137
318.15	0.577	0.135

System: 3-cyanopyridine + 2-methyl-1-propanol; phases: Liquid, Crystal
Fixed: Pressure, kPa = 100
Property: Mole fraction of 3-cyanopyridine (Liquid); method: gravimetric
Temperature, K	Mole fraction of 3-cyanopyridine	uncertainty
268.15	0.028	0.009
273.15	0.0396	0.0127
278.15	0.0702	0.0225
288.15	0.17	0.054
298.15	0.3	0.096
308.15	0.435	0.139
318.15	0.6	0.128

System: 3-cyanopyridine + ethyl acetate; phases: Liquid, Crystal
Fixed: Pressure, kPa = 100
Property: Mole fraction of 3-cyanopyridine (Liquid); method: gravimetric
Temperature, K	Mole fraction of 3-cyanopyridine	uncertainty
268.15	0.209	0.008
273.15	0.247	0.01
278.15	0.282	0.011
288.15	0.375	0.015
298.15	0.478	0.019
308.15	0.63	0.015
318.15	0.803	0.008

System: 3-cyanopyridine + acetone; phases: Liquid, Crystal
Fixed: Pressure, kPa = 100
Property: Mole fraction of 3-cyanopyridine (Liquid); method: gravimetric
Temperature, K	Mole fraction of 3-cyanopyridine	uncertainty
268.15	0.247	0.01
273.15	0.29	0.012
278.15	0.329	0.013
288.15	0.438	0.018
298.15	0.541	0.018
308.15	0.664	0.014
318.15	0.833	0.007

System: 3-cyanopyridine + tetrachloromethane; phases: Liquid, Crystal
Fixed: Pressure, kPa = 100
Property: Mole fraction of 3-cyanopyridine (Liquid); method: gravimetric
Temperature, K	Mole fraction of 3-cyanopyridine	uncertainty
268.15	0.0098	0.0043
273.15	0.0152	0.0067
278.15	0.024	0.0106
288.15	0.095	0.0418
298.15	0.239	0.105
308.15	0.393	0.173
318.15	0.568	0.19

System: 3-cyanopyridine + propan-1-ol; phases: Liquid, Crystal
Fixed: Pressure, kPa = 100
Property: Mole fraction of 3-cyanopyridine (Liquid); method: gravimetric
Temperature, K	Mole fraction of 3-cyanopyridine	uncertainty
268.15	0.0434	0.0113
273.15	0.0658	0.0171
278.15	0.0976	0.0254
288.15	0.214	0.056
298.15	0.348	0.09
308.15	0.5	0.13
318.15	0.643	0.093

System: 4-cyanopyridine + ethanol; phases: Liquid, Crystal
Fixed: Pressure, kPa = 100
Property: Mole fraction of 4-cyanopyridine (Liquid); method: gravimetric
Temperature, K	Mole fraction of 4-cyanopyridine	uncertainty
268.15	0.0065	0.0022
273.15	0.016	0.0054
278.15	0.0179	0.0061
288.15	0.0367	0.0125
298.15	0.0706	0.024
308.15	0.136	0.046
318.15	0.273	0.093

System: 4-cyanopyridine + methanol; phases: Liquid, Crystal
Fixed: Pressure, kPa = 100
Property: Mole fraction of 4-cyanopyridine (Liquid); method: gravimetric
Temperature, K	Mole fraction of 4-cyanopyridine	uncertainty
268.15	0.0245	0.0039
273.15	0.0302	0.0048
278.15	0.0361	0.0058
288.15	0.062	0.0099
298.15	0.0954	0.0153
308.15	0.173	0.028
318.15	0.304	0.049

System: 4-cyanopyridine + butan-1-ol; phases: Liquid, Crystal
Fixed: Pressure, kPa = 100
Property: Mole fraction of 4-cyanopyridine (Liquid); method: gravimetric
Temperature, K	Mole fraction of 4-cyanopyridine	uncertainty
268.15	0.0141	0.0034
273.15	0.0149	0.0036
278.15	0.0216	0.0052
288.15	0.0471	0.0113
298.15	0.0898	0.0216
308.15	0.151	0.036
318.15	0.284	0.068

System: 4-cyanopyridine + 2-methyl-1-propanol; phases: Liquid, Crystal
Fixed: Pressure, kPa = 100
Property: Mole fraction of 4-cyanopyridine (Liquid); method: gravimetric
Temperature, K	Mole fraction of 4-cyanopyridine	uncertainty
268.15	0.0133	0.0035
273.15	0.0176	0.0046
278.15	0.0229	0.006
288.15	0.0469	0.0122
298.15	0.108	0.028
308.15	0.172	0.045
318.15	0.304	0.079

System: 4-cyanopyridine + ethyl acetate; phases: Liquid, Crystal
Fixed: Pressure, kPa = 100
Property: Mole fraction of 4-cyanopyridine (Liquid); method: gravimetric
Temperature, K	Mole fraction of 4-cyanopyridine	uncertainty
268.15	0.106	0.004
273.15	0.121	0.005
278.15	0.142	0.006
288.15	0.203	0.008
298.15	0.261	0.01
308.15	0.343	0.014
318.15	0.437	0.018

System: 4-cyanopyridine + acetone; phases: Liquid, Crystal
Fixed: Pressure, kPa = 100
Property: Mole fraction of 4-cyanopyridine (Liquid); method: gravimetric
Temperature, K	Mole fraction of 4-cyanopyridine	uncertainty
268.15	0.117	0.005
273.15	0.134	0.005
278.15	0.155	0.006
288.15	0.213	0.009
298.15	0.275	0.011
308.15	0.356	0.014
318.15	0.46	0.018

System: 4-cyanopyridine + tetrachloromethane; phases: Liquid, Crystal
Fixed: Pressure, kPa = 100
Property: Mole fraction of 4-cyanopyridine (Liquid); method: gravimetric
Temperature, K	Mole fraction of 4-cyanopyridine	uncertainty
268.15	0.0129	0.0028
273.15	0.0194	0.0043
278.15	0.0292	0.0064
288.15	0.0396	0.0087
298.15	0.0839	0.0185
308.15	0.151	0.033
318.15	0.287	0.063

System: 4-cyanopyridine + propan-1-ol; phases: Liquid, Crystal
Fixed: Pressure, kPa = 100
Property: Mole fraction of 4-cyanopyridine (Liquid); method: gravimetric
Temperature, K	Mole fraction of 4-cyanopyridine	uncertainty
268.15	0.0246	0.0039
273.15	0.0271	0.0043
278.15	0.0396	0.0063
288.15	0.07	0.0112
298.15	0.129	0.021
308.15	0.19	0.03
318.15	0.298	0.048
