Measured thermophysical data. pvT Property of HFO-1234ze(E) in the Gaseous Phase
Source: J. Chem. Eng. Data, 2018, 10.1021/acs.jced.8b00090
Compound 1: trans-1,3,3,3-tetrafluoropropene, C3H2F4, InChI=1S/C3H2F4/c4-2-1-3(5,6)7/h1-2H/b2-1+

System: trans-1,3,3,3-tetrafluoropropene; phases: Gas
Property: Amount density, mol/m3 (Gas); method: Burnett expansion method
Temperature, K	Pressure, kPa	Amount density, mol/m3	uncertainty
401.15	3898.73	2039.23	3.45
399.15	3840.84	2039.44	3.46
397.15	3782.72	2039.65	3.47
392.15	3635.16	2040.18	3.51
390.15	3575.84	2040.39	3.54
401.15	3328.86	1513.29	2.58
399.15	3289.82	1513.44	2.59
397.15	3250.6	1513.6	2.6
395.15	3211.17	1513.75	2.61
393.15	3171.52	1513.91	2.74
392.15	3151.74	1513.99	2.74
390.15	3111.77	1514.14	2.68
388.15	3071.35	1514.3	2.6
383.15	2969.93	1514.69	2.63
378.15	2866.85	1515.07	2.66
373.15	2761.64	1515.46	2.7
401.15	2739.84	1116.86	1.94
399.15	2713.48	1116.97	1.95
397.15	2686.98	1117.09	1.96
395.15	2660.38	1117.2	1.93
393.15	2633.73	1117.32	1.94
392.15	2620.33	1117.37	1.94
390.15	2593.48	1117.49	1.97
388.15	2566.53	1117.6	1.98
383.15	2498.59	1117.88	2
378.15	2429.82	1118.17	2.02
373.15	2360.11	1118.45	2.05
368.15	2289.29	1118.74	1.99
363.15	2217.17	1119.03	2.02
401.15	2198.78	827.2	1.46
399.15	2180.7	827.28	1.47
397.15	2162.55	827.37	1.47
395.15	2144.34	827.45	1.47
393.15	2126.08	827.54	1.46
392.15	2116.93	827.58	1.49
390.15	2098.58	827.66	1.48
388.15	2080.17	827.75	1.48
383.15	2033.84	827.96	1.49
378.15	1987.09	828.17	1.51
373.15	1939.89	828.38	1.52
368.15	1892.12	828.59	1.54
363.15	1843.74	828.8	1.56
358.15	1794.67	829.01	1.52
353.15	1744.83	829.22	1.54
401.15	1728.34	612.76	1.12
399.15	1715.77	612.82	1.12
397.15	1703.17	612.88	1.12
395.15	1690.55	612.95	1.13
393.15	1677.89	613.01	1.13
392.15	1671.54	613.04	1.13
390.15	1658.85	613.1	1.13
388.15	1646.11	613.16	1.13
383.15	1614.11	613.32	1.14
378.15	1581.86	613.47	1.15
373.15	1549.37	613.63	1.16
368.15	1516.59	613.79	1.17
363.15	1483.53	613.94	1.19
358.15	1450.1	614.1	1.2
353.15	1416.3	614.25	1.22
348.15	1382.06	614.41	1.19
343.15	1347.34	614.56	1.2
401.15	1337.73	453.96	0.87
399.15	1328.89	454.01	0.87
397.15	1320.05	454.05	0.88
395.15	1311.18	454.1	0.88
393.15	1302.29	454.14	0.88
392.15	1297.85	454.17	0.87
390.15	1288.93	454.21	0.88
388.15	1279.99	454.26	0.88
383.15	1257.58	454.37	0.89
378.15	1235.05	454.49	0.9
373.15	1212.36	454.6	0.91
368.15	1189.52	454.72	0.92
363.15	1166.51	454.83	0.93
358.15	1143.37	454.95	0.94
353.15	1120	455.06	0.95
348.15	1096.42	455.18	0.96
343.15	1072.61	455.29	0.98
338.15	1048.53	455.41	0.96
333.15	1024.16	455.53	0.97
328.15	999.4	455.64	0.99
401.15	1023.59	336.31	0.7
399.15	1017.31	336.34	0.7
397.15	1011.03	336.38	0.7
395.15	1004.73	336.41	0.7
393.15	998.43	336.45	0.71
392.15	995.28	336.46	0.7
390.15	988.95	336.5	0.7
388.15	982.64	336.53	0.72
383.15	966.76	336.62	0.73
378.15	950.81	336.7	0.7
373.15	934.77	336.79	0.74
368.15	918.66	336.87	0.75
363.15	902.47	336.96	0.76
358.15	886.16	337.04	0.77
353.15	869.77	337.13	0.78
348.15	853.25	337.21	0.79
343.15	836.62	337.3	0.8
338.15	819.85	337.38	0.82
333.15	802.93	337.47	0.84
328.15	785.86	337.55	0.86
323.15	768.58	337.64	0.86
318.15	751.06	337.72	0.67
401.15	3190.95	1410.06	2.39
401.15	2613.96	1044.5	1.79
401.15	2086.94	773.71	1.35
401.15	1634.09	573.12	1.04
401.15	1261.12	424.54	0.81
401.15	962.91	314.47	0.66
401.15	729.4	232.94	0.56
401.15	549.33	172.55	0.48
401.15	411.88	127.81	0.44
401.15	307.85	94.67	0.41
399.15	3155.3	1410.21	2.4
399.15	2589.72	1044.61	1.79
399.15	2070.27	773.79	1.36
399.15	1622.48	573.18	1.04
399.15	1252.95	424.58	0.82
399.15	957.08	314.5	0.66
399.15	725.22	232.96	0.56
399.15	546.3	172.57	0.49
399.15	409.68	127.83	0.44
399.15	306.24	94.68	0.41
397.15	3119.5	1410.35	2.41
397.15	2565.42	1044.71	1.8
397.15	2053.56	773.87	1.36
397.15	1610.86	573.24	1.04
397.15	1244.76	424.62	0.82
397.15	951.25	314.53	0.66
397.15	721.03	232.99	0.56
397.15	543.28	172.58	0.49
397.15	407.48	127.84	0.44
397.15	304.64	94.69	0.42
393.15	3047.44	1410.64	2.42
393.15	2019.97	774.03	1.36
393.15	1587.5	573.35	1.05
393.15	1228.32	424.71	0.82
393.15	939.56	314.6	0.66
393.15	712.64	233.03	0.56
393.15	537.22	172.62	0.49
393.15	403.1	127.86	0.45
393.15	301.41	94.71	0.42
395.15	2541.01	1044.82	1.8
395.15	2036.76	773.95	1.36
395.15	1599.19	573.3	1.04
395.15	1236.55	424.66	0.82
395.15	945.41	314.57	0.66
395.15	716.83	233.01	0.56
395.15	540.25	172.6	0.49
395.15	405.31	127.85	0.44
395.15	303.03	94.7	0.42
