Measured thermophysical data. Ternary Liquid-Liquid Equilibrium of Toluene + Dimethyl Carbonate + ILs at 298.15 K and Atmospheric Pressure
Source: J. Chem. Eng. Data, 2019, 10.1021/acs.jced.9b00358
Compound 1: toluene, C7H8, InChI=1S/C7H8/c1-7-5-3-2-4-6-7/h2-6H,1H3, purity 98.5%
Compound 2: dimethyl carbonate, C3H6O3, InChI=1S/C3H6O3/c1-5-3(4)6-2/h1-2H3, purity 99.5%
Compound 3: 1-butyl-3-methylimidazolium dicyanamide, C10H15N5, InChI=1S/C8H15N2.C2N3/c1-3-4-5-10-7-6-9(2)8-10;3-1-5-2-4/h6-8H,3-5H2,1-2H3;/q+1;-1, purity 98%
Compound 4: 1-butyl-3-methylimidazolium hexafluorophosphate, C8H15F6N2P, InChI=1S/C8H15N2.F6P/c1-3-4-5-10-7-6-9(2)8-10;1-7(2,3,4,5)6/h6-8H,3-5H2,1-2H3;/q+1;-1, purity 98%
Compound 5: 1-ethyl-3-methylimidazolium dicyanamide, C8H11N5, InChI=1S/C6H11N2.C2N3/c1-3-8-5-4-7(2)6-8;3-1-5-2-4/h4-6H,3H2,1-2H3;/q+1;-1, purity 98%
Compound 6: 1-hexyl-3-methylimidazolium hexafluorophosphate, C10H19F6N2P, InChI=1S/C10H19N2.F6P/c1-3-4-5-6-7-12-9-8-11(2)10-12;1-7(2,3,4,5)6/h8-10H,3-7H2,1-2H3;/q+1;-1, purity 98%

System: toluene + dimethyl carbonate + 1-butyl-3-methylimidazolium dicyanamide; phases: Liquid mixture 2, Liquid mixture 1
Fixed: Temperature, K = 298.15
Fixed: Pressure, kPa = 101.325
Property: Mole fraction of toluene (Liquid mixture 2); method: Chromatography
Property: Mole fraction of dimethyl carbonate (Liquid mixture 1); method: Chromatography
Property: Mole fraction of toluene (Liquid mixture 1); method: Chromatography
Mole fraction of dimethyl carbonate	Mole fraction of toluene	uncertainty	Mole fraction of dimethyl carbonate	uncertainty	Mole fraction of toluene	uncertainty
0.0331	0.4378	0.0069	0.0256	0.0085	0.9744	
0.0899	0.4232	0.007	0.0788	0.0085	0.9212	
0.1836	0.3892	0.0072	0.1743	0.0086	0.8257	
0.3049	0.3254	0.0071	0.3344	0.0088	0.6653	
0.3503	0.3063	0.0069	0.395	0.0089	0.6049	
0.3996	0.2849	0.0069	0.4579	0.0091	0.5418	
0.4347	0.2676	0.007	0.5103	0.0092	0.4893	

System: toluene + dimethyl carbonate + 1-butyl-3-methylimidazolium hexafluorophosphate; phases: Liquid mixture 1, Liquid mixture 2
Fixed: Temperature, K = 298.15
Fixed: Pressure, kPa = 101.325
Property: Mole fraction of toluene (Liquid mixture 1); method: Chromatography
Property: Mole fraction of toluene (Liquid mixture 2); method: Chromatography
Property: Mole fraction of dimethyl carbonate (Liquid mixture 2); method: Chromatography
Mole fraction of dimethyl carbonate	Mole fraction of toluene	uncertainty	Mole fraction of toluene	uncertainty	Mole fraction of dimethyl carbonate	uncertainty
0.1011	0.3911	0.0068	0.9329	0.0085	0.067	
0.2361	0.3514	0.0067	0.8212	0.0086	0.1785	
0.3032	0.3447	0.0065	0.7449	0.0087	0.2549	
0.3631	0.3332	0.0071	0.649	0.009	0.3509	
0.472	0.2615	0.0076	0.4987	0.0092	0.5012	
0.5923	0.1706	0.0076	0.3274	0.0088	0.6723	

System: toluene + dimethyl carbonate + 1-ethyl-3-methylimidazolium dicyanamide; phases: Liquid mixture 1, Liquid mixture 2
Fixed: Temperature, K = 298.15
Fixed: Pressure, kPa = 101.325
Property: Mole fraction of toluene (Liquid mixture 1); method: Chromatography
Property: Mole fraction of toluene (Liquid mixture 2); method: Chromatography
Property: Mole fraction of dimethyl carbonate (Liquid mixture 2); method: Chromatography
Mole fraction of dimethyl carbonate	Mole fraction of toluene	uncertainty	Mole fraction of toluene	uncertainty	Mole fraction of dimethyl carbonate	uncertainty
0.0343	0.3058	0.0071	0.9687	0.0085	0.0283	
0.0798	0.2818	0.0065	0.9202	0.0085	0.077	
0.2485	0.2512	0.0063	0.7243	0.0087	0.2721	
0.2891	0.2478	0.0063	0.6744	0.0086	0.3256	
0.3119	0.2392	0.0065	0.6423	0.0089	0.3573	
0.3579	0.2283	0.0064	0.5731	0.009	0.4268	
0.3791	0.2198	0.0066	0.5464	0.0091	0.4534	

System: toluene + dimethyl carbonate + 1-hexyl-3-methylimidazolium hexafluorophosphate; phases: Liquid mixture 1, Liquid mixture 2
Fixed: Temperature, K = 298.15
Fixed: Pressure, kPa = 101.325
Property: Mole fraction of toluene (Liquid mixture 1); method: Chromatography
Property: Mole fraction of toluene (Liquid mixture 2); method: Chromatography
Property: Mole fraction of dimethyl carbonate (Liquid mixture 2); method: Chromatography
Mole fraction of dimethyl carbonate	Mole fraction of toluene	uncertainty	Mole fraction of toluene	uncertainty	Mole fraction of dimethyl carbonate	uncertainty
0.1077	0.5705	0.0073	0.924	0.009	0.0759	
0.1741	0.5379	0.0075	0.8732	0.0085	0.1267	
0.2203	0.5135	0.0075	0.8295	0.0086	0.1704	
0.2672	0.4919	0.0077	0.7751	0.0086	0.2245	
0.3014	0.4671	0.0073	0.726	0.009	0.2735	
0.3127	0.4783	0.0091	0.7015	0.0088	0.2978	
