Measured thermophysical data. Measurement and Correlation of Solubility of Amorphous Cefmetazole Sodium in Pure Solvents and Binary Solvent Mixtures
Source: J. Chem. Eng. Data, 2017, 10.1021/acs.jced.6b00741
Compound 1: sodium cefemetasole, C15H16N7NaO5S3, InChI=1S/C15H17N7O5S3.Na/c1-21-14(18-19-20-21)30-6-8-5-29-13-15(27-2,17-9(23)7-28-4-3-16)12(26)22(13)10(8)11(24)25;/h13H,4-7H2,1-2H3,(H,17,23)(H,24,25);/q;+1/p-1/t13-,15+;/m1./s1, purity 98.5%
Compound 2: methanol, CH4O, InChI=1S/CH4O/c1-2/h2H,1H3, purity 99.5%
Compound 3: ethanol, C2H6O, InChI=1S/C2H6O/c1-2-3/h3H,2H2,1H3, purity 99.5%
Compound 4: propan-1-ol, C3H8O, InChI=1S/C3H8O/c1-2-3-4/h4H,2-3H2,1H3, purity 99.5%
Compound 5: propan-2-ol, C3H8O, InChI=1S/C3H8O/c1-3(2)4/h3-4H,1-2H3, purity 99.5%
Compound 6: butyl ethanoate, C6H12O2, InChI=1S/C6H12O2/c1-3-4-5-8-6(2)7/h3-5H2,1-2H3, purity 99.5%
Compound 7: butan-1-ol, C4H10O, InChI=1S/C4H10O/c1-2-3-4-5/h5H,2-4H2,1H3, purity 99.5%
Compound 8: ethyl acetate, C4H8O2, InChI=1S/C4H8O2/c1-3-6-4(2)5/h3H2,1-2H3, purity 99.5%
Compound 9: hexane, C6H14, InChI=1S/C6H14/c1-3-5-6-4-2/h3-6H2,1-2H3, purity 99.5%
Compound 10: cyclohexane, C6H12, InChI=1S/C6H12/c1-2-4-6-5-3-1/h1-6H2, purity 99.5%
Compound 11: pentan-1-ol, C5H12O, InChI=1S/C5H12O/c1-2-3-4-5-6/h6H,2-5H2,1H3, purity 99.5%

System: sodium cefemetasole + ethanol; phases: Liquid, Glass
Fixed: Pressure, kPa = 100
Property: Mole fraction of sodium cefemetasole (Liquid); method: UV Spectroscopy
Temperature, K	Mole fraction of sodium cefemetasole	uncertainty
278.15	0.000471	4.8e-05
283.15	0.000508	5.2e-05
288.15	0.000542	5.5e-05
293.15	0.000599	6.1e-05
298.15	0.000685	7e-05
303.15	0.000818	8.4e-05
308.15	0.00105	0.00011
313.15	0.00128	0.00013

System: sodium cefemetasole + propan-2-ol; phases: Liquid, Glass
Fixed: Pressure, kPa = 100
Property: Mole fraction of sodium cefemetasole (Liquid); method: UV Spectroscopy
Temperature, K	Mole fraction of sodium cefemetasole	uncertainty
278.15	6.74e-05	6.9e-06
283.15	7.58e-05	7.8e-06
288.15	8.93e-05	9.1e-06
293.15	0.000117	1.2e-05
298.15	0.00014	1.4e-05
303.15	0.00017	1.7e-05
308.15	0.00021	2.2e-05
313.15	0.000286	2.9e-05

System: sodium cefemetasole + propan-1-ol; phases: Liquid, Glass
Fixed: Pressure, kPa = 100
Property: Mole fraction of sodium cefemetasole (Liquid); method: UV Spectroscopy
Temperature, K	Mole fraction of sodium cefemetasole	uncertainty
278.15	6.12e-05	6.3e-06
283.15	7.02e-05	7.2e-06
288.15	8.12e-05	8.3e-06
293.15	0.000105	1.1e-05
298.15	0.000125	1.3e-05
303.15	0.000153	1.6e-05
308.15	0.000191	2e-05
313.15	0.000244	2.5e-05

System: sodium cefemetasole + butyl ethanoate; phases: Liquid, Glass
Fixed: Pressure, kPa = 100
Property: Mole fraction of sodium cefemetasole (Liquid); method: UV Spectroscopy
Temperature, K	Mole fraction of sodium cefemetasole	uncertainty
278.15	3.86e-05	3.9e-06
283.15	4.39e-05	4.5e-06
288.15	5.19e-05	5.3e-06
293.15	6.35e-05	6.5e-06
298.15	7.49e-05	7.7e-06
303.15	8.96e-05	9.2e-06
308.15	0.000109	1.1e-05
313.15	0.000124	1.3e-05

System: sodium cefemetasole + pentan-1-ol; phases: Liquid, Glass
Fixed: Pressure, kPa = 100
Property: Mole fraction of sodium cefemetasole (Liquid); method: UV Spectroscopy
Temperature, K	Mole fraction of sodium cefemetasole	uncertainty
278.15	3.1e-05	3.2e-06
283.15	3.94e-05	4e-06
288.15	4.82e-05	4.9e-06
293.15	5.84e-05	6e-06
298.15	6.75e-05	6.9e-06
303.15	8e-05	8.2e-06
308.15	9.75e-05	1e-05
313.15	0.000113	1.2e-05

System: sodium cefemetasole + hexane; phases: Liquid, Glass
Fixed: Pressure, kPa = 100
Property: Mole fraction of sodium cefemetasole (Liquid); method: UV Spectroscopy
Temperature, K	Mole fraction of sodium cefemetasole	uncertainty
278.15	1.6e-06	1.6e-07
283.15	2.1e-06	2.1e-07
288.15	2.59e-06	2.6e-07
293.15	2.98e-06	3e-07
298.15	3.5e-06	3.6e-07
303.15	4.1e-06	4.2e-07
308.15	4.92e-06	5e-07
313.15	6e-06	6.1e-07

System: sodium cefemetasole + ethyl acetate; phases: Liquid, Glass
Fixed: Pressure, kPa = 100
Property: Mole fraction of sodium cefemetasole (Liquid); method: UV Spectroscopy
Temperature, K	Mole fraction of sodium cefemetasole	uncertainty
278.15	5.31e-05	5.4e-06
283.15	6.03e-05	6.2e-06
288.15	6.94e-05	7.1e-06
293.15	8.61e-05	8.8e-06
298.15	0.000105	1.1e-05
303.15	0.000137	1.4e-05
308.15	0.000168	1.7e-05
313.15	0.000221	2.3e-05

System: sodium cefemetasole + butan-1-ol; phases: Liquid, Glass
Fixed: Pressure, kPa = 100
Property: Mole fraction of sodium cefemetasole (Liquid); method: UV Spectroscopy
Temperature, K	Mole fraction of sodium cefemetasole	uncertainty
278.15	4.93e-05	5e-06
283.15	5.69e-05	5.8e-06
288.15	6.42e-05	6.6e-06
293.15	8.26e-05	8.5e-06
298.15	9.89e-05	1.01e-05
303.15	0.000124	1.3e-05
308.15	0.000152	1.6e-05
313.15	0.000196	2e-05

System: sodium cefemetasole + cyclohexane; phases: Liquid, Glass
Fixed: Pressure, kPa = 100
Property: Mole fraction of sodium cefemetasole (Liquid); method: UV Spectroscopy
Temperature, K	Mole fraction of sodium cefemetasole	uncertainty
278.15	1.31e-06	1.3e-07
283.15	1.75e-06	1.8e-07
288.15	2.1e-06	2.1e-07
293.15	2.5e-06	2.6e-07
298.15	3.1e-06	3.2e-07
303.15	3.6e-06	3.7e-07
308.15	4.62e-06	4.7e-07
313.15	5.69e-06	5.8e-07

System: sodium cefemetasole + ethanol + methanol; phases: Liquid, Glass
Fixed: Pressure, kPa = 100
Property: Mole fraction of sodium cefemetasole (Liquid); method: UV Spectroscopy
Solvent: Mole fraction of ethanol	Temperature, K	Mole fraction of sodium cefemetasole	uncertainty
0.099	278.15	0.0169	0.0018
0.201	278.15	0.0133	0.0016
0.301	278.15	0.00772	0.00148
0.395	278.15	0.00437	0.00091
0.5	278.15	0.00323	0.00065
0.599	278.15	0.00184	0.00042
0.698	278.15	0.00118	0.00017
0.799	278.15	0.000982	0.000113
0.8997	278.15	0.000612	7.1e-05
0.099	283.15	0.0175	0.0018
0.201	283.15	0.0137	0.0016
0.301	283.15	0.00814	0.00152
0.395	283.15	0.00458	0.00095
0.5	283.15	0.00342	0.00068
0.599	283.15	0.00192	0.0004
0.698	283.15	0.00148	0.00019
0.799	283.15	0.00104	0.00013
0.9	283.15	0.000691	7.6e-05
0.099	288.15	0.018	0.0019
0.201	288.15	0.0141	0.0017
0.301	288.15	0.00864	0.00157
0.395	288.15	0.0048	0.00101
0.5	288.15	0.00362	0.0007
0.599	288.15	0.00212	0.00041
0.698	288.15	0.00173	0.00022
0.799	288.15	0.00112	0.00014
0.9	288.15	0.000843	9e-05
0.099	293.15	0.019	0.002
0.201	293.15	0.0147	0.0017
0.301	293.15	0.00932	0.00159
0.395	293.15	0.0056	0.00108
0.5	293.15	0.00411	0.00081
0.599	293.15	0.00246	0.00047
0.698	293.15	0.00195	0.00026
0.799	293.15	0.00121	0.00015
0.9	293.15	0.00096	0.0001
0.099	298.15	0.021	0.0022
0.201	298.15	0.0157	0.0019
0.301	298.15	0.0104	0.0017
0.395	298.15	0.00662	0.00117
0.5	298.15	0.00499	0.00096
0.599	298.15	0.0029	0.00058
0.698	298.15	0.00225	0.00031
0.799	298.15	0.00136	0.00017
0.9	298.15	0.00112	0.00012
0.099	303.15	0.0235	0.0025
0.201	303.15	0.017	0.002
0.301	303.15	0.0121	0.0018
0.395	303.15	0.00788	0.00137
0.5	303.15	0.00579	0.00108
0.599	303.15	0.0038	0.00068
0.698	303.15	0.0027	0.00039
0.799	303.15	0.00173	0.00022
0.9	303.15	0.0013	0.00014
0.099	308.15	0.026	0.0027
0.201	308.15	0.0187	0.0022
0.301	308.15	0.0141	0.0019
0.395	308.15	0.00929	0.00152
0.5	308.15	0.00737	0.00123
0.599	308.15	0.00486	0.00092
0.698	308.15	0.00314	0.00049
0.799	308.15	0.00217	0.00025
0.9	308.15	0.0018	0.00019
0.099	313.15	0.0298	0.0032
0.201	313.15	0.0206	0.0024
0.301	313.15	0.0173	0.0021
0.395	313.15	0.0126	0.002
0.5	313.15	0.00895	0.00173
0.599	313.15	0.00593	0.00111
0.698	313.15	0.00385	0.0006
0.799	313.15	0.0026	0.00028
0.9	313.15	0.0023	0.00024
