Measured thermophysical data. Mean Activity Coefficients of NaCl in the NaCl + SrCl2 + H2O Ternary System at 278.15 K by the Cell Potential Method
Source: J. Chem. Eng. Data, 2019, 10.1021/acs.jced.9b00509
Compound 1: sodium chloride, ClNa, InChI=1S/ClH.Na/h1H;/q;+1/p-1
Compound 2: strontium chloride, Cl2Sr, InChI=1S/2ClH.Sr/h2*1H;/q;;+2/p-2
Compound 3: water, H2O, InChI=1S/H2O/h1H2, purity 99.9%

System: sodium chloride + strontium chloride + water; phases: Liquid
Fixed: Temperature, K = 278.15
Fixed: Pressure, kPa = 100
Property: Mean ionic activity coefficient of sodium chloride (Liquid); method: cell potential measurements
Molality, mol/kg of sodium chloride	Molality, mol/kg of strontium chloride	Mean ionic activity coefficient of sodium chloride	uncertainty
0.0101	0	0.8954	0.0956
0.0079	0.0007	0.9322	0.0956
0.0059	0.0013	0.9656	0.0956
0.004	0.0021	0.9978	0.0956
0.002	0.0027	1.0202	0.0958
0.05	0	0.8333	0.0956
0.0399	0.0033	0.8692	0.0956
0.0302	0.0066	0.8993	0.0956
0.0198	0.0101	0.9279	0.0956
0.01	0.0133	0.9661	0.0956
0.0999	0	0.7707	0.0956
0.0801	0.0067	0.8045	0.0956
0.0599	0.0133	0.8395	0.0956
0.0399	0.0199	0.8651	0.0956
0.0202	0.0268	0.8831	0.0956
0.1999	0	0.7414	0.0956
0.1603	0.0133	0.7594	0.0956
0.12	0.0267	0.7803	0.0956
0.08	0.04	0.8037	0.0956
0.0399	0.0533	0.8298	0.0956
0.5	0	0.6424	0.0956
0.3999	0.0335	0.6562	0.0956
0.2998	0.0666	0.6699	0.0956
0.2	0.1002	0.6879	0.0956
0.1002	0.1333	0.7099	0.0956
0.9999	0	0.6185	0.0956
0.7999	0.0667	0.6355	0.0956
0.6001	0.1333	0.6476	0.0956
0.3999	0.2	0.6587	0.0956
0.1999	0.2666	0.6706	0.0956
1.9994	0	0.6281	0.0956
1.6001	0.1333	0.645	0.0956
1.2	0.2667	0.6587	0.0956
0.7995	0.3998	0.6688	0.0956
0.3995	0.533	0.679	0.0956
2.999	0	0.6544	0.0956
2.3988	0.1999	0.6821	0.0956
1.7993	0.3999	0.7067	0.0956
1.1992	0.5997	0.7259	0.0956
0.5998	0.7999	0.7492	0.0956

System: sodium chloride + water; phases: Liquid
Fixed: Temperature, K = 278.15
Fixed: Pressure, kPa = 100
Property: Mean ionic activity coefficient of sodium chloride (Liquid); method: cell potential measurements
Molality, mol/kg of sodium chloride	Mean ionic activity coefficient of sodium chloride	uncertainty
0.0101	0.8954	0.0956
0.05	0.8333	0.0956
0.0999	0.7707	0.0956
0.1999	0.7414	0.0956
0.5	0.6424	0.0956
0.9999	0.6185	0.0956
1.9994	0.6281	0.0956
2.999	0.6544	0.0956
