Measured thermophysical data. The Stable Phase Equilibria of the Ternary Systems Na2SO4 + Rb2SO4 (Cs2SO4) + H2O at 298.2 K
Source: J. Chem. Eng. Data, 2019, 10.1021/acs.jced.8b00693
Compound 1: sodium sulfate, Na2O4S, InChI=1S/2Na.H2O4S/c;;1-5(2,3)4/h;;(H2,1,2,3,4)/q2*+1;/p-2
Compound 2: rubidium sulfate, O4Rb2S, InChI=1S/H2O4S.2Rb/c1-5(2,3)4;;/h(H2,1,2,3,4);;/q;2*+1/p-2
Compound 3: cesium sulfate, Cs2O4S, InChI=1S/2Cs.H2O4S/c;;1-5(2,3)4/h;;(H2,1,2,3,4)/q2*+1;/p-2
Compound 4: water, H2O, InChI=1S/H2O/h1H2

System: sodium sulfate + rubidium sulfate + water; phases: Liquid, Crystal of intercomponent compound 1
Fixed: Temperature, K = 298.2
Fixed: Pressure, kPa = 100
Property: Mass fraction of rubidium sulfate (Liquid); method: titration, spectroscopy, and gravimetric analysis
Mass fraction of sodium sulfate	Mass fraction of rubidium sulfate	uncertainty
0.218	0	
0.2118	0.0185	0.0185
0.2131	0.035	0.0167
0.2165	0.0569	0.0105
0.2198	0.0851	0.0633
0.2244	0.1086	0.0011
0.2267	0.132	0.1084
0.2261	0.1567	0.032
0.2238	0.1746	0.1746
0.2273	0.2141	0.2141
0.2317	0.2335	0.0762
0.231	0.2565	0.0759

System: sodium sulfate + rubidium sulfate + water; phases: Liquid, Crystal
Fixed: Temperature, K = 298.2
Fixed: Pressure, kPa = 100
Property: Mass fraction of rubidium sulfate (Liquid); method: titration, spectroscopy, and gravimetric analysis
Mass fraction of sodium sulfate	Mass fraction of rubidium sulfate	uncertainty
0.231	0.2565	0.0027
0.2188	0.2589	0.0027
0.2056	0.2612	0.0027
0.1842	0.2632	0.0027
0.1611	0.2698	0.0028
0.1375	0.2796	0.0029
0.1187	0.2837	0.0029
0.0668	0.3011	0.0031
0.0475	0.3084	0.0032
0.0299	0.3213	0.0033
0.016	0.3258	0.0033
0	0.3365	0.0034

System: sodium sulfate + rubidium sulfate + water; phases: Liquid
Fixed: Temperature, K = 298.15
Fixed: Pressure, kPa = 100
Property: Mass density, kg/m3 (Liquid); method: Pycnometric method
Mass fraction of sodium sulfate	Mass fraction of rubidium sulfate	Mass density, kg/m3	uncertainty
0.218	0	1183	24
0.2118	0.0185	1208.4	24
0.2131	0.035	1229.4	42
0.2165	0.0569	1251.6	25.3
0.2198	0.0851	1281.8	24.1
0.2244	0.1086	1307.5	24.3
0.2267	0.132	1335.7	24.2
0.2261	0.1567	1373.8	24.2
0.2238	0.1746	1385.6	24.1
0.2273	0.2141	1438.8	24.3
0.2317	0.2335	1480.9	25
0.231	0.2565	1540.1	25.4
0.2188	0.2589	1521.3	24.9
0.2056	0.2612	1514.2	24.5
0.1842	0.2632	1493	24.4
0.1611	0.2698	1478.3	24.3
0.1375	0.2796	1465.8	24.4
0.1187	0.2837	1447.7	24.4
0.0668	0.3011	1414.2	24.4
0.0475	0.3084	1398.4	24.4
0.0299	0.3213	1382.9	24.4
0.016	0.3258	1370.5	24.5
0	0.3365	1363.1	24.5

System: sodium sulfate + rubidium sulfate + water; phases: Liquid
Fixed: Temperature, K = 298.15
Fixed: Pressure, kPa = 100
Property: Refractive index (Na D-line) (Liquid); method: Standard Abbe refractometry
Mass fraction of sodium sulfate	Mass fraction of rubidium sulfate	Refractive index (Na D-line)	uncertainty
0.218	0	1.3628	0.0021
0.2118	0.0185	1.3637	0.0022
0.2131	0.035	1.366	0.0043
0.2165	0.0569	1.3684	0.0021
0.2198	0.0851	1.3711	0.002
0.2244	0.1086	1.374	0.0034
0.2267	0.132	1.3753	0.002
0.2261	0.1567	1.378	0.0021
0.2238	0.1746	1.3805	0.0021
0.2273	0.2141	1.3844	0.0021
0.2317	0.2335	1.3872	0.0021
0.231	0.2565	1.3894	0.0021
0.2188	0.2589	1.3875	0.0021
0.2056	0.2612	1.3861	0.0021
0.1842	0.2632	1.3842	0.0021
0.1611	0.2698	1.382	0.0021
0.1375	0.2796	1.38	0.0021
0.1187	0.2837	1.3778	0.0021
0.0668	0.3011	1.3735	0.0021
0.0475	0.3084	1.3704	0.0021
0.0299	0.3213	1.3685	0.0021
0.016	0.3258	1.367	0.0021
0	0.3365	1.3649	0.0021

System: sodium sulfate + cesium sulfate + water; phases: Liquid, Crystal of intercomponent compound 1
Fixed: Temperature, K = 298.2
Fixed: Pressure, kPa = 100
Property: Mass fraction of cesium sulfate (Liquid); method: titration, spectroscopy, and gravimetric analysis
Mass fraction of sodium sulfate	Mass fraction of cesium sulfate	uncertainty
0.218	0	
0.2009	0.0226	0.0226
0.1993	0.0319	0.0319
0.2002	0.0483	0.0094
0.2009	0.0729	0.0706
0.1977	0.097	0.082
0.1969	0.1318	0.0672
0.1957	0.1662	0.0819
0.1898	0.1957	0.0148
0.195	0.2143	0.0894
0.1943	0.2304	0.0448

System: sodium sulfate + cesium sulfate + water; phases: Liquid, Crystal
Fixed: Temperature, K = 298.2
Fixed: Pressure, kPa = 100
Property: Mass fraction of cesium sulfate (Liquid); method: titration, spectroscopy, and gravimetric analysis
Mass fraction of sodium sulfate	Mass fraction of cesium sulfate	uncertainty
0.1943	0.2304	0.0072
0.1912	0.2413	0.0111
0.1895	0.259	0.0137
0.1848	0.2883	0.0098
0.176	0.3282	0.0104
0.1703	0.3708	0.0095
0.1615	0.4043	0.0067
0.1543	0.4225	0.0068
0.1403	0.4746	0.0064
0.1315	0.4875	0.0062
0.1287	0.513	0.0127

System: sodium sulfate + cesium sulfate + water; phases: Liquid, Crystal
Fixed: Temperature, K = 298.2
Fixed: Pressure, kPa = 100
Property: Mass fraction of cesium sulfate (Liquid); method: titration, spectroscopy, and gravimetric analysis
Mass fraction of sodium sulfate	Mass fraction of cesium sulfate	uncertainty
0.1287	0.513	0.0051
0.1123	0.5291	0.0049
0.077	0.5504	0.0047
0.0605	0.5547	0.0046
0.0447	0.5668	0.0045
0.0317	0.5751	0.0044
0.0158	0.6007	0.0042
0	0.6463	0.0038

System: sodium sulfate + cesium sulfate + water; phases: Liquid
Fixed: Temperature, K = 298.15
Fixed: Pressure, kPa = 100
Property: Mass density, kg/m3 (Liquid); method: Pycnometric method
Mass fraction of sodium sulfate	Mass fraction of cesium sulfate	Mass density, kg/m3	uncertainty
0.218	0	1183	24.1
0.2009	0.0226	1221.2	24.1
0.1993	0.0319	1239.2	24.4
0.2002	0.0483	1245.8	24.2
0.2009	0.0729	1275.1	24
0.1977	0.097	1307.2	116.2
0.1969	0.1318	1353.2	34.1
0.1957	0.1662	1403.7	26.1
0.1898	0.1957	1449.7	27.1
0.195	0.2143	1517.8	28.5
0.1943	0.2304	1624.2	36.8
0.1912	0.2413	1665.8	27.9
0.1895	0.259	1727	29.7
0.1848	0.2883	1780.4	25.5
0.176	0.3282	1834.5	24.3
0.1703	0.3708	1839.1	25.7
0.1615	0.4043	1881.3	24.2
0.1543	0.4225	1892.2	30.5
0.1403	0.4746	1972.5	24.8
0.1315	0.4875	2012.8	24.9
0.1287	0.513	2048.2	25.4
0.1123	0.5291	2042.3	26.3
0.077	0.5504	2016.8	24.4
0.0605	0.5547	2015.3	25.1
0.0447	0.5668	2014	25.4
0.0317	0.5751	2012.4	24
0.0158	0.6007	2015.6	24.1
0	0.6463	2009.2	24.1

System: sodium sulfate + cesium sulfate + water; phases: Liquid
Fixed: Temperature, K = 298.15
Fixed: Pressure, kPa = 100
Property: Refractive index (Na D-line) (Liquid); method: Standard Abbe refractometry
Mass fraction of sodium sulfate	Mass fraction of cesium sulfate	Refractive index (Na D-line)	uncertainty
0.218	0	1.3628	0.0021
0.2009	0.0226	1.363	0.002
0.1993	0.0319	1.3635	0.002
0.2002	0.0483	1.365	0.002
0.2009	0.0729	1.3672	0.002
0.1977	0.097	1.37	0.0079
0.1969	0.1318	1.3731	0.0045
0.1957	0.1662	1.377	0.0026
0.1898	0.1957	1.3805	0.0023
0.195	0.2143	1.3894	0.0027
0.1943	0.2304	1.396	0.0031
0.1912	0.2413	1.3977	0.003
0.1895	0.259	1.3995	0.0021
0.1848	0.2883	1.4024	0.0021
0.176	0.3282	1.4046	0.002
0.1703	0.3708	1.4051	0.0021
0.1615	0.4043	1.4063	0.0023
0.1543	0.4225	1.409	0.0022
0.1403	0.4746	1.4137	0.0021
0.1315	0.4875	1.416	0.0021
0.1287	0.513	1.4169	0.0021
0.1123	0.5291	1.416	0.0021
0.077	0.5504	1.4146	0.0021
0.0605	0.5547	1.414	0.0021
0.0447	0.5668	1.413	0.0021
0.0317	0.5751	1.4124	0.002
0.0158	0.6007	1.4112	0.002
0	0.6463	1.4095	0.002

System: sodium sulfate + water; phases: Liquid, Crystal of intercomponent compound 1
Property: Mass fraction of sodium sulfate (Liquid); method: titration, spectroscopy, and gravimetric analysis
Temperature, K	Pressure, kPa	Mass fraction of sodium sulfate	uncertainty
298.2	100	0.218	0.0022

System: sodium sulfate + water; phases: Liquid
Property: Mass density, kg/m3 (Liquid); method: Pycnometric method
Mass fraction of sodium sulfate	Temperature, K	Pressure, kPa	Mass density, kg/m3	uncertainty
0.218	298.15	100	1183	24

System: sodium sulfate + water; phases: Liquid
Property: Refractive index (Na D-line) (Liquid); method: Standard Abbe refractometry
Mass fraction of sodium sulfate	Temperature, K	Pressure, kPa	Refractive index (Na D-line)	uncertainty
0.218	298.15	100	1.3628	0.002

System: rubidium sulfate + water; phases: Liquid, Crystal
Property: Mass fraction of rubidium sulfate (Liquid); method: titration, spectroscopy, and gravimetric analysis
Temperature, K	Pressure, kPa	Mass fraction of rubidium sulfate	uncertainty
298.2	100	0.3365	0.0034

System: rubidium sulfate + water; phases: Liquid
Property: Mass density, kg/m3 (Liquid); method: Pycnometric method
Mass fraction of rubidium sulfate	Temperature, K	Pressure, kPa	Mass density, kg/m3	uncertainty
0.3365	298.15	100	1363.1	24

System: rubidium sulfate + water; phases: Liquid
Property: Refractive index (Na D-line) (Liquid); method: Standard Abbe refractometry
Mass fraction of rubidium sulfate	Temperature, K	Pressure, kPa	Refractive index (Na D-line)	uncertainty
0.3365	298.15	100	1.3649	0.002

System: cesium sulfate + water; phases: Liquid, Crystal
Property: Mass fraction of cesium sulfate (Liquid); method: titration, spectroscopy, and gravimetric analysis
Temperature, K	Pressure, kPa	Mass fraction of cesium sulfate	uncertainty
298.2	100	0.6463	0.0038

System: cesium sulfate + water; phases: Liquid
Property: Mass density, kg/m3 (Liquid); method: Pycnometric method
Mass fraction of cesium sulfate	Temperature, K	Pressure, kPa	Mass density, kg/m3	uncertainty
0.6463	298.15	100	2009.2	24.1

System: cesium sulfate + water; phases: Liquid
Property: Refractive index (Na D-line) (Liquid); method: Standard Abbe refractometry
Mass fraction of cesium sulfate	Temperature, K	Pressure, kPa	Refractive index (Na D-line)	uncertainty
0.6463	298.15	100	1.4095	0.002
