Measured thermophysical data. Solubility of Binary and Ternary Systems Containing Vanillin and Vanillic Acid in Supercritical Carbon Dioxide
Source: J. Chem. Eng. Data, 2016, 10.1021/acs.jced.6b00322
Compound 1: carbon dioxide, CO2, InChI=1S/CO2/c2-1-3, purity 99.995%
Compound 2: capsaicin, C18H27NO3, InChI=1S/C18H27NO3/c1-14(2)8-6-4-5-7-9-18(21)19-13-15-10-11-16(20)17(12-15)22-3/h6,8,10-12,14,20H,4-5,7,9,13H2,1-3H3,(H,19,21)/b8-6+, purity 97%
Compound 3: vanillin, C8H8O3, InChI=1S/C8H8O3/c1-11-8-4-6(5-9)2-3-7(8)10/h2-5,10H,1H3, purity 99%
Compound 4: 4-hydroxy-3-methoxybenzoic acid, C8H8O4, InChI=1S/C8H8O4/c1-12-7-4-5(8(10)11)2-3-6(7)9/h2-4,9H,1H3,(H,10,11), purity 98%

System: carbon dioxide + capsaicin; phases: Fluid (supercritical or subcritical phases), Crystal
Property: Mole fraction of capsaicin (Fluid (supercritical or subcritical phases)); method: Chromatography
Temperature, K	Pressure, kPa	Mole fraction of capsaicin	uncertainty
313.15	10780	5.74e-05	1.7e-06
313.15	12560	7.82e-05	2.3e-06
313.15	15080	9.95e-05	2.9e-06
313.15	17530	0.0001277	3.7e-06
313.15	20020	0.0001784	5.1e-06
313.15	25090	0.0002154	6.2e-06
313.15	30090	0.0002575	7.4e-06
323.15	10760	5.92e-05	1.8e-06
323.15	12500	8.05e-05	2.4e-06
323.15	15100	0.0001308	3.8e-06
323.15	17530	0.0001695	4.9e-06
323.15	20020	0.0002123	6.1e-06
323.15	25090	0.000257	7.4e-06
323.15	30090	0.000291	8.4e-06

System: vanillin + carbon dioxide; phases: Fluid (supercritical or subcritical phases), Crystal
Property: Mole fraction of vanillin (Fluid (supercritical or subcritical phases)); method: Chromatography
Temperature, K	Pressure, kPa	Mole fraction of vanillin	uncertainty
315	8610	6.3e-05	2e-05
315	10560	0.001015	3.1e-05
315	14970	0.001994	5.8e-05
315	20430	0.002996	8.6e-05
315	23810	0.003318	9.5e-05
315	30810	0.003783	0.000109
324.9	8100	9e-05	1e-05
324.9	10150	0.000563	1.9e-05
324.9	15100	0.00201	5.9e-05
324.9	20240	0.003426	9.9e-05
324.9	25290	0.004358	0.000125
324.9	30360	0.004784	0.000137
334.71	10280	0.002075	6e-05
334.71	14840	0.002642	7.6e-05
334.71	19170	0.003342	9.6e-05
334.71	25540	0.004787	0.000137
334.71	30100	0.005215	0.00015

System: 4-hydroxy-3-methoxybenzoic acid + carbon dioxide; phases: Fluid (supercritical or subcritical phases), Crystal
Property: Mole fraction of 4-hydroxy-3-methoxybenzoic acid (Fluid (supercritical or subcritical phases)); method: Chromatography
Temperature, K	Pressure, kPa	Mole fraction of 4-hydroxy-3-methoxybenzoic acid	uncertainty
314.91	8570	9.601e-07	3.95e-08
314.91	10560	2.3457e-06	7.84e-08
314.91	14670	6.8072e-06	1.991e-07
314.91	20250	1.12293e-05	3.236e-07
314.91	23810	1.29076e-05	3.706e-07
314.91	30810	1.45056e-05	4.168e-07
324.91	8420	2.1912e-06	1.16e-07
324.91	9630	4.0919e-06	1.288e-07
324.91	15100	1.01924e-05	2.957e-07
324.91	20240	1.4874e-05	4.277e-07
324.91	30360	2.02763e-05	5.828e-07
334.71	8410	3.538e-07	1.476e-07
334.71	10280	7.2291e-06	2.28e-07
334.71	14840	1.62161e-05	4.689e-07
334.71	19170	1.97486e-05	5.681e-07
334.71	25540	2.59998e-05	7.474e-07
334.71	30100	2.91108e-05	8.361e-07

System: vanillin + 4-hydroxy-3-methoxybenzoic acid + carbon dioxide; phases: Fluid (supercritical or subcritical phases), Crystal, Crystal
Property: Mole fraction of vanillin (Fluid (supercritical or subcritical phases)); method: Chromatography
Temperature, K	Pressure, kPa	Mole fraction of vanillin	uncertainty
314.13	9510	0.000187	0.000187
314.13	11230	0.000246	0.000246
314.13	14610	0.000308	0.000308
314.13	19990	0.000674	0.000674
314.13	23990	0.001113	0.001113
314.13	28770	0.001349	0.001349
323.67	10060	0.000172	0.000172
323.67	15270	0.000506	0.000506
323.67	19980	0.00094	0.00094
323.67	24800	0.001794	0.001794
323.67	29990	0.00223	0.00223
333.17	10690	0.000303	0.000303
333.17	12740	0.000511	0.000511
333.17	19530	0.003076	0.003076
333.17	23820	0.004046	0.004046
333.17	29630	0.004669	0.004669

System: vanillin + 4-hydroxy-3-methoxybenzoic acid + carbon dioxide; phases: Fluid (supercritical or subcritical phases), Crystal, Crystal
Property: Mole fraction of 4-hydroxy-3-methoxybenzoic acid (Fluid (supercritical or subcritical phases)); method: Chromatography
Temperature, K	Pressure, kPa	Mole fraction of 4-hydroxy-3-methoxybenzoic acid	uncertainty
314.13	9510	8.282e-07	8.282e-07
314.13	11230	8.495e-07	8.495e-07
314.13	14610	9.344e-07	9.344e-07
314.13	19990	1.255e-07	1.255e-07
314.13	23990	2.0079e-06	2.0079e-06
314.13	28770	2.5567e-06	2.5567e-06
323.67	10060	4.217e-07	4.217e-07
323.67	15270	1.935e-06	1.935e-06
323.67	19980	4.0792e-06	4.0792e-06
323.67	24800	6.8655e-06	6.8655e-06
323.67	29990	8.6693e-06	8.6693e-06
333.17	10690	6.46e-07	6.46e-07
333.17	12740	3.9796e-06	3.9796e-06
333.17	19530	1.32138e-05	1.32138e-05
333.17	23820	1.80137e-05	1.80137e-05
333.17	29630	2.21307e-05	2.21307e-05
