Measured thermophysical data. LCST-Type Phase Behavior of Aqueous Biphasic Systems Composed of Phosphonium-Based Ionic Liquids and Potassium Phosphate
Source: J. Chem. Eng. Data, 2017, 10.1021/acs.jced.6b00884
Compound 1: tetrabutylphosphonium trifluoroacetate, C18H36F3O2P, InChI=1S/C16H36P.C2HF3O2/c1-5-9-13-17(14-10-6-2,15-11-7-3)16-12-8-4;3-2(4,5)1(6)7/h5-16H2,1-4H3;(H,6,7)/q+1;/p-1, purity 98%
Compound 2: tributyloctylphosphonium bromide, C20H44BrP, InChI=1S/C20H44P.BrH/c1-5-9-13-14-15-16-20-21(17-10-6-2,18-11-7-3)19-12-8-4;/h5-20H2,1-4H3;1H/q+1;/p-1, purity 98%
Compound 3: tripotassium phosphate, K3O4P, InChI=1S/3K.H3O4P/c;;;1-5(2,3)4/h;;;(H3,1,2,3,4)/q3*+1;/p-3, purity 98%
Compound 4: water, H2O, InChI=1S/H2O/h1H2, purity 99.8%

System: water + tetrabutylphosphonium trifluoroacetate; phases: Liquid mixture 2, Liquid mixture 1
Property: Mass fraction of tetrabutylphosphonium trifluoroacetate (Liquid mixture 2); method: Chromatography
Mass fraction of tetrabutylphosphonium trifluoroacetate	Temperature, K	Mass fraction of tetrabutylphosphonium trifluoroacetate	uncertainty
0.2352	303.15	0.6213	0.0104
0.1561	313.15	0.6705	0.0107
0.1315	323.15	0.7041	0.0102
0.1106	333.15	0.708	0.0102
0.1038	343.15	0.7127	0.0124

System: water + tributyloctylphosphonium bromide; phases: Liquid mixture 2, Liquid mixture 1
Property: Mass fraction of tributyloctylphosphonium bromide (Liquid mixture 2); method: Chromatography
Mass fraction of tributyloctylphosphonium bromide	Temperature, K	Mass fraction of tributyloctylphosphonium bromide	uncertainty
0.1154	293.15	0.703	0.0102
0.0899	303.15	0.7377	0.0162
0.0463	313.15	0.7496	0.0104
0.0423	323.15	0.7521	0.0864
0.0395	333.15	0.7649	0.0103

System: water + tripotassium phosphate + tetrabutylphosphonium trifluoroacetate; phases: Liquid mixture 1, Liquid mixture 2
Fixed: Pressure, kPa = 100
Property: Mass fraction of tetrabutylphosphonium trifluoroacetate (Liquid mixture 1); method: Titration method
Temperature, K	Mass fraction of tripotassium phosphate	Mass fraction of tetrabutylphosphonium trifluoroacetate	uncertainty
293.15	0.0749	0.0557	0.0101
293.15	0.0777	0.0531	0.0101
293.15	0.0806	0.0506	0.0101
293.15	0.0848	0.0479	0.0101
293.15	0.0888	0.0457	0.0101
293.15	0.0929	0.0435	0.0101
293.15	0.0963	0.0417	0.0101
293.15	0.0992	0.0399	0.0101
293.15	0.1025	0.0383	0.0101
293.15	0.105	0.0368	0.0101
293.15	0.1098	0.0343	0.01
293.15	0.1148	0.0318	0.01
293.15	0.1196	0.0295	0.01
293.15	0.1245	0.0276	0.01
293.15	0.1287	0.0258	0.01
293.15	0.1327	0.0242	0.01
293.15	0.1377	0.022	0.01
293.15	0.142	0.0201	0.01
293.15	0.1477	0.0183	0.01
293.15	0.1531	0.0168	0.01
293.15	0.1577	0.0155	0.01
293.15	0.1621	0.0143	0.01
293.15	0.166	0.0133	0.01
293.15	0.1697	0.0125	0.01
293.15	0.1741	0.0116	0.01
293.15	0.1779	0.011	0.01
293.15	0.1817	0.0103	0.01
293.15	0.1853	0.0097	0.0097
293.15	0.1884	0.0092	0.0092
293.15	0.1912	0.0087	0.0087
293.15	0.1936	0.0083	0.0083
293.15	0.1959	0.0079	0.0079
298.15	0.0231	0.1229	0.0106
298.15	0.0265	0.113	0.0105
298.15	0.031	0.1042	0.0104
298.15	0.0372	0.0951	0.0104
298.15	0.0415	0.0884	0.0103
298.15	0.045	0.0822	0.0103
298.15	0.0507	0.0753	0.0102
298.15	0.0557	0.0697	0.0102
298.15	0.0605	0.0655	0.0102
298.15	0.0647	0.0617	0.0102
298.15	0.0683	0.0582	0.0101
298.15	0.0732	0.055	0.0101
298.15	0.0776	0.0522	0.0101
298.15	0.0821	0.049	0.0101
298.15	0.0861	0.0462	0.0101
298.15	0.0896	0.0431	0.0101
298.15	0.0929	0.0404	0.0101
298.15	0.0974	0.0384	0.0101
298.15	0.1019	0.0362	0.0101
298.15	0.1068	0.0338	0.01
298.15	0.1105	0.0318	0.01
298.15	0.1132	0.0299	0.01
298.15	0.1164	0.0282	0.01
298.15	0.1197	0.0267	0.01
298.15	0.1236	0.0255	0.01
298.15	0.1275	0.0243	0.01
298.15	0.1312	0.0232	0.01
298.15	0.1341	0.0221	0.01
298.15	0.1368	0.0211	0.01
298.15	0.1394	0.0201	0.01
298.15	0.1416	0.0193	0.01
298.15	0.1441	0.0184	0.01
298.15	0.1468	0.0177	0.01
298.15	0.1491	0.017	0.01
298.15	0.1513	0.0163	0.01
298.15	0.1559	0.0149	0.01
298.15	0.1609	0.0135	0.01
298.15	0.1661	0.0123	0.01
303.15	0.0274	0.0973	0.0104
303.15	0.0299	0.0936	0.0103
303.15	0.0321	0.0897	0.0103
303.15	0.034	0.0856	0.0103
303.15	0.0356	0.0819	0.0103
303.15	0.0375	0.0792	0.0102
303.15	0.0402	0.0766	0.0102
303.15	0.0446	0.0741	0.0102
303.15	0.048	0.0707	0.0102
303.15	0.0512	0.0678	0.0102
303.15	0.0543	0.0653	0.0102
303.15	0.0572	0.063	0.0102
303.15	0.0598	0.0607	0.0101
303.15	0.0625	0.0588	0.0101
303.15	0.0651	0.0565	0.0101
303.15	0.0679	0.0547	0.0101
303.15	0.0753	0.0494	0.0101
303.15	0.0812	0.0453	0.0101
303.15	0.0867	0.0415	0.0101
303.15	0.0922	0.0383	0.0101
303.15	0.0973	0.0355	0.0101
303.15	0.102	0.0332	0.01
303.15	0.1067	0.0311	0.01
303.15	0.1111	0.0291	0.01
303.15	0.1196	0.0262	0.01
303.15	0.1256	0.024	0.01
303.15	0.1307	0.0221	0.01
303.15	0.1353	0.0203	0.01
303.15	0.1399	0.0187	0.01
303.15	0.1443	0.0172	0.01
303.15	0.1487	0.0159	0.01
303.15	0.1527	0.0148	0.01
303.15	0.1564	0.0138	0.01
303.15	0.1599	0.0129	0.01
303.15	0.1637	0.012	0.01
303.15	0.1675	0.0112	0.01
303.15	0.1714	0.0105	0.01
308.15	0.0178	0.0888	0.0103
308.15	0.0217	0.0841	0.0103
308.15	0.025	0.0795	0.0102
308.15	0.028	0.0754	0.0102
308.15	0.0319	0.0719	0.0102
308.15	0.0351	0.0681	0.0102
308.15	0.039	0.0648	0.0102
308.15	0.0425	0.0619	0.0102
308.15	0.0457	0.0591	0.0101
308.15	0.051	0.0557	0.0101
308.15	0.0551	0.0527	0.0101
308.15	0.0591	0.0498	0.0101
308.15	0.0631	0.0469	0.0101
308.15	0.0682	0.0442	0.0101
308.15	0.0728	0.0417	0.0101
308.15	0.0769	0.0395	0.0101
308.15	0.0804	0.0375	0.0101
308.15	0.084	0.0358	0.0101
308.15	0.0879	0.0341	0.01
308.15	0.0907	0.0323	0.01
308.15	0.0943	0.0308	0.01
308.15	0.0992	0.0303	0.01
308.15	0.1025	0.0289	0.01
308.15	0.1052	0.0276	0.01
308.15	0.1089	0.0265	0.01
308.15	0.1115	0.0255	0.01
308.15	0.1139	0.0245	0.01
308.15	0.116	0.0236	0.01
308.15	0.1183	0.0227	0.01
308.15	0.1211	0.0219	0.01
308.15	0.1233	0.0212	0.01
308.15	0.1253	0.0204	0.01
308.15	0.1267	0.0196	0.01
308.15	0.1282	0.0189	0.01
308.15	0.1311	0.0182	0.01
308.15	0.134	0.0176	0.01
308.15	0.1363	0.017	0.01
308.15	0.1385	0.0164	0.01
308.15	0.1403	0.0158	0.01
308.15	0.142	0.0153	0.01
308.15	0.1441	0.0148	0.01
308.15	0.1466	0.0143	0.01
308.15	0.1489	0.0138	0.01
308.15	0.151	0.0134	0.01
308.15	0.153	0.0129	0.01
308.15	0.155	0.0125	0.01
308.15	0.157	0.0121	0.01
308.15	0.1591	0.0117	0.01
308.15	0.1607	0.0113	0.01
308.15	0.1627	0.011	0.01
323.15	0.0023	0.0922	0.0103
323.15	0.0063	0.0855	0.0103
323.15	0.0089	0.0802	0.0103
323.15	0.0113	0.0761	0.0102
323.15	0.0143	0.0724	0.0102
323.15	0.018	0.0697	0.0102
323.15	0.0217	0.0653	0.0102
323.15	0.0253	0.0621	0.0102
323.15	0.03	0.0594	0.0101
323.15	0.0341	0.0565	0.0101
323.15	0.0377	0.0537	0.0101
323.15	0.042	0.0509	0.0101
323.15	0.0469	0.0481	0.0101
323.15	0.0512	0.0457	0.0101
323.15	0.0553	0.0432	0.0101
323.15	0.0598	0.0411	0.0101
323.15	0.064	0.0388	0.0101
323.15	0.0682	0.0369	0.0101
323.15	0.0721	0.0353	0.01
323.15	0.0756	0.0335	0.01
323.15	0.0789	0.0319	0.01
323.15	0.0826	0.0306	0.01
323.15	0.0859	0.0294	0.01
323.15	0.0895	0.0283	0.01
323.15	0.0929	0.0272	0.01
323.15	0.0961	0.0263	0.01
323.15	0.0989	0.0253	0.01
323.15	0.1016	0.0245	0.01
323.15	0.1041	0.0237	0.01
323.15	0.1074	0.0228	0.01
323.15	0.1111	0.022	0.01
323.15	0.1146	0.0211	0.01
323.15	0.1179	0.0203	0.01
323.15	0.1206	0.0196	0.01
323.15	0.1229	0.0188	0.01
323.15	0.1255	0.0182	0.01
323.15	0.1277	0.0176	0.01
323.15	0.1294	0.0169	0.01
323.15	0.1311	0.0163	0.01
323.15	0.1329	0.0158	0.01
323.15	0.1341	0.0153	0.01
323.15	0.1355	0.0148	0.01
323.15	0.1369	0.0144	0.01
323.15	0.1379	0.014	0.01
323.15	0.1394	0.0135	0.01
323.15	0.1449	0.0126	0.01
323.15	0.1497	0.0117	0.01
323.15	0.1527	0.0109	0.01
323.15	0.1617	0.0091	0.0091
323.15	0.1702	0.0075	0.0075
333.15	0.0132	0.0685	0.0102
333.15	0.0187	0.0647	0.0102
333.15	0.0227	0.0613	0.0101
333.15	0.0267	0.0573	0.0101
333.15	0.031	0.0536	0.0101
333.15	0.0345	0.0499	0.0101
333.15	0.0374	0.0465	0.0101
333.15	0.0406	0.0435	0.0101
333.15	0.0449	0.0405	0.0101
333.15	0.0501	0.0376	0.0101
333.15	0.0564	0.0354	0.0101
333.15	0.0615	0.0333	0.01
333.15	0.0669	0.0313	0.01
333.15	0.0726	0.0295	0.01
333.15	0.0837	0.0259	0.01
333.15	0.0926	0.0229	0.01
333.15	0.0998	0.0204	0.01
333.15	0.1077	0.0181	0.01
333.15	0.1184	0.016	0.01
333.15	0.1271	0.0144	0.01
333.15	0.1341	0.013	0.01
333.15	0.14	0.0119	0.01
333.15	0.145	0.011	0.01
333.15	0.1495	0.0102	0.01
333.15	0.1537	0.0095	0.0095
333.15	0.157	0.0089	0.0089
333.15	0.1621	0.0083	0.0083
333.15	0.1667	0.0077	0.0077
333.15	0.1706	0.0072	0.0072
333.15	0.1742	0.0068	0.0068
333.15	0.1773	0.0064	0.0064
333.15	0.1808	0.0061	0.0061
343.15	0.0037	0.0719	0.0102
343.15	0.0112	0.0623	0.0102
343.15	0.0232	0.0532	0.0101
343.15	0.0342	0.0459	0.0101
343.15	0.043	0.0403	0.0101
343.15	0.0513	0.0353	0.01
343.15	0.061	0.031	0.01
343.15	0.0719	0.0275	0.01
343.15	0.0825	0.0246	0.01
343.15	0.0913	0.0221	0.01
343.15	0.0992	0.0198	0.01
343.15	0.105	0.0178	0.01
343.15	0.113	0.0163	0.01
343.15	0.12	0.0148	0.01
343.15	0.1257	0.0136	0.01
343.15	0.1305	0.0125	0.01
343.15	0.134	0.0117	0.01
343.15	0.1385	0.0108	0.01
343.15	0.1437	0.0101	0.01

System: water + tripotassium phosphate + tributyloctylphosphonium bromide; phases: Liquid mixture 1, Liquid mixture 2
Fixed: Pressure, kPa = 100
Property: Mass fraction of tributyloctylphosphonium bromide (Liquid mixture 1); method: Titration method
Temperature, K	Mass fraction of tripotassium phosphate	Mass fraction of tributyloctylphosphonium bromide	uncertainty
293.15	0.0039	0.274	0.0127
293.15	0.0068	0.2369	0.012
293.15	0.0089	0.2086	0.0116
293.15	0.0106	0.1863	0.0113
293.15	0.0121	0.1692	0.0111
293.15	0.0134	0.1562	0.0109
293.15	0.0144	0.1439	0.0108
293.15	0.0172	0.1342	0.0107
293.15	0.0259	0.1069	0.0104
293.15	0.0321	0.0865	0.0103
293.15	0.0406	0.0711	0.0102
293.15	0.0468	0.0607	0.0101
293.15	0.0541	0.0526	0.0101
293.15	0.0606	0.0462	0.0101
293.15	0.0658	0.0412	0.0101
293.15	0.0726	0.0369	0.0101
293.15	0.0788	0.0333	0.01
293.15	0.0839	0.0303	0.01
293.15	0.0885	0.0277	0.01
293.15	0.0952	0.0255	0.01
293.15	0.1004	0.0233	0.01
293.15	0.1049	0.0215	0.01
293.15	0.1091	0.02	0.01
293.15	0.1138	0.0187	0.01
293.15	0.1179	0.0175	0.01
293.15	0.122	0.0164	0.01
293.15	0.1254	0.0154	0.01
293.15	0.129	0.0146	0.01
293.15	0.1319	0.0137	0.01
293.15	0.1353	0.013	0.01
293.15	0.1385	0.0123	0.01
293.15	0.1417	0.0117	0.01
293.15	0.1445	0.0111	0.01
293.15	0.1472	0.0106	0.01
293.15	0.1501	0.0101	0.01
293.15	0.1524	0.0097	0.0097
293.15	0.1548	0.0093	0.0093
293.15	0.1577	0.0089	0.0089
298.15	0.0016	0.2019	0.0115
298.15	0.0066	0.1694	0.0111
298.15	0.0075	0.1609	0.011
298.15	0.0085	0.1532	0.0109
298.15	0.0099	0.146	0.0108
298.15	0.0114	0.1393	0.0107
298.15	0.0127	0.1307	0.0107
298.15	0.0198	0.1038	0.0104
298.15	0.028	0.085	0.0103
298.15	0.0358	0.0717	0.0102
298.15	0.0421	0.0614	0.0101
298.15	0.0488	0.0532	0.0101
298.15	0.0558	0.0467	0.0101
298.15	0.0622	0.0413	0.0101
298.15	0.0689	0.0367	0.0101
298.15	0.0752	0.033	0.01
298.15	0.0807	0.0299	0.01
298.15	0.0855	0.0273	0.01
298.15	0.0919	0.0249	0.01
298.15	0.0975	0.0229	0.01
298.15	0.1026	0.0212	0.01
298.15	0.1069	0.0197	0.01
298.15	0.1107	0.0184	0.01
298.15	0.1147	0.0172	0.01
298.15	0.1185	0.0161	0.01
298.15	0.1224	0.0151	0.01
298.15	0.1262	0.0142	0.01
298.15	0.1296	0.0134	0.01
298.15	0.1328	0.0127	0.01
298.15	0.1361	0.0121	0.01
298.15	0.139	0.0115	0.01
298.15	0.1419	0.0109	0.01
298.15	0.1444	0.0104	0.01
298.15	0.147	0.0099	0.0099
298.15	0.1495	0.0095	0.0095
303.15	0.0082	0.1078	0.0105
303.15	0.0106	0.1042	0.0104
303.15	0.0127	0.0994	0.0104
303.15	0.0147	0.0964	0.0104
303.15	0.0165	0.0927	0.0103
303.15	0.018	0.0881	0.0103
303.15	0.0195	0.0848	0.0103
303.15	0.0208	0.0818	0.0103
303.15	0.0229	0.0783	0.0102
303.15	0.0248	0.0748	0.0102
303.15	0.0257	0.0719	0.0102
303.15	0.028	0.0688	0.0102
303.15	0.0297	0.0666	0.0102
303.15	0.0315	0.0651	0.0102
303.15	0.0332	0.0635	0.0102
303.15	0.035	0.0611	0.0101
303.15	0.0363	0.0594	0.0101
303.15	0.0374	0.0576	0.0101
303.15	0.0395	0.0563	0.0101
303.15	0.041	0.0545	0.0101
303.15	0.0428	0.0534	0.0101
303.15	0.0446	0.0522	0.0101
303.15	0.0466	0.0508	0.0101
303.15	0.0482	0.0498	0.0101
303.15	0.0502	0.0481	0.0101
303.15	0.0516	0.046	0.0101
303.15	0.0542	0.0448	0.0101
303.15	0.0558	0.0433	0.0101
303.15	0.0574	0.0421	0.0101
303.15	0.0588	0.0409	0.0101
303.15	0.0602	0.0397	0.0101
303.15	0.0616	0.0386	0.0101
303.15	0.063	0.0374	0.0101
303.15	0.0649	0.0364	0.0101
303.15	0.0668	0.0354	0.0101
303.15	0.0688	0.0344	0.01
303.15	0.0708	0.0335	0.01
303.15	0.0725	0.0325	0.01
303.15	0.0743	0.0317	0.01
303.15	0.076	0.0309	0.01
303.15	0.0777	0.0302	0.01
303.15	0.0798	0.0294	0.01
303.15	0.081	0.0285	0.01
303.15	0.0823	0.0277	0.01
303.15	0.0839	0.0271	0.01
303.15	0.0855	0.0265	0.01
303.15	0.0869	0.0259	0.01
303.15	0.0878	0.0252	0.01
303.15	0.0896	0.0247	0.01
303.15	0.091	0.0241	0.01
308.15	0.0069	0.0656	0.0102
308.15	0.0123	0.0625	0.0102
308.15	0.0164	0.0599	0.0101
308.15	0.0195	0.0575	0.0101
308.15	0.023	0.0551	0.0101
308.15	0.025	0.0532	0.0101
308.15	0.0275	0.0513	0.0101
308.15	0.0298	0.0496	0.0101
308.15	0.0325	0.0479	0.0101
308.15	0.0351	0.0463	0.0101
308.15	0.038	0.0447	0.0101
308.15	0.0403	0.0428	0.0101
308.15	0.0429	0.041	0.0101
308.15	0.0452	0.0393	0.0101
308.15	0.0475	0.0375	0.0101
308.15	0.0498	0.036	0.0101
308.15	0.054	0.0344	0.01
308.15	0.0571	0.0331	0.01
308.15	0.0602	0.032	0.01
308.15	0.063	0.0305	0.01
308.15	0.0656	0.0292	0.01
308.15	0.0681	0.028	0.01
308.15	0.0715	0.0271	0.01
308.15	0.0741	0.0262	0.01
308.15	0.0766	0.0254	0.01
308.15	0.0795	0.0246	0.01
308.15	0.0817	0.0238	0.01
308.15	0.0836	0.0229	0.01
308.15	0.086	0.0222	0.01
308.15	0.0885	0.0215	0.01
308.15	0.0907	0.0207	0.01
308.15	0.0929	0.02	0.01
308.15	0.0959	0.0192	0.01
308.15	0.0976	0.0185	0.01
308.15	0.1001	0.018	0.01
308.15	0.1025	0.0175	0.01
308.15	0.1045	0.0169	0.01
308.15	0.1067	0.0164	0.01
308.15	0.1091	0.0156	0.01
308.15	0.1128	0.0147	0.01
308.15	0.1167	0.0138	0.01
308.15	0.1203	0.013	0.01
308.15	0.1235	0.0123	0.01
308.15	0.1268	0.0117	0.01
308.15	0.1305	0.0111	0.01
308.15	0.1334	0.0105	0.01
308.15	0.1357	0.01	0.01
308.15	0.1391	0.0095	0.0095
308.15	0.1423	0.0089	0.0089
308.15	0.1492	0.0086	0.0086
323.15	0.0392	0.0393	0.0101
323.15	0.0449	0.0368	0.0101
323.15	0.0466	0.0359	0.0101
323.15	0.0489	0.0351	0.01
323.15	0.051	0.0344	0.01
323.15	0.0533	0.0336	0.01
323.15	0.0569	0.0329	0.01
323.15	0.0587	0.0318	0.01
323.15	0.0611	0.0309	0.01
323.15	0.0635	0.0301	0.01
323.15	0.0656	0.0292	0.01
323.15	0.0681	0.0287	0.01
323.15	0.0704	0.0281	0.01
323.15	0.072	0.0275	0.01
323.15	0.0737	0.0269	0.01
323.15	0.0755	0.0263	0.01
323.15	0.077	0.0257	0.01
323.15	0.0783	0.0252	0.01
323.15	0.0795	0.0246	0.01
323.15	0.081	0.0241	0.01
323.15	0.0828	0.0237	0.01
323.15	0.0847	0.0232	0.01
323.15	0.0861	0.0228	0.01
323.15	0.0874	0.0224	0.01
323.15	0.0886	0.0219	0.01
323.15	0.0896	0.0215	0.01
323.15	0.091	0.0211	0.01
323.15	0.0924	0.0207	0.01
323.15	0.0939	0.0203	0.01
323.15	0.0944	0.0199	0.01
323.15	0.0948	0.0194	0.01
323.15	0.097	0.0192	0.01
323.15	0.0981	0.0188	0.01
323.15	0.099	0.0186	0.01
323.15	0.0996	0.0182	0.01
323.15	0.1011	0.0179	0.01
323.15	0.1025	0.0174	0.01
323.15	0.1038	0.0171	0.01
323.15	0.1056	0.0167	0.01
323.15	0.1071	0.0163	0.01
323.15	0.1083	0.016	0.01
323.15	0.1094	0.0157	0.01
323.15	0.1104	0.0154	0.01
323.15	0.1151	0.0143	0.01
323.15	0.1191	0.0134	0.01
323.15	0.1234	0.0126	0.01
323.15	0.127	0.0119	0.01
323.15	0.1305	0.0112	0.01
323.15	0.1341	0.0105	0.01
323.15	0.1379	0.0099	0.0099
333.15	0.0478	0.0342	0.01
333.15	0.0512	0.0335	0.01
333.15	0.0528	0.0329	0.01
333.15	0.0547	0.0322	0.01
333.15	0.056	0.0315	0.01
333.15	0.0576	0.0309	0.01
333.15	0.0588	0.0302	0.01
333.15	0.0599	0.0296	0.01
333.15	0.0616	0.029	0.01
333.15	0.0632	0.0284	0.01
333.15	0.0648	0.0278	0.01
333.15	0.0663	0.0272	0.01
333.15	0.0677	0.0267	0.01
333.15	0.0693	0.0262	0.01
333.15	0.0706	0.0257	0.01
333.15	0.0719	0.0252	0.01
333.15	0.0732	0.0246	0.01
333.15	0.0744	0.0239	0.01
333.15	0.076	0.0235	0.01
333.15	0.0776	0.0229	0.01
333.15	0.0793	0.0223	0.01
333.15	0.081	0.0217	0.01
333.15	0.0828	0.0212	0.01
333.15	0.0847	0.0208	0.01
333.15	0.0861	0.0203	0.01
333.15	0.0878	0.0199	0.01
333.15	0.0895	0.0195	0.01
333.15	0.0911	0.0191	0.01
333.15	0.0924	0.0186	0.01
333.15	0.0939	0.0183	0.01
333.15	0.0956	0.0179	0.01
333.15	0.0984	0.0172	0.01
333.15	0.1008	0.0167	0.01
333.15	0.1031	0.0161	0.01
333.15	0.1053	0.0155	0.01
333.15	0.1076	0.015	0.01
333.15	0.1098	0.0145	0.01
333.15	0.1118	0.0141	0.01
333.15	0.1137	0.0136	0.01
333.15	0.1177	0.0127	0.01
333.15	0.1213	0.0121	0.01
333.15	0.1257	0.0112	0.01
333.15	0.1298	0.0105	0.01
333.15	0.1334	0.0099	0.0099
333.15	0.137	0.0093	0.0093
333.15	0.14	0.0088	0.0088
333.15	0.1433	0.0083	0.0083
333.15	0.1462	0.0078	0.0078
333.15	0.1493	0.0071	0.0071
333.15	0.1521	0.0066	0.0066
343.15	0.0572	0.03	0.01
343.15	0.0578	0.0297	0.01
343.15	0.0584	0.0294	0.01
343.15	0.0594	0.029	0.01
343.15	0.0623	0.0285	0.01
343.15	0.0629	0.0281	0.01
343.15	0.0642	0.0276	0.01
343.15	0.0648	0.0272	0.01
343.15	0.0655	0.0269	0.01
343.15	0.0668	0.0265	0.01
343.15	0.0677	0.026	0.01
343.15	0.0688	0.0256	0.01
343.15	0.0699	0.0252	0.01
343.15	0.0707	0.0247	0.01
343.15	0.0717	0.0243	0.01
343.15	0.0733	0.0239	0.01
343.15	0.0746	0.0234	0.01
343.15	0.076	0.0231	0.01
343.15	0.0771	0.0226	0.01
343.15	0.0784	0.0223	0.01
343.15	0.0799	0.0219	0.01
343.15	0.0816	0.0214	0.01
343.15	0.083	0.021	0.01
343.15	0.0844	0.0206	0.01
343.15	0.0857	0.0203	0.01
343.15	0.087	0.0199	0.01
343.15	0.088	0.0194	0.01
343.15	0.0922	0.0184	0.01
343.15	0.0957	0.0175	0.01
343.15	0.099	0.0166	0.01
343.15	0.1018	0.0159	0.01
343.15	0.1046	0.0151	0.01
343.15	0.1079	0.0143	0.01
343.15	0.1118	0.0134	0.01
343.15	0.1156	0.0127	0.01
343.15	0.119	0.0119	0.01
343.15	0.1219	0.0114	0.01
343.15	0.1246	0.0108	0.01
343.15	0.1268	0.0103	0.01
343.15	0.1301	0.0096	0.0096
343.15	0.1339	0.0091	0.0091
343.15	0.1365	0.0085	0.0085
343.15	0.1392	0.0082	0.0082
343.15	0.1417	0.0078	0.0078
343.15	0.1434	0.0075	0.0075
343.15	0.1448	0.0071	0.0071
343.15	0.1485	0.0066	0.0066
343.15	0.1527	0.0061	0.0061
343.15	0.1565	0.0056	0.0056
343.15	0.1593	0.0052	0.0052
