Measured thermophysical data. Thermodynamic Properties of a Ternary AHP Working Pair: Lithium Bromide + 1-Ethyl-3-methylimidazolium Chloride + H2O
Source: J. Chem. Eng. Data, 2019, 10.1021/acs.jced.8b00771
Compound 1: 1-ethyl-3-methylimidazolium chloride, C6H11ClN2, InChI=1S/C6H11N2.ClH/c1-3-8-5-4-7(2)6-8;/h4-6H,3H2,1-2H3;1H/q+1;/p-1
Compound 2: lithium bromide, BrLi, InChI=1S/BrH.Li/h1H;/q;+1/p-1
Compound 3: water, H2O, InChI=1S/H2O/h1H2, purity 99.9%

System: 1-ethyl-3-methylimidazolium chloride; phases: Crystal
Fixed: Pressure, kPa = 100
Property: Molar heat capacity at constant pressure, J/K/mol (Crystal); method: Extra sensitive DSC
Temperature, K	Molar heat capacity at constant pressure, J/K/mol	uncertainty
293.15	216.9942256	11.7294176
303.15	221.3927572	11.7294176
313.15	224.3251116	11.7294176

System: 1-ethyl-3-methylimidazolium chloride; phases: Liquid
Fixed: Pressure, kPa = 100
Property: Molar heat capacity at constant pressure, J/K/mol (Liquid); method: Extra sensitive DSC
Temperature, K	Molar heat capacity at constant pressure, J/K/mol	uncertainty
363.15	284.4383768	13.1955948
373.15	291.7692628	13.1955948

System: lithium bromide + 1-ethyl-3-methylimidazolium chloride + water; phases: Liquid, Crystal of unknown type
Fixed: Pressure, kPa = 100
Fixed: Mass fraction of water = 0.7
Property: Solid-liquid equilibrium temperature, K (Liquid); method: Large-sample thermal analysis
Mass fraction of lithium bromide	Solid-liquid equilibrium temperature, K	uncertainty
0.7	380	20
0.6	312	20
0.55	284	20
0.5	266	20

System: lithium bromide + 1-ethyl-3-methylimidazolium chloride + water; phases: Liquid, Crystal of unknown type
Fixed: Pressure, kPa = 100
Fixed: Solvent: Mass ratio of component to other component of binary solvent of lithium bromide = 2.5
Property: Solid-liquid equilibrium temperature, K (Liquid); method: Large-sample thermal analysis
Mass fraction of water	Solid-liquid equilibrium temperature, K	uncertainty
0.3	266	20
0.29	268	20
0.28	280	20
0.27	289	20
0.26	295	20
0.25	307	21

System: lithium bromide + 1-ethyl-3-methylimidazolium chloride + water; phases: Liquid, Gas
Fixed: Solvent: Mass ratio of component to other component of binary solvent of lithium bromide = 2.5
Property: Vapor or sublimation pressure, kPa (Liquid); method: Closed cell (Static) method
Mass fraction of water	Temperature, K	Vapor or sublimation pressure, kPa	uncertainty
0.45	306.15	2.02	0.1
0.45	315.2	3.29	0.17
0.45	324.5	5.24	0.27
0.45	333.95	8.38	0.42
0.45	344.45	13.01	0.65
0.45	353.1	19.84	0.97
0.45	362.9	28.5	1.33
0.45	372.35	39.56	1.83
0.45	383.65	58.56	2.68
0.45	392.1	77.61	3.49
0.45	399.7	98.39	4.39
0.4	306.75	1.4	0.08
0.4	315.05	2.29	0.12
0.4	325.4	3.9	0.2
0.4	335.15	6.32	0.33
0.4	344.85	9.72	0.48
0.4	353.55	13.98	0.74
0.4	361.4	19.86	1.03
0.4	371.5	29.32	1.3
0.4	382.75	43.36	2.1
0.4	391.85	59.68	2.86
0.4	401.25	79.69	3.76
0.4	410.15	102.06	4.83
0.35	304.95	0.71	0.05
0.35	313.6	1.24	0.08
0.35	324.25	2.22	0.13
0.35	335.2	3.85	0.22
0.35	344.65	6.61	0.36
0.35	355.55	9.88	0.52
0.35	364.05	13.94	0.74
0.35	385.25	32.54	1.6
0.35	394.25	44.15	2.2
0.35	402.75	57.24	2.89
0.35	413.3	78.58	3.87
0.35	422.65	102.24	4.66
0.3	304.7	0.43	0.03
0.3	314.7	0.8	0.05
0.3	324.8	1.48	0.09
0.3	334.5	2.28	0.14
0.3	344.95	3.96	0.26
0.3	354.15	6.2	0.35
0.3	362.5	9.26	0.46
0.3	384.1	22.03	1.12
0.3	393.85	30.6	1.6
0.3	403.35	40.63	2.11
0.3	413.15	53.94	2.79
0.3	422.72	75.46	3.73
0.3	433.8	101.8	4.64

System: lithium bromide + 1-ethyl-3-methylimidazolium chloride + water; phases: Liquid
Fixed: Pressure, kPa = 100
Fixed: Solvent: Mass ratio of component to other component of binary solvent of lithium bromide = 2.5
Property: Molar heat capacity at constant pressure, J/K/mol (Liquid); method: Extra sensitive DSC
Mass fraction of water	Temperature, K	Molar heat capacity at constant pressure, J/K/mol	uncertainty
0.45	293.15	74.2455067705915	3.27072717051064
0.45	303.15	74.8996522046937	3.27072717051064
0.45	313.15	75.2267249217447	3.27072717051064
0.45	323.15	75.5537976387958	3.27072717051064
0.45	333.15	75.8808703558468	3.27072717051064
0.45	343.15	76.2079430728979	3.27072717051064
0.45	353.15	76.535015789949	3.27072717051064
0.45	363.15	76.862088507	3.27072717051064
0.45	373.15	77.8433066581532	3.27072717051064
0.4	293.15	75.2450874696453	3.53263321453734
0.4	303.15	75.5983507910991	3.53263321453734
0.4	313.15	75.9516141125528	3.53263321453734
0.4	323.15	76.3048774340065	3.53263321453734
0.4	333.15	76.6581407554603	3.53263321453734
0.4	343.15	77.011404076914	3.53263321453734
0.4	353.15	77.3646673983677	3.53263321453734
0.4	363.15	78.0711940412752	3.53263321453734
0.4	373.15	79.1309840056364	3.53263321453734
0.35	293.15	76.4186873048121	3.45612153639854
0.35	303.15	77.1867143129007	3.45612153639854
0.35	313.15	77.1867143129007	3.45612153639854
0.35	323.15	77.9547413209892	3.45612153639854
0.35	333.15	78.3387548250335	3.45612153639854
0.35	343.15	78.7227683290778	3.45612153639854
0.35	353.15	79.1067818331221	3.84013504044282
0.35	363.15	79.4907953371664	3.84013504044282
0.35	373.15	80.2588223452549	3.84013504044282
0.3	293.15	78.2367095814755	3.78564723781333
0.3	303.15	78.6573370523437	3.78564723781333
0.3	313.15	79.0779645232118	3.78564723781333
0.3	323.15	79.49859199408	3.78564723781333
0.3	333.15	80.3398469358163	3.78564723781333
0.3	343.15	80.7604744066844	3.78564723781333
0.3	353.15	81.1811018775526	3.78564723781333
0.3	363.15	81.6017293484207	3.78564723781333
0.3	373.15	82.8636117610252	3.78564723781333

System: lithium bromide + 1-ethyl-3-methylimidazolium chloride + water; phases: Liquid
Fixed: Pressure, kPa = 100
Fixed: Solvent: Mass ratio of component to other component of binary solvent of lithium bromide = 2.5
Property: Mass density, kg/m3 (Liquid); method: Pycnometric method
Mass fraction of water	Temperature, K	Mass density, kg/m3	uncertainty
0.45	303.15	1384	6
0.45	313.15	1378	6
0.45	323.15	1372	6
0.45	333.15	1365	6
0.45	343.15	1361	6
0.45	353.15	1356	6
0.45	363.15	1350	6
0.45	373.15	1344	6
0.4	303.35	1441	6
0.4	313.45	1436	6
0.4	323.15	1430	6
0.4	333.35	1424	6
0.4	343.35	1419	6
0.4	353.15	1413	6
0.4	363.35	1407	6
0.4	373.15	1401	6
0.35	303.15	1499	6
0.35	313.15	1493	6
0.35	323.15	1488	6
0.35	333.15	1484	6
0.35	343.15	1480	6
0.35	353.15	1472	6
0.35	363.15	1464	6
0.35	373.15	1460	6
0.3	303.15	1564	7
0.3	313.15	1557	7
0.3	323.15	1551	6
0.3	333.15	1544	6
0.3	343.15	1538	6
0.3	353.15	1531	6
0.3	363.15	1525	6
0.3	373.15	1518	6

System: lithium bromide + 1-ethyl-3-methylimidazolium chloride + water; phases: Liquid
Fixed: Pressure, kPa = 100
Fixed: Solvent: Mass ratio of component to other component of binary solvent of lithium bromide = 2.5
Property: Viscosity, Pa*s (Liquid); method: Capillary tube (Ostwald; Ubbelohde) method
Mass fraction of water	Temperature, K	Viscosity, Pa*s	uncertainty
0.45	303.15	0.004243	0.000255
0.45	313.15	0.00344	0.0002
0.45	323.15	0.00285	0.00016
0.45	333.15	0.002389	0.000133
0.45	343.15	0.00204	0.00011
0.45	353.15	0.001775	9.4e-05
0.45	363.15	0.001552	8.1e-05
0.45	373.15	0.001374	7.1e-05
0.4	303.15	0.006606	0.000449
0.4	313.15	0.005312	0.000332
0.4	323.15	0.004288	0.000255
0.4	333.15	0.003564	0.000203
0.4	343.15	0.00298	0.000165
0.4	353.15	0.002543	0.000136
0.4	363.15	0.002198	0.000115
0.4	373.15	0.001921	9.9e-05
0.35	303.15	0.012982	0.00095
0.35	313.15	0.009767	0.000694
0.35	323.15	0.00754	0.000506
0.35	333.15	0.005954	0.000384
0.35	343.15	0.004839	0.000299
0.35	353.15	0.004	0.000238
0.35	363.15	0.003362	0.000187
0.35	373.15	0.002842	0.00016
0.3	303.15	0.026948	0.001559
0.3	313.15	0.019582	0.001156
0.3	323.15	0.014396	0.000834
0.3	333.15	0.011053	0.000622
0.3	343.15	0.008639	0.000475
0.3	353.15	0.006901	0.000367
0.3	363.15	0.005399	0.000285
0.3	373.15	0.00467	0.000239

System: lithium bromide + water; phases: Liquid
Fixed: Temperature, K = 298.15
Fixed: Pressure, kPa = 100
Property: Molar enthalpy of solution, kJ/mol (Liquid); method: Power-compensation calorimetry
Mass fraction of lithium bromide	Molar enthalpy of solution, kJ/mol	uncertainty
0.465	-10.7784630125904	1.08126984694859
0.518	-11.8919127407898	1.19499817055996
0.574	-10.844105004616	1.09399535401642
0.622	-10.2613758774234	1.0339544253221

System: 1-ethyl-3-methylimidazolium chloride + water; phases: Liquid
Fixed: Temperature, K = 298.15
Fixed: Pressure, kPa = 100
Property: Molar enthalpy of solution, kJ/mol (Liquid); method: Power-compensation calorimetry
Mass fraction of 1-ethyl-3-methylimidazolium chloride	Molar enthalpy of solution, kJ/mol	uncertainty
0.264	-0.850783317352718	0.0853362159042131
0.307	-0.922309397324064	0.0934389899988827
0.358	-1.28787805653221	0.131834172997384
0.401	-1.68989161813437	0.172018239043772
