Measured thermophysical data. Solubility, Density, and Viscosity Data for the KVO3 + Fe(VO3)3 + H2O System from (293.15 to 323.15) K
Source: J. Chem. Eng. Data, 2019, 10.1021/acs.jced.9b00449
Compound 1: potassium vanadate, KO3V, InChI=1S/K.3O.V/q+1;;;-1;, purity 98%
Compound 2: iron(iii) vanadate, FeO9V3, InChI=1S/Fe.9O.3V/q+3;;;;;;;3*-1;;;, purity 98%
Compound 3: water, H2O, InChI=1S/H2O/h1H2, purity 99.9%

System: iron(iii) vanadate + potassium vanadate + water; phases: Liquid, Crystal
Fixed: Pressure, kPa = 100
Property: Molality, mol/kg of potassium vanadate (Liquid); method: spectroscopy
Temperature, K	Molality, mol/kg of iron(iii) vanadate	Molality, mol/kg of potassium vanadate	uncertainty
293.15	7.5e-05	0	0.009
293.15	7.8e-05	0.025	0.007
293.15	0.000116	0.079	0.007
293.15	0.000215	0.139	0.01
293.15	0.000377	0.211	0.014
293.15	0.000628	0.309	0.021
293.15	0.001061	0.473	0.033
293.15	0.001502	0.616	0.042
303.15	9.3e-05	0	0.027
303.15	9.8e-05	0.049	0.011
303.15	0.000111	0.089	0.005
303.15	0.000202	0.197	0.011
303.15	0.000539	0.318	0.019
303.15	0.001009	0.469	0.031
303.15	0.001262	0.544	0.035
303.15	0.001698	0.683	0.044
303.15	0.002447	0.874	0.058
313.15	0.000111	0	0.063
313.15	0.000118	0.049	0.067
313.15	0.000123	0.101	0.036
313.15	0.000126	0.155	0.038
313.15	0.000152	0.201	0.021
313.15	0.00033	0.301	0.018
313.15	0.00109	0.536	0.033
313.15	0.001866	0.766	0.051
313.15	0.002813	1.045	0.07
313.15	0.003557	1.223	0.08
323.15	0.00013	0	0.106
323.15	0.000134	0.1	0.064
323.15	0.000142	0.163	0.056
323.15	0.00016	0.206	0.017
323.15	0.000204	0.258	0.019
323.15	0.000429	0.348	0.02
323.15	0.001473	0.713	0.048
323.15	0.002939	1.258	0.093
323.15	0.00403	1.708	0.13
323.15	0.004489	1.882	0.139

System: iron(iii) vanadate + potassium vanadate + water; phases: Liquid, Crystal
Fixed: Pressure, kPa = 100
Property: Molality, mol/kg of potassium vanadate (Liquid); method: spectroscopy
Temperature, K	Molality, mol/kg of iron(iii) vanadate	Molality, mol/kg of potassium vanadate	uncertainty
293.15	0.001502	0.616	0.031
293.15	0.001371	0.615	0.031
293.15	0.001179	0.616	0.031
293.15	0.000953	0.616	0.031
293.15	0.000575	0.615	0.031
293.15	0	0.615	0.031
303.15	0.002447	0.874	0.044
303.15	0.002085	0.873	0.044
303.15	0.001751	0.874	0.044
303.15	0.001383	0.873	0.044
303.15	0.000984	0.874	0.044
303.15	0.000714	0.875	0.044
303.15	0	0.874	0.044
313.15	0.003557	1.223	0.063
313.15	0.003253	1.222	0.063
313.15	0.002679	1.222	0.062
313.15	0.001671	1.222	0.062
313.15	0.001307	1.222	0.062
313.15	0.000896	1.222	0.062
313.15	0.000476	1.223	0.062
313.15	0	1.223	0.062
323.15	0.004489	1.882	0.095
323.15	0.004077	1.882	0.095
323.15	0.002993	1.883	0.095
323.15	0.002019	1.882	0.095
323.15	0.001429	1.882	0.095
323.15	0.000882	1.882	0.095
323.15	0.000674	1.883	0.095
323.15	0	1.884	0.095

System: iron(iii) vanadate + potassium vanadate + water; phases: Liquid
Fixed: Pressure, kPa = 100
Property: Mass density, kg/m3 (Liquid); method: Pycnometric method
Temperature, K	Molality, mol/kg of iron(iii) vanadate	Molality, mol/kg of potassium vanadate	Mass density, kg/m3	uncertainty
293.15	7.5e-05	0	998	10
293.15	7.8e-05	0.025	999	10
293.15	0.000116	0.079	1005	10
293.15	0.000215	0.139	1011	10
293.15	0.000377	0.211	1017	10
293.15	0.000628	0.309	1028	10
293.15	0.001061	0.473	1044	11
293.15	0.001502	0.616	1061	12
293.15	0.001371	0.615	1062	11
293.15	0.001179	0.616	1062	11
293.15	0.000953	0.616	1063	11
293.15	0.000575	0.615	1064	11
293.15	0	0.615	1063	11
303.15	9.3e-05	0	996	10
303.15	9.8e-05	0.049	999	10
303.15	0.000111	0.089	1004	10
303.15	0.000202	0.197	1016	10
303.15	0.000539	0.318	1026	10
303.15	0.001009	0.469	1041	11
303.15	0.001262	0.544	1048	11
303.15	0.001698	0.683	1062	11
303.15	0.002447	0.874	1080	12
303.15	0.002085	0.873	1081	12
303.15	0.001751	0.874	1081	12
303.15	0.001383	0.873	1082	12
303.15	0.000984	0.874	1082	12
303.15	0.000714	0.875	1083	12
303.15	0	0.874	1083	12
313.15	0.000111	0	994	10
313.15	0.000118	0.049	998	10
313.15	0.000123	0.101	1003	10
313.15	0.000126	0.155	1008	10
313.15	0.000152	0.201	1013	10
313.15	0.00033	0.301	1023	10
313.15	0.00109	0.536	1043	11
313.15	0.001866	0.766	1065	12
313.15	0.002813	1.045	1091	14
313.15	0.003557	1.223	1119	13
313.15	0.003253	1.222	1120	15
313.15	0.002679	1.222	1122	15
313.15	0.001671	1.222	1123	14
313.15	0.001307	1.222	1124	13
313.15	0.000896	1.222	1125	13
313.15	0.000476	1.223	1125	13
313.15	0	1.223	1126	13
323.15	0.00013	0	989	10
323.15	0.000134	0.1	1000	10
323.15	0.000142	0.163	1003	10
323.15	0.00016	0.206	1007	10
323.15	0.000204	0.258	1016	11
323.15	0.000429	0.348	1021	10
323.15	0.001473	0.713	1057	11
323.15	0.002939	1.258	1103	13
323.15	0.00403	1.708	1143	16
323.15	0.004489	1.882	1165	17
323.15	0.004077	1.882	1166	17
323.15	0.002993	1.883	1166	15
323.15	0.002019	1.882	1168	15
323.15	0.001429	1.882	1168	15
323.15	0.000882	1.882	1169	15
323.15	0.000674	1.883	1170	15
323.15	0	1.884	1171	15

System: iron(iii) vanadate + potassium vanadate + water; phases: Liquid
Fixed: Pressure, kPa = 100
Property: Kinematic viscosity, m2/s (Liquid); method: Capillary tube (Ostwald; Ubbelohde) method
Temperature, K	Molality, mol/kg of iron(iii) vanadate	Molality, mol/kg of potassium vanadate	Kinematic viscosity, m2/s	uncertainty
293.15	7.5e-05	0	1.004e-06	1.2e-08
293.15	7.8e-05	0.025	1.005e-06	1.2e-08
293.15	0.000116	0.079	1.007e-06	1.2e-08
293.15	0.000215	0.139	1.01e-06	1.2e-08
293.15	0.000377	0.211	1.013e-06	1.2e-08
293.15	0.000628	0.309	1.017e-06	1.2e-08
293.15	0.001061	0.473	1.024e-06	1.2e-08
293.15	0.001502	0.616	1.031e-06	1.3e-08
293.15	0.001371	0.615	1.03e-06	1.3e-08
293.15	0.001179	0.616	1.029e-06	1.3e-08
293.15	0.000953	0.616	1.03e-06	1.3e-08
293.15	0.000575	0.615	1.029e-06	1.3e-08
293.15	0	0.615	1.028e-06	1.3e-08
303.15	9.3e-05	0	8.01e-07	1e-08
303.15	9.8e-05	0.049	8.04e-07	1e-08
303.15	0.000111	0.089	8.06e-07	1.1e-08
303.15	0.000202	0.197	8.11e-07	1e-08
303.15	0.000539	0.318	8.17e-07	1e-08
303.15	0.001009	0.469	8.27e-07	1e-08
303.15	0.001262	0.544	8.3e-07	1.2e-08
303.15	0.001698	0.683	8.37e-07	1.1e-08
303.15	0.002447	0.874	8.49e-07	1.1e-08
303.15	0.002085	0.873	8.49e-07	1.1e-08
303.15	0.001751	0.874	8.49e-07	1.1e-08
303.15	0.001383	0.873	8.5e-07	1.1e-08
303.15	0.000984	0.874	8.5e-07	1.1e-08
303.15	0.000714	0.875	8.5e-07	1.1e-08
303.15	0	0.874	8.5e-07	1.1e-08
313.15	0.000111	0	6.6e-07	8e-09
313.15	0.000118	0.049	6.63e-07	8e-09
313.15	0.000123	0.101	6.67e-07	8e-09
313.15	0.000126	0.155	6.69e-07	9e-09
313.15	0.000152	0.201	6.71e-07	9e-09
313.15	0.00033	0.301	6.75e-07	8e-09
313.15	0.00109	0.536	6.86e-07	9e-09
313.15	0.001866	0.766	6.95e-07	1e-08
313.15	0.002813	1.045	7.1e-07	1.5e-08
313.15	0.003557	1.223	7.5e-07	1.5e-08
313.15	0.003253	1.222	7.5e-07	1.7e-08
313.15	0.002679	1.222	7.51e-07	1.7e-08
313.15	0.001671	1.222	7.51e-07	1.2e-08
313.15	0.001307	1.222	7.51e-07	1.1e-08
313.15	0.000896	1.222	7.51e-07	1.1e-08
313.15	0.000476	1.223	7.51e-07	1e-08
313.15	0	1.223	7.51e-07	1e-08
323.15	0.00013	0	5.57e-07	7e-09
323.15	0.000134	0.1	5.64e-07	7e-09
323.15	0.000142	0.163	5.67e-07	7e-09
323.15	0.00016	0.206	5.67e-07	7e-09
323.15	0.000204	0.258	5.71e-07	7e-09
323.15	0.000429	0.348	5.74e-07	8e-09
323.15	0.001473	0.713	5.93e-07	9e-09
323.15	0.002939	1.258	6.21e-07	1.4e-08
323.15	0.00403	1.708	6.76e-07	3.2e-08
323.15	0.004489	1.882	7.37e-07	3.5e-08
323.15	0.004077	1.882	7.38e-07	3.5e-08
323.15	0.002993	1.883	7.4e-07	2e-08
323.15	0.002019	1.882	7.4e-07	1.5e-08
323.15	0.001429	1.882	7.4e-07	1.5e-08
323.15	0.000882	1.882	7.41e-07	1.5e-08
323.15	0.000674	1.883	7.41e-07	1.5e-08
323.15	0	1.884	7.42e-07	1.4e-08

System: iron(iii) vanadate + water; phases: Liquid, Crystal
Fixed: Pressure, kPa = 100
Property: Solid-liquid equilibrium temperature, K (Liquid); method: spectroscopy
Molality, mol/kg of iron(iii) vanadate	Solid-liquid equilibrium temperature, K	uncertainty
7.5e-05	293.15	2.53
9.3e-05	303.15	3.13
0.000111	313.15	3.62
0.00013	323.15	4.13

System: iron(iii) vanadate + water; phases: Liquid
Fixed: Pressure, kPa = 100
Property: Mass density, kg/m3 (Liquid); method: Pycnometric method
Temperature, K	Molality, mol/kg of iron(iii) vanadate	Mass density, kg/m3	uncertainty
293.15	7.5e-05	998	10
303.15	9.3e-05	996	10
313.15	0.000111	994	22
323.15	0.00013	989	10

System: iron(iii) vanadate + water; phases: Liquid
Fixed: Pressure, kPa = 100
Property: Kinematic viscosity, m2/s (Liquid); method: Capillary tube (Ostwald; Ubbelohde) method
Temperature, K	Molality, mol/kg of iron(iii) vanadate	Kinematic viscosity, m2/s	uncertainty
293.15	7.5e-05	1.004e-06	1.2e-08
303.15	9.3e-05	8.01e-07	1e-08
313.15	0.000111	6.6e-07	2.54e-07
323.15	0.00013	5.57e-07	7e-09

System: potassium vanadate + water; phases: Liquid, Crystal
Fixed: Pressure, kPa = 100
Property: Molality, mol/kg of potassium vanadate (Liquid); method: spectroscopy
Temperature, K	Molality, mol/kg of potassium vanadate	uncertainty
293.15	0.615	0.031
303.15	0.874	0.044
313.15	1.223	0.062
323.15	1.884	0.095

System: potassium vanadate + water; phases: Liquid
Fixed: Pressure, kPa = 100
Property: Mass density, kg/m3 (Liquid); method: Pycnometric method
Temperature, K	Molality, mol/kg of potassium vanadate	Mass density, kg/m3	uncertainty
293.15	0.615	1063	11
303.15	0.874	1083	16
313.15	1.223	1126	11
323.15	1.884	1171	12

System: potassium vanadate + water; phases: Liquid
Fixed: Pressure, kPa = 100
Property: Kinematic viscosity, m2/s (Liquid); method: Capillary tube (Ostwald; Ubbelohde) method
Temperature, K	Molality, mol/kg of potassium vanadate	Kinematic viscosity, m2/s	uncertainty
293.15	0.615	1.028e-06	1.2e-08
303.15	0.874	8.5e-07	4e-08
313.15	1.223	7.51e-07	2e-08
323.15	1.884	7.42e-07	3.6e-08
