Measured thermophysical data. Solvation of Basic and Neutral Amino Acids in Aqueous Electrolytic Solutions: Measurements and Modeling
Source: J. Chem. Eng. Data, 2015, 10.1021/acs.jced.5b00393
Compound 1: (R)-2-amino-3-mercaptopropanoic acid, C3H7NO2S, InChI=1S/C3H7NO2S/c4-2(1-7)3(5)6/h2,7H,1,4H2,(H,5,6)/t2-/m0/s1
Compound 2: L-lysine, C6H14N2O2, InChI=1S/C6H14N2O2/c7-4-2-1-3-5(8)6(9)10/h5H,1-4,7-8H2,(H,9,10)/t5-/m0/s1
Compound 3: sodium sulfate, Na2O4S, InChI=1S/2Na.H2O4S/c;;1-5(2,3)4/h;;(H2,1,2,3,4)/q2*+1;/p-2
Compound 4: calcium chloride, CaCl2, InChI=1S/Ca.2ClH/h;2*1H/q+2;;/p-2
Compound 5: potassium iodide, IK, InChI=1S/HI.K/h1H;/q;+1/p-1
Compound 6: sodium bromide, BrNa, InChI=1S/BrH.Na/h1H;/q;+1/p-1
Compound 7: sodium chloride, ClNa, InChI=1S/ClH.Na/h1H;/q;+1/p-1
Compound 8: water, H2O, InChI=1S/H2O/h1H2, purity 99.8%

System: (R)-2-amino-3-mercaptopropanoic acid + sodium bromide + water; phases: Liquid, Crystal
Fixed: Temperature, K = 298.15
Fixed: Pressure, kPa = 101
Property: Molality, mol/kg of (R)-2-amino-3-mercaptopropanoic acid (Liquid); method: gravimetric
Solvent: Molality, mol/kg of sodium bromide	Molality, mol/kg of (R)-2-amino-3-mercaptopropanoic acid	uncertainty
0	1.8212	0.0055
0.05	2.4437	0.0114
0.1	2.6963	0.0129
0.5	2.7115	0.0082
1	2.7906	0.0089

System: (R)-2-amino-3-mercaptopropanoic acid + sodium bromide + water; phases: Liquid
Fixed: Temperature, K = 298.15
Fixed: Pressure, kPa = 101
Property: Mass density, kg/m3 (Liquid); method: Pycnometric method
Molality, mol/kg of (R)-2-amino-3-mercaptopropanoic acid	Solvent: Molality, mol/kg of sodium bromide	Mass density, kg/m3	uncertainty
1.8212	0	1074.1	1
2.4437	0.05	1107.2	1
2.6963	0.1	1128.7	1.1
2.7115	0.5	1130.5	1.1
2.7906	1	1140.1	1.1

System: (R)-2-amino-3-mercaptopropanoic acid + sodium bromide + water; phases: Liquid
Fixed: Temperature, K = 298.15
Fixed: Pressure, kPa = 101
Property: Refractive index (Na D-line) (Liquid); method: Standard Abbe refractometry
Molality, mol/kg of (R)-2-amino-3-mercaptopropanoic acid	Solvent: Molality, mol/kg of sodium bromide	Refractive index (Na D-line)	uncertainty
1.8212	0	1.3439	0.0004
2.4437	0.05	1.3467	0.0004
2.6963	0.1	1.3495	0.0004
2.7115	0.5	1.3559	0.0004
2.7906	1	1.3608	0.0004

System: L-lysine + sodium bromide + water; phases: Liquid, Crystal
Fixed: Temperature, K = 298.15
Fixed: Pressure, kPa = 101
Property: Molality, mol/kg of L-lysine (Liquid); method: gravimetric
Solvent: Molality, mol/kg of sodium bromide	Molality, mol/kg of L-lysine	uncertainty
0	4.7339	0.0142
0.05	4.7326	0.0142
0.1	4.7202	0.0142
0.5	4.4835	0.0148
1	4.1721	0.0177

System: L-lysine + sodium bromide + water; phases: Liquid
Fixed: Temperature, K = 298.15
Fixed: Pressure, kPa = 101
Property: Mass density, kg/m3 (Liquid); method: Pycnometric method
Molality, mol/kg of L-lysine	Solvent: Molality, mol/kg of sodium bromide	Mass density, kg/m3	uncertainty
4.7339	0	1242.1	1.2
4.7326	0.05	1241.9	1.2
4.7202	0.1	1240.1	1.2
4.4835	0.5	1230.6	1.2
4.1721	1	1215	1.2

System: L-lysine + sodium bromide + water; phases: Liquid
Fixed: Temperature, K = 298.15
Fixed: Pressure, kPa = 101
Property: Refractive index (Na D-line) (Liquid); method: Standard Abbe refractometry
Molality, mol/kg of L-lysine	Solvent: Molality, mol/kg of sodium bromide	Refractive index (Na D-line)	uncertainty
4.7339	0	1.4155	0.0004
4.7326	0.05	1.4155	0.0004
4.7202	0.1	1.4176	0.0007
4.4835	0.5	1.4139	0.0005
4.1721	1	1.4134	0.0004

System: (R)-2-amino-3-mercaptopropanoic acid + sodium chloride + water; phases: Liquid, Crystal
Fixed: Temperature, K = 298.15
Fixed: Pressure, kPa = 101
Property: Molality, mol/kg of (R)-2-amino-3-mercaptopropanoic acid (Liquid); method: gravimetric
Solvent: Molality, mol/kg of sodium chloride	Molality, mol/kg of (R)-2-amino-3-mercaptopropanoic acid	uncertainty
0	1.8212	0.0055
0.05	1.8626	0.0063
0.1	2.1035	0.0115
0.5	2.202	0.0078
1	2.4689	0.013

System: (R)-2-amino-3-mercaptopropanoic acid + sodium chloride + water; phases: Liquid
Fixed: Temperature, K = 298.15
Fixed: Pressure, kPa = 101
Property: Mass density, kg/m3 (Liquid); method: Pycnometric method
Molality, mol/kg of (R)-2-amino-3-mercaptopropanoic acid	Solvent: Molality, mol/kg of sodium chloride	Mass density, kg/m3	uncertainty
1.8212	0	1074.1	1.2
1.8626	0.05	1090	1.1
2.1035	0.1	1112.2	1.2
2.202	0.5	1129	1.2
2.4689	1	1132.8	1.2

System: (R)-2-amino-3-mercaptopropanoic acid + sodium chloride + water; phases: Liquid
Fixed: Temperature, K = 298.15
Fixed: Pressure, kPa = 101
Property: Refractive index (Na D-line) (Liquid); method: Standard Abbe refractometry
Molality, mol/kg of (R)-2-amino-3-mercaptopropanoic acid	Solvent: Molality, mol/kg of sodium chloride	Refractive index (Na D-line)	uncertainty
1.8212	0	1.3439	0.0004
1.8626	0.05	1.3457	0.0004
2.1035	0.1	1.3485	0.0004
2.202	0.5	1.3553	0.0004
2.4689	1	1.3594	0.0004

System: L-lysine + sodium chloride + water; phases: Liquid, Crystal
Fixed: Temperature, K = 298.15
Fixed: Pressure, kPa = 101
Property: Molality, mol/kg of L-lysine (Liquid); method: gravimetric
Solvent: Molality, mol/kg of sodium chloride	Molality, mol/kg of L-lysine	uncertainty
0	4.7339	0.0142
0.05	4.1851	0.0138
0.1	4.1646	0.0125
0.5	4.0479	0.0123
1	3.9724	0.0123

System: L-lysine + sodium chloride + water; phases: Liquid
Fixed: Temperature, K = 298.15
Fixed: Pressure, kPa = 101
Property: Mass density, kg/m3 (Liquid); method: Pycnometric method
Molality, mol/kg of L-lysine	Solvent: Molality, mol/kg of sodium chloride	Mass density, kg/m3	uncertainty
4.7339	0	1242.1	1.2
4.1851	0.05	1143.5	1.2
4.1646	0.1	1140	1.2
4.0479	0.5	1131.6	1.2
3.9724	1	1122.1	1.2

System: L-lysine + sodium chloride + water; phases: Liquid
Fixed: Temperature, K = 298.15
Fixed: Pressure, kPa = 101
Property: Refractive index (Na D-line) (Liquid); method: Standard Abbe refractometry
Molality, mol/kg of L-lysine	Solvent: Molality, mol/kg of sodium chloride	Refractive index (Na D-line)	uncertainty
4.7339	0	1.4155	0.0004
4.1851	0.05	1.4126	0.0004
4.1646	0.1	1.4124	0.0004
4.0479	0.5	1.4114	0.0004
3.9724	1	1.4114	0.0004

System: (R)-2-amino-3-mercaptopropanoic acid + potassium iodide + water; phases: Liquid, Crystal
Fixed: Temperature, K = 298.15
Fixed: Pressure, kPa = 101
Property: Molality, mol/kg of (R)-2-amino-3-mercaptopropanoic acid (Liquid); method: gravimetric
Solvent: Molality, mol/kg of potassium iodide	Molality, mol/kg of (R)-2-amino-3-mercaptopropanoic acid	uncertainty
0	1.8212	0.0055
0.05	2.2078	0.0077
0.1	2.2081	0.0066
0.5	2.3597	0.0082
1	2.5836	0.0118

System: (R)-2-amino-3-mercaptopropanoic acid + potassium iodide + water; phases: Liquid
Fixed: Temperature, K = 298.15
Fixed: Pressure, kPa = 101
Property: Mass density, kg/m3 (Liquid); method: Pycnometric method
Molality, mol/kg of (R)-2-amino-3-mercaptopropanoic acid	Solvent: Molality, mol/kg of potassium iodide	Mass density, kg/m3	uncertainty
1.8212	0	1074.1	1.2
2.2078	0.05	1079.7	1.2
2.2081	0.1	1088.7	1.2
2.3597	0.5	1098	1.2
2.5836	1	1116	1.2

System: (R)-2-amino-3-mercaptopropanoic acid + potassium iodide + water; phases: Liquid
Fixed: Temperature, K = 298.15
Fixed: Pressure, kPa = 101
Property: Refractive index (Na D-line) (Liquid); method: Standard Abbe refractometry
Molality, mol/kg of (R)-2-amino-3-mercaptopropanoic acid	Solvent: Molality, mol/kg of potassium iodide	Refractive index (Na D-line)	uncertainty
1.8212	0	1.3439	0.0004
2.2078	0.05	1.3493	0.0004
2.2081	0.1	1.3522	0.0004
2.3597	0.5	1.3619	0.0004
2.5836	1	1.3704	0.0004

System: L-lysine + potassium iodide + water; phases: Liquid, Crystal
Fixed: Temperature, K = 298.15
Fixed: Pressure, kPa = 101
Property: Molality, mol/kg of L-lysine (Liquid); method: gravimetric
Solvent: Molality, mol/kg of potassium iodide	Molality, mol/kg of L-lysine	uncertainty
0	4.7339	0.0142
0.05	4.4163	0.0136
0.1	4.4142	0.0132
0.5	4.3119	0.0134
1	4.1087	0.0148

System: L-lysine + potassium iodide + water; phases: Liquid
Fixed: Temperature, K = 298.15
Fixed: Pressure, kPa = 101
Property: Mass density, kg/m3 (Liquid); method: Pycnometric method
Molality, mol/kg of L-lysine	Solvent: Molality, mol/kg of potassium iodide	Mass density, kg/m3	uncertainty
4.7339	0	1242.1	1.3
4.4163	0.05	1195.8	1.2
4.4142	0.1	1185.5	1.2
4.3119	0.5	1175.2	1.2
4.1087	1	1164.7	1.2

System: L-lysine + potassium iodide + water; phases: Liquid
Fixed: Temperature, K = 298.15
Fixed: Pressure, kPa = 101
Property: Refractive index (Na D-line) (Liquid); method: Standard Abbe refractometry
Molality, mol/kg of L-lysine	Solvent: Molality, mol/kg of potassium iodide	Refractive index (Na D-line)	uncertainty
4.7339	0	1.4155	0.0004
4.4163	0.05	1.4174	0.0004
4.4142	0.1	1.4176	0.0004
4.3119	0.5	1.421	0.0004
4.1087	1	1.4238	0.0004

System: (R)-2-amino-3-mercaptopropanoic acid + water + sodium sulfate; phases: Liquid, Crystal
Fixed: Temperature, K = 298.15
Fixed: Pressure, kPa = 101
Property: Molality, mol/kg of (R)-2-amino-3-mercaptopropanoic acid (Liquid); method: gravimetric
Solvent: Molality, mol/kg of sodium sulfate	Molality, mol/kg of (R)-2-amino-3-mercaptopropanoic acid	uncertainty
0	1.8212	0.0055
0.05	2.5182	0.0076
0.1	2.5979	0.0078
0.5	2.6007	0.0078
1	2.6222	0.0079

System: (R)-2-amino-3-mercaptopropanoic acid + water + sodium sulfate; phases: Liquid
Fixed: Temperature, K = 298.15
Fixed: Pressure, kPa = 101
Property: Mass density, kg/m3 (Liquid); method: Pycnometric method
Molality, mol/kg of (R)-2-amino-3-mercaptopropanoic acid	Solvent: Molality, mol/kg of sodium sulfate	Mass density, kg/m3	uncertainty
1.8212	0	1074.1	1.2
2.5182	0.05	1098.2	1.2
2.5979	0.1	1107.4	1.2
2.6007	0.5	1177.5	1.2
2.6222	1	1188.1	1.2

System: (R)-2-amino-3-mercaptopropanoic acid + water + sodium sulfate; phases: Liquid
Fixed: Temperature, K = 298.15
Fixed: Pressure, kPa = 101
Property: Refractive index (Na D-line) (Liquid); method: Standard Abbe refractometry
Molality, mol/kg of (R)-2-amino-3-mercaptopropanoic acid	Solvent: Molality, mol/kg of sodium sulfate	Refractive index (Na D-line)	uncertainty
1.8212	0	1.3439	0.0004
2.5182	0.05	1.3486	0.0004
2.5979	0.1	1.3511	0.0004
2.6007	0.5	1.3588	0.0004
2.6222	1	1.3682	0.0004

System: L-lysine + water + sodium sulfate; phases: Liquid, Crystal
Fixed: Temperature, K = 298.15
Fixed: Pressure, kPa = 101
Property: Molality, mol/kg of L-lysine (Liquid); method: gravimetric
Solvent: Molality, mol/kg of sodium sulfate	Molality, mol/kg of L-lysine	uncertainty
0	4.7339	0.0142
0.05	4.7127	0.0141
0.1	4.6791	0.014
0.5	4.4664	0.0134
1	4.1389	0.0124

System: L-lysine + water + sodium sulfate; phases: Liquid
Fixed: Temperature, K = 298.15
Fixed: Pressure, kPa = 101
Property: Mass density, kg/m3 (Liquid); method: Pycnometric method
Molality, mol/kg of L-lysine	Solvent: Molality, mol/kg of sodium sulfate	Mass density, kg/m3	uncertainty
4.7339	0	1242.1	1.3
4.7127	0.05	1239	1.3
4.6791	0.1	1234.1	1.2
4.4664	0.5	1213.1	1.2
4.1389	1	1196.1	1.2

System: L-lysine + water + sodium sulfate; phases: Liquid
Fixed: Temperature, K = 298.15
Fixed: Pressure, kPa = 101
Property: Refractive index (Na D-line) (Liquid); method: Standard Abbe refractometry
Molality, mol/kg of L-lysine	Solvent: Molality, mol/kg of sodium sulfate	Refractive index (Na D-line)	uncertainty
4.7339	0	1.4155	0.0013
4.7127	0.05	1.4171	0.0013
4.6791	0.1	1.4147	0.0013
4.4664	0.5	1.4163	0.0004
4.1389	1	1.4202	0.0004

System: (R)-2-amino-3-mercaptopropanoic acid + water + calcium chloride; phases: Liquid, Crystal
Fixed: Temperature, K = 298.15
Fixed: Pressure, kPa = 101
Property: Molality, mol/kg of (R)-2-amino-3-mercaptopropanoic acid (Liquid); method: gravimetric
Solvent: Molality, mol/kg of calcium chloride	Molality, mol/kg of (R)-2-amino-3-mercaptopropanoic acid	uncertainty
0	1.8212	0.0055
0.05	3.0166	0.009
0.1	3.0953	0.0093
0.5	3.1006	0.0093
1	3.1051	0.0093

System: (R)-2-amino-3-mercaptopropanoic acid + water + calcium chloride; phases: Liquid
Fixed: Temperature, K = 298.15
Fixed: Pressure, kPa = 101
Property: Mass density, kg/m3 (Liquid); method: Pycnometric method
Molality, mol/kg of (R)-2-amino-3-mercaptopropanoic acid	Solvent: Molality, mol/kg of calcium chloride	Mass density, kg/m3	uncertainty
1.8212	0	1074.1	1.2
3.0166	0.05	1167.4	1.2
3.0953	0.1	1176.9	1.2
3.1006	0.5	1187.5	1.2
3.1051	1	1198.1	1.2

System: (R)-2-amino-3-mercaptopropanoic acid + water + calcium chloride; phases: Liquid
Fixed: Temperature, K = 298.15
Fixed: Pressure, kPa = 101
Property: Refractive index (Na D-line) (Liquid); method: Standard Abbe refractometry
Molality, mol/kg of (R)-2-amino-3-mercaptopropanoic acid	Solvent: Molality, mol/kg of calcium chloride	Refractive index (Na D-line)	uncertainty
1.8212	0	1.3439	0.0004
3.0166	0.05	1.3497	0.0004
3.0953	0.1	1.3494	0.0004
3.1006	0.5	1.3577	0.0004
3.1051	1	1.3667	0.0004

System: L-lysine + water + calcium chloride; phases: Liquid, Crystal
Fixed: Temperature, K = 298.15
Fixed: Pressure, kPa = 101
Property: Molality, mol/kg of L-lysine (Liquid); method: gravimetric
Solvent: Molality, mol/kg of calcium chloride	Molality, mol/kg of L-lysine	uncertainty
0	4.7339	0.0142
0.05	4.0575	0.0122
0.1	4.0335	0.0121
0.5	3.9759	0.0119
1	3.8361	0.0115

System: L-lysine + water + calcium chloride; phases: Liquid
Fixed: Temperature, K = 298.15
Fixed: Pressure, kPa = 101
Property: Mass density, kg/m3 (Liquid); method: Pycnometric method
Molality, mol/kg of L-lysine	Solvent: Molality, mol/kg of calcium chloride	Mass density, kg/m3	uncertainty
4.7339	0	1242.1	1.3
4.0575	0.05	1162.1	1.2
4.0335	0.1	1159.1	1.2
3.9759	0.5	1142.1	1.2
3.8361	1	1131.1	1.2

System: L-lysine + water + calcium chloride; phases: Liquid
Fixed: Temperature, K = 298.15
Fixed: Pressure, kPa = 101
Property: Refractive index (Na D-line) (Liquid); method: Standard Abbe refractometry
Molality, mol/kg of L-lysine	Solvent: Molality, mol/kg of calcium chloride	Refractive index (Na D-line)	uncertainty
4.7339	0	1.4155	0.0004
4.0575	0.05	1.4172	0.0004
4.0335	0.1	1.4146	0.0004
3.9759	0.5	1.4172	0.0004
3.8361	1	1.4203	0.0004

System: (R)-2-amino-3-mercaptopropanoic acid + water; phases: Liquid, Crystal
Property: Molality, mol/kg of (R)-2-amino-3-mercaptopropanoic acid (Liquid); method: gravimetric
Temperature, K	Pressure, kPa	Molality, mol/kg of (R)-2-amino-3-mercaptopropanoic acid	uncertainty
298.15	101	1.8212	0.0055

System: (R)-2-amino-3-mercaptopropanoic acid + water; phases: Liquid
Property: Mass density, kg/m3 (Liquid); method: Pycnometric method
Molality, mol/kg of (R)-2-amino-3-mercaptopropanoic acid	Temperature, K	Pressure, kPa	Mass density, kg/m3	uncertainty
1.8212	298.15	101	1074.1	1.1

System: (R)-2-amino-3-mercaptopropanoic acid + water; phases: Liquid
Property: Refractive index (Na D-line) (Liquid); method: Standard Abbe refractometry
Molality, mol/kg of (R)-2-amino-3-mercaptopropanoic acid	Temperature, K	Pressure, kPa	Refractive index (Na D-line)	uncertainty
1.8212	298.15	101	1.3439	0.0004

System: L-lysine + water; phases: Liquid, Crystal
Property: Molality, mol/kg of L-lysine (Liquid); method: gravimetric
Temperature, K	Pressure, kPa	Molality, mol/kg of L-lysine	uncertainty
298.15	101	4.7339	0.0142

System: L-lysine + water; phases: Liquid
Property: Mass density, kg/m3 (Liquid); method: Pycnometric method
Molality, mol/kg of L-lysine	Temperature, K	Pressure, kPa	Mass density, kg/m3	uncertainty
4.7339	298.15	101	1242.1	1.1

System: L-lysine + water; phases: Liquid
Property: Refractive index (Na D-line) (Liquid); method: Standard Abbe refractometry
Molality, mol/kg of L-lysine	Temperature, K	Pressure, kPa	Refractive index (Na D-line)	uncertainty
4.7339	298.15	101	1.4155	0.0004
