Measured thermophysical data. Solubility of Squalene and Fatty Acids in Carbon Dioxide at Supercritical Conditions: Binary and Ternary Systems
Source: J. Chem. Eng. Data, 2018, 10.1021/acs.jced.7b00620
Compound 1: 2,6,10,14,18,22-tetracosahexaene, 2,6,10,15,19,23-hexamethyl-, (all-E)-, C30H50, InChI=1S/C30H50/c1-25(2)15-11-19-29(7)23-13-21-27(5)17-9-10-18-28(6)22-14-24-30(8)20-12-16-26(3)4/h15-18,23-24H,9-14,19-22H2,1-8H3/b27-17+,28-18+,29-23+,30-24+
Compound 2: hexadecanoic acid, C16H32O2, InChI=1S/C16H32O2/c1-2-3-4-5-6-7-8-9-10-11-12-13-14-15-16(17)18/h2-15H2,1H3,(H,17,18)
Compound 3: (Z)-9-octadecenoic acid, C18H34O2, InChI=1S/C18H34O2/c1-2-3-4-5-6-7-8-9-10-11-12-13-14-15-16-17-18(19)20/h9-10H,2-8,11-17H2,1H3,(H,19,20)/b10-9-
Compound 4: carbon dioxide, CO2, InChI=1S/CO2/c2-1-3

System: carbon dioxide + 2,6,10,14,18,22-tetracosahexaene, 2,6,10,15,19,23-hexamethyl-, (all-E)-; phases: Fluid (supercritical or subcritical phases), Liquid
Property: Mole fraction of 2,6,10,14,18,22-tetracosahexaene, 2,6,10,15,19,23-hexamethyl-, (all-E)- (Fluid (supercritical or subcritical phases)); method: Chromatography
Temperature, K	Pressure, kPa	Mole fraction of 2,6,10,14,18,22-tetracosahexaene, 2,6,10,15,19,23-hexamethyl-, (all-E)-	uncertainty
312.95	13500	0.0013544	0.0002712
312.95	16030	0.0019854	0.0003974
312.95	19420	0.0027907	0.0005586
312.95	25000	0.0041163	0.0008238
324.05	10160	0.0001325	2.81e-05
324.05	15420	0.0013531	0.000271

System: carbon dioxide + hexadecanoic acid; phases: Fluid (supercritical or subcritical phases), Crystal
Fixed: Temperature, K = 313.3
Property: Mole fraction of hexadecanoic acid (Fluid (supercritical or subcritical phases)); method: Chromatography
Pressure, kPa	Mole fraction of hexadecanoic acid	uncertainty
10020	0.0001715	3.44e-05
15010	0.0005305	0.0001061
20390	0.0007942	0.0001589
25140	0.0010153	0.0002031
30190	0.0011904	0.0002381

System: carbon dioxide + 2,6,10,14,18,22-tetracosahexaene, 2,6,10,15,19,23-hexamethyl-, (all-E)- + (Z)-9-octadecenoic acid; phases: Fluid (supercritical or subcritical phases), Liquid
Fixed: Mole fraction of 2,6,10,14,18,22-tetracosahexaene, 2,6,10,15,19,23-hexamethyl-, (all-E)- = 0.4138
Property: Mole fraction of 2,6,10,14,18,22-tetracosahexaene, 2,6,10,15,19,23-hexamethyl-, (all-E)- (Fluid (supercritical or subcritical phases)); method: Chromatography
Temperature, K	Pressure, kPa	Mole fraction of 2,6,10,14,18,22-tetracosahexaene, 2,6,10,15,19,23-hexamethyl-, (all-E)-	uncertainty
313.31	11050	0.000222	1.3e-05
313.31	14830	0.000805	4.2e-05
313.31	20000	0.001433	7.4e-05
313.31	25020	0.001956	0.000101
313.31	29980	0.002386	0.000123
323.29	12850	0.000167	1.1e-05
323.29	14980	0.000499	2.6e-05
323.29	20090	0.001104	5.7e-05
323.29	24980	0.001614	8.3e-05
323.29	29920	0.002043	0.000105
333.18	12970	1e-06	1e-06
333.18	15100	0.000333	1.8e-05
333.18	19980	0.000856	4.4e-05
333.18	25010	0.001424	7.3e-05
333.18	29990	0.001889	9.7e-05

System: carbon dioxide + 2,6,10,14,18,22-tetracosahexaene, 2,6,10,15,19,23-hexamethyl-, (all-E)- + (Z)-9-octadecenoic acid; phases: Fluid (supercritical or subcritical phases), Liquid
Fixed: Mole fraction of 2,6,10,14,18,22-tetracosahexaene, 2,6,10,15,19,23-hexamethyl-, (all-E)- = 0.4138
Property: Mole fraction of (Z)-9-octadecenoic acid (Fluid (supercritical or subcritical phases)); method: Chromatography
Temperature, K	Pressure, kPa	Mole fraction of (Z)-9-octadecenoic acid	uncertainty
313.31	11050	0.000126	9e-06
313.31	14830	0.000679	3.5e-05
313.31	20000	0.001367	7.1e-05
313.31	25020	0.002053	0.000106
313.31	29980	0.002577	0.000133
323.29	12850	6.5e-05	7e-06
323.29	14980	0.000412	2.2e-05
323.29	20090	0.001144	5.9e-05
323.29	24980	0.001788	9.2e-05
323.29	29920	0.002311	0.000119
333.18	12970	1e-07	1e-07
333.18	15100	0.000316	1.7e-05
333.18	19980	0.000847	4.4e-05
333.18	25010	0.001398	7.2e-05
333.18	29990	0.001806	9.3e-05

System: carbon dioxide + 2,6,10,14,18,22-tetracosahexaene, 2,6,10,15,19,23-hexamethyl-, (all-E)- + hexadecanoic acid; phases: Fluid (supercritical or subcritical phases), Liquid
Fixed: Mole fraction of 2,6,10,14,18,22-tetracosahexaene, 2,6,10,15,19,23-hexamethyl-, (all-E)- = 0.4208
Property: Mole fraction of 2,6,10,14,18,22-tetracosahexaene, 2,6,10,15,19,23-hexamethyl-, (all-E)- (Fluid (supercritical or subcritical phases)); method: Chromatography
Temperature, K	Pressure, kPa	Mole fraction of 2,6,10,14,18,22-tetracosahexaene, 2,6,10,15,19,23-hexamethyl-, (all-E)-	uncertainty
314.47	9980	0.000273	1.8e-05
314.47	15100	0.001689	8.8e-05
314.47	20250	0.002901	0.00015
314.47	24990	0.003911	0.000202
314.47	29990	0.004778	0.000246
324.28	10020	0.000118	1.1e-05
324.28	14970	0.001308	6.8e-05
324.28	20000	0.002458	0.000127
324.28	25290	0.003528	0.000182
324.28	30010	0.004318	0.000222
333.39	10000	1e-06	1e-06
333.39	14990	0.000999	5.2e-05
333.39	20180	0.001929	0.0001
333.39	25210	0.002919	0.00015
333.39	30010	0.003687	0.00019

System: carbon dioxide + 2,6,10,14,18,22-tetracosahexaene, 2,6,10,15,19,23-hexamethyl-, (all-E)- + hexadecanoic acid; phases: Fluid (supercritical or subcritical phases), Liquid
Fixed: Mole fraction of 2,6,10,14,18,22-tetracosahexaene, 2,6,10,15,19,23-hexamethyl-, (all-E)- = 0.4208
Property: Mole fraction of hexadecanoic acid (Fluid (supercritical or subcritical phases)); method: Chromatography
Temperature, K	Pressure, kPa	Mole fraction of hexadecanoic acid	uncertainty
314.47	9980	0.0001	6e-06
314.47	15100	0.000439	2.3e-05
314.47	20250	0.000729	3.8e-05
314.47	24990	0.000967	5e-05
314.47	29990	0.001159	6e-05
324.28	10020	5.6e-05	4e-06
324.28	14970	0.000355	1.8e-05
324.28	20000	0.000623	3.2e-05
324.28	25290	0.000888	4.6e-05
324.28	30010	0.001068	5.5e-05
333.39	10000	6e-07	6e-07
333.39	14990	0.000288	1.5e-05
333.39	20180	0.000499	2.6e-05
333.39	25210	0.000682	3.5e-05
333.39	30010	0.000801	4.1e-05
