Measured thermophysical data. Measurement and Modeling of Solid-Liquid Equilibria of l-Glutamic Acid in Pure Solvents and Aqueous Binary Mixtures
Source: J. Chem. Eng. Data, 2019, 10.1021/acs.jced.8b01084
Compound 1: L-glutamic acid, C5H9NO4, InChI=1S/C5H9NO4/c6-3(5(9)10)1-2-4(7)8/h3H,1-2,6H2,(H,7,8)(H,9,10)/t3-/m0/s1, purity 99%
Compound 2: formic acid, CH2O2, InChI=1S/CH2O2/c2-1-3/h1H,(H,2,3), purity 99.5%
Compound 3: methanol, CH4O, InChI=1S/CH4O/c1-2/h2H,1H3, purity 99.5%
Compound 4: propan-2-ol, C3H8O, InChI=1S/C3H8O/c1-3(2)4/h3-4H,1-2H3, purity 99%
Compound 5: propan-1-ol, C3H8O, InChI=1S/C3H8O/c1-2-3-4/h4H,2-3H2,1H3, purity 99.8%
Compound 6: acetonitrile, C2H3N, InChI=1S/C2H3N/c1-2-3/h1H3, purity 99.9%
Compound 7: water, H2O, InChI=1S/H2O/h1H2, purity 99.9%

System: L-glutamic acid + water; phases: Liquid, Crystal
Fixed: Pressure, kPa = 94.64
Property: Mole fraction of L-glutamic acid (Liquid); method: Titration method
Temperature, K	Mole fraction of L-glutamic acid	uncertainty
283.15	0.000481	0.000192
288.15	0.000651	0.00026
293.15	0.000839	0.000336
298.15	0.001062	0.000425
303.15	0.001316	0.000526
308.15	0.001589	0.000636
313.15	0.001895	0.000758
318.15	0.00219	0.000876
323.15	0.002486	0.000994
328.15	0.00279	0.001116

System: L-glutamic acid + formic acid; phases: Liquid, Crystal
Fixed: Pressure, kPa = 94.64
Property: Mole fraction of L-glutamic acid (Liquid); method: Titration method
Temperature, K	Mole fraction of L-glutamic acid	uncertainty
288.15	0.0447	0.01788
293.15	0.04823	0.019292
298.15	0.052	0.0208
303.15	0.05556	0.022224
308.15	0.06034	0.024137
313.15	0.06598	0.026393
318.15	0.07289	0.029157
323.15	0.07901	0.031605
328.15	0.085434	0.034174

System: L-glutamic acid + methanol; phases: Liquid, Crystal
Fixed: Pressure, kPa = 94.64
Property: Mole fraction of L-glutamic acid (Liquid); method: Titration method
Temperature, K	Mole fraction of L-glutamic acid	uncertainty
283.15	1.6e-05	6e-06
288.15	2.2e-05	9e-06
293.15	3e-05	1.2e-05
298.15	3.9e-05	1.6e-05
303.15	5e-05	2e-05
308.15	6.4e-05	2.6e-05
313.15	7.8e-05	3.1e-05
318.15	9.5e-05	3.8e-05
323.15	0.000113	4.5e-05

System: L-glutamic acid + propan-1-ol; phases: Liquid, Crystal
Fixed: Pressure, kPa = 94.64
Property: Mole fraction of L-glutamic acid (Liquid); method: Titration method
Temperature, K	Mole fraction of L-glutamic acid	uncertainty
283.15	3.1e-05	1.2e-05
288.15	3.8e-05	1.5e-05
293.15	4.7e-05	1.9e-05
298.15	6.2e-05	2.5e-05
303.15	9.2e-05	3.7e-05
308.15	0.000113	4.5e-05
313.15	0.00024	9.6e-05
318.15	0.000531	0.000213
323.15	0.001032	0.000413
328.15	0.001665	0.000666

System: L-glutamic acid + propan-2-ol; phases: Liquid, Crystal
Fixed: Pressure, kPa = 94.64
Property: Mole fraction of L-glutamic acid (Liquid); method: Titration method
Temperature, K	Mole fraction of L-glutamic acid	uncertainty
283.15	9e-06	4e-06
288.15	1.3e-05	5e-06
293.15	1.7e-05	7e-06
298.15	2.6e-05	1e-05
303.15	3.4e-05	1.4e-05
308.15	5e-05	2e-05
313.15	6.6e-05	2.6e-05
318.15	8.1e-05	3.2e-05
323.15	9.5e-05	3.8e-05
328.15	0.000109	4.4e-05

System: L-glutamic acid + acetonitrile; phases: Liquid, Crystal
Fixed: Pressure, kPa = 94.64
Property: Mole fraction of L-glutamic acid (Liquid); method: Titration method
Temperature, K	Mole fraction of L-glutamic acid	uncertainty
283.15	1.4e-05	6e-06
288.15	2.2e-05	9e-06
293.15	3e-05	1.2e-05
298.15	4e-05	1.6e-05
303.15	5e-05	2e-05
308.15	5.9e-05	2.4e-05
313.15	7e-05	2.8e-05
318.15	8e-05	3.2e-05
323.15	9.1e-05	3.6e-05
328.15	0.000101	4e-05

System: L-glutamic acid + formic acid + water; phases: Liquid, Crystal
Fixed: Pressure, kPa = 94.64
Property: Mole fraction of L-glutamic acid (Liquid); method: Titration method
Solvent: Mass fraction of formic acid	Temperature, K	Mole fraction of L-glutamic acid	uncertainty
0.15	288.15	0.002834	0.001134
0.15	293.15	0.003315	0.001326
0.15	298.15	0.003856	0.001542
0.15	303.15	0.00445	0.00178
0.15	308.15	0.0051	0.00204
0.15	313.15	0.0058	0.00232
0.15	318.15	0.0066	0.00264
0.15	323.15	0.0075	0.003
0.15	328.15	0.0085	0.0034
0.25	288.15	0.00419	0.001676
0.25	293.15	0.004966	0.001987
0.25	298.15	0.00569	0.002276
0.25	303.15	0.00652	0.002608
0.25	308.15	0.0073	0.00292
0.25	313.15	0.0082	0.00328
0.25	318.15	0.0092	0.00368
0.25	323.15	0.01038	0.004152
0.25	328.15	0.011541	0.004617
0.35	288.15	0.00598	0.002392
0.35	293.15	0.006923	0.002769
0.35	298.15	0.00779	0.003116
0.35	303.15	0.00875	0.0035
0.35	308.15	0.00969	0.003876
0.35	313.15	0.0108	0.00432
0.35	318.15	0.012	0.0048
0.35	323.15	0.01322	0.005288
0.35	328.15	0.0146	0.00584
0.45	288.15	0.0081	0.00324
0.45	293.15	0.009266	0.003707
0.45	298.15	0.0104	0.00416
0.45	303.15	0.0116	0.00464
0.45	308.15	0.012783	0.005113
0.45	313.15	0.01404	0.005616
0.45	318.15	0.0154	0.00616
0.45	323.15	0.01679	0.006716
0.45	328.15	0.0183	0.007321
0.55	288.15	0.01021	0.004084
0.55	293.15	0.01175	0.0047
0.55	298.15	0.01324	0.005296
0.55	303.15	0.01467	0.005868
0.55	308.15	0.0164	0.00656
0.55	313.15	0.018527	0.007411
0.55	318.15	0.021202	0.008481
0.55	323.15	0.024164	0.009666
0.55	328.15	0.027441	0.010977
0.65	288.15	0.0135	0.0054
0.65	293.15	0.01532	0.006128
0.65	298.15	0.01732	0.006928
0.65	303.15	0.01935	0.00774
0.65	308.15	0.02145	0.00858
0.65	313.15	0.024	0.0096
0.65	318.15	0.02692	0.010768
0.65	323.15	0.029811	0.011925
0.65	328.15	0.0334	0.013361
0.75	288.15	0.0221	0.00884
0.75	293.15	0.0242	0.00968
0.75	298.15	0.0262	0.01048
0.75	303.15	0.028	0.0112
0.75	308.15	0.0299	0.01196
0.75	313.15	0.0324	0.01296
0.75	318.15	0.0354	0.014161
0.75	323.15	0.039	0.015601
0.75	328.15	0.0434	0.017361
0.85	288.15	0.034221	0.013689
0.85	293.15	0.036432	0.014573
0.85	298.15	0.038489	0.015396
0.85	303.15	0.041023	0.01641
0.85	308.15	0.043505	0.017402
0.85	313.15	0.046512	0.018605
0.85	318.15	0.050012	0.020005
0.85	323.15	0.053662	0.021465
0.85	328.15	0.0576	0.023041
1	288.15	0.0447	0.01788
1	293.15	0.04823	0.019292
1	298.15	0.052	0.0208
1	303.15	0.05556	0.022224
1	308.15	0.06034	0.024137
1	313.15	0.06598	0.026393
1	318.15	0.07289	0.029157
1	323.15	0.07901	0.031605
1	328.15	0.085434	0.034174
0	283.15	0.000481	0.000192
0	288.15	0.000651	0.00026
0	293.15	0.000839	0.000336
0	298.15	0.001062	0.000425
0	303.15	0.001316	0.000526
0	308.15	0.001589	0.000636
0	313.15	0.001895	0.000758
0	318.15	0.00219	0.000876
0	323.15	0.002486	0.000994
0	328.15	0.00279	0.001116

System: L-glutamic acid + methanol + water; phases: Liquid, Crystal
Fixed: Pressure, kPa = 94.64
Property: Mole fraction of L-glutamic acid (Liquid); method: Titration method
Solvent: Mass fraction of methanol	Temperature, K	Mole fraction of L-glutamic acid	uncertainty
0.15	283.15	0.0002	8e-05
0.15	288.15	0.000254	0.000102
0.15	293.15	0.000326	0.00013
0.15	298.15	0.000421	0.000168
0.15	303.15	0.000563	0.000225
0.15	308.15	0.000723	0.000289
0.15	313.15	0.00093	0.000372
0.15	318.15	0.00116	0.000464
0.15	323.15	0.00145	0.00058
0.25	283.15	0.000152	6.1e-05
0.25	288.15	0.00021	8.4e-05
0.25	293.15	0.000265	0.000106
0.25	298.15	0.000339	0.000136
0.25	303.15	0.000439	0.000176
0.25	308.15	0.00057	0.000228
0.25	313.15	0.000732	0.000293
0.25	318.15	0.000921	0.000368
0.25	323.15	0.001145	0.000458
0.35	283.15	8.2e-05	3.3e-05
0.35	288.15	0.000131	5.2e-05
0.35	293.15	0.000183	7.3e-05
0.35	298.15	0.00026	0.000104
0.35	303.15	0.000359	0.000144
0.35	308.15	0.000461	0.000184
0.35	313.15	0.000585	0.000234
0.35	318.15	0.000735	0.000294
0.35	323.15	0.000912	0.000365
0.45	283.15	5.5e-05	2.2e-05
0.45	288.15	8.5e-05	3.4e-05
0.45	293.15	0.00013	5.2e-05
0.45	298.15	0.000193	7.7e-05
0.45	303.15	0.00026	0.000104
0.45	308.15	0.000348	0.000139
0.45	313.15	0.000461	0.000184
0.45	318.15	0.00059	0.000236
0.45	323.15	0.000748	0.000299
0.55	283.15	1.7e-05	7e-06
0.55	288.15	2.9e-05	1.2e-05
0.55	293.15	5e-05	2e-05
0.55	298.15	8.5e-05	3.4e-05
0.55	303.15	0.00013	5.2e-05
0.55	308.15	0.000185	7.4e-05
0.55	313.15	0.000258	0.000103
0.55	318.15	0.000348	0.000139
0.55	323.15	0.000462	0.000185
0.65	283.15	1.7e-05	7e-06
0.65	288.15	2.6e-05	1e-05
0.65	293.15	4.5e-05	1.8e-05
0.65	298.15	7.4e-05	3e-05
0.65	303.15	0.000105	4.2e-05
0.65	308.15	0.000138	5.5e-05
0.65	313.15	0.000173	6.9e-05
0.65	318.15	0.000209	8.4e-05
0.65	323.15	0.000245	9.8e-05
1	283.15	1.6e-05	6e-06
1	288.15	2.2e-05	9e-06
1	293.15	3e-05	1.2e-05
1	298.15	3.9e-05	1.6e-05
1	303.15	5e-05	2e-05
1	308.15	6.4e-05	2.6e-05
1	313.15	7.8e-05	3.1e-05
1	318.15	9.5e-05	3.8e-05
1	323.15	0.000113	4.5e-05
0	283.15	0.000481	0.000192
0	288.15	0.000651	0.00026
0	293.15	0.000839	0.000336
0	298.15	0.001062	0.000425
0	303.15	0.001316	0.000526
0	308.15	0.001589	0.000636
0	313.15	0.001895	0.000758
0	318.15	0.00219	0.000876
0	323.15	0.002486	0.000994
0	328.15	0.00279	0.001116

System: L-glutamic acid + propan-2-ol + water; phases: Liquid, Crystal
Fixed: Pressure, kPa = 94.64
Property: Mole fraction of L-glutamic acid (Liquid); method: Titration method
Solvent: Mass fraction of propan-2-ol	Temperature, K	Mole fraction of L-glutamic acid	uncertainty
0.15	283.15	0.000128	5.1e-05
0.15	288.15	0.000181	7.2e-05
0.15	293.15	0.000251	0.0001
0.15	298.15	0.000345	0.000138
0.15	303.15	0.000453	0.000181
0.15	308.15	0.000598	0.000239
0.15	313.15	0.000773	0.000309
0.15	318.15	0.00095	0.00038
0.15	323.15	0.001139	0.000456
0.15	328.15	0.00137	0.000548
0.25	283.15	8.8e-05	3.5e-05
0.25	288.15	0.000145	5.8e-05
0.25	293.15	0.00021	8.4e-05
0.25	298.15	0.000293	0.000117
0.25	303.15	0.00039	0.000156
0.25	308.15	0.00051	0.000204
0.25	313.15	0.000664	0.000266
0.25	318.15	0.000831	0.000332
0.25	323.15	0.000998	0.000399
0.25	328.15	0.001187	0.000475
0.35	283.15	6.7e-05	2.7e-05
0.35	288.15	0.000109	4.4e-05
0.35	293.15	0.000162	6.5e-05
0.35	298.15	0.000229	9.2e-05
0.35	303.15	0.000311	0.000124
0.35	308.15	0.000413	0.000165
0.35	313.15	0.000542	0.000217
0.35	318.15	0.000695	0.000278
0.35	323.15	0.000871	0.000348
0.35	328.15	0.001051	0.00042
0.45	283.15	4.5e-05	1.8e-05
0.45	288.15	7.8e-05	3.1e-05
0.45	293.15	0.000118	4.7e-05
0.45	298.15	0.000168	6.7e-05
0.45	303.15	0.000228	9.1e-05
0.45	308.15	0.00031	0.000124
0.45	313.15	0.000419	0.000168
0.45	318.15	0.000556	0.000222
0.45	323.15	0.00072	0.000288
0.45	328.15	0.000896	0.000358
0.55	283.15	1.7e-05	7e-06
0.55	288.15	2.9e-05	1.2e-05
0.55	293.15	4.8e-05	1.9e-05
0.55	298.15	8.3e-05	3.3e-05
0.55	303.15	0.000126	5e-05
0.55	308.15	0.000172	6.9e-05
0.55	313.15	0.000242	9.7e-05
0.55	318.15	0.000338	0.000135
0.55	323.15	0.000449	0.00018
0.55	328.15	0.000561	0.000224
0.65	283.15	1.4e-05	6e-06
0.65	288.15	2.5e-05	1e-05
0.65	293.15	4.2e-05	1.7e-05
0.65	298.15	6.7e-05	2.7e-05
0.65	303.15	9.5e-05	3.8e-05
0.65	308.15	0.00013	5.2e-05
0.65	313.15	0.000166	6.6e-05
0.65	318.15	0.000203	8.1e-05
0.65	323.15	0.000243	9.7e-05
0.65	328.15	0.000288	0.000115
1	283.15	9e-06	4e-06
1	288.15	1.3e-05	5e-06
1	293.15	1.7e-05	7e-06
1	298.15	2.6e-05	1e-05
1	303.15	3.4e-05	1.4e-05
1	308.15	5e-05	2e-05
1	313.15	6.6e-05	2.6e-05
1	318.15	8.1e-05	3.2e-05
1	323.15	9.5e-05	3.8e-05
1	328.15	0.000109	4.4e-05
0	283.15	0.000481	0.000192
0	288.15	0.000651	0.00026
0	293.15	0.000839	0.000336
0	298.15	0.001062	0.000425
0	303.15	0.001316	0.000526
0	308.15	0.001589	0.000636
0	313.15	0.001895	0.000758
0	318.15	0.00219	0.000876
0	323.15	0.002486	0.000994
0	328.15	0.00279	0.001116

System: L-glutamic acid + acetonitrile + water; phases: Liquid, Crystal
Fixed: Pressure, kPa = 94.64
Property: Mole fraction of L-glutamic acid (Liquid); method: Titration method
Solvent: Mass fraction of acetonitrile	Temperature, K	Mole fraction of L-glutamic acid	uncertainty
0.04	283.15	0.000433	0.000173
0.04	288.15	0.000494	0.000198
0.04	293.15	0.000567	0.000227
0.04	298.15	0.00066	0.000264
0.04	303.15	0.000791	0.000316
0.04	308.15	0.00098	0.000392
0.04	313.15	0.001197	0.000479
0.04	318.15	0.001451	0.00058
0.04	323.15	0.001725	0.00069
0.04	328.15	0.002042	0.000817
0.08	283.15	0.000319	0.000128
0.08	288.15	0.000364	0.000146
0.08	293.15	0.000425	0.00017
0.08	298.15	0.000502	0.000201
0.08	303.15	0.000591	0.000236
0.08	308.15	0.000725	0.00029
0.08	313.15	0.000903	0.000361
0.08	318.15	0.00112	0.000448
0.08	323.15	0.001363	0.000545
0.08	328.15	0.00167	0.000668
0.15	283.15	0.000191	7.6e-05
0.15	288.15	0.000234	9.4e-05
0.15	293.15	0.000276	0.00011
0.15	298.15	0.000321	0.000128
0.15	303.15	0.000373	0.000149
0.15	308.15	0.000449	0.00018
0.15	313.15	0.000548	0.000219
0.15	318.15	0.000693	0.000277
0.15	323.15	0.000894	0.000358
0.15	328.15	0.00119	0.000476
0.25	283.15	0.000121	4.8e-05
0.25	288.15	0.000153	6.1e-05
0.25	293.15	0.000188	7.5e-05
0.25	298.15	0.000229	9.2e-05
0.25	303.15	0.000273	0.000109
0.25	308.15	0.000331	0.000132
0.25	313.15	0.000403	0.000161
0.25	318.15	0.000508	0.000203
0.25	323.15	0.000663	0.000265
0.25	328.15	0.000902	0.000361
0.35	283.15	7.8e-05	3.1e-05
0.35	288.15	9.4e-05	3.8e-05
0.35	293.15	0.000113	4.5e-05
0.35	298.15	0.000137	5.5e-05
0.35	303.15	0.000165	6.6e-05
0.35	308.15	0.000203	8.1e-05
0.35	313.15	0.000261	0.000104
0.35	318.15	0.000349	0.00014
0.35	323.15	0.000482	0.000193
0.35	328.15	0.000667	0.000267
0.5	283.15	4.4e-05	1.8e-05
0.5	288.15	5.8e-05	2.3e-05
0.5	293.15	7.3e-05	2.9e-05
0.5	298.15	8.7e-05	3.5e-05
0.5	303.15	0.000103	4.1e-05
0.5	308.15	0.000124	5e-05
0.5	313.15	0.000151	6e-05
0.5	318.15	0.000192	7.7e-05
0.5	323.15	0.000256	0.000102
0.5	328.15	0.000339	0.000136
0.7	283.15	1.6e-05	6e-06
0.7	288.15	2.5e-05	1e-05
0.7	293.15	3.5e-05	1.4e-05
0.7	298.15	4.5e-05	1.8e-05
0.7	303.15	5.7e-05	2.3e-05
0.7	308.15	6.9e-05	2.8e-05
0.7	313.15	8.2e-05	3.3e-05
0.7	318.15	9.5e-05	3.8e-05
0.7	323.15	0.000109	4.4e-05
0.7	328.15	0.000124	5e-05
1	283.15	1.4e-05	6e-06
1	288.15	2.2e-05	9e-06
1	293.15	3e-05	1.2e-05
1	298.15	4e-05	1.6e-05
1	303.15	5e-05	2e-05
1	308.15	5.9e-05	2.4e-05
1	313.15	7e-05	2.8e-05
1	318.15	8e-05	3.2e-05
1	323.15	9.1e-05	3.6e-05
1	328.15	0.000101	4e-05
0	283.15	0.000481	0.000192
0	288.15	0.000651	0.00026
0	293.15	0.000839	0.000336
0	298.15	0.001062	0.000425
0	303.15	0.001316	0.000526
0	308.15	0.001589	0.000636
0	313.15	0.001895	0.000758
0	318.15	0.00219	0.000876
0	323.15	0.002486	0.000994
0	328.15	0.00279	0.001116
