Measured thermophysical data. Mass Diffusion Coefficient and Soret Coefficient of o-Dichlorobenzene Solutions of PCBM and [60]Fullerene by the Soret Forced Rayleigh Scattering Method
Source: J. Chem. Eng. Data, 2015, 10.1021/acs.jced.5b00609
Compound 1: toluene, C7H8, InChI=1S/C7H8/c1-7-5-3-2-4-6-7/h2-6H,1H3
Compound 2: hexane, C6H14, InChI=1S/C6H14/c1-3-5-6-4-2/h3-6H2,1-2H3
Compound 3: dodecane, C12H26, InChI=1S/C12H26/c1-3-5-7-9-11-12-10-8-6-4-2/h3-12H2,1-2H3
Compound 4: (2-methylpropyl)benzene, C10H14, InChI=1S/C10H14/c1-9(2)8-10-6-4-3-5-7-10/h3-7,9H,8H2,1-2H3
Compound 5: 1,2,3,4-tetrahydronaphthalene, C10H12, InChI=1S/C10H12/c1-2-6-10-8-4-3-7-9(10)5-1/h1-2,5-6H,3-4,7-8H2
Compound 6: buckminsterfullerene, C60, InChI=1S/C60/c1-2-5-6-3(1)8-12-10-4(1)9-11-7(2)17-21-13(5)23-24-14(6)22-18(8)28-20(12)30-26-16(10)15(9)25-29-19(11)27(17)37-41-31(21)33(23)43-44-34(24)32(22)42-38(28)48-40(30)46-36(26)35(25)45-39(29)47(37)55-49(41)51(43)57-52(44)50(42)56(48)59-54(46)53(45)58(55)60(57)59
Compound 7: 1,2-dichlorobenzene, C6H4Cl2, InChI=1S/C6H4Cl2/c7-5-3-1-2-4-6(5)8/h1-4H

System: 1,2-dichlorobenzene; phases: Liquid
Fixed: Pressure, kPa = 101
Property: Refractive index (Na D-line) (Liquid); method: Standard Abbe refractometry
Temperature, K	Refractive index (Na D-line)	uncertainty
288.2	1.5523	0.0011
298.2	1.5489	0.0011
308.2	1.5438	0.0011
318.2	1.5386	0.0011
328.2	1.5332	0.0011

System: toluene + hexane; phases: Liquid
Fixed: Pressure, kPa = 101
Fixed: Temperature, K = 298.2
Property: Binary diffusion coefficient, m2/s (Liquid); method: thermal-diffusion forced Rayleigh scattering
Mass fraction of toluene	Binary diffusion coefficient, m2/s	uncertainty
0.25	3.68e-09	0.19
0.5	2.78e-09	0.03
0.75	2.47e-09	0.04

System: dodecane + (2-methylpropyl)benzene; phases: Liquid
Property: Binary diffusion coefficient, m2/s (Liquid); method: thermal-diffusion forced Rayleigh scattering
Mass fraction of (2-methylpropyl)benzene	Pressure, kPa	Temperature, K	Binary diffusion coefficient, m2/s	uncertainty
0.5	101	298.2	9.63e-10	0.052

System: dodecane + 1,2,3,4-tetrahydronaphthalene; phases: Liquid
Property: Binary diffusion coefficient, m2/s (Liquid); method: thermal-diffusion forced Rayleigh scattering
Mass fraction of 1,2,3,4-tetrahydronaphthalene	Pressure, kPa	Temperature, K	Binary diffusion coefficient, m2/s	uncertainty
0.5	101	298.2	6.63e-10	0.021

System: 1,2,3,4-tetrahydronaphthalene + (2-methylpropyl)benzene; phases: Liquid
Property: Binary diffusion coefficient, m2/s (Liquid); method: thermal-diffusion forced Rayleigh scattering
Mass fraction of 1,2,3,4-tetrahydronaphthalene	Pressure, kPa	Temperature, K	Binary diffusion coefficient, m2/s	uncertainty
0.5	101	298.2	8.71e-10	0.078

System: 1,2-dichlorobenzene + buckminsterfullerene; phases: Liquid
Fixed: Pressure, kPa = 101
Property: Refractive index (Na D-line) (Liquid); method: Standard Abbe refractometry
Temperature, K	Mass fraction of buckminsterfullerene	Refractive index (Na D-line)	uncertainty
288.2	0	1.5523	0.0011
298.2	0	1.5489	0.0011
308.2	0	1.5438	0.0011
318.2	0	1.5386	0.0011
328.2	0	1.5332	0.0011
288.2	0.00384	1.5549	0.0011
298.2	0.00384	1.5502	0.0011
308.2	0.00384	1.5457	0.0011
318.2	0.00384	1.5408	0.0011
328.2	0.00384	1.5354	0.0011
288.2	0.00769	1.5577	0.0011
298.2	0.00769	1.5522	0.0011
308.2	0.00769	1.5478	0.0011
318.2	0.00769	1.5425	0.0011
328.2	0.00769	1.5395	0.0011
288.2	0.0115	1.5598	0.0011
298.2	0.0115	1.5538	0.0011
308.2	0.0115	1.5497	0.0011
318.2	0.0115	1.5456	0.0011
288.2	0.0154	1.5624	0.0011

System: 1,2-dichlorobenzene + buckminsterfullerene; phases: Liquid
Fixed: Pressure, kPa = 101.3
Property: Binary diffusion coefficient, m2/s (Liquid); method: thermal-diffusion forced Rayleigh scattering
Temperature, K	Mass fraction of buckminsterfullerene	Binary diffusion coefficient, m2/s	uncertainty
288.2	0.00769	3.78e-10	0.005
293.2	0.00769	4.39e-10	0.012
298.2	0.00769	4.6e-10	0.01
303.2	0.00769	5.19e-10	0.02
308.2	0.00769	6.13e-10	0.016
313.2	0.00769	6.55e-10	0.015
318.2	0.00769	7.34e-10	0.022
323.2	0.00769	7.46e-10	0.042
328.2	0.00769	8.22e-10	0.013
333.2	0.00769	8.52e-10	0.017
298.2	0.00384	4e-10	0.027
298.2	0.00769	4.6e-10	0.01
298.2	0.0115	4.51e-10	0.042
298.2	0.0154	4.36e-10	0.012
298.2	0.0192	4.09e-10	0.026
298.2	0.0231	3.78e-10	0.021
