Measured thermophysical data. Experimental Solubility of Carbonyl Sulfide in Sulfolane and gamma-butyrolactone
Source: J. Chem. Eng. Data, 2017, 10.1021/acs.jced.7b00428
Compound 1: carbonyl sulfide, COS, InChI=1S/COS/c2-1-3
Compound 2: .gamma.-butyrolactone, C4H6O2, InChI=1S/C4H6O2/c5-4-2-1-3-6-4/h1-3H2
Compound 3: sulfolane, C4H8O2S, InChI=1S/C4H8O2S/c5-7(6)3-1-2-4-7/h1-4H2, purity 99%

System: carbonyl sulfide + sulfolane; phases: Liquid, Gas
Property: Mole fraction of carbonyl sulfide (Liquid); method: Phase equilibration
Temperature, K	Pressure, kPa	Mole fraction of carbonyl sulfide	uncertainty
303.15	88	0.0148	0.0059
303.15	176	0.0304	0.0083
303.15	261	0.0449	0.0102
303.15	355	0.0592	0.0122
303.15	487	0.0812	0.014
303.15	601	0.0996	0.0158
303.15	746	0.121	0.017
303.15	825	0.1338	0.0178
313.15	96	0.0139	0.0106
313.15	191	0.0288	0.012
313.15	290	0.0414	0.0134
313.15	395	0.0544	0.015
313.15	543	0.0748	0.0164
313.15	671	0.0916	0.018
313.15	827	0.1123	0.0192
313.15	929	0.1252	0.0202
323.15	107	0.0127	0.0059
323.15	210	0.0265	0.0082
323.15	317	0.0385	0.0104
323.15	432	0.0504	0.0126
323.15	596	0.0691	0.0144
323.15	738	0.0845	0.0164
323.15	910	0.1038	0.0178
323.15	1027	0.1169	0.0192
333.15	116	0.0116	0.0058
333.15	230	0.0244	0.0082
333.15	344	0.0357	0.0104
333.15	470	0.0466	0.0126
333.15	648	0.0639	0.0146
333.15	804	0.078	0.0166
333.15	993	0.0956	0.0182
333.15	1119	0.1083	0.0198
343.15	123	0.0111	0.0058
343.15	246	0.023	0.0084
343.15	371	0.0331	0.0106
343.15	508	0.0429	0.0128
343.15	699	0.0593	0.0148
343.15	869	0.072	0.017
343.15	1075	0.0886	0.0186
343.15	1204	0.1004	0.0202
353.15	131	0.0105	0.0058
353.15	264	0.0214	0.0084
353.15	398	0.0307	0.0106
353.15	546	0.0395	0.013
353.15	748	0.0551	0.015
353.15	932	0.0667	0.0172
353.15	1159	0.0808	0.019

System: carbonyl sulfide + .gamma.-butyrolactone; phases: Liquid, Gas
Property: Mole fraction of carbonyl sulfide (Liquid); method: Phase equilibration
Temperature, K	Pressure, kPa	Mole fraction of carbonyl sulfide	uncertainty
298.15	59	0.0138	0.0043
298.15	140	0.0338	0.0062
298.15	221	0.0533	0.0081
298.15	324	0.0797	0.0101
298.15	469	0.1202	0.0114
298.15	613	0.1652	0.0118
298.15	689	0.192	0.0122
303.15	63	0.0135	0.0042
303.15	149	0.0331	0.0061
303.15	236	0.052	0.0081
303.15	347	0.0777	0.0103
303.15	503	0.1174	0.0113
303.15	662	0.1615	0.0118
303.15	745	0.188	0.0124
313.15	70	0.013	0.0042
313.15	169	0.0314	0.0061
313.15	269	0.0493	0.0081
313.15	396	0.0737	0.0103
313.15	578	0.1116	0.0115
313.15	767	0.1538	0.0121
313.15	865	0.1796	0.0127
323.15	77	0.0124	0.0041
323.15	189	0.0298	0.0061
323.15	301	0.0468	0.0083
323.15	443	0.0702	0.0105
323.15	652	0.1063	0.0117
323.15	868	0.1468	0.0123
323.15	987	0.1713	0.0129
333.15	86	0.0118	0.0041
333.15	209	0.0284	0.0061
333.15	332	0.0446	0.0082
333.15	490	0.0669	0.0104
333.15	726	0.1011	0.0118
333.15	969	0.1402	0.0125
333.15	1108	0.1636	0.0133
343.15	93	0.0113	0.0041
343.15	229	0.027	0.006
343.15	363	0.0425	0.0082
343.15	536	0.0639	0.0106
343.15	795	0.0968	0.012
343.15	1071	0.134	0.0128
343.15	1233	0.156	0.0137
353.15	101	0.0107	0.004
353.15	249	0.0256	0.0062
353.15	391	0.0408	0.0082
353.15	581	0.0612	0.0106
353.15	865	0.0928	0.012
353.15	1165	0.1288	0.013
353.15	1360	0.1486	0.0138
