Measured thermophysical data. Volumetric Study of 3-Butoxypropan-1-amine + Water Mixtures between 283.15 and 303.15 K
Source: J. Chem. Eng. Data, 2017, 10.1021/acs.jced.7b00006
Compound 1: 3-butoxy-1-propanamine, C7H17NO, InChI=1S/C7H17NO/c1-2-3-6-9-7-4-5-8/h2-8H2,1H3, purity 99%
Compound 2: water, H2O, InChI=1S/H2O/h1H2, purity 99.9%

System: 3-butoxy-1-propanamine; phases: Liquid
Fixed: Pressure, kPa = 100
Property: Mass density, kg/m3 (Liquid); method: Vibrating tube method
Temperature, K	Mass density, kg/m3	uncertainty
283.15	855.84	0.88
288.15	851.46	0.88
293.15	847.07	0.87
298.15	842.68	0.87
303.15	838.29	0.87

System: water; phases: Liquid
Fixed: Pressure, kPa = 100
Property: Mass density, kg/m3 (Liquid); method: Vibrating tube method
Temperature, K	Mass density, kg/m3	uncertainty
283.15	999.7	1
288.15	999.1	1
293.15	998.2	1
298.15	997.04	1
303.15	995.65	1

System: water + 3-butoxy-1-propanamine; phases: Liquid
Fixed: Pressure, kPa = 100
Property: Mass density, kg/m3 (Liquid); method: Vibrating tube method
Temperature, K	Mole fraction of 3-butoxy-1-propanamine	Mass density, kg/m3	uncertainty
283.15	0	999.7	1
283.15	0.0011	999.08	1
283.15	0.0039	997.67	1
283.15	0.0061	996.73	1
283.15	0.0083	995.92	1
283.15	0.0122	994.5	1
283.15	0.015	993.28	1
283.15	0.0195	991.2	1
283.15	0.0224	989.67	1.01
283.15	0.025	988.23	1.01
283.15	0.0284	986.42	1.02
283.15	0.0314	984.82	1.02
283.15	0.0372	981.87	1.03
283.15	0.0406	980.14	1.04
283.15	0.0602	971.18	1.06
283.15	0.0709	966.78	1.05
283.15	0.098	957.1	1.08
283.15	0.1326	946.99	1.09
283.15	0.1854	934.51	1.13
283.15	0.2344	925.06	1.14
283.15	0.2887	916.16	1.13
283.15	0.3904	902.47	1.2
283.15	0.4725	893.33	1.2
283.15	0.531	887.68	1.13
283.15	0.5916	882.35	1.04
283.15	0.658	877.43	0.99
283.15	0.7081	873	0.95
283.15	0.7878	867.96	0.91
283.15	0.883	862.24	0.89
283.15	0.9177	860.24	0.88
283.15	0.9627	857.63	0.88
283.15	1	855.84	0.88
288.15	0	999.1	1
288.15	0.0011	998.46	1
288.15	0.0039	996.95	1
288.15	0.0061	995.91	1
288.15	0.0083	995.01	1
288.15	0.0122	993.36	1
288.15	0.015	991.88	1
288.15	0.0195	989.32	1.01
288.15	0.0224	987.78	1.01
288.15	0.025	986.23	1.01
288.15	0.0284	984.29	1.02
288.15	0.0314	982.6	1.02
288.15	0.0372	979.43	1.03
288.15	0.0406	977.68	1.04
288.15	0.0602	968.32	1.07
288.15	0.0709	963.76	1.06
288.15	0.098	953.74	1.09
288.15	0.1326	943.35	1.1
288.15	0.1854	930.61	1.14
288.15	0.2344	921.01	1.14
288.15	0.2887	912.02	1.13
288.15	0.3904	898.21	1.2
288.15	0.4725	889.01	1.2
288.15	0.531	883.35	1.13
288.15	0.5916	877.99	1.03
288.15	0.658	873.05	0.99
288.15	0.7081	868.62	0.94
288.15	0.7878	863.57	0.9
288.15	0.883	857.85	0.88
288.15	0.9177	855.84	0.88
288.15	0.9627	853.24	0.88
288.15	1	851.46	0.88
293.15	0	998.2	1
293.15	0.0011	997.54	1
293.15	0.0039	995.93	1
293.15	0.0061	994.83	1
293.15	0.0083	993.82	1
293.15	0.0122	991.92	1
293.15	0.015	990.21	1
293.15	0.0195	987.36	1.01
293.15	0.0224	985.72	1.01
293.15	0.025	984.08	1.01
293.15	0.0284	982.04	1.02
293.15	0.0314	980.27	1.02
293.15	0.0372	976.85	1.03
293.15	0.0406	975.11	1.03
293.15	0.0602	965.4	1.07
293.15	0.0709	960.81	1.06
293.15	0.098	950.34	1.09
293.15	0.1326	939.68	1.1
293.15	0.1854	926.68	1.14
293.15	0.2344	916.94	1.15
293.15	0.2887	907.85	1.13
293.15	0.3904	893.92	1.2
293.15	0.4725	884.67	1.2
293.15	0.531	878.99	1.13
293.15	0.5916	873.62	1.03
293.15	0.658	868.67	0.98
293.15	0.7081	864.24	0.94
293.15	0.7878	859.17	0.9
293.15	0.883	853.45	0.88
293.15	0.9177	851.45	0.88
293.15	0.9627	848.85	0.87
293.15	1	847.07	0.87
298.15	0	997.04	1
298.15	0.0011	996.35	1
298.15	0.0039	994.65	1
298.15	0.0061	993.49	1
298.15	0.0083	992.38	1
298.15	0.0122	990.23	1
298.15	0.015	988.32	1
298.15	0.0195	985.25	1.01
298.15	0.0224	983.52	1.01
298.15	0.025	981.81	1.02
298.15	0.0284	979.66	1.02
298.15	0.0314	977.81	1.03
298.15	0.0372	974.28	1.04
298.15	0.0406	972.43	1.04
298.15	0.0602	962.39	1.08
298.15	0.0709	957.52	1.06
298.15	0.098	946.88	1.09
298.15	0.1326	935.96	1.1
298.15	0.1854	922.71	1.15
298.15	0.2344	912.84	1.15
298.15	0.2887	903.64	1.13
298.15	0.3904	889.62	1.2
298.15	0.4725	880.32	1.2
298.15	0.531	874.61	1.13
298.15	0.5916	869.23	1.03
298.15	0.658	864.27	0.98
298.15	0.7081	859.83	0.94
298.15	0.7878	854.76	0.9
298.15	0.883	849.04	0.88
298.15	0.9177	847.04	0.87
298.15	0.9627	844.45	0.87
298.15	1	842.68	0.87
303.15	0	995.65	1
303.15	0.0011	994.93	1
303.15	0.0039	993.15	0.99
303.15	0.0061	991.9	0.99
303.15	0.0083	990.7	0.99
303.15	0.0122	988.3	1
303.15	0.015	986.24	1
303.15	0.0195	982.99	1.01
303.15	0.0224	981.18	1.01
303.15	0.025	979.39	1.02
303.15	0.0284	977.17	1.02
303.15	0.0314	975.24	1.03
303.15	0.0372	971.56	1.04
303.15	0.0406	969.68	1.04
303.15	0.0602	959.29	1.08
303.15	0.0709	954.29	1.07
303.15	0.098	943.36	1.1
303.15	0.1326	932.19	1.11
303.15	0.1854	918.7	1.15
303.15	0.2344	908.69	1.15
303.15	0.2887	899.41	1.13
303.15	0.3904	885.29	1.2
303.15	0.4725	875.94	1.2
303.15	0.531	870.21	1.12
303.15	0.5916	864.81	1.02
303.15	0.658	859.85	0.98
303.15	0.7081	855.41	0.93
303.15	0.7878	850.33	0.89
303.15	0.883	844.62	0.87
303.15	0.9177	842.64	0.87
303.15	0.9627	840.05	0.87
303.15	1	838.29	0.87
