Measured thermophysical data. Speed of Sound and Density of 1-Chloropropane in the Range of Temperatures 180-373 K and Pressures up to 196.1 MPa
Source: J. Chem. Eng. Data, 2017, 10.1021/acs.jced.7b00443
Compound 1: 1-chloropropane, C3H7Cl, InChI=1S/C3H7Cl/c1-2-3-4/h2-3H2,1H3, purity 99%

System: 1-chloropropane; phases: Liquid
Property: Refractive index (Na D-line) (Liquid); method: Standard Abbe refractometry
Temperature, K	Pressure, kPa	Refractive index (Na D-line)	uncertainty
293.15	101.325	1.388	0.004

System: 1-chloropropane; phases: Liquid
Fixed: Pressure, kPa = 101
Property: Mass density, kg/m3 (Liquid); method: Pycnometric method
Temperature, K	Mass density, kg/m3	uncertainty
183.15	1020.8	10.2
193.15	1010	10.2
203.15	999.5	10.2
213.15	987.7	10.2
223.15	977.3	10.2
233.15	966.2	10.2
243.15	954.3	10.2
253.15	942.4	10.2
263.15	930.4	10.2
273.15	918.5	10.2
283.15	906	10.2
293.15	892.6	9

System: 1-chloropropane; phases: Liquid, Gas
Property: Mass density, kg/m3 (Liquid); method: Constant-volume piezometry
Temperature, K	Mass density, kg/m3	uncertainty
323.15	853.8	9
333.15	840.2	9
343.15	826.3	9
353.15	812.2	9
363.15	797.9	9
373.15	783.4	9
303.15	880.6	9
313.15	867.3	9

System: 1-chloropropane; phases: Liquid
Fixed: Pressure, kPa = 100
Property: Molar heat capacity at constant pressure, J/K/mol (Liquid); method: DSC
Temperature, K	Molar heat capacity at constant pressure, J/K/mol	uncertainty
173.15	108.3857244	11.46689548
198.15	111.60587998	11.85959738
223.15	115.4543586	12.25229928
248.15	119.7740795	12.72354156
273.15	124.40796192	13.19478384
298.15	129.591627	13.7445665

System: 1-chloropropane; phases: Liquid, Gas
Fixed: Frequency, MHz = 5
Property: Speed of sound, m/s (Liquid); method: Pulse-echo method
Temperature, K	Speed of sound, m/s	uncertainty
183.15	1600.8	3.4
193.15	1552	3.3
203.15	1503.6	3.2
213.15	1455.7	3.1
223.15	1408.1	3.1
233.15	1361	3
243.15	1314.3	2.9
253.15	1268	2.8
263.15	1222.2	2.7
273.15	1176.8	2.6
283.15	1131.9	2.5
293.15	1087.3	2.5
303.15	1043.2	2.4
313.15	999.5	2.3
323.15	956.2	2.2
333.15	913.3	2.1
343.15	870.7	2.1
353.15	828.4	2
363.15	786.4	1.9
373.15	744.7	1.8

System: 1-chloropropane; phases: Liquid
Property: Mass density, kg/m3 (Liquid); method: Constant-volume piezometry
Temperature, K	Pressure, kPa	Mass density, kg/m3	uncertainty
294.15	100	891.1	5.4
294.15	4900	898.2	5.4
294.15	9810	903.6	5.4
294.15	19610	914	5.5
294.15	29420	923.5	5.6
294.15	39230	932.1	5.6
294.15	49030	940.1	5.7
294.15	58840	947.4	5.7
294.15	68650	954.3	5.8
294.15	78450	960.7	5.8
294.15	88260	966.8	5.9
294.15	98070	972.5	5.9
294.15	107900	977.8	6
294.15	117700	983	6
294.15	127500	987.8	6
294.15	137300	992.4	6.1
294.15	147100	996.9	6.1
294.15	156900	1001	6
294.15	166700	1005	6
294.15	176500	1009	6
294.15	186300	1013	6
294.15	196100	1016	6
313.15	100	866.3	5.2
313.15	4900	874.2	5.3
313.15	9810	880.8	5.3
313.15	19610	892.2	5.4
313.15	29420	903.1	5.4
313.15	39230	912.9	5.5
313.15	49030	921.9	5.6
313.15	58840	930.1	5.6
313.15	68650	937.7	5.7
313.15	78450	944.8	5.7
313.15	88260	951.4	5.8
313.15	98070	957.6	5.8
313.15	107900	963.4	5.9
313.15	117700	968.9	5.9
313.15	127500	974.2	6
313.15	137300	979.1	6
313.15	147100	983.9	6
313.15	156900	988.4	6.1
313.15	166700	992.7	6.1
313.15	176500	996.8	6.2
313.15	186300	1001	6
313.15	196100	1005	6
333.15	100	840.2	5.1
333.15	4900	849	5.1
333.15	9810	856.7	5.2
333.15	19610	871	5.3
333.15	29420	883.6	5.3
333.15	39230	894.8	5.4
333.15	49030	904.8	5.5
333.15	58840	914	5.5
333.15	68650	922.4	5.6
333.15	78450	930.2	5.6
333.15	88260	937.4	5.7
333.15	98070	944.1	5.7
333.15	107900	950.4	5.8
333.15	117700	956.3	5.8
333.15	127500	961.9	5.9
333.15	137300	967.2	5.9
333.15	147100	972.2	6
333.15	156900	977	6
333.15	166700	981.6	6.1
333.15	176500	985.9	6.1
333.15	186300	990.1	6.1
333.15	196100	994.1	6.2
353.15	100	812.2	4.9
353.15	4900	822.6	5
353.15	9810	832.2	5
353.15	19610	849.1	5.1
353.15	29420	863.6	5.2
353.15	39230	876.3	5.3
353.15	49030	887.6	5.4
353.15	58840	897.8	5.4
353.15	68650	907.1	5.5
353.15	78450	915.6	5.6
353.15	88260	923.4	5.6
353.15	98070	930.7	5.7
353.15	107900	937.4	5.7
353.15	117700	943.8	5.8
353.15	127500	949.7	5.8
353.15	137300	955.4	5.9
353.15	147100	960.7	5.9
353.15	156900	965.7	6
353.15	166700	970.6	6
353.15	176500	975.2	6
353.15	186300	979.5	6.1
353.15	196100	983.7	6.1
373.15	100	783.4	4.8
373.15	4900	797.1	4.8
373.15	9810	807.7	4.9
373.15	19610	827.7	5
373.15	29420	844.4	5.1
373.15	39230	858.9	5.2
373.15	49030	871.6	5.3
373.15	58840	882.9	5.3
373.15	68650	893.1	5.4
373.15	78450	902.3	5.5
373.15	88260	910.8	5.5
373.15	98070	918.6	5.6
373.15	107900	925.9	5.6
373.15	117700	932.6	5.7
373.15	127500	939	5.8
373.15	137300	944.9	5.8
373.15	147100	950.5	5.8
373.15	156900	955.9	5.9
373.15	166700	960.9	5.9
373.15	176500	965.7	6
373.15	186300	970.3	6
373.15	196100	974.7	6.1

System: 1-chloropropane; phases: Liquid
Fixed: Frequency, MHz = 3
Property: Speed of sound, m/s (Liquid); method: Pulse-echo method
Temperature, K	Pressure, kPa	Speed of sound, m/s	uncertainty
294.15	100	1081.8	3
294.15	4900	1109.7	3
294.15	9810	1137	3
294.15	19610	1188.3	3
294.15	29420	1235.6	3
294.15	39230	1279.5	3.1
294.15	49030	1320.4	3.1
294.15	58840	1358.7	3.2
294.15	68650	1394.8	3.2
294.15	78450	1429	3.3
294.15	88260	1461.5	3.3
294.15	98070	1492.6	3.4
294.15	107900	1522.4	3.4
294.15	117700	1551.1	3.4
294.15	127500	1578.8	3.5
294.15	137300	1605.5	3.5
294.15	147100	1631.1	3.6
294.15	156900	1655.7	3.6
294.15	166700	1679.2	3.7
294.15	176500	1701.3	3.7
294.15	186300	1721.6	3.7
294.15	196100	1740.1	3.8
313.15	100	998.4	2.9
313.15	4900	1029.7	3
313.15	9810	1060.2	2.9
313.15	19610	1116.9	3
313.15	29420	1168.6	3
313.15	39230	1216.1	3
313.15	49030	1259.9	3
313.15	58840	1300.5	3.1
313.15	68650	1338.5	3.1
313.15	78450	1374.2	3.2
313.15	88260	1408	3.2
313.15	98070	1440.2	3.3
313.15	107900	1471	3.3
313.15	117700	1500.6	3.4
313.15	127500	1529	3.4
313.15	137300	1556.3	3.4
313.15	147100	1582.4	3.5
313.15	156900	1607.4	3.5
313.15	166700	1630.9	3.6
313.15	176500	1652.7	3.6
313.15	186300	1672.7	3.6
313.15	196100	1691.8	3.7
333.15	100	913.9	2.9
333.15	4900	948.7	2.9
333.15	9810	982.3	2.9
333.15	19610	1044.2	2.9
333.15	29420	1099.9	2.9
333.15	39230	1150.3	2.9
333.15	49030	1196.3	2.9
333.15	58840	1238.6	3
333.15	68650	1280	3
333.15	78450	1314.9	3.1
333.15	88260	1350	3.1
333.15	98070	1383.4	3.2
333.15	107900	1415.6	3.2
333.15	117700	1446.7	3.3
333.15	127500	1476.8	3.3
333.15	137300	1505.8	3.4
333.15	147100	1533.7	3.4
333.15	156900	1560.2	3.4
333.15	166700	1585.1	3.5
333.15	176500	1608.9	3.5
333.15	186300	1632.2	3.6
333.15	196100	1654	3.6
353.15	100	830.7	2.9
353.15	4900	868.6	2.9
353.15	9810	905.1	2.8
353.15	19610	972.3	2.9
353.15	29420	1032.5	2.8
353.15	39230	1086.9	2.8
353.15	49030	1136.3	2.9
353.15	58840	1181.7	2.9
353.15	68650	1223.6	2.9
353.15	78450	1262.7	3
353.15	88260	1299.6	3
353.15	98070	1334.6	3.1
353.15	107900	1368	3.1
353.15	117700	1400	3.2
353.15	127500	1430.7	3.2
353.15	137300	1460.2	3.3
353.15	147100	1488.2	3.3
353.15	156900	1514.6	3.3
353.15	166700	1539.1	3.4
353.15	176500	1561.2	3.4
353.15	186300	1585.6	3.5
353.15	196100	1608.9	3.5
373.15	100	746.9	3.1
373.15	4900	790.8	3
373.15	9810	832.5	2.9
373.15	19610	907.3	2.9
373.15	29420	972.7	2.8
373.15	39230	1030.2	2.8
373.15	49030	1081.4	2.8
373.15	58840	1127.8	2.8
373.15	68650	1170.5	2.9
373.15	78450	1210.5	2.9
373.15	88260	1248.4	3
373.15	98070	1285	3
373.15	107900	1320.6	3.1
373.15	117700	1355.2	3.1
373.15	127500	1389	3.2
373.15	137300	1421.7	3.2
373.15	147100	1452.8	3.3
373.15	156900	1481.7	3.3
373.15	166700	1507.6	3.3
373.15	176500	1529.5	3.3
373.15	186300	1547.1	3.4
373.15	196100	1568	3.4
