Measured thermophysical data. Isothermal Vapor-Liquid Equilibrium Data for the Hexafluoroethane (R116) + n-Butane System at Temperatures from 273 to 323 K
Source: J. Chem. Eng. Data, 2017, 10.1021/acs.jced.7b00485
Compound 1: hexafluoroethane, C2F6, InChI=1S/C2F6/c3-1(4,5)2(6,7)8
Compound 2: butane, C4H10, InChI=1S/C4H10/c1-3-4-2/h3-4H2,1-2H3

System: hexafluoroethane; phases: Liquid, Gas
Property: Vapor or sublimation pressure, kPa (Liquid); method: Closed cell (Static) method
Temperature, K	Vapor or sublimation pressure, kPa	uncertainty
273.27	1851	3
288.25	2708	4

System: butane; phases: Liquid, Gas
Property: Vapor or sublimation pressure, kPa (Liquid); method: Closed cell (Static) method
Temperature, K	Vapor or sublimation pressure, kPa	uncertainty
273.27	104	1
288.25	177	1
294.23	215	1
296.23	231	1
308.21	332	1
323.19	498	1

System: hexafluoroethane + butane; phases: Liquid, Gas
Property: Vapor or sublimation pressure, kPa (Liquid); method: Closed cell (Static) method
Temperature, K	Mole fraction of hexafluoroethane	Vapor or sublimation pressure, kPa	uncertainty
273.27	0	104	1
273.27	0.021	300	33
273.27	0.048	501	25
273.27	0.084	703	19
273.27	0.132	903	12
273.27	0.213	1103	7
273.27	0.385	1301	5
273.27	0.703	1503	6
273.27	1	1851	6
288.25	0	177	1
288.25	0.017	357	39
288.25	0.053	697	29
288.25	0.115	1098	18
288.25	0.224	1488	9
288.25	0.502	1891	8
288.25	0.757	2207	9
288.25	0.914	2491	11
288.25	1	2708	9
294.23	0	215	1
294.23	0.012	357	42
294.23	0.05	744	35
294.23	0.102	1144	21
294.23	0.199	1564	13
294.23	0.372	1942	9
294.23	0.595	2252	9
294.23	0.779	2548	11
294.23	0.912	2858	14
294.23	0.932	2910	14
296.23	0	231	1
296.23	0.011	366	43
296.23	0.048	751	35
296.23	0.101	1149	20
296.23	0.23	1700	11
296.23	0.534	2251	9
296.23	0.782	2655	11
296.23	0.848	2805	13
296.23	0.912	2979	14
308.21	0	332	1
308.21	0.013	499	46
308.21	0.049	905	40
308.21	0.092	1300	31
308.21	0.152	1704	21
308.21	0.242	2103	15
308.21	0.385	2503	12
308.21	0.584	2902	12
308.21	0.769	3308	14
323.19	0	498	2
323.19	0.015	712	54
323.19	0.045	1104	45
323.19	0.094	1601	36
323.19	0.155	2101	27
323.19	0.246	2602	20
323.19	0.378	3102	16
323.19	0.524	3510	15
323.19	0.631	3742	15

System: hexafluoroethane + butane; phases: Gas, Liquid
Property: Mole fraction of hexafluoroethane (Gas); method: Chromatography
Temperature, K	Mole fraction of hexafluoroethane	Mole fraction of hexafluoroethane	uncertainty
273.27	0	0	
273.27	0.021	0.615	0.062
273.27	0.048	0.77	0.014
273.27	0.084	0.831	0.006
273.27	0.132	0.863	0.005
273.27	0.213	0.885	0.004
273.27	0.385	0.904	0.004
273.27	0.703	0.925	0.004
273.27	1	1	
288.25	0	0	
288.25	0.017	0.47	0.047
288.25	0.053	0.713	0.012
288.25	0.115	0.795	0.005
288.25	0.224	0.85	0.004
288.25	0.502	0.87	0.004
288.25	0.757	0.908	0.004
288.25	0.914	0.955	0.004
288.25	1	1	
294.23	0	0	
294.23	0.012	0.323	0.047
294.23	0.05	0.673	0.019
294.23	0.102	0.775	0.006
294.23	0.199	0.817	0.004
294.23	0.372	0.85	0.004
294.23	0.595	0.874	0.004
294.23	0.779	0.9	0.004
294.23	0.912	0.945	0.005
294.23	0.932	0.954	0.005
296.23	0	0	
296.23	0.011	0.34	0.05
296.23	0.048	0.66	0.019
296.23	0.101	0.764	0.006
296.23	0.23	0.827	0.004
296.23	0.534	0.862	0.004
296.23	0.782	0.893	0.004
296.23	0.848	0.913	0.004
296.23	0.912	0.938	0.004
308.21	0	0	
308.21	0.013	0.304	0.042
308.21	0.049	0.588	0.02
308.21	0.092	0.698	0.008
308.21	0.152	0.756	0.005
308.21	0.242	0.789	0.005
308.21	0.385	0.81	0.004
308.21	0.584	0.828	0.004
308.21	0.769	0.84	0.004
323.19	0	0	
323.19	0.015	0.26	0.042
323.19	0.045	0.492	0.019
323.19	0.094	0.624	0.009
323.19	0.155	0.69	0.006
323.19	0.246	0.729	0.005
323.19	0.378	0.748	0.005
323.19	0.524	0.755	0.005
323.19	0.631	0.738	0.005
