Measured thermophysical data. Static Permittivity and Refractive Index of Binary Mixtures of 3-Bromoanisole and 1-Propanol at Different Temperatures
Source: J. Chem. Eng. Data, 2015, 10.1021/acs.jced.5b00256
Compound 1: 1-bromo-3-methoxybenzene, C7H7BrO, InChI=1S/C7H7BrO/c1-9-7-4-2-3-6(8)5-7/h2-5H,1H3
Compound 2: propan-1-ol, C3H8O, InChI=1S/C3H8O/c1-2-3-4/h4H,2-3H2,1H3

System: 1-bromo-3-methoxybenzene; phases: Liquid
Property: Mass density, kg/m3 (Liquid); method: Pycnometric method
Temperature, K	Pressure, kPa	Mass density, kg/m3	uncertainty
303.15	101.325	1467.6	6.1

System: 1-bromo-3-methoxybenzene; phases: Liquid
Fixed: Pressure, kPa = 100
Fixed: Frequency, MHz = 2
Property: Relative permittivity at various frequencies (Liquid); method: Parallel plate capacitor
Temperature, K	Relative permittivity at various frequencies	uncertainty
303.15	7.01	0.6
313.15	6.85	0.6
323.15	6.74	0.6
333.15	6.6	0.6

System: 1-bromo-3-methoxybenzene; phases: Liquid
Fixed: Pressure, kPa = 100
Property: Refractive index (Na D-line) (Liquid); method: Standard Abbe refractometry
Temperature, K	Refractive index (Na D-line)	uncertainty
303.15	1.56	0.002
313.15	1.558	0.002
323.15	1.553	0.002
333.15	1.55	0.002

System: propan-1-ol; phases: Liquid
Fixed: Pressure, kPa = 101.325
Property: Mass density, kg/m3 (Liquid); method: Pycnometric method
Temperature, K	Mass density, kg/m3	uncertainty
303.15	793.9	6
313.15	791.7	6
323.15	784.4	6
333.15	775.6	6

System: propan-1-ol; phases: Liquid
Fixed: Pressure, kPa = 100
Fixed: Frequency, MHz = 2
Property: Relative permittivity at various frequencies (Liquid); method: Parallel plate capacitor
Temperature, K	Relative permittivity at various frequencies	uncertainty
303.15	19.49	0.6
313.15	18.53	0.6
323.15	17.59	0.6
333.15	16.03	0.6

System: propan-1-ol; phases: Liquid
Fixed: Pressure, kPa = 100
Property: Refractive index (Na D-line) (Liquid); method: Standard Abbe refractometry
Temperature, K	Refractive index (Na D-line)	uncertainty
303.15	1.383	0.002
313.15	1.38	0.002
323.15	1.376	0.002
333.15	1.371	0.002

System: propan-1-ol + 1-bromo-3-methoxybenzene; phases: Liquid
Fixed: Pressure, kPa = 100
Fixed: Frequency, MHz = 2
Property: Relative permittivity at various frequencies (Liquid); method: Parallel plate capacitor
Mole fraction of propan-1-ol	Temperature, K	Relative permittivity at various frequencies	uncertainty
1	303.15	19.49	0.6
0.959	303.15	18.58	0.6
0.916	303.15	17.33	0.6
0.871	303.15	16.23	0.6
0.822	303.15	15.14	0.6
0.771	303.15	13.98	0.6
0.716	303.15	12.93	0.6
0.658	303.15	12.04	0.6
0.596	303.15	11.08	0.6
0.529	303.15	10.27	0.6
0.457	303.15	9.46	0.6
0.38	303.15	8.67	0.6
0.296	303.15	8.05	0.6
0.206	303.15	7.55	0.6
0.107	303.15	7.18	0.6
0	303.15	7.01	0.6
1	313.15	18.53	0.6
0.959	313.15	17.66	0.6
0.916	313.15	16.62	0.6
0.871	313.15	15.6	0.6
0.822	313.15	14.52	0.6
0.771	313.15	13.42	0.6
0.716	313.15	12.39	0.6
0.658	313.15	11.56	0.6
0.596	313.15	10.61	0.6
0.529	313.15	9.87	0.6
0.457	313.15	9.11	0.6
0.38	313.15	8.39	0.6
0.296	313.15	7.83	0.6
0.206	313.15	7.39	0.6
0.107	313.15	7.03	0.6
0	313.15	6.85	0.6
1	323.15	17.59	0.6
0.959	323.15	16.7	0.6
0.916	323.15	15.64	0.6
0.871	323.15	14.65	0.6
0.822	323.15	13.63	0.6
0.771	323.15	12.88	0.6
0.716	323.15	11.71	0.6
0.658	323.15	10.94	0.6
0.596	323.15	10.11	0.6
0.529	323.15	9.4	0.6
0.457	323.15	8.68	0.6
0.38	323.15	8.08	0.6
0.296	323.15	7.55	0.6
0.206	323.15	7.15	0.6
0.107	323.15	6.89	0.6
0	323.15	6.74	0.6
1	333.15	16.03	0.6
0.959	333.15	15.22	0.6
0.916	333.15	14.3	0.6
0.871	333.15	13.33	0.6
0.822	333.15	12.43	0.6
0.771	333.15	11.8	0.6
0.716	333.15	10.89	0.6
0.658	333.15	10.15	0.6
0.596	333.15	9.38	0.6
0.529	333.15	8.74	0.6
0.457	333.15	8.2	0.6
0.38	333.15	7.65	0.6
0.296	333.15	7.23	0.6
0.206	333.15	6.95	0.6
0.107	333.15	6.7	0.6
0	333.15	6.6	0.6

System: propan-1-ol + 1-bromo-3-methoxybenzene; phases: Liquid
Fixed: Pressure, kPa = 100
Property: Refractive index (Na D-line) (Liquid); method: Standard Abbe refractometry
Temperature, K	Mole fraction of propan-1-ol	Refractive index (Na D-line)	uncertainty
303.15	1	1.383	0.002
303.15	0.959	1.396	0.002
303.15	0.916	1.41	0.002
303.15	0.871	1.421	0.002
303.15	0.822	1.435	0.002
303.15	0.771	1.447	0.002
303.15	0.716	1.461	0.002
303.15	0.658	1.473	0.002
303.15	0.596	1.484	0.002
303.15	0.529	1.493	0.002
303.15	0.457	1.504	0.002
303.15	0.38	1.517	0.002
303.15	0.296	1.53	0.002
303.15	0.206	1.544	0.002
303.15	0.107	1.555	0.002
303.15	0	1.56	0.002
313.15	1	1.38	0.002
313.15	0.959	1.392	0.002
313.15	0.916	1.405	0.002
313.15	0.871	1.418	0.002
313.15	0.822	1.429	0.002
313.15	0.771	1.444	0.002
313.15	0.716	1.458	0.002
313.15	0.658	1.468	0.002
313.15	0.596	1.482	0.002
313.15	0.529	1.489	0.002
313.15	0.457	1.501	0.002
313.15	0.38	1.515	0.002
313.15	0.296	1.528	0.002
313.15	0.206	1.54	0.002
313.15	0.107	1.552	0.002
313.15	0	1.558	0.002
323.15	1	1.376	0.002
323.15	0.959	1.388	0.002
323.15	0.916	1.401	0.002
323.15	0.871	1.413	0.002
323.15	0.822	1.425	0.002
323.15	0.771	1.437	0.002
323.15	0.716	1.449	0.002
323.15	0.658	1.464	0.002
323.15	0.596	1.477	0.002
323.15	0.529	1.488	0.002
323.15	0.457	1.5	0.002
323.15	0.38	1.512	0.002
323.15	0.296	1.523	0.002
323.15	0.206	1.535	0.002
323.15	0.107	1.548	0.002
323.15	0	1.553	0.002
333.15	1	1.371	0.002
333.15	0.959	1.385	0.002
333.15	0.916	1.398	0.002
333.15	0.871	1.41	0.002
333.15	0.822	1.423	0.002
333.15	0.771	1.435	0.002
333.15	0.716	1.447	0.002
333.15	0.658	1.461	0.002
333.15	0.596	1.474	0.002
333.15	0.529	1.484	0.002
333.15	0.457	1.497	0.002
333.15	0.38	1.508	0.002
333.15	0.296	1.519	0.002
333.15	0.206	1.532	0.002
333.15	0.107	1.546	0.002
333.15	0	1.55	0.002
