Measured thermophysical data. A Comparison of Results by Correlation Gas Chromatography with Another Gas Chromatographic Retention Time Technique. The Effects of Retention Time Coincidence on Vaporization Enthalpy and Vapor Pressure
Source: J. Chem. Eng. Data, 2015, 10.1021/acs.jced.5b00444
Compound 1: dimethyl 1,2-benzenedicarboxylate, C10H10O4, InChI=1S/C10H10O4/c1-13-9(11)7-5-3-4-6-8(7)10(12)14-2/h3-6H,1-2H3, purity 99%
Compound 2: diethyl phthalate, C12H14O4, InChI=1S/C12H14O4/c1-3-15-11(13)9-7-5-6-8-10(9)12(14)16-4-2/h5-8H,3-4H2,1-2H3, purity 99%
Compound 3: dibutyl phthalate, C16H22O4, InChI=1S/C16H22O4/c1-3-5-11-19-15(17)13-9-7-8-10-14(13)16(18)20-12-6-4-2/h7-10H,3-6,11-12H2,1-2H3, purity 99%
Compound 4: methyl hexadecanoate, C17H34O2, InChI=1S/C17H34O2/c1-3-4-5-6-7-8-9-10-11-12-13-14-15-16-17(18)19-2/h3-16H2,1-2H3, purity 99%
Compound 5: benzyl butyl 1,2-benzenedioate, C19H20O4, InChI=1S/C19H20O4/c1-2-3-13-22-18(20)16-11-7-8-12-17(16)19(21)23-14-15-9-5-4-6-10-15/h4-12H,2-3,13-14H2,1H3, purity 98%
Compound 6: methyl octadecanoate, C19H38O2, InChI=1S/C19H38O2/c1-3-4-5-6-7-8-9-10-11-12-13-14-15-16-17-18-19(20)21-2/h3-18H2,1-2H3, purity 99%
Compound 7: ethyl octadecanoate, C20H40O2, InChI=1S/C20H40O2/c1-3-5-6-7-8-9-10-11-12-13-14-15-16-17-18-19-20(21)22-4-2/h3-19H2,1-2H3
Compound 8: eicosane, C20H42, InChI=1S/C20H42/c1-3-5-7-9-11-13-15-17-19-20-18-16-14-12-10-8-6-4-2/h3-20H2,1-2H3, purity 99%
Compound 9: methyl eicosanoate, C21H42O2, InChI=1S/C21H42O2/c1-3-4-5-6-7-8-9-10-11-12-13-14-15-16-17-18-19-20-21(22)23-2/h3-20H2,1-2H3, purity 99%
Compound 10: methyl heneicosanoate, C22H44O2, InChI=1S/C22H44O2/c1-3-4-5-6-7-8-9-10-11-12-13-14-15-16-17-18-19-20-21-22(23)24-2/h3-21H2,1-2H3, purity 99%
Compound 11: docosane, C22H46, InChI=1S/C22H46/c1-3-5-7-9-11-13-15-17-19-21-22-20-18-16-14-12-10-8-6-4-2/h3-22H2,1-2H3, purity 99%
Compound 12: bis(2-ethylhexyl) 1,2-benzenedicarboxylate, C24H38O4, InChI=1S/C24H38O4/c1-5-9-13-19(7-3)17-27-23(25)21-15-11-12-16-22(21)24(26)28-18-20(8-4)14-10-6-2/h11-12,15-16,19-20H,5-10,13-14,17-18H2,1-4H3, purity 99%
Compound 13: dioctyl 1,2-benzenedicarboxylate, C24H38O4, InChI=1S/C24H38O4/c1-3-5-7-9-11-15-19-27-23(25)21-17-13-14-18-22(21)24(26)28-20-16-12-10-8-6-4-2/h13-14,17-18H,3-12,15-16,19-20H2,1-2H3, purity 98%
Compound 14: tetracosane, C24H50, InChI=1S/C24H50/c1-3-5-7-9-11-13-15-17-19-21-23-24-22-20-18-16-14-12-10-8-6-4-2/h3-24H2,1-2H3, purity 99%
Compound 15: pentacosane, C25H52, InChI=1S/C25H52/c1-3-5-7-9-11-13-15-17-19-21-23-25-24-22-20-18-16-14-12-10-8-6-4-2/h3-25H2,1-2H3, purity 99%
Compound 16: hexacosane, C26H54, InChI=1S/C26H54/c1-3-5-7-9-11-13-15-17-19-21-23-25-26-24-22-20-18-16-14-12-10-8-6-4-2/h3-26H2,1-2H3, purity 99%
Compound 17: octacosane, C28H58, InChI=1S/C28H58/c1-3-5-7-9-11-13-15-17-19-21-23-25-27-28-26-24-22-20-18-16-14-12-10-8-6-4-2/h3-28H2,1-2H3, purity 99%

System: dimethyl 1,2-benzenedicarboxylate; phases: Liquid, Gas
Property: Molar enthalpy of vaporization or sublimation, kJ/mol (Liquid); method: Chromatographic retention time
Temperature, K	Molar enthalpy of vaporization or sublimation, kJ/mol	uncertainty
298	84.2	0.1

System: dimethyl 1,2-benzenedicarboxylate; phases: Liquid, Gas
Property: Molar enthalpy of vaporization or sublimation, kJ/mol (Liquid); method: Correlation-gas chromatography
Temperature, K	Molar enthalpy of vaporization or sublimation, kJ/mol	uncertainty
298	66.4	0.1

System: diethyl phthalate; phases: Liquid, Gas
Property: Molar enthalpy of vaporization or sublimation, kJ/mol (Liquid); method: Chromatographic retention time
Temperature, K	Molar enthalpy of vaporization or sublimation, kJ/mol	uncertainty
298	88.6	0.1

System: diethyl phthalate; phases: Liquid, Gas
Property: Molar enthalpy of vaporization or sublimation, kJ/mol (Liquid); method: Correlation-gas chromatography
Temperature, K	Molar enthalpy of vaporization or sublimation, kJ/mol	uncertainty
298	73.9	0.1

System: dibutyl phthalate; phases: Liquid, Gas
Property: Molar enthalpy of vaporization or sublimation, kJ/mol (Liquid); method: Chromatographic retention time
Temperature, K	Molar enthalpy of vaporization or sublimation, kJ/mol	uncertainty
298	99.3	0.1

System: dibutyl phthalate; phases: Liquid, Gas
Property: Molar enthalpy of vaporization or sublimation, kJ/mol (Liquid); method: Correlation-gas chromatography
Temperature, K	Molar enthalpy of vaporization or sublimation, kJ/mol	uncertainty
298	92.4	0.1

System: methyl hexadecanoate; phases: Liquid, Gas
Property: Molar enthalpy of vaporization or sublimation, kJ/mol (Liquid); method: Chromatographic retention time
Temperature, K	Molar enthalpy of vaporization or sublimation, kJ/mol	uncertainty
298	101.8	0.1

System: methyl hexadecanoate; phases: Liquid, Gas
Property: Molar enthalpy of vaporization or sublimation, kJ/mol (Liquid); method: Correlation-gas chromatography
Temperature, K	Molar enthalpy of vaporization or sublimation, kJ/mol	uncertainty
298	95.3	0.1

System: benzyl butyl 1,2-benzenedioate; phases: Liquid, Gas
Property: Molar enthalpy of vaporization or sublimation, kJ/mol (Liquid); method: Chromatographic retention time
Temperature, K	Molar enthalpy of vaporization or sublimation, kJ/mol	uncertainty
298	109.8	0.2

System: benzyl butyl 1,2-benzenedioate; phases: Liquid, Gas
Property: Molar enthalpy of vaporization or sublimation, kJ/mol (Liquid); method: Correlation-gas chromatography
Temperature, K	Molar enthalpy of vaporization or sublimation, kJ/mol	uncertainty
298	107.9	0.2

System: methyl octadecanoate; phases: Liquid, Gas
Property: Molar enthalpy of vaporization or sublimation, kJ/mol (Liquid); method: Chromatographic retention time
Temperature, K	Molar enthalpy of vaporization or sublimation, kJ/mol	uncertainty
298	107.9	0.1

System: ethyl octadecanoate; phases: Liquid, Gas
Property: Molar enthalpy of vaporization or sublimation, kJ/mol (Liquid); method: Chromatographic retention time
Temperature, K	Molar enthalpy of vaporization or sublimation, kJ/mol	uncertainty
298	109.3	0.5

System: ethyl octadecanoate; phases: Liquid, Gas
Property: Molar enthalpy of vaporization or sublimation, kJ/mol (Liquid); method: Correlation-gas chromatography
Temperature, K	Molar enthalpy of vaporization or sublimation, kJ/mol	uncertainty
298	109.7	0.5

System: eicosane; phases: Liquid, Gas
Property: Molar enthalpy of vaporization or sublimation, kJ/mol (Liquid); method: Chromatographic retention time
Temperature, K	Molar enthalpy of vaporization or sublimation, kJ/mol	uncertainty
298	103.9	0.1

System: eicosane; phases: Liquid, Gas
Property: Molar enthalpy of vaporization or sublimation, kJ/mol (Liquid); method: Correlation-gas chromatography
Temperature, K	Molar enthalpy of vaporization or sublimation, kJ/mol	uncertainty
298	100.4	0.1

System: methyl eicosanoate; phases: Liquid, Gas
Property: Molar enthalpy of vaporization or sublimation, kJ/mol (Liquid); method: Chromatographic retention time
Temperature, K	Molar enthalpy of vaporization or sublimation, kJ/mol	uncertainty
298	111.1	0.1

System: methyl heneicosanoate; phases: Liquid, Gas
Property: Molar enthalpy of vaporization or sublimation, kJ/mol (Liquid); method: Chromatographic retention time
Temperature, K	Molar enthalpy of vaporization or sublimation, kJ/mol	uncertainty
298	116.3	0.1

System: methyl heneicosanoate; phases: Liquid, Gas
Property: Molar enthalpy of vaporization or sublimation, kJ/mol (Liquid); method: Correlation-gas chromatography
Temperature, K	Molar enthalpy of vaporization or sublimation, kJ/mol	uncertainty
298	121.7	0.1

System: docosane; phases: Liquid, Gas
Property: Molar enthalpy of vaporization or sublimation, kJ/mol (Liquid); method: Chromatographic retention time
Temperature, K	Molar enthalpy of vaporization or sublimation, kJ/mol	uncertainty
298	110	1

System: docosane; phases: Liquid, Gas
Property: Molar enthalpy of vaporization or sublimation, kJ/mol (Liquid); method: Correlation-gas chromatography
Temperature, K	Molar enthalpy of vaporization or sublimation, kJ/mol	uncertainty
298	111	1

System: bis(2-ethylhexyl) 1,2-benzenedicarboxylate; phases: Liquid, Gas
Property: Molar enthalpy of vaporization or sublimation, kJ/mol (Liquid); method: Chromatographic retention time
Temperature, K	Molar enthalpy of vaporization or sublimation, kJ/mol	uncertainty
298	116.9	0.1

System: bis(2-ethylhexyl) 1,2-benzenedicarboxylate; phases: Liquid, Gas
Property: Molar enthalpy of vaporization or sublimation, kJ/mol (Liquid); method: Correlation-gas chromatography
Temperature, K	Molar enthalpy of vaporization or sublimation, kJ/mol	uncertainty
298	122.8	0.1

System: dioctyl 1,2-benzenedicarboxylate; phases: Liquid, Gas
Property: Molar enthalpy of vaporization or sublimation, kJ/mol (Liquid); method: Chromatographic retention time
Temperature, K	Molar enthalpy of vaporization or sublimation, kJ/mol	uncertainty
298	122.7	0.2

System: dioctyl 1,2-benzenedicarboxylate; phases: Liquid, Gas
Property: Molar enthalpy of vaporization or sublimation, kJ/mol (Liquid); method: Correlation-gas chromatography
Temperature, K	Molar enthalpy of vaporization or sublimation, kJ/mol	uncertainty
298	131.6	0.2

System: tetracosane; phases: Liquid, Gas
Property: Molar enthalpy of vaporization or sublimation, kJ/mol (Liquid); method: Chromatographic retention time
Temperature, K	Molar enthalpy of vaporization or sublimation, kJ/mol	uncertainty
298	116.1	0.1

System: tetracosane; phases: Liquid, Gas
Property: Molar enthalpy of vaporization or sublimation, kJ/mol (Liquid); method: Correlation-gas chromatography
Temperature, K	Molar enthalpy of vaporization or sublimation, kJ/mol	uncertainty
298	121.5	0.1

System: pentacosane; phases: Liquid, Gas
Property: Molar enthalpy of vaporization or sublimation, kJ/mol (Liquid); method: Chromatographic retention time
Temperature, K	Molar enthalpy of vaporization or sublimation, kJ/mol	uncertainty
298	119.1	0.1

System: pentacosane; phases: Liquid, Gas
Property: Molar enthalpy of vaporization or sublimation, kJ/mol (Liquid); method: Correlation-gas chromatography
Temperature, K	Molar enthalpy of vaporization or sublimation, kJ/mol	uncertainty
298	126.7	0.1

System: hexacosane; phases: Liquid, Gas
Property: Molar enthalpy of vaporization or sublimation, kJ/mol (Liquid); method: Chromatographic retention time
Temperature, K	Molar enthalpy of vaporization or sublimation, kJ/mol	uncertainty
298	122	1

System: hexacosane; phases: Liquid, Gas
Property: Molar enthalpy of vaporization or sublimation, kJ/mol (Liquid); method: Correlation-gas chromatography
Temperature, K	Molar enthalpy of vaporization or sublimation, kJ/mol	uncertainty
298	131.8	0.1

System: octacosane; phases: Liquid, Gas
Property: Molar enthalpy of vaporization or sublimation, kJ/mol (Liquid); method: Chromatographic retention time
Temperature, K	Molar enthalpy of vaporization or sublimation, kJ/mol	uncertainty
298	128.6	0.5

System: octacosane; phases: Liquid, Gas
Property: Molar enthalpy of vaporization or sublimation, kJ/mol (Liquid); method: Correlation-gas chromatography
Temperature, K	Molar enthalpy of vaporization or sublimation, kJ/mol	uncertainty
298	142.3	0.5
