Measured thermophysical data. Vapor-Liquid Equilibria for R1234ze(E) and Three Imidazolium-Based Ionic Liquids as Working Pairs in Absorption-Refrigeration Cycle
Source: J. Chem. Eng. Data, 2018, 10.1021/acs.jced.8b00314
Compound 1: trans-1,3,3,3-tetrafluoropropene, C3H2F4, InChI=1S/C3H2F4/c4-2-1-3(5,6)7/h1-2H/b2-1+, purity 99.9%
Compound 2: 1-butyl-3-methylimidazolium hexafluorophosphate, C8H15F6N2P, InChI=1S/C8H15N2.F6P/c1-3-4-5-10-7-6-9(2)8-10;1-7(2,3,4,5)6/h6-8H,3-5H2,1-2H3;/q+1;-1, purity 97%
Compound 3: 1-hexyl-3-methylimidazolium hexafluorophosphate, C10H19F6N2P, InChI=1S/C10H19N2.F6P/c1-3-4-5-6-7-12-9-8-11(2)10-12;1-7(2,3,4,5)6/h8-10H,3-7H2,1-2H3;/q+1;-1, purity 97%
Compound 4: 1-octyl-3-methylimidazolium hexafluorophosphate, C12H23F6N2P, InChI=1S/C12H23N2.F6P/c1-3-4-5-6-7-8-9-14-11-10-13(2)12-14;1-7(2,3,4,5)6/h10-12H,3-9H2,1-2H3;/q+1;-1, purity 97%

System: trans-1,3,3,3-tetrafluoropropene + 1-butyl-3-methylimidazolium hexafluorophosphate; phases: Liquid, Gas
Property: Mole fraction of trans-1,3,3,3-tetrafluoropropene (Liquid); method: Phase equilibration
Temperature, K	Pressure, kPa	Mole fraction of trans-1,3,3,3-tetrafluoropropene	uncertainty
283.15	85.4	0.0918	0.0301
283.15	124.4	0.1338	0.0301
283.15	158.9	0.1774	0.0301
283.15	192.4	0.2167	0.0301
283.15	223.8	0.2593	0.0302
283.15	253.4	0.2969	0.0302
293.15	94.7	0.0764	0.03
293.15	139	0.1106	0.03
293.15	180.5	0.1433	0.0301
293.15	220	0.1754	0.0301
293.15	258.8	0.2097	0.0301
293.15	295.8	0.2419	0.0301
303.15	104.1	0.0613	0.03
303.15	153.1	0.0891	0.03
303.15	199.5	0.1154	0.03
303.15	244	0.1414	0.03
303.15	288.7	0.169	0.03
303.15	331.5	0.1952	0.0301
313.15	112.4	0.0499	0.03
313.15	165.4	0.0726	0.03
313.15	216	0.094	0.03
313.15	264.8	0.1151	0.03
313.15	314.2	0.1374	0.03
313.15	361.9	0.1584	0.03
323.15	119.7	0.0411	0.03
323.15	176.4	0.0599	0.03
323.15	230.6	0.0775	0.03
323.15	283.2	0.0947	0.03
323.15	336.6	0.1132	0.03
323.15	388.3	0.1304	0.03
333.15	126.4	0.0343	0.03
333.15	186.4	0.0502	0.03
333.15	243.9	0.0648	0.03
333.15	299.9	0.0791	0.03
333.15	356.8	0.0946	0.03
333.15	412.1	0.109	0.03
343.15	132.7	0.0289	0.0289
343.15	196	0.0417	0.03
343.15	256.5	0.0541	0.03
343.15	315.6	0.0663	0.03
343.15	376.1	0.0786	0.03
343.15	434.7	0.0906	0.03

System: trans-1,3,3,3-tetrafluoropropene + 1-hexyl-3-methylimidazolium hexafluorophosphate; phases: Liquid, Gas
Property: Mole fraction of trans-1,3,3,3-tetrafluoropropene (Liquid); method: Phase equilibration
Temperature, K	Pressure, kPa	Mole fraction of trans-1,3,3,3-tetrafluoropropene	uncertainty
283.15	84.7	0.1078	0.0301
283.15	122.8	0.1578	0.0301
283.15	156.9	0.2072	0.0302
283.15	188.1	0.2552	0.0302
283.15	219.2	0.3015	0.0302
283.15	246.4	0.3472	0.0303
293.15	93.9	0.0905	0.0301
293.15	137.1	0.1327	0.0301
293.15	178.1	0.1708	0.0301
293.15	216.6	0.2089	0.0301
293.15	254.9	0.2478	0.0301
293.15	290.2	0.2861	0.0301
303.15	103	0.0744	0.03
303.15	151.5	0.1078	0.03
303.15	197.5	0.1389	0.03
303.15	241.2	0.1706	0.0301
303.15	285.8	0.2018	0.0301
303.15	327.4	0.2336	0.0301
313.15	111.1	0.0615	0.03
313.15	164.1	0.0883	0.03
313.15	214.3	0.1141	0.03
313.15	262.6	0.1398	0.03
313.15	311.9	0.1656	0.03
313.15	358.5	0.1923	0.03
323.15	118.8	0.0505	0.03
323.15	175.5	0.0725	0.03
323.15	229.4	0.094	0.03
323.15	281.6	0.1155	0.03
323.15	335.1	0.1369	0.03
323.15	386.1	0.1587	0.03
333.15	125.8	0.0418	0.03
333.15	185.8	0.0605	0.03
333.15	243.1	0.0785	0.03
333.15	298.7	0.0968	0.03
333.15	355.9	0.1146	0.03
333.15	410.7	0.133	0.03
343.15	132.5	0.0344	0.03
343.15	195.6	0.0504	0.03
343.15	256	0.0656	0.03
343.15	315	0.0804	0.03
343.15	375.5	0.0957	0.03
343.15	434.2	0.1102	0.03

System: trans-1,3,3,3-tetrafluoropropene + 1-octyl-3-methylimidazolium hexafluorophosphate; phases: Liquid, Gas
Property: Mole fraction of trans-1,3,3,3-tetrafluoropropene (Liquid); method: Phase equilibration
Temperature, K	Pressure, kPa	Mole fraction of trans-1,3,3,3-tetrafluoropropene	uncertainty
283.15	85	0.1265	0.0302
283.15	123.1	0.183	0.0302
283.15	157.5	0.238	0.0302
283.15	190.3	0.2865	0.0302
283.15	221	0.3378	0.0303
283.15	247.7	0.3877	0.0304
293.15	94.1	0.1069	0.0301
293.15	138.7	0.1504	0.0301
293.15	180.4	0.1925	0.0301
293.15	218.2	0.2364	0.0301
293.15	256.6	0.2791	0.0302
293.15	291.7	0.3215	0.0302
303.15	103.4	0.0872	0.03
303.15	152.7	0.1228	0.03
303.15	199.1	0.1578	0.0301
303.15	242.7	0.1931	0.0301
303.15	286.9	0.229	0.0301
303.15	328.4	0.2648	0.0301
313.15	112	0.0704	0.03
313.15	164.8	0.1014	0.03
313.15	215.4	0.1305	0.03
313.15	263.6	0.1595	0.03
313.15	312.9	0.1885	0.0301
313.15	359.4	0.2189	0.0301
323.15	119.1	0.0592	0.03
323.15	175.7	0.0847	0.03
323.15	230.4	0.1077	0.03
323.15	282.1	0.1328	0.03
323.15	335.6	0.157	0.03
323.15	386.3	0.1827	0.03
333.15	125.9	0.0499	0.03
333.15	186	0.0705	0.03
333.15	243.7	0.0907	0.03
333.15	299	0.1115	0.03
333.15	356	0.1321	0.03
333.15	410.6	0.1539	0.03
343.15	132.8	0.0403	0.03
343.15	195.9	0.0582	0.03
343.15	256.3	0.0765	0.03
343.15	315	0.0934	0.03
343.15	375.3	0.1112	0.03
343.15	434	0.1281	0.03
