Measured thermophysical data. Equilibrium Study on the Extraction of Levulinic Acid from Aqueous Solution with Aliquat 336 Dissolved in Different Diluents: Solvent s Polarity Effect and Column Design
Source: J. Chem. Eng. Data, 2017, 10.1021/acs.jced.6b00164
Compound 1: 4-oxopentanoic acid, C5H8O3, InChI=1S/C5H8O3/c1-4(6)2-3-5(7)8/h2-3H2,1H3,(H,7,8)
Compound 2: dodecane, C12H26, InChI=1S/C12H26/c1-3-5-7-9-11-12-10-8-6-4-2/h3-12H2,1-2H3
Compound 3: dichloromethane, CH2Cl2, InChI=1S/CH2Cl2/c2-1-3/h1H2
Compound 4: 4-methylpentan-2-one, C6H12O, InChI=1S/C6H12O/c1-5(2)4-6(3)7/h5H,4H2,1-3H3
Compound 5: benzene, C6H6, InChI=1S/C6H6/c1-2-4-6-5-3-1/h1-6H
Compound 6: octan-1-ol, C8H18O, InChI=1S/C8H18O/c1-2-3-4-5-6-7-8-9/h9H,2-8H2,1H3
Compound 7: water, H2O, InChI=1S/H2O/h1H2, purity 99.8%

System: dodecane + 4-oxopentanoic acid + water; phases: Liquid mixture 1, Liquid mixture 2
Fixed: Temperature, K = 298
Fixed: Pressure, kPa = 100
Property: Molality, mol/kg of 4-oxopentanoic acid (Liquid mixture 1); method: titration
Molality, mol/kg of 4-oxopentanoic acid	Molality, mol/kg of 4-oxopentanoic acid	uncertainty
0.0997	0.0102	0.0023
0.1469	0.0126	0.0026
0.2717	0.0078	0.0021
0.4064	0.0061	0.0028
0.5103	0.0002	0.0058

System: benzene + 4-oxopentanoic acid + water; phases: Liquid mixture 1, Liquid mixture 2
Fixed: Temperature, K = 298
Fixed: Pressure, kPa = 100
Property: Molality, mol/kg of 4-oxopentanoic acid (Liquid mixture 1); method: titration
Molality, mol/kg of 4-oxopentanoic acid	Molality, mol/kg of 4-oxopentanoic acid	uncertainty
0.1054	0.0045	0.0014
0.1525	0.007	0.0024
0.2648	0.0147	0.0046
0.3897	0.0228	0.0069
0.4813	0.0292	0.0089

System: octan-1-ol + 4-oxopentanoic acid + water; phases: Liquid mixture 1, Liquid mixture 2
Fixed: Temperature, K = 298
Fixed: Pressure, kPa = 100
Property: Molality, mol/kg of 4-oxopentanoic acid (Liquid mixture 1); method: titration
Molality, mol/kg of 4-oxopentanoic acid	Molality, mol/kg of 4-oxopentanoic acid	uncertainty
0.0788	0.0311	0.0079
0.1169	0.0426	0.0119
0.2046	0.0749	0.0153
0.3496	0.0629	0.0132
0.4487	0.0618	0.0125

System: 4-methylpentan-2-one + 4-oxopentanoic acid + water; phases: Liquid mixture 1, Liquid mixture 2
Fixed: Temperature, K = 298
Fixed: Pressure, kPa = 100
Property: Molality, mol/kg of 4-oxopentanoic acid (Liquid mixture 1); method: titration
Molality, mol/kg of 4-oxopentanoic acid	Molality, mol/kg of 4-oxopentanoic acid	uncertainty
0.0651	0.0448	0.0106
0.0997	0.0598	0.0143
0.1867	0.0928	0.0198
0.3134	0.0991	0.0205
0.4012	0.1093	0.0239

System: dichloromethane + 4-oxopentanoic acid + water; phases: Liquid mixture 1, Liquid mixture 2
Fixed: Temperature, K = 298
Fixed: Pressure, kPa = 100
Property: Molality, mol/kg of 4-oxopentanoic acid (Liquid mixture 1); method: titration
Molality, mol/kg of 4-oxopentanoic acid	Molality, mol/kg of 4-oxopentanoic acid	uncertainty
0.0899	0.02	0.0043
0.1356	0.0239	0.0052
0.2472	0.0323	0.0065
0.3866	0.0259	0.0062
0.4884	0.0221	0.0057
