Measured thermophysical data. Solubility of Mercury in Liquid Hydrocarbons and Hydrocarbon Mixtures
Source: J. Chem. Eng. Data, 2016, 10.1021/acs.jced.6b00173
Compound 1: mercury, Hg, InChI=1S/Hg, purity 99.99%
Compound 2: methane, CH4, InChI=1S/CH4/h1H4, purity 99.99%
Compound 3: propane, C3H8, InChI=1S/C3H8/c1-3-2/h3H2,1-2H3, purity 99.9%
Compound 4: pentane, C5H12, InChI=1S/C5H12/c1-3-5-4-2/h3-5H2,1-2H3, purity 99.8%
Compound 5: octane, C8H18, InChI=1S/C8H18/c1-3-5-7-8-6-4-2/h3-8H2,1-2H3, purity 99.7%
Compound 6: toluene, C7H8, InChI=1S/C7H8/c1-7-5-3-2-4-6-7/h2-6H,1H3, purity 99.8%

System: mercury + methane; phases: Liquid, Crystal
Property: Amount concentration (molarity), mol/dm3 of mercury (Liquid); method: SPECTR
Temperature, K	Pressure, kPa	Amount concentration (molarity), mol/dm3 of mercury	uncertainty
173.2	2100	1e-09	1e-06

System: mercury + propane; phases: Liquid, Crystal
Fixed: Pressure, kPa = 2100
Property: Amount concentration (molarity), mol/dm3 of mercury (Liquid); method: SPECTR
Temperature, K	Amount concentration (molarity), mol/dm3 of mercury	uncertainty
177.15	1e-09	7.746e-07
203.15	6e-09	7.747e-07
233.15	7e-08	7.757e-07

System: mercury + propane; phases: Liquid, Liquid
Fixed: Pressure, kPa = 2100
Property: Amount concentration (molarity), mol/dm3 of mercury (Liquid); method: SPECTR
Temperature, K	Amount concentration (molarity), mol/dm3 of mercury	uncertainty
296.15	4.1e-06	1.2e-06
313.5	9.1e-06	1.7e-06
343.15	3.09e-05	2.2e-06

System: mercury + pentane; phases: Liquid, Crystal
Property: Amount concentration (molarity), mol/dm3 of mercury (Liquid); method: SPECTR
Temperature, K	Pressure, kPa	Amount concentration (molarity), mol/dm3 of mercury	uncertainty
233.15	2100	9e-08	7.8e-07

System: mercury + pentane; phases: Liquid, Liquid
Fixed: Pressure, kPa = 2100
Property: Amount concentration (molarity), mol/dm3 of mercury (Liquid); method: SPECTR
Temperature, K	Amount concentration (molarity), mol/dm3 of mercury	uncertainty
263.15	7e-07	8.5e-07
298.65	6.3e-06	1.11e-06
323.15	1.91e-05	2.29e-06
343.15	3.59e-05	4.57e-06
383.15	0.0001176	1.016e-05

System: mercury + octane; phases: Liquid, Crystal
Property: Amount concentration (molarity), mol/dm3 of mercury (Liquid); method: SPECTR
Temperature, K	Pressure, kPa	Amount concentration (molarity), mol/dm3 of mercury	uncertainty
233.15	2100	9e-08	7.8e-07

System: mercury + octane; phases: Liquid, Liquid
Fixed: Pressure, kPa = 2100
Property: Amount concentration (molarity), mol/dm3 of mercury (Liquid); method: SPECTR
Temperature, K	Amount concentration (molarity), mol/dm3 of mercury	uncertainty
263.15	7.1e-07	8.5e-07
298.65	6.31e-06	1.23e-06
323.15	2.04e-05	2.9e-06
343.15	4.23e-05	6.62e-06
413.15	0.000219	2.289e-05

System: mercury + toluene; phases: Liquid, Crystal
Property: Amount concentration (molarity), mol/dm3 of mercury (Liquid); method: SPECTR
Temperature, K	Pressure, kPa	Amount concentration (molarity), mol/dm3 of mercury	uncertainty
233.15	2100	1.6e-07	7.8e-07

System: mercury + toluene; phases: Liquid, Liquid
Fixed: Pressure, kPa = 2100
Property: Amount concentration (molarity), mol/dm3 of mercury (Liquid); method: SPECTR
Temperature, K	Amount concentration (molarity), mol/dm3 of mercury	uncertainty
263.15	1.35e-06	8.9e-07
283.15	5.37e-06	1.23e-06
298.15	1.27e-05	3.72e-06
343.15	9.77e-05	1.503e-05
383.15	0.000324	4.589e-05
419.15	0.000776	0.00010762
