Measured thermophysical data. Solubility Increment and Thermodynamic Analysis of Bioactive Antofloxacin Hydrochloride in Aqueous ChCl/PTS Deep Eutectic Solvent and Cosolvent Mixtures
Source: J. Chem. Eng. Data, 2019, 10.1021/acs.jced.9b00717
Compound 1: antofloxacin hydrochloride, C18H22ClFN4O4, InChI=1S/C18H21FN4O4.ClH/c1-9-8-27-17-14-11(16(24)10(18(25)26)7-23(9)14)13(20)12(19)15(17)22-5-3-21(2)4-6-22;/h7,9H,3-6,8,20H2,1-2H3,(H,25,26);1H/t9-;/m0./s1, purity 98.4%
Compound 2: 4-methylbenzenesulfonic acid, C7H8O3S, InChI=1S/C7H8O3S/c1-6-2-4-7(5-3-6)11(8,9)10/h2-5H,1H3,(H,8,9,10), purity 99%
Compound 3: choline chloride, C5H14ClNO, InChI=1S/C5H14NO.ClH/c1-6(2,3)4-5-7;/h7H,4-5H2,1-3H3;1H/q+1;/p-1, purity 99%
Compound 4: toluene, C7H8, InChI=1S/C7H8/c1-7-5-3-2-4-6-7/h2-6H,1H3, purity 99.5%
Compound 5: water, H2O, InChI=1S/H2O/h1H2, purity 99.9%
Compound 6: benzoic acid, C7H6O2, InChI=1S/C7H6O2/c8-7(9)6-4-2-1-3-5-6/h1-5H,(H,8,9), purity 99.5%
Compound 7: ethanol, C2H6O, InChI=1S/C2H6O/c1-2-3/h3H,2H2,1H3, purity 99.5%
Compound 8: acetonitrile, C2H3N, InChI=1S/C2H3N/c1-2-3/h1H3, purity 99.7%

System: benzoic acid + toluene; phases: Liquid, Crystal
Fixed: Pressure, kPa = 101.3
Property: Mole fraction of benzoic acid (Liquid); method: Chromatography
Temperature, K	Mole fraction of benzoic acid	uncertainty
273.15	0.03402	0.0034
283.15	0.04256	0.00426
293.15	0.06142	0.00614
298.15	0.07401	0.0074
303.15	0.09012	0.00902
313.15	0.127	0.0127
323.15	0.1783	0.0178

System: antofloxacin hydrochloride + water; phases: Liquid, Crystal
Fixed: Pressure, kPa = 101.3
Property: Mole fraction of antofloxacin hydrochloride (Liquid); method: Chromatography
Temperature, K	Mole fraction of antofloxacin hydrochloride	uncertainty
273.15	0.0004357	4.36e-05
278.15	0.000564	5.64e-05
283.15	0.0007246	7.25e-05
288.15	0.0009706	9.71e-05
293.15	0.001256	0.000126
298.15	0.001613	0.000161
303.15	0.002036	0.000204
308.15	0.002531	0.000253
313.15	0.003113	0.000311
318.15	0.003757	0.000376

System: antofloxacin hydrochloride + choline chloride + 4-methylbenzenesulfonic acid; phases: Liquid, Crystal
Fixed: Solvent: Amount ratio of component to other component of binary solvent of 4-methylbenzenesulfonic acid = 2
Fixed: Pressure, kPa = 101.3
Property: Mole fraction of antofloxacin hydrochloride (Liquid); method: Chromatography
Temperature, K	Mole fraction of antofloxacin hydrochloride	uncertainty
273.15	0.02187	0.00219
278.15	0.03446	0.00345
283.15	0.05912	0.00592
288.15	0.1009	0.0101
293.15	0.1601	0.016
298.15	0.2384	0.0239
303.15	0.3352	0.0335
308.15	0.4507	0.0451
313.15	0.5918	0.0592
318.15	0.738	0.0738

System: antofloxacin hydrochloride + ethanol + water; phases: Liquid, Crystal
Fixed: Pressure, kPa = 101.3
Property: Mole fraction of antofloxacin hydrochloride (Liquid); method: Chromatography
Temperature, K	Solvent: Mass fraction of water	Mole fraction of antofloxacin hydrochloride	uncertainty
273.15	0.1	6.362e-05	6.36e-06
273.15	0.2	0.0001652	1.65e-05
273.15	0.3	0.0002382	2.38e-05
273.15	0.4	0.0002481	2.48e-05
273.15	0.5	0.0002529	2.53e-05
273.15	0.6	0.0002676	2.68e-05
273.15	0.7	0.000317	3.17e-05
273.15	0.8	0.0003461	3.46e-05
273.15	0.9	0.0003844	3.85e-05
273.15	1	0.0004357	4.36e-05
278.15	0.1	7.114e-05	7.12e-06
278.15	0.2	0.0001839	1.84e-05
278.15	0.3	0.0002667	2.67e-05
278.15	0.4	0.000291	2.91e-05
278.15	0.5	0.0002949	2.95e-05
278.15	0.6	0.0003243	3.24e-05
278.15	0.7	0.0003977	3.98e-05
278.15	0.8	0.0004426	4.43e-05
278.15	0.9	0.000499	4.99e-05
278.15	1	0.000564	5.64e-05
283.15	0.1	8.042e-05	8.04e-06
283.15	0.2	0.0002077	2.08e-05
283.15	0.3	0.0003041	3.04e-05
283.15	0.4	0.0003365	3.37e-05
283.15	0.5	0.0003503	3.5e-05
283.15	0.6	0.0003884	3.89e-05
283.15	0.7	0.0004932	4.93e-05
283.15	0.8	0.0005639	5.64e-05
283.15	0.9	0.0006381	6.38e-05
283.15	1	0.0007246	7.25e-05
288.15	0.1	9.07e-05	9.07e-06
288.15	0.2	0.0002356	2.36e-05
288.15	0.3	0.0003502	3.5e-05
288.15	0.4	0.0003955	3.96e-05
288.15	0.5	0.0004201	4.2e-05
288.15	0.6	0.0004847	4.85e-05
288.15	0.7	0.0006078	6.08e-05
288.15	0.8	0.0007191	7.19e-05
288.15	0.9	0.0008376	8.38e-05
288.15	1	0.0009706	9.71e-05
293.15	0.1	0.0001022	1.02e-05
293.15	0.2	0.0002671	2.67e-05
293.15	0.3	0.0004032	4.03e-05
293.15	0.4	0.0004645	4.65e-05
293.15	0.5	0.000499	4.99e-05
293.15	0.6	0.0005874	5.88e-05
293.15	0.7	0.0007429	7.43e-05
293.15	0.8	0.0009103	9.11e-05
293.15	0.9	0.001066	0.000107
293.15	1	0.001256	0.000126
298.15	0.1	0.0001135	1.14e-05
298.15	0.2	0.0002984	2.98e-05
298.15	0.3	0.0004574	4.58e-05
298.15	0.4	0.0005375	5.38e-05
298.15	0.5	0.0005897	5.9e-05
298.15	0.6	0.0007104	7.11e-05
298.15	0.7	0.000891	8.91e-05
298.15	0.8	0.001167	0.000117
298.15	0.9	0.001356	0.000136
298.15	1	0.001613	0.000161
303.15	0.1	0.0001273	1.27e-05
303.15	0.2	0.0003353	3.35e-05
303.15	0.3	0.0005197	5.2e-05
303.15	0.4	0.0006201	6.2e-05
303.15	0.5	0.0006916	6.92e-05
303.15	0.6	0.0008121	8.12e-05
303.15	0.7	0.001068	0.000107
303.15	0.8	0.001431	0.000143
303.15	0.9	0.0017	0.00017
303.15	1	0.002036	0.000204
308.15	0.1	0.0001425	1.43e-05
308.15	0.2	0.0003759	3.76e-05
308.15	0.3	0.0005885	5.89e-05
308.15	0.4	0.0007125	7.13e-05
308.15	0.5	0.0008071	8.07e-05
308.15	0.6	0.0009618	9.62e-05
308.15	0.7	0.001265	0.000127
308.15	0.8	0.001754	0.000175
308.15	0.9	0.002103	0.00021
308.15	1	0.002531	0.000253
313.15	0.1	0.0001573	1.57e-05
313.15	0.2	0.0004155	4.16e-05
313.15	0.3	0.000657	6.57e-05
313.15	0.4	0.0008067	8.07e-05
313.15	0.5	0.0009277	9.28e-05
313.15	0.6	0.001121	0.000112
313.15	0.7	0.001481	0.000148
313.15	0.8	0.002105	0.000211
313.15	0.9	0.002559	0.000256
313.15	1	0.003113	0.000311
318.15	0.1	0.0001742	1.74e-05
318.15	0.2	0.0004596	4.6e-05
318.15	0.3	0.0007315	7.32e-05
318.15	0.4	0.0009075	9.08e-05
318.15	0.5	0.001056	0.000106
318.15	0.6	0.00129	0.000129
318.15	0.7	0.001726	0.000173
318.15	0.8	0.002486	0.000249
318.15	0.9	0.003105	0.000311
318.15	1	0.003757	0.000376

System: antofloxacin hydrochloride + ethanol + acetonitrile; phases: Liquid, Crystal
Fixed: Pressure, kPa = 101.3
Property: Mole fraction of antofloxacin hydrochloride (Liquid); method: Chromatography
Temperature, K	Solvent: Mass fraction of ethanol	Mole fraction of antofloxacin hydrochloride	uncertainty
273.15	0.1	1.776e-05	1.78e-06
273.15	0.2	3.593e-05	3.59e-06
273.15	0.3	4.981e-05	4.98e-06
273.15	0.4	6.368e-05	6.37e-06
273.15	0.5	6.753e-05	6.75e-06
273.15	0.6	7.138e-05	7.14e-06
273.15	0.7	5.728e-05	5.73e-06
273.15	0.8	4.318e-05	4.32e-06
273.15	0.9	2.624e-05	2.62e-06
278.15	0.1	1.889e-05	1.89e-06
278.15	0.2	3.899e-05	3.9e-06
278.15	0.3	5.448e-05	5.45e-06
278.15	0.4	6.996e-05	7e-06
278.15	0.5	7.355e-05	7.36e-06
278.15	0.6	7.715e-05	7.72e-06
278.15	0.7	6.24e-05	6.24e-06
278.15	0.8	4.765e-05	4.77e-06
278.15	0.9	2.914e-05	2.91e-06
283.15	0.1	2.049e-05	2.05e-06
283.15	0.2	4.227e-05	4.23e-06
283.15	0.3	5.935e-05	5.94e-06
283.15	0.4	7.643e-05	7.64e-06
283.15	0.5	8.001e-05	8e-06
283.15	0.6	8.36e-05	8.36e-06
283.15	0.7	6.796e-05	6.8e-06
283.15	0.8	5.232e-05	5.23e-06
283.15	0.9	3.227e-05	3.23e-06
288.15	0.1	2.237e-05	2.24e-06
288.15	0.2	4.573e-05	4.57e-06
288.15	0.3	6.462e-05	6.46e-06
288.15	0.4	8.35e-05	8.35e-06
288.15	0.5	8.701e-05	8.7e-06
288.15	0.6	9.052e-05	9.05e-06
288.15	0.7	7.375e-05	7.38e-06
288.15	0.8	5.698e-05	5.7e-06
288.15	0.9	3.545e-05	3.55e-06
293.15	0.1	2.441e-05	2.44e-06
293.15	0.2	4.929e-05	4.93e-06
293.15	0.3	7.012e-05	7.01e-06
293.15	0.4	9.094e-05	9.1e-06
293.15	0.5	9.436e-05	9.44e-06
293.15	0.6	9.778e-05	9.78e-06
293.15	0.7	8.007e-05	8.01e-06
293.15	0.8	6.236e-05	6.24e-06
293.15	0.9	3.911e-05	3.91e-06
298.15	0.1	2.658e-05	2.66e-06
298.15	0.2	5.332e-05	5.33e-06
298.15	0.3	7.637e-05	7.64e-06
298.15	0.4	9.942e-05	9.94e-06
298.15	0.5	0.0001026	1.03e-05
298.15	0.6	0.0001058	1.06e-05
298.15	0.7	8.686e-05	8.69e-06
298.15	0.8	6.792e-05	6.79e-06
298.15	0.9	4.285e-05	4.29e-06
303.15	0.1	2.899e-05	2.9e-06
303.15	0.2	5.712e-05	5.71e-06
303.15	0.3	8.266e-05	8.27e-06
303.15	0.4	0.0001082	1.08e-05
303.15	0.5	0.0001112	1.11e-05
303.15	0.6	0.0001142	1.14e-05
303.15	0.7	9.415e-05	9.42e-06
303.15	0.8	7.409e-05	7.41e-06
303.15	0.9	4.714e-05	4.72e-06
308.15	0.1	3.138e-05	3.14e-06
308.15	0.2	6.153e-05	6.15e-06
308.15	0.3	8.951e-05	8.95e-06
308.15	0.4	0.0001175	1.18e-05
308.15	0.5	0.0001204	1.2e-05
308.15	0.6	0.0001233	1.23e-05
308.15	0.7	0.0001021	1.02e-05
308.15	0.8	8.092e-05	8.09e-06
308.15	0.9	5.189e-05	5.19e-06
313.15	0.1	3.404e-05	3.4e-06
313.15	0.2	6.625e-05	6.63e-06
313.15	0.3	9.697e-05	9.7e-06
313.15	0.4	0.0001277	1.28e-05
313.15	0.5	0.0001307	1.31e-05
313.15	0.6	0.0001336	1.34e-05
313.15	0.7	0.0001111	1.11e-05
313.15	0.8	8.866e-05	8.87e-06
313.15	0.9	5.711e-05	5.71e-06
318.15	0.1	3.719e-05	3.72e-06
318.15	0.2	7.13e-05	7.13e-06
318.15	0.3	0.0001048	1.05e-05
318.15	0.4	0.0001382	1.38e-05
318.15	0.5	0.0001409	1.41e-05
318.15	0.6	0.0001436	1.44e-05
318.15	0.7	0.00012	1.2e-05
318.15	0.8	9.648e-05	9.65e-06
318.15	0.9	6.261e-05	6.26e-06
