Measured thermophysical data. Solubility Modeling, Solvent Effect, and Preferential Solvation of Thiamphenicol in Cosolvent Mixtures of Methanol, Ethanol, N,N-Dimethylformamide, and 1,4-Dioxane with Water
Source: J. Chem. Eng. Data, 2018, 10.1021/acs.jced.8b00179
Compound 1: thiamphenicol, C12H15Cl2NO5S, InChI=1S/C12H15Cl2NO5S/c1-21(19,20)8-4-2-7(3-5-8)10(17)9(6-16)15-12(18)11(13)14/h2-5,9-11,16-17H,6H2,1H3,(H,15,18)/t9-,10-/m1/s1, purity 97.5%
Compound 2: ethanol, C2H6O, InChI=1S/C2H6O/c1-2-3/h3H,2H2,1H3, purity 99.4%
Compound 3: methanol, CH4O, InChI=1S/CH4O/c1-2/h2H,1H3, purity 99.5%
Compound 4: 1,4-dioxane, C4H8O2, InChI=1S/C4H8O2/c1-2-6-4-3-5-1/h1-4H2, purity 99.5%
Compound 5: dimethylformamide, C3H7NO, InChI=1S/C3H7NO/c1-4(2)3-5/h3H,1-2H3, purity 99.4%
Compound 6: water, H2O, InChI=1S/H2O/h1H2, purity 99.8%

System: thiamphenicol + methanol + water; phases: Liquid, Crystal
Fixed: Pressure, kPa = 101.1
Property: Mole fraction of thiamphenicol (Liquid); method: Chromatography
Temperature, K	Solvent: Mass fraction of methanol	Mole fraction of thiamphenicol	uncertainty
278.15	0.1	3.707e-05	3.34e-06
283.15	0.1	5.252e-05	4.73e-06
288.15	0.1	7.709e-05	6.94e-06
293.15	0.1	0.0001108	1e-05
298.15	0.1	0.0001482	1.33e-05
303.15	0.1	0.0002079	1.87e-05
308.15	0.1	0.0002855	2.57e-05
313.15	0.1	0.0003838	3.46e-05
318.15	0.1	0.0005105	4.6e-05
278.15	0.2	5.022e-05	4.52e-06
283.15	0.2	7.26e-05	6.54e-06
288.15	0.2	0.0001074	9.7e-06
293.15	0.2	0.0001522	1.37e-05
298.15	0.2	0.0002061	1.86e-05
303.15	0.2	0.0002902	2.61e-05
308.15	0.2	0.0003914	3.52e-05
313.15	0.2	0.0005282	4.76e-05
318.15	0.2	0.0007057	6.35e-05
278.15	0.3	6.466e-05	5.83e-06
283.15	0.3	9.45e-05	8.51e-06
288.15	0.3	0.0001405	1.27e-05
293.15	0.3	0.0001977	1.78e-05
298.15	0.3	0.0002697	2.43e-05
303.15	0.3	0.000381	3.43e-05
308.15	0.3	0.0005144	4.63e-05
313.15	0.3	0.0006891	6.21e-05
318.15	0.3	0.0009195	8.28e-05
278.15	0.4	8.081e-05	7.28e-06
283.15	0.4	0.000119	1.07e-05
288.15	0.4	0.0001774	1.6e-05
293.15	0.4	0.0002484	2.24e-05
298.15	0.4	0.0003402	3.06e-05
303.15	0.4	0.0004815	4.34e-05
308.15	0.4	0.0006417	5.78e-05
313.15	0.4	0.0008734	7.87e-05
318.15	0.4	0.001162	0.000105
278.15	0.5	9.895e-05	8.92e-06
283.15	0.5	0.0001462	1.32e-05
288.15	0.5	0.0002183	1.97e-05
293.15	0.5	0.0003044	2.74e-05
298.15	0.5	0.0004188	3.77e-05
303.15	0.5	0.0005933	5.34e-05
308.15	0.5	0.0008017	7.22e-05
313.15	0.5	0.001074	9.7e-05
318.15	0.5	0.001428	0.000129
278.15	0.6	0.0001188	1.07e-05
283.15	0.6	0.0001768	1.59e-05
288.15	0.6	0.000264	2.38e-05
293.15	0.6	0.0003669	3.3e-05
298.15	0.6	0.0005062	4.56e-05
303.15	0.6	0.000718	6.47e-05
308.15	0.6	0.0009456	8.52e-05
313.15	0.6	0.001307	0.000118
318.15	0.6	0.001733	0.000156
278.15	0.7	0.0001413	1.27e-05
283.15	0.7	0.0002108	1.9e-05
288.15	0.7	0.0003154	2.84e-05
293.15	0.7	0.0004375	3.94e-05
298.15	0.7	0.000605	5.45e-05
303.15	0.7	0.0008588	7.73e-05
308.15	0.7	0.001137	0.000102
313.15	0.7	0.001569	0.000141
318.15	0.7	0.002077	0.000187
278.15	0.8	0.0001669	1.5e-05
283.15	0.8	0.0002494	2.25e-05
288.15	0.8	0.000374	3.37e-05
293.15	0.8	0.000518	4.67e-05
298.15	0.8	0.0007172	6.46e-05
303.15	0.8	0.001018	9.2e-05
308.15	0.8	0.001357	0.000122
313.15	0.8	0.001858	0.000167
318.15	0.8	0.002458	0.000221
278.15	0.9	0.0001954	1.76e-05
283.15	0.9	0.0002937	2.65e-05
288.15	0.9	0.0004412	3.97e-05
293.15	0.9	0.0006091	5.49e-05
298.15	0.9	0.0008457	7.62e-05
303.15	0.9	0.0012	0.000108
308.15	0.9	0.001625	0.000146
313.15	0.9	0.002188	0.000197
318.15	0.9	0.002894	0.000261

System: thiamphenicol + ethanol + water; phases: Liquid, Crystal
Fixed: Pressure, kPa = 101.1
Property: Mole fraction of thiamphenicol (Liquid); method: Chromatography
Temperature, K	Solvent: Mass fraction of ethanol	Mole fraction of thiamphenicol	uncertainty
278.15	0.1	2.819e-05	2.54e-06
283.15	0.1	4.07e-05	3.67e-06
288.15	0.1	5.492e-05	4.95e-06
293.15	0.1	8.283e-05	7.46e-06
298.15	0.1	0.0001113	1e-05
303.15	0.1	0.000153	1.38e-05
308.15	0.1	0.0002161	1.95e-05
313.15	0.1	0.000289	2.6e-05
318.15	0.1	0.0003885	3.5e-05
278.15	0.2	3.19e-05	2.87e-06
283.15	0.2	4.639e-05	4.18e-06
288.15	0.2	6.264e-05	5.64e-06
293.15	0.2	9.402e-05	8.47e-06
298.15	0.2	0.0001238	1.12e-05
303.15	0.2	0.0001785	1.61e-05
308.15	0.2	0.000243	2.19e-05
313.15	0.2	0.0003314	2.98e-05
318.15	0.2	0.0004466	4.02e-05
278.15	0.3	3.596e-05	3.24e-06
283.15	0.3	5.06e-05	4.56e-06
288.15	0.3	7.152e-05	6.44e-06
293.15	0.3	0.0001094	9.9e-06
298.15	0.3	0.0001421	1.28e-05
303.15	0.3	0.0002056	1.85e-05
308.15	0.3	0.0002756	2.48e-05
313.15	0.3	0.00038	3.42e-05
318.15	0.3	0.0005131	4.62e-05
278.15	0.4	4.084e-05	3.68e-06
283.15	0.4	6.059e-05	5.46e-06
288.15	0.4	8.473e-05	7.63e-06
293.15	0.4	0.000119	1.07e-05
298.15	0.4	0.000169	1.52e-05
303.15	0.4	0.0002315	2.09e-05
308.15	0.4	0.0003246	2.92e-05
313.15	0.4	0.0004452	4.01e-05
318.15	0.4	0.0005991	5.39e-05
278.15	0.5	4.666e-05	4.2e-06
283.15	0.5	6.633e-05	5.97e-06
288.15	0.5	9.441e-05	8.5e-06
293.15	0.5	0.0001424	1.28e-05
298.15	0.5	0.0001918	1.73e-05
303.15	0.5	0.0002678	2.41e-05
308.15	0.5	0.0003732	3.36e-05
313.15	0.5	0.0005033	4.53e-05
318.15	0.5	0.0006817	6.14e-05
278.15	0.6	5.339e-05	4.81e-06
283.15	0.6	7.618e-05	6.86e-06
288.15	0.6	0.0001159	1.04e-05
293.15	0.6	0.0001568	1.41e-05
298.15	0.6	0.0002257	2.03e-05
303.15	0.6	0.000311	2.8e-05
308.15	0.6	0.0004314	3.89e-05
313.15	0.6	0.0005862	5.28e-05
318.15	0.6	0.0007935	7.15e-05
278.15	0.7	6.156e-05	5.55e-06
283.15	0.7	9.277e-05	8.36e-06
288.15	0.7	0.0001349	1.21e-05
293.15	0.7	0.0001816	1.64e-05
298.15	0.7	0.000263	2.37e-05
303.15	0.7	0.0003631	3.27e-05
308.15	0.7	0.0005018	4.52e-05
313.15	0.7	0.0006994	6.3e-05
318.15	0.7	0.0009421	8.48e-05
278.15	0.8	7.191e-05	6.48e-06
283.15	0.8	0.0001084	9.8e-06
288.15	0.8	0.0001484	1.34e-05
293.15	0.8	0.0002168	1.95e-05
298.15	0.8	0.0003096	2.79e-05
303.15	0.8	0.0004279	3.85e-05
308.15	0.8	0.0005888	5.3e-05
313.15	0.8	0.0008071	7.27e-05
318.15	0.8	0.001094	9.9e-05
278.15	0.9	8.476e-05	7.63e-06
283.15	0.9	0.0001172	1.06e-05
288.15	0.9	0.0001817	1.64e-05
293.15	0.9	0.0002625	2.36e-05
298.15	0.9	0.0003626	3.27e-05
303.15	0.9	0.0005214	4.7e-05
308.15	0.9	0.0006877	6.19e-05
313.15	0.9	0.000937	8.44e-05
318.15	0.9	0.001273	0.000115

System: thiamphenicol + dimethylformamide + water; phases: Liquid, Crystal
Fixed: Pressure, kPa = 101.1
Property: Mole fraction of thiamphenicol (Liquid); method: Chromatography
Temperature, K	Solvent: Mass fraction of dimethylformamide	Mole fraction of thiamphenicol	uncertainty
278.15	0.1	0.0001739	1.57e-05
283.15	0.1	0.0002301	2.07e-05
288.15	0.1	0.0003237	2.92e-05
293.15	0.1	0.0004583	4.13e-05
298.15	0.1	0.0005835	5.25e-05
303.15	0.1	0.000786	7.08e-05
308.15	0.1	0.001073	9.7e-05
313.15	0.1	0.001407	0.000127
318.15	0.1	0.001831	0.000165
278.15	0.2	0.0005219	4.7e-05
283.15	0.2	0.0006843	6.16e-05
288.15	0.2	0.000941	8.47e-05
293.15	0.2	0.001277	0.000115
298.15	0.2	0.00167	0.00015
303.15	0.2	0.002194	0.000198
308.15	0.2	0.00292	0.000263
313.15	0.2	0.003752	0.000338
318.15	0.2	0.004761	0.000429
278.15	0.3	0.0009368	8.44e-05
283.15	0.3	0.001221	0.00011
288.15	0.3	0.00166	0.00015
293.15	0.3	0.002267	0.000204
298.15	0.3	0.002843	0.000256
303.15	0.3	0.003707	0.000334
308.15	0.3	0.004886	0.00044
313.15	0.3	0.006221	0.00056
318.15	0.3	0.007874	0.000709
278.15	0.4	0.001283	0.000116
283.15	0.4	0.001671	0.00015
288.15	0.4	0.002263	0.000204
293.15	0.4	0.003064	0.000276
298.15	0.4	0.003969	0.000357
303.15	0.4	0.005034	0.000453
308.15	0.4	0.006486	0.000584
313.15	0.4	0.008262	0.000744
318.15	0.4	0.01031	0.00093
278.15	0.5	0.001618	0.000146
283.15	0.5	0.002114	0.00019
288.15	0.5	0.002847	0.000256
293.15	0.5	0.003736	0.000336
298.15	0.5	0.004888	0.00044
303.15	0.5	0.006091	0.000548
308.15	0.5	0.0079	0.000711
313.15	0.5	0.01011	0.00091
318.15	0.5	0.01255	0.00113
278.15	0.6	0.002124	0.000191
283.15	0.6	0.002774	0.00025
288.15	0.6	0.003713	0.000334
293.15	0.6	0.004819	0.000434
298.15	0.6	0.006091	0.000549
303.15	0.6	0.00804	0.000724
308.15	0.6	0.01004	0.0009
313.15	0.6	0.01279	0.00115
318.15	0.6	0.01576	0.00142
278.15	0.7	0.003022	0.000272
283.15	0.7	0.003954	0.000356
288.15	0.7	0.005255	0.000473
293.15	0.7	0.006913	0.000623
298.15	0.7	0.008705	0.000784
303.15	0.7	0.01101	0.00099
308.15	0.7	0.01397	0.00126
313.15	0.7	0.0173	0.00156
318.15	0.7	0.02136	0.00192
278.15	0.8	0.004642	0.000418
283.15	0.8	0.006046	0.000544
288.15	0.8	0.007989	0.000719
293.15	0.8	0.01024	0.00092
298.15	0.8	0.01306	0.00118
303.15	0.8	0.0162	0.00146
308.15	0.8	0.02037	0.00183
313.15	0.8	0.02533	0.00228
318.15	0.8	0.03084	0.00278
278.15	0.9	0.007066	0.000636
283.15	0.9	0.009187	0.000827
288.15	0.9	0.01204	0.00108
293.15	0.9	0.01546	0.00139
298.15	0.9	0.01944	0.00175
303.15	0.9	0.02412	0.00217
308.15	0.9	0.0299	0.00269
313.15	0.9	0.03637	0.00327
318.15	0.9	0.04421	0.00398

System: thiamphenicol + 1,4-dioxane + water; phases: Liquid, Crystal
Fixed: Pressure, kPa = 101.1
Property: Mole fraction of thiamphenicol (Liquid); method: Chromatography
Temperature, K	Solvent: Mass fraction of 1,4-dioxane	Mole fraction of thiamphenicol	uncertainty
288.15	0.1	5.98e-05	5.39e-06
293.15	0.1	8.711e-05	7.85e-06
298.15	0.1	0.0001148	1.03e-05
303.15	0.1	0.0001591	1.43e-05
308.15	0.1	0.0002236	2.01e-05
313.15	0.1	0.0003019	2.72e-05
318.15	0.1	0.0004037	3.64e-05
288.15	0.2	6.928e-05	6.24e-06
293.15	0.2	9.994e-05	9e-06
298.15	0.2	0.000133	1.2e-05
303.15	0.2	0.0001838	1.66e-05
308.15	0.2	0.0002572	2.32e-05
313.15	0.2	0.0003471	3.13e-05
318.15	0.2	0.0004634	4.17e-05
288.15	0.3	7.929e-05	7.14e-06
293.15	0.3	0.0001133	1.02e-05
298.15	0.3	0.0001524	1.37e-05
303.15	0.3	0.00021	1.89e-05
308.15	0.3	0.0002925	2.63e-05
313.15	0.3	0.0003945	3.55e-05
318.15	0.3	0.0005261	4.74e-05
288.15	0.4	9.157e-05	8.25e-06
293.15	0.4	0.0001296	1.17e-05
298.15	0.4	0.0001761	1.59e-05
303.15	0.4	0.0002419	2.18e-05
308.15	0.4	0.0003355	3.02e-05
313.15	0.4	0.0004521	4.07e-05
318.15	0.4	0.0006023	5.42e-05
288.15	0.5	0.0001164	1.05e-05
293.15	0.5	0.0001598	1.44e-05
298.15	0.5	0.000219	1.97e-05
303.15	0.5	0.0002958	2.66e-05
308.15	0.5	0.0004041	3.64e-05
313.15	0.5	0.0005405	4.87e-05
318.15	0.5	0.0007127	6.42e-05
288.15	0.6	0.0001385	1.25e-05
293.15	0.6	0.0001925	1.73e-05
298.15	0.6	0.0002635	2.37e-05
303.15	0.6	0.0003559	3.21e-05
308.15	0.6	0.0004879	4.39e-05
313.15	0.6	0.0006578	5.92e-05
318.15	0.6	0.0008734	7.87e-05
288.15	0.7	0.0001841	1.66e-05
293.15	0.7	0.0002504	2.26e-05
298.15	0.7	0.0003418	3.08e-05
303.15	0.7	0.0004689	4.22e-05
308.15	0.7	0.0006317	5.69e-05
313.15	0.7	0.000847	7.63e-05
318.15	0.7	0.001118	0.000101
288.15	0.8	0.0002426	2.18e-05
293.15	0.8	0.0003252	2.93e-05
298.15	0.8	0.0004461	4.02e-05
303.15	0.8	0.0006169	5.56e-05
308.15	0.8	0.0008169	7.36e-05
313.15	0.8	0.00109	9.8e-05
318.15	0.8	0.001431	0.000129
288.15	0.9	0.0003078	2.77e-05
293.15	0.9	0.0004118	3.71e-05
298.15	0.9	0.0005812	5.23e-05
303.15	0.9	0.0007764	6.99e-05
308.15	0.9	0.001032	9.3e-05
313.15	0.9	0.00139	0.000125
318.15	0.9	0.001822	0.000164
