Measured thermophysical data. Solubility and Thermodynamic Behavior of Syringic Acid in Eight Pure and Water + Methanol Mixed Solvents
Source: J. Chem. Eng. Data, 2017, 10.1021/acs.jced.7b00333
Compound 1: 4-hydroxy-3,5-dimethoxybenzoic acid, C9H10O5, InChI=1S/C9H10O5/c1-13-6-3-5(9(11)12)4-7(14-2)8(6)10/h3-4,10H,1-2H3,(H,11,12), purity 97%
Compound 2: ethanol, C2H6O, InChI=1S/C2H6O/c1-2-3/h3H,2H2,1H3, purity 99.4%
Compound 3: methanol, CH4O, InChI=1S/CH4O/c1-2/h2H,1H3, purity 99%
Compound 4: propan-2-ol, C3H8O, InChI=1S/C3H8O/c1-3(2)4/h3-4H,1-2H3, purity 99%
Compound 5: butan-1-ol, C4H10O, InChI=1S/C4H10O/c1-2-3-4-5/h5H,2-4H2,1H3, purity 98%
Compound 6: butan-2-ol, C4H10O, InChI=1S/C4H10O/c1-3-4(2)5/h4-5H,3H2,1-2H3, purity 99.8%
Compound 7: hexan-1-ol, C6H14O, InChI=1S/C6H14O/c1-2-3-4-5-6-7/h7H,2-6H2,1H3, purity 99%
Compound 8: 1,2-ethanediol, C2H6O2, InChI=1S/C2H6O2/c3-1-2-4/h3-4H,1-2H2, purity 99.5%
Compound 9: ethyl acetate, C4H8O2, InChI=1S/C4H8O2/c1-3-6-4(2)5/h3H2,1-2H3, purity 99.5%
Compound 10: water, H2O, InChI=1S/H2O/h1H2, purity 99.9%
Compound 11: 4-hydroxy-3-methoxybenzoic acid, C8H8O4, InChI=1S/C8H8O4/c1-12-7-4-5(8(10)11)2-3-6(7)9/h2-4,9H,1H3,(H,10,11), purity 97%

System: 4-hydroxy-3,5-dimethoxybenzoic acid; phases: Crystal, Liquid, Air at 1 atmosphere
Property: Normal melting temperature, K (Crystal); method: DTA
Normal melting temperature, K	uncertainty
485.8	1.1

System: 4-hydroxy-3,5-dimethoxybenzoic acid; phases: Crystal, Liquid, Air at 1 atmosphere
Property: Molar enthalpy of transition or fusion, kJ/mol (Crystal); method: DSC
Molar enthalpy of transition or fusion, kJ/mol	uncertainty
33.4	1.5

System: 4-hydroxy-3,5-dimethoxybenzoic acid + methanol; phases: Liquid, Crystal
Fixed: Pressure, kPa = 100
Property: Mole fraction of 4-hydroxy-3,5-dimethoxybenzoic acid (Liquid); method: gravimetric method
Temperature, K	Mole fraction of 4-hydroxy-3,5-dimethoxybenzoic acid	uncertainty
283.15	0.0137	0.00055
288.15	0.01499	0.0006
293.15	0.01729	0.00069
298.15	0.01903	0.00076
303.15	0.02085	0.00084
308.15	0.02378	0.00095
313.15	0.02714	0.00109
318.15	0.02984	0.0012
323.15	0.03311	0.00133

System: 4-hydroxy-3,5-dimethoxybenzoic acid + ethanol; phases: Liquid, Crystal
Fixed: Pressure, kPa = 100
Property: Mole fraction of 4-hydroxy-3,5-dimethoxybenzoic acid (Liquid); method: gravimetric method
Temperature, K	Mole fraction of 4-hydroxy-3,5-dimethoxybenzoic acid	uncertainty
283.15	0.01152	0.00046
288.15	0.01252	0.0005
293.15	0.01449	0.00058
298.15	0.01689	0.00068
303.15	0.01885	0.00076
308.15	0.02168	0.00087
313.15	0.02506	0.001
318.15	0.02793	0.00112
323.15	0.03155	0.00126

System: 4-hydroxy-3,5-dimethoxybenzoic acid + propan-2-ol; phases: Liquid, Crystal
Fixed: Pressure, kPa = 100
Property: Mole fraction of 4-hydroxy-3,5-dimethoxybenzoic acid (Liquid); method: gravimetric method
Temperature, K	Mole fraction of 4-hydroxy-3,5-dimethoxybenzoic acid	uncertainty
283.15	0.00401	0.00016
288.15	0.00455	0.00018
293.15	0.00545	0.00022
298.15	0.00627	0.00025
303.15	0.00752	0.0003
308.15	0.00853	0.00034
313.15	0.00971	0.00039
318.15	0.01151	0.00046
323.15	0.01312	0.00053

System: 4-hydroxy-3,5-dimethoxybenzoic acid + butan-1-ol; phases: Liquid, Crystal
Fixed: Pressure, kPa = 100
Property: Mole fraction of 4-hydroxy-3,5-dimethoxybenzoic acid (Liquid); method: gravimetric method
Temperature, K	Mole fraction of 4-hydroxy-3,5-dimethoxybenzoic acid	uncertainty
283.15	0.0032	0.00013
288.15	0.00375	0.00015
293.15	0.00441	0.00018
298.15	0.00518	0.00021
303.15	0.00624	0.00025
308.15	0.00735	0.00029
313.15	0.00832	0.00033
318.15	0.0098	0.00039
323.15	0.01162	0.00047

System: 4-hydroxy-3,5-dimethoxybenzoic acid + butan-2-ol; phases: Liquid, Crystal
Fixed: Pressure, kPa = 100
Property: Mole fraction of 4-hydroxy-3,5-dimethoxybenzoic acid (Liquid); method: gravimetric method
Temperature, K	Mole fraction of 4-hydroxy-3,5-dimethoxybenzoic acid	uncertainty
283.15	0.00188	8e-05
288.15	0.00223	9e-05
293.15	0.0029	0.00012
298.15	0.00357	0.00014
303.15	0.00432	0.00017
308.15	0.00503	0.0002
313.15	0.00604	0.00024
318.15	0.00737	0.0003
323.15	0.00921	0.00037

System: 4-hydroxy-3,5-dimethoxybenzoic acid + hexan-1-ol; phases: Liquid, Crystal
Fixed: Pressure, kPa = 100
Property: Mole fraction of 4-hydroxy-3,5-dimethoxybenzoic acid (Liquid); method: gravimetric method
Temperature, K	Mole fraction of 4-hydroxy-3,5-dimethoxybenzoic acid	uncertainty
283.15	0.00241	0.0001
288.15	0.00281	0.00011
293.15	0.0033	0.00013
298.15	0.0042	0.00017
303.15	0.0048	0.00019
308.15	0.0058	0.00023
313.15	0.00702	0.00028
318.15	0.00852	0.00034
323.15	0.01012	0.00041

System: 4-hydroxy-3,5-dimethoxybenzoic acid + 1,2-ethanediol; phases: Liquid, Crystal
Fixed: Pressure, kPa = 100
Property: Mole fraction of 4-hydroxy-3,5-dimethoxybenzoic acid (Liquid); method: gravimetric method
Temperature, K	Mole fraction of 4-hydroxy-3,5-dimethoxybenzoic acid	uncertainty
283.15	0.00812	0.00033
288.15	0.00951	0.00038
293.15	0.0113	0.00045
298.15	0.01241	0.0005
303.15	0.01459	0.00058
308.15	0.01699	0.00068
313.15	0.02034	0.00081
318.15	0.02347	0.00094
323.15	0.02691	0.00108

System: 4-hydroxy-3,5-dimethoxybenzoic acid + ethyl acetate; phases: Liquid, Crystal
Fixed: Pressure, kPa = 100
Property: Mole fraction of 4-hydroxy-3,5-dimethoxybenzoic acid (Liquid); method: gravimetric method
Temperature, K	Mole fraction of 4-hydroxy-3,5-dimethoxybenzoic acid	uncertainty
283.15	0.0007	3e-05
288.15	0.00084	3e-05
293.15	0.001	4e-05
298.15	0.00125	5e-05
303.15	0.00149	6e-05
308.15	0.0018	7e-05
313.15	0.00221	9e-05
318.15	0.0026	0.0001
323.15	0.00323	0.00013

System: 4-hydroxy-3,5-dimethoxybenzoic acid + water + methanol; phases: Liquid, Crystal
Fixed: Pressure, kPa = 100
Property: Mole fraction of 4-hydroxy-3,5-dimethoxybenzoic acid (Liquid); method: gravimetric method
Solvent: Mole fraction of methanol	Temperature, K	Mole fraction of 4-hydroxy-3,5-dimethoxybenzoic acid	uncertainty
0.1	283.15	0.00012	3e-05
0.1	288.15	0.00013	3e-05
0.1	293.15	0.00016	4e-05
0.1	298.15	0.00019	4e-05
0.1	303.15	0.00022	5e-05
0.1	308.15	0.00026	5e-05
0.1	313.15	0.00031	6e-05
0.1	318.15	0.00036	7e-05
0.1	323.15	0.00044	8e-05
0.2	283.15	0.00038	5e-05
0.2	288.15	0.00043	5e-05
0.2	293.15	0.00051	6e-05
0.2	298.15	0.00058	7e-05
0.2	303.15	0.00067	8e-05
0.2	308.15	0.00079	9e-05
0.2	313.15	0.00093	0.00011
0.2	318.15	0.00107	0.00012
0.2	323.15	0.00125	0.0002
0.3	283.15	0.001	0.0001
0.3	288.15	0.00112	0.00012
0.3	293.15	0.00133	0.00014
0.3	298.15	0.00152	0.00015
0.3	303.15	0.00172	0.00017
0.3	308.15	0.002	0.00019
0.3	313.15	0.0023	0.00021
0.3	318.15	0.00261	0.00024
0.3	323.15	0.003	0.00026
0.4	283.15	0.00231	0.00018
0.4	288.15	0.0027	0.00021
0.4	293.15	0.00301	0.00024
0.4	298.15	0.00329	0.00025
0.4	303.15	0.00369	0.00028
0.4	308.15	0.00424	0.00032
0.4	313.15	0.00481	0.00036
0.4	318.15	0.0054	0.0004
0.4	323.15	0.00631	0.00057
0.5	283.15	0.00421	0.00026
0.5	288.15	0.0048	0.0003
0.5	293.15	0.00538	0.00033
0.5	298.15	0.00585	0.00036
0.5	303.15	0.00657	0.00041
0.5	308.15	0.00751	0.00046
0.5	313.15	0.00848	0.00052
0.5	318.15	0.00944	0.00058
0.5	323.15	0.01112	0.00068
0.6	283.15	0.00631	0.00034
0.6	288.15	0.00721	0.00038
0.6	293.15	0.00804	0.00044
0.6	298.15	0.00888	0.00047
0.6	303.15	0.00988	0.00052
0.6	308.15	0.01123	0.00059
0.6	313.15	0.01266	0.00066
0.6	318.15	0.0141	0.00074
0.6	323.15	0.01654	0.00086
0.7	283.15	0.00881	0.00041
0.7	288.15	0.0098	0.00046
0.7	293.15	0.01133	0.00054
0.7	298.15	0.01213	0.00058
0.7	303.15	0.01341	0.00064
0.7	308.15	0.01512	0.00072
0.7	313.15	0.0169	0.0008
0.7	318.15	0.01902	0.00092
0.7	323.15	0.02211	0.00101
0.8	283.15	0.01095	0.00047
0.8	288.15	0.01215	0.00051
0.8	293.15	0.01407	0.0006
0.8	298.15	0.01522	0.00066
0.8	303.15	0.01678	0.00072
0.8	308.15	0.01885	0.00081
0.8	313.15	0.02109	0.00091
0.8	318.15	0.02426	0.00105
0.8	323.15	0.02691	0.00115
0.9	283.15	0.01185	0.00049
0.9	288.15	0.01312	0.00054
0.9	293.15	0.01552	0.00064
0.9	298.15	0.01715	0.00071
0.9	303.15	0.01868	0.00078
0.9	308.15	0.02093	0.00087
0.9	313.15	0.0234	0.00099
0.9	318.15	0.02673	0.00111
0.9	323.15	0.03022	0.00125
1	283.15	0.0137	0.00055
1	288.15	0.01499	0.0006
1	293.15	0.01729	0.00069
1	298.15	0.01903	0.00076
1	303.15	0.02085	0.00084
1	308.15	0.02378	0.00095
1	313.15	0.02714	0.00109
1	318.15	0.02984	0.0012
1	323.15	0.03311	0.00133

System: 4-hydroxy-3-methoxybenzoic acid + butan-1-ol; phases: Liquid, Crystal
Fixed: Pressure, kPa = 100
Property: Mole fraction of 4-hydroxy-3-methoxybenzoic acid (Liquid); method: gravimetric method
Temperature, K	Mole fraction of 4-hydroxy-3-methoxybenzoic acid	uncertainty
298.15	0.00663	0.00027
303.15	0.00671	0.00027
308.15	0.00677	0.00027
313.15	0.00696	0.00028
318.15	0.0075	0.0003
