Measured thermophysical data. Measurements of the Critical Parameters for cis-1,1,1,4,4,4-Hexafluoro-2-butene
Source: J. Chem. Eng. Data, 2017, 10.1021/acs.jced.6b00990
Compound 1: (Z)-1,1,1,4,4,4-hexafluorobut-2-ene, C4H2F6, InChI=1S/C4H2F6/c5-3(6,7)1-2-4(8,9)10/h1-2H/b2-1-

System: (Z)-1,1,1,4,4,4-hexafluorobut-2-ene; phases: Liquid, Gas
Property: Critical density, kg/m3 (Liquid); method: visual
Critical density, kg/m3	uncertainty
507	12

System: (Z)-1,1,1,4,4,4-hexafluorobut-2-ene; phases: Liquid, Gas
Property: Critical temperature, K (Liquid); method: Visual observation in an unstirred cell
Critical temperature, K	uncertainty
444.5	0.06

System: (Z)-1,1,1,4,4,4-hexafluorobut-2-ene; phases: Liquid, Gas
Property: Critical pressure, kPa (Liquid); method: Direct measurement
Critical pressure, kPa	uncertainty
2895	15
