Measured thermophysical data. Experimental Measurement of JP-10 Density at 267 to 873 K under Pressures up to 6.00 MPa
Source: J. Chem. Eng. Data, 2019, 10.1021/acs.jced.8b00729
Compound 1: exo-tetrahydrodicyclopentadiene, C10H16, InChI=1S/C10H16/c1-2-9-7-4-5-8(6-7)10(9)3-1/h7-10H,1-6H2/t7-,8+,9+,10-, purity 99.5%

System: exo-tetrahydrodicyclopentadiene; phases: Liquid
Property: Mass density, kg/m3 (Liquid); method: Gamma attenuation method
Temperature, K	Pressure, kPa	Mass density, kg/m3	uncertainty
267.9	700	960.4	15.4
290.9	700	937.8	15.3
307	700	924.7	15.2
337.1	700	908.7	15.2
368.4	700	881.1	15.3
391.9	700	861.9	15.3
431.4	700	824.8	15.4
453.8	700	801.2	15.3
483.8	700	779.5	15.2
510	700	759.3	15.3
532.4	700	737.7	16.9
562.1	700	646.3	18.5
267.3	1480	961.5	15.4
290.2	1480	939.1	15.3
307.5	1480	928.1	15.2
337.2	1480	910.1	15.2
369.6	1480	884.2	15.3
394.8	1480	863.2	15.3
431.4	1480	832.6	15.3
454.4	1480	815.4	15.2
483.1	1480	796.7	15.2
510.1	1480	772.1	15.5
530.4	1480	743	15.4
563.8	1480	716.9	16
267.9	3060	962.1	15.3
292.8	3060	940.4	15.3
308.7	3060	930.1	15.2
336.6	3060	911.5	15.2
371.3	3060	884.3	15.3
394.8	3060	864.7	15.3
431.4	3060	834.1	15.2
453.2	3060	820.5	15.2
485.1	3060	800.4	15.2
510.3	3060	783.9	15.4
529.9	3060	756	15.4
564.1	3060	726.9	15.7
627.1	3060	633.8	15.9
651.9	3060	590.9	16.2
267.3	6000	962.3	15.1
289.1	6000	952	15.1
309	6000	940.8	15.2
335.4	6000	918.1	15.2
373.9	6000	893.8	15.2
391.4	6000	883.9	15.2
430.8	6000	850.6	15.3
454.6	6000	829.8	15.3
485.9	6000	807	15.3
512.1	6000	777.4	15.6
531.9	6000	752.2	15.4
566.8	6000	719.2	15.4
623.8	6000	661.1	15.6
652.4	6000	615.5	15.8
681.8	6000	579.7	15.6

System: exo-tetrahydrodicyclopentadiene; phases: Gas
Property: Mass density, kg/m3 (Gas); method: Gamma attenuation method
Temperature, K	Pressure, kPa	Mass density, kg/m3	uncertainty
603.4	700	25.5	5.2
651.6	700	22.9	5
682.7	700	29.4	5
730.2	700	19.5	5
744.7	700	19.7	5
771.9	700	26.4	5
803.3	700	24.4	5
833	700	25.4	5
873.3	700	24.4	5
617.6	1480	153.4	11.1
652.9	1480	55.3	7.3
683.2	1480	57.8	5
715.8	1480	58	5
744	1480	52.4	5
773.7	1480	50.2	5
804	1480	47.9	5
833.3	1480	52.1	5
872.5	1480	46.1	5.1
685	3060	193.2	9.5
715	3060	124.1	7.3
743.7	3060	104.8	5.3
774	3060	96.1	5.1
803.8	3060	87.6	5.1
833.5	3060	83.9	5.1
872.2	3060	70.8	5.2
714	6000	465.2	25
743.8	6000	256.7	19
773.7	6000	152.1	8.3
804.1	6000	142	5.3
833.4	6000	120.1	5.2
873.4	6000	110.1	5.1
