Measured thermophysical data. Measurement and Modelization of VLE for Butyl Acetate with Methanol, Ethanol, 1-Propanol, and 1-Butanol. Experimental Data at 0.15 MPa
Source: J. Chem. Eng. Data, 2018, 10.1021/acs.jced.8b00182
Compound 1: butyl ethanoate, C6H12O2, InChI=1S/C6H12O2/c1-3-4-5-8-6(2)7/h3-5H2,1-2H3, purity 99.5%
Compound 2: methanol, CH4O, InChI=1S/CH4O/c1-2/h2H,1H3, purity 99.9%
Compound 3: ethanol, C2H6O, InChI=1S/C2H6O/c1-2-3/h3H,2H2,1H3, purity 99.9%
Compound 4: propan-1-ol, C3H8O, InChI=1S/C3H8O/c1-2-3-4/h4H,2-3H2,1H3, purity 99.8%
Compound 5: butan-1-ol, C4H10O, InChI=1S/C4H10O/c1-2-3-4-5/h5H,2-4H2,1H3, purity 99.9%

System: butyl ethanoate; phases: Liquid, Gas
Property: Normal boiling temperature, K (Liquid); method: Ebulliometric method (Recirculating still)
Normal boiling temperature, K	uncertainty
398.98	0.2

System: butyl ethanoate; phases: Liquid
Property: Refractive index (Na D-line) (Liquid); method: Standard Abbe refractometry
Temperature, K	Pressure, kPa	Refractive index (Na D-line)	uncertainty
298.15	101.325	1.39201	0.00033

System: butyl ethanoate; phases: Liquid
Property: Mass density, kg/m3 (Liquid); method: Vibrating tube method
Pressure, kPa	Temperature, K	Mass density, kg/m3	uncertainty
100	298.15	876.5	0.2

System: butyl ethanoate; phases: Liquid, Gas
Property: Vapor or sublimation pressure, kPa (Liquid); method: Ebulliometric method (Recirculating still)
Temperature, K	Vapor or sublimation pressure, kPa	uncertainty
413.3	150	3

System: methanol; phases: Liquid, Gas
Property: Normal boiling temperature, K (Liquid); method: Ebulliometric method (Recirculating still)
Normal boiling temperature, K	uncertainty
337.85	0.2

System: methanol; phases: Liquid
Property: Refractive index (Na D-line) (Liquid); method: Standard Abbe refractometry
Temperature, K	Pressure, kPa	Refractive index (Na D-line)	uncertainty
298.15	101.325	1.32676	0.00031

System: methanol; phases: Liquid, Gas
Property: Vapor or sublimation pressure, kPa (Liquid); method: Ebulliometric method (Recirculating still)
Temperature, K	Vapor or sublimation pressure, kPa	uncertainty
348.27	150	3

System: ethanol; phases: Liquid, Gas
Property: Normal boiling temperature, K (Liquid); method: Ebulliometric method (Recirculating still)
Normal boiling temperature, K	uncertainty
351.45	0.2

System: ethanol; phases: Liquid
Property: Refractive index (Na D-line) (Liquid); method: Standard Abbe refractometry
Temperature, K	Pressure, kPa	Refractive index (Na D-line)	uncertainty
298.15	101.325	1.35933	0.00031

System: ethanol; phases: Liquid
Property: Mass density, kg/m3 (Liquid); method: Vibrating tube method
Pressure, kPa	Temperature, K	Mass density, kg/m3	uncertainty
100	298.15	785.2	0.2

System: ethanol; phases: Liquid, Gas
Property: Vapor or sublimation pressure, kPa (Liquid); method: Ebulliometric method (Recirculating still)
Temperature, K	Vapor or sublimation pressure, kPa	uncertainty
361.98	150	3

System: propan-1-ol; phases: Liquid, Gas
Property: Normal boiling temperature, K (Liquid); method: Ebulliometric method (Recirculating still)
Normal boiling temperature, K	uncertainty
370.35	0.2

System: propan-1-ol; phases: Liquid
Property: Refractive index (Na D-line) (Liquid); method: Standard Abbe refractometry
Temperature, K	Pressure, kPa	Refractive index (Na D-line)	uncertainty
298.15	101.325	1.38315	0.00031

System: propan-1-ol; phases: Liquid
Property: Mass density, kg/m3 (Liquid); method: Vibrating tube method
Pressure, kPa	Temperature, K	Mass density, kg/m3	uncertainty
100	298.15	799.6	0.2

System: propan-1-ol; phases: Liquid, Gas
Property: Vapor or sublimation pressure, kPa (Liquid); method: Ebulliometric method (Recirculating still)
Temperature, K	Vapor or sublimation pressure, kPa	uncertainty
381.24	150	3

System: butan-1-ol; phases: Liquid, Gas
Property: Normal boiling temperature, K (Liquid); method: Ebulliometric method (Recirculating still)
Normal boiling temperature, K	uncertainty
390.83	0.2

System: butan-1-ol; phases: Liquid
Property: Refractive index (Na D-line) (Liquid); method: Standard Abbe refractometry
Temperature, K	Pressure, kPa	Refractive index (Na D-line)	uncertainty
298.15	101.325	1.39732	0.00031

System: butan-1-ol; phases: Liquid
Property: Mass density, kg/m3 (Liquid); method: Vibrating tube method
Pressure, kPa	Temperature, K	Mass density, kg/m3	uncertainty
100	298.15	805.9	0.2

System: butan-1-ol; phases: Liquid, Gas
Property: Vapor or sublimation pressure, kPa (Liquid); method: Ebulliometric method (Recirculating still)
Temperature, K	Vapor or sublimation pressure, kPa	uncertainty
402.59	150	3

System: butyl ethanoate + ethanol; phases: Liquid
Fixed: Pressure, kPa = 100
Fixed: Temperature, K = 298.15
Property: Mass density, kg/m3 (Liquid); method: Vibrating tube method
Mole fraction of butyl ethanoate	Mass density, kg/m3	uncertainty
0	785.2	0.2
0.0443	793.7	0.2
0.1461	810.2	0.2
0.2003	817.6	0.2
0.2554	824.3	0.2
0.2954	828.8	0.2
0.3487	834.3	0.1
0.4451	843	0.1
0.4968	847.2	0.1
0.5987	854.6	0.1
0.6505	858	0.1
0.7492	863.9	0.2
0.8035	866.9	0.2
0.8567	869.7	0.2
0.8978	871.7	0.2
0.9429	873.9	0.2
1	876.5	0.2

System: butyl ethanoate + ethanol; phases: Liquid, Gas
Fixed: Pressure, kPa = 150
Property: Boiling temperature at pressure P, K (Liquid); method: Ebulliometric method (Recirculating still)
Mole fraction of butyl ethanoate	Boiling temperature at pressure P, K	uncertainty
0	361.98	0.34
0.016	362.29	0.35
0.025	362.33	0.35
0.036	362.42	0.35
0.054	362.74	0.35
0.076	362.99	0.35
0.098	363.35	0.35
0.118	363.61	0.35
0.139	363.9	0.35
0.16	364.16	0.35
0.19	364.54	0.35
0.209	364.82	0.35
0.235	365.2	0.35
0.258	365.66	0.36
0.279	366.06	0.35
0.313	366.59	0.35
0.339	367.02	0.35
0.358	367.38	0.35
0.382	367.73	0.35
0.403	368.19	0.35
0.428	368.6	0.35
0.476	369.34	0.35
0.505	369.98	0.36
0.553	370.84	0.36
0.597	372.07	0.38
0.632	373.29	0.4
0.671	375.12	0.39
0.676	374.98	0.38
0.694	375.43	0.38
0.713	376.21	0.42
0.761	378.61	0.44
0.798	380.96	0.49
0.821	382.83	0.57
0.867	387.28	0.68
0.912	393.43	0.85
0.948	399.96	1.05
0.976	406.25	1.24
0.987	409.34	1.51
1	413.3	0.34

System: butyl ethanoate + ethanol; phases: Gas, Liquid
Fixed: Pressure, kPa = 150
Property: Mole fraction of butyl ethanoate (Gas); method: Density calibration data
Mole fraction of butyl ethanoate	Mole fraction of butyl ethanoate	uncertainty
0	0	
0.016	0.01	0.006
0.025	0.015	0.006
0.036	0.022	0.006
0.054	0.029	0.006
0.076	0.04	0.006
0.098	0.049	0.005
0.118	0.053	0.005
0.139	0.062	0.006
0.16	0.072	0.005
0.19	0.079	0.005
0.209	0.086	0.005
0.235	0.09	0.005
0.258	0.102	0.006
0.279	0.108	0.005
0.313	0.118	0.006
0.339	0.126	0.006
0.358	0.13	0.005
0.382	0.136	0.006
0.403	0.144	0.006
0.428	0.151	0.006
0.476	0.16	0.006
0.505	0.168	0.006
0.553	0.179	0.006
0.597	0.196	0.006
0.632	0.21	0.006
0.671	0.236	0.006
0.676	0.23	0.006
0.694	0.236	0.006
0.713	0.247	0.007
0.761	0.28	0.007
0.798	0.307	0.008
0.821	0.331	0.01
0.867	0.398	0.012
0.912	0.497	0.017
0.948	0.636	0.025
0.976	0.801	0.033
0.987	0.892	0.042
1	1	

System: butyl ethanoate + propan-1-ol; phases: Liquid
Fixed: Pressure, kPa = 100
Fixed: Temperature, K = 298.15
Property: Mass density, kg/m3 (Liquid); method: Vibrating tube method
Mole fraction of butyl ethanoate	Mass density, kg/m3	uncertainty
0	799.6	0.2
0.0433	805.1	0.2
0.1028	812.1	0.2
0.2026	822.6	0.2
0.2517	827.3	0.2
0.2927	831	0.2
0.35	835.9	0.2
0.3986	839.8	0.2
0.4482	843.6	0.2
0.554	851.1	0.2
0.5962	853.9	0.2
0.6371	856.5	0.2
0.7071	860.8	0.2
0.7623	864	0.2
0.8001	866.1	0.2
0.8413	868.4	0.2
0.8942	871.2	0.2
0.9401	873.5	0.2
1	876.5	0.2

System: butyl ethanoate + propan-1-ol; phases: Liquid, Gas
Fixed: Pressure, kPa = 150
Property: Boiling temperature at pressure P, K (Liquid); method: Ebulliometric method (Recirculating still)
Mole fraction of butyl ethanoate	Boiling temperature at pressure P, K	uncertainty
0	381.24	0.34
0.033	381.75	0.35
0.052	381.96	0.35
0.073	382.16	0.34
0.1	382.36	0.35
0.133	382.79	0.35
0.221	383.96	0.35
0.259	384.3	0.35
0.276	384.72	0.35
0.304	384.99	0.35
0.323	385.36	0.35
0.375	386.01	0.35
0.388	386.12	0.34
0.431	386.43	0.35
0.478	387.5	0.36
0.498	388.03	0.35
0.527	388.41	0.35
0.545	388.92	0.35
0.593	389.65	0.36
0.683	392.19	0.37
0.708	393.09	0.4
0.741	394.51	0.39
0.778	395.75	0.41
0.818	398.08	0.45
0.893	402.6	0.71
0.906	404.22	0.71
0.967	409.67	0.59
1	413.3	0.34

System: butyl ethanoate + propan-1-ol; phases: Gas, Liquid
Fixed: Pressure, kPa = 150
Property: Mole fraction of butyl ethanoate (Gas); method: Density calibration data
Mole fraction of butyl ethanoate	Mole fraction of butyl ethanoate	uncertainty
0	0	
0.033	0.026	0.006
0.052	0.04	0.006
0.073	0.055	0.006
0.1	0.069	0.006
0.133	0.092	0.006
0.221	0.143	0.006
0.259	0.151	0.006
0.276	0.163	0.006
0.304	0.175	0.006
0.323	0.186	0.006
0.375	0.209	0.006
0.388	0.216	0.006
0.431	0.233	0.007
0.478	0.265	0.007
0.498	0.275	0.007
0.527	0.285	0.007
0.545	0.294	0.007
0.593	0.315	0.007
0.683	0.38	0.008
0.708	0.4	0.009
0.741	0.435	0.01
0.778	0.472	0.011
0.818	0.536	0.012
0.893	0.673	0.017
0.906	0.713	0.017
0.967	0.885	0.016
1	1	

System: butyl ethanoate + butan-1-ol; phases: Liquid
Fixed: Pressure, kPa = 100
Fixed: Temperature, K = 298.15
Property: Mass density, kg/m3 (Liquid); method: Vibrating tube method
Mole fraction of butyl ethanoate	Mass density, kg/m3	uncertainty
0	805.9	0.2
0.0758	812.9	0.2
0.1018	815.2	0.2
0.1458	819	0.2
0.2387	826.7	0.1
0.3151	832.7	0.1
0.3468	835.1	0.1
0.3845	837.9	0.1
0.3983	838.9	0.1
0.4316	841.3	0.1
0.5002	846.1	0.1
0.5883	852	0.1
0.6709	857.3	0.2
0.7064	859.5	0.2
0.7919	864.7	0.2
0.8673	869.1	0.2
0.9259	872.4	0.2
0.9503	873.8	0.2
1	876.5	0.2

System: butyl ethanoate + butan-1-ol; phases: Liquid, Gas
Fixed: Pressure, kPa = 150
Property: Boiling temperature at pressure P, K (Liquid); method: Ebulliometric method (Recirculating still)
Mole fraction of butyl ethanoate	Boiling temperature at pressure P, K	uncertainty
0	402.59	0.34
0.008	402.56	0.34
0.021	402.52	0.34
0.038	402.5	0.34
0.06	402.47	0.34
0.079	402.44	0.34
0.123	402.41	0.34
0.147	402.39	0.34
0.195	402.42	0.34
0.217	402.45	0.34
0.238	402.48	0.34
0.26	402.54	0.34
0.285	402.6	0.34
0.307	402.65	0.34
0.336	402.73	0.34
0.364	402.82	0.34
0.394	402.94	0.34
0.419	403.01	0.34
0.449	403.09	0.34
0.48	403.28	0.34
0.509	403.47	0.34
0.57	403.86	0.34
0.578	403.9	0.34
0.599	404.09	0.34
0.663	404.64	0.34
0.689	404.88	0.35
0.713	405.27	0.35
0.749	405.81	0.35
0.775	406.24	0.36
0.807	407.08	0.37
0.841	407.95	0.37
0.882	409.11	0.37
0.915	410.13	0.37
0.943	410.95	0.38
0.972	412.05	0.39
0.989	412.69	0.41
1	413.3	0.34

System: butyl ethanoate + butan-1-ol; phases: Gas, Liquid
Fixed: Pressure, kPa = 150
Property: Mole fraction of butyl ethanoate (Gas); method: Density calibration data
Mole fraction of butyl ethanoate	Mole fraction of butyl ethanoate	uncertainty
0	0	
0.008	0.011	0.008
0.021	0.026	0.007
0.038	0.044	0.007
0.06	0.068	0.007
0.079	0.087	0.007
0.123	0.129	0.007
0.147	0.15	0.007
0.195	0.19	0.007
0.217	0.207	0.007
0.238	0.225	0.007
0.26	0.243	0.007
0.285	0.264	0.007
0.307	0.281	0.007
0.336	0.303	0.008
0.364	0.322	0.008
0.394	0.342	0.008
0.419	0.361	0.008
0.449	0.386	0.008
0.48	0.408	0.009
0.509	0.432	0.009
0.57	0.483	0.009
0.578	0.487	0.009
0.599	0.503	0.009
0.663	0.549	0.009
0.689	0.569	0.009
0.713	0.591	0.009
0.749	0.624	0.009
0.775	0.651	0.009
0.807	0.689	0.009
0.841	0.737	0.009
0.882	0.792	0.01
0.915	0.848	0.01
0.943	0.891	0.01
0.972	0.947	0.011
0.989	0.977	0.011
1	1	

System: butyl ethanoate + methanol; phases: Liquid, Gas
Fixed: Pressure, kPa = 150
Property: Boiling temperature at pressure P, K (Liquid); method: Ebulliometric method (Recirculating still)
Mole fraction of butyl ethanoate	Boiling temperature at pressure P, K	uncertainty
0	348.27	0.34
0.031	348.89	0.35
0.066	349.45	0.35
0.086	349.94	0.35
0.112	350.26	0.36
0.143	351.04	0.36
0.176	351.61	0.35
0.202	352.12	0.35
0.234	352.5	0.35
0.268	352.96	0.35
0.3	353.51	0.35
0.364	354.38	0.35
0.381	354.59	0.35
0.405	355.05	0.35
0.44	355.54	0.35
0.49	356.36	0.35
0.521	356.97	0.36
0.555	357.85	0.37
0.594	358.89	0.37
0.621	359.57	0.37
0.659	360.61	0.37
0.695	361.71	0.42
0.734	364.15	0.46
0.757	365.43	0.45
0.791	367.45	0.6
0.837	373.14	0.83
0.867	379.17	1.09
0.885	383.15	1.24
0.905	388.22	1.35
0.931	395.14	1.45
0.955	402.36	1.35
1	413.3	0.34

System: butyl ethanoate + methanol; phases: Gas, Liquid
Fixed: Pressure, kPa = 150
Property: Mole fraction of butyl ethanoate (Gas); method: Density calibration data
Mole fraction of butyl ethanoate	Mole fraction of butyl ethanoate	uncertainty
0	0	
0.031	0.015	0.005
0.066	0.027	0.005
0.086	0.034	0.005
0.112	0.039	0.005
0.143	0.047	0.005
0.176	0.056	0.005
0.202	0.061	0.005
0.234	0.065	0.005
0.268	0.069	0.005
0.3	0.074	0.005
0.364	0.081	0.005
0.381	0.084	0.005
0.405	0.088	0.005
0.44	0.093	0.005
0.49	0.098	0.005
0.521	0.105	0.005
0.555	0.113	0.005
0.594	0.126	0.005
0.621	0.13	0.005
0.659	0.138	0.005
0.695	0.145	0.006
0.734	0.166	0.006
0.757	0.174	0.006
0.791	0.195	0.008
0.837	0.251	0.01
0.867	0.313	0.014
0.885	0.365	0.018
0.905	0.438	0.022
0.931	0.557	0.028
0.955	0.706	0.033
1	1	
