Measured thermophysical data. Solubility Determination and Thermodynamic Modeling of Buprofezin in Different Solvents and Mixing Properties of Solutions
Source: J. Chem. Eng. Data, 2019, 10.1021/acs.jced.8b01099
Compound 1: buprofezin, C16H23N3OS, InChI=1S/C16H23N3OS/c1-12(2)19-14(17-16(3,4)5)21-11-18(15(19)20)13-9-7-6-8-10-13/h6-10,12H,11H2,1-5H3, purity 97.6%
Compound 2: methanol, CH4O, InChI=1S/CH4O/c1-2/h2H,1H3, purity 99.7%
Compound 3: ethanol, C2H6O, InChI=1S/C2H6O/c1-2-3/h3H,2H2,1H3, purity 99.5%
Compound 4: propan-1-ol, C3H8O, InChI=1S/C3H8O/c1-2-3-4/h4H,2-3H2,1H3, purity 99.5%
Compound 5: propan-2-ol, C3H8O, InChI=1S/C3H8O/c1-3(2)4/h3-4H,1-2H3, purity 99.6%
Compound 6: butan-1-ol, C4H10O, InChI=1S/C4H10O/c1-2-3-4-5/h5H,2-4H2,1H3, purity 99.6%
Compound 7: octan-1-ol, C8H18O, InChI=1S/C8H18O/c1-2-3-4-5-6-7-8-9/h9H,2-8H2,1H3, purity 99.5%
Compound 8: acetone, C3H6O, InChI=1S/C3H6O/c1-3(2)4/h1-2H3, purity 99.4%
Compound 9: toluene, C7H8, InChI=1S/C7H8/c1-7-5-3-2-4-6-7/h2-6H,1H3, purity 99.6%
Compound 10: ethyl acetate, C4H8O2, InChI=1S/C4H8O2/c1-3-6-4(2)5/h3H2,1-2H3, purity 99.6%
Compound 11: acetonitrile, C2H3N, InChI=1S/C2H3N/c1-2-3/h1H3, purity 99.5%
Compound 12: dimethylformamide, C3H7NO, InChI=1S/C3H7NO/c1-4(2)3-5/h3H,1-2H3, purity 99.5%
Compound 13: water, H2O, InChI=1S/H2O/h1H2, purity 99.9%

System: buprofezin; phases: Crystal, Liquid, Air at 1 atmosphere
Property: Triple point temperature, K (Crystal); method: DSC
Triple point temperature, K	uncertainty
377.95	1.22

System: buprofezin; phases: Crystal, Liquid, Air at 1 atmosphere
Property: Molar enthalpy of transition or fusion, kJ/mol (Crystal); method: DSC
Molar enthalpy of transition or fusion, kJ/mol	uncertainty
30.03	1

System: buprofezin + methanol; phases: Liquid, Crystal
Fixed: Pressure, kPa = 100
Property: Mole fraction of buprofezin (Liquid); method: Chromatography
Temperature, K	Mole fraction of buprofezin	uncertainty
273.15	0.003771	0.000309
278.15	0.004972	0.000408
283.15	0.006401	0.000525
288.15	0.007968	0.000654
293.15	0.00998	0.000819
298.15	0.0123	0.00101
303.15	0.0154	0.00126
308.15	0.01838	0.00151
313.15	0.02247	0.00184
318.15	0.02723	0.00223

System: buprofezin + ethanol; phases: Liquid, Crystal
Fixed: Pressure, kPa = 100
Property: Mole fraction of buprofezin (Liquid); method: Chromatography
Temperature, K	Mole fraction of buprofezin	uncertainty
273.15	0.005385	0.000442
278.15	0.006996	0.000574
283.15	0.009173	0.000753
288.15	0.01157	0.00095
293.15	0.01464	0.0012
298.15	0.01817	0.00149
303.15	0.02282	0.00187
308.15	0.02757	0.00226
313.15	0.03418	0.0028
318.15	0.04248	0.00349

System: buprofezin + propan-1-ol; phases: Liquid, Crystal
Fixed: Pressure, kPa = 100
Property: Mole fraction of buprofezin (Liquid); method: Chromatography
Temperature, K	Mole fraction of buprofezin	uncertainty
273.15	0.005642	0.000309
278.15	0.007981	0.000408
283.15	0.01101	0.000525
288.15	0.01481	0.000654
293.15	0.01903	0.000819
298.15	0.02536	0.00101
303.15	0.03235	0.00126
308.15	0.04141	0.00151
313.15	0.05282	0.00184
318.15	0.06677	0.00223

System: buprofezin + propan-2-ol; phases: Liquid, Crystal
Fixed: Pressure, kPa = 100
Property: Mole fraction of buprofezin (Liquid); method: Chromatography
Temperature, K	Mole fraction of buprofezin	uncertainty
273.15	0.005864	0.000481
278.15	0.007852	0.000644
283.15	0.01028	0.00084
288.15	0.01305	0.00107
293.15	0.0165	0.00135
298.15	0.0207	0.0017
303.15	0.0254	0.00208
308.15	0.03098	0.00254
313.15	0.03757	0.00308
318.15	0.04537	0.00372

System: buprofezin + butan-1-ol; phases: Liquid, Crystal
Fixed: Pressure, kPa = 100
Property: Mole fraction of buprofezin (Liquid); method: Chromatography
Temperature, K	Mole fraction of buprofezin	uncertainty
273.15	0.00627	0.000515
278.15	0.00908	0.000745
283.15	0.01275	0.00105
288.15	0.01667	0.00137
293.15	0.02176	0.00179
298.15	0.0281	0.00231
303.15	0.03639	0.00299
308.15	0.04496	0.00369
313.15	0.05773	0.00474
318.15	0.07138	0.00586

System: buprofezin + octan-1-ol; phases: Liquid, Crystal
Fixed: Pressure, kPa = 100
Property: Mole fraction of buprofezin (Liquid); method: Chromatography
Temperature, K	Mole fraction of buprofezin	uncertainty
273.15	0.008244	0.000677
278.15	0.0114	0.00094
283.15	0.01515	0.00124
288.15	0.01974	0.00162
293.15	0.02514	0.00206
298.15	0.03208	0.00263
303.15	0.04038	0.00331
308.15	0.05048	0.00414
313.15	0.06299	0.00517
318.15	0.07886	0.00647

System: buprofezin + acetone; phases: Liquid, Crystal
Fixed: Pressure, kPa = 100
Property: Mole fraction of buprofezin (Liquid); method: Chromatography
Temperature, K	Mole fraction of buprofezin	uncertainty
273.15	0.03	0.00246
278.15	0.03613	0.00296
283.15	0.04271	0.0035
288.15	0.05041	0.00414
293.15	0.05929	0.00486
298.15	0.06995	0.00574
303.15	0.08141	0.00668
308.15	0.09604	0.00788
313.15	0.114	0.0094
318.15	0.1337	0.011

System: buprofezin + dimethylformamide; phases: Liquid, Crystal
Fixed: Pressure, kPa = 100
Property: Mole fraction of buprofezin (Liquid); method: Chromatography
Temperature, K	Mole fraction of buprofezin	uncertainty
273.15	0.03064	0.00251
278.15	0.0389	0.00319
283.15	0.04926	0.00404
288.15	0.0608	0.00499
293.15	0.07251	0.00595
298.15	0.08714	0.00715
303.15	0.1039	0.0085
308.15	0.122	0.01
313.15	0.1407	0.0115
318.15	0.1618	0.0133

System: buprofezin + toluene; phases: Liquid, Crystal
Fixed: Pressure, kPa = 100
Property: Mole fraction of buprofezin (Liquid); method: Chromatography
Temperature, K	Mole fraction of buprofezin	uncertainty
273.15	0.05304	0.00435
278.15	0.06511	0.00534
283.15	0.07816	0.00641
288.15	0.09236	0.00758
293.15	0.1098	0.009
298.15	0.1283	0.0105
303.15	0.1498	0.0123
308.15	0.1724	0.0141
313.15	0.1981	0.0163
318.15	0.2271	0.0186

System: buprofezin + ethyl acetate; phases: Liquid, Crystal
Fixed: Pressure, kPa = 100
Property: Mole fraction of buprofezin (Liquid); method: Chromatography
Temperature, K	Mole fraction of buprofezin	uncertainty
273.15	0.03725	0.00306
278.15	0.04654	0.00382
283.15	0.0561	0.0046
288.15	0.06791	0.00557
293.15	0.0815	0.00669
298.15	0.09707	0.00796
303.15	0.1157	0.0095
308.15	0.1358	0.0111
313.15	0.1595	0.0131
318.15	0.1872	0.0154

System: buprofezin + acetonitrile; phases: Liquid, Crystal
Fixed: Pressure, kPa = 100
Property: Mole fraction of buprofezin (Liquid); method: Chromatography
Temperature, K	Mole fraction of buprofezin	uncertainty
273.15	0.00534	0.000438
278.15	0.007743	0.000635
283.15	0.01015	0.00083
288.15	0.01332	0.00109
293.15	0.01709	0.0014
298.15	0.02194	0.0018
303.15	0.02845	0.00233
308.15	0.03542	0.00291
313.15	0.04481	0.00368
318.15	0.05639	0.00463

System: buprofezin + water; phases: Liquid, Crystal
Fixed: Pressure, kPa = 100
Property: Mole fraction of buprofezin (Liquid); method: Chromatography
Temperature, K	Mole fraction of buprofezin	uncertainty
273.15	2.841e-05	2.33e-06
278.15	3.479e-05	2.85e-06
283.15	4.182e-05	3.43e-06
288.15	5.08e-05	4.17e-06
293.15	6.049e-05	4.96e-06
298.15	7.257e-05	5.95e-06
303.15	8.541e-05	7.01e-06
308.15	0.0001008	8.3e-06
313.15	0.0001204	9.9e-06
318.15	0.0001439	1.18e-05
