Measured thermophysical data. Solubility measurement and thermodynamic model correlation of sancycline in twelve pure solvents
Source: J. Chem. Eng. Data, 2019, 10.1021/acs.jced.9b00693
Compound 1: sancycline, C21H22N2O7, InChI=1S/C21H22N2O7/c1-23(2)15-10-7-9-6-8-4-3-5-11(24)12(8)16(25)13(9)18(27)21(10,30)19(28)14(17(15)26)20(22)29/h3-5,9-10,15,24,26-27,30H,6-7H2,1-2H3,(H2,22,29)/t9-,10-,15-,21-/m0/s1, purity 99.5%
Compound 2: methanol, CH4O, InChI=1S/CH4O/c1-2/h2H,1H3, purity 99.7%
Compound 3: ethanol, C2H6O, InChI=1S/C2H6O/c1-2-3/h3H,2H2,1H3, purity 99.5%
Compound 4: propan-1-ol, C3H8O, InChI=1S/C3H8O/c1-2-3-4/h4H,2-3H2,1H3, purity 99.4%
Compound 5: propan-2-ol, C3H8O, InChI=1S/C3H8O/c1-3(2)4/h3-4H,1-2H3, purity 99.5%
Compound 6: butan-1-ol, C4H10O, InChI=1S/C4H10O/c1-2-3-4-5/h5H,2-4H2,1H3, purity 99.5%
Compound 7: 2-methyl-1-propanol, C4H10O, InChI=1S/C4H10O/c1-4(2)3-5/h4-5H,3H2,1-2H3, purity 99.6%
Compound 8: octan-1-ol, C8H18O, InChI=1S/C8H18O/c1-2-3-4-5-6-7-8-9/h9H,2-8H2,1H3, purity 99.6%
Compound 9: cyclohexane, C6H12, InChI=1S/C6H12/c1-2-4-6-5-3-1/h1-6H2, purity 99.5%
Compound 10: hexane, C6H14, InChI=1S/C6H14/c1-3-5-6-4-2/h3-6H2,1-2H3, purity 99.5%
Compound 11: ethyl acetate, C4H8O2, InChI=1S/C4H8O2/c1-3-6-4(2)5/h3H2,1-2H3, purity 99.4%
Compound 12: acetonitrile, C2H3N, InChI=1S/C2H3N/c1-2-3/h1H3, purity 99.6%
Compound 13: 1,4-dioxane, C4H8O2, InChI=1S/C4H8O2/c1-2-6-4-3-5-1/h1-4H2, purity 99.6%

System: sancycline + methanol; phases: Liquid, Crystal
Fixed: Pressure, kPa = 101.2
Property: Mole fraction of sancycline (Liquid); method: Chromatography
Temperature, K	Mole fraction of sancycline	uncertainty
278.15	0.0001662	1.43e-05
283.15	0.0001826	1.57e-05
288.15	0.0002002	1.72e-05
293.15	0.0002181	1.88e-05
298.15	0.0002369	2.04e-05
303.15	0.0002584	2.22e-05
308.15	0.0002816	2.42e-05
313.15	0.0003056	2.63e-05
318.15	0.0003323	2.86e-05

System: sancycline + ethanol; phases: Liquid, Crystal
Fixed: Pressure, kPa = 101.2
Property: Mole fraction of sancycline (Liquid); method: Chromatography
Temperature, K	Mole fraction of sancycline	uncertainty
278.15	0.0001313	1.13e-05
283.15	0.0001443	1.24e-05
288.15	0.0001577	1.36e-05
293.15	0.0001716	1.48e-05
298.15	0.0001884	1.62e-05
303.15	0.0002065	1.78e-05
308.15	0.0002251	1.94e-05
313.15	0.0002442	2.1e-05
318.15	0.0002644	2.27e-05

System: sancycline + propan-1-ol; phases: Liquid, Crystal
Fixed: Pressure, kPa = 101.2
Property: Mole fraction of sancycline (Liquid); method: Chromatography
Temperature, K	Mole fraction of sancycline	uncertainty
278.15	0.0001014	8.7e-06
283.15	0.0001062	9.1e-06
288.15	0.0001123	9.7e-06
293.15	0.0001199	1.03e-05
298.15	0.0001283	1.1e-05
303.15	0.0001364	1.17e-05
308.15	0.0001448	1.25e-05
313.15	0.0001553	1.34e-05
318.15	0.0001663	1.43e-05

System: sancycline + propan-2-ol; phases: Liquid, Crystal
Fixed: Pressure, kPa = 101.2
Property: Mole fraction of sancycline (Liquid); method: Chromatography
Temperature, K	Mole fraction of sancycline	uncertainty
278.15	4.019e-05	3.46e-06
283.15	4.649e-05	4e-06
288.15	5.372e-05	4.62e-06
293.15	6.184e-05	5.32e-06
298.15	7.052e-05	6.07e-06
303.15	8.054e-05	6.93e-06
308.15	9.192e-05	7.91e-06
313.15	0.0001048	9e-06
318.15	0.0001181	1.02e-05

System: sancycline + butan-1-ol; phases: Liquid, Crystal
Fixed: Pressure, kPa = 101.2
Property: Mole fraction of sancycline (Liquid); method: Chromatography
Temperature, K	Mole fraction of sancycline	uncertainty
278.15	4.76e-05	4.1e-06
283.15	5.561e-05	4.78e-06
288.15	6.468e-05	5.56e-06
293.15	7.34e-05	6.3e-06
298.15	8.365e-05	7.2e-06
303.15	9.508e-05	8.18e-06
308.15	0.0001075	9.2e-06
313.15	0.0001208	1.04e-05
318.15	0.0001352	1.16e-05

System: sancycline + 2-methyl-1-propanol; phases: Liquid, Crystal
Fixed: Pressure, kPa = 101.2
Property: Mole fraction of sancycline (Liquid); method: Chromatography
Temperature, K	Mole fraction of sancycline	uncertainty
278.15	3.759e-05	3.23e-06
283.15	4.321e-05	3.72e-06
288.15	4.902e-05	4.22e-06
293.15	5.534e-05	4.76e-06
298.15	6.302e-05	5.42e-06
303.15	7.171e-05	6.17e-06
308.15	8.144e-05	7.01e-06
313.15	9.205e-05	7.92e-06
318.15	0.000103	9e-06

System: sancycline + octan-1-ol; phases: Liquid, Crystal
Fixed: Pressure, kPa = 101.2
Property: Mole fraction of sancycline (Liquid); method: Chromatography
Temperature, K	Mole fraction of sancycline	uncertainty
278.15	3.163e-05	2.72e-06
283.15	3.561e-05	3.06e-06
288.15	3.987e-05	3.43e-06
293.15	4.482e-05	3.86e-06
298.15	5.078e-05	4.37e-06
303.15	5.706e-05	4.91e-06
308.15	6.466e-05	5.56e-06
313.15	7.213e-05	6.21e-06
318.15	8.035e-05	6.91e-06

System: sancycline + cyclohexane; phases: Liquid, Crystal
Fixed: Pressure, kPa = 101.2
Property: Mole fraction of sancycline (Liquid); method: Chromatography
Temperature, K	Mole fraction of sancycline	uncertainty
278.15	7.642e-06	6.58e-07
283.15	1.05e-05	9e-07
288.15	1.42e-05	1.2e-06
293.15	1.934e-05	1.66e-06
298.15	2.469e-05	2.12e-06
303.15	3.031e-05	2.61e-06
308.15	3.852e-05	3.31e-06
313.15	4.738e-05	4.08e-06
318.15	5.696e-05	4.9e-06

System: sancycline + hexane; phases: Liquid, Crystal
Fixed: Pressure, kPa = 101.2
Property: Mole fraction of sancycline (Liquid); method: Chromatography
Temperature, K	Mole fraction of sancycline	uncertainty
278.15	3.641e-05	3.13e-06
283.15	4.072e-05	3.5e-06
288.15	4.506e-05	3.88e-06
293.15	5.055e-05	4.35e-06
298.15	5.66e-05	4.9e-06
303.15	6.345e-05	5.46e-06
308.15	7.172e-05	6.17e-06
313.15	8.081e-05	6.95e-06
318.15	8.979e-05	7.72e-06

System: sancycline + 1,4-dioxane; phases: Liquid, Crystal
Fixed: Pressure, kPa = 101.2
Property: Mole fraction of sancycline (Liquid); method: Chromatography
Temperature, K	Mole fraction of sancycline	uncertainty
288.15	0.001333	0.000115
293.15	0.001602	0.000138
298.15	0.001879	0.000162
303.15	0.002203	0.00019
308.15	0.002542	0.000219
313.15	0.002931	0.000252
318.15	0.003364	0.000289

System: sancycline + acetonitrile; phases: Liquid, Crystal
Fixed: Pressure, kPa = 101.2
Property: Mole fraction of sancycline (Liquid); method: Chromatography
Temperature, K	Mole fraction of sancycline	uncertainty
278.15	0.0001185	1.02e-05
283.15	0.00013	1e-05
288.15	0.0001428	1.23e-05
293.15	0.0001563	1.34e-05
298.15	0.0001715	1.48e-05
303.15	0.0001881	1.62e-05
308.15	0.000206	1.8e-05
313.15	0.0002261	1.95e-05
318.15	0.0002476	2.13e-05

System: sancycline + ethyl acetate; phases: Liquid, Crystal
Fixed: Pressure, kPa = 101.2
Property: Mole fraction of sancycline (Liquid); method: Chromatography
Temperature, K	Mole fraction of sancycline	uncertainty
278.15	0.00032	3e-05
283.15	0.0003917	3.37e-05
288.15	0.0004638	3.99e-05
293.15	0.0005509	4.74e-05
298.15	0.0006487	5.58e-05
303.15	0.0007608	6.55e-05
308.15	0.0008815	7.58e-05
313.15	0.001035	8.9e-05
318.15	0.001193	0.000103
