Measured thermophysical data. Experimental Data and Thermodynamics Modeling (PC-SAFT EoS) of the {CO2 + Acetone + Pluronic F-127} System at High Pressures
Source: J. Chem. Eng. Data, 2019, 10.1021/acs.jced.8b01163
Compound 1: acetone, C3H6O, InChI=1S/C3H6O/c1-3(2)4/h1-2H3, purity 99.5%
Compound 2: carbon dioxide, CO2, InChI=1S/CO2/c2-1-3, purity 99.9%

System: acetone + carbon dioxide; phases: Liquid, Gas
Property: Vapor or sublimation pressure, kPa (Liquid); method: Closed cell (Static) method
Temperature, K	Mole fraction of carbon dioxide	Vapor or sublimation pressure, kPa	uncertainty
303	0.41	2320	110
303	0.5	2930	120
303	0.6	3520	130
303	0.7	4090	150
303	0.8	4840	140
303	0.9	5750	150
313	0.41	2700	110
313	0.5	3520	130
313	0.6	4370	130
313	0.7	5200	140
313	0.8	5850	150
313	0.9	6860	160
323	0.41	3250	120
323	0.5	4400	120
323	0.6	5100	130
323	0.7	5990	130
323	0.8	6930	160
323	0.9	8160	170

System: acetone + carbon dioxide; phases: Gas, Liquid
Fixed: Mole fraction of carbon dioxide = 0.98
Property: Vapor or sublimation pressure, kPa (Gas); method: Closed cell (Static) method
Temperature, K	Vapor or sublimation pressure, kPa	uncertainty
303	6240	160
313	7470	160
