Measured thermophysical data. Experimental Investigation of the Thermophysical Properties of the Bio-Aviation Fuel Surrogates: Binary and Ternary Mixtures of n-Dodecane, Methyl Butyrate, and Methyl Decanoate
Source: J. Chem. Eng. Data, 2019, 10.1021/acs.jced.9b00643
Compound 1: methyl butanoate, C5H10O2, InChI=1S/C5H10O2/c1-3-4-5(6)7-2/h3-4H2,1-2H3, purity 99.663%
Compound 2: methyl decanoate, C11H22O2, InChI=1S/C11H22O2/c1-3-4-5-6-7-8-9-10-11(12)13-2/h3-10H2,1-2H3, purity 99.16%
Compound 3: dodecane, C12H26, InChI=1S/C12H26/c1-3-5-7-9-11-12-10-8-6-4-2/h3-12H2,1-2H3, purity 99.025%

System: methyl butanoate; phases: Liquid
Fixed: Pressure, kPa = 92
Property: Mass density, kg/m3 (Liquid); method: Vibrating tube method
Temperature, K	Mass density, kg/m3	uncertainty
293.15	898.05	1.8
303.15	886.9	1.78
313.15	875.7	1.75
323.15	863.41	1.73
333.15	853.04	1.71
343.15	841.5	1.69
353.15	829.8	1.66
363.15	817.71	1.64
373.15	806.03	1.62
383.15	793.68	1.59
393.15	780.99	1.57
403.15	767.63	1.54
413.15	754.74	1.52
423.15	741.06	1.49

System: methyl butanoate; phases: Liquid
Fixed: Pressure, kPa = 92
Property: Refractive index (Na D-line) (Liquid); method: Standard Abbe refractometry
Temperature, K	Refractive index (Na D-line)	uncertainty
278.15	1.396016	0.000353
283.15	1.393556	0.000353
288.15	1.391084	0.000353
293.15	1.388588	0.000353
298.15	1.386085	0.000353
303.15	1.383546	0.000353
308.15	1.380977	0.000353
313.15	1.378422	0.000353
318.15	1.375849	0.000353
323.15	1.373289	0.000353
328.15	1.370667	0.000353
333.15	1.368059	0.000353
338.15	1.365445	0.000353
343.15	1.362795	0.000353
348.15	1.360192	0.000353
353.15	1.357624	0.000353
358.15	1.355021	0.000353

System: methyl butanoate; phases: Liquid
Fixed: Pressure, kPa = 92
Property: Kinematic viscosity, m2/s (Liquid); method: Surface laser light scattering (SLLS)
Temperature, K	Kinematic viscosity, m2/s	uncertainty
298.14	6.735e-07	7.07e-08
323.11	4.974e-07	5.28e-08
333.09	4.444e-07	4.74e-08
343.11	4.096e-07	4.39e-08
353.1	3.762e-07	4.05e-08
363.1	3.476e-07	3.76e-08
373.1	3.256e-07	3.54e-08
398.07	2.761e-07	3.05e-08
423.03	2.359e-07	2.65e-08

System: methyl butanoate; phases: Liquid, Gas
Property: Surface tension liquid-gas, N/m (Liquid); method: Surface laser light scattering (SLLS)
Temperature, K	Surface tension liquid-gas, N/m	uncertainty
298.14	0.02445	0.00029
323.11	0.02179	0.00025
333.09	0.02055	7e-05
343.11	0.01951	0.00012
353.1	0.01833	0.00022
363.1	0.01717	0.00013
373.1	0.01607	0.00013
398.07	0.0133	7e-05
423.03	0.01078	4e-05

System: methyl butanoate + dodecane; phases: Liquid
Fixed: Pressure, kPa = 92
Property: Mass density, kg/m3 (Liquid); method: Vibrating tube method
Temperature, K	Mole fraction of methyl butanoate	Mass density, kg/m3	uncertainty
293.15	1	898.05	1.8
303.15	1	886.9	1.78
313.15	1	875.7	1.75
323.15	1	863.41	1.73
333.15	1	853.04	1.71
343.15	1	841.5	1.69
353.15	1	829.8	1.66
363.15	1	817.71	1.64
373.15	1	806.03	1.62
383.15	1	793.68	1.59
393.15	1	780.99	1.57
403.15	1	767.63	1.54
413.15	1	754.74	1.52
423.15	1	741.06	1.49
293.15	0.2498	765.9	1.54
303.15	0.2498	758.8	1.53
313.15	0.2498	750.86	1.51
323.15	0.2498	743.22	1.5
333.15	0.2498	735.3	1.48
343.15	0.2498	727.35	1.47
353.15	0.2498	719.43	1.45
363.15	0.2498	711.42	1.44
373.15	0.2498	703.67	1.42
383.15	0.2498	695.17	1.4
393.15	0.2498	686.94	1.39
403.15	0.2498	678.64	1.37
413.15	0.2498	670.21	1.36
423.15	0.2498	661.53	1.34
293.15	0.5001	793.23	1.59
303.15	0.5001	784.2	1.58
313.15	0.5001	775.91	1.56
323.15	0.5001	767.33	1.54
333.15	0.5001	758.78	1.53
343.15	0.5001	749.92	1.51
353.15	0.5001	741.09	1.49
363.15	0.5001	732.23	1.47
373.15	0.5001	723.32	1.46
383.15	0.5001	714.29	1.44
393.15	0.5001	705.14	1.42
403.15	0.5001	695.63	1.4
413.15	0.5001	685.99	1.38
423.15	0.5001	676.29	1.37
293.15	0.7503	832.16	1.67
303.15	0.7503	823.52	1.65
313.15	0.7503	813.91	1.63
323.15	0.7503	804.17	1.62
333.15	0.7503	794.41	1.6
343.15	0.7503	784.55	1.58
353.15	0.7503	774.6	1.56
363.15	0.7503	764.59	1.54
373.15	0.7503	754.33	1.52
383.15	0.7503	743.94	1.5
393.15	0.7503	733.41	1.48
403.15	0.7503	722.63	1.45
413.15	0.7503	711.71	1.43
423.15	0.7503	700.44	1.41

System: methyl butanoate + dodecane; phases: Liquid
Fixed: Pressure, kPa = 92
Property: Refractive index (Na D-line) (Liquid); method: Standard Abbe refractometry
Temperature, K	Mole fraction of methyl butanoate	Refractive index (Na D-line)	uncertainty
278.15	1	1.396016	0.000353
283.15	1	1.393556	0.000353
288.15	1	1.391084	0.000353
293.15	1	1.388588	0.000353
298.15	1	1.386085	0.000353
303.15	1	1.383546	0.000353
308.15	1	1.380977	0.000353
313.15	1	1.378422	0.000353
318.15	1	1.375849	0.000353
323.15	1	1.373289	0.000353
328.15	1	1.370667	0.000353
333.15	1	1.368059	0.000353
338.15	1	1.365445	0.000353
343.15	1	1.362795	0.000353
348.15	1	1.360192	0.000353
353.15	1	1.357624	0.000353
358.15	1	1.355021	0.000353
278.15	0.2498	1.42297	0.000383
283.15	0.2498	1.420976	0.000383
288.15	0.2498	1.41873	0.000383
293.15	0.2498	1.416477	0.000383
298.15	0.2498	1.414223	0.000383
303.15	0.2498	1.411976	0.000383
308.15	0.2498	1.409686	0.000383
313.15	0.2498	1.407419	0.000383
318.15	0.2498	1.405163	0.000383
323.15	0.2498	1.402905	0.000383
328.15	0.2498	1.400648	0.000383
333.15	0.2498	1.398397	0.000383
338.15	0.2498	1.396131	0.000383
343.15	0.2498	1.393861	0.000383
348.15	0.2498	1.391643	0.000383
353.15	0.2498	1.389452	0.000383
358.15	0.2498	1.387335	0.000383
278.15	0.5001	1.415365	0.000371
283.15	0.5001	1.4135	0.000371
288.15	0.5001	1.411205	0.000371
293.15	0.5001	1.408903	0.000371
298.15	0.5001	1.406565	0.000371
303.15	0.5001	1.404243	0.000371
308.15	0.5001	1.401883	0.000371
313.15	0.5001	1.399544	0.000371
318.15	0.5001	1.39725	0.000371
323.15	0.5001	1.394887	0.000371
328.15	0.5001	1.392594	0.000371
333.15	0.5001	1.390281	0.000371
338.15	0.5001	1.38817	0.000371
343.15	0.5001	1.386235	0.000371
348.15	0.5001	1.384251	0.000371
353.15	0.5001	1.382156	0.000371
358.15	0.5001	1.380492	0.000371
278.15	0.7503	1.407473	0.000361
283.15	0.7503	1.405127	0.000361
288.15	0.7503	1.402713	0.000361
293.15	0.7503	1.400258	0.000361
298.15	0.7503	1.397835	0.000361
303.15	0.7503	1.395388	0.000361
308.15	0.7503	1.392943	0.000361
313.15	0.7503	1.390505	0.000361
318.15	0.7503	1.388247	0.000361
323.15	0.7503	1.385984	0.000361
328.15	0.7503	1.383761	0.000361
333.15	0.7503	1.381408	0.000361
338.15	0.7503	1.379266	0.000361
343.15	0.7503	1.377059	0.000361
348.15	0.7503	1.3753	0.000361
353.15	0.7503	1.37369	0.000361
358.15	0.7503	1.37237	0.000362

System: methyl butanoate + dodecane; phases: Liquid
Fixed: Pressure, kPa = 92
Property: Kinematic viscosity, m2/s (Liquid); method: Surface laser light scattering (SLLS)
Temperature, K	Mole fraction of methyl butanoate	Kinematic viscosity, m2/s	uncertainty
298.14	1	6.735e-07	7.07e-08
323.11	1	4.974e-07	5.28e-08
333.09	1	4.444e-07	4.74e-08
343.11	1	4.096e-07	4.39e-08
353.1	1	3.762e-07	4.05e-08
363.1	1	3.476e-07	3.76e-08
373.1	1	3.256e-07	3.54e-08
398.07	1	2.761e-07	3.05e-08
423.03	1	2.359e-07	2.65e-08
308.13	0.2498	1.3175e-06	1.364e-07
323.08	0.2498	1.1101e-06	1.152e-07
338.03	0.2498	9.437e-07	9.83e-08
353.05	0.2498	8.063e-07	8.42e-08
368.05	0.2498	7.044e-07	7.39e-08
383.07	0.2498	6.212e-07	6.54e-08
398.02	0.2498	5.588e-07	5.9e-08
413.02	0.2498	5.109e-07	5.42e-08
308.09	0.5001	1.1301e-06	1.173e-07
323.04	0.5001	9.395e-07	9.78e-08
338.05	0.5001	8.059e-07	8.42e-08
353.07	0.5001	6.947e-07	7.28e-08
368.06	0.5001	6.167e-07	6.49e-08
383.05	0.5001	5.455e-07	5.77e-08
398.01	0.5001	4.912e-07	5.22e-08
413	0.5001	4.46e-07	4.76e-08
308.12	0.7503	7.835e-07	8.19e-08
323.1	0.7503	6.651e-07	6.98e-08
338.11	0.7503	5.728e-07	6.04e-08
353.12	0.7503	4.979e-07	5.28e-08
368.12	0.7503	4.451e-07	4.75e-08
383.12	0.7503	3.93e-07	4.22e-08
398.11	0.7503	3.599e-07	3.89e-08
413.1	0.7503	3.287e-07	3.58e-08

System: methyl butanoate + dodecane; phases: Liquid, Gas
Property: Surface tension liquid-gas, N/m (Liquid); method: Surface laser light scattering (SLLS)
Temperature, K	Mole fraction of methyl butanoate	Surface tension liquid-gas, N/m	uncertainty
298.14	1	0.02445	0.00029
323.11	1	0.02179	0.00025
333.09	1	0.02055	7e-05
343.11	1	0.01951	0.00012
353.1	1	0.01833	0.00022
363.1	1	0.01717	0.00013
373.1	1	0.01607	0.00013
398.07	1	0.0133	7e-05
423.03	1	0.01078	4e-05
308.13	0.2498	0.02248	0.00029
323.08	0.2498	0.02149	0.00023
338.03	0.2498	0.02057	0.00041
353.05	0.2498	0.01952	0.00017
368.05	0.2498	0.01828	0.00029
383.07	0.2498	0.01727	0.00012
398.02	0.2498	0.01626	0.00016
413.02	0.2498	0.01537	0.00011
308.09	0.5001	0.0224	0.00014
323.04	0.5001	0.02142	0.00028
338.05	0.5001	0.02017	0.0003
353.07	0.5001	0.0191	0.0001
368.06	0.5001	0.01795	0.00014
383.05	0.5001	0.0167	8e-05
398.01	0.5001	0.01548	0.00033
413	0.5001	0.01434	0.00014
308.12	0.7503	0.02267	0.00025
323.1	0.7503	0.02103	0.00043
338.11	0.7503	0.01982	0.0002
353.12	0.7503	0.01809	0.00016
368.12	0.7503	0.01673	0.00025
383.12	0.7503	0.01522	0.00011
398.11	0.7503	0.0139	8e-05
413.1	0.7503	0.01255	0.00015

System: methyl decanoate + dodecane; phases: Liquid
Fixed: Pressure, kPa = 92
Property: Mass density, kg/m3 (Liquid); method: Vibrating tube method
Temperature, K	Mole fraction of methyl decanoate	Mass density, kg/m3	uncertainty
293.15	0.2501	777.43	1.57
303.15	0.2501	768.91	1.55
313.15	0.2501	762.24	1.54
323.15	0.2501	754.69	1.52
333.15	0.2501	747.08	1.51
343.15	0.2501	739.5	1.49
353.15	0.2501	730.89	1.48
363.15	0.2501	724.23	1.46
373.15	0.2501	716.55	1.45
383.15	0.2501	708.81	1.43
393.15	0.2501	701.02	1.42
403.15	0.2501	693.17	1.4
413.15	0.2501	685.23	1.39
423.15	0.2501	677.24	1.37
293.15	0.5004	807.28	1.63
303.15	0.5004	799.42	1.61
313.15	0.5004	791.61	1.6
323.15	0.5004	783.79	1.58
333.15	0.5004	775.97	1.57
343.15	0.5004	767.21	1.55
353.15	0.5004	759.43	1.53
363.15	0.5004	752.43	1.52
373.15	0.5004	744.52	1.5
383.15	0.5004	736.57	1.49
393.15	0.5004	728.56	1.47
403.15	0.5004	720.49	1.46
413.15	0.5004	712.34	1.44
423.15	0.5004	704.1	1.42
293.15	0.7501	838.86	1.69
303.15	0.7501	830.78	1.67
313.15	0.7501	822.74	1.66
323.15	0.7501	814.69	1.64
333.15	0.7501	806.64	1.62
343.15	0.7501	798.6	1.61
353.15	0.7501	790.53	1.59
363.15	0.7501	782.44	1.58
373.15	0.7501	774.33	1.56
383.15	0.7501	766.16	1.55
393.15	0.7501	757.92	1.53
403.15	0.7501	749.68	1.51
413.15	0.7501	741.33	1.5
423.15	0.7501	732.9	1.48

System: methyl decanoate + dodecane; phases: Liquid
Fixed: Pressure, kPa = 92
Property: Refractive index (Na D-line) (Liquid); method: Standard Abbe refractometry
Temperature, K	Mole fraction of methyl decanoate	Refractive index (Na D-line)	uncertainty
278.15	0.2501	1.429374	0.000394
283.15	0.2501	1.4272	0.000394
288.15	0.2501	1.425027	0.000394
293.15	0.2501	1.422822	0.000394
298.15	0.2501	1.420621	0.000394
303.15	0.2501	1.41842	0.000394
308.15	0.2501	1.416173	0.000394
313.15	0.2501	1.413934	0.000394
318.15	0.2501	1.411709	0.000394
323.15	0.2501	1.409479	0.000394
328.15	0.2501	1.407244	0.000394
333.15	0.2501	1.405006	0.000394
338.15	0.2501	1.402773	0.000394
343.15	0.2501	1.400538	0.000394
348.15	0.2501	1.398335	0.000394
353.15	0.2501	1.396189	0.000394
358.15	0.2501	1.394036	0.000394
278.15	0.5004	1.430145	0.000391
283.15	0.5004	1.427984	0.000391
288.15	0.5004	1.4258	0.000391
293.15	0.5004	1.42363	0.000391
298.15	0.5004	1.421447	0.000391
303.15	0.5004	1.419258	0.000391
308.15	0.5004	1.417039	0.000391
313.15	0.5004	1.414833	0.000391
318.15	0.5004	1.41263	0.000391
323.15	0.5004	1.410432	0.000391
328.15	0.5004	1.408226	0.000391
333.15	0.5004	1.406019	0.000391
338.15	0.5004	1.403813	0.000391
343.15	0.5004	1.401584	0.000391
348.15	0.5004	1.3994	0.000391
353.15	0.5004	1.397272	0.000391
358.15	0.5004	1.395124	0.000391
278.15	0.7501	1.43168	0.000388
283.15	0.7501	1.429493	0.000388
288.15	0.7501	1.427324	0.000388
293.15	0.7501	1.42515	0.000388
298.15	0.7501	1.422966	0.000388
303.15	0.7501	1.420759	0.000388
308.15	0.7501	1.418541	0.000388
313.15	0.7501	1.416338	0.000388
318.15	0.7501	1.414124	0.000388
323.15	0.7501	1.41192	0.000388
328.15	0.7501	1.409715	0.000388
333.15	0.7501	1.407502	0.000388
338.15	0.7501	1.40528	0.000388
343.15	0.7501	1.403071	0.000388
348.15	0.7501	1.400868	0.000388
353.15	0.7501	1.398672	0.000388
358.15	0.7501	1.39656	0.000388

System: methyl decanoate + dodecane; phases: Liquid
Fixed: Pressure, kPa = 92
Property: Kinematic viscosity, m2/s (Liquid); method: Surface laser light scattering (SLLS)
Temperature, K	Mole fraction of methyl decanoate	Kinematic viscosity, m2/s	uncertainty
308.11	0.2501	1.5129e-06	1.564e-07
323.11	0.2501	1.2497e-06	1.295e-07
338.11	0.2501	1.0635e-06	1.105e-07
353.12	0.2501	9.048e-07	9.43e-08
368.12	0.2501	7.749e-07	8.11e-08
383.1	0.2501	6.726e-07	7.06e-08
398.1	0.2501	5.95e-07	6.27e-08
413.09	0.2501	5.301e-07	5.61e-08
308.11	0.5004	1.586e-06	1.639e-07
323.1	0.5004	1.3138e-06	1.361e-07
338.09	0.5004	1.0875e-06	1.13e-07
353.1	0.5004	9.242e-07	9.63e-08
368.11	0.5004	7.987e-07	8.35e-08
383.1	0.5004	6.955e-07	7.3e-08
398.09	0.5004	6.119e-07	6.45e-08
413.07	0.5004	5.348e-07	5.66e-08
308.13	0.7501	1.627e-06	1.681e-07
323.13	0.7501	1.3794e-06	1.428e-07
338.14	0.7501	1.1776e-06	1.222e-07
353.16	0.7501	9.964e-07	1.036e-07
368.16	0.7501	8.588e-07	8.96e-08
383.16	0.7501	7.38e-07	7.73e-08
398.15	0.7501	6.499e-07	6.83e-08
413.15	0.7501	5.684e-07	6e-08

System: methyl decanoate + dodecane; phases: Liquid, Gas
Property: Surface tension liquid-gas, N/m (Liquid); method: Surface laser light scattering (SLLS)
Temperature, K	Mole fraction of methyl decanoate	Surface tension liquid-gas, N/m	uncertainty
308.11	0.2501	0.02271	0.00025
323.11	0.2501	0.02197	0.00035
338.11	0.2501	0.02123	0.00025
353.12	0.2501	0.0201	0.00022
368.12	0.2501	0.019	0.00015
383.1	0.2501	0.01778	0.00017
398.1	0.2501	0.01656	0.00023
413.09	0.2501	0.01547	0.00013
308.11	0.5004	0.02309	0.0003
323.1	0.5004	0.02247	0.00017
338.09	0.5004	0.02148	0.00027
353.1	0.5004	0.02064	0.00017
368.11	0.5004	0.01949	0.00022
383.1	0.5004	0.01827	0.00025
398.09	0.5004	0.01729	0.00016
413.07	0.5004	0.01585	0.00011
308.13	0.7501	0.02327	0.00049
323.13	0.7501	0.02261	0.00052
338.14	0.7501	0.02205	0.00018
353.16	0.7501	0.02123	0.00038
368.16	0.7501	0.02008	0.00014
383.16	0.7501	0.01888	0.00017
398.15	0.7501	0.01783	0.00013
413.15	0.7501	0.01668	0.00019

System: methyl butanoate + methyl decanoate + dodecane; phases: Liquid
Fixed: Mole fraction of methyl butanoate = 0.3309
Fixed: Mole fraction of methyl decanoate = 0.3311
Fixed: Pressure, kPa = 92
Property: Mass density, kg/m3 (Liquid); method: Vibrating tube method
Temperature, K	Mass density, kg/m3	uncertainty
293.15	823.24	1.65
303.15	814.77	1.64
313.15	806.34	1.62
323.15	797.77	1.6
333.15	789.29	1.59
343.15	780.81	1.57
353.15	772.35	1.55
363.15	763.6	1.54
373.15	755.04	1.52
383.15	746.17	1.5
393.15	737.5	1.49
403.15	728.45	1.47
413.15	719.42	1.45
423.15	710.13	1.43

System: methyl butanoate + methyl decanoate + dodecane; phases: Liquid
Fixed: Mole fraction of methyl butanoate = 0.3309
Fixed: Mole fraction of methyl decanoate = 0.3311
Fixed: Pressure, kPa = 92
Property: Refractive index (Na D-line) (Liquid); method: Standard Abbe refractometry
Temperature, K	Refractive index (Na D-line)	uncertainty
278.15	1.422555	0.000511
283.15	1.420384	0.000511
288.15	1.418131	0.000511
293.15	1.415888	0.000511
298.15	1.413647	0.000511
303.15	1.411386	0.000511
308.15	1.409123	0.000511
313.15	1.406881	0.000511
318.15	1.404645	0.000511
323.15	1.402407	0.000511
328.15	1.400196	0.000511
333.15	1.397982	0.000511
338.15	1.39576	0.000511
343.15	1.393582	0.000511
348.15	1.391426	0.000511
353.15	1.389294	0.000511
358.15	1.387099	0.000511

System: methyl butanoate + methyl decanoate + dodecane; phases: Liquid
Fixed: Mole fraction of methyl butanoate = 0.3309
Fixed: Mole fraction of methyl decanoate = 0.3311
Fixed: Pressure, kPa = 92
Property: Kinematic viscosity, m2/s (Liquid); method: Surface laser light scattering (SLLS)
Temperature, K	Kinematic viscosity, m2/s	uncertainty
308.09	1.2806e-06	1.326e-07
323.07	1.0686e-06	1.11e-07
338.06	9.191e-07	9.57e-08
353.05	7.691e-07	8.04e-08
368.02	6.732e-07	7.07e-08
383	5.939e-07	6.26e-08
397.98	5.249e-07	5.56e-08
412.95	4.69e-07	4.99e-08

System: methyl butanoate + methyl decanoate + dodecane; phases: Liquid, Gas
Fixed: Mole fraction of methyl butanoate = 0.3309
Fixed: Mole fraction of methyl decanoate = 0.3311
Property: Surface tension liquid-gas, N/m (Liquid); method: Surface laser light scattering (SLLS)
Temperature, K	Surface tension liquid-gas, N/m	uncertainty
308.09	0.02334	0.00015
323.07	0.02247	0.00013
338.06	0.02133	0.00029
353.05	0.02001	0.00015
368.02	0.01888	0.00011
383	0.01772	0.00021
397.98	0.0164	0.00011
412.95	0.01512	0.00013
