Measured thermophysical data. Experimental Phase Equilibrium for the Binary System of n-Pentane +2-Propanol Using a New Equilibrium Cell and the Static Total Pressure Method
Source: J. Chem. Eng. Data, 2018, 10.1021/acs.jced.7b00892
Compound 1: pentane, C5H12, InChI=1S/C5H12/c1-3-5-4-2/h3-5H2,1-2H3, purity 99%
Compound 2: hexane, C6H14, InChI=1S/C6H14/c1-3-5-6-4-2/h3-6H2,1-2H3, purity 99%
Compound 3: ethanol, C2H6O, InChI=1S/C2H6O/c1-2-3/h3H,2H2,1H3, purity 99.5%
Compound 4: propan-2-ol, C3H8O, InChI=1S/C3H8O/c1-3(2)4/h3-4H,1-2H3, purity 99.5%
Compound 5: butan-2-ol, C4H10O, InChI=1S/C4H10O/c1-3-4(2)5/h4-5H,3H2,1-2H3, purity 99%

System: pentane; phases: Liquid
Property: Mass density, kg/m3 (Liquid); method: Vibrating tube method
Temperature, K	Pressure, kPa	Mass density, kg/m3	uncertainty
293.15	101.325	627	1

System: pentane; phases: Liquid
Property: Refractive index (Na D-line) (Liquid); method: Standard Abbe refractometry
Temperature, K	Pressure, kPa	Refractive index (Na D-line)	uncertainty
293.15	101.325	1.357	0.001

System: pentane; phases: Liquid, Gas
Property: Vapor or sublimation pressure, kPa (Liquid); method: Closed cell (Static) method
Temperature, K	Vapor or sublimation pressure, kPa	uncertainty
303.11	82	0.4
303.17	82.1	0.4
313.12	115.6	0.4
323.1	158.9	0.5
333.12	213.7	0.5

System: hexane; phases: Liquid
Property: Mass density, kg/m3 (Liquid); method: Vibrating tube method
Temperature, K	Pressure, kPa	Mass density, kg/m3	uncertainty
313.15	101.325	642	1

System: hexane; phases: Liquid
Property: Refractive index (Na D-line) (Liquid); method: Standard Abbe refractometry
Temperature, K	Pressure, kPa	Refractive index (Na D-line)	uncertainty
293.15	101.325	1.375	0.001

System: hexane; phases: Liquid, Gas
Property: Vapor or sublimation pressure, kPa (Liquid); method: Closed cell (Static) method
Temperature, K	Vapor or sublimation pressure, kPa	uncertainty
308.11	30.4	0.3
313.11	37	0.3
318.1	44.8	0.3
323.11	54.6	0.3
329.21	66.9	0.4
333.13	76.5	0.4

System: ethanol; phases: Liquid
Property: Mass density, kg/m3 (Liquid); method: Vibrating tube method
Temperature, K	Pressure, kPa	Mass density, kg/m3	uncertainty
313.15	101.325	772	1

System: ethanol; phases: Liquid
Property: Refractive index (Na D-line) (Liquid); method: Standard Abbe refractometry
Temperature, K	Pressure, kPa	Refractive index (Na D-line)	uncertainty
293.15	101.325	1.361	0.001

System: ethanol; phases: Liquid, Gas
Property: Vapor or sublimation pressure, kPa (Liquid); method: Closed cell (Static) method
Temperature, K	Vapor or sublimation pressure, kPa	uncertainty
303.12	10.5	0.3

System: propan-2-ol; phases: Liquid
Property: Mass density, kg/m3 (Liquid); method: Vibrating tube method
Temperature, K	Pressure, kPa	Mass density, kg/m3	uncertainty
313.15	101.325	768	1

System: propan-2-ol; phases: Liquid
Property: Refractive index (Na D-line) (Liquid); method: Standard Abbe refractometry
Temperature, K	Pressure, kPa	Refractive index (Na D-line)	uncertainty
293.15	101.325	1.377	0.001

System: propan-2-ol; phases: Liquid, Gas
Property: Vapor or sublimation pressure, kPa (Liquid); method: Closed cell (Static) method
Temperature, K	Vapor or sublimation pressure, kPa	uncertainty
313.11	13.8	0.3
318.11	18.1	0.3
323.11	23.4	0.3
328.11	29.9	0.3
333.13	38.1	0.3

System: butan-2-ol; phases: Liquid
Property: Mass density, kg/m3 (Liquid); method: Vibrating tube method
Temperature, K	Pressure, kPa	Mass density, kg/m3	uncertainty
313.15	101.325	789	1

System: butan-2-ol; phases: Liquid
Property: Refractive index (Na D-line) (Liquid); method: Standard Abbe refractometry
Temperature, K	Pressure, kPa	Refractive index (Na D-line)	uncertainty
293.15	101.325	1.395	0.001

System: butan-2-ol; phases: Liquid, Gas
Property: Vapor or sublimation pressure, kPa (Liquid); method: Closed cell (Static) method
Temperature, K	Vapor or sublimation pressure, kPa	uncertainty
303.16	3.4	0.6
323.16	10.4	0.6
329.17	14.9	0.6
329.2	15	0.6

System: hexane + butan-2-ol; phases: Liquid, Gas
Property: Vapor or sublimation pressure, kPa (Liquid); method: Closed cell (Static) method
Temperature, K	Mole fraction of hexane	Vapor or sublimation pressure, kPa	uncertainty
329.21	1	66.9	0.7
329.21	0.9471	69.3	0.7
329.21	0.9	69.5	0.7
329.21	0.856	69.2	0.7
329.21	0.7981	68.6	0.7
329.21	0.7433	67.9	0.7
329.2	0.7052	67.3	0.7
329.2	0.646	66.2	0.7
329.2	0.5907	65.2	0.7
329.21	0.5392	64	0.7
329.2	0.5029	63	0.7
329.2	0.4503	61.4	0.7
329.21	0.4374	61	0.7
329.2	0.4025	59.8	0.7
329.2	0.3493	57.4	0.7
329.2	0.2995	54.8	0.7
329.2	0.2518	51.8	0.7
329.2	0.1957	47.2	0.7
329.2	0.1434	41.6	0.7
329.2	0.0947	34.8	0.7
329.2	0.0483	26.4	0.6
329.2	0	15	0.6

System: pentane + butan-2-ol; phases: Liquid, Gas
Property: Vapor or sublimation pressure, kPa (Liquid); method: Closed cell (Static) method
Temperature, K	Mole fraction of pentane	Vapor or sublimation pressure, kPa	uncertainty
303.17	1	82.1	0.5
303.17	0.8944	80.2	0.5
303.17	0.8543	79.3	0.5
303.17	0.7927	77.9	0.5
303.17	0.7532	76.9	0.5
303.17	0.7027	75.7	0.5
303.17	0.6507	74.2	0.5
303.17	0.5975	72.6	0.5
303.17	0.5477	71	0.5
303.16	0.5034	69.5	0.4
303.17	0.4993	69.2	0.4
303.17	0.453	67.4	0.5
303.16	0.4054	65	0.5
303.16	0.3564	62.1	0.5
303.16	0.2996	57.9	0.5
303.16	0.2474	52.9	0.6
303.16	0.1984	47.1	0.6
303.16	0.1507	40.2	0.6
303.16	0.1069	31.9	0.6
303.16	0.0477	18.4	0.5
303.16	0	3.4	0.3

System: pentane + ethanol; phases: Liquid, Gas
Property: Vapor or sublimation pressure, kPa (Liquid); method: Closed cell (Static) method
Temperature, K	Mole fraction of pentane	Vapor or sublimation pressure, kPa	uncertainty
303.11	1	82	0.5
303.11	0.9568	86.4	0.5
303.11	0.9055	86.7	0.5
303.12	0.8468	86.5	0.5
303.11	0.7997	86.4	0.5
303.11	0.7008	85.9	0.5
303.11	0.584	85.3	0.5
303.11	0.5234	83.9	0.5
303.11	0.4518	83.8	0.5
303.11	0.3992	81.6	0.5
303.11	0.3462	80	0.5
303.11	0.3009	78.2	0.5
303.11	0.2559	75.4	0.5
303.11	0.2048	71.3	0.5
303.11	0.1504	64.1	0.5
303.12	0.1073	55.3	0.6
303.11	0.0509	37.4	0.5
303.12	0	10.5	0.3

System: pentane + propan-2-ol; phases: Liquid, Gas
Property: Vapor or sublimation pressure, kPa (Liquid); method: Closed cell (Static) method
Temperature, K	Mole fraction of pentane	Vapor or sublimation pressure, kPa	uncertainty
333.12	1	213.7	0.8
333.12	0.9483	221.5	0.8
333.12	0.8987	221.8	0.8
333.12	0.8417	220.4	0.8
333.13	0.7914	218.7	0.8
333.13	0.7452	216.9	0.8
333.12	0.7018	215	0.8
333.13	0.6384	212	0.8
333.12	0.5826	208.4	0.8
333.13	0.4945	202.1	0.8
333.12	0.4471	197.4	0.9
333.12	0.367	188.2	0.9
333.12	0.3079	178.9	1
333.13	0.2581	168.7	1
333.12	0.2074	155.2	1.1
333.12	0.145	132.7	1.1
333.12	0.0993	110.5	1
333.12	0.0523	80.8	0.8
333.13	0	38.1	0.3
323.1	1	158.9	0.6
323.1	0.9483	163.8	0.6
323.11	0.8995	163.7	0.6
323.11	0.8406	162.7	0.6
323.1	0.8016	161.6	0.6
323.11	0.75	160	0.6
323.1	0.7002	158.3	0.6
323.11	0.6452	156.3	0.6
323.11	0.6026	154.7	0.6
323.11	0.5449	151.8	0.7
323.11	0.5009	149.4	0.7
323.11	0.4564	146.5	0.6
323.11	0.4029	142.9	0.6
323.11	0.3575	138.1	0.8
323.11	0.3083	132.3	0.7
323.11	0.2587	124.8	0.8
323.11	0.2055	114.1	0.9
323.11	0.1551	100.7	0.9
323.11	0.1109	85	0.9
323.11	0.0456	53.5	0.6
323.11	0	23.4	0.3
313.12	1	115.6	0.5
313.11	0.9385	118.5	0.5
313.11	0.8948	118.1	0.5
313.11	0.8513	117.5	0.5
313.11	0.7877	116.2	0.5
313.11	0.7408	115.1	0.5
313.11	0.6993	114.1	0.5
313.11	0.6457	112.7	0.5
313.11	0.5995	111.2	0.5
313.11	0.5431	109.5	0.5
313.11	0.5069	107.8	0.5
313.11	0.4476	105.7	0.5
313.11	0.4007	102.6	0.6
313.11	0.3552	99.4	0.6
313.11	0.2937	94.3	0.6
313.12	0.2463	88.7	0.6
313.11	0.208	82.9	0.7
313.11	0.164	74.4	0.7
313.11	0.0937	55.4	0.6
313.11	0.0314	30.6	0.4
313.11	0	13.8	0.3
