Measured thermophysical data. Experimental Binary VLE Data of Morpholine with 1-Butanol and 3-Methyl-1-butanol Systems
Source: J. Chem. Eng. Data, 2018, 10.1021/acs.jced.7b01128
Compound 1: butan-1-ol, C4H10O, InChI=1S/C4H10O/c1-2-3-4-5/h5H,2-4H2,1H3
Compound 2: 3-methylbutan-1-ol, C5H12O, InChI=1S/C5H12O/c1-5(2)3-4-6/h5-6H,3-4H2,1-2H3
Compound 3: tetrahydro-1,4-oxazine, C4H9NO, InChI=1S/C4H9NO/c1-3-6-4-2-5-1/h5H,1-4H2

System: butan-1-ol; phases: Liquid
Property: Refractive index (Na D-line) (Liquid); method: Standard Abbe refractometry
Temperature, K	Pressure, kPa	Refractive index (Na D-line)	uncertainty
298.15	101.325	1.397	0.004

System: butan-1-ol; phases: Liquid, Gas
Property: Vapor or sublimation pressure, kPa (Liquid); method: Ebulliometric method (Recirculating still)
Temperature, K	Vapor or sublimation pressure, kPa	uncertainty
353.15	21.73	0.36
363.15	34.13	0.38
373.15	51.86	0.49
383.15	76.52	0.61
366.75	39.99	0.45
379.55	66.66	0.56
384.35	79.99	0.64
390.75	100.78	0.7

System: 3-methylbutan-1-ol; phases: Liquid
Property: Refractive index (Na D-line) (Liquid); method: Standard Abbe refractometry
Temperature, K	Pressure, kPa	Refractive index (Na D-line)	uncertainty
298.15	101.325	1.403	0.004

System: 3-methylbutan-1-ol; phases: Liquid, Gas
Property: Vapor or sublimation pressure, kPa (Liquid); method: Ebulliometric method (Recirculating still)
Temperature, K	Vapor or sublimation pressure, kPa	uncertainty
343.15	7.73	0.34
386.05	53.33	0.51
392.15	66.66	0.55
397.15	79.99	0.64
403.95	101.05	0.67

System: tetrahydro-1,4-oxazine; phases: Liquid
Property: Refractive index (Na D-line) (Liquid); method: Standard Abbe refractometry
Temperature, K	Pressure, kPa	Refractive index (Na D-line)	uncertainty
293.15	101.325	1.455	0.004

System: tetrahydro-1,4-oxazine; phases: Liquid, Gas
Property: Vapor or sublimation pressure, kPa (Liquid); method: Ebulliometric method (Recirculating still)
Temperature, K	Vapor or sublimation pressure, kPa	uncertainty
353.15	19.73	0.31
363.15	28.93	0.34
373.15	41.32	0.38
383.15	57.86	0.48
372.15	39.99	0.38
387.55	66.66	0.51
393.35	79.99	0.57
401.15	100.78	0.61
343.15	13.06	0.3
380.75	53.33	0.42
393.45	79.99	0.57
401.15	101.05	0.61

System: butan-1-ol + tetrahydro-1,4-oxazine; phases: Liquid, Gas
Property: Vapor or sublimation pressure, kPa (Liquid); method: Ebulliometric method (Recirculating still)
Temperature, K	Mole fraction of butan-1-ol	Vapor or sublimation pressure, kPa	uncertainty
353.15	0	19.73	0.34
353.15	0.0834	19.46	0.34
353.15	0.1198	19.33	0.33
353.15	0.182	19.19	0.33
353.15	0.2412	19.06	0.33
353.15	0.3018	19.06	0.33
353.15	0.37	18.93	0.33
353.15	0.4008	19.06	0.33
353.15	0.4842	19.19	0.34
353.15	0.5602	19.46	0.34
353.15	0.6189	19.59	0.35
353.15	0.692	19.86	0.36
353.15	0.7427	20.13	0.36
353.15	0.821	20.66	0.37
353.15	0.9075	21.06	0.38
353.15	0.9801	21.59	0.38
353.15	1	21.73	0.38
363.15	0	28.93	0.37
363.15	0.0834	28.26	0.37
363.15	0.1198	27.86	0.37
363.15	0.182	27.59	0.37
363.15	0.2412	27.46	0.37
363.15	0.3018	27.33	0.38
363.15	0.37	27.46	0.38
363.15	0.4008	27.59	0.38
363.15	0.4842	28.13	0.39
363.15	0.5602	28.79	0.39
363.15	0.6189	29.59	0.4
363.15	0.692	30.39	0.41
363.15	0.7427	30.93	0.41
363.15	0.821	31.99	0.42
363.15	0.9075	33.19	0.43
363.15	0.9801	33.86	0.43
363.15	1	34.13	0.43
373.15	0	41.32	0.44
373.15	0.0834	41.19	0.44
373.15	0.1198	41.06	0.44
373.15	0.182	40.92	0.44
373.15	0.2412	41.46	0.45
373.15	0.3018	41.86	0.46
373.15	0.37	42.52	0.46
373.15	0.4008	42.79	0.46
373.15	0.4842	43.72	0.47
373.15	0.5602	44.79	0.48
373.15	0.6189	46.12	0.49
373.15	0.692	47.19	0.5
373.15	0.7427	48.26	0.51
373.15	0.821	49.86	0.53
373.15	0.9075	51.32	0.54
373.15	0.9801	51.72	0.55
373.15	1	51.86	0.55
383.15	0	57.86	0.49
383.15	0.0834	57.72	0.49
383.15	0.1198	57.59	0.49
383.15	0.182	57.46	0.49
383.15	0.2412	57.86	0.5
383.15	0.3018	59.19	0.5
383.15	0.37	59.86	0.51
383.15	0.4008	60.39	0.51
383.15	0.4842	61.86	0.52
383.15	0.5602	63.72	0.54
383.15	0.6189	65.46	0.55
383.15	0.692	67.59	0.57
383.15	0.7427	69.46	0.58
383.15	0.821	71.99	0.6
383.15	0.9075	74.79	0.62
383.15	0.9801	76.39	0.64
383.15	1	76.52	0.64

System: butan-1-ol + tetrahydro-1,4-oxazine; phases: Liquid, Gas
Property: Vapor or sublimation pressure, kPa (Liquid); method: Ebulliometric method (Recirculating still)
Temperature, K	Mole fraction of butan-1-ol	Vapor or sublimation pressure, kPa	uncertainty
372.15	0	39.99	0.47
372.25	0.0834	39.99	0.47
372.35	0.1198	39.99	0.47
372.25	0.182	39.99	0.47
372.15	0.2412	39.99	0.47
371.95	0.3018	39.99	0.48
371.65	0.37	39.99	0.48
371.55	0.4008	39.99	0.48
370.85	0.4842	39.99	0.48
370.35	0.5602	39.99	0.49
369.85	0.6189	39.99	0.49
369.35	0.692	39.99	0.5
368.95	0.7427	39.99	0.51
368.25	0.821	39.99	0.51
367.65	0.9075	39.99	0.52
366.95	0.9801	39.99	0.53
366.75	1	39.99	0.53
387.55	0	66.66	0.54
387.65	0.0834	66.66	0.54
387.75	0.1198	66.66	0.54
387.65	0.182	66.66	0.54
387.45	0.2412	66.66	0.54
387.15	0.3018	66.66	0.55
386.65	0.37	66.66	0.55
386.35	0.4008	66.66	0.57
385.65	0.4842	66.66	0.55
384.95	0.5602	66.66	0.55
384.15	0.6189	66.66	0.56
383.25	0.692	66.66	0.56
382.65	0.7427	66.66	0.57
381.65	0.821	66.66	0.58
380.65	0.9075	66.66	0.58
379.75	0.9801	66.66	0.59
379.55	1	66.66	0.58
393.35	0	79.99	0.66
393.25	0.0834	79.99	0.67
393.05	0.1198	79.99	0.68
392.75	0.182	79.99	0.69
392.55	0.2412	79.99	0.7
392.25	0.3018	79.99	0.71
391.85	0.37	79.99	0.72
391.65	0.4008	79.99	0.74
390.95	0.4842	79.99	0.74
390.25	0.5602	79.99	0.75
389.55	0.6189	79.99	0.75
388.65	0.692	79.99	0.75
388.05	0.7427	79.99	0.77
386.95	0.821	79.99	0.76
385.65	0.9075	79.99	0.75
384.75	0.9801	79.99	0.74
384.35	1	79.99	0.74
401.15	0	100.78	0.73
400.95	0.0834	100.78	0.73
400.75	0.1198	100.78	0.73
400.35	0.182	100.78	0.74
399.75	0.2412	100.78	0.76
399.15	0.3018	100.78	0.78
398.35	0.37	100.78	0.81
397.95	0.4008	100.78	0.82
396.95	0.4842	100.78	0.85
395.95	0.5602	100.78	0.88
395.15	0.6189	100.78	0.89
394.25	0.692	100.78	0.89
393.65	0.7427	100.78	0.89
392.65	0.821	100.78	0.88
391.75	0.9075	100.78	0.84
390.95	0.9801	100.78	0.83
390.75	1	100.78	0.82

System: 3-methylbutan-1-ol + tetrahydro-1,4-oxazine; phases: Liquid, Gas
Fixed: Temperature, K = 343.15
Property: Vapor or sublimation pressure, kPa (Liquid); method: Ebulliometric method (Recirculating still)
Mole fraction of tetrahydro-1,4-oxazine	Vapor or sublimation pressure, kPa	uncertainty
0	7.73	0.28
0.0351	7.99	0.29
0.0923	8.39	0.29
0.1071	8.66	0.29
0.2037	9.06	0.29
0.3026	9.59	0.29
0.388	9.86	0.29
0.4839	10.13	0.29
0.5102	10.39	0.3
0.5632	10.66	0.3
0.6427	11.19	0.3
0.7198	11.59	0.3
0.7936	11.99	0.3
0.8679	12.39	0.3
0.9293	12.66	0.31
0.9876	12.93	0.31
1	13.06	0.31

System: 3-methylbutan-1-ol + tetrahydro-1,4-oxazine; phases: Liquid, Gas
Property: Vapor or sublimation pressure, kPa (Liquid); method: Ebulliometric method (Recirculating still)
Temperature, K	Mole fraction of tetrahydro-1,4-oxazine	Vapor or sublimation pressure, kPa	uncertainty
386.05	0	53.33	0.56
385.95	0.0351	53.33	0.57
385.85	0.0923	53.33	0.57
385.75	0.1071	53.33	0.57
385.45	0.2037	53.33	0.57
384.95	0.3026	53.33	0.56
384.55	0.388	53.33	0.56
384.05	0.4839	53.33	0.55
383.85	0.5102	53.33	0.55
383.55	0.5632	53.33	0.55
383.05	0.6427	53.33	0.54
382.65	0.7198	53.33	0.54
382.15	0.7936	53.33	0.54
381.65	0.8679	53.33	0.53
381.15	0.9293	53.33	0.53
380.75	0.9876	53.33	0.53
380.75	1	53.33	0.53
392.15	0	66.66	0.61
391.95	0.0351	66.66	0.61
391.85	0.0923	66.66	0.61
391.75	0.1071	66.66	0.61
391.45	0.2037	66.66	0.61
391.05	0.3026	66.66	0.6
390.75	0.388	66.66	0.59
390.35	0.4839	66.66	0.59
390.15	0.5102	66.66	0.58
389.95	0.5632	66.66	0.58
389.55	0.6427	66.66	0.57
389.15	0.7198	66.66	0.57
388.75	0.7936	66.66	0.57
388.35	0.8679	66.66	0.57
388.05	0.9293	66.66	0.57
387.65	0.9876	66.66	0.57
387.55	1	66.66	0.57
397.15	0	79.99	0.72
397.05	0.0351	79.99	0.72
396.95	0.0923	79.99	0.72
396.85	0.1071	79.99	0.72
396.75	0.2037	79.99	0.71
396.55	0.3026	79.99	0.71
396.35	0.388	79.99	0.7
396.15	0.4839	79.99	0.7
396.05	0.5102	79.99	0.69
395.85	0.5632	79.99	0.69
395.65	0.6427	79.99	0.69
395.25	0.7198	79.99	0.68
394.85	0.7936	79.99	0.68
394.45	0.8679	79.99	0.67
393.95	0.9293	79.99	0.67
393.55	0.9876	79.99	0.67
393.45	1	79.99	0.67
403.95	0	101.05	0.48
403.85	0.0351	101.05	0.48
403.75	0.0923	101.05	0.49
403.65	0.1071	101.05	0.5
403.55	0.2037	101.05	0.49
403.25	0.3026	101.05	0.49
403.05	0.388	101.05	0.49
402.85	0.4839	101.05	0.49
402.75	0.5102	101.05	0.5
402.55	0.5632	101.05	0.49
402.35	0.6427	101.05	0.49
402.15	0.7198	101.05	0.5
401.95	0.7936	101.05	0.5
401.75	0.8679	101.05	0.5
401.45	0.9293	101.05	0.5
401.35	0.9876	101.05	0.5
401.15	1	101.05	0.5
