Measured thermophysical data. Gaseous PVT Property Measurements of cis-1,3,3,3-Tetrafluoropropene
Source: J. Chem. Eng. Data, 2017, 10.1021/acs.jced.7b00263
Compound 1: helium, He, InChI=1S/He
Compound 2: nitrogen, N2, InChI=1S/N2/c1-2
Compound 3: (Z)-1,3,3,3-tetrafluoro-1-propene, C3H2F4, InChI=1S/C3H2F4/c4-2-1-3(5,6)7/h1-2H/b2-1-, purity 99.98%
Compound 4: 1,1,1,2-tetrafluoroethane, C2H2F4, InChI=1S/C2H2F4/c3-1-2(4,5)6/h1H2, purity 99.96%

System: helium; phases: Gas
Property: Amount density, mol/m3 (Gas); method: ISOCHOR
Temperature, K	Pressure, kPa	Amount density, mol/m3	uncertainty
353.163	1131.2	383.5	0.7
353.163	808.4	274.4	0.6
353.163	577.9	196.4	0.5
353.163	413.2	140.5	0.5
353.163	295.5	100.5	0.5
353.163	211.4	71.93	0.45
373.167	1143.7	367.1	0.6
373.167	817.4	262.7	0.6
373.167	584.3	187.9	0.5
373.167	417.9	134.5	0.5
373.167	298.8	96.21	0.45
373.167	213.8	68.84	0.45
393.119	1196.9	364.7	0.6
393.119	855.4	260.9	0.5
393.119	611.5	186.7	0.5
393.119	437.3	133.6	0.5
393.119	312.7	95.57	0.45
393.119	223.7	68.38	0.44
413.134	1249.5	362.3	0.6
413.134	893	259.2	0.5
413.134	638.5	185.5	0.5
413.134	456.6	132.7	0.5
413.134	326.5	94.96	0.44
413.134	233.6	67.95	0.44

System: nitrogen; phases: Gas
Property: Amount density, mol/m3 (Gas); method: ISOCHOR
Temperature, K	Pressure, kPa	Amount density, mol/m3	uncertainty
353.172	2425.2	822.9	1
353.172	1733.1	588.8	0.8
353.172	1239.1	421.3	0.6
353.172	886.1	301.4	0.4
353.172	633.8	215.7	0.3
353.172	453.4	154.3	0.3
353.172	324.4	110.4	0.3
353.172	232.1	79	0.23
413.162	2553.6	737.2	0.9
413.162	1822.6	527.5	0.7
413.162	1301.9	377.4	0.5
413.162	930.4	270.1	0.4
413.162	665.1	193.2	0.3
413.162	475.6	138.3	0.3
413.162	340.2	98.93	0.22
413.162	243.3	70.78	0.2

System: (Z)-1,3,3,3-tetrafluoro-1-propene; phases: Gas
Property: Amount density, mol/m3 (Gas); method: ISOCHOR
Temperature, K	Pressure, kPa	Amount density, mol/m3	uncertainty
353.165	739.1	305.2	0.5
353.165	558.9	218.4	0.4
353.165	416.2	156.3	0.3
353.165	306.3	111.8	0.3
353.165	223.6	79.99	0.25
353.165	162.3	57.24	0.23
373.145	966.3	383.3	0.6
373.145	734.6	274.2	0.4
373.145	548.5	196.2	0.3
373.145	404.4	140.4	0.3
373.145	295.6	100.5	0.3
373.145	214.8	71.88	0.23
393.125	1841.9	838.3	1.1
393.125	1481	599.8	0.8
393.125	1149	429.2	0.6
393.125	871.1	307.1	0.5
393.125	649.2	219.7	0.4
393.125	478.2	157.2	0.3
393.125	349.3	112.5	0.3
393.125	253.6	80.48	0.22
413.144	2734	1432	2
413.144	2318.3	1024	1
413.144	1870.3	733	1
413.144	1458.1	524.4	0.7
413.144	1108.7	375.2	0.5
413.144	828.3	268.5	0.4
413.144	611.2	192.1	0.3
413.144	447	137.5	0.3
413.144	324.9	98.35	0.23
413.144	235.1	70.37	0.21

System: (Z)-1,3,3,3-tetrafluoro-1-propene; phases: Liquid, Gas
Property: Vapor or sublimation pressure, kPa (Liquid); method: Closed cell (Static) method
Temperature, K	Vapor or sublimation pressure, kPa	uncertainty
353.165	858.3	1.4
373.145	1347.5	2.1
393.125	2023.7	3.2
413.144	2940.4	4.6

System: 1,1,1,2-tetrafluoroethane; phases: Gas
Property: Amount density, mol/m3 (Gas); method: ISOCHOR
Temperature, K	Pressure, kPa	Amount density, mol/m3	uncertainty
353.171	1761.5	776.7	1
353.171	1359.7	555.7	0.7
353.171	1026	397.6	0.6
353.171	762.1	284.5	0.4
353.171	559.9	203.6	0.3
353.171	408.2	145.7	0.3
353.171	296	104.2	0.3
353.171	213.8	74.57	0.24
413.165	2606.8	918.8	1.2
413.165	1968.8	657.4	0.8
413.165	1464.6	470.4	0.6
413.165	1077.6	336.6	0.5
413.165	786.7	240.8	0.4
413.165	571	172.3	0.3
413.165	412.8	123.3	0.2
413.165	297.5	88.22	0.21
413.165	214	63.12	0.2
