Measured thermophysical data. Liquid-liquid equilibria of water + ethanol + 1-butyl-3- methylimidazolium bis(trifluoromethanesulfonyl)imide ternary system: measurements and correlation at different temperatures
Source: J. Chem. Eng. Data, 2015, 10.1021/acs.jced.5b00301
Compound 1: water, H2O, InChI=1S/H2O/h1H2, purity 99.5%
Compound 2: ethanol, C2H6O, InChI=1S/C2H6O/c1-2-3/h3H,2H2,1H3, purity 99.8%
Compound 3: 1-butyl-3-methylimidazolium bis(trifluoromethylsulfonyl)imide, C10H15F6N3O4S2, InChI=1S/C8H15N2.C2F6NO4S2/c1-3-4-5-10-7-6-9(2)8-10;3-1(4,5)14(10,11)9-15(12,13)2(6,7)8/h6-8H,3-5H2,1-2H3;/q+1;-1, purity 99%

System: water; phases: Liquid
Property: Refractive index (Na D-line) (Liquid); method: Standard Abbe refractometry
Temperature, K	Pressure, kPa	Refractive index (Na D-line)	uncertainty
298.15	101.325	1.3325	0.0005

System: ethanol; phases: Liquid
Property: Mass density, kg/m3 (Liquid); method: Vibrating tube method
Temperature, K	Pressure, kPa	Mass density, kg/m3	uncertainty
298.15	101.325	786.47	0.12

System: ethanol; phases: Liquid
Property: Refractive index (Na D-line) (Liquid); method: Standard Abbe refractometry
Temperature, K	Pressure, kPa	Refractive index (Na D-line)	uncertainty
298.15	101.325	1.3594	0.0005

System: 1-butyl-3-methylimidazolium bis(trifluoromethylsulfonyl)imide; phases: Liquid
Property: Mass density, kg/m3 (Liquid); method: Vibrating tube method
Temperature, K	Pressure, kPa	Mass density, kg/m3	uncertainty
298.15	101.325	1434.23	0.61

System: 1-butyl-3-methylimidazolium bis(trifluoromethylsulfonyl)imide; phases: Liquid
Property: Refractive index (Na D-line) (Liquid); method: Standard Abbe refractometry
Temperature, K	Pressure, kPa	Refractive index (Na D-line)	uncertainty
298.15	101.325	1.4267	0.0005

System: ethanol + water + 1-butyl-3-methylimidazolium bis(trifluoromethylsulfonyl)imide; phases: Liquid mixture 1, Liquid mixture 2
Fixed: Pressure, kPa = 101.3
Property: Mole fraction of ethanol (Liquid mixture 1); method: OTHER
Property: Mole fraction of ethanol (Liquid mixture 2); method: OTHER
Property: Mole fraction of water (Liquid mixture 2); method: OTHER
Temperature, K	Mole fraction of water	Mole fraction of ethanol	uncertainty	Mole fraction of ethanol	uncertainty	Mole fraction of water	uncertainty
283.2	0.196	0		0		0.9997	
283.2	0.227	0.094	0.066	0.0614	0.0283	0.9382	
283.2	0.244	0.155	0.071	0.0945	0.0283	0.9051	
283.2	0.262	0.207	0.058	0.1202	0.0282	0.8792	
283.2	0.278	0.257	0.055	0.1437	0.0281	0.8553	
283.2	0.364	0.359	0.027	0.2303	0.0276	0.7642	
283.2	0.303	0.302	0.032	0.1727	0.0279	0.8255	
283.2	0.316	0.316	0.033	0.1812	0.0279	0.8165	
283.2	0.397	0.379	0.023	0.2638	0.0267	0.7257	
283.2	0.435	0.387	0.022	0.2917	0.0265	0.6912	
283.2	0.214	0.039	0.039	0.0277	0.0277	0.972	
283.2	0.352	0.349	0.027	0.2199	0.0275	0.7754	
283.2	0.391	0.38	0.023	0.2628	0.0267	0.7274	
303.2	0.345	0.247	0.036	0.1089	0.0281	0.8899	
303.2	0.41	0.323	0.026	0.1626	0.0276	0.8339	
303.2	0.37	0.291	0.031	0.1334	0.0278	0.8647	
303.2	0.437	0.342	0.022	0.1865	0.0269	0.8079	
303.2	0.498	0.347	0.021	0.2197	0.0261	0.7686	
303.2	0.27	0		0		0.9997	
303.2	0.284	0.051	0.051	0.0227	0.0227	0.9769	
303.2	0.297	0.114	0.081	0.0491	0.0282	0.9504	
303.2	0.32	0.196	0.046	0.0832	0.0282	0.9161	
303.2	0.559	0.336	0.022	0.2499	0.0257	0.7291	
323.2	0.35	0		0		0.9996	
323.2	0.35	0.078	0.041	0.0207	0.0207	0.9788	
323.2	0.383	0.137	0.066	0.043	0.0281	0.9563	
323.2	0.418	0.215	0.048	0.0753	0.0281	0.9236	
323.2	0.434	0.256	0.039	0.0964	0.0278	0.9019	
323.2	0.493	0.321	0.021	0.1458	0.0272	0.849	
323.2	0.449	0.281	0.035	0.1204	0.0275	0.8768	
323.2	0.556	0.305	0.022	0.1656	0.0271	0.8269	

System: water + 1-butyl-3-methylimidazolium bis(trifluoromethylsulfonyl)imide; phases: Liquid mixture 1, Liquid mixture 2
Fixed: Pressure, kPa = 101.3
Property: Mole fraction of water (Liquid mixture 1); method: OTHER
Temperature, K	Mole fraction of water	uncertainty
283.2	0.196	0.02
303.2	0.27	0.021
323.2	0.35	0.021

System: water + 1-butyl-3-methylimidazolium bis(trifluoromethylsulfonyl)imide; phases: Liquid mixture 2, Liquid mixture 1
Fixed: Pressure, kPa = 101.3
Property: Mole fraction of water (Liquid mixture 2); method: OTHER
Temperature, K	Mole fraction of water	uncertainty
283.2	0.9997	0.02
303.2	0.9997	0.02
323.2	0.9996	0.02
