Measured thermophysical data. Thermodynamic Models for Determination of Solid-Liquid Equilibrium of the Buprofezin in Pure and Binary Organic Solvents
Source: J. Chem. Eng. Data, 2019, 10.1021/acs.jced.9b00172
Compound 1: buprofezin, C16H23N3OS, InChI=1S/C16H23N3OS/c1-12(2)19-14(17-16(3,4)5)21-11-18(15(19)20)13-9-7-6-8-10-13/h6-10,12H,11H2,1-5H3, purity 99%
Compound 2: methanol, CH4O, InChI=1S/CH4O/c1-2/h2H,1H3, purity 99.9%
Compound 3: ethanol, C2H6O, InChI=1S/C2H6O/c1-2-3/h3H,2H2,1H3, purity 99.9%
Compound 4: butan-1-ol, C4H10O, InChI=1S/C4H10O/c1-2-3-4-5/h5H,2-4H2,1H3, purity 99.5%
Compound 5: propan-2-ol, C3H8O, InChI=1S/C3H8O/c1-3(2)4/h3-4H,1-2H3, purity 99.9%
Compound 6: dimethylformamide, C3H7NO, InChI=1S/C3H7NO/c1-4(2)3-5/h3H,1-2H3, purity 99.7%
Compound 7: acetonitrile, C2H3N, InChI=1S/C2H3N/c1-2-3/h1H3, purity 99.6%
Compound 8: hexane, C6H14, InChI=1S/C6H14/c1-3-5-6-4-2/h3-6H2,1-2H3, purity 99.6%
Compound 9: ethyl acetate, C4H8O2, InChI=1S/C4H8O2/c1-3-6-4(2)5/h3H2,1-2H3, purity 99.8%

System: buprofezin + methanol; phases: Liquid, Crystal
Fixed: Pressure, kPa = 100
Property: Mole fraction of buprofezin (Liquid); method: gravimetric
Temperature, K	Mole fraction of buprofezin	uncertainty
278.15	0.004821	0.000482
283.15	0.005347	0.000535
288.15	0.006815	0.000682
293.15	0.007543	0.000755
298.15	0.009297	0.000931
303.15	0.011218	0.001123
308.15	0.01356	0.001357
313.15	0.016469	0.001649
318.15	0.021259	0.00213
323.15	0.028163	0.002822
328.15	0.038301	0.003836

System: buprofezin + ethanol; phases: Liquid, Crystal
Fixed: Pressure, kPa = 100
Property: Mole fraction of buprofezin (Liquid); method: gravimetric
Temperature, K	Mole fraction of buprofezin	uncertainty
278.15	0.006481	0.000649
283.15	0.007751	0.000776
288.15	0.009475	0.000948
293.15	0.011502	0.001151
298.15	0.013623	0.001363
303.15	0.016294	0.001631
308.15	0.019666	0.001969
313.15	0.024592	0.002462
318.15	0.029998	0.003004
323.15	0.039124	0.003918
328.15	0.048732	0.004878

System: buprofezin + propan-2-ol; phases: Liquid, Crystal
Fixed: Pressure, kPa = 100
Property: Mole fraction of buprofezin (Liquid); method: gravimetric
Temperature, K	Mole fraction of buprofezin	uncertainty
278.15	0.007169	0.000718
283.15	0.009273	0.000928
288.15	0.010731	0.001074
293.15	0.012875	0.001289
298.15	0.016948	0.001698
303.15	0.021923	0.002195
308.15	0.027223	0.002726
313.15	0.035115	0.003517
318.15	0.045696	0.004576
323.15	0.057944	0.005801
328.15	0.069846	0.00699

System: buprofezin + butan-1-ol; phases: Liquid, Crystal
Fixed: Pressure, kPa = 100
Property: Mole fraction of buprofezin (Liquid); method: gravimetric
Temperature, K	Mole fraction of buprofezin	uncertainty
278.15	0.012826	0.001284
283.15	0.01579	0.001581
288.15	0.019304	0.001932
293.15	0.023293	0.002332
298.15	0.028448	0.002847
303.15	0.033436	0.003348
308.15	0.043761	0.004382
313.15	0.053253	0.005331
318.15	0.065222	0.006529
323.15	0.078651	0.007874
328.15	0.099537	0.009965

System: buprofezin + acetonitrile; phases: Liquid, Crystal
Fixed: Pressure, kPa = 100
Property: Mole fraction of buprofezin (Liquid); method: gravimetric
Temperature, K	Mole fraction of buprofezin	uncertainty
278.15	0.006186	0.000619
283.15	0.006993	0.0007
288.15	0.00819	0.00082
293.15	0.009689	0.00097
298.15	0.011763	0.001177
303.15	0.014349	0.001436
308.15	0.017676	0.00177
313.15	0.021918	0.002194
318.15	0.027112	0.002715
323.15	0.034267	0.003431
328.15	0.043539	0.004359

System: buprofezin + hexane; phases: Liquid, Crystal
Fixed: Pressure, kPa = 100
Property: Mole fraction of buprofezin (Liquid); method: gravimetric
Temperature, K	Mole fraction of buprofezin	uncertainty
278.15	0.013411	0.001342
283.15	0.014763	0.001477
288.15	0.016442	0.001645
293.15	0.018544	0.001856
298.15	0.022212	0.002223
303.15	0.024973	0.002499
308.15	0.029563	0.002959
313.15	0.035867	0.00359
318.15	0.042884	0.004293
323.15	0.053667	0.005374
328.15	0.068905	0.006899

System: buprofezin + ethyl acetate; phases: Liquid, Crystal
Fixed: Pressure, kPa = 100
Property: Mole fraction of buprofezin (Liquid); method: gravimetric
Temperature, K	Mole fraction of buprofezin	uncertainty
278.15	0.04163	0.004171
283.15	0.05376	0.005383
288.15	0.06624	0.00663
293.15	0.0785	0.007858
298.15	0.09668	0.009677
303.15	0.1157	0.011578
308.15	0.1336	0.013369
313.15	0.1568	0.015691
318.15	0.1826	0.018272
323.15	0.2095	0.020962
328.15	0.2378	0.023792

System: buprofezin + dimethylformamide; phases: Liquid, Crystal
Fixed: Pressure, kPa = 100
Property: Mole fraction of buprofezin (Liquid); method: gravimetric
Temperature, K	Mole fraction of buprofezin	uncertainty
278.15	0.008686	0.00087
283.15	0.01051	0.001052
288.15	0.01244	0.001245
293.15	0.015042	0.001506
298.15	0.019065	0.001909
303.15	0.023978	0.002401
308.15	0.029844	0.002989
313.15	0.038758	0.003881
318.15	0.048603	0.004867
323.15	0.061092	0.006118
328.15	0.078242	0.007833

System: buprofezin + ethyl acetate + methanol; phases: Liquid, Crystal
Fixed: Pressure, kPa = 100
Property: Mole fraction of buprofezin (Liquid); method: Chromatography
Temperature, K	Solvent: Mole fraction of ethyl acetate	Mole fraction of buprofezin	uncertainty
278.15	0	0.0048	0.0005
278.15	0.068	0.0073	0.0007
278.15	0.151	0.0104	0.001
278.15	0.253	0.0141	0.0014
278.15	0.383	0.0189	0.0019
278.15	0.554	0.0252	0.0025
278.15	0.789	0.0338	0.0034
278.15	1	0.0416	0.0042
283.15	0	0.0053	0.0005
283.15	0.068	0.0086	0.0009
283.15	0.151	0.0126	0.0013
283.15	0.253	0.0176	0.0018
283.15	0.383	0.0239	0.0024
283.15	0.554	0.0322	0.0032
283.15	0.789	0.0435	0.0044
283.15	1	0.0538	0.0054
288.15	0	0.0068	0.0007
288.15	0.068	0.0109	0.0011
288.15	0.151	0.0158	0.0016
288.15	0.253	0.0219	0.0022
288.15	0.383	0.0296	0.003
288.15	0.554	0.0397	0.004
288.15	0.789	0.0537	0.0054
288.15	1	0.0662	0.0066
293.15	0	0.0075	0.0008
293.15	0.068	0.0124	0.0012
293.15	0.151	0.0182	0.0018
293.15	0.253	0.0255	0.0026
293.15	0.383	0.0347	0.0035
293.15	0.554	0.0469	0.0047
293.15	0.789	0.0635	0.0064
293.15	1	0.0785	0.0079
298.15	0	0.0093	0.0009
298.15	0.068	0.0153	0.0015
298.15	0.151	0.0225	0.0023
298.15	0.253	0.0314	0.0031
298.15	0.383	0.0428	0.0043
298.15	0.554	0.0577	0.0058
298.15	0.789	0.0782	0.0078
298.15	1	0.0967	0.0097
303.15	0	0.0112	0.0011
303.15	0.068	0.0183	0.0018
303.15	0.151	0.027	0.0027
303.15	0.253	0.0377	0.0038
303.15	0.383	0.0513	0.0051
303.15	0.554	0.0691	0.0069
303.15	0.789	0.0936	0.0094
303.15	1	0.1157	0.0116
308.15	0	0.0136	0.0014
308.15	0.068	0.0217	0.0022
308.15	0.151	0.0317	0.0032
308.15	0.253	0.0439	0.0044
308.15	0.383	0.0596	0.006
308.15	0.554	0.0801	0.008
308.15	0.789	0.1082	0.0108
308.15	1	0.1336	0.0134
313.15	0	0.0165	0.0017
313.15	0.068	0.026	0.0026
313.15	0.151	0.0376	0.0038
313.15	0.253	0.052	0.0052
313.15	0.383	0.0703	0.007
313.15	0.554	0.0942	0.0094
313.15	0.789	0.1271	0.0127
313.15	1	0.1568	0.0157
318.15	0	0.0213	0.0021
318.15	0.068	0.0322	0.0032
318.15	0.151	0.0456	0.0046
318.15	0.253	0.0621	0.0062
318.15	0.383	0.0831	0.0083
318.15	0.554	0.1107	0.0111
318.15	0.789	0.1485	0.0149
318.15	1	0.1826	0.0183
323.15	0	0.0282	0.0028
323.15	0.068	0.0405	0.0041
323.15	0.151	0.0555	0.0056
323.15	0.253	0.0741	0.0074
323.15	0.383	0.0977	0.0098
323.15	0.554	0.1286	0.0129
323.15	0.789	0.1711	0.0171
323.15	1	0.2095	0.021
328.15	0	0.0383	0.0038
328.15	0.068	0.0519	0.0052
328.15	0.151	0.0684	0.0068
328.15	0.253	0.0888	0.0089
328.15	0.383	0.1148	0.0115
328.15	0.554	0.1488	0.0149
328.15	0.789	0.1956	0.0196
328.15	1	0.2378	0.0238

System: buprofezin + ethyl acetate + acetonitrile; phases: Liquid, Crystal
Fixed: Pressure, kPa = 100
Property: Mole fraction of buprofezin (Liquid); method: Chromatography
Temperature, K	Solvent: Mole fraction of ethyl acetate	Mole fraction of buprofezin	uncertainty
278.15	0	0.0062	0.0006
278.15	0.086	0.0092	0.0009
278.15	0.186	0.0128	0.0013
278.15	0.303	0.0169	0.0017
278.15	0.444	0.0219	0.0022
278.15	0.615	0.028	0.0028
278.15	0.827	0.0355	0.0036
278.15	1	0.0416	0.0042
283.15	0	0.007	0.0007
283.15	0.086	0.011	0.0011
283.15	0.186	0.0157	0.0016
283.15	0.303	0.0212	0.0021
283.15	0.444	0.0277	0.0028
283.15	0.615	0.0357	0.0036
283.15	0.827	0.0457	0.0046
283.15	1	0.0538	0.0054
288.15	0	0.0082	0.0008
288.15	0.086	0.0132	0.0013
288.15	0.186	0.019	0.0019
288.15	0.303	0.0258	0.0026
288.15	0.444	0.034	0.0034
288.15	0.615	0.0439	0.0044
288.15	0.827	0.0562	0.0056
288.15	1	0.0662	0.0066
293.15	0	0.0097	0.001
293.15	0.086	0.0156	0.0016
293.15	0.186	0.0225	0.0023
293.15	0.303	0.0306	0.0031
293.15	0.444	0.0402	0.004
293.15	0.615	0.052	0.0052
293.15	0.827	0.0666	0.0067
293.15	1	0.0785	0.0079
298.15	0	0.0118	0.0012
298.15	0.086	0.019	0.0019
298.15	0.186	0.0275	0.0028
298.15	0.303	0.0375	0.0038
298.15	0.444	0.0494	0.0049
298.15	0.615	0.064	0.0064
298.15	0.827	0.082	0.0082
298.15	1	0.0967	0.0097
303.15	0	0.0143	0.0014
303.15	0.086	0.023	0.0023
303.15	0.186	0.0331	0.0033
303.15	0.303	0.0451	0.0045
303.15	0.444	0.0593	0.0059
303.15	0.615	0.0767	0.0077
303.15	0.827	0.0982	0.0098
303.15	1	0.1157	0.0116
308.15	0	0.0177	0.0018
308.15	0.086	0.0276	0.0028
308.15	0.186	0.0392	0.0039
308.15	0.303	0.0528	0.0053
308.15	0.444	0.0691	0.0069
308.15	0.615	0.0889	0.0089
308.15	0.827	0.1136	0.0114
308.15	1	0.1336	0.0134
313.15	0	0.0219	0.0022
313.15	0.086	0.0335	0.0034
313.15	0.186	0.047	0.0047
313.15	0.303	0.0628	0.0063
313.15	0.444	0.0818	0.0082
313.15	0.615	0.1048	0.0105
313.15	0.827	0.1335	0.0134
313.15	1	0.1568	0.0157
318.15	0	0.0271	0.0027
318.15	0.086	0.0405	0.0041
318.15	0.186	0.056	0.0056
318.15	0.303	0.0743	0.0074
318.15	0.444	0.0961	0.0096
318.15	0.615	0.1227	0.0123
318.15	0.827	0.1557	0.0156
318.15	1	0.1826	0.0183
323.15	0	0.0343	0.0034
323.15	0.086	0.0493	0.0049
323.15	0.186	0.0668	0.0067
323.15	0.303	0.0874	0.0087
323.15	0.444	0.112	0.0112
323.15	0.615	0.142	0.0142
323.15	0.827	0.1792	0.0179
323.15	1	0.2095	0.021
328.15	0	0.0435	0.0044
328.15	0.086	0.0602	0.006
328.15	0.186	0.0796	0.008
328.15	0.303	0.1024	0.0102
328.15	0.444	0.1298	0.013
328.15	0.615	0.163	0.0163
328.15	0.827	0.2042	0.0204
328.15	1	0.2378	0.0238
