Measured thermophysical data. A Low Sensitivity Energetic Salt Based on Furazan Derivative and Melamine: Synthesis, Structure, Density Functional Theory Calculation, and Physicochemical Property
Source: J. Chem. Eng. Data, 2016, 10.1021/acs.jced.5b00458
Compound 1: carbon dioxide, CO2, InChI=1S/CO2/c2-1-3
Compound 2: nitrogen, N2, InChI=1S/N2/c1-2
Compound 3: water, H2O, InChI=1S/H2O/h1H2
Compound 4: oxygen, O2, InChI=1S/O2/c1-2
Compound 5: 4,6-diamino-1,3,5-triazin-2-aminium 5-(4-((4-(1H-tetrazol-5-yl)-1,2,5-oxadiazol-3-yl)oxy)-1,2,5-oxadiazol-3-yl)tetrazol-1-ide monohydrate, C9H10N18O4, InChI=1S/C6HN12O3.C3H6N6.H2O/c7-3(8-16-15-7)1-5(13-20-11-1)19-6-2(12-21-14-6)4-9-17-18-10-4;4-1-7-2(5)9-3(6)8-1;/h(H-,7,8,9,10,15,16,17,18);(H6,4,5,6,7,8,9);1H2/q-1;;/p+1

System: 4,6-diamino-1,3,5-triazin-2-aminium 5-(4-((4-(1H-tetrazol-5-yl)-1,2,5-oxadiazol-3-yl)oxy)-1,2,5-oxadiazol-3-yl)tetrazol-1-ide monohydrate; phases: Crystal
Property: Mass density, kg/m3 (Crystal); method: X-ray diffraction
Temperature, K	Pressure, kPa	Mass density, kg/m3	uncertainty
298.15	101.325	1673	1.2

Reaction: -1 4,6-diamino-1,3,5-triazin-2-aminium 5-(4-((4-(1H-tetrazol-5-yl)-1,2,5-oxadiazol-3-yl)oxy)-1,2,5-oxadiazol-3-yl)tetrazol-1-ide monohydrate + 9 carbon dioxide + 9 nitrogen + 5 water + -9.5 oxygen
Property: Specific internal energy of reaction at constant volume, J/g
-12686.45
