Measured thermophysical data. Vapor-Phase (p, rho, T, x) Behavior and Virial Coefficients for the Binary Mixture (0.05 Hydrogen + 0.95 Carbon Dioxide) over the Temperature Range from (273.15 to 323.15) K with Pressures up to 6 MPa
Source: J. Chem. Eng. Data, 2017, 10.1021/acs.jced.7b00213
Compound 1: hydrogen, H2, InChI=1S/H2/h1H, purity 99.999%
Compound 2: carbon dioxide, CO2, InChI=1S/CO2/c2-1-3, purity 99.9995%

System: hydrogen + carbon dioxide; phases: Gas
Fixed: Mole fraction of hydrogen = 0.05362
Property: Mass density, kg/m3 (Gas); method: Buoyancy - hydrostatic balance with magnetic suspension - two sinkers
Pressure, kPa	Temperature, K	Mass density, kg/m3	uncertainty
3035.96	273.15	71.3532	0.0438
2536.9	273.15	56.521	0.0348
2022.37	273.15	42.9575	0.0265
1524.62	273.15	31.0881	0.0193
1039.57	273.15	20.4494	0.0129
513.52	273.15	9.74868	0.00661
4984.89	293.15	121.352	0.092
4051.14	293.15	89.7154	0.0681
3016.7	293.15	61.5091	0.0461
1991.99	293.15	37.9543	0.0286
1014.6	293.15	18.2895	0.014
503.16	293.15	8.83486	0.00718
5997.37	323.15	121.561	0.092
5030.44	323.15	96.6051	0.0723
4029.43	323.15	73.5962	0.0551
3009.75	323.15	52.4905	0.0394
2031.06	323.15	34.0104	0.0257
1038.12	323.15	16.7369	0.0129
549.21	323.15	8.70026	0.00708
