Measured thermophysical data. Liquid Viscosity and Surface Tension of n-Hexane, n-Octane, n-Decane, and n-Hexadecane up to 573 K by Surface Light Scattering
Source: J. Chem. Eng. Data, 2019, 10.1021/acs.jced.9b00525
Compound 1: hexane, C6H14, InChI=1S/C6H14/c1-3-5-6-4-2/h3-6H2,1-2H3, purity 99%
Compound 2: octane, C8H18, InChI=1S/C8H18/c1-3-5-7-8-6-4-2/h3-8H2,1-2H3, purity 99%
Compound 3: decane, C10H22, InChI=1S/C10H22/c1-3-5-7-9-10-8-6-4-2/h3-10H2,1-2H3, purity 99%
Compound 4: hexadecane, C16H34, InChI=1S/C16H34/c1-3-5-7-9-11-13-15-16-14-12-10-8-6-4-2/h3-16H2,1-2H3, purity 99%

System: hexane; phases: Liquid, Gas
Property: Viscosity, Pa*s (Liquid); method: Surface laser light scattering (SLLS)
Temperature, K	Viscosity, Pa*s	uncertainty
283.15	0.0003495	1.63e-05
293.15	0.0003127	1.51e-05
303.15	0.0002809	1.43e-05
313.15	0.0002546	1.37e-05
323.15	0.000234	1.32e-05
348.15	0.0001905	1.22e-05
373.15	0.000155	1.14e-05
398.15	0.0001268	1.07e-05
423.15	0.0001026	1.01e-05
448.15	8.37e-05	9.7e-06
473.15	6.55e-05	9.3e-06

System: hexane; phases: Liquid, Gas
Property: Surface tension liquid-gas, N/m (Liquid); method: Surface laser light scattering (SLLS)
Temperature, K	Surface tension liquid-gas, N/m	uncertainty
283.15	0.01928	0.00022
293.15	0.01822	0.00017
303.15	0.01734	0.00019
313.15	0.01622	0.00021
323.15	0.01531	0.00014
348.15	0.01294	0.00012
373.15	0.01053	0.0001
398.15	0.00821	8e-05
423.15	0.00598	6e-05
448.15	0.00375	7e-05
473.15	0.00189	3e-05

System: octane; phases: Liquid, Gas
Property: Viscosity, Pa*s (Liquid); method: Surface laser light scattering (SLLS)
Temperature, K	Viscosity, Pa*s	uncertainty
283.15	0.0006247	2.25e-05
293.15	0.0005523	2.08e-05
303.15	0.0004828	1.91e-05
313.15	0.000432	1.79e-05
323.15	0.000387	1.69e-05
348.15	0.0003079	1.5e-05
373.15	0.0002487	1.36e-05
398.15	0.0002028	1.25e-05
423.15	0.0001665	1.16e-05
448.15	0.0001393	1.1e-05
473.15	0.0001168	1.05e-05
498.15	9.47e-05	1e-05
523.15	7.55e-05	9.5e-06

System: octane; phases: Liquid, Gas
Property: Surface tension liquid-gas, N/m (Liquid); method: Surface laser light scattering (SLLS)
Temperature, K	Surface tension liquid-gas, N/m	uncertainty
283.15	0.02225	0.00019
293.15	0.02131	0.00024
303.15	0.02053	0.00023
313.15	0.01945	0.00022
323.15	0.01864	0.00021
348.15	0.01637	0.00021
373.15	0.014	0.00014
398.15	0.0119	0.00012
423.15	0.00981	0.00015
448.15	0.00788	7e-05
473.15	0.00582	0.0001
498.15	0.004	0.00013
523.15	0.00232	6e-05

System: decane; phases: Liquid, Gas
Property: Viscosity, Pa*s (Liquid); method: Surface laser light scattering (SLLS)
Temperature, K	Viscosity, Pa*s	uncertainty
283.15	0.001077	3.5e-05
293.15	0.0009005	2.9e-05
303.15	0.00079	2.64e-05
313.15	0.0006924	2.47e-05
323.15	0.0006091	2.21e-05
348.15	0.0004636	1.87e-05
373.15	0.0003614	1.62e-05
398.15	0.0002895	1.45e-05
423.15	0.0002403	1.34e-05
448.15	0.0001978	1.24e-05
473.15	0.0001677	1.17e-05
498.15	0.0001366	1.09e-05
523.15	0.0001138	1.04e-05
548.15	9.74e-05	1.01e-05
573.15	7.62e-05	9.8e-06

System: decane; phases: Liquid, Gas
Property: Surface tension liquid-gas, N/m (Liquid); method: Surface laser light scattering (SLLS)
Temperature, K	Surface tension liquid-gas, N/m	uncertainty
283.15	0.02394	0.00052
293.15	0.02305	0.00057
303.15	0.02239	0.00048
313.15	0.02143	0.00046
323.15	0.02061	0.00044
348.15	0.01875	0.00039
373.15	0.01652	0.00036
398.15	0.01438	0.00031
423.15	0.0124	0.00032
448.15	0.01029	0.00022
473.15	0.00852	0.00023
498.15	0.00658	0.00016
523.15	0.00497	0.00012
548.15	0.00343	0.0001
573.15	0.00194	9e-05

System: hexadecane; phases: Liquid, Gas
Property: Viscosity, Pa*s (Liquid); method: Surface laser light scattering (SLLS)
Temperature, K	Viscosity, Pa*s	uncertainty
293.15	0.003486	0.000104
303.15	0.002772	9.5e-05
313.15	0.002261	8.1e-05
323.15	0.00184	6.1e-05
348.15	0.001236	4.7e-05
373.15	0.0008927	3e-05
398.15	0.0006788	2.38e-05
423.15	0.0005351	2.04e-05
448.15	0.0004256	1.78e-05
473.15	0.000344	1.58e-05
498.15	0.0002862	1.45e-05
523.15	0.000236	1.34e-05
548.15	0.0001937	1.26e-05
573.15	0.0001705	1.24e-05

System: hexadecane; phases: Liquid, Gas
Property: Surface tension liquid-gas, N/m (Liquid); method: Surface laser light scattering (SLLS)
Temperature, K	Surface tension liquid-gas, N/m	uncertainty
293.15	0.02738	0.00064
303.15	0.0266	0.0007
313.15	0.02556	0.00031
323.15	0.02428	0.00041
348.15	0.02219	0.00031
373.15	0.02031	0.00023
398.15	0.01854	0.00014
423.15	0.01669	0.00025
448.15	0.01509	0.00014
473.15	0.01326	0.00021
498.15	0.01146	0.00019
523.15	0.00972	0.00028
548.15	0.00825	0.00022
573.15	0.007	0.00029
