Measured thermophysical data. Solubility and Thermodynamics of Solute-Solvent Interactions of Some Amino Acids in Aqueous Sodium Bromide and Potassium Bromide Solutions
Source: J. Chem. Eng. Data, 2018, 10.1021/acs.jced.7b00647
Compound 1: 2-aminoacetic acid, C2H5NO2, InChI=1S/C2H5NO2/c3-1-2(4)5/h1,3H2,(H,4,5), purity 99.8%
Compound 2: DL-2-aminopropanoic acid, C3H7NO2, InChI=1S/C3H7NO2/c1-2(4)3(5)6/h2H,4H2,1H3,(H,5,6), purity 99.8%
Compound 3: DL-2-amino-3-methylbutanoic acid, C5H11NO2, InChI=1S/C5H11NO2/c1-3(2)4(6)5(7)8/h3-4H,6H2,1-2H3,(H,7,8), purity 99.8%
Compound 4: (.+-.)-serine, C3H7NO3, InChI=1S/C3H7NO3/c4-2(1-5)3(6)7/h2,5H,1,4H2,(H,6,7), purity 99.8%
Compound 5: potassium bromide, BrK, InChI=1S/BrH.K/h1H;/q;+1/p-1, purity 99%
Compound 6: sodium bromide, BrNa, InChI=1S/BrH.Na/h1H;/q;+1/p-1, purity 99%
Compound 7: water, H2O, InChI=1S/H2O/h1H2, purity 99.9%

System: 2-aminoacetic acid + sodium bromide + water; phases: Liquid, Crystal
Fixed: Temperature, K = 298.15
Fixed: Pressure, kPa = 100
Property: Molality, mol/kg of 2-aminoacetic acid (Liquid); method: gravimetric
Molality, mol/kg of sodium bromide	Molality, mol/kg of 2-aminoacetic acid	uncertainty
0	3.389	0.136
0.5	3.516	0.141
1	3.651	0.146
1.5	3.71	0.149
2	3.92	0.157
2.5	4.06	0.163

System: DL-2-aminopropanoic acid + sodium bromide + water; phases: Liquid, Crystal
Fixed: Temperature, K = 298.15
Fixed: Pressure, kPa = 100
Property: Molality, mol/kg of DL-2-aminopropanoic acid (Liquid); method: gravimetric
Amount concentration (molarity), mol/dm3 of sodium bromide	Molality, mol/kg of DL-2-aminopropanoic acid	uncertainty
0	1.938	0.078
0.5	2.073	0.083
1	2.208	0.089
1.5	2.364	0.095
2	2.466	0.099
2.5	2.702	0.109

System: DL-2-amino-3-methylbutanoic acid + sodium bromide + water; phases: Liquid, Crystal
Fixed: Temperature, K = 298.15
Fixed: Pressure, kPa = 100
Property: Molality, mol/kg of DL-2-amino-3-methylbutanoic acid (Liquid); method: gravimetric
Molality, mol/kg of sodium bromide	Molality, mol/kg of DL-2-amino-3-methylbutanoic acid	uncertainty
0	0.69	0.028
0.5	0.783	0.032
1	0.918	0.037
1.5	1.02	0.041
2	1.122	0.045
2.5	1.186	0.048

System: (.+-.)-serine + sodium bromide + water; phases: Liquid, Crystal
Fixed: Temperature, K = 298.15
Fixed: Pressure, kPa = 100
Property: Molality, mol/kg of (.+-.)-serine (Liquid); method: gravimetric
Molality, mol/kg of sodium bromide	Molality, mol/kg of (.+-.)-serine	uncertainty
0	0.479	0.02
0.5	0.657	0.027
1	0.792	0.032
1.5	0.975	0.04
2	1.184	0.048
2.5	1.322	0.053

System: 2-aminoacetic acid + potassium bromide + water; phases: Liquid, Crystal
Fixed: Temperature, K = 298.15
Fixed: Pressure, kPa = 100
Property: Molality, mol/kg of 2-aminoacetic acid (Liquid); method: gravimetric
Molality, mol/kg of potassium bromide	Molality, mol/kg of 2-aminoacetic acid	uncertainty
0	3.389	0.136
0.5	3.537	0.142
1	3.667	0.147
1.5	3.765	0.151
2	3.854	0.154
2.5	3.983	0.16

System: DL-2-aminopropanoic acid + potassium bromide + water; phases: Liquid, Crystal
Fixed: Temperature, K = 298.15
Fixed: Pressure, kPa = 100
Property: Molality, mol/kg of DL-2-aminopropanoic acid (Liquid); method: gravimetric
Molality, mol/kg of potassium bromide	Molality, mol/kg of DL-2-aminopropanoic acid	uncertainty
0	1.938	0.078
0.5	2.078	0.083
1	2.224	0.089
1.5	2.389	0.096
2	2.547	0.102
2.5	2.723	0.109

System: DL-2-amino-3-methylbutanoic acid + potassium bromide + water; phases: Liquid, Crystal
Fixed: Temperature, K = 298.15
Fixed: Pressure, kPa = 100
Property: Molality, mol/kg of DL-2-amino-3-methylbutanoic acid (Liquid); method: gravimetric
Molality, mol/kg of potassium bromide	Molality, mol/kg of DL-2-amino-3-methylbutanoic acid	uncertainty
0	0.69	0.028
0.5	0.804	0.033
1	0.934	0.038
1.5	1.112	0.045
2	1.246	0.05
2.5	1.328	0.053

System: (.+-.)-serine + potassium bromide + water; phases: Liquid, Crystal
Fixed: Temperature, K = 298.15
Fixed: Pressure, kPa = 100
Property: Molality, mol/kg of (.+-.)-serine (Liquid); method: gravimetric
Molality, mol/kg of potassium bromide	Molality, mol/kg of (.+-.)-serine	uncertainty
0	0.479	0.021
0.5	0.678	0.028
1	0.807	0.033
1.5	0.998	0.041
2	1.215	0.049
2.5	1.439	0.058

System: 2-aminoacetic acid + water; phases: Liquid, Crystal
Property: Molality, mol/kg of 2-aminoacetic acid (Liquid); method: gravimetric
Temperature, K	Pressure, kPa	Molality, mol/kg of 2-aminoacetic acid	uncertainty
298.15	100	3.389	0.136

System: DL-2-aminopropanoic acid + water; phases: Liquid, Crystal
Property: Molality, mol/kg of DL-2-aminopropanoic acid (Liquid); method: gravimetric
Temperature, K	Pressure, kPa	Molality, mol/kg of DL-2-aminopropanoic acid	uncertainty
298.15	100	1.938	0.078

System: DL-2-amino-3-methylbutanoic acid + water; phases: Liquid, Crystal
Property: Molality, mol/kg of DL-2-amino-3-methylbutanoic acid (Liquid); method: gravimetric
Temperature, K	Pressure, kPa	Molality, mol/kg of DL-2-amino-3-methylbutanoic acid	uncertainty
298.15	100	0.69	0.028

System: (.+-.)-serine + water; phases: Liquid, Crystal
Property: Molality, mol/kg of (.+-.)-serine (Liquid); method: gravimetric
Temperature, K	Pressure, kPa	Molality, mol/kg of (.+-.)-serine	uncertainty
298.15	100	0.479	0.019
