Measured thermophysical data. Measurement and Correlation of Phase Equilibria for Isobutyl Acetate + {Ethanol or Methanol} + Water at 303.15 and 323.15 K
Source: J. Chem. Eng. Data, 2017, 10.1021/acs.jced.6b00949
Compound 1: 2-methylpropyl ethanoate, C6H12O2, InChI=1S/C6H12O2/c1-5(2)4-8-6(3)7/h5H,4H2,1-3H3, purity 99%
Compound 2: ethanol, C2H6O, InChI=1S/C2H6O/c1-2-3/h3H,2H2,1H3, purity 99.5%
Compound 3: methanol, CH4O, InChI=1S/CH4O/c1-2/h2H,1H3, purity 99.5%
Compound 4: water, H2O, InChI=1S/H2O/h1H2, purity 99.8%

System: 2-methylpropyl ethanoate; phases: Liquid
Property: Refractive index (Na D-line) (Liquid); method: Standard Abbe refractometry
Temperature, K	Pressure, kPa	Refractive index (Na D-line)	uncertainty
293.15	101.325	1.3902	0.0025

System: 2-methylpropyl ethanoate; phases: Liquid
Property: Mass density, kg/m3 (Liquid); method: Vibrating tube method
Temperature, K	Pressure, kPa	Mass density, kg/m3	uncertainty
293.15	101.3	873.4	1.6

System: ethanol; phases: Liquid
Property: Refractive index (Na D-line) (Liquid); method: Standard Abbe refractometry
Temperature, K	Pressure, kPa	Refractive index (Na D-line)	uncertainty
293.15	101.325	1.3616	0.0025

System: ethanol; phases: Liquid
Property: Mass density, kg/m3 (Liquid); method: Vibrating tube method
Temperature, K	Pressure, kPa	Mass density, kg/m3	uncertainty
293.15	101.3	789.2	1.6

System: methanol; phases: Liquid
Property: Refractive index (Na D-line) (Liquid); method: Standard Abbe refractometry
Temperature, K	Pressure, kPa	Refractive index (Na D-line)	uncertainty
293.15	101.325	1.3285	0.0025

System: methanol; phases: Liquid
Property: Mass density, kg/m3 (Liquid); method: Vibrating tube method
Temperature, K	Pressure, kPa	Mass density, kg/m3	uncertainty
293.15	101.3	792.1	1.6

System: ethanol + 2-methylpropyl ethanoate + water; phases: Liquid mixture 2, Liquid mixture 1
Fixed: Pressure, kPa = 101.3
Property: Mole fraction of ethanol (Liquid mixture 2); method: Chromatography
Property: Mole fraction of 2-methylpropyl ethanoate (Liquid mixture 1); method: Chromatography
Property: Mole fraction of ethanol (Liquid mixture 1); method: Chromatography
Temperature, K	Mole fraction of 2-methylpropyl ethanoate	Mole fraction of ethanol	uncertainty	Mole fraction of 2-methylpropyl ethanoate	uncertainty	Mole fraction of ethanol	uncertainty
303.15	0.8848	0.0296	0.0073	0.0017	0.0017	0.0198	
303.15	0.4484	0.2713	0.0068	0.008	0.006	0.1224	
323.15	0.8714	0.0355	0.0071	0.0009	0.0009	0.0226	
323.15	0.8018	0.0797	0.0071	0.0013	0.0013	0.0451	
323.15	0.7263	0.1271	0.0072	0.0011	0.0011	0.0575	
323.15	0.6567	0.1751	0.0073	0.0015	0.0015	0.0786	
323.15	0.6178	0.1989	0.0071	0.0019	0.0019	0.0854	
323.15	0.5782	0.2204	0.0068	0.0022	0.0022	0.0936	
323.15	0.5347	0.2386	0.0068	0.0027	0.0027	0.1019	
323.15	0.4888	0.2606	0.007	0.003	0.003	0.1091	
323.15	0.3891	0.3128	0.0071	0.0051	0.0051	0.1321	
303.15	0.8347	0.0643	0.0071	0.0027	0.0027	0.037	
303.15	0.7578	0.1113	0.0071	0.0035	0.0035	0.0547	
303.15	0.6879	0.1541	0.007	0.0044	0.0044	0.0734	
303.15	0.6499	0.1738	0.0069	0.0049	0.0049	0.0826	
303.15	0.6128	0.1925	0.0069	0.0055	0.0055	0.0892	
303.15	0.5752	0.2133	0.007	0.0059	0.0059	0.0973	
303.15	0.536	0.2352	0.0068	0.0065	0.006	0.1068	

System: methanol + 2-methylpropyl ethanoate + water; phases: Liquid mixture 2, Liquid mixture 1
Fixed: Pressure, kPa = 101.3
Property: Mole fraction of methanol (Liquid mixture 2); method: Chromatography
Property: Mole fraction of 2-methylpropyl ethanoate (Liquid mixture 1); method: Chromatography
Property: Mole fraction of methanol (Liquid mixture 1); method: Chromatography
Temperature, K	Mole fraction of 2-methylpropyl ethanoate	Mole fraction of methanol	uncertainty	Mole fraction of 2-methylpropyl ethanoate	uncertainty	Mole fraction of methanol	uncertainty
303.15	0.9072	0.0207	0.0073	0.008	0.006	0.0311	
303.15	0.8731	0.0446	0.0073	0.0085	0.006	0.0647	
303.15	0.839	0.0683	0.0075	0.0084	0.006	0.0962	
303.15	0.8256	0.0802	0.0081	0.0087	0.006	0.1121	
303.15	0.8123	0.0921	0.0081	0.0074	0.006	0.1271	
303.15	0.7956	0.107	0.0073	0.0066	0.0062	0.1446	
303.15	0.7597	0.1293	0.0073	0.0177	0.0064	0.1694	
303.15	0.7228	0.1564	0.0075	0.0257	0.0062	0.1992	
323.15	0.9076	0.0182	0.0071	0.0029	0.0029	0.0381	
323.15	0.8679	0.0432	0.0072	0.0008	0.0008	0.0735	
323.15	0.8294	0.069	0.0071	0.0017	0.0017	0.1028	
323.15	0.8142	0.0756	0.0066	0.0022	0.0022	0.1133	
323.15	0.7991	0.0823	0.0071	0.0026	0.0026	0.1239	
323.15	0.7713	0.1016	0.0075	0.0051	0.0051	0.1432	
323.15	0.7324	0.1309	0.0074	0.0057	0.0057	0.1712	
323.15	0.6893	0.1603	0.0074	0.0077	0.006	0.1995	
