Measured thermophysical data. Densities, Viscosities, Refractive Indices, and Surface Tensions of Binary Mixtures of 2,2,4-Trimethylpentane with Several Alkylated Cyclohexanes from (293.15 to 343.15) K
Source: J. Chem. Eng. Data, 2015, 10.1021/acs.jced.5b00105
Compound 1: methylcyclohexane, C7H14, InChI=1S/C7H14/c1-7-5-3-2-4-6-7/h7H,2-6H2,1H3, purity 99.9%
Compound 2: ethylcyclohexane, C8H16, InChI=1S/C8H16/c1-2-8-6-4-3-5-7-8/h8H,2-7H2,1H3, purity 99.9%
Compound 3: butylcyclohexane, C10H20, InChI=1S/C10H20/c1-2-3-7-10-8-5-4-6-9-10/h10H,2-9H2,1H3, purity 99.7%
Compound 4: 2,2,4-trimethylpentane, C8H18, InChI=1S/C8H18/c1-7(2)6-8(3,4)5/h7H,6H2,1-5H3, purity 99.5%

System: methylcyclohexane; phases: Liquid
Fixed: Pressure, kPa = 100
Property: Mass density, kg/m3 (Liquid); method: Vibrating tube method
Temperature, K	Mass density, kg/m3	uncertainty
293.15	769.35	0.15
298.15	765.05	0.15
303.15	760.71	0.15
308.15	756.37	0.15
313.15	752	0.16
318.15	747.58	0.16
323.15	743.17	0.16
333.15	734.29	0.16
343.15	725.31	0.16

System: methylcyclohexane; phases: Liquid
Fixed: Pressure, kPa = 100
Property: Viscosity, Pa*s (Liquid); method: Concentric cylinders viscometry
Temperature, K	Viscosity, Pa*s	uncertainty
293.15	0.000735	0.000118
298.15	0.000692	0.000111
303.15	0.000651	0.000104
308.15	0.000615	9.9e-05
313.15	0.00058	9.3e-05
318.15	0.000549	8.8e-05
323.15	0.000522	8.4e-05
333.15	0.000476	7.6e-05
343.15	0.000439	7e-05

System: methylcyclohexane; phases: Liquid
Fixed: Pressure, kPa = 100
Property: Refractive index (Na D-line) (Liquid); method: ABBE:UFactor:4
Temperature, K	Refractive index (Na D-line)	uncertainty
293.15	1.4232	0.0015
298.15	1.4199	0.0015
303.15	1.419	0.0015
308.15	1.4168	0.0015
313.15	1.415	0.0015
318.15	1.4102	0.0015
323.15	1.4078	0.0015

System: methylcyclohexane; phases: Liquid, Air at 1 atmosphere
Property: Surface tension liquid-gas, N/m (Liquid); method: Drop volume
Temperature, K	Surface tension liquid-gas, N/m	uncertainty
293.15	0.02387	0.00024
298.15	0.02302	0.00024
308.15	0.02212	0.00024
303.15	0.02255	0.00024

System: ethylcyclohexane; phases: Liquid
Fixed: Pressure, kPa = 100
Property: Mass density, kg/m3 (Liquid); method: Vibrating tube method
Temperature, K	Mass density, kg/m3	uncertainty
293.15	787.98	0.15
298.15	783.97	0.15
303.15	779.93	0.15
308.15	775.88	0.15
313.15	771.82	0.15
318.15	767.69	0.15
323.15	763.59	0.15
333.15	755.35	0.15
343.15	747.03	0.16

System: ethylcyclohexane; phases: Liquid
Fixed: Pressure, kPa = 100
Property: Viscosity, Pa*s (Liquid); method: Concentric cylinders viscometry
Temperature, K	Viscosity, Pa*s	uncertainty
293.15	0.000848	0.000136
298.15	0.000793	0.000127
303.15	0.000745	0.000119
308.15	0.000702	0.000112
313.15	0.000663	0.000106
318.15	0.000628	0.000101
323.15	0.000597	9.6e-05
333.15	0.000541	8.7e-05
343.15	0.000496	8e-05

System: ethylcyclohexane; phases: Liquid
Fixed: Pressure, kPa = 100
Property: Refractive index (Na D-line) (Liquid); method: ABBE:UFactor:4
Temperature, K	Refractive index (Na D-line)	uncertainty
293.15	1.4337	0.0015
298.15	1.4301	0.0015
303.15	1.4295	0.0015
308.15	1.4278	0.0015
313.15	1.4259	0.0015
318.15	1.4204	0.0015
323.15	1.4187	0.0015

System: ethylcyclohexane; phases: Liquid, Air at 1 atmosphere
Property: Surface tension liquid-gas, N/m (Liquid); method: Drop volume
Temperature, K	Surface tension liquid-gas, N/m	uncertainty
293.15	0.02547	0.00024
298.15	0.02476	0.00024
308.15	0.02374	0.00024
303.15	0.02455	0.00024

System: butylcyclohexane; phases: Liquid
Fixed: Pressure, kPa = 100
Property: Mass density, kg/m3 (Liquid); method: Vibrating tube method
Temperature, K	Mass density, kg/m3	uncertainty
293.15	799.37	0.15
298.15	795.63	0.15
303.15	791.88	0.15
308.15	788.12	0.15
313.15	784.35	0.15
318.15	780.49	0.15
323.15	776.7	0.16
333.15	769.09	0.16
343.15	761.43	0.16

System: butylcyclohexane; phases: Liquid
Fixed: Pressure, kPa = 100
Property: Viscosity, Pa*s (Liquid); method: Concentric cylinders viscometry
Temperature, K	Viscosity, Pa*s	uncertainty
293.15	0.001304	0.000209
298.15	0.001199	0.000192
303.15	0.001109	0.000178
308.15	0.001031	0.000165
313.15	0.000961	0.000154
318.15	0.0009	0.000144
323.15	0.000844	0.000135
333.15	0.000749	0.00012
343.15	0.000671	0.000108

System: butylcyclohexane; phases: Liquid
Fixed: Pressure, kPa = 100
Property: Refractive index (Na D-line) (Liquid); method: ABBE:UFactor:4
Temperature, K	Refractive index (Na D-line)	uncertainty
293.15	1.4403	0.0015
298.15	1.4377	0.0015
303.15	1.4355	0.0015
308.15	1.4333	0.0015
313.15	1.4314	0.0015
318.15	1.429	0.0015
323.15	1.4268	0.0015

System: butylcyclohexane; phases: Liquid, Air at 1 atmosphere
Property: Surface tension liquid-gas, N/m (Liquid); method: Drop volume
Temperature, K	Surface tension liquid-gas, N/m	uncertainty
293.15	0.02681	0.00025
298.15	0.02587	0.00024
308.15	0.02473	0.00024
303.15	0.02549	0.00024

System: 2,2,4-trimethylpentane; phases: Liquid
Fixed: Pressure, kPa = 100
Property: Mass density, kg/m3 (Liquid); method: Vibrating tube method
Temperature, K	Mass density, kg/m3	uncertainty
293.15	691.91	0.19
298.15	687.82	0.19
303.15	683.68	0.19
308.15	679.51	0.19
313.15	675.32	0.19
318.15	671.05	0.19
323.15	666.8	0.2
333.15	658.2	0.2
343.15	649.44	0.2

System: 2,2,4-trimethylpentane; phases: Liquid
Fixed: Pressure, kPa = 100
Property: Viscosity, Pa*s (Liquid); method: Concentric cylinders viscometry
Temperature, K	Viscosity, Pa*s	uncertainty
293.15	0.000518	8.3e-05
298.15	0.000493	7.9e-05
303.15	0.00047	7.5e-05
308.15	0.000449	7.2e-05
313.15	0.00043	6.9e-05
318.15	0.000414	6.6e-05
323.15	0.000398	6.4e-05
333.15	0.000371	6e-05
343.15	0.000348	5.6e-05

System: 2,2,4-trimethylpentane; phases: Liquid
Fixed: Pressure, kPa = 100
Property: Refractive index (Na D-line) (Liquid); method: ABBE:UFactor:4
Temperature, K	Refractive index (Na D-line)	uncertainty
293.15	1.3921	0.0015
298.15	1.3886	0.0015
303.15	1.3876	0.0015
308.15	1.3848	0.0015
313.15	1.3833	0.0015
318.15	1.3785	0.0015
323.15	1.376	0.0015

System: 2,2,4-trimethylpentane; phases: Liquid, Air at 1 atmosphere
Property: Surface tension liquid-gas, N/m (Liquid); method: Drop volume
Temperature, K	Surface tension liquid-gas, N/m	uncertainty
293.15	0.01894	0.00024
298.15	0.01839	0.00024
308.15	0.01758	0.00023
303.15	0.01799	0.00024

System: methylcyclohexane + 2,2,4-trimethylpentane; phases: Liquid
Fixed: Pressure, kPa = 100
Property: Mass density, kg/m3 (Liquid); method: Vibrating tube method
Temperature, K	Mole fraction of methylcyclohexane	Mass density, kg/m3	uncertainty
293.15	0	691.91	0.19
293.15	0.1012	698.32	0.19
293.15	0.2003	704.87	0.18
293.15	0.3001	711.73	0.18
293.15	0.4019	719.01	0.17
293.15	0.5008	726.4	0.17
293.15	0.6	734.15	0.17
293.15	0.6998	742.32	0.16
293.15	0.8	750.91	0.16
293.15	0.9	759.88	0.16
293.15	1	769.35	0.15
298.15	0	687.82	0.19
298.15	0.1012	694.22	0.19
298.15	0.2003	700.73	0.18
298.15	0.3001	707.58	0.18
298.15	0.4019	714.85	0.17
298.15	0.5008	722.23	0.17
298.15	0.6	729.96	0.17
298.15	0.6998	738.11	0.16
298.15	0.8	746.67	0.16
298.15	0.9	755.61	0.16
298.15	1	765.05	0.15
303.15	0	683.68	0.19
303.15	0.1012	690.06	0.19
303.15	0.2003	696.57	0.18
303.15	0.3001	703.4	0.18
303.15	0.4019	710.66	0.18
303.15	0.5008	718.01	0.17
303.15	0.6	725.72	0.17
303.15	0.6998	733.85	0.16
303.15	0.8	742.38	0.16
303.15	0.9	751.3	0.16
303.15	1	760.71	0.15
308.15	0	679.51	0.19
308.15	0.1012	685.89	0.19
308.15	0.2003	692.38	0.18
308.15	0.3001	699.2	0.18
308.15	0.4019	706.44	0.18
308.15	0.5008	713.78	0.17
308.15	0.6	721.47	0.17
308.15	0.6998	729.57	0.17
308.15	0.8	738.08	0.16
308.15	0.9	746.98	0.16
308.15	1	756.37	0.15
313.15	0	675.32	0.19
313.15	0.1012	681.69	0.19
313.15	0.2003	688.17	0.19
313.15	0.3001	694.97	0.18
313.15	0.4019	702.2	0.18
313.15	0.5008	709.52	0.17
313.15	0.6	717.19	0.17
313.15	0.6998	725.27	0.17
313.15	0.8	733.75	0.16
313.15	0.9	742.63	0.16
313.15	1	752	0.16
318.15	0	671.05	0.19
318.15	0.1012	677.34	0.19
318.15	0.2003	683.85	0.19
318.15	0.3001	690.64	0.18
318.15	0.4019	697.75	0.18
318.15	0.5008	705.13	0.17
318.15	0.6	712.85	0.17
318.15	0.6998	720.93	0.17
318.15	0.8	729.36	0.16
318.15	0.9	738.24	0.16
318.15	1	747.58	0.16
323.15	0	666.8	0.2
323.15	0.1012	673.08	0.19
323.15	0.2003	679.58	0.19
323.15	0.3001	686.35	0.18
323.15	0.4019	693.44	0.18
323.15	0.5008	700.81	0.18
323.15	0.6	708.52	0.17
323.15	0.6998	716.59	0.17
323.15	0.8	725.08	0.17
323.15	0.9	733.86	0.16
323.15	1	743.17	0.16
333.15	0	658.2	0.2
333.15	0.1012	664.46	0.19
333.15	0.2003	670.92	0.19
333.15	0.3001	677.66	0.19
333.15	0.4019	684.72	0.18
333.15	0.5008	692.07	0.18
333.15	0.6	699.74	0.17
333.15	0.6998	707.79	0.17
333.15	0.8	716.25	0.17
333.15	0.9	725.03	0.16
333.15	1	734.29	0.16
343.15	0	649.44	0.2
343.15	0.1012	655.69	0.2
343.15	0.2003	662.12	0.19
343.15	0.3001	668.84	0.19
343.15	0.4019	675.87	0.18
343.15	0.5008	683.23	0.18
343.15	0.6	690.9	0.18
343.15	0.6998	698.9	0.17
343.15	0.8	707.33	0.17
343.15	0.9	716.08	0.17
343.15	1	725.31	0.16

System: methylcyclohexane + 2,2,4-trimethylpentane; phases: Liquid
Fixed: Pressure, kPa = 100
Property: Viscosity, Pa*s (Liquid); method: Concentric cylinders viscometry
Temperature, K	Mole fraction of methylcyclohexane	Viscosity, Pa*s	uncertainty
293.15	0	0.000518	8.3e-05
293.15	0.1012	0.000532	8.5e-05
293.15	0.2003	0.000546	8.8e-05
293.15	0.3001	0.000562	9e-05
293.15	0.4019	0.00058	9.3e-05
293.15	0.5008	0.000599	9.6e-05
293.15	0.6	0.00062	9.9e-05
293.15	0.6998	0.000644	0.000103
293.15	0.8	0.000671	0.000108
293.15	0.9	0.000701	0.000112
293.15	1	0.000735	0.000118
298.15	0	0.000493	7.9e-05
298.15	0.1012	0.000506	8.1e-05
298.15	0.2003	0.000519	8.3e-05
298.15	0.3001	0.000533	8.5e-05
298.15	0.4019	0.000549	8.8e-05
298.15	0.5008	0.000566	9.1e-05
298.15	0.6	0.000585	9.4e-05
298.15	0.6998	0.000606	9.7e-05
298.15	0.8	0.000631	0.000101
298.15	0.9	0.00066	0.000106
298.15	1	0.000692	0.000111
303.15	0	0.00047	7.5e-05
303.15	0.1012	0.000482	7.7e-05
303.15	0.2003	0.000494	7.9e-05
303.15	0.3001	0.000507	8.1e-05
303.15	0.4019	0.000521	8.4e-05
303.15	0.5008	0.000537	8.6e-05
303.15	0.6	0.000554	8.9e-05
303.15	0.6998	0.000573	9.2e-05
303.15	0.8	0.000595	9.5e-05
303.15	0.9	0.000621	0.0001
303.15	1	0.000651	0.000104
308.15	0	0.000449	7.2e-05
308.15	0.1012	0.00046	7.4e-05
308.15	0.2003	0.000471	7.6e-05
308.15	0.3001	0.000483	7.7e-05
308.15	0.4019	0.000496	8e-05
308.15	0.5008	0.00051	8.2e-05
308.15	0.6	0.000525	8.4e-05
308.15	0.6998	0.000543	8.7e-05
308.15	0.8	0.000564	9e-05
308.15	0.9	0.000587	9.4e-05
308.15	1	0.000615	9.9e-05
313.15	0	0.00043	6.9e-05
313.15	0.1012	0.00044	7.1e-05
313.15	0.2003	0.00045	7.2e-05
313.15	0.3001	0.000461	7.4e-05
313.15	0.4019	0.000473	7.6e-05
313.15	0.5008	0.000486	7.8e-05
313.15	0.6	0.0005	8e-05
313.15	0.6998	0.000516	8.3e-05
313.15	0.8	0.000535	8.6e-05
313.15	0.9	0.000556	8.9e-05
313.15	1	0.00058	9.3e-05
318.15	0	0.000414	6.6e-05
318.15	0.1012	0.000422	6.8e-05
318.15	0.2003	0.000432	6.9e-05
318.15	0.3001	0.000443	7.1e-05
318.15	0.4019	0.000453	7.3e-05
318.15	0.5008	0.000465	7.5e-05
318.15	0.6	0.000478	7.7e-05
318.15	0.6998	0.000493	7.9e-05
318.15	0.8	0.000509	8.2e-05
318.15	0.9	0.000528	8.5e-05
318.15	1	0.000549	8.8e-05
323.15	0	0.000398	6.4e-05
323.15	0.1012	0.000406	6.5e-05
323.15	0.2003	0.000415	6.7e-05
323.15	0.3001	0.000426	6.8e-05
323.15	0.4019	0.000435	7e-05
323.15	0.5008	0.000446	7.2e-05
323.15	0.6	0.000458	7.3e-05
323.15	0.6998	0.000471	7.6e-05
323.15	0.8	0.000486	7.8e-05
323.15	0.9	0.000503	8.1e-05
323.15	1	0.000522	8.4e-05
333.15	0	0.000371	6e-05
333.15	0.1012	0.000378	6.1e-05
333.15	0.2003	0.000386	6.2e-05
333.15	0.3001	0.000395	6.3e-05
333.15	0.4019	0.000402	6.4e-05
333.15	0.5008	0.000411	6.6e-05
333.15	0.6	0.000421	6.8e-05
333.15	0.6998	0.000433	6.9e-05
333.15	0.8	0.000445	7.1e-05
333.15	0.9	0.00046	7.4e-05
333.15	1	0.000476	7.6e-05
343.15	0	0.000348	5.6e-05
343.15	0.1012	0.000355	5.7e-05
343.15	0.2003	0.000361	5.8e-05
343.15	0.3001	0.000368	5.9e-05
343.15	0.4019	0.000375	6e-05
343.15	0.5008	0.000383	6.1e-05
343.15	0.6	0.000391	6.3e-05
343.15	0.6998	0.000401	6.4e-05
343.15	0.8	0.000411	6.6e-05
343.15	0.9	0.000424	6.8e-05
343.15	1	0.000439	7e-05

System: methylcyclohexane + 2,2,4-trimethylpentane; phases: Liquid
Fixed: Pressure, kPa = 100
Property: Refractive index (Na D-line) (Liquid); method: ABBE:UFactor:4
Temperature, K	Mole fraction of methylcyclohexane	Refractive index (Na D-line)	uncertainty
293.15	0	1.3921	0.0015
293.15	0.1012	1.395	0.0015
293.15	0.2003	1.3975	0.0015
293.15	0.3001	1.4	0.0015
293.15	0.4019	1.403	0.0015
293.15	0.5008	1.406	0.0015
293.15	0.6	1.409	0.0015
293.15	0.6998	1.4125	0.0015
293.15	0.8	1.4158	0.0015
293.15	0.9	1.4195	0.0015
293.15	1	1.4232	0.0015
298.15	0	1.3886	0.0015
298.15	0.0999	1.3912	0.0015
298.15	0.1999	1.3938	0.0015
298.15	0.2997	1.3966	0.0015
298.15	0.4	1.3997	0.0015
298.15	0.5	1.4028	0.0015
298.15	0.6	1.4059	0.0015
298.15	0.7001	1.4092	0.0015
298.15	0.7999	1.4127	0.0015
298.15	0.9	1.4161	0.0015
298.15	1	1.4199	0.0015
303.15	0	1.3876	0.0015
303.15	0.1012	1.3903	0.0015
303.15	0.2003	1.3929	0.0015
303.15	0.3001	1.3958	0.0015
303.15	0.4019	1.3988	0.0015
303.15	0.5008	1.4018	0.0015
303.15	0.6	1.4049	0.0015
303.15	0.6998	1.4082	0.0015
303.15	0.8	1.4117	0.0015
303.15	0.9	1.4153	0.0015
303.15	1	1.419	0.0015
308.15	0	1.3848	0.0015
308.15	0.0999	1.3876	0.0015
308.15	0.1999	1.3902	0.0015
308.15	0.2997	1.3942	0.0015
308.15	0.4	1.3962	0.0015
308.15	0.5	1.3998	0.0015
308.15	0.6	1.4029	0.0015
308.15	0.7001	1.4064	0.0015
308.15	0.7999	1.4097	0.0015
308.15	0.9	1.4132	0.0015
308.15	1	1.4168	0.0015
313.15	0	1.3833	0.0015
313.15	0.1012	1.3861	0.0015
313.15	0.2003	1.3887	0.0015
313.15	0.3001	1.3916	0.0015
313.15	0.4019	1.3947	0.0015
313.15	0.5008	1.3978	0.0015
313.15	0.6	1.401	0.0015
313.15	0.6998	1.4043	0.0015
313.15	0.8	1.4077	0.0015
313.15	0.9	1.4114	0.0015
313.15	1	1.415	0.0015
318.15	0	1.3785	0.0015
318.15	0.0999	1.3811	0.0015
318.15	0.1999	1.3844	0.0015
318.15	0.2997	1.3871	0.0015
318.15	0.4	1.3898	0.0015
318.15	0.5	1.393	0.0015
318.15	0.6	1.3962	0.0015
318.15	0.7001	1.3993	0.0015
318.15	0.7999	1.403	0.0015
318.15	0.9	1.4066	0.0015
318.15	1	1.4102	0.0015
323.15	0	1.376	0.0015
323.15	0.0999	1.3789	0.0015
323.15	0.1999	1.3819	0.0015
323.15	0.2997	1.3846	0.0015
323.15	0.4	1.3869	0.0015
323.15	0.5	1.3905	0.0015
323.15	0.6	1.3938	0.0015
323.15	0.7001	1.397	0.0015
323.15	0.7999	1.4	0.0015
323.15	0.9	1.4039	0.0015
323.15	1	1.4078	0.0015

System: methylcyclohexane + 2,2,4-trimethylpentane; phases: Liquid, Air at 1 atmosphere
Property: Surface tension liquid-gas, N/m (Liquid); method: Drop volume
Mole fraction of methylcyclohexane	Temperature, K	Surface tension liquid-gas, N/m	uncertainty
0	293.15	0.01894	0.00024
0.0999	293.15	0.01934	0.00024
0.1999	293.15	0.01977	0.00024
0.2997	293.15	0.02013	0.00024
0.4	293.15	0.02054	0.00024
0.5	293.15	0.02099	0.00024
0.6	293.15	0.02152	0.00024
0.7001	293.15	0.0221	0.00024
0.7999	293.15	0.02264	0.00024
0.9	293.15	0.02329	0.00024
1	293.15	0.02387	0.00024
0	298.15	0.01839	0.00024
0.0999	298.15	0.01875	0.00024
0.1999	298.15	0.0191	0.00024
0.2997	298.15	0.01944	0.00024
0.4	298.15	0.01984	0.00024
0.5	298.15	0.0202	0.00024
0.6	298.15	0.02069	0.00024
0.7001	298.15	0.02126	0.00024
0.7999	298.15	0.02181	0.00024
0.9	298.15	0.02241	0.00024
1	298.15	0.02302	0.00024
0	308.15	0.01758	0.00023
0.0999	308.15	0.01784	0.00023
0.1999	308.15	0.01812	0.00023
0.2997	308.15	0.01843	0.00023
0.4	308.15	0.0188	0.00023
0.5	308.15	0.01919	0.00023
0.6	308.15	0.01964	0.00023
0.7001	308.15	0.02023	0.00023
0.7999	308.15	0.02075	0.00024
0.9	308.15	0.02144	0.00024
1	308.15	0.02212	0.00024
0	303.15	0.01799	0.00024
0.0999	303.15	0.01832	0.00024
0.1999	303.15	0.01862	0.00023
0.2997	303.15	0.01899	0.00023
0.4	303.15	0.01938	0.00023
0.5	303.15	0.01973	0.00023
0.6	303.15	0.02021	0.00024
0.7001	303.15	0.02072	0.00024
0.7999	303.15	0.02132	0.00024
0.9	303.15	0.02192	0.00024
1	303.15	0.02255	0.00024

System: 2,2,4-trimethylpentane + ethylcyclohexane; phases: Liquid
Fixed: Pressure, kPa = 100
Property: Mass density, kg/m3 (Liquid); method: Vibrating tube method
Temperature, K	Mole fraction of ethylcyclohexane	Mass density, kg/m3	uncertainty
293.15	0	691.91	0.19
293.15	0.1	700.76	0.19
293.15	0.2	709.8	0.18
293.15	0.3003	719.07	0.18
293.15	0.3997	728.38	0.17
293.15	0.5002	737.96	0.17
293.15	0.6005	747.68	0.16
293.15	0.7002	757.5	0.16
293.15	0.8003	767.49	0.15
293.15	0.8997	777.58	0.15
293.15	1	787.98	0.15
298.15	0	687.82	0.19
298.15	0.1	696.71	0.19
298.15	0.2	705.71	0.18
298.15	0.3003	715.02	0.18
298.15	0.3997	724.34	0.17
298.15	0.5002	733.9	0.17
298.15	0.6005	743.64	0.16
298.15	0.7002	753.47	0.16
298.15	0.8003	763.46	0.16
298.15	0.8997	773.57	0.15
298.15	1	783.97	0.15
303.15	0	683.68	0.19
303.15	0.1	692.57	0.19
303.15	0.2	701.62	0.18
303.15	0.3003	710.92	0.18
303.15	0.3997	720.25	0.17
303.15	0.5002	729.84	0.17
303.15	0.6005	739.57	0.16
303.15	0.7002	749.4	0.16
303.15	0.8003	759.41	0.16
303.15	0.8997	769.52	0.15
303.15	1	779.93	0.15
308.15	0	679.51	0.19
308.15	0.1	688.43	0.19
308.15	0.2	697.49	0.18
308.15	0.3003	706.8	0.18
308.15	0.3997	716.14	0.17
308.15	0.5002	725.74	0.17
308.15	0.6005	735.47	0.17
308.15	0.7002	745.32	0.16
308.15	0.8003	755.35	0.16
308.15	0.8997	765.46	0.15
308.15	1	775.88	0.15
313.15	0	675.32	0.19
313.15	0.1012	684.26	0.19
313.15	0.2003	693.35	0.18
313.15	0.3001	702.64	0.18
313.15	0.4019	712.01	0.18
313.15	0.5008	721.61	0.17
313.15	0.6	731.36	0.17
313.15	0.6998	741.23	0.16
313.15	0.8	751.26	0.16
313.15	0.9	761.39	0.16
313.15	1	771.82	0.15
318.15	0	671.05	0.19
318.15	0.1012	680.05	0.19
318.15	0.2003	689.16	0.19
318.15	0.3001	698.38	0.18
318.15	0.4019	707.8	0.18
318.15	0.5008	717.38	0.17
318.15	0.6	727.09	0.17
318.15	0.6998	737.02	0.16
318.15	0.8	747.05	0.16
318.15	0.9	757.21	0.16
318.15	1	767.69	0.15
323.15	0	666.8	0.2
323.15	0.1012	675.82	0.19
323.15	0.2003	684.95	0.19
323.15	0.3001	694.19	0.18
323.15	0.4019	703.63	0.18
323.15	0.5008	713.22	0.17
323.15	0.6	722.95	0.17
323.15	0.6998	732.88	0.16
323.15	0.8	742.93	0.16
323.15	0.9	753.1	0.16
323.15	1	763.59	0.15
333.15	0	658.2	0.2
333.15	0.1012	667.27	0.19
333.15	0.2003	676.43	0.19
333.15	0.3001	685.73	0.18
333.15	0.4019	695.2	0.18
333.15	0.5008	704.82	0.18
333.15	0.6	714.58	0.17
333.15	0.6998	724.55	0.17
333.15	0.8	734.62	0.16
333.15	0.9	744.81	0.16
333.15	1	755.35	0.15
343.15	0	649.44	0.2
343.15	0.1012	658.57	0.2
343.15	0.2003	667.78	0.19
343.15	0.3001	677.13	0.19
343.15	0.4019	686.64	0.18
343.15	0.5008	696.31	0.18
343.15	0.6	706.12	0.17
343.15	0.6998	716.12	0.17
343.15	0.8	726.23	0.17
343.15	0.9	736.46	0.16
343.15	1	747.03	0.16

System: 2,2,4-trimethylpentane + ethylcyclohexane; phases: Liquid
Fixed: Pressure, kPa = 100
Property: Viscosity, Pa*s (Liquid); method: Concentric cylinders viscometry
Temperature, K	Mole fraction of ethylcyclohexane	Viscosity, Pa*s	uncertainty
293.15	0	0.000518	8.3e-05
293.15	0.1	0.00054	8.7e-05
293.15	0.2	0.000565	9.1e-05
293.15	0.3003	0.000591	9.5e-05
293.15	0.3997	0.000619	9.9e-05
293.15	0.5002	0.00065	0.000104
293.15	0.6005	0.000684	0.00011
293.15	0.7002	0.000719	0.000115
293.15	0.8003	0.000758	0.000121
293.15	0.8997	0.000801	0.000128
293.15	1	0.000848	0.000136
298.15	0	0.000493	7.9e-05
298.15	0.1	0.000513	8.2e-05
298.15	0.2	0.000536	8.6e-05
298.15	0.3003	0.00056	9e-05
298.15	0.3997	0.000586	9.4e-05
298.15	0.5002	0.000613	9.8e-05
298.15	0.6005	0.000644	0.000103
298.15	0.7002	0.000677	0.000108
298.15	0.8003	0.000712	0.000114
298.15	0.8997	0.000751	0.00012
298.15	1	0.000793	0.000127
303.15	0	0.00047	7.5e-05
303.15	0.1	0.000489	7.8e-05
303.15	0.2	0.000509	8.2e-05
303.15	0.3003	0.000531	8.5e-05
303.15	0.3997	0.000555	8.9e-05
303.15	0.5002	0.000581	9.3e-05
303.15	0.6005	0.000609	9.8e-05
303.15	0.7002	0.000638	0.000102
303.15	0.8003	0.000671	0.000108
303.15	0.8997	0.000706	0.000113
303.15	1	0.000745	0.000119
308.15	0	0.000449	7.2e-05
308.15	0.1	0.000466	7.5e-05
308.15	0.2	0.000485	7.8e-05
308.15	0.3003	0.000505	8.1e-05
308.15	0.3997	0.000527	8.4e-05
308.15	0.5002	0.00055	8.8e-05
308.15	0.6005	0.000577	9.2e-05
308.15	0.7002	0.000604	9.7e-05
308.15	0.8003	0.000634	0.000102
308.15	0.8997	0.000666	0.000107
308.15	1	0.000702	0.000112
313.15	0	0.00043	6.9e-05
313.15	0.1	0.000446	7.2e-05
313.15	0.2	0.000464	7.4e-05
313.15	0.3003	0.000482	7.7e-05
313.15	0.3997	0.000503	8.1e-05
313.15	0.5002	0.000524	8.4e-05
313.15	0.6005	0.000548	8.8e-05
313.15	0.7002	0.000573	9.2e-05
313.15	0.8003	0.000601	9.6e-05
313.15	0.8997	0.00063	0.000101
313.15	1	0.000663	0.000106
318.15	0	0.000414	6.6e-05
318.15	0.1	0.000429	6.9e-05
318.15	0.2	0.000445	7.1e-05
318.15	0.3003	0.000461	7.4e-05
318.15	0.3997	0.000481	7.7e-05
318.15	0.5002	0.0005	8e-05
318.15	0.6005	0.000522	8.4e-05
318.15	0.7002	0.000548	8.8e-05
318.15	0.8003	0.000573	9.2e-05
318.15	0.8997	0.000598	9.6e-05
318.15	1	0.000628	0.000101
323.15	0	0.000398	6.4e-05
323.15	0.1	0.000412	6.6e-05
323.15	0.2	0.000427	6.8e-05
323.15	0.3003	0.000442	7.1e-05
323.15	0.3997	0.00046	7.4e-05
323.15	0.5002	0.000478	7.7e-05
323.15	0.6005	0.000499	8e-05
323.15	0.7002	0.000522	8.4e-05
323.15	0.8003	0.000546	8.8e-05
323.15	0.8997	0.000569	9.1e-05
323.15	1	0.000597	9.6e-05
333.15	0	0.000371	6e-05
333.15	0.1	0.000383	6.1e-05
333.15	0.2	0.000396	6.4e-05
333.15	0.3003	0.000409	6.6e-05
333.15	0.3997	0.000425	6.8e-05
333.15	0.5002	0.00044	7.1e-05
333.15	0.6005	0.000457	7.3e-05
333.15	0.7002	0.000478	7.7e-05
333.15	0.8003	0.000498	8e-05
333.15	0.8997	0.000518	8.3e-05
333.15	1	0.000541	8.7e-05
343.15	0	0.000348	5.6e-05
343.15	0.1	0.000358	5.7e-05
343.15	0.2	0.000369	5.9e-05
343.15	0.3003	0.00038	6.1e-05
343.15	0.3997	0.000395	6.3e-05
343.15	0.5002	0.000408	6.5e-05
343.15	0.6005	0.000423	6.8e-05
343.15	0.7002	0.000441	7.1e-05
343.15	0.8003	0.000458	7.3e-05
343.15	0.8997	0.000476	7.6e-05
343.15	1	0.000496	8e-05

System: 2,2,4-trimethylpentane + ethylcyclohexane; phases: Liquid
Fixed: Pressure, kPa = 100
Property: Refractive index (Na D-line) (Liquid); method: ABBE:UFactor:4
Temperature, K	Mole fraction of ethylcyclohexane	Refractive index (Na D-line)	uncertainty
293.15	0	1.3921	0.0015
293.15	0.1	1.3959	0.0015
293.15	0.2	1.4005	0.0015
293.15	0.3003	1.4043	0.0015
293.15	0.3997	1.4084	0.0015
293.15	0.5002	1.4123	0.0015
293.15	0.6005	1.4167	0.0015
293.15	0.7002	1.4207	0.0015
293.15	0.8003	1.4254	0.0015
293.15	0.8997	1.4295	0.0015
293.15	1	1.4337	0.0015
298.15	0	1.3886	0.0015
298.15	0.1	1.3926	0.0015
298.15	0.1999	1.3965	0.0015
298.15	0.3	1.4004	0.0015
298.15	0.4	1.4046	0.0015
298.15	0.5	1.4086	0.0015
298.15	0.6001	1.4129	0.0015
298.15	0.7004	1.4172	0.0015
298.15	0.8001	1.4214	0.0015
298.15	0.8994	1.4256	0.0015
298.15	1	1.4301	0.0015
303.15	0	1.3876	0.0015
303.15	0.1	1.3918	0.0015
303.15	0.2	1.3964	0.0015
303.15	0.3003	1.4003	0.0015
303.15	0.3997	1.4041	0.0015
303.15	0.5002	1.4084	0.0015
303.15	0.6005	1.4125	0.0015
303.15	0.7002	1.4169	0.0015
303.15	0.8003	1.4211	0.0015
303.15	0.8997	1.4253	0.0015
303.15	1	1.4295	0.0015
308.15	0	1.3848	0.0015
308.15	0.1	1.3889	0.0015
308.15	0.1999	1.3932	0.0015
308.15	0.3	1.3975	0.0015
308.15	0.4	1.4015	0.0015
308.15	0.5	1.4059	0.0015
308.15	0.6001	1.4098	0.0015
308.15	0.7004	1.4146	0.0015
308.15	0.8001	1.4186	0.0015
308.15	0.8994	1.4228	0.0015
308.15	1	1.4278	0.0015
313.15	0	1.3833	0.0015
313.15	0.1	1.3877	0.0015
313.15	0.2	1.3924	0.0015
313.15	0.3003	1.396	0.0015
313.15	0.3997	1.4003	0.0015
313.15	0.5002	1.4047	0.0015
313.15	0.6005	1.4087	0.0015
313.15	0.7002	1.4132	0.0015
313.15	0.8003	1.4175	0.0015
313.15	0.8997	1.4216	0.0015
313.15	1	1.4259	0.0015
318.15	0	1.3785	0.0015
318.15	0.1	1.3826	0.0015
318.15	0.1999	1.3867	0.0015
318.15	0.3	1.3912	0.0015
318.15	0.4	1.3954	0.0015
318.15	0.5	1.3996	0.0015
318.15	0.6001	1.4037	0.0015
318.15	0.7004	1.4081	0.0015
318.15	0.8001	1.4118	0.0015
318.15	0.8994	1.4161	0.0015
318.15	1	1.4204	0.0015
323.15	0	1.376	0.0015
323.15	0.1	1.3805	0.0015
323.15	0.1999	1.3849	0.0015
323.15	0.3	1.3891	0.0015
323.15	0.4	1.3931	0.0015
323.15	0.5	1.3975	0.0015
323.15	0.6001	1.4015	0.0015
323.15	0.7004	1.4059	0.0015
323.15	0.8001	1.4097	0.0015
323.15	0.8994	1.4144	0.0015
323.15	1	1.4187	0.0015

System: 2,2,4-trimethylpentane + ethylcyclohexane; phases: Liquid, Air at 1 atmosphere
Property: Surface tension liquid-gas, N/m (Liquid); method: Drop volume
Mole fraction of ethylcyclohexane	Temperature, K	Surface tension liquid-gas, N/m	uncertainty
0	293.15	0.01894	0.00024
0.1	293.15	0.01951	0.00024
0.1999	293.15	0.01999	0.00024
0.3	293.15	0.02057	0.00024
0.4	293.15	0.02113	0.00024
0.5	293.15	0.02174	0.00024
0.6001	293.15	0.02244	0.00024
0.7004	293.15	0.02316	0.00024
0.8001	293.15	0.024	0.00024
0.8994	293.15	0.02475	0.00024
1	293.15	0.02547	0.00024
0	298.15	0.01839	0.00024
0.1	298.15	0.01891	0.00024
0.1999	298.15	0.01938	0.00024
0.3	298.15	0.01988	0.00024
0.4	298.15	0.0204	0.00024
0.5	298.15	0.02101	0.00024
0.6001	298.15	0.02167	0.00024
0.7004	298.15	0.02245	0.00024
0.8001	298.15	0.02323	0.00024
0.8994	298.15	0.024	0.00024
1	298.15	0.02476	0.00024
0	308.15	0.01758	0.00023
0.1	308.15	0.018	0.00023
0.1999	308.15	0.01845	0.00023
0.3	308.15	0.01891	0.00023
0.4	308.15	0.01939	0.00023
0.5	308.15	0.01998	0.00024
0.6001	308.15	0.02065	0.00024
0.7004	308.15	0.0214	0.00024
0.8001	308.15	0.02211	0.00024
0.8994	308.15	0.02294	0.00024
1	308.15	0.02374	0.00024
0	303.15	0.01799	0.00024
0.1	303.15	0.01849	0.00024
0.2	303.15	0.01896	0.00024
0.3003	303.15	0.01961	0.00024
0.3997	303.15	0.01997	0.00024
0.5002	303.15	0.02062	0.00024
0.6005	303.15	0.02124	0.00024
0.7002	303.15	0.02212	0.00024
0.8003	303.15	0.02289	0.00024
0.8997	303.15	0.02375	0.00024
1	303.15	0.02455	0.00024

System: 2,2,4-trimethylpentane + butylcyclohexane; phases: Liquid
Fixed: Pressure, kPa = 100
Property: Mass density, kg/m3 (Liquid); method: Vibrating tube method
Temperature, K	Mole fraction of butylcyclohexane	Mass density, kg/m3	uncertainty
293.15	0	691.91	0.19
293.15	0.0999	704.07	0.19
293.15	0.2002	715.88	0.18
293.15	0.3001	727.35	0.18
293.15	0.3996	738.44	0.17
293.15	0.5005	749.38	0.17
293.15	0.6003	759.9	0.17
293.15	0.6994	770.07	0.16
293.15	0.8	780.14	0.16
293.15	0.9001	789.89	0.15
293.15	1	799.37	0.15
298.15	0	687.82	0.19
298.15	0.0999	700.02	0.19
298.15	0.2002	711.89	0.18
298.15	0.3001	723.39	0.18
298.15	0.3996	734.52	0.17
298.15	0.5005	745.49	0.17
298.15	0.6003	756.05	0.17
298.15	0.6994	766.27	0.16
298.15	0.8	776.35	0.16
298.15	0.9001	786.12	0.16
298.15	1	795.63	0.15
303.15	0	683.68	0.19
303.15	0.0999	695.93	0.19
303.15	0.2002	707.85	0.18
303.15	0.3001	719.4	0.18
303.15	0.3996	730.57	0.18
303.15	0.5005	741.58	0.17
303.15	0.6003	752.17	0.17
303.15	0.6994	762.43	0.16
303.15	0.8	772.54	0.16
303.15	0.9001	782.34	0.16
303.15	1	791.88	0.15
308.15	0	679.51	0.19
308.15	0.0999	691.83	0.19
308.15	0.2002	703.8	0.18
308.15	0.3001	715.4	0.18
308.15	0.3996	726.61	0.18
308.15	0.5005	737.66	0.17
308.15	0.6003	748.29	0.17
308.15	0.6994	758.58	0.16
308.15	0.8	768.72	0.16
308.15	0.9001	778.55	0.16
308.15	1	788.12	0.15
313.15	0	675.32	0.19
313.15	0.0999	687.7	0.19
313.15	0.2002	699.73	0.19
313.15	0.3001	711.37	0.18
313.15	0.3996	722.64	0.18
313.15	0.5005	733.72	0.17
313.15	0.6003	744.39	0.17
313.15	0.6994	754.72	0.17
313.15	0.8	764.89	0.16
313.15	0.9001	774.76	0.16
313.15	1	784.35	0.15
318.15	0	671.05	0.19
318.15	0.0999	683.64	0.19
318.15	0.2002	695.56	0.19
318.15	0.3001	707.24	0.18
318.15	0.3996	718.6	0.18
318.15	0.5005	729.73	0.17
318.15	0.6003	740.43	0.17
318.15	0.6994	750.82	0.17
318.15	0.8	760.98	0.16
318.15	0.9001	770.84	0.16
318.15	1	780.49	0.15
323.15	0	666.8	0.2
323.15	0.0999	679.45	0.19
323.15	0.2002	691.42	0.19
323.15	0.3001	703.16	0.18
323.15	0.3996	714.56	0.18
323.15	0.5005	725.73	0.18
323.15	0.6003	736.49	0.17
323.15	0.6994	746.95	0.17
323.15	0.8	757.16	0.16
323.15	0.9001	767.06	0.16
323.15	1	776.7	0.16
333.15	0	658.2	0.2
333.15	0.0999	670.99	0.19
333.15	0.2002	683.12	0.19
333.15	0.3001	694.98	0.19
333.15	0.3996	706.46	0.18
333.15	0.5005	717.7	0.18
333.15	0.6003	728.53	0.17
333.15	0.6994	739.06	0.17
333.15	0.8	749.37	0.17
333.15	0.9001	759.38	0.16
333.15	1	769.09	0.16
343.15	0	649.44	0.2
343.15	0.0999	662.4	0.2
343.15	0.2002	674.66	0.19
343.15	0.3001	686.64	0.19
343.15	0.3996	698.25	0.18
343.15	0.5005	709.63	0.18
343.15	0.6003	720.57	0.18
343.15	0.6994	731.21	0.17
343.15	0.8	741.57	0.17
343.15	0.9001	751.62	0.16
343.15	1	761.43	0.16

System: 2,2,4-trimethylpentane + butylcyclohexane; phases: Liquid
Fixed: Pressure, kPa = 100
Property: Viscosity, Pa*s (Liquid); method: Concentric cylinders viscometry
Temperature, K	Mole fraction of butylcyclohexane	Viscosity, Pa*s	uncertainty
293.15	0	0.000518	8.3e-05
293.15	0.0999	0.000567	9.1e-05
293.15	0.2002	0.000623	0.0001
293.15	0.3001	0.000679	0.000109
293.15	0.3996	0.000744	0.000119
293.15	0.5005	0.000816	0.000131
293.15	0.6003	0.000896	0.000143
293.15	0.6994	0.000981	0.000157
293.15	0.8	0.001078	0.000173
293.15	0.9001	0.001184	0.00019
293.15	1	0.001304	0.000209
298.15	0	0.000493	7.9e-05
298.15	0.0999	0.000537	8.6e-05
298.15	0.2002	0.000588	9.4e-05
298.15	0.3001	0.00064	0.000103
298.15	0.3996	0.000698	0.000112
298.15	0.5005	0.000763	0.000122
298.15	0.6003	0.000835	0.000134
298.15	0.6994	0.000912	0.000146
298.15	0.8	0.000998	0.00016
298.15	0.9001	0.001093	0.000175
298.15	1	0.001199	0.000192
303.15	0	0.00047	7.5e-05
303.15	0.0999	0.00051	8.2e-05
303.15	0.2002	0.000556	8.9e-05
303.15	0.3001	0.000605	9.7e-05
303.15	0.3996	0.000657	0.000105
303.15	0.5005	0.000717	0.000115
303.15	0.6003	0.000781	0.000125
303.15	0.6994	0.000851	0.000136
303.15	0.8	0.000929	0.000149
303.15	0.9001	0.001014	0.000162
303.15	1	0.001109	0.000178
308.15	0	0.000449	7.2e-05
308.15	0.0999	0.000486	7.8e-05
308.15	0.2002	0.000528	8.5e-05
308.15	0.3001	0.000573	9.2e-05
308.15	0.3996	0.000621	0.0001
308.15	0.5005	0.000675	0.000108
308.15	0.6003	0.000734	0.000118
308.15	0.6994	0.000797	0.000128
308.15	0.8	0.000868	0.000139
308.15	0.9001	0.000945	0.000151
308.15	1	0.001031	0.000165
313.15	0	0.00043	6.9e-05
313.15	0.0999	0.000464	7.4e-05
313.15	0.2002	0.000502	8e-05
313.15	0.3001	0.000544	8.7e-05
313.15	0.3996	0.000588	9.4e-05
313.15	0.5005	0.000638	0.000102
313.15	0.6003	0.000691	0.000111
313.15	0.6994	0.000749	0.00012
313.15	0.8	0.000814	0.00013
313.15	0.9001	0.000883	0.000141
313.15	1	0.000961	0.000154
318.15	0	0.000414	6.6e-05
318.15	0.0999	0.000446	7.2e-05
318.15	0.2002	0.000482	7.7e-05
318.15	0.3001	0.000519	8.3e-05
318.15	0.3996	0.000561	9e-05
318.15	0.5005	0.000607	9.7e-05
318.15	0.6003	0.000654	0.000105
318.15	0.6994	0.000708	0.000113
318.15	0.8	0.000765	0.000123
318.15	0.9001	0.000829	0.000133
318.15	1	0.0009	0.000144
323.15	0	0.000398	6.4e-05
323.15	0.0999	0.000427	6.8e-05
323.15	0.2002	0.00046	7.4e-05
323.15	0.3001	0.000496	8e-05
323.15	0.3996	0.000534	8.6e-05
323.15	0.5005	0.000575	9.2e-05
323.15	0.6003	0.00062	9.9e-05
323.15	0.6994	0.000668	0.000107
323.15	0.8	0.000721	0.000116
323.15	0.9001	0.000779	0.000125
323.15	1	0.000844	0.000135
333.15	0	0.000371	6e-05
333.15	0.0999	0.000396	6.4e-05
333.15	0.2002	0.000424	6.8e-05
333.15	0.3001	0.000454	7.3e-05
333.15	0.3996	0.000487	7.8e-05
333.15	0.5005	0.000522	8.4e-05
333.15	0.6003	0.00056	9e-05
333.15	0.6994	0.000601	9.6e-05
333.15	0.8	0.000646	0.000104
333.15	0.9001	0.000695	0.000111
333.15	1	0.000749	0.00012
343.15	0	0.000348	5.6e-05
343.15	0.0999	0.000369	5.9e-05
343.15	0.2002	0.000394	6.3e-05
343.15	0.3001	0.00042	6.7e-05
343.15	0.3996	0.000448	7.2e-05
343.15	0.5005	0.00048	7.7e-05
343.15	0.6003	0.00051	8.2e-05
343.15	0.6994	0.000545	8.7e-05
343.15	0.8	0.000584	9.4e-05
343.15	0.9001	0.000626	0.0001
343.15	1	0.000671	0.000108

System: 2,2,4-trimethylpentane + butylcyclohexane; phases: Liquid
Fixed: Pressure, kPa = 100
Property: Refractive index (Na D-line) (Liquid); method: ABBE:UFactor:4
Temperature, K	Mole fraction of butylcyclohexane	Refractive index (Na D-line)	uncertainty
293.15	0	1.3921	0.0015
293.15	0.0999	1.3972	0.0015
293.15	0.2002	1.4026	0.0015
293.15	0.3001	1.4079	0.0015
293.15	0.3996	1.413	0.0015
293.15	0.5005	1.4181	0.0015
293.15	0.6003	1.423	0.0015
293.15	0.6994	1.4276	0.0015
293.15	0.8	1.4321	0.0015
293.15	0.9001	1.4362	0.0015
293.15	1	1.4403	0.0015
298.15	0	1.3886	0.0015
298.15	0.1008	1.3944	0.0015
298.15	0.2	1.4001	0.0015
298.15	0.3001	1.4055	0.0015
298.15	0.3999	1.4105	0.0015
298.15	0.5004	1.4155	0.0015
298.15	0.5999	1.4204	0.0015
298.15	0.6995	1.4249	0.0015
298.15	0.7998	1.4295	0.0015
298.15	0.9	1.4335	0.0015
298.15	1	1.4377	0.0015
303.15	0	1.3876	0.0015
303.15	0.0999	1.3928	0.0015
303.15	0.2002	1.3981	0.0015
303.15	0.3001	1.4034	0.0015
303.15	0.3996	1.4087	0.0015
303.15	0.5005	1.4139	0.0015
303.15	0.6003	1.4186	0.0015
303.15	0.6994	1.423	0.0015
303.15	0.8	1.4274	0.0015
303.15	0.9001	1.4314	0.0015
303.15	1	1.4355	0.0015
308.15	0	1.3848	0.0015
308.15	0.1008	1.3898	0.0015
308.15	0.2	1.3953	0.0015
308.15	0.3001	1.4008	0.0015
308.15	0.3999	1.4057	0.0015
308.15	0.5004	1.4112	0.0015
308.15	0.5999	1.4158	0.0015
308.15	0.6995	1.4207	0.0015
308.15	0.7998	1.4249	0.0015
308.15	0.9	1.4292	0.0015
308.15	1	1.4333	0.0015
313.15	0	1.3833	0.0015
313.15	0.0999	1.3884	0.0015
313.15	0.2002	1.3935	0.0015
313.15	0.3001	1.3988	0.0015
313.15	0.3996	1.4042	0.0015
313.15	0.5005	1.4094	0.0015
313.15	0.6003	1.4141	0.0015
313.15	0.6994	1.4185	0.0015
313.15	0.8	1.4229	0.0015
313.15	0.9001	1.4271	0.0015
313.15	1	1.4314	0.0015
318.15	0	1.3785	0.0015
318.15	0.1008	1.3849	0.0015
318.15	0.2	1.3907	0.0015
318.15	0.3001	1.3959	0.0015
318.15	0.3999	1.4015	0.0015
318.15	0.5004	1.4069	0.0015
318.15	0.5999	1.4118	0.0015
318.15	0.6995	1.4161	0.0015
318.15	0.7998	1.4208	0.0015
318.15	0.9	1.4248	0.0015
318.15	1	1.429	0.0015
323.15	0	1.376	0.0015
323.15	0.1008	1.3824	0.0015
323.15	0.2	1.3885	0.0015
323.15	0.3001	1.3943	0.0015
323.15	0.3999	1.3993	0.0015
323.15	0.5004	1.4045	0.0015
323.15	0.5999	1.4093	0.0015
323.15	0.6995	1.4145	0.0015
323.15	0.7998	1.4184	0.0015
323.15	0.9	1.4229	0.0015
323.15	1	1.4268	0.0015

System: 2,2,4-trimethylpentane + butylcyclohexane; phases: Liquid, Air at 1 atmosphere
Property: Surface tension liquid-gas, N/m (Liquid); method: Drop volume
Mole fraction of butylcyclohexane	Temperature, K	Surface tension liquid-gas, N/m	uncertainty
0	293.15	0.01894	0.00024
0.1008	293.15	0.01963	0.00024
0.2	293.15	0.02032	0.00024
0.3001	293.15	0.02102	0.00024
0.3999	293.15	0.02175	0.00024
0.5004	293.15	0.02242	0.00024
0.5999	293.15	0.02317	0.00024
0.6995	293.15	0.02397	0.00024
0.7998	293.15	0.02487	0.00024
0.9	293.15	0.02585	0.00024
1	293.15	0.02681	0.00025
0	298.15	0.01839	0.00024
0.1008	298.15	0.019	0.00024
0.2	298.15	0.01959	0.00024
0.3001	298.15	0.02024	0.00024
0.3999	298.15	0.0209	0.00024
0.5004	298.15	0.02156	0.00024
0.5999	298.15	0.02229	0.00024
0.6995	298.15	0.0231	0.00024
0.7998	298.15	0.02395	0.00024
0.9	298.15	0.02493	0.00024
1	298.15	0.02587	0.00024
0	308.15	0.01758	0.00023
0.1008	308.15	0.01807	0.00024
0.2	308.15	0.01859	0.00024
0.3001	308.15	0.01917	0.00024
0.3999	308.15	0.01976	0.00024
0.5004	308.15	0.02041	0.00024
0.5999	308.15	0.02112	0.00024
0.6995	308.15	0.02194	0.00024
0.7998	308.15	0.02279	0.00024
0.9	308.15	0.02373	0.00024
1	308.15	0.02473	0.00024
0	303.15	0.01799	0.00024
0.0999	303.15	0.01858	0.00024
0.2002	303.15	0.01911	0.00024
0.3001	303.15	0.01981	0.00024
0.3996	303.15	0.02049	0.00024
0.5005	303.15	0.02139	0.00024
0.6003	303.15	0.02179	0.00024
0.6994	303.15	0.02268	0.00024
0.8	303.15	0.02351	0.00024
0.9001	303.15	0.02453	0.00024
1	303.15	0.02549	0.00024
