Measured thermophysical data. Volumetric and FT-IR Studies of the Binary Liquid Mixtures of Tributylamine and Alkyl Ester (C1-C5)
Source: J. Chem. Eng. Data, 2019, 10.1021/acs.jced.8b01120
Compound 1: tributylamine, C12H27N, InChI=1S/C12H27N/c1-4-7-10-13(11-8-5-2)12-9-6-3/h4-12H2,1-3H3, purity 99.5%
Compound 2: methyl ethanoate, C3H6O2, InChI=1S/C3H6O2/c1-3(4)5-2/h1-2H3, purity 99.5%
Compound 3: ethyl acetate, C4H8O2, InChI=1S/C4H8O2/c1-3-6-4(2)5/h3H2,1-2H3, purity 99.5%
Compound 4: propyl ethanoate, C5H10O2, InChI=1S/C5H10O2/c1-3-4-7-5(2)6/h3-4H2,1-2H3, purity 98%
Compound 5: butyl ethanoate, C6H12O2, InChI=1S/C6H12O2/c1-3-4-5-8-6(2)7/h3-5H2,1-2H3, purity 99.5%
Compound 6: pentyl ethanoate, C7H14O2, InChI=1S/C7H14O2/c1-3-4-5-6-9-7(2)8/h3-6H2,1-2H3, purity 99%

System: tributylamine; phases: Liquid
Fixed: Pressure, kPa = 100
Property: Mass density, kg/m3 (Liquid); method: Vibrating tube method
Temperature, K	Mass density, kg/m3	uncertainty
293.15	777.01	2.005
298.15	773.283	2.005
303.15	769.55	2.005
308.15	765.81	2.005
313.15	762.06	2.005
293.15	777.006	2.005
303.15	769.552	2.005
308.15	765.811	2.005
313.15	762.061	2.005
298.15	773.28	2.005

System: tributylamine; phases: Liquid
Fixed: Pressure, kPa = 100
Property: Speed of sound, m/s (Liquid); method: Single path-length method
Temperature, K	Speed of sound, m/s	uncertainty
293.15	1264.2	4
298.15	1245.2	4
303.15	1226.2	4
308.15	1207.4	4
313.15	1188.8	4

System: methyl ethanoate; phases: Liquid
Fixed: Pressure, kPa = 100
Property: Mass density, kg/m3 (Liquid); method: Vibrating tube method
Temperature, K	Mass density, kg/m3	uncertainty
293.15	935.01	2.002
298.15	928.458	2.002
303.15	921.85	2.002
308.15	915.16	2.002
313.15	908.49	2.003

System: methyl ethanoate; phases: Liquid
Fixed: Pressure, kPa = 100
Property: Speed of sound, m/s (Liquid); method: Single path-length method
Temperature, K	Speed of sound, m/s	uncertainty
293.15	1180.4	4
298.15	1157.5	4
303.15	1134.9	4
308.15	1109.2	4
313.15	1089.6	4

System: ethyl acetate; phases: Liquid
Fixed: Pressure, kPa = 100
Property: Mass density, kg/m3 (Liquid); method: Vibrating tube method
Temperature, K	Mass density, kg/m3	uncertainty
293.15	900.882	2.003
298.15	894.79	2.003
303.15	888.656	2.003
308.15	882.475	2.003
313.15	876.247	2.003

System: ethyl acetate; phases: Liquid
Fixed: Pressure, kPa = 100
Property: Speed of sound, m/s (Liquid); method: Single path-length method
Temperature, K	Speed of sound, m/s	uncertainty
293.15	1164.3	4
298.15	1142.9	4
303.15	1119.4	4
308.15	1097.2	4
313.15	1075	4

System: propyl ethanoate; phases: Liquid
Fixed: Pressure, kPa = 100
Property: Mass density, kg/m3 (Liquid); method: Vibrating tube method
Temperature, K	Mass density, kg/m3	uncertainty
293.15	888.964	2.103
298.15	883.369	2.101
303.15	877.422	2.1
308.15	871.784	2.098
313.15	866.115	2.097

System: propyl ethanoate; phases: Liquid
Fixed: Pressure, kPa = 100
Property: Speed of sound, m/s (Liquid); method: Single path-length method
Temperature, K	Speed of sound, m/s	uncertainty
293.15	1190.3	4.5
298.15	1164.2	4.5
303.15	1145	4.5
308.15	1123.7	4.5
313.15	1102.3	4.5

System: butyl ethanoate; phases: Liquid
Fixed: Pressure, kPa = 100
Property: Mass density, kg/m3 (Liquid); method: Vibrating tube method
Temperature, K	Mass density, kg/m3	uncertainty
293.15	881.54	2.003
298.15	876.399	2.003
303.15	871.235	2.003
308.15	866.05	2.003
313.15	860.84	2.003

System: butyl ethanoate; phases: Liquid
Fixed: Pressure, kPa = 100
Property: Speed of sound, m/s (Liquid); method: Single path-length method
Temperature, K	Speed of sound, m/s	uncertainty
293.15	1211.6	4
298.15	1191.5	4
303.15	1172.4	4
308.15	1153.9	4
313.15	1131.5	4

System: pentyl ethanoate; phases: Liquid
Fixed: Pressure, kPa = 100
Property: Mass density, kg/m3 (Liquid); method: Vibrating tube method
Temperature, K	Mass density, kg/m3	uncertainty
293.15	876.248	2.011
298.15	871.32	2.011
303.15	865.782	2.011
308.15	860.581	2.011
313.15	855.357	2.011

System: pentyl ethanoate; phases: Liquid
Fixed: Pressure, kPa = 100
Property: Speed of sound, m/s (Liquid); method: Single path-length method
Temperature, K	Speed of sound, m/s	uncertainty
293.15	1243	4.1
298.15	1220.7	4.1
303.15	1196.8	4.1
308.15	1174.2	4.1
313.15	1152.3	4.1

System: tributylamine + methyl ethanoate; phases: Liquid
Fixed: Pressure, kPa = 100
Property: Mass density, kg/m3 (Liquid); method: Vibrating tube method
Temperature, K	Mole fraction of tributylamine	Mass density, kg/m3	uncertainty
293.15	0	935.01	2.002
293.15	0.0501	913.106	2.004
293.15	0.1009	893.96	2.004
293.15	0.2003	864.36	2.004
293.15	0.2941	843.967	2.004
293.15	0.4009	826.428	2.004
293.15	0.5004	813.696	2.004
293.15	0.6008	803.345	2.004
293.15	0.7008	794.987	2.004
293.15	0.8004	788.147	2.004
293.15	0.9003	782.234	2.005
293.15	1	777.01	2.005
298.15	0	928.458	2.002
298.15	0.0501	906.572	2.004
298.15	0.1009	887.924	2.004
298.15	0.2003	858.987	2.004
298.15	0.2941	838.976	2.004
298.15	0.4009	821.765	2.004
298.15	0.5004	809.242	2.004
298.15	0.6008	799.107	2.004
298.15	0.7008	790.893	2.004
298.15	0.8004	784.162	2.005
298.15	0.9003	778.353	2.005
298.15	1	773.283	2.005
303.15	0	921.85	2.002
303.15	0.0501	900.184	2.004
303.15	0.1009	881.943	2.004
303.15	0.2003	853.583	2.004
303.15	0.2941	833.982	2.004
303.15	0.4009	817.081	2.004
303.15	0.5004	804.881	2.004
303.15	0.6008	794.831	2.004
303.15	0.7008	786.764	2.004
303.15	0.8004	780.197	2.005
303.15	0.9003	774.459	2.005
303.15	1	769.55	2.005
308.15	0	915.16	2.002
308.15	0.0501	893.938	2.004
308.15	0.1009	875.744	2.004
308.15	0.2003	848.346	2.004
308.15	0.2941	828.97	2.004
308.15	0.4009	812.409	2.004
308.15	0.5004	800.355	2.004
308.15	0.6008	790.504	2.004
308.15	0.7008	782.571	2.005
308.15	0.8004	776.154	2.005
308.15	0.9003	770.516	2.005
308.15	1	765.81	2.005
313.15	0	908.49	2.003
313.15	0.0501	887.487	2.004
313.15	0.1009	869.547	2.004
313.15	0.2003	842.744	2.004
313.15	0.2941	823.819	2.004
313.15	0.4009	807.525	2.004
313.15	0.5004	795.747	2.004
313.15	0.6008	786.225	2.004
313.15	0.7008	778.432	2.005
313.15	0.8004	772.052	2.005
313.15	0.9003	766.597	2.005
313.15	1	762.06	2.005

System: tributylamine + methyl ethanoate; phases: Liquid
Fixed: Pressure, kPa = 100
Property: Speed of sound, m/s (Liquid); method: Single path-length method
Temperature, K	Mole fraction of tributylamine	Speed of sound, m/s	uncertainty
293.15	0	1180.4	4
293.15	0.0501	1184.6	4
293.15	0.1009	1188.9	4
293.15	0.2003	1197.3	4
293.15	0.2941	1205.6	4
293.15	0.4009	1213.9	4
293.15	0.5004	1222.5	4
293.15	0.6008	1230.4	4
293.15	0.7008	1239	4
293.15	0.8004	1247.6	4
293.15	0.9003	1255.7	4
293.15	1	1264.2	4
298.15	0	1157.5	4
298.15	0.0501	1160.4	4
298.15	0.1009	1165.2	4
298.15	0.2003	1174.1	4
298.15	0.2941	1182.6	4
298.15	0.4009	1191.9	4
298.15	0.5004	1200.4	4
298.15	0.6008	1209.5	4
298.15	0.7008	1218.5	4
298.15	0.8004	1227	4
298.15	0.9003	1236.1	4
298.15	1	1245.2	4
303.15	0	1134.9	4
303.15	0.0501	1140	4
303.15	0.1009	1144.5	4
303.15	0.2003	1153.7	4
303.15	0.2941	1161	4
303.15	0.4009	1171.2	4
303.15	0.5004	1180.6	4
303.15	0.6008	1190.4	4
303.15	0.7008	1198.7	4
303.15	0.8004	1207.9	4
303.15	0.9003	1217	4
303.15	1	1226.2	4
308.15	0	1109.2	4
308.15	0.0501	1113.4	4
308.15	0.1009	1118	4
308.15	0.2003	1128.1	4
308.15	0.2941	1137.7	4
308.15	0.4009	1148.1	4
308.15	0.5004	1158.4	4
308.15	0.6008	1167.9	4
308.15	0.7008	1177.6	4
308.15	0.8004	1187.8	4
308.15	0.9003	1197.3	4
308.15	1	1207.4	4
313.15	0	1089.6	4
313.15	0.0501	1094.9	4
313.15	0.1009	1099.6	4
313.15	0.2003	1109.7	4
313.15	0.2941	1118.6	4
313.15	0.4009	1129.6	4
313.15	0.5004	1138.9	4
313.15	0.6008	1149.1	4
313.15	0.7008	1159	4
313.15	0.8004	1168.5	4
313.15	0.9003	1177.8	4
313.15	1	1188.8	4

System: tributylamine + ethyl acetate; phases: Liquid
Fixed: Pressure, kPa = 100
Property: Mass density, kg/m3 (Liquid); method: Vibrating tube method
Temperature, K	Mole fraction of tributylamine	Mass density, kg/m3	uncertainty
293.15	0	900.882	2.003
293.15	0.0502	886.034	2.004
293.15	0.104	872.134	2.004
293.15	0.2041	850.473	2.004
293.15	0.3022	834.126	2.004
293.15	0.402	820.855	2.004
293.15	0.5017	810.036	2.004
293.15	0.6003	801.163	2.004
293.15	0.7004	793.656	2.004
293.15	0.8009	787.308	2.004
293.15	0.9011	781.785	2.005
293.15	1	777.006	2.005
298.15	0	894.79	2.003
298.15	0.0502	880.238	2.004
298.15	0.104	866.571	2.004
298.15	0.2041	845.352	2.004
298.15	0.3022	829.336	2.004
298.15	0.402	816.274	2.004
298.15	0.5017	805.655	2.004
298.15	0.6003	796.948	2.004
298.15	0.7004	789.584	2.004
298.15	0.8009	783.362	2.005
298.15	0.9011	777.942	2.005
298.15	1	773.283	2.005
303.15	0	888.656	2.003
303.15	0.0502	874.248	2.004
303.15	0.104	860.881	2.004
303.15	0.2041	840.168	2.004
303.15	0.3022	824.418	2.004
303.15	0.402	811.568	2.004
303.15	0.5017	801.215	2.004
303.15	0.6003	792.639	2.004
303.15	0.7004	785.465	2.004
303.15	0.8009	779.404	2.005
303.15	0.9011	774.089	2.005
303.15	1	769.552	2.005
308.15	0	882.475	2.003
308.15	0.0502	868.137	2.004
308.15	0.104	854.773	2.004
308.15	0.2041	834.885	2.004
308.15	0.3022	819.471	2.004
308.15	0.402	806.892	2.004
308.15	0.5017	796.734	2.004
308.15	0.6003	788.358	2.004
308.15	0.7004	781.294	2.005
308.15	0.8009	775.399	2.005
308.15	0.9011	770.192	2.005
308.15	1	765.811	2.005
313.15	0	876.247	2.003
313.15	0.0502	862.077	2.004
313.15	0.104	848.939	2.004
313.15	0.2041	829.51	2.004
313.15	0.3022	814.442	2.004
313.15	0.402	802.143	2.004
313.15	0.5017	792.21	2.004
313.15	0.6003	784.016	2.005
313.15	0.7004	777.107	2.005
313.15	0.8009	771.342	2.005
313.15	0.9011	766.343	2.005
313.15	1	762.061	2.005

System: tributylamine + ethyl acetate; phases: Liquid
Fixed: Pressure, kPa = 100
Property: Speed of sound, m/s (Liquid); method: Single path-length method
Temperature, K	Mole fraction of tributylamine	Speed of sound, m/s	uncertainty
293.15	0	1164.3	4
293.15	0.0502	1168.6	4
293.15	0.104	1172.6	4
293.15	0.2041	1182.8	4
293.15	0.3022	1193.2	4
293.15	0.402	1203.3	4
293.15	0.5017	1213.4	4
293.15	0.6003	1223	4
293.15	0.7004	1233.6	4
293.15	0.8009	1244	4
293.15	0.9011	1253.8	4
293.15	1	1264.2	4
298.15	0	1142.9	4
298.15	0.0502	1146.5	4
298.15	0.104	1152.6	4
298.15	0.2041	1162.8	4
298.15	0.3022	1172.8	4
298.15	0.402	1182.8	4
298.15	0.5017	1194	4
298.15	0.6003	1203.8	4
298.15	0.7004	1214.6	4
298.15	0.8009	1224.7	4
298.15	0.9011	1234.6	4
298.15	1	1245.2	4
303.15	0	1119.4	4
303.15	0.0502	1124.6	4
303.15	0.104	1129.9	4
303.15	0.2041	1140.7	4
303.15	0.3022	1151.3	4
303.15	0.402	1161.7	4
303.15	0.5017	1172.7	4
303.15	0.6003	1182.3	4
303.15	0.7004	1193.2	4
303.15	0.8009	1205.4	4
303.15	0.9011	1215.4	4
303.15	1	1226.2	4
308.15	0	1097.2	4
308.15	0.0502	1102.3	4
308.15	0.104	1108.7	4
308.15	0.2041	1119.9	4
308.15	0.3022	1131.6	4
308.15	0.402	1141.7	4
308.15	0.5017	1152.9	4
308.15	0.6003	1163.6	4
308.15	0.7004	1174.6	4
308.15	0.8009	1185.6	4
308.15	0.9011	1196.5	4
308.15	1	1207.4	4
313.15	0	1075	4
313.15	0.0502	1080.9	4
313.15	0.104	1088.3	4
313.15	0.2041	1098.8	4
313.15	0.3022	1109.3	4
313.15	0.402	1120.9	4
313.15	0.5017	1132.9	4
313.15	0.6003	1143.3	4
313.15	0.7004	1154.3	4
313.15	0.8009	1166.1	4
313.15	0.9011	1177.7	4
313.15	1	1188.8	4

System: tributylamine + propyl ethanoate; phases: Liquid
Fixed: Pressure, kPa = 100
Property: Mass density, kg/m3 (Liquid); method: Vibrating tube method
Temperature, K	Mole fraction of tributylamine	Mass density, kg/m3	uncertainty
293.15	0	888.964	2.103
293.15	0.0509	876.475	2.087
293.15	0.1204	861.989	2.069
293.15	0.2066	846.28	2.052
293.15	0.306	831.793	2.038
293.15	0.4043	819.864	2.027
293.15	0.5015	809.872	2.02
293.15	0.6007	801.215	2.014
293.15	0.7102	793.047	2.01
293.15	0.8007	787.307	2.008
293.15	0.9008	781.809	2.006
293.15	1	777.006	2.005
298.15	0	883.369	2.101
298.15	0.0509	871.105	2.086
298.15	0.1204	856.798	2.068
298.15	0.2066	841.395	2.051
298.15	0.306	827.121	2.037
298.15	0.4043	815.394	2.027
298.15	0.5015	805.603	2.02
298.15	0.6007	797.082	2.014
298.15	0.7102	789.025	2.01
298.15	0.8007	783.381	2.008
298.15	0.9008	777.98	2.006
298.15	1	773.283	2.005
303.15	0	877.422	2.1
303.15	0.0509	865.344	2.085
303.15	0.1204	851.275	2.067
303.15	0.2066	836.192	2.051
303.15	0.306	822.274	2.037
303.15	0.4043	810.785	2.027
303.15	0.5015	801.221	2.02
303.15	0.6007	792.841	2.014
303.15	0.7102	784.905	2.01
303.15	0.8007	779.377	2.008
303.15	0.9008	774.088	2.006
303.15	1	769.552	2.005
308.15	0	871.784	2.098
308.15	0.0509	859.857	2.083
308.15	0.1204	845.985	2.066
308.15	0.2066	831.184	2.05
308.15	0.306	817.519	2.037
308.15	0.4043	806.239	2.027
308.15	0.5015	796.775	2.02
308.15	0.6007	788.618	2.014
308.15	0.7102	780.824	2.01
308.15	0.8007	775.39	2.008
308.15	0.9008	770.204	2.006
308.15	1	765.811	2.005
313.15	0	866.115	2.097
313.15	0.0509	854.206	2.082
313.15	0.1204	840.603	2.065
313.15	0.2066	826.095	2.05
313.15	0.306	812.694	2.036
313.15	0.4043	801.63	2.027
313.15	0.5015	792.345	2.02
313.15	0.6007	784.342	2.014
313.15	0.7102	776.694	2.01
313.15	0.8007	771.367	2.008
313.15	0.9008	766.273	2.006
313.15	1	762.061	2.005

System: tributylamine + propyl ethanoate; phases: Liquid
Fixed: Pressure, kPa = 100
Property: Speed of sound, m/s (Liquid); method: Single path-length method
Temperature, K	Mole fraction of tributylamine	Speed of sound, m/s	uncertainty
293.15	0	1190.3	4.5
293.15	0.0509	1193.8	4.4
293.15	0.1204	1198.3	4.4
293.15	0.2066	1205.3	4.3
293.15	0.306	1212	4.3
293.15	0.4043	1219.3	4.2
293.15	0.5015	1226.3	4.2
293.15	0.6007	1233.2	4.1
293.15	0.7102	1241.2	4.1
293.15	0.8007	1248.5	4.1
293.15	0.9008	1255.7	4.1
293.15	1	1264.2	4
298.15	0	1164.2	4.5
298.15	0.0509	1167.9	4.4
298.15	0.1204	1173.2	4.4
298.15	0.2066	1180.5	4.3
298.15	0.306	1188.5	4.3
298.15	0.4043	1196.3	4.2
298.15	0.5015	1204.6	4.2
298.15	0.6007	1212.4	4.1
298.15	0.7102	1221.4	4.1
298.15	0.8007	1228.5	4.1
298.15	0.9008	1236.5	4.1
298.15	1	1245.2	4
303.15	0	1145	4.5
303.15	0.0509	1148.6	4.4
303.15	0.1204	1154.3	4.4
303.15	0.2066	1161.6	4.3
303.15	0.306	1169.1	4.3
303.15	0.4043	1177	4.2
303.15	0.5015	1185.2	4.2
303.15	0.6007	1192.9	4.1
303.15	0.7102	1201.8	4.1
303.15	0.8007	1209.3	4.1
303.15	0.9008	1217.8	4.1
303.15	1	1226.2	4
308.15	0	1123.7	4.5
308.15	0.0509	1127.2	4.4
308.15	0.1204	1132.9	4.4
308.15	0.2066	1140.7	4.3
308.15	0.306	1148.2	4.3
308.15	0.4043	1156.6	4.2
308.15	0.5015	1165.4	4.2
308.15	0.6007	1172.6	4.1
308.15	0.7102	1182.1	4.1
308.15	0.8007	1190	4.1
308.15	0.9008	1197.9	4.1
308.15	1	1207.4	4
313.15	0	1102.3	4.5
313.15	0.0509	1105.2	4.4
313.15	0.1204	1111.2	4.4
313.15	0.2066	1119.1	4.3
313.15	0.306	1127.6	4.3
313.15	0.4043	1136	4.2
313.15	0.5015	1144.9	4.2
313.15	0.6007	1153.4	4.1
313.15	0.7102	1162.6	4.1
313.15	0.8007	1171.2	4.1
313.15	0.9008	1179.1	4.1
313.15	1	1188.8	4

System: tributylamine + butyl ethanoate; phases: Liquid
Fixed: Pressure, kPa = 100
Property: Mass density, kg/m3 (Liquid); method: Vibrating tube method
Temperature, K	Mole fraction of tributylamine	Mass density, kg/m3	uncertainty
293.15	0	881.54	2.003
293.15	0.0535	870.397	2.003
293.15	0.11	859.603	2.004
293.15	0.2003	844.278	2.004
293.15	0.3239	827.789	2.004
293.15	0.4004	818.98	2.004
293.15	0.502	809.109	2.004
293.15	0.592	801.571	2.004
293.15	0.7201	792.16	2.004
293.15	0.8002	787.449	2.004
293.15	0.9065	781.614	2.005
293.15	1	777.006	2.005
298.15	0	876.399	2.003
298.15	0.0535	865.288	2.004
298.15	0.11	854.617	2.004
298.15	0.2003	839.544	2.004
298.15	0.3239	823.24	2.004
298.15	0.4004	814.604	2.004
298.15	0.502	804.828	2.004
298.15	0.592	797.439	2.004
298.15	0.7201	788.147	2.004
298.15	0.8002	783.513	2.005
298.15	0.9065	777.793	2.005
298.15	1	773.28	2.005
303.15	0	871.235	2.003
303.15	0.0535	860.118	2.004
303.15	0.11	849.591	2.004
303.15	0.2003	834.725	2.004
303.15	0.3239	818.635	2.004
303.15	0.4004	810.171	2.004
303.15	0.502	800.541	2.004
303.15	0.592	793.26	2.004
303.15	0.7201	784.362	2.005
303.15	0.8002	779.542	2.005
303.15	0.9065	773.938	2.005
303.15	1	769.552	2.005
308.15	0	866.05	2.003
308.15	0.0535	854.99	2.004
308.15	0.11	844.604	2.004
308.15	0.2003	829.963	2.004
308.15	0.3239	814.11	2.004
308.15	0.4004	805.768	2.004
308.15	0.502	796.282	2.004
308.15	0.592	789.105	2.004
308.15	0.7201	780.344	2.005
308.15	0.8002	775.588	2.005
308.15	0.9065	770.069	2.005
308.15	1	765.811	2.005
313.15	0	860.84	2.003
313.15	0.0535	849.73	2.004
313.15	0.11	839.544	2.004
313.15	0.2003	825.128	2.004
313.15	0.3239	809.428	2.004
313.15	0.4004	801.312	2.004
313.15	0.502	791.968	2.004
313.15	0.592	784.862	2.005
313.15	0.7201	775.931	2.005
313.15	0.8002	771.559	2.005
313.15	0.9065	766.156	2.005
313.15	1	762.061	2.005

System: tributylamine + butyl ethanoate; phases: Liquid
Fixed: Pressure, kPa = 100
Property: Speed of sound, m/s (Liquid); method: Single path-length method
Temperature, K	Mole fraction of tributylamine	Speed of sound, m/s	uncertainty
293.15	0	1211.6	4
293.15	0.0535	1214	4
293.15	0.11	1217.1	4
293.15	0.2003	1221.8	4
293.15	0.3239	1228.3	4
293.15	0.4004	1232.5	4
293.15	0.502	1237.7	4
293.15	0.592	1242.4	4
293.15	0.7201	1249.1	4
293.15	0.8002	1253.5	4
293.15	0.9065	1259.1	4
293.15	1	1264.2	4
298.15	0	1191.5	4
298.15	0.0535	1193.8	4
298.15	0.11	1196.9	4
298.15	0.2003	1201.9	4
298.15	0.3239	1208.9	4
298.15	0.4004	1212.3	4
298.15	0.502	1217.4	4
298.15	0.592	1222.7	4
298.15	0.7201	1229.7	4
298.15	0.8002	1233.7	4
298.15	0.9065	1240	4
298.15	1	1245.2	4
303.15	0	1172.4	4
303.15	0.0535	1175.2	4
303.15	0.11	1178.2	4
303.15	0.2003	1183.5	4
303.15	0.3239	1189.5	4
303.15	0.4004	1193.6	4
303.15	0.502	1199.2	4
303.15	0.592	1203.4	4
303.15	0.7201	1210.9	4
303.15	0.8002	1215	4
303.15	0.9065	1220.6	4
303.15	1	1226.2	4
308.15	0	1153.9	4
308.15	0.0535	1156	4
308.15	0.11	1158.9	4
308.15	0.2003	1163.8	4
308.15	0.3239	1170.4	4
308.15	0.4004	1174.4	4
308.15	0.502	1180.1	4
308.15	0.592	1185.3	4
308.15	0.7201	1192	4
308.15	0.8002	1195.9	4
308.15	0.9065	1201.7	4
308.15	1	1207.4	4
313.15	0	1131.5	4
313.15	0.0535	1132.7	4
313.15	0.11	1135.7	4
313.15	0.2003	1141.7	4
313.15	0.3239	1148.8	4
313.15	0.4004	1153.5	4
313.15	0.502	1158.9	4
313.15	0.592	1164.7	4
313.15	0.7201	1171.8	4
313.15	0.8002	1176.6	4
313.15	0.9065	1183.1	4
313.15	1	1188.8	4

System: tributylamine + pentyl ethanoate; phases: Liquid
Fixed: Pressure, kPa = 100
Property: Mass density, kg/m3 (Liquid); method: Vibrating tube method
Temperature, K	Mole fraction of tributylamine	Mass density, kg/m3	uncertainty
293.15	0	876.248	2.011
293.15	0.0575	865.692	2.011
293.15	0.1106	856.436	2.01
293.15	0.2013	842.712	2.009
293.15	0.3229	827.693	2.008
293.15	0.4109	818.21	2.007
293.15	0.5032	809.565	2.007
293.15	0.6202	799.842	2.006
293.15	0.7403	791.114	2.006
293.15	0.8105	786.994	2.005
293.15	0.9205	780.619	2.005
293.15	1	777.006	2.005
298.15	0	871.32	2.011
298.15	0.0575	860.668	2.011
298.15	0.1106	851.526	2.01
298.15	0.2013	837.942	2.009
298.15	0.3229	823.116	2.008
298.15	0.4109	813.799	2.007
298.15	0.5032	805.278	2.007
298.15	0.6202	795.692	2.006
298.15	0.7403	787.079	2.006
298.15	0.8105	782.989	2.005
298.15	0.9205	776.717	2.005
298.15	1	773.283	2.005
303.15	0	865.782	2.011
303.15	0.0575	855.073	2.011
303.15	0.1106	846.117	2.01
303.15	0.2013	832.841	2.009
303.15	0.3229	818.312	2.008
303.15	0.4109	809.136	2.007
303.15	0.5032	800.772	2.007
303.15	0.6202	791.362	2.006
303.15	0.7403	782.913	2.006
303.15	0.8105	778.908	2.005
303.15	0.9205	772.741	2.005
303.15	1	769.552	2.005
308.15	0	860.581	2.011
308.15	0.0575	849.94	2.011
308.15	0.1106	841.075	2.01
308.15	0.2013	827.884	2.009
308.15	0.3229	813.425	2.008
308.15	0.4109	804.737	2.008
308.15	0.5032	796.389	2.007
308.15	0.6202	787.138	2.006
308.15	0.7403	778.804	2.006
308.15	0.8105	774.712	2.005
308.15	0.9205	768.959	2.005
308.15	1	765.811	2.005
313.15	0	855.357	2.011
313.15	0.0575	844.475	2.011
313.15	0.1106	835.813	2.01
313.15	0.2013	823.003	2.009
313.15	0.3229	808.951	2.008
313.15	0.4109	800.073	2.008
313.15	0.5032	791.981	2.007
313.15	0.6202	782.852	2.006
313.15	0.7403	774.698	2.006
313.15	0.8105	770.827	2.006
313.15	0.9205	764.799	2.005
313.15	1	762.061	2.005

System: tributylamine + pentyl ethanoate; phases: Liquid
Fixed: Pressure, kPa = 100
Property: Speed of sound, m/s (Liquid); method: Single path-length method
Temperature, K	Mole fraction of tributylamine	Speed of sound, m/s	uncertainty
293.15	0	1243	4.1
293.15	0.0575	1244.2	4.1
293.15	0.1106	1245.2	4.1
293.15	0.2013	1247.7	4.1
293.15	0.3229	1249.6	4.1
293.15	0.4109	1251.4	4.1
293.15	0.5032	1253.8	4.1
293.15	0.6202	1255.6	4.1
293.15	0.7403	1258.8	4.1
293.15	0.8105	1259.7	4
293.15	0.9205	1262.4	4
293.15	1	1264.2	4
298.15	0	1220.7	4.1
298.15	0.0575	1221.5	4.1
298.15	0.1106	1222.5	4.1
298.15	0.2013	1224.3	4.1
298.15	0.3229	1227.8	4.1
298.15	0.4109	1229.9	4.1
298.15	0.5032	1232.5	4.1
298.15	0.6202	1235	4.1
298.15	0.7403	1238.5	4.1
298.15	0.8105	1240.2	4
298.15	0.9205	1243.1	4
298.15	1	1245.2	4
303.15	0	1196.8	4.1
303.15	0.0575	1197.8	4.1
303.15	0.1106	1198.8	4.1
303.15	0.2013	1201.8	4.1
303.15	0.3229	1205.4	4.1
303.15	0.4109	1207.8	4.1
303.15	0.5032	1210.5	4.1
303.15	0.6202	1214.6	4.1
303.15	0.7403	1217.8	4.1
303.15	0.8105	1219.9	4
303.15	0.9205	1223	4
303.15	1	1226.2	4
308.15	0	1174.2	4.1
308.15	0.0575	1175.7	4.1
308.15	0.1106	1177.2	4.1
308.15	0.2013	1179.7	4.1
308.15	0.3229	1184.1	4.1
308.15	0.4109	1187.2	4.1
308.15	0.5032	1190.4	4.1
308.15	0.6202	1194.1	4.1
308.15	0.7403	1198.2	4.1
308.15	0.8105	1201	4
308.15	0.9205	1204.5	4
308.15	1	1207.4	4
313.15	0	1152.3	4.1
313.15	0.0575	1153.7	4.1
313.15	0.1106	1155.7	4.1
313.15	0.2013	1158.8	4.1
313.15	0.3229	1163.1	4.1
313.15	0.4109	1167.2	4.1
313.15	0.5032	1170	4.1
313.15	0.6202	1174.1	4.1
313.15	0.7403	1178.9	4.1
313.15	0.8105	1181.2	4
313.15	0.9205	1185.6	4
313.15	1	1188.8	4
