Measured thermophysical data. Thermodynamic Modeling of Calcium Sulfate Hydrates in the CaSO4-H2O System from 273.15 to 473.15 K with Extension to 548.15 K
Source: J. Chem. Eng. Data, 2019, 10.1021/acs.jced.9b00112
Compound 1: water, H2O, InChI=1S/H2O/h1H2
Compound 2: calcium sulfate, CaO4S, InChI=1S/Ca.H2O4S/c;1-5(2,3)4/h;(H2,1,2,3,4)/q+2;/p-2

System: calcium sulfate + water; phases: Liquid
Fixed: Pressure, kPa = 101
Property: Osmotic coefficient (Liquid); method: ?
Temperature, K	Molality, mol/kg of calcium sulfate	Osmotic coefficient	uncertainty
273.1376	0.00418	0.7978	0.0101
273.1359	0.00487	0.7858	0.0107
273.1348	0.00526	0.7796	0.011
273.134	0.0056	0.7745	0.0113
273.1324	0.00625	0.7656	0.0117
273.131	0.0067	0.7599	0.012
273.13	0.00714	0.7547	0.0123
273.1294	0.00742	0.7515	0.0124
273.1282	0.00782	0.7472	0.0126
273.1251	0.00915	0.7341	0.0133
273.1244	0.00937	0.7321	0.0134
273.1243	0.00952	0.7308	0.0135
273.1218	0.01046	0.7229	0.0139
273.1207	0.01092	0.7193	0.014
273.1206	0.011	0.7186	0.0141
