Measured thermophysical data. Mean Activity Coefficients and Osmotic Coefficients in Dilute Aqueous Sodium or Potassium Chloride Solutions at Temperatures from (0 to 70) degC
Source: J. Chem. Eng. Data, 2016, 10.1021/acs.jced.5b00544
Compound 1: water, H2O, InChI=1S/H2O/h1H2
Compound 2: potassium chloride, ClK, InChI=1S/ClH.K/h1H;/q;+1/p-1
Compound 3: sodium chloride, ClNa, InChI=1S/ClH.Na/h1H;/q;+1/p-1

System: water + potassium chloride; phases: Liquid
Fixed: Pressure, kPa = 101
Property: Mean ionic activity coefficient of potassium chloride (Liquid); method: ?
Temperature, K	Molality, mol/kg of potassium chloride	Mean ionic activity coefficient of potassium chloride	uncertainty
273.15	0.1	0.7724	0.05
273.15	0.2	0.7192	0.05
273.15	0.5	0.6429	0.05
273.15	1	0.581	0.05
283.15	0.1	0.7714	0.05
283.15	0.2	0.7193	0.05
283.15	0.5	0.6469	0.05
283.15	1	0.592	0.05
293.15	0.1	0.7702	0.05
293.15	0.2	0.7192	0.05
293.15	0.5	0.6506	0.05
293.15	1	0.602	0.05
303.15	0.1	0.767	0.05
303.15	0.2	0.716	0.05
303.15	0.5	0.649	0.05
303.15	1	0.602	0.05
313.15	0.1	0.764	0.05
313.15	0.2	0.714	0.05
313.15	0.5	0.647	0.05
313.15	1	0.603	0.05
323.15	0.1	0.761	0.05
323.15	0.2	0.71	0.05
323.15	0.5	0.644	0.05
323.15	1	0.601	0.05
333.15	0.1	0.757	0.05
333.15	0.2	0.705	0.05
333.15	0.5	0.638	0.05
333.15	1	0.596	0.05
343.15	0.1	0.752	0.05
343.15	0.2	0.699	0.05
343.15	0.5	0.632	0.05
343.15	1	0.588	0.05

System: water + sodium chloride; phases: Liquid
Fixed: Pressure, kPa = 101
Property: Mean ionic activity coefficient of sodium chloride (Liquid); method: ?
Temperature, K	Molality, mol/kg of sodium chloride	Mean ionic activity coefficient of sodium chloride	uncertainty
273.15	0.1	0.7813	0.05
273.15	0.2	0.7341	0.05
273.15	0.25	0.7187	0.05
273.15	0.5	0.672	0.05
273.15	0.7	0.6507	0.05
273.15	0.75	0.6464	0.05
273.15	1	0.6295	0.05
283.15	0.1	0.7804	0.05
283.15	0.2	0.7345	0.05
283.15	0.25	0.7198	0.05
283.15	0.5	0.6766	0.05
283.15	0.7	0.658	0.05
283.15	0.75	0.655	0.05
283.15	1	0.641	0.05
293.15	0.1	0.7793	0.05
293.15	0.2	0.7345	0.05
293.15	0.25	0.7205	0.05
293.15	0.5	0.6808	0.05
293.15	0.7	0.665	0.05
293.15	0.75	0.662	0.05
293.15	1	0.653	0.05
303.15	0.1	0.777	0.05
303.15	0.2	0.732	0.05
303.15	0.25	0.718	0.05
303.15	0.5	0.68	0.05
303.15	0.7	0.666	0.05
303.15	0.75	0.663	0.05
303.15	1	0.655	0.05
313.15	0.1	0.774	0.05
313.15	0.2	0.729	0.05
313.15	0.25	0.715	0.05
313.15	0.5	0.678	0.05
313.15	0.7	0.664	0.05
313.15	0.75	0.662	0.05
313.15	1	0.655	0.05
323.15	0.1	0.77	0.05
323.15	0.2	0.725	0.05
323.15	0.25	0.711	0.05
323.15	0.5	0.674	0.05
323.15	0.7	0.66	0.05
323.15	0.75	0.658	0.05
323.15	1	0.652	0.05
333.15	0.1	0.766	0.05
333.15	0.2	0.72	0.05
333.15	0.25	0.706	0.05
333.15	0.5	0.667	0.05
333.15	0.7	0.653	0.05
333.15	0.75	0.651	0.05
333.15	1	0.644	0.05
343.15	0.1	0.761	0.05
343.15	0.2	0.713	0.05
343.15	0.25	0.699	0.05
343.15	0.5	0.659	0.05
343.15	0.7	0.644	0.05
343.15	0.75	0.641	0.05
343.15	1	0.633	0.05
353.15	0.1	0.752	0.05
353.15	0.2	0.703	0.05
353.15	0.25	0.688	0.05
353.15	0.5	0.647	0.05
353.15	0.7	0.633	0.05
353.15	0.75	0.631	0.05
353.15	1	0.624	0.05
