Measured thermophysical data. Determination, Correlation, and Application of Sodium l-Ascorbate Solubility in Nine Pure Solvents and Two Binary Solvents at Temperatures from 278.15 to 323.15 K
Source: J. Chem. Eng. Data, 2018, 10.1021/acs.jced.7b00846
Compound 1: sodium L-ascorbate, C6H7NaO6, InChI=1S/C6H8O6.Na/c7-1-2(8)5-3(9)4(10)6(11)12-5;/h2,5,7-10H,1H2;/q;+1/p-1/t2-,5+;/m0./s1, purity 99%
Compound 2: 4-(1,1-dimethylethyl)benzoic acid, C11H14O2, InChI=1S/C11H14O2/c1-11(2,3)9-6-4-8(5-7-9)10(12)13/h4-7H,1-3H3,(H,12,13), purity 99%
Compound 3: methanol, CH4O, InChI=1S/CH4O/c1-2/h2H,1H3, purity 99.5%
Compound 4: ethanol, C2H6O, InChI=1S/C2H6O/c1-2-3/h3H,2H2,1H3, purity 99.5%
Compound 5: acetone, C3H6O, InChI=1S/C3H6O/c1-3(2)4/h1-2H3, purity 99.5%
Compound 6: trichloromethane, CHCl3, InChI=1S/CHCl3/c2-1(3)4/h1H, purity 99.5%
Compound 7: ethyl acetate, C4H8O2, InChI=1S/C4H8O2/c1-3-6-4(2)5/h3H2,1-2H3, purity 99.5%
Compound 8: propan-2-ol, C3H8O, InChI=1S/C3H8O/c1-3(2)4/h3-4H,1-2H3, purity 99.5%
Compound 9: 2-methyl-1-propanol, C4H10O, InChI=1S/C4H10O/c1-4(2)3-5/h4-5H,3H2,1-2H3, purity 99.5%
Compound 10: hexane, C6H14, InChI=1S/C6H14/c1-3-5-6-4-2/h3-6H2,1-2H3, purity 99.5%
Compound 11: water, H2O, InChI=1S/H2O/h1H2, purity 99.8%

System: sodium L-ascorbate + water; phases: Liquid, Crystal
Fixed: Pressure, kPa = 100
Property: Mole fraction of sodium L-ascorbate (Liquid); method: gravimetric
Temperature, K	Mole fraction of sodium L-ascorbate	uncertainty
278.15	0.0477	0.0286
283.15	0.0515	0.0309
288.15	0.0553	0.0332
293.15	0.0595	0.0357
298.15	0.0634	0.038
303.15	0.0723	0.0434
308.15	0.0778	0.0467
313.15	0.0826	0.0496
318.15	0.0877	0.0526
323.15	0.0929	0.0557

System: sodium L-ascorbate + methanol; phases: Liquid, Crystal
Fixed: Pressure, kPa = 100
Property: Mole fraction of sodium L-ascorbate (Liquid); method: gravimetric
Temperature, K	Mole fraction of sodium L-ascorbate	uncertainty
278.15	0.000313	0.000188
283.15	0.000341	0.000205
288.15	0.000368	0.000221
293.15	0.000396	0.000238
298.15	0.000425	0.000255
303.15	0.000454	0.000272
308.15	0.00048	0.000288
313.15	0.000509	0.000305
318.15	0.000537	0.000322
323.15	0.000566	0.00034

System: sodium L-ascorbate + ethanol; phases: Liquid, Crystal
Fixed: Pressure, kPa = 100
Property: Mole fraction of sodium L-ascorbate (Liquid); method: gravimetric
Temperature, K	Mole fraction of sodium L-ascorbate	uncertainty
278.15	1.9e-05	1.14e-05
283.15	2.34e-05	1.4e-05
288.15	2.39e-05	1.43e-05
293.15	3.84e-05	2.3e-05
298.15	3.86e-05	2.32e-05
303.15	4.41e-05	2.65e-05
308.15	6.28e-05	3.77e-05
313.15	7.29e-05	4.37e-05
318.15	9.76e-05	5.86e-05
323.15	0.000127	7.6e-05

System: sodium L-ascorbate + acetone; phases: Liquid, Crystal
Fixed: Pressure, kPa = 100
Property: Mole fraction of sodium L-ascorbate (Liquid); method: gravimetric
Temperature, K	Mole fraction of sodium L-ascorbate	uncertainty
278.15	1.23e-05	7.4e-06
283.15	1.6e-05	9.6e-06
288.15	1.97e-05	1.18e-05
293.15	2.47e-05	1.48e-05
298.15	3.3e-05	1.98e-05
303.15	4.29e-05	2.57e-05
308.15	5.44e-05	3.26e-05
313.15	7.02e-05	4.21e-05
318.15	8.83e-05	5.3e-05
323.15	0.000114	6.8e-05

System: sodium L-ascorbate + trichloromethane; phases: Liquid, Crystal
Fixed: Pressure, kPa = 100
Property: Mole fraction of sodium L-ascorbate (Liquid); method: gravimetric
Temperature, K	Mole fraction of sodium L-ascorbate	uncertainty
278.15	9.51e-06	5.71e-06
283.15	1.17e-05	7e-06
288.15	1.43e-05	8.6e-06
293.15	1.81e-05	1.09e-05
298.15	2.38e-05	1.43e-05
303.15	3.06e-05	1.84e-05
308.15	3.8e-05	2.28e-05
313.15	5.01e-05	3.01e-05
318.15	6.16e-05	3.7e-05
323.15	7.51e-05	4.51e-05

System: sodium L-ascorbate + ethyl acetate; phases: Liquid, Crystal
Fixed: Pressure, kPa = 100
Property: Mole fraction of sodium L-ascorbate (Liquid); method: gravimetric
Temperature, K	Mole fraction of sodium L-ascorbate	uncertainty
278.15	5.07e-06	3.04e-06
283.15	5.99e-06	3.59e-06
288.15	7.95e-06	4.77e-06
293.15	1.03e-05	6.2e-06
298.15	1.37e-05	8.2e-06
303.15	1.93e-05	1.16e-05
308.15	2.5e-05	1.5e-05
313.15	3.2e-05	1.92e-05
318.15	4.3e-05	2.58e-05
323.15	5.64e-05	3.38e-05

System: sodium L-ascorbate + propan-2-ol; phases: Liquid, Crystal
Fixed: Pressure, kPa = 100
Property: Mole fraction of sodium L-ascorbate (Liquid); method: gravimetric
Temperature, K	Mole fraction of sodium L-ascorbate	uncertainty
278.15	2.89e-06	1.73e-06
283.15	3.69e-06	2.21e-06
288.15	4.53e-06	2.72e-06
293.15	5.93e-06	3.56e-06
298.15	7.71e-06	4.63e-06
303.15	1.01e-05	6.1e-06
308.15	1.31e-05	7.9e-06
313.15	1.74e-05	1.04e-05
318.15	2.47e-05	1.48e-05
323.15	3.33e-05	2e-05

System: sodium L-ascorbate + 2-methyl-1-propanol; phases: Liquid, Crystal
Fixed: Pressure, kPa = 100
Property: Mole fraction of sodium L-ascorbate (Liquid); method: gravimetric
Temperature, K	Mole fraction of sodium L-ascorbate	uncertainty
278.15	1.85e-06	1.11e-06
283.15	2.47e-06	1.48e-06
288.15	3.21e-06	1.93e-06
293.15	4.07e-06	2.44e-06
298.15	4.98e-06	2.99e-06
303.15	6.06e-06	3.64e-06
308.15	7.19e-06	4.31e-06
313.15	8.73e-06	5.24e-06
318.15	1.04e-05	6.2e-06
323.15	1.32e-05	7.9e-06

System: sodium L-ascorbate + hexane; phases: Liquid, Crystal
Fixed: Pressure, kPa = 100
Property: Mole fraction of sodium L-ascorbate (Liquid); method: gravimetric
Temperature, K	Mole fraction of sodium L-ascorbate	uncertainty
278.15	1.45e-06	8.7e-07
283.15	1.95e-06	1.17e-06
288.15	2.41e-06	1.45e-06
293.15	3.04e-06	1.82e-06
298.15	3.75e-06	2.25e-06
303.15	4.72e-06	2.83e-06
308.15	5.79e-06	3.47e-06
313.15	7.04e-06	4.22e-06
318.15	8.39e-06	5.03e-06
323.15	9.74e-06	5.84e-06

System: sodium L-ascorbate + methanol + water; phases: Liquid, Crystal
Fixed: Pressure, kPa = 100
Property: Mole fraction of sodium L-ascorbate (Liquid); method: gravimetric
Solvent: Mole fraction of methanol	Temperature, K	Mole fraction of sodium L-ascorbate	uncertainty
0	278.15	0.0477	0.0286
0	283.15	0.0515	0.0309
0	288.15	0.0553	0.0332
0	293.15	0.0595	0.0357
0	298.15	0.0634	0.038
0	303.15	0.0723	0.0434
0	308.15	0.0778	0.0467
0	313.15	0.0826	0.0496
0	318.15	0.0877	0.0526
0	323.15	0.0929	0.0557
0.1	278.15	0.037	0.0222
0.1	283.15	0.044	0.0264
0.1	288.15	0.0481	0.0289
0.1	293.15	0.0546	0.0328
0.1	298.15	0.0588	0.0353
0.1	303.15	0.0633	0.038
0.1	308.15	0.0665	0.0399
0.1	313.15	0.0709	0.0426
0.1	318.15	0.074	0.0444
0.1	323.15	0.076	0.0456
0.2	278.15	0.0323	0.0198
0.2	283.15	0.0356	0.0216
0.2	288.15	0.0379	0.023
0.2	293.15	0.0409	0.0248
0.2	298.15	0.044	0.0267
0.2	303.15	0.0471	0.0286
0.2	308.15	0.0506	0.0307
0.2	313.15	0.0545	0.033
0.2	318.15	0.0591	0.0358
0.2	323.15	0.0629	0.0381
0.3	278.15	0.0136	0.009
0.3	283.15	0.015	0.0098
0.3	288.15	0.0159	0.0104
0.3	293.15	0.0174	0.0114
0.3	298.15	0.0192	0.0125
0.3	303.15	0.021	0.0136
0.3	308.15	0.0231	0.0149
0.3	313.15	0.0255	0.0163
0.3	318.15	0.0282	0.018
0.3	323.15	0.0311	0.0196
0.4	278.15	0.00831	0.00533
0.4	283.15	0.00923	0.00588
0.4	288.15	0.0101	0.0064
0.4	293.15	0.0109	0.0069
0.4	298.15	0.0122	0.0077
0.4	303.15	0.0135	0.0085
0.4	308.15	0.015	0.0094
0.4	313.15	0.0167	0.0105
0.4	318.15	0.0187	0.0117
0.4	323.15	0.0208	0.013
0.5	278.15	0.00456	0.00305
0.5	283.15	0.00512	0.00342
0.5	288.15	0.00561	0.00374
0.5	293.15	0.00621	0.0041
0.5	298.15	0.00706	0.00463
0.5	303.15	0.00788	0.00513
0.5	308.15	0.0089	0.00573
0.5	313.15	0.0103	0.0066
0.5	318.15	0.0116	0.0073
0.5	323.15	0.0135	0.0084
0.6	278.15	0.00296	0.00187
0.6	283.15	0.00325	0.00205
0.6	288.15	0.00357	0.00225
0.6	293.15	0.00407	0.00256
0.6	298.15	0.00469	0.00295
0.6	303.15	0.00551	0.00344
0.6	308.15	0.0067	0.00417
0.6	313.15	0.00802	0.00497
0.6	318.15	0.0101	0.0062
0.6	323.15	0.0125	0.0077
0.7	278.15	0.00167	0.00105
0.7	283.15	0.00191	0.00119
0.7	288.15	0.00211	0.00131
0.7	293.15	0.00241	0.00149
0.7	298.15	0.00267	0.00166
0.7	303.15	0.00308	0.00192
0.7	308.15	0.00343	0.00215
0.7	313.15	0.00403	0.00253
0.7	318.15	0.00461	0.00292
0.7	323.15	0.00523	0.00331
0.8	278.15	0.000965	0.000589
0.8	283.15	0.00111	0.00068
0.8	288.15	0.00129	0.00078
0.8	293.15	0.00158	0.00096
0.8	298.15	0.00175	0.00106
0.8	303.15	0.0021	0.00127
0.8	308.15	0.00251	0.00151
0.8	313.15	0.00299	0.0018
0.8	318.15	0.00381	0.00229
0.8	323.15	0.00451	0.00271
0.9	278.15	0.000584	0.000352
0.9	283.15	0.000741	0.000446
0.9	288.15	0.000942	0.000567
0.9	293.15	0.00117	0.0007
0.9	298.15	0.0014	0.00084
0.9	303.15	0.00166	0.001
0.9	308.15	0.00188	0.00113
0.9	313.15	0.00233	0.0014
0.9	318.15	0.00276	0.00166
0.9	323.15	0.00341	0.00206
1	278.15	0.000313	0.000188
1	283.15	0.000341	0.000205
1	288.15	0.000368	0.000221
1	293.15	0.000396	0.000238
1	298.15	0.000425	0.000255
1	303.15	0.000454	0.000272
1	308.15	0.00048	0.000288
1	313.15	0.000509	0.000305
1	318.15	0.000537	0.000322
1	323.15	0.000566	0.00034

System: sodium L-ascorbate + ethanol + water; phases: Liquid, Crystal
Fixed: Pressure, kPa = 100
Property: Mole fraction of sodium L-ascorbate (Liquid); method: gravimetric
Solvent: Mole fraction of ethanol	Temperature, K	Mole fraction of sodium L-ascorbate	uncertainty
0	278.15	0.0477	0.0286
0	283.15	0.0515	0.0309
0	288.15	0.0553	0.0332
0	293.15	0.0595	0.0357
0	298.15	0.0634	0.038
0	303.15	0.0723	0.0434
0	308.15	0.0778	0.0467
0	313.15	0.0826	0.0496
0	318.15	0.0877	0.0526
0	323.15	0.0929	0.0557
0.1	278.15	0.0153	0.0094
0.1	283.15	0.0218	0.0132
0.1	288.15	0.031	0.0187
0.1	293.15	0.0384	0.0231
0.1	298.15	0.0448	0.027
0.1	303.15	0.0498	0.03
0.1	308.15	0.0543	0.0327
0.1	313.15	0.0582	0.035
0.1	318.15	0.0626	0.0376
0.1	323.15	0.0667	0.0401
0.2	278.15	0.00646	0.00419
0.2	283.15	0.00998	0.00621
0.2	288.15	0.015	0.0093
0.2	293.15	0.0197	0.0122
0.2	298.15	0.0239	0.0147
0.2	303.15	0.0281	0.0172
0.2	308.15	0.032	0.0196
0.2	313.15	0.0357	0.0218
0.2	318.15	0.039	0.0237
0.2	323.15	0.0416	0.0251
0.3	278.15	0.00364	0.00227
0.3	283.15	0.00541	0.0034
0.3	288.15	0.00799	0.00506
0.3	293.15	0.0102	0.0065
0.3	298.15	0.0128	0.0081
0.3	303.15	0.0149	0.0095
0.3	308.15	0.0173	0.011
0.3	313.15	0.02	0.0126
0.3	318.15	0.0226	0.0141
0.3	323.15	0.0252	0.0159
0.4	278.15	0.00239	0.00148
0.4	283.15	0.00321	0.00205
0.4	288.15	0.00417	0.00275
0.4	293.15	0.00513	0.00342
0.4	298.15	0.00622	0.0042
0.4	303.15	0.00728	0.00491
0.4	308.15	0.00845	0.0057
0.4	313.15	0.01	0.0067
0.4	318.15	0.0121	0.008
0.4	323.15	0.0142	0.0092
0.5	278.15	0.0017	0.00111
0.5	283.15	0.0019	0.00129
0.5	288.15	0.00227	0.00158
0.5	293.15	0.0027	0.0019
0.5	298.15	0.00316	0.00224
0.5	303.15	0.0037	0.00261
0.5	308.15	0.0043	0.00302
0.5	313.15	0.00533	0.00365
0.5	318.15	0.00631	0.00435
0.5	323.15	0.00763	0.00518
0.6	278.15	0.000655	0.000512
0.6	283.15	0.000776	0.000589
0.6	288.15	0.000981	0.000727
0.6	293.15	0.00118	0.00087
0.6	298.15	0.00143	0.00103
0.6	303.15	0.00182	0.00126
0.6	308.15	0.00219	0.0015
0.6	313.15	0.00295	0.00197
0.6	318.15	0.00355	0.00234
0.6	323.15	0.00447	0.0029
0.7	278.15	5.9e-05	5.9e-05
0.7	283.15	9.55e-05	9.55e-05
0.7	288.15	0.000139	0.000139
0.7	293.15	0.000208	0.000204
0.7	298.15	0.000332	0.000277
0.7	303.15	0.000548	0.000409
0.7	308.15	0.000663	0.00049
0.7	313.15	0.00104	0.00073
0.7	318.15	0.00149	0.001
0.7	323.15	0.00209	0.00135
0.8	278.15	4.99e-05	3.01e-05
0.8	283.15	6.41e-05	3.87e-05
0.8	288.15	8.24e-05	4.99e-05
0.8	293.15	0.000102	6.2e-05
0.8	298.15	0.000149	9.2e-05
0.8	303.15	0.000202	0.000127
0.8	308.15	0.000283	0.000175
0.8	313.15	0.000385	0.00024
0.8	318.15	0.000578	0.000363
0.8	323.15	0.000931	0.000581
0.9	278.15	3.76e-05	2.26e-05
0.9	283.15	4.98e-05	3e-05
0.9	288.15	6.94e-05	4.17e-05
0.9	293.15	8.96e-05	5.39e-05
0.9	298.15	0.000113	6.8e-05
0.9	303.15	0.000177	0.000107
0.9	308.15	0.000228	0.000137
0.9	313.15	0.000381	0.000229
0.9	318.15	0.000429	0.000259
0.9	323.15	0.000662	0.000399
1	278.15	1.9e-05	1.14e-05
1	283.15	2.34e-05	1.4e-05
1	288.15	2.39e-05	1.43e-05
1	293.15	3.84e-05	2.3e-05
1	298.15	3.86e-05	2.32e-05
1	303.15	4.41e-05	2.65e-05
1	308.15	6.28e-05	3.77e-05
1	313.15	7.29e-05	4.37e-05
1	318.15	9.76e-05	5.86e-05
1	323.15	0.000127	7.6e-05

System: 4-(1,1-dimethylethyl)benzoic acid + methanol; phases: Liquid, Crystal
Fixed: Pressure, kPa = 100
Property: Mole fraction of 4-(1,1-dimethylethyl)benzoic acid (Liquid); method: gravimetric
Temperature, K	Mole fraction of 4-(1,1-dimethylethyl)benzoic acid	uncertainty
293.15	0.0561	0.0337
298.15	0.0622	0.0373
303.15	0.0685	0.0411
308.15	0.0749	0.0449
313.15	0.0811	0.0487
318.15	0.0882	0.0529
323.15	0.0951	0.0571
328.15	0.103	0.062
333.15	0.109	0.065
