Measured thermophysical data. Measurement and Correlation Studies of the Saturated Vapor Pressure, Density, Refractive Indices, and Viscosity of Methyl 4-tert-Butylbenzoate
Source: J. Chem. Eng. Data, 2017, 10.1021/acs.jced.6b00470
Compound 1: methyl 4-tert-butylbenzoate, C12H16O2, InChI=1S/C12H16O2/c1-12(2,3)10-7-5-9(6-8-10)11(13)14-4/h5-8H,1-4H3, purity 99%

System: methyl 4-tert-butylbenzoate; phases: Liquid, Gas
Property: Vapor or sublimation pressure, kPa (Liquid); method: Ebulliometric method (Recirculating still)
Temperature, K	Vapor or sublimation pressure, kPa	uncertainty
398.3	1.21	0.41
408.4	1.89	0.41
411.3	2.13	0.41
421.3	3.19	0.42
430.4	4.51	0.43
434.9	5.32	0.45
440.6	6.53	0.46
446.1	7.93	0.48
448.2	8.53	0.51
452.4	9.87	0.52
454.3	10.53	0.54
457.2	11.6	0.56
459.7	12.61	0.58
462.6	13.87	0.6
464.3	14.67	0.63
466.3	15.67	0.66
467.2	16.13	0.66
470.7	18	0.69
473.6	19.73	0.73
475.1	20.67	0.77
477.9	22.53	0.8
480.1	24.13	0.84
482.4	25.87	0.88
483.3	26.53	0.87
484.9	27.88	0.93
486.4	29.13	0.93
487.9	30.4	0.97
489.5	31.86	1.02
490.6	32.93	1.04
492.4	34.66	1.04

System: methyl 4-tert-butylbenzoate; phases: Liquid
Fixed: Pressure, kPa = 101.325
Property: Mass density, kg/m3 (Liquid); method: Vibrating tube method
Temperature, K	Mass density, kg/m3	uncertainty
293.15	1008.55	1.5
298.15	1004.06	1.5
303.15	999.54	1.5
308.15	994.01	1.5
313.15	989.09	1.5
318.15	983.89	1.5
323.15	979.29	1.5
328.15	974.01	1.5
333.15	969.29	1.5
338.15	964.47	1.5
343.15	959.5	1.5
348.15	954.38	1.5
353.15	948.71	1.51

System: methyl 4-tert-butylbenzoate; phases: Liquid
Fixed: Pressure, kPa = 100
Property: Refractive index (other wavelength) (Liquid); method: Standard Abbe refractometry
Temperature, K	Wavelength, nm	Refractive index (other wavelength)	uncertainty
293.15	404.7	1.53993	0.00056
298.15	404.7	1.53745	0.00056
303.15	404.7	1.5352	0.00056
308.15	404.7	1.53292	0.00056
313.15	404.7	1.5307	0.00056
318.15	404.7	1.52841	0.00056
323.15	404.7	1.52614	0.00056
328.15	404.7	1.52383	0.00056
333.15	404.7	1.52158	0.00056
338.15	404.7	1.51926	0.00056
343.15	404.7	1.51699	0.00056
348.15	404.7	1.5147	0.00056
353.15	404.7	1.51239	0.00056
293.15	435.8	1.53137	0.00054
298.15	435.8	1.52893	0.00054
303.15	435.8	1.52672	0.00054
308.15	435.8	1.52448	0.00054
313.15	435.8	1.52231	0.00054
318.15	435.8	1.52004	0.00054
323.15	435.8	1.5178	0.0005
328.15	435.8	1.51554	0.00053
333.15	435.8	1.51332	0.00053
338.15	435.8	1.51104	0.00053
343.15	435.8	1.50881	0.00053
348.15	435.8	1.50655	0.00053
353.15	435.8	1.50427	0.00053
293.15	486.1	1.52182	0.00052
298.15	486.1	1.51944	0.00051
303.15	486.1	1.51725	0.00051
308.15	486.1	1.51505	0.00051
313.15	486.1	1.5129	0.00051
318.15	486.1	1.5107	0.00051
323.15	486.1	1.50849	0.00051
328.15	486.1	1.50627	0.00051
333.15	486.1	1.50407	0.00051
338.15	486.1	1.50186	0.00051
343.15	486.1	1.49967	0.00051
348.15	486.1	1.49745	0.00051
353.15	486.1	1.49523	0.00051
293.15	546.1	1.51423	0.0005
298.15	546.1	1.51188	0.0005
303.15	546.1	1.50975	0.0005
308.15	546.1	1.50756	0.0005
313.15	546.1	1.50548	0.0005
318.15	546.1	1.50329	0.0005
323.15	546.1	1.50112	0.0005
328.15	546.1	1.49894	0.0005
333.15	546.1	1.49678	0.0005
338.15	546.1	1.4946	0.0005
343.15	546.1	1.49246	0.0005
348.15	546.1	1.49026	0.0005
353.15	546.1	1.48807	0.0005
293.15	587.6	1.51053	0.0005
298.15	587.6	1.5082	0.0005
303.15	587.6	1.50608	0.00049
308.15	587.6	1.50382	0.00051
313.15	587.6	1.50185	0.00049
318.15	587.6	1.4997	0.0005
323.15	587.6	1.49755	0.0005
328.15	587.6	1.49537	0.0005
333.15	587.6	1.49326	0.00049
338.15	587.6	1.49108	0.0005
343.15	587.6	1.48895	0.0005
348.15	587.6	1.48678	0.0005
353.15	587.6	1.48461	0.0005
293.15	589.3	1.51039	0.0005
298.15	589.3	1.50807	0.00049
303.15	589.3	1.50595	0.0005
308.15	589.3	1.50368	0.00049
313.15	589.3	1.50172	0.0005
318.15	589.3	1.49957	0.0005
323.15	589.3	1.49742	0.0005
328.15	589.3	1.49525	0.0005
333.15	589.3	1.49314	0.0005
338.15	589.3	1.49096	0.0005
343.15	589.3	1.48883	0.0005
348.15	589.3	1.48667	0.0005
353.15	589.3	1.48449	0.0005
293.15	632.8	1.50735	0.0005
298.15	632.8	1.50504	0.0005
303.15	632.8	1.50293	0.0005
308.15	632.8	1.50107	0.0005
313.15	632.8	1.49872	0.0005
318.15	632.8	1.49659	0.0005
323.15	632.8	1.49445	0.0005
328.15	632.8	1.49225	0.0005
333.15	632.8	1.4902	0.0005
338.15	632.8	1.48801	0.0005
343.15	632.8	1.48591	0.0005
348.15	632.8	1.48376	0.0005
353.15	632.8	1.48162	0.0005
293.15	644	1.50663	0.0005
298.15	644	1.50433	0.0005
303.15	644	1.50222	0.0005
308.15	644	1.50004	0.0005
313.15	644	1.49802	0.0005
318.15	644	1.49589	0.0005
323.15	644	1.49375	0.0005
328.15	644	1.49161	0.00049
333.15	644	1.4895	0.0005
338.15	644	1.48735	0.0005
343.15	644	1.48523	0.0005
348.15	644	1.48309	0.0005
353.15	644	1.48094	0.0005
293.15	706.5	1.50334	0.00049
298.15	706.5	1.50105	0.00049
303.15	706.5	1.49897	0.00049
308.15	706.5	1.49686	0.00049
313.15	706.5	1.49479	0.00049
318.15	706.5	1.49268	0.00049
323.15	706.5	1.49056	0.00049
328.15	706.5	1.48842	0.00049
333.15	706.5	1.48634	0.00049
338.15	706.5	1.48419	0.00049
343.15	706.5	1.48208	0.00049
348.15	706.5	1.47995	0.00049
353.15	706.5	1.47781	0.00049

System: methyl 4-tert-butylbenzoate; phases: Liquid
Fixed: Pressure, kPa = 101.325
Property: Viscosity, Pa*s (Liquid); method: Vibrating wire viscometry
Temperature, K	Viscosity, Pa*s	uncertainty
293.15	0.006867	0.000362
298.15	0.005867	0.000354
303.15	0.005013	0.00034
308.15	0.004291	0.000329
313.15	0.003687	0.00032
318.15	0.003188	0.000314
323.15	0.002781	0.000309
328.15	0.002451	0.000306
333.15	0.002185	0.000304
338.15	0.001969	0.000303
343.15	0.00179	0.000302
348.15	0.001634	0.000302
353.15	0.001487	0.000302
