Measured thermophysical data. Thermochemical Study of Methyl n-Methoxybenzoates: An Experimental and Computational Approach
Source: J. Chem. Eng. Data, 2019, 10.1021/acs.jced.8b00978
Compound 1: carbon dioxide, CO2, InChI=1S/CO2/c2-1-3
Compound 2: water, H2O, InChI=1S/H2O/h1H2
Compound 3: oxygen, O2, InChI=1S/O2/c1-2
Compound 4: methyl 4-methoxybenzoate, C9H10O3, InChI=1S/C9H10O3/c1-11-8-5-3-7(4-6-8)9(10)12-2/h3-6H,1-2H3, purity 99%
Compound 5: methyl 2-methoxybenzoate, C9H10O3, InChI=1S/C9H10O3/c1-11-8-6-4-3-5-7(8)9(10)12-2/h3-6H,1-2H3, purity 99%

System: methyl 4-methoxybenzoate; phases: Crystal, Liquid, Air at 1 atmosphere
Property: Triple point temperature, K (Crystal); method: DSC
Triple point temperature, K	uncertainty
321.22	0.81

System: methyl 4-methoxybenzoate; phases: Crystal, Liquid, Air at 1 atmosphere
Property: Molar enthalpy of transition or fusion, kJ/mol (Crystal); method: DSC
Molar enthalpy of transition or fusion, kJ/mol	uncertainty
19.9	0.5

System: methyl 4-methoxybenzoate; phases: Liquid, Gas
Property: Molar enthalpy of vaporization or sublimation, kJ/mol (Liquid); method: Derived by Second law
Temperature, K	Molar enthalpy of vaporization or sublimation, kJ/mol	uncertainty
370	66.4	1.4

System: methyl 2-methoxybenzoate; phases: Crystal, Liquid, Air at 1 atmosphere
Property: Triple point temperature, K (Crystal); method: DSC
Triple point temperature, K	uncertainty
276.42	1

System: methyl 2-methoxybenzoate; phases: Crystal, Liquid, Air at 1 atmosphere
Property: Molar enthalpy of transition or fusion, kJ/mol (Crystal); method: DSC
Molar enthalpy of transition or fusion, kJ/mol	uncertainty
16.6	0.5

System: methyl 2-methoxybenzoate; phases: Liquid, Gas
Property: Molar enthalpy of vaporization or sublimation, kJ/mol (Liquid); method: Derived by Second law
Temperature, K	Molar enthalpy of vaporization or sublimation, kJ/mol	uncertainty
350	61.8	2.3

Reaction: -1 methyl 2-methoxybenzoate + 9 carbon dioxide + 5 water + -10 oxygen
Property: Specific internal energy of reaction at constant volume, J/g
-26990

Reaction: -1 methyl 4-methoxybenzoate + 9 carbon dioxide + 5 water + -10 oxygen
Property: Specific internal energy of reaction at constant volume, J/g
-26722.5
