Measured thermophysical data. Measurement of Mineral Solubilities in the Quaternary Systems KCl MgCl2 ZnCl2 H2O and KCl MgCl2 PbCl2 H2O at 373 K
Source: J. Chem. Eng. Data, 2017, 10.1021/acs.jced.6b00960
Compound 1: potassium chloride, ClK, InChI=1S/ClH.K/h1H;/q;+1/p-1, purity 99.5%
Compound 2: magnesium chloride, Cl2Mg, InChI=1S/2ClH.Mg/h2*1H;/q;;+2/p-2, purity 98%
Compound 3: zinc chloride, Cl2Zn, InChI=1S/2ClH.Zn/h2*1H;/q;;+2/p-2, purity 98%
Compound 4: lead(2+) dichloride, Cl2Pb, InChI=1S/2ClH.Pb/h2*1H;/q;;+2/p-2, purity 99.5%
Compound 5: water, H2O, InChI=1S/H2O/h1H2, purity 99.8%

System: potassium chloride + water + magnesium chloride; phases: Liquid, Crystal of intercomponent compound 1
Fixed: Pressure, kPa = 94.77
Fixed: Temperature, K = 373
Property: Mass fraction of potassium chloride (Liquid); method: Titration method
Mass fraction of magnesium chloride	Mass fraction of potassium chloride	uncertainty
0.314	0.0644	0.0105
0.421	0.005	0.005

System: potassium chloride + water + magnesium chloride; phases: Liquid, Crystal
Property: Mass fraction of potassium chloride (Liquid); method: Titration method
Mass fraction of magnesium chloride	Pressure, kPa	Temperature, K	Mass fraction of potassium chloride	uncertainty
0.314	94.77	373	0.0644	0.01

System: potassium chloride + water + magnesium chloride; phases: Liquid, Crystal of intercomponent compound 2
Property: Mass fraction of potassium chloride (Liquid); method: Titration method
Mass fraction of magnesium chloride	Pressure, kPa	Temperature, K	Mass fraction of potassium chloride	uncertainty
0.421	94.77	373	0.005	0.005

System: potassium chloride + zinc chloride + water; phases: Liquid, Crystal of intercomponent compound 1
Fixed: Pressure, kPa = 94.77
Fixed: Temperature, K = 373
Property: Mass fraction of potassium chloride (Liquid); method: Titration method
Mass fraction of zinc chloride	Mass fraction of potassium chloride	uncertainty
0.3774	0.4314	0.0106
0.6205	0.2933	0.0106

System: potassium chloride + zinc chloride + water; phases: Liquid, Crystal
Property: Mass fraction of potassium chloride (Liquid); method: Titration method
Mass fraction of zinc chloride	Pressure, kPa	Temperature, K	Mass fraction of potassium chloride	uncertainty
0.3774	94.77	373	0.4314	0.01

System: potassium chloride + zinc chloride + water; phases: Liquid, Crystal
Property: Mass fraction of potassium chloride (Liquid); method: Titration method
Mass fraction of zinc chloride	Pressure, kPa	Temperature, K	Mass fraction of potassium chloride	uncertainty
0.6205	94.77	373	0.2933	0.01

System: zinc chloride + water + magnesium chloride; phases: Liquid, Crystal of intercomponent compound 1
Fixed: Pressure, kPa = 94.77
Fixed: Temperature, K = 373
Property: Mass fraction of magnesium chloride (Liquid); method: Titration method
Mass fraction of zinc chloride	Mass fraction of magnesium chloride	uncertainty
0.1134	0.3954	0.0067
0.6251	0.1514	0.0067

System: zinc chloride + water + magnesium chloride; phases: Liquid, Crystal of intercomponent compound 2
Property: Mass fraction of magnesium chloride (Liquid); method: Titration method
Mass fraction of zinc chloride	Pressure, kPa	Temperature, K	Mass fraction of magnesium chloride	uncertainty
0.1134	94.77	373	0.3954	0.0061

System: zinc chloride + water + magnesium chloride; phases: Liquid, Crystal
Property: Mass fraction of magnesium chloride (Liquid); method: Titration method
Mass fraction of zinc chloride	Pressure, kPa	Temperature, K	Mass fraction of magnesium chloride	uncertainty
0.6251	94.77	373	0.1514	0.006

System: potassium chloride + water + lead(2+) dichloride; phases: Liquid, Crystal of intercomponent compound 1
Fixed: Pressure, kPa = 94.77
Fixed: Temperature, K = 373
Property: Mass fraction of potassium chloride (Liquid); method: Titration method
Mass fraction of lead(2+) dichloride	Mass fraction of potassium chloride	uncertainty
0.0214	0.0902	0.0342
0.0676	0.342	0.034

System: potassium chloride + water + lead(2+) dichloride; phases: Liquid, Crystal
Property: Mass fraction of potassium chloride (Liquid); method: Titration method
Mass fraction of lead(2+) dichloride	Pressure, kPa	Temperature, K	Mass fraction of potassium chloride	uncertainty
0.0214	94.77	373	0.0902	0.01

System: potassium chloride + water + lead(2+) dichloride; phases: Liquid, Crystal
Property: Mass fraction of potassium chloride (Liquid); method: Titration method
Mass fraction of lead(2+) dichloride	Pressure, kPa	Temperature, K	Mass fraction of potassium chloride	uncertainty
0.0676	94.77	373	0.342	0.01

System: water + lead(2+) dichloride + magnesium chloride; phases: Liquid, Crystal of intercomponent compound 1
Property: Mass fraction of lead(2+) dichloride (Liquid); method: Titration method
Mass fraction of magnesium chloride	Pressure, kPa	Temperature, K	Mass fraction of lead(2+) dichloride	uncertainty
0.3807	94.77	373	0.0723	0.006

System: water + lead(2+) dichloride + magnesium chloride; phases: Liquid, Crystal
Property: Mass fraction of lead(2+) dichloride (Liquid); method: Titration method
Mass fraction of magnesium chloride	Pressure, kPa	Temperature, K	Mass fraction of lead(2+) dichloride	uncertainty
0.3807	94.77	373	0.0723	0.006
