Measured thermophysical data. Effect of Ethanol and Temperature on Partition Coefficients of Ethyl Acetate, Isoamyl Acetate, and Isoamyl Alcohol: Instrumental and Predictive Investigation
Source: J. Chem. Eng. Data, 2019, 10.1021/acs.jced.8b01125
Compound 1: ethanol, C2H6O, InChI=1S/C2H6O/c1-2-3/h3H,2H2,1H3
Compound 2: ethyl acetate, C4H8O2, InChI=1S/C4H8O2/c1-3-6-4(2)5/h3H2,1-2H3
Compound 3: 3-methylbutan-1-ol, C5H12O, InChI=1S/C5H12O/c1-5(2)3-4-6/h5-6H,3-4H2,1-2H3
Compound 4: 3-methylbutyl ethanoate, C7H14O2, InChI=1S/C7H14O2/c1-6(2)4-5-9-7(3)8/h6H,4-5H2,1-3H3
Compound 5: water, H2O, InChI=1S/H2O/h1H2, purity 99.9%

System: ethyl acetate + water; phases: Gas, Liquid
Fixed: Mole fraction of ethyl acetate = 9.182e-05
Property: Amount concentration (molarity), mol/dm3 of ethyl acetate (Gas); method: headspace chromatography
Temperature, K	Amount concentration (molarity), mol/dm3 of ethyl acetate	uncertainty
303.15	100.49	11.68
313.15	62.98	17.93
323.15	40.89	10.36
333.15	26.55	12.14

System: 3-methylbutyl ethanoate + water; phases: Gas, Liquid
Fixed: Mole fraction of 3-methylbutyl ethanoate = 6.015e-05
Property: Amount concentration (molarity), mol/dm3 of 3-methylbutyl ethanoate (Gas); method: headspace chromatography
Temperature, K	Amount concentration (molarity), mol/dm3 of 3-methylbutyl ethanoate	uncertainty
303.15	36.097	3.904
313.15	20.52	5.51
323.15	10.77	2.63
333.15	5.65	2.24

System: 3-methylbutan-1-ol + water; phases: Gas, Liquid
Fixed: Mole fraction of 3-methylbutan-1-ol = 8.269e-05
Property: Amount concentration (molarity), mol/dm3 of 3-methylbutan-1-ol (Gas); method: headspace chromatography
Temperature, K	Amount concentration (molarity), mol/dm3 of 3-methylbutan-1-ol	uncertainty
303.15	1125.31	58.35
313.15	593.56	239.41
323.15	308.2	76.4
333.15	160.03	80.42

System: ethyl acetate + water + ethanol; phases: Gas, Liquid
Fixed: Temperature, K = 303.15
Fixed: Mole fraction of ethyl acetate = 0
Property: Amount concentration (molarity), mol/dm3 of ethyl acetate (Gas); method: headspace chromatography
Mole fraction of ethanol	Amount concentration (molarity), mol/dm3 of ethyl acetate	uncertainty
0.0164	106.59	0.24
0.034	113.53	6.9
0.0529	121.5	14.82
0.0732	130.72	12
0.0952	141.48	21.1

System: 3-methylbutyl ethanoate + water + ethanol; phases: Gas, Liquid
Fixed: Temperature, K = 303.15
Fixed: Mole fraction of 3-methylbutyl ethanoate = 0
Property: Amount concentration (molarity), mol/dm3 of 3-methylbutyl ethanoate (Gas); method: headspace chromatography
Mole fraction of ethanol	Amount concentration (molarity), mol/dm3 of 3-methylbutyl ethanoate	uncertainty
0.0164	40.29	2.08
0.034	45.34	6.74
0.0529	51.48	7.12
0.0732	59.02	8.52
0.0952	68.43	9.48

System: 3-methylbutan-1-ol + water + ethanol; phases: Gas, Liquid
Fixed: Temperature, K = 303.15
Fixed: Mole fraction of 3-methylbutan-1-ol = 0
Property: Amount concentration (molarity), mol/dm3 of 3-methylbutan-1-ol (Gas); method: headspace chromatography
Mole fraction of ethanol	Amount concentration (molarity), mol/dm3 of 3-methylbutan-1-ol	uncertainty
0.0164	1184.27	249.96
0.034	1250.89	47.88
0.0529	1326.67	293.68
0.0732	1413.51	90.38
