Measured thermophysical data. Volumetric Properties, Viscosity, and Refractive Indices of Different Naringenin Solutions at Several Temperatures
Source: J. Chem. Eng. Data, 2017, 10.1021/acs.jced.7b00299
Compound 1: 4',5,7-trihydroxyflavanone, C15H12O5, InChI=1S/C15H12O5/c16-9-3-1-8(2-4-9)13-7-12(19)15-11(18)5-10(17)6-14(15)20-13/h1-6,13,16-18H,7H2, purity 97%
Compound 2: ethanol, C2H6O, InChI=1S/C2H6O/c1-2-3/h3H,2H2,1H3, purity 99%
Compound 3: propan-1-ol, C3H8O, InChI=1S/C3H8O/c1-2-3-4/h4H,2-3H2,1H3, purity 99%
Compound 4: water, H2O, InChI=1S/H2O/h1H2, purity 99.8%

System: ethanol; phases: Liquid
Fixed: Pressure, kPa = 100
Property: Mass density, kg/m3 (Liquid); method: Vibrating tube method
Temperature, K	Mass density, kg/m3	uncertainty
293.15	789.476	7.896
298.15	788.356	7.884

System: ethanol; phases: Liquid
Fixed: Pressure, kPa = 100
Property: Viscosity, Pa*s (Liquid); method: Capillary tube (Ostwald; Ubbelohde) method
Temperature, K	Viscosity, Pa*s	uncertainty
293.15	0.001159	2.4e-05
298.15	0.001091	2.3e-05

System: ethanol; phases: Liquid
Property: Refractive index (Na D-line) (Liquid); method: Standard Abbe refractometry
Pressure, kPa	Temperature, K	Refractive index (Na D-line)	uncertainty
100	293.15	1.3607	0.001

System: propan-1-ol; phases: Liquid
Fixed: Pressure, kPa = 100
Property: Mass density, kg/m3 (Liquid); method: Vibrating tube method
Temperature, K	Mass density, kg/m3	uncertainty
293.15	803.675	8.038
298.15	800.942	8.01

System: propan-1-ol; phases: Liquid
Fixed: Pressure, kPa = 100
Property: Viscosity, Pa*s (Liquid); method: Capillary tube (Ostwald; Ubbelohde) method
Temperature, K	Viscosity, Pa*s	uncertainty
293.15	0.002407	5e-05
298.15	0.002117	4.4e-05

System: propan-1-ol; phases: Liquid
Property: Refractive index (Na D-line) (Liquid); method: Standard Abbe refractometry
Pressure, kPa	Temperature, K	Refractive index (Na D-line)	uncertainty
100	293.15	1.3862	0.001

System: water; phases: Liquid
Fixed: Pressure, kPa = 100
Property: Mass density, kg/m3 (Liquid); method: Vibrating tube method
Temperature, K	Mass density, kg/m3	uncertainty
293.15	998.206	9.982
298.15	997.046	9.971
308.15	994.024	9.94

System: water; phases: Liquid
Fixed: Pressure, kPa = 100
Property: Viscosity, Pa*s (Liquid); method: Capillary tube (Ostwald; Ubbelohde) method
Temperature, K	Viscosity, Pa*s	uncertainty
293.15	0.001002	2.1e-05
298.15	0.000887	1.8e-05
308.15	0.000728	1.5e-05

System: water; phases: Liquid
Fixed: Pressure, kPa = 100
Property: Refractive index (Na D-line) (Liquid); method: Standard Abbe refractometry
Temperature, K	Refractive index (Na D-line)	uncertainty
298.15	1.3327	0.001
308.15	1.3315	0.001

System: water + ethanol; phases: Liquid
Fixed: Pressure, kPa = 100
Fixed: Molality, mol/kg of ethanol = 16
Property: Mass density, kg/m3 (Liquid); method: Vibrating tube method
Temperature, K	Mass density, kg/m3	uncertainty
298.15	925.8	9.258
303.15	923.139	9.232

System: water + ethanol; phases: Liquid
Fixed: Pressure, kPa = 100
Fixed: Molality, mol/kg of ethanol = 16
Property: Viscosity, Pa*s (Liquid); method: Capillary tube (Ostwald; Ubbelohde) method
Temperature, K	Viscosity, Pa*s	uncertainty
298.15	0.002367	4.9e-05
303.15	0.001992	4.1e-05

System: water + ethanol; phases: Liquid
Property: Refractive index (Na D-line) (Liquid); method: Standard Abbe refractometry
Temperature, K	Pressure, kPa	Molality, mol/kg of ethanol	Refractive index (Na D-line)	uncertainty
298.15	100	16	1.3569	0.001

System: water + propan-1-ol; phases: Liquid
Fixed: Pressure, kPa = 100
Fixed: Molality, mol/kg of propan-1-ol = 14
Property: Mass density, kg/m3 (Liquid); method: Vibrating tube method
Temperature, K	Mass density, kg/m3	uncertainty
298.15	914.36	9.144
313.15	903.156	9.032

System: water + propan-1-ol; phases: Liquid
Fixed: Pressure, kPa = 100
Fixed: Molality, mol/kg of propan-1-ol = 14
Property: Viscosity, Pa*s (Liquid); method: Capillary tube (Ostwald; Ubbelohde) method
Temperature, K	Viscosity, Pa*s	uncertainty
298.15	0.002591	5.4e-05
313.15	0.001618	3.4e-05

System: water + propan-1-ol; phases: Liquid
Property: Refractive index (Na D-line) (Liquid); method: Standard Abbe refractometry
Temperature, K	Pressure, kPa	Molality, mol/kg of propan-1-ol	Refractive index (Na D-line)	uncertainty
298.15	100	14	1.3637	0.001

System: 4',5,7-trihydroxyflavanone + ethanol + water; phases: Liquid
Fixed: Pressure, kPa = 100
Property: Mass density, kg/m3 (Liquid); method: Vibrating tube method
Solvent: Molality, mol/kg of ethanol	Temperature, K	Molality, mol/kg of 4',5,7-trihydroxyflavanone	Mass density, kg/m3	uncertainty
24	293.15	0	908.71	9.088
24	293.15	0.0102	909.641	9.097
24	293.15	0.0201	910.532	9.106
24	293.15	0.0301	911.393	9.115
24	293.15	0.0401	912.245	9.123
24	293.15	0.0501	913.065	9.132
24	298.15	0	904.674	9.048
24	298.15	0.0102	905.615	9.057
24	298.15	0.0201	906.509	9.066
24	298.15	0.0301	907.385	9.075
24	298.15	0.0401	908.242	9.083
24	298.15	0.0501	909.063	9.092
24	303.15	0	900.572	9.007
24	303.15	0.0102	901.522	9.016
24	303.15	0.0201	902.425	9.025
24	303.15	0.0301	903.303	9.034
24	303.15	0.0401	904.17	9.043
24	303.15	0.0501	904.998	9.051
24	308.15	0	896.404	8.965
24	308.15	0.0102	897.364	8.975
24	308.15	0.0201	898.279	8.984
24	308.15	0.0301	899.162	8.993
24	308.15	0.0401	900.027	9.001
24	308.15	0.0501	900.882	9.01
24	313.15	0	892.171	8.923
24	313.15	0.0102	893.142	8.933
24	313.15	0.0201	894.065	8.942
24	313.15	0.0301	894.956	8.951
24	313.15	0.0401	895.834	8.959
24	313.15	0.0501	896.69	8.968
24	318.15	0	887.872	8.88
24	318.15	0.0102	888.854	8.89
24	318.15	0.0201	889.786	8.899
24	318.15	0.0301	890.687	8.908
24	318.15	0.0401	891.577	8.917
24	318.15	0.0501	892.436	8.925
24	323.15	0	883.502	8.836
24	323.15	0.0102	884.496	8.846
24	323.15	0.0201	885.432	8.855
24	323.15	0.0301	886.35	8.865
24	323.15	0.0401	887.252	8.874
24	323.15	0.0501	888.111	8.882
28	293.15	0	899.992	9.001
28	293.15	0.01	900.845	9.009
28	293.15	0.0201	901.672	9.018
28	293.15	0.03	902.462	9.026
28	293.15	0.0401	903.232	9.033
28	293.15	0.0501	903.989	9.041
28	298.15	0	895.83	8.959
28	298.15	0.01	896.693	8.968
28	298.15	0.0201	897.529	8.976
28	298.15	0.03	898.338	8.984
28	298.15	0.0401	899.11	8.992
28	298.15	0.0501	899.887	9
28	303.15	0	891.793	8.919
28	303.15	0.01	892.671	8.928
28	303.15	0.0201	893.527	8.936
28	303.15	0.03	894.347	8.945
28	303.15	0.0401	895.151	8.953
28	303.15	0.0501	895.917	8.96
28	308.15	0	886.977	8.871
28	308.15	0.01	887.87	8.88
28	308.15	0.0201	888.745	8.889
28	308.15	0.03	889.576	8.897
28	308.15	0.0401	890.391	8.905
28	308.15	0.0501	891.18	8.913
28	313.15	0	882.783	8.829
28	313.15	0.01	883.688	8.838
28	313.15	0.0201	884.565	8.847
28	313.15	0.03	885.409	8.855
28	313.15	0.0401	886.232	8.863
28	313.15	0.0501	887.032	8.871
28	318.15	0	878.777	8.789
28	318.15	0.01	879.693	8.798
28	318.15	0.0201	880.576	8.807
28	318.15	0.03	881.44	8.816
28	318.15	0.0401	882.274	8.824
28	318.15	0.0501	883.069	8.832
28	323.15	0	873.986	8.741
28	323.15	0.01	874.913	8.75
28	323.15	0.0201	875.809	8.759
28	323.15	0.03	876.676	8.768
28	323.15	0.0401	877.515	8.776
28	323.15	0.0501	878.331	8.784
32	293.15	0	892.458	8.926
32	293.15	0.0102	893.341	8.934
32	293.15	0.0201	894.178	8.943
32	293.15	0.0301	894.997	8.951
32	293.15	0.0401	895.799	8.959
32	293.15	0.0501	896.583	8.967
32	298.15	0	888.313	8.884
32	298.15	0.0102	889.212	8.893
32	298.15	0.0201	890.066	8.902
32	298.15	0.0301	890.899	8.91
32	298.15	0.0401	891.713	8.918
32	298.15	0.0501	892.513	8.926
32	303.15	0	884.095	8.842
32	303.15	0.0102	885.006	8.851
32	303.15	0.0201	885.865	8.86
32	303.15	0.0301	886.716	8.868
32	303.15	0.0401	887.537	8.876
32	303.15	0.0501	888.342	8.884
32	308.15	0	879.584	8.797
32	308.15	0.0102	880.775	8.809
32	308.15	0.0201	881.649	8.818
32	308.15	0.0301	882.511	8.826
32	308.15	0.0401	883.336	8.834
32	308.15	0.0501	884.151	8.843
32	313.15	0	875.489	8.756
32	313.15	0.0102	876.421	8.765
32	313.15	0.0201	877.311	8.774
32	313.15	0.0301	878.182	8.783
32	313.15	0.0401	879.027	8.791
32	313.15	0.0501	879.832	8.799
32	318.15	0	871.096	8.712
32	318.15	0.0102	872.043	8.722
32	318.15	0.0201	872.942	8.731
32	318.15	0.0301	873.822	8.739
32	318.15	0.0401	874.679	8.748
32	318.15	0.0501	875.511	8.756
32	323.15	0	866.666	8.668
32	323.15	0.0102	867.622	8.677
32	323.15	0.0201	868.527	8.686
32	323.15	0.0301	869.417	8.695
32	323.15	0.0401	870.272	8.704
32	323.15	0.0501	871.115	8.712
36	293.15	0	885.981	8.861
36	293.15	0.0102	886.888	8.87
36	293.15	0.0201	887.749	8.879
36	293.15	0.03	888.601	8.887
36	293.15	0.04	889.426	8.895
36	293.15	0.0501	890.239	8.903
36	298.15	0	881.777	8.819
36	298.15	0.0102	882.699	8.828
36	298.15	0.0201	883.569	8.837
36	298.15	0.03	884.431	8.845
36	298.15	0.04	885.271	8.854
36	298.15	0.0501	886.102	8.862
36	303.15	0	877.532	8.776
36	303.15	0.0102	878.467	8.786
36	303.15	0.0201	879.35	8.795
36	303.15	0.03	880.225	8.803
36	303.15	0.04	881.075	8.812
36	303.15	0.0501	881.917	8.82
36	308.15	0	873.214	8.733
36	308.15	0.0102	874.161	8.743
36	308.15	0.0201	875.058	8.752
36	308.15	0.03	875.941	8.761
36	308.15	0.04	876.803	8.769
36	308.15	0.0501	877.658	8.778
36	313.15	0	868.871	8.69
36	313.15	0.0102	869.827	8.699
36	313.15	0.0201	870.738	8.709
36	313.15	0.03	871.623	8.717
36	313.15	0.04	872.493	8.726
36	313.15	0.0501	873.356	8.735
36	318.15	0	864.413	8.645
36	318.15	0.0102	865.383	8.655
36	318.15	0.0201	866.305	8.664
36	318.15	0.03	867.207	8.673
36	318.15	0.04	868.087	8.682
36	318.15	0.0501	868.96	8.691
36	323.15	0	859.898	8.6
36	323.15	0.0102	860.877	8.61
36	323.15	0.0201	861.805	8.619
36	323.15	0.03	862.721	8.628
36	323.15	0.04	863.605	8.637
36	323.15	0.0501	864.481	8.646
40	293.15	0	880.39	8.805
40	293.15	0.0101	881.323	8.814
40	293.15	0.0201	882.221	8.823
40	293.15	0.0301	883.098	8.832
40	293.15	0.0401	883.956	8.841
40	293.15	0.0501	884.797	8.849
40	298.15	0	876.159	8.763
40	298.15	0.0101	877.107	8.772
40	298.15	0.0201	878.015	8.781
40	298.15	0.0301	878.9	8.79
40	298.15	0.0401	879.777	8.799
40	298.15	0.0501	880.63	8.807
40	303.15	0	871.898	8.72
40	303.15	0.0101	872.854	8.73
40	303.15	0.0201	873.776	8.739
40	303.15	0.0301	874.677	8.748
40	303.15	0.0401	875.549	8.757
40	303.15	0.0501	876.407	8.765
40	308.15	0	867.544	8.677
40	308.15	0.0101	868.513	8.686
40	308.15	0.0201	869.442	8.696
40	308.15	0.0301	870.357	8.705
40	308.15	0.0401	871.245	8.714
40	308.15	0.0501	872.108	8.722
40	313.15	0	863.138	8.633
40	313.15	0.0101	864.118	8.642
40	313.15	0.0201	865.055	8.652
40	313.15	0.0301	865.98	8.661
40	313.15	0.0401	866.881	8.67
40	313.15	0.0501	867.746	8.679
40	318.15	0	858.677	8.588
40	318.15	0.0101	859.669	8.598
40	318.15	0.0201	860.614	8.607
40	318.15	0.0301	861.55	8.617
40	318.15	0.0401	862.458	8.626
40	318.15	0.0501	863.337	8.635
40	323.15	0	854.144	8.543
40	323.15	0.0101	855.147	8.553
40	323.15	0.0201	856.104	8.562
40	323.15	0.0301	857.042	8.572
40	323.15	0.0401	857.959	8.581
40	323.15	0.0501	858.858	8.59

System: 4',5,7-trihydroxyflavanone + ethanol + water; phases: Liquid
Fixed: Pressure, kPa = 100
Property: Viscosity, Pa*s (Liquid); method: Capillary tube (Ostwald; Ubbelohde) method
Solvent: Molality, mol/kg of ethanol	Temperature, K	Molality, mol/kg of 4',5,7-trihydroxyflavanone	Viscosity, Pa*s	uncertainty
24	293.15	0	0.002786	5.8e-05
24	293.15	0.0102	0.002797	5.9e-05
24	293.15	0.0201	0.002819	5.9e-05
24	293.15	0.0301	0.00284	5.9e-05
24	293.15	0.0401	0.002854	6e-05
24	293.15	0.0501	0.002873	6e-05
24	298.15	0	0.002341	4.9e-05
24	298.15	0.0102	0.002357	4.9e-05
24	298.15	0.0201	0.002373	5e-05
24	298.15	0.0301	0.002385	5e-05
24	298.15	0.0401	0.002398	5e-05
24	298.15	0.0501	0.002409	5e-05
24	303.15	0	0.001995	4.2e-05
24	303.15	0.0102	0.00201	4.2e-05
24	303.15	0.0201	0.002015	4.2e-05
24	303.15	0.0301	0.00203	4.3e-05
24	303.15	0.0401	0.00204	4.3e-05
24	303.15	0.0501	0.002058	4.3e-05
24	308.15	0	0.001716	3.6e-05
24	308.15	0.0102	0.001729	3.6e-05
24	308.15	0.0201	0.001736	3.6e-05
24	308.15	0.0301	0.001746	3.7e-05
24	308.15	0.0401	0.001754	3.7e-05
24	308.15	0.0501	0.001765	3.7e-05
24	313.15	0	0.001492	3.1e-05
24	313.15	0.0102	0.001503	3.2e-05
24	313.15	0.0201	0.00151	3.2e-05
24	313.15	0.0301	0.001516	3.2e-05
24	313.15	0.0401	0.001523	3.2e-05
24	313.15	0.0501	0.001535	3.2e-05
24	318.15	0	0.001308	2.7e-05
24	318.15	0.0102	0.001317	2.8e-05
24	318.15	0.0201	0.001325	2.8e-05
24	318.15	0.0301	0.001329	2.8e-05
24	318.15	0.0401	0.001335	2.8e-05
24	318.15	0.0501	0.001346	2.8e-05
24	323.15	0	0.001154	2.4e-05
24	323.15	0.0102	0.001164	2.4e-05
24	323.15	0.0201	0.001168	2.5e-05
24	323.15	0.0301	0.001174	2.5e-05
24	323.15	0.0401	0.001179	2.5e-05
24	323.15	0.0501	0.001184	2.5e-05
28	293.15	0	0.002694	5.6e-05
28	293.15	0.01	0.002715	5.7e-05
28	293.15	0.0201	0.002741	5.7e-05
28	293.15	0.03	0.002745	5.7e-05
28	293.15	0.0401	0.002776	5.8e-05
28	293.15	0.0501	0.002793	5.8e-05
28	298.15	0	0.002276	4.8e-05
28	298.15	0.01	0.002296	4.8e-05
28	298.15	0.0201	0.002313	4.8e-05
28	298.15	0.03	0.002321	4.9e-05
28	298.15	0.0401	0.002342	4.9e-05
28	298.15	0.0501	0.002356	4.9e-05
28	303.15	0	0.001944	4.1e-05
28	303.15	0.01	0.00196	4.1e-05
28	303.15	0.0201	0.001976	4.1e-05
28	303.15	0.03	0.001983	4.2e-05
28	303.15	0.0401	0.002	4.2e-05
28	303.15	0.0501	0.002012	4.2e-05
28	308.15	0	0.001678	3.5e-05
28	308.15	0.01	0.001691	3.5e-05
28	308.15	0.0201	0.001705	3.6e-05
28	308.15	0.03	0.001708	3.6e-05
28	308.15	0.0401	0.001725	3.6e-05
28	308.15	0.0501	0.001735	3.6e-05
28	313.15	0	0.001462	3.1e-05
28	313.15	0.01	0.001473	3.1e-05
28	313.15	0.0201	0.001483	3.1e-05
28	313.15	0.03	0.00149	3.1e-05
28	313.15	0.0401	0.001502	3.2e-05
28	313.15	0.0501	0.001511	3.2e-05
28	318.15	0	0.001284	2.7e-05
28	318.15	0.01	0.001293	2.7e-05
28	318.15	0.0201	0.001304	2.7e-05
28	318.15	0.03	0.001306	2.7e-05
28	318.15	0.0401	0.001318	2.8e-05
28	318.15	0.0501	0.001326	2.8e-05
28	323.15	0	0.001137	2.4e-05
28	323.15	0.01	0.001145	2.4e-05
28	323.15	0.0201	0.001154	2.4e-05
28	323.15	0.03	0.001155	2.4e-05
28	323.15	0.0401	0.001166	2.5e-05
28	323.15	0.0501	0.001173	2.5e-05
32	293.15	0	0.002625	5.5e-05
32	293.15	0.0102	0.002632	5.5e-05
32	293.15	0.0201	0.002662	5.6e-05
32	293.15	0.0301	0.002678	5.6e-05
32	293.15	0.0401	0.002699	5.6e-05
32	293.15	0.0501	0.002716	5.7e-05
32	298.15	0	0.002224	4.7e-05
32	298.15	0.0102	0.002235	4.7e-05
32	298.15	0.0201	0.002256	4.7e-05
32	298.15	0.0301	0.002269	4.8e-05
32	298.15	0.0401	0.002286	4.8e-05
32	298.15	0.0501	0.0023	4.8e-05
32	303.15	0	0.001908	4e-05
32	303.15	0.0102	0.00192	4e-05
32	303.15	0.0201	0.001934	4.1e-05
32	303.15	0.0301	0.001946	4.1e-05
32	303.15	0.0401	0.00196	4.1e-05
32	303.15	0.0501	0.001971	4.1e-05
32	308.15	0	0.001652	3.5e-05
32	308.15	0.0102	0.00166	3.5e-05
32	308.15	0.0201	0.001674	3.5e-05
32	308.15	0.0301	0.001685	3.5e-05
32	308.15	0.0401	0.001696	3.6e-05
32	308.15	0.0501	0.001705	3.6e-05
32	313.15	0	0.001443	3e-05
32	313.15	0.0102	0.00145	3e-05
32	313.15	0.0201	0.001461	3.1e-05
32	313.15	0.0301	0.00147	3.1e-05
32	313.15	0.0401	0.00148	3.1e-05
32	313.15	0.0501	0.001489	3.1e-05
32	318.15	0	0.00127	2.7e-05
32	318.15	0.0102	0.001276	2.7e-05
32	318.15	0.0201	0.001286	2.7e-05
32	318.15	0.0301	0.001293	2.7e-05
32	318.15	0.0401	0.001302	2.7e-05
32	318.15	0.0501	0.001309	2.7e-05
32	323.15	0	0.001126	2.4e-05
32	323.15	0.0102	0.001135	2.4e-05
32	323.15	0.0201	0.001139	2.4e-05
32	323.15	0.0301	0.001146	2.4e-05
32	323.15	0.0401	0.001154	2.4e-05
32	323.15	0.0501	0.00116	2.4e-05
36	293.15	0	0.002551	5.3e-05
36	293.15	0.0102	0.002573	5.4e-05
36	293.15	0.0201	0.00258	5.4e-05
36	293.15	0.03	0.002609	5.5e-05
36	293.15	0.04	0.002616	5.5e-05
36	293.15	0.0501	0.002635	5.5e-05
36	298.15	0	0.002169	4.5e-05
36	298.15	0.0102	0.002179	4.6e-05
36	298.15	0.0201	0.002194	4.6e-05
36	298.15	0.03	0.002212	4.6e-05
36	298.15	0.04	0.002225	4.7e-05
36	298.15	0.0501	0.002241	4.7e-05
36	303.15	0	0.001869	3.9e-05
36	303.15	0.0102	0.001884	3.9e-05
36	303.15	0.0201	0.001894	4e-05
36	303.15	0.03	0.001908	4e-05
36	303.15	0.04	0.001914	4e-05
36	303.15	0.0501	0.001926	4e-05
36	308.15	0	0.001621	3.4e-05
36	308.15	0.0102	0.001634	3.4e-05
36	308.15	0.0201	0.001638	3.4e-05
36	308.15	0.03	0.001654	3.5e-05
36	308.15	0.04	0.001661	3.5e-05
36	308.15	0.0501	0.001671	3.5e-05
36	313.15	0	0.001418	3e-05
36	313.15	0.0102	0.001428	3e-05
36	313.15	0.0201	0.001433	3e-05
36	313.15	0.03	0.001446	3e-05
36	313.15	0.04	0.001452	3e-05
36	313.15	0.0501	0.001461	3.1e-05
36	318.15	0	0.001251	2.6e-05
36	318.15	0.0102	0.00126	2.6e-05
36	318.15	0.0201	0.001265	2.7e-05
36	318.15	0.03	0.001275	2.7e-05
36	318.15	0.04	0.00128	2.7e-05
36	318.15	0.0501	0.001287	2.7e-05
36	323.15	0	0.001111	2.3e-05
36	323.15	0.0102	0.001119	2.4e-05
36	323.15	0.0201	0.001125	2.4e-05
36	323.15	0.03	0.001132	2.4e-05
36	323.15	0.04	0.001136	2.4e-05
36	323.15	0.0501	0.001143	2.4e-05
40	293.15	0	0.002503	5.2e-05
40	293.15	0.0101	0.002514	5.3e-05
40	293.15	0.0201	0.002525	5.3e-05
40	293.15	0.0301	0.00255	5.3e-05
40	293.15	0.0401	0.002568	5.4e-05
40	293.15	0.0501	0.002586	5.4e-05
40	298.15	0	0.002125	4.5e-05
40	298.15	0.0101	0.00214	4.5e-05
40	298.15	0.0201	0.002153	4.5e-05
40	298.15	0.0301	0.002162	4.5e-05
40	298.15	0.0401	0.002174	4.6e-05
40	298.15	0.0501	0.002193	4.6e-05
40	303.15	0	0.001833	3.8e-05
40	303.15	0.0101	0.001848	3.9e-05
40	303.15	0.0201	0.001858	3.9e-05
40	303.15	0.0301	0.001865	3.9e-05
40	303.15	0.0401	0.001875	3.9e-05
40	303.15	0.0501	0.001889	4e-05
40	308.15	0	0.001595	3.3e-05
40	308.15	0.0101	0.001603	3.4e-05
40	308.15	0.0201	0.001615	3.4e-05
40	308.15	0.0301	0.001624	3.4e-05
40	308.15	0.0401	0.00163	3.4e-05
40	308.15	0.0501	0.001641	3.4e-05
40	313.15	0	0.001401	2.9e-05
40	313.15	0.0101	0.001407	3e-05
40	313.15	0.0201	0.001415	3e-05
40	313.15	0.0301	0.001424	3e-05
40	313.15	0.0401	0.001432	3e-05
40	313.15	0.0501	0.001443	3e-05
40	318.15	0	0.001238	2.6e-05
40	318.15	0.0101	0.001243	2.6e-05
40	318.15	0.0201	0.001251	2.6e-05
40	318.15	0.0301	0.001257	2.6e-05
40	318.15	0.0401	0.001266	2.7e-05
40	318.15	0.0501	0.001273	2.7e-05
40	323.15	0	0.001096	2.3e-05
40	323.15	0.0101	0.001101	2.3e-05
40	323.15	0.0201	0.001106	2.3e-05
40	323.15	0.0301	0.001113	2.3e-05
40	323.15	0.0401	0.001121	2.4e-05
40	323.15	0.0501	0.001127	2.4e-05

System: 4',5,7-trihydroxyflavanone + ethanol + water; phases: Liquid
Fixed: Temperature, K = 298.15
Fixed: Pressure, kPa = 100
Property: Refractive index (Na D-line) (Liquid); method: Standard Abbe refractometry
Solvent: Molality, mol/kg of ethanol	Molality, mol/kg of 4',5,7-trihydroxyflavanone	Refractive index (Na D-line)	uncertainty
24	0	1.3601	0.001
24	0.0102	1.3606	0.001
24	0.0201	1.361	0.001
24	0.0301	1.3617	0.001
24	0.0401	1.3622	0.001
24	0.0501	1.3627	0.001
28	0	1.3611	0.001
28	0.01	1.3617	0.001
28	0.0201	1.3624	0.001
28	0.03	1.3629	0.001
28	0.0401	1.3634	0.001
28	0.0501	1.364	0.001
32	0	1.3616	0.001
32	0.0102	1.3622	0.001
32	0.0201	1.3627	0.001
32	0.0301	1.3633	0.001
32	0.0401	1.3639	0.001
32	0.0501	1.3644	0.001
36	0	1.3623	0.001
36	0.0102	1.3626	0.001
36	0.0201	1.363	0.001
36	0.03	1.3636	0.001
36	0.04	1.3642	0.001
36	0.0501	1.3647	0.001
40	0	1.3627	0.001
40	0.0101	1.3633	0.001
40	0.0201	1.3636	0.001
40	0.0301	1.364	0.001
40	0.0401	1.3643	0.001
40	0.0501	1.3649	0.001

System: 4',5,7-trihydroxyflavanone + propan-1-ol + water; phases: Liquid
Fixed: Pressure, kPa = 100
Property: Mass density, kg/m3 (Liquid); method: Vibrating tube method
Solvent: Molality, mol/kg of propan-1-ol	Temperature, K	Molality, mol/kg of 4',5,7-trihydroxyflavanone	Mass density, kg/m3	uncertainty
24	293.15	0	890.414	8.905
24	293.15	0.0102	891.331	8.915
24	293.15	0.0201	892.201	8.923
24	293.15	0.0301	893.056	8.932
24	293.15	0.0401	893.887	8.94
24	293.15	0.05	894.689	8.948
24	298.15	0	886.561	8.867
24	298.15	0.0102	887.497	8.876
24	298.15	0.0201	888.381	8.885
24	298.15	0.0301	889.252	8.894
24	298.15	0.0401	890.1	8.902
24	298.15	0.05	890.921	8.91
24	303.15	0	882.639	8.828
24	303.15	0.0102	883.581	8.837
24	303.15	0.0201	884.479	8.846
24	303.15	0.0301	885.357	8.855
24	303.15	0.0401	886.206	8.863
24	303.15	0.05	887.029	8.872
24	308.15	0	878.651	8.788
24	308.15	0.0102	879.606	8.797
24	308.15	0.0201	880.518	8.807
24	308.15	0.0301	881.403	8.815
24	308.15	0.0401	882.265	8.824
24	308.15	0.05	883.102	8.832
24	313.15	0	874.6	8.747
24	313.15	0.0102	875.566	8.757
24	313.15	0.0201	876.479	8.766
24	313.15	0.0301	877.375	8.775
24	313.15	0.0401	878.246	8.784
24	313.15	0.05	879.093	8.792
24	318.15	0	870.485	8.706
24	318.15	0.0102	871.462	8.716
24	318.15	0.0201	872.386	8.725
24	318.15	0.0301	873.295	8.734
24	318.15	0.0401	874.172	8.743
24	318.15	0.05	875.028	8.752
24	323.15	0	866.309	8.664
24	323.15	0.0102	867.295	8.674
24	323.15	0.0201	868.233	8.684
24	323.15	0.0301	869.154	8.693
24	323.15	0.0401	870.036	8.702
24	323.15	0.05	870.895	8.71
28	293.15	0	882.598	8.827
28	293.15	0.0101	883.495	8.836
28	293.15	0.02	884.353	8.845
28	293.15	0.03	885.187	8.853
28	293.15	0.0399	886.006	8.861
28	293.15	0.05	886.797	8.869
28	298.15	0	878.683	8.788
28	298.15	0.0101	879.594	8.797
28	298.15	0.02	880.458	8.806
28	298.15	0.03	881.307	8.814
28	298.15	0.0399	882.134	8.823
28	298.15	0.05	882.945	8.831
28	303.15	0	874.698	8.748
28	303.15	0.0101	875.619	8.758
28	303.15	0.02	876.497	8.766
28	303.15	0.03	877.354	8.775
28	303.15	0.0399	878.195	8.783
28	303.15	0.05	879.002	8.791
28	308.15	0	870.68	8.708
28	308.15	0.0101	871.614	8.717
28	308.15	0.02	872.506	8.726
28	308.15	0.03	873.375	8.735
28	308.15	0.0399	874.212	8.743
28	308.15	0.05	875.052	8.752
28	313.15	0	866.571	8.667
28	313.15	0.0101	867.521	8.677
28	313.15	0.02	868.425	8.686
28	313.15	0.03	869.305	8.694
28	313.15	0.0399	870.159	8.703
28	313.15	0.05	871.009	8.711
28	318.15	0	862.393	8.625
28	318.15	0.0101	863.355	8.635
28	318.15	0.02	864.269	8.644
28	318.15	0.03	865.159	8.653
28	318.15	0.0399	866.025	8.662
28	318.15	0.05	866.883	8.67
28	323.15	0	858.16	8.583
28	323.15	0.0101	859.134	8.593
28	323.15	0.02	860.058	8.602
28	323.15	0.03	860.959	8.611
28	323.15	0.0399	861.839	8.62
28	323.15	0.05	862.703	8.628
32	293.15	0	876.598	8.767
32	293.15	0.0101	877.452	8.776
32	293.15	0.0201	878.27	8.784
32	293.15	0.03	879.059	8.792
32	293.15	0.0401	879.832	8.8
32	293.15	0.05	880.571	8.807
32	298.15	0	872.673	8.728
32	298.15	0.0101	873.54	8.737
32	298.15	0.0201	874.368	8.745
32	298.15	0.03	875.165	8.753
32	298.15	0.0401	875.948	8.761
32	298.15	0.05	876.702	8.768
32	303.15	0	868.638	8.688
32	303.15	0.0101	869.519	8.697
32	303.15	0.0201	870.354	8.705
32	303.15	0.03	871.167	8.713
32	303.15	0.0401	871.958	8.721
32	303.15	0.05	872.727	8.729
32	308.15	0	864.588	8.647
32	308.15	0.0101	865.476	8.656
32	308.15	0.0201	866.324	8.665
32	308.15	0.03	867.147	8.673
32	308.15	0.0401	867.937	8.681
32	308.15	0.05	868.712	8.688
32	313.15	0	860.4	8.605
32	313.15	0.0101	861.302	8.614
32	313.15	0.0201	862.152	8.623
32	313.15	0.03	862.982	8.631
32	313.15	0.0401	863.793	8.639
32	313.15	0.05	864.583	8.647
32	318.15	0	856.251	8.564
32	318.15	0.0101	857.162	8.573
32	318.15	0.0201	858.026	8.582
32	318.15	0.03	858.868	8.59
32	318.15	0.0401	859.674	8.598
32	318.15	0.05	860.478	8.606
32	323.15	0	851.958	8.521
32	323.15	0.0101	852.883	8.53
32	323.15	0.0201	853.762	8.539
32	323.15	0.03	854.617	8.548
32	323.15	0.0401	855.447	8.556
32	323.15	0.05	856.247	8.564
36	293.15	0	871.227	8.714
36	293.15	0.0101	872.129	8.723
36	293.15	0.0201	872.998	8.731
36	293.15	0.0301	873.845	8.74
36	293.15	0.04	874.672	8.748
36	293.15	0.0499	875.457	8.756
36	298.15	0	867.252	8.674
36	298.15	0.0101	868.167	8.683
36	298.15	0.0201	869.043	8.692
36	298.15	0.0301	869.902	8.7
36	298.15	0.04	870.73	8.709
36	298.15	0.0499	871.547	8.717
36	303.15	0	863.182	8.633
36	303.15	0.0101	864.105	8.642
36	303.15	0.0201	865.004	8.651
36	303.15	0.0301	865.872	8.66
36	303.15	0.04	866.713	8.668
36	303.15	0.0499	867.517	8.677
36	308.15	0	859.057	8.592
36	308.15	0.0101	859.992	8.601
36	308.15	0.0201	860.893	8.61
36	308.15	0.0301	861.764	8.619
36	308.15	0.04	862.626	8.628
36	308.15	0.0499	863.438	8.636
36	313.15	0	854.873	8.55
36	313.15	0.0101	855.815	8.56
36	313.15	0.0201	856.726	8.569
36	313.15	0.0301	857.602	8.577
36	313.15	0.04	858.472	8.586
36	313.15	0.0499	859.286	8.594
36	318.15	0	850.649	8.508
36	318.15	0.0101	851.598	8.517
36	318.15	0.0201	852.52	8.527
36	318.15	0.0301	853.399	8.535
36	318.15	0.04	854.266	8.544
36	318.15	0.0499	855.103	8.552
36	323.15	0	846.336	8.465
36	323.15	0.0101	847.298	8.474
36	323.15	0.0201	848.228	8.484
36	323.15	0.0301	849.123	8.493
36	323.15	0.04	850.003	8.501
36	323.15	0.0499	850.839	8.51
40	293.15	0	866.652	8.668
40	293.15	0.0101	867.585	8.677
40	293.15	0.02	868.467	8.686
40	293.15	0.03	869.347	8.695
40	293.15	0.04	870.195	8.703
40	293.15	0.05	871.031	8.712
40	298.15	0	862.617	8.628
40	298.15	0.0101	863.564	8.637
40	298.15	0.02	864.462	8.646
40	298.15	0.03	865.349	8.655
40	298.15	0.04	866.215	8.663
40	298.15	0.05	867.061	8.672
40	303.15	0	858.531	8.587
40	303.15	0.0101	859.487	8.596
40	303.15	0.02	860.399	8.605
40	303.15	0.03	861.296	8.614
40	303.15	0.04	862.169	8.623
40	303.15	0.05	863.015	8.631
40	308.15	0	854.394	8.545
40	308.15	0.0101	855.36	8.555
40	308.15	0.02	856.279	8.564
40	308.15	0.03	857.183	8.573
40	308.15	0.04	858.058	8.582
40	308.15	0.05	858.925	8.591
40	313.15	0	850.192	8.503
40	313.15	0.0101	851.169	8.513
40	313.15	0.02	852.093	8.522
40	313.15	0.03	853.014	8.532
40	313.15	0.04	853.898	8.54
40	313.15	0.05	854.764	8.549
40	318.15	0	845.933	8.461
40	318.15	0.0101	846.918	8.471
40	318.15	0.02	847.85	8.48
40	318.15	0.03	848.773	8.489
40	318.15	0.04	849.667	8.498
40	318.15	0.05	850.544	8.507
40	323.15	0	841.606	8.418
40	323.15	0.0101	842.606	8.428
40	323.15	0.02	843.553	8.437
40	323.15	0.03	844.493	8.446
40	323.15	0.04	845.392	8.455
40	323.15	0.05	846.291	8.464

System: 4',5,7-trihydroxyflavanone + propan-1-ol + water; phases: Liquid
Fixed: Pressure, kPa = 100
Property: Viscosity, Pa*s (Liquid); method: Capillary tube (Ostwald; Ubbelohde) method
Solvent: Molality, mol/kg of propan-1-ol	Temperature, K	Molality, mol/kg of 4',5,7-trihydroxyflavanone	Viscosity, Pa*s	uncertainty
24	293.15	0	0.003165	6.6e-05
24	293.15	0.0102	0.003188	6.7e-05
24	293.15	0.0201	0.003215	6.7e-05
24	293.15	0.0301	0.003252	6.8e-05
24	293.15	0.0401	0.003276	6.9e-05
24	293.15	0.05	0.003292	6.9e-05
24	298.15	0	0.002663	5.6e-05
24	298.15	0.0102	0.002684	5.6e-05
24	298.15	0.0201	0.002705	5.7e-05
24	298.15	0.0301	0.002735	5.7e-05
24	298.15	0.0401	0.002754	5.8e-05
24	298.15	0.05	0.002767	5.8e-05
24	303.15	0	0.00227	4.8e-05
24	303.15	0.0102	0.002289	4.8e-05
24	303.15	0.0201	0.002306	4.8e-05
24	303.15	0.0301	0.00233	4.9e-05
24	303.15	0.0401	0.002346	4.9e-05
24	303.15	0.05	0.002357	4.9e-05
24	308.15	0	0.001955	4.1e-05
24	308.15	0.0102	0.001971	4.1e-05
24	308.15	0.0201	0.001985	4.2e-05
24	308.15	0.0301	0.002006	4.2e-05
24	308.15	0.0401	0.00202	4.2e-05
24	308.15	0.05	0.002028	4.3e-05
24	313.15	0	0.0017	3.6e-05
24	313.15	0.0102	0.001714	3.6e-05
24	313.15	0.0201	0.001726	3.6e-05
24	313.15	0.0301	0.001743	3.7e-05
24	313.15	0.0401	0.001755	3.7e-05
24	313.15	0.05	0.001762	3.7e-05
24	318.15	0	0.001491	3.1e-05
24	318.15	0.0102	0.001503	3.2e-05
24	318.15	0.0201	0.001513	3.2e-05
24	318.15	0.0301	0.001528	3.2e-05
24	318.15	0.0401	0.001537	3.2e-05
24	318.15	0.05	0.001544	3.2e-05
24	323.15	0	0.001317	2.8e-05
24	323.15	0.0102	0.001327	2.8e-05
24	323.15	0.0201	0.001336	2.8e-05
24	323.15	0.0301	0.001349	2.8e-05
24	323.15	0.0401	0.001357	2.9e-05
24	323.15	0.05	0.001363	2.9e-05
28	293.15	0	0.003136	6.6e-05
28	293.15	0.0101	0.003158	6.6e-05
28	293.15	0.02	0.003201	6.7e-05
28	293.15	0.03	0.003222	6.8e-05
28	293.15	0.0399	0.003248	6.8e-05
28	293.15	0.05	0.003276	6.9e-05
28	298.15	0	0.002646	5.6e-05
28	298.15	0.0101	0.002665	5.6e-05
28	298.15	0.02	0.002697	5.7e-05
28	298.15	0.03	0.002717	5.7e-05
28	298.15	0.0399	0.002738	5.7e-05
28	298.15	0.05	0.002761	5.8e-05
28	303.15	0	0.00226	4.7e-05
28	303.15	0.0101	0.002276	4.8e-05
28	303.15	0.02	0.002304	4.8e-05
28	303.15	0.03	0.002321	4.9e-05
28	303.15	0.0399	0.002337	4.9e-05
28	303.15	0.05	0.002357	4.9e-05
28	308.15	0	0.00195	4.1e-05
28	308.15	0.0101	0.001964	4.1e-05
28	308.15	0.02	0.001987	4.2e-05
28	308.15	0.03	0.002	4.2e-05
28	308.15	0.0399	0.002015	4.2e-05
28	308.15	0.05	0.002032	4.3e-05
28	313.15	0	0.001697	3.6e-05
28	313.15	0.0101	0.001709	3.6e-05
28	313.15	0.02	0.001728	3.6e-05
28	313.15	0.03	0.001741	3.7e-05
28	313.15	0.0399	0.001752	3.7e-05
28	313.15	0.05	0.001767	3.7e-05
28	318.15	0	0.001489	3.1e-05
28	318.15	0.0101	0.001499	3.2e-05
28	318.15	0.02	0.001516	3.2e-05
28	318.15	0.03	0.001527	3.2e-05
28	318.15	0.0399	0.001535	3.2e-05
28	318.15	0.05	0.001549	3.3e-05
28	323.15	0	0.001317	2.8e-05
28	323.15	0.0101	0.001325	2.8e-05
28	323.15	0.02	0.00134	2.8e-05
28	323.15	0.03	0.00135	2.8e-05
28	323.15	0.0399	0.001357	2.9e-05
28	323.15	0.05	0.001368	2.9e-05
32	293.15	0	0.003103	6.5e-05
32	293.15	0.0101	0.003129	6.6e-05
32	293.15	0.0201	0.003153	6.6e-05
32	293.15	0.03	0.003193	6.7e-05
32	293.15	0.0401	0.003226	6.8e-05
32	293.15	0.05	0.003246	6.8e-05
32	298.15	0	0.002627	5.5e-05
32	298.15	0.0101	0.002657	5.6e-05
32	298.15	0.0201	0.002682	5.6e-05
32	298.15	0.03	0.002699	5.7e-05
32	298.15	0.0401	0.002726	5.7e-05
32	298.15	0.05	0.002742	5.8e-05
32	303.15	0	0.002246	4.7e-05
32	303.15	0.0101	0.002272	4.8e-05
32	303.15	0.0201	0.002285	4.8e-05
32	303.15	0.03	0.002308	4.8e-05
32	303.15	0.0401	0.002331	4.9e-05
32	303.15	0.05	0.002344	4.9e-05
32	308.15	0	0.001941	4.1e-05
32	308.15	0.0101	0.001962	4.1e-05
32	308.15	0.0201	0.001979	4.2e-05
32	308.15	0.03	0.001993	4.2e-05
32	308.15	0.0401	0.002012	4.2e-05
32	308.15	0.05	0.002023	4.3e-05
32	313.15	0	0.001691	3.6e-05
32	313.15	0.0101	0.001711	3.6e-05
32	313.15	0.0201	0.001721	3.6e-05
32	313.15	0.03	0.001735	3.6e-05
32	313.15	0.0401	0.001752	3.7e-05
32	313.15	0.05	0.001761	3.7e-05
32	318.15	0	0.001484	3.1e-05
32	318.15	0.0101	0.0015	3.2e-05
32	318.15	0.0201	0.00151	3.2e-05
32	318.15	0.03	0.001523	3.2e-05
32	318.15	0.0401	0.001538	3.2e-05
32	318.15	0.05	0.001545	3.3e-05
32	323.15	0	0.001313	2.8e-05
32	323.15	0.0101	0.001328	2.8e-05
32	323.15	0.0201	0.001336	2.8e-05
32	323.15	0.03	0.001346	2.8e-05
32	323.15	0.0401	0.001359	2.9e-05
32	323.15	0.05	0.001365	2.9e-05
36	293.15	0	0.003066	6.4e-05
36	293.15	0.0101	0.003106	6.5e-05
36	293.15	0.0201	0.00313	6.6e-05
36	293.15	0.0301	0.003155	6.6e-05
36	293.15	0.04	0.003171	6.6e-05
36	293.15	0.0499	0.003196	6.7e-05
36	298.15	0	0.002594	5.4e-05
36	298.15	0.0101	0.002622	5.5e-05
36	298.15	0.0201	0.002645	5.6e-05
36	298.15	0.0301	0.002661	5.6e-05
36	298.15	0.04	0.002685	5.6e-05
36	298.15	0.0499	0.002704	5.7e-05
36	303.15	0	0.002225	4.7e-05
36	303.15	0.0101	0.002245	4.7e-05
36	303.15	0.0201	0.002269	4.8e-05
36	303.15	0.0301	0.002287	4.8e-05
36	303.15	0.04	0.002301	4.8e-05
36	303.15	0.0499	0.002315	4.9e-05
36	308.15	0	0.001929	4.1e-05
36	308.15	0.0101	0.001948	4.1e-05
36	308.15	0.0201	0.001967	4.1e-05
36	308.15	0.0301	0.001978	4.2e-05
36	308.15	0.04	0.001994	4.2e-05
36	308.15	0.0499	0.002008	4.2e-05
36	313.15	0	0.001682	3.5e-05
36	313.15	0.0101	0.001697	3.6e-05
36	313.15	0.0201	0.001715	3.6e-05
36	313.15	0.0301	0.001725	3.6e-05
36	313.15	0.04	0.001736	3.6e-05
36	313.15	0.0499	0.001751	3.7e-05
36	318.15	0	0.001479	3.1e-05
36	318.15	0.0101	0.001493	3.1e-05
36	318.15	0.0201	0.001506	3.2e-05
36	318.15	0.0301	0.001515	3.2e-05
36	318.15	0.04	0.001525	3.2e-05
36	318.15	0.0499	0.001538	3.2e-05
36	323.15	0	0.001309	2.8e-05
36	323.15	0.0101	0.00132	2.8e-05
36	323.15	0.0201	0.001332	2.8e-05
36	323.15	0.0301	0.00134	2.8e-05
36	323.15	0.04	0.001349	2.8e-05
36	323.15	0.0499	0.001361	2.9e-05
40	293.15	0	0.003039	6.4e-05
40	293.15	0.0101	0.003053	6.4e-05
40	293.15	0.02	0.003084	6.5e-05
40	293.15	0.03	0.003132	6.6e-05
40	293.15	0.04	0.00314	6.6e-05
40	293.15	0.05	0.003168	6.6e-05
40	298.15	0	0.002578	5.4e-05
40	298.15	0.0101	0.002591	5.4e-05
40	298.15	0.02	0.002617	5.5e-05
40	298.15	0.03	0.002646	5.6e-05
40	298.15	0.04	0.002664	5.6e-05
40	298.15	0.05	0.002686	5.6e-05
40	303.15	0	0.002212	4.6e-05
40	303.15	0.0101	0.002224	4.7e-05
40	303.15	0.02	0.002246	4.7e-05
40	303.15	0.03	0.002266	4.8e-05
40	303.15	0.04	0.002285	4.8e-05
40	303.15	0.05	0.002303	4.8e-05
40	308.15	0	0.001916	4e-05
40	308.15	0.0101	0.001933	4.1e-05
40	308.15	0.02	0.001946	4.1e-05
40	308.15	0.03	0.001965	4.1e-05
40	308.15	0.04	0.001977	4.2e-05
40	308.15	0.05	0.001993	4.2e-05
40	313.15	0	0.001672	3.5e-05
40	313.15	0.0101	0.001688	3.5e-05
40	313.15	0.02	0.001698	3.6e-05
40	313.15	0.03	0.001713	3.6e-05
40	313.15	0.04	0.001725	3.6e-05
40	313.15	0.05	0.001738	3.7e-05
40	318.15	0	0.00147	3.1e-05
40	318.15	0.0101	0.001478	3.1e-05
40	318.15	0.02	0.001493	3.1e-05
40	318.15	0.03	0.001502	3.2e-05
40	318.15	0.04	0.001516	3.2e-05
40	318.15	0.05	0.001527	3.2e-05
40	323.15	0	0.001301	2.7e-05
40	323.15	0.0101	0.001312	2.8e-05
40	323.15	0.02	0.001321	2.8e-05
40	323.15	0.03	0.00133	2.8e-05
40	323.15	0.04	0.001341	2.8e-05
40	323.15	0.05	0.001351	2.8e-05

System: 4',5,7-trihydroxyflavanone + propan-1-ol + water; phases: Liquid
Fixed: Temperature, K = 298.15
Fixed: Pressure, kPa = 100
Property: Refractive index (Na D-line) (Liquid); method: Standard Abbe refractometry
Solvent: Molality, mol/kg of propan-1-ol	Molality, mol/kg of 4',5,7-trihydroxyflavanone	Refractive index (Na D-line)	uncertainty
24	0	1.3714	0.0011
24	0.0102	1.3721	0.0011
24	0.0201	1.3724	0.0011
24	0.0301	1.373	0.0011
24	0.0401	1.3733	0.0011
24	0.05	1.3738	0.0011
28	0	1.3729	0.0011
28	0.0101	1.3734	0.0011
28	0.02	1.3738	0.0011
28	0.03	1.3744	0.0011
28	0.0399	1.3749	0.0011
28	0.05	1.3755	0.0011
32	0	1.374	0.0011
32	0.0101	1.3746	0.0011
32	0.0201	1.375	0.0011
32	0.03	1.3756	0.0011
32	0.0401	1.3762	0.0011
32	0.05	1.3767	0.0011
36	0	1.375	0.0011
36	0.0101	1.3756	0.0011
36	0.0201	1.376	0.0011
36	0.0301	1.3766	0.0011
36	0.04	1.377	0.0011
36	0.0499	1.3777	0.0011
40	0	1.3757	0.0011
40	0.0101	1.3764	0.0011
40	0.02	1.3768	0.0011
40	0.03	1.3774	0.0011
40	0.04	1.3777	0.0011
40	0.05	1.3785	0.0011
