Measured thermophysical data. Solubility and Solution Thermodynamics of the d Form of l-Citrulline in Water + Ethanol Binary Solvent Mixtures
Source: J. Chem. Eng. Data, 2016, 10.1021/acs.jced.5b00585
Compound 1: N5-aminocarbonyl-L-ornithine, C6H13N3O3, InChI=1S/C6H13N3O3/c7-4(5(10)11)2-1-3-9-6(8)12/h4H,1-3,7H2,(H,10,11)(H3,8,9,12)/t4-/m0/s1, purity 98.5%
Compound 2: ethanol, C2H6O, InChI=1S/C2H6O/c1-2-3/h3H,2H2,1H3, purity 99.7%
Compound 3: water, H2O, InChI=1S/H2O/h1H2, purity 99.8%

System: ethanol + N5-aminocarbonyl-L-ornithine + water; phases: Liquid, Crystal
Fixed: Pressure, kPa = 101
Property: Mole fraction of N5-aminocarbonyl-L-ornithine (Liquid); method: gravimetric
Temperature, K	Solvent: Mole fraction of water	Mole fraction of N5-aminocarbonyl-L-ornithine	uncertainty
293.15	0.4	0.0001686	4.39e-05
298.15	0.4	0.0001801	4.7e-05
303.15	0.4	0.0002177	5.68e-05
308.15	0.4	0.0002322	6.06e-05
313.15	0.4	0.0002803	7.32e-05
293.15	0.5	0.0002951	7.69e-05
318.15	0.4	0.0003131	8.18e-05
298.15	0.5	0.0003418	8.91e-05
303.15	0.5	0.0003801	9.91e-05
323.15	0.4	0.0004051	0.0001058
328.15	0.4	0.0004228	0.0001103
308.15	0.5	0.0004433	0.0001157
333.15	0.4	0.0004629	0.000121
313.15	0.5	0.0005374	0.0001401
293.15	0.6	0.000565	0.0001471
318.15	0.5	0.000666	0.0001736
298.15	0.6	0.0007561	0.0001968
293.15	0.65	0.000774	0.0002017
323.15	0.5	0.0007986	0.0002082
328.15	0.5	0.0008195	0.0002138
298.15	0.65	0.0008382	0.0002184
303.15	0.6	0.0008467	0.0002205
333.15	0.5	0.0009969	0.0002602
308.15	0.6	0.0010711	0.0002789
293.15	0.7	0.0010989	0.0002863
313.15	0.6	0.001114	0.0002903
303.15	0.65	0.0011898	0.00031
298.15	0.7	0.0013529	8.53e-05
318.15	0.6	0.0013631	8.47e-05
308.15	0.65	0.0014114	8.81e-05
293.15	0.75	0.001541	9.63e-05
323.15	0.6	0.001631	0.000101
303.15	0.7	0.0016594	0.0001037
313.15	0.65	0.0017665	0.0001105
328.15	0.6	0.0018915	0.0001175
298.15	0.75	0.0018989	0.0001185
308.15	0.7	0.0020422	0.0001271
318.15	0.65	0.0020705	0.0001296
293.15	0.8	0.0021805	0.0001358
333.15	0.6	0.00225	0.0001402
303.15	0.75	0.00235	0.0001464
313.15	0.7	0.0023729	0.0001485
323.15	0.65	0.0024145	0.0001523
298.15	0.8	0.0026542	0.0001651
328.15	0.65	0.0027204	0.0001722
308.15	0.75	0.0027816	0.0001746
318.15	0.7	0.0028712	0.0001789
293.15	0.85	0.0030079	0.0001892
303.15	0.8	0.0032455	0.0002031
333.15	0.65	0.0033074	0.0002105
313.15	0.75	0.0034807	0.0002192
323.15	0.7	0.003556	0.0002236
298.15	0.85	0.0036452	0.0002304
318.15	0.75	0.0040077	0.0002517
308.15	0.8	0.0041098	0.0002562
328.15	0.7	0.0041353	0.0002608
293.15	0.9	0.0045002	0.0002883
303.15	0.85	0.0046516	0.0002921
333.15	0.7	0.0050752	0.0003182
313.15	0.8	0.0050837	0.0003168
323.15	0.75	0.0051279	0.0003205
308.15	0.85	0.005545	0.00035
298.15	0.9	0.0055743	0.0003554
318.15	0.8	0.0058723	0.0003664
328.15	0.75	0.0059854	0.0003725
303.15	0.9	0.0067259	0.0004283
313.15	0.85	0.0069343	0.0004326
333.15	0.75	0.0070337	0.00044
293.15	0.95	0.0071547	0.0004653
323.15	0.8	0.0071773	0.0004493
318.15	0.85	0.0080738	0.000507
328.15	0.8	0.0081439	0.000512
308.15	0.9	0.0085048	0.0005347
298.15	0.95	0.0085482	0.0005497
313.15	0.9	0.0098661	0.00062
333.15	0.8	0.0100877	0.0006316
323.15	0.85	0.0103444	0.0006462
303.15	0.95	0.0104751	0.0006657
318.15	0.9	0.0118949	0.0007441
293.15	1	0.0119289	0.000717
308.15	0.95	0.0120219	0.0007564
328.15	0.85	0.0121957	0.0007583
298.15	1	0.013665	0.0008213
333.15	0.85	0.0142505	0.0008871
323.15	0.9	0.0144212	0.0008996
313.15	0.95	0.014428	0.0009031
303.15	1	0.0157072	0.0009439
328.15	0.9	0.0162073	0.0010033
318.15	0.95	0.0165757	0.0010322
308.15	1	0.017783	0.0010687
333.15	0.9	0.0196364	0.0012171
313.15	1	0.0203376	0.0012222
323.15	0.95	0.020355	0.0012549
328.15	0.95	0.0221451	0.001367
318.15	1	0.0230421	0.0013846
323.15	1	0.0260804	0.001567
333.15	0.95	0.0264216	0.001621
328.15	1	0.0292095	0.0017551
333.15	1	0.0330897	0.0019881

System: N5-aminocarbonyl-L-ornithine + water; phases: Liquid, Crystal
Fixed: Pressure, kPa = 101
Property: Mole fraction of N5-aminocarbonyl-L-ornithine (Liquid); method: gravimetric
Temperature, K	Mole fraction of N5-aminocarbonyl-L-ornithine	uncertainty
293.15	0.0119289	0.000717
298.15	0.013665	0.0008213
303.15	0.0157072	0.0009439
308.15	0.017783	0.0010687
313.15	0.0203376	0.0012222
318.15	0.0230421	0.0013846
323.15	0.0260804	0.001567
328.15	0.0292095	0.0017551
333.15	0.0330897	0.0019881
