Measured thermophysical data. Vapor-Liquid Equilibrium for Binary Systems of Allyl Alcohol + Water and Allyl Alcohol + Benzene at 101.3 kPa
Source: J. Chem. Eng. Data, 2017, 10.1021/acs.jced.6b00893
Compound 1: 2-propenol, C3H6O, InChI=1S/C3H6O/c1-2-3-4/h2,4H,1,3H2, purity 99.7%
Compound 2: benzene, C6H6, InChI=1S/C6H6/c1-2-4-6-5-3-1/h1-6H, purity 99.5%
Compound 3: water, H2O, InChI=1S/H2O/h1H2, purity 99.9%

System: 2-propenol; phases: Liquid, Gas
Property: Vapor or sublimation pressure, kPa (Liquid); method: Ebulliometric method (Recirculating still)
Temperature, K	Vapor or sublimation pressure, kPa	uncertainty
369.75	101.3	0.5

System: benzene; phases: Liquid, Gas
Property: Vapor or sublimation pressure, kPa (Liquid); method: Ebulliometric method (Recirculating still)
Temperature, K	Vapor or sublimation pressure, kPa	uncertainty
353.25	101.3	0.5

System: water; phases: Liquid, Gas
Property: Vapor or sublimation pressure, kPa (Liquid); method: Ebulliometric method (Recirculating still)
Temperature, K	Vapor or sublimation pressure, kPa	uncertainty
373.15	101.3	0.5

System: 2-propenol + water; phases: Liquid, Gas
Fixed: Pressure, kPa = 101.3
Property: Boiling temperature at pressure P, K (Liquid); method: Ebulliometric method (Recirculating still)
Mole fraction of 2-propenol	Boiling temperature at pressure P, K	uncertainty
1	369.75	0.13
0.9566	368.24	0.41
0.9149	366.44	0.28
0.8029	364.31	0.23
0.725	362.97	0.16
0.5201	361.85	0.14
0.454	361.84	0.13
0.3936	361.95	0.14
0.2406	362.35	0.14
0.156	363.3	0.2
0.0852	364.43	0.25
0.0564	365.6	0.6
0.0392	367.25	1.06
0.0147	369.95	1.47
0.007	371.64	0.96
0	373.15	0.13

System: 2-propenol + water; phases: Gas, Liquid
Fixed: Pressure, kPa = 101.3
Property: Mole fraction of 2-propenol (Gas); method: Chromatography
Mole fraction of 2-propenol	Mole fraction of 2-propenol	uncertainty
1	1	
0.9566	0.9048	0.0249
0.9149	0.8059	0.0181
0.8029	0.6652	0.0148
0.725	0.6098	0.0123
0.5201	0.4829	0.0121
0.454	0.472	0.011
0.3936	0.4436	0.011
0.2406	0.4113	0.0111
0.156	0.3612	0.0123
0.0852	0.3109	0.0143
0.0564	0.2557	0.0197
0.0392	0.2348	0.0352
0.0147	0.1191	0.0595
0.007	0.0564	0.0401
0	0	

System: 2-propenol + benzene; phases: Liquid, Gas
Fixed: Pressure, kPa = 101.3
Property: Boiling temperature at pressure P, K (Liquid); method: Ebulliometric method (Recirculating still)
Mole fraction of 2-propenol	Boiling temperature at pressure P, K	uncertainty
1	369.75	0.13
0.9764	367.4	1
0.9388	363.95	0.67
0.8484	358.74	0.53
0.7771	355.64	0.37
0.6947	353.45	0.27
0.6421	352.55	0.19
0.5955	352.05	0.18
0.5436	351.33	0.17
0.4256	350.24	0.15
0.371	350.03	0.14
0.2857	349.64	0.14
0.2037	349.74	0.15
0.0641	350.85	0.18
0.0236	352.05	0.39
0	353.25	0.13

System: 2-propenol + benzene; phases: Gas, Liquid
Fixed: Pressure, kPa = 101.3
Property: Mole fraction of 2-propenol (Gas); method: Chromatography
Mole fraction of 2-propenol	Mole fraction of 2-propenol	uncertainty
1	1	
0.9764	0.8915	0.0414
0.9388	0.7523	0.0264
0.8484	0.569	0.021
0.7771	0.4712	0.0155
0.6947	0.3979	0.0129
0.6421	0.3744	0.0115
0.5955	0.351	0.012
0.5436	0.32	0.01
0.4256	0.2856	0.0108
0.371	0.2636	0.0107
0.2857	0.2445	0.0107
0.2037	0.2114	0.0116
0.0641	0.1233	0.0127
0.0236	0.0615	0.0213
0	0	
