Measured thermophysical data. Determination of Solubility and Thermodynamic Properties of Benzophenone in Different Pure Solvents
Source: J. Chem. Eng. Data, 2018, 10.1021/acs.jced.8b00196
Compound 1: water, H2O, InChI=1S/H2O/h1H2, purity 99.9%
Compound 2: 2-methyl-1-propanol, C4H10O, InChI=1S/C4H10O/c1-4(2)3-5/h4-5H,3H2,1-2H3, purity 99.5%
Compound 3: ethanol, C2H6O, InChI=1S/C2H6O/c1-2-3/h3H,2H2,1H3, purity 99.5%
Compound 4: octan-1-ol, C8H18O, InChI=1S/C8H18O/c1-2-3-4-5-6-7-8-9/h9H,2-8H2,1H3, purity 99.5%
Compound 5: methanol, CH4O, InChI=1S/CH4O/c1-2/h2H,1H3, purity 99.5%
Compound 6: acetonitrile, C2H3N, InChI=1S/C2H3N/c1-2-3/h1H3, purity 99.5%
Compound 7: propan-1-ol, C3H8O, InChI=1S/C3H8O/c1-2-3-4/h4H,2-3H2,1H3, purity 99.5%
Compound 8: acetone, C3H6O, InChI=1S/C3H6O/c1-3(2)4/h1-2H3, purity 99.5%
Compound 9: propan-2-ol, C3H8O, InChI=1S/C3H8O/c1-3(2)4/h3-4H,1-2H3, purity 99.5%
Compound 10: ethyl acetate, C4H8O2, InChI=1S/C4H8O2/c1-3-6-4(2)5/h3H2,1-2H3, purity 99.5%
Compound 11: butan-1-ol, C4H10O, InChI=1S/C4H10O/c1-2-3-4-5/h5H,2-4H2,1H3, purity 99.5%
Compound 12: methyl ethanoate, C3H6O2, InChI=1S/C3H6O2/c1-3(4)5-2/h1-2H3, purity 99.5%
Compound 13: benzophenone, C13H10O, InChI=1S/C13H10O/c14-13(11-7-3-1-4-8-11)12-9-5-2-6-10-12/h1-10H, purity 99%

System: benzophenone; phases: Crystal, Liquid, Air at 1 atmosphere
Property: Triple point temperature, K (Crystal); method: DSC
Triple point temperature, K	uncertainty
323.4	2.1

System: benzophenone; phases: Crystal, Liquid, Air at 1 atmosphere
Property: Molar enthalpy of transition or fusion, kJ/mol (Crystal); method: DSC
Molar enthalpy of transition or fusion, kJ/mol	uncertainty
17.6	1.3

System: benzophenone + water; phases: Liquid, Crystal
Fixed: Pressure, kPa = 100
Property: Mole fraction of benzophenone (Liquid); method: gravimetric
Temperature, K	Mole fraction of benzophenone	uncertainty
278.15	0.0034	0.0003
283.15	0.0045	0.0005
288.15	0.0058	0.0006
293.15	0.0074	0.0007
298.15	0.0111	0.0011
303.15	0.0148	0.0015
308.15	0.0215	0.0022
313.15	0.0289	0.0029
318.15	0.0428	0.0043

System: benzophenone + 2-methyl-1-propanol; phases: Liquid, Crystal
Fixed: Pressure, kPa = 100
Property: Mole fraction of benzophenone (Liquid); method: gravimetric
Temperature, K	Mole fraction of benzophenone	uncertainty
278.15	0.1351	0.0135
283.15	0.1606	0.0161
288.15	0.1983	0.0199
293.15	0.2445	0.0245
298.15	0.2946	0.0295
303.15	0.3783	0.0379
308.15	0.4527	0.0453
313.15	0.5968	0.0405
318.15	0.7856	0.0218

System: benzophenone + ethanol; phases: Liquid, Crystal
Fixed: Pressure, kPa = 100
Property: Mole fraction of benzophenone (Liquid); method: gravimetric
Temperature, K	Mole fraction of benzophenone	uncertainty
278.15	0.0316	0.0032
283.15	0.0425	0.0043
288.15	0.0615	0.0062
293.15	0.0917	0.0092
298.15	0.1389	0.0139
303.15	0.2082	0.0209
308.15	0.2899	0.0291
313.15	0.3909	0.0392
318.15	0.5733	0.0428

System: benzophenone + octan-1-ol; phases: Liquid, Crystal
Fixed: Pressure, kPa = 100
Property: Mole fraction of benzophenone (Liquid); method: gravimetric
Temperature, K	Mole fraction of benzophenone	uncertainty
278.15	0.1391	0.0139
283.15	0.1686	0.0169
288.15	0.209	0.0209
293.15	0.2558	0.0256
298.15	0.3046	0.0305
303.15	0.3838	0.0384
308.15	0.4827	0.0483
313.15	0.6168	0.0385
318.15	0.8056	0.0199

System: benzophenone + methanol; phases: Liquid, Crystal
Fixed: Pressure, kPa = 100
Property: Mole fraction of benzophenone (Liquid); method: gravimetric
Temperature, K	Mole fraction of benzophenone	uncertainty
278.15	0.0208	0.0021
283.15	0.0262	0.0026
288.15	0.0392	0.0039
293.15	0.0542	0.0054
298.15	0.0867	0.0087
303.15	0.1299	0.0131
308.15	0.2085	0.0209
313.15	0.3017	0.0303
318.15	0.455	0.0456

System: benzophenone + acetonitrile; phases: Liquid, Crystal
Fixed: Pressure, kPa = 100
Property: Mole fraction of benzophenone (Liquid); method: gravimetric
Temperature, K	Mole fraction of benzophenone	uncertainty
278.15	0.3009	0.0301
283.15	0.3304	0.0331
288.15	0.3682	0.0368
293.15	0.4192	0.0419
298.15	0.4746	0.0475
303.15	0.5426	0.0458
308.15	0.6328	0.0368
313.15	0.7216	0.028
318.15	0.8483	0.0155

System: benzophenone + propan-1-ol; phases: Liquid, Crystal
Fixed: Pressure, kPa = 100
Property: Mole fraction of benzophenone (Liquid); method: gravimetric
Temperature, K	Mole fraction of benzophenone	uncertainty
278.15	0.0775	0.0078
283.15	0.0958	0.0096
288.15	0.123	0.0123
293.15	0.1639	0.0164
298.15	0.2186	0.0219
303.15	0.3132	0.0314
308.15	0.4194	0.042
313.15	0.5376	0.0463
318.15	0.7076	0.0295

System: benzophenone + acetone; phases: Liquid, Crystal
Fixed: Pressure, kPa = 100
Property: Mole fraction of benzophenone (Liquid); method: gravimetric
Temperature, K	Mole fraction of benzophenone	uncertainty
278.15	0.31	0.031
283.15	0.3503	0.035
288.15	0.3812	0.0381
293.15	0.4271	0.0427
298.15	0.4908	0.0491
303.15	0.5618	0.0439
308.15	0.6686	0.0332
313.15	0.7554	0.0246
318.15	0.9063	0.01

System: benzophenone + propan-2-ol; phases: Liquid, Crystal
Fixed: Pressure, kPa = 100
Property: Mole fraction of benzophenone (Liquid); method: gravimetric
Temperature, K	Mole fraction of benzophenone	uncertainty
278.15	0.0614	0.0061
283.15	0.0756	0.0076
288.15	0.1051	0.0105
293.15	0.1552	0.0156
298.15	0.2128	0.0213
303.15	0.2836	0.0284
308.15	0.391	0.0392
313.15	0.5016	0.0499
318.15	0.6717	0.033

System: benzophenone + ethyl acetate; phases: Liquid, Crystal
Fixed: Pressure, kPa = 100
Property: Mole fraction of benzophenone (Liquid); method: gravimetric
Temperature, K	Mole fraction of benzophenone	uncertainty
278.15	0.281	0.0281
283.15	0.3275	0.0328
288.15	0.3582	0.0358
293.15	0.3992	0.0399
298.15	0.4547	0.0455
303.15	0.5327	0.0468
308.15	0.6066	0.0394
313.15	0.6916	0.031
318.15	0.8283	0.0175

System: benzophenone + butan-1-ol; phases: Liquid, Crystal
Fixed: Pressure, kPa = 100
Property: Mole fraction of benzophenone (Liquid); method: gravimetric
Temperature, K	Mole fraction of benzophenone	uncertainty
278.15	0.1313	0.0131
283.15	0.1587	0.0159
288.15	0.1913	0.0191
293.15	0.2359	0.0236
298.15	0.2846	0.0285
303.15	0.3538	0.0354
308.15	0.4327	0.0433
313.15	0.5768	0.0425
318.15	0.7657	0.0238

System: benzophenone + methyl ethanoate; phases: Liquid, Crystal
Fixed: Pressure, kPa = 100
Property: Mole fraction of benzophenone (Liquid); method: gravimetric
Temperature, K	Mole fraction of benzophenone	uncertainty
278.15	0.2056	0.0206
283.15	0.2345	0.0235
288.15	0.2782	0.0278
293.15	0.3336	0.0334
298.15	0.3921	0.0392
303.15	0.4549	0.0455
308.15	0.5176	0.0483
313.15	0.6132	0.0388
318.15	0.7191	0.0282
