Measured thermophysical data. Saturated Pressure Measurements of trans-1-Chloro-3,3,3-trifluoroprop-1-ene (R1233zd(E))
Source: J. Chem. Eng. Data, 2017, 10.1021/acs.jced.6b00916
Compound 1: (E)-1-chloro-3,3,3-trifluoroprop-1-ene, C3H2ClF3, InChI=1S/C3H2ClF3/c4-2-1-3(5,6)7/h1-2H/b2-1+, purity 99.5%

System: (E)-1-chloro-3,3,3-trifluoroprop-1-ene; phases: Liquid, Gas
Property: Vapor or sublimation pressure, kPa (Liquid); method: Closed cell (Static) method
Temperature, K	Vapor or sublimation pressure, kPa	uncertainty
293.15	108.8	1
295.15	117.2	1
297.15	126	1
299.15	135.1	1
301.15	144.9	1
303.15	155.3	1
305.15	166.3	1
307.15	177.8	1.1
309.15	190.1	1.1
311.15	202.9	1.1
313.15	216.1	1.1
315.15	230.1	1.1
317.15	245	1.1
319.15	260.7	1.1
321.15	277.1	1.1
323.15	296.3	1.1
323.15	294.3	1.1
325.15	312.2	1.1
327.15	331	1.2
329.15	350.5	1.2
331.15	371	1.2
333.15	392.5	1.2
335.15	413.9	1.2
337.15	437.2	1.3
339.15	461.2	1.3
341.15	486.3	1.3
343.15	513.2	1.3
345.15	540.4	1.4
347.15	568.5	1.4
349.15	597.9	1.4
351.15	628.7	1.5
353.15	660.4	1.5

System: (E)-1-chloro-3,3,3-trifluoroprop-1-ene; phases: Liquid, Gas
Property: Vapor or sublimation pressure, kPa (Liquid); method: Closed cell (Static) method
Temperature, K	Vapor or sublimation pressure, kPa	uncertainty
234.15	7.2	1
237.15	8.5	1
240.15	10	1
243.15	11.7	1
246.15	13.7	1
249.15	16	1
252.15	18.6	1
255.15	21.6	1
258.15	25	1
261.15	28.8	1
264.15	33.1	1
267.15	38	1
270.15	43.4	1
273.15	49.4	1
276.15	56.1	1
279.15	63.6	1
282.15	71.7	1
285.15	80.7	1
288.15	90.6	1
291.15	101.7	1
294.15	113.6	1
297.15	126.6	1
297.15	126.4	1
300.15	140.5	1
303.15	155.9	1
306.15	172.6	1.1
309.15	190.6	1.1
312.15	210	1.1
315.15	230.9	1.1
318.15	253.5	1.1
321.15	277.7	1.1
324.15	303.6	1.1
327.15	331.3	1.2
330.15	361	1.2
333.15	392.6	1.2
336.15	426.2	1.2
339.15	461.9	1.3
342.15	499.8	1.3
345.15	540	1.4
348.15	582.7	1.4
351.15	628.1	1.5
354.15	675.8	1.5
357.15	726.3	1.6
360.15	779.6	1.6
363.15	835.8	1.7
366.15	894.8	1.8
369.15	957.1	1.9
372.15	1022.5	2
375.15	1091.3	2
