Measured thermophysical data. Densities and Viscosities of Aqueous Amino Acid Ionic Liquids [Cnmim][Ala](n = 3, 4, 5)
Source: J. Chem. Eng. Data, 2017, 10.1021/acs.jced.6b00951
Compound 1: water, H2O, InChI=1S/H2O/h1H2, purity 99.9%
Compound 2: 3-methyl-1-propylimidazolium alaninate, C10H19N3O2, InChI=1S/C7H13N2.C3H7NO2/c1-3-4-9-6-5-8(2)7-9;1-2(4)3(5)6/h5-7H,3-4H2,1-2H3;2H,4H2,1H3,(H,5,6)/q+1;/p-1, purity 99%
Compound 3: 1-butyl-3-methylimidazolium alaninate, C11H21N3O2, InChI=1S/C8H15N2.C3H7NO2/c1-3-4-5-10-7-6-9(2)8-10;1-2(4)3(5)6/h6-8H,3-5H2,1-2H3;2H,4H2,1H3,(H,5,6)/q+1;/p-1, purity 99%
Compound 4: 3-methyl-1-pentylimidazolium alaninate, C12H23N3O2, InChI=1S/C9H17N2.C3H7NO2/c1-3-4-5-6-11-8-7-10(2)9-11;1-2(4)3(5)6/h7-9H,3-6H2,1-2H3;2H,4H2,1H3,(H,5,6)/q+1;/p-1, purity 99%

System: water; phases: Liquid
Fixed: Pressure, kPa = 100.3
Property: Mass density, kg/m3 (Liquid); method: Vibrating tube method
Temperature, K	Mass density, kg/m3	uncertainty
288.15	999.1	2.1
293.15	998.2	2.1
298.15	997.04	2.1
303.15	995.64	2.1
308.15	994.03	2.1
313.15	992.22	2.1
318.15	990.21	2.1
323.15	988.04	2.1
328.15	985.69	2.1

System: water; phases: Liquid
Fixed: Pressure, kPa = 100.3
Property: Viscosity, Pa*s (Liquid); method: Capillary tube (Ostwald; Ubbelohde) method
Temperature, K	Viscosity, Pa*s	uncertainty
288.15	0.0011389	1.58e-05
293.15	0.0010022	1.55e-05
298.15	0.0008897	1.53e-05
303.15	0.0007988	1.52e-05
308.15	0.0007184	1.5e-05
313.15	0.0006525	1.49e-05
318.15	0.000596	1.49e-05
323.15	0.000547	1.48e-05
328.15	0.0005043	1.48e-05

System: 3-methyl-1-propylimidazolium alaninate + water; phases: Liquid
Fixed: Pressure, kPa = 100.3
Property: Mass density, kg/m3 (Liquid); method: Vibrating tube method
Molality, mol/kg of 3-methyl-1-propylimidazolium alaninate	Temperature, K	Mass density, kg/m3	uncertainty
0	288.15	999.1	2.12
0.0167	288.15	999.55	2.12
0.0222	288.15	999.7	2.12
0.0275	288.15	999.84	2.12
0.0558	288.15	1000.58	2.12
0.1672	288.15	1003.57	2.12
0.2788	288.15	1006.64	2.12
0.3914	288.15	1009.71	2.12
0.5039	288.15	1012.81	2.12
0.617	288.15	1015.85	2.12
0.7316	288.15	1018.9	2.12
0.8451	288.15	1021.88	2.12
1.0167	288.15	1026.2	2.12
0	293.15	998.2	2.12
0.0167	293.15	998.63	2.11
0.0222	293.15	998.77	2.12
0.0275	293.15	998.9	2.12
0.0558	293.15	999.62	2.12
0.1672	293.15	1002.5	2.12
0.2788	293.15	1005.46	2.12
0.3914	293.15	1008.44	2.12
0.5039	293.15	1011.35	2.12
0.617	293.15	1014.31	2.12
0.7316	293.15	1017.27	2.12
0.8451	293.15	1020.15	2.12
1.0167	293.15	1024.42	2.11
0	298.15	997.04	2.12
0.0167	298.15	997.45	2.11
0.0222	298.15	997.58	2.11
0.0275	298.15	997.71	2.12
0.0558	298.15	998.39	2.11
0.1672	298.15	1001.14	2.12
0.2788	298.15	1003.97	2.12
0.3914	298.15	1006.8	2.12
0.5039	298.15	1009.69	2.12
0.617	298.15	1012.49	2.12
0.7316	298.15	1015.38	2.12
0.8451	298.15	1018.18	2.11
1.0167	298.15	1022.14	2.11
0	303.15	995.64	2.12
0.0167	303.15	996.04	2.11
0.0222	303.15	996.17	2.11
0.0275	303.15	996.29	2.11
0.0558	303.15	996.95	2.11
0.1672	303.15	999.61	2.11
0.2788	303.15	1002.36	2.11
0.3914	303.15	1005.12	2.11
0.5039	303.15	1007.93	2.11
0.617	303.15	1010.64	2.11
0.7316	303.15	1013.34	2.11
0.8451	303.15	1016.06	2.11
1.0167	303.15	1020.01	2.11
0	308.15	994.03	2.12
0.0167	308.15	994.42	2.11
0.0222	308.15	994.55	2.11
0.0275	308.15	994.67	2.11
0.0558	308.15	995.31	2.11
0.1672	308.15	997.94	2.11
0.2788	308.15	1000.63	2.11
0.3914	308.15	1003.35	2.11
0.5039	308.15	1006.1	2.11
0.617	308.15	1008.8	2.11
0.7316	308.15	1011.49	2.11
0.8451	308.15	1014.12	2.11
1.0167	308.15	1018.04	2.11
0	313.15	992.22	2.12
0.0167	313.15	992.6	2.11
0.0222	313.15	992.72	2.11
0.0275	313.15	992.84	2.11
0.0558	313.15	993.48	2.11
0.1672	313.15	996.07	2.11
0.2788	313.15	998.74	2.11
0.3914	313.15	1001.38	2.11
0.5039	313.15	1004.11	2.11
0.617	313.15	1006.75	2.11
0.7316	313.15	1009.47	2.11
0.8451	313.15	1012.1	2.11
1.0167	313.15	1015.93	2.11
0	318.15	990.21	2.12
0.0167	318.15	990.6	2.11
0.0222	318.15	990.72	2.11
0.0275	318.15	990.84	2.11
0.0558	318.15	991.47	2.11
0.1672	318.15	994.04	2.11
0.2788	318.15	996.66	2.11
0.3914	318.15	999.33	2.11
0.5039	318.15	1001.98	2.11
0.617	318.15	1004.63	2.11
0.7316	318.15	1007.31	2.11
0.8451	318.15	1009.9	2.11
1.0167	318.15	1013.68	2.11
0	323.15	988.04	2.12
0.0167	323.15	988.42	2.11
0.0222	323.15	988.54	2.11
0.0275	323.15	988.66	2.11
0.0558	323.15	989.28	2.11
0.1672	323.15	991.81	2.11
0.2788	323.15	994.42	2.11
0.3914	323.15	997.06	2.11
0.5039	323.15	999.69	2.11
0.617	323.15	1002.25	2.11
0.7316	323.15	1004.88	2.11
0.8451	323.15	1007.46	2.11
1.0167	323.15	1011.29	2.11
0	328.15	985.69	2.11
0.0167	328.15	986.08	2.11
0.0222	328.15	986.2	2.11
0.0275	328.15	986.32	2.11
0.0558	328.15	986.93	2.11
0.1672	328.15	989.45	2.11
0.2788	328.15	992.02	2.11
0.3914	328.15	994.66	2.11
0.5039	328.15	997.23	2.11
0.617	328.15	999.86	2.11
0.7316	328.15	1002.45	2.11
0.8451	328.15	1005.04	2.11
1.0167	328.15	1008.81	2.11

System: 3-methyl-1-propylimidazolium alaninate + water; phases: Liquid
Fixed: Pressure, kPa = 100.3
Property: Viscosity, Pa*s (Liquid); method: Capillary tube (Ostwald; Ubbelohde) method
Temperature, K	Molality, mol/kg of 3-methyl-1-propylimidazolium alaninate	Viscosity, Pa*s	uncertainty
288.15	0	0.0011389	1.87e-05
288.15	0.0167	0.0011557	1.89e-05
288.15	0.0222	0.0011621	1.96e-05
288.15	0.0275	0.0011675	2e-05
288.15	0.0558	0.0012034	2.12e-05
288.15	0.1672	0.0013615	2.14e-05
288.15	0.2788	0.0015129	2.13e-05
288.15	0.3914	0.0016581	2.19e-05
288.15	0.5039	0.0018216	2.2e-05
288.15	0.617	0.0019577	2.17e-05
288.15	0.7316	0.0021012	2.23e-05
288.15	0.8451	0.0022467	2.27e-05
288.15	1.0167	0.0024603	2.33e-05
293.15	0	0.0010022	1.6e-05
293.15	0.0167	0.0010169	1.82e-05
293.15	0.0222	0.0010222	1.82e-05
293.15	0.0275	0.0010265	1.82e-05
293.15	0.0558	0.001057	1.97e-05
293.15	0.1672	0.0011975	2e-05
293.15	0.2788	0.0013259	1.96e-05
293.15	0.3914	0.0014467	1.99e-05
293.15	0.5039	0.0015755	2.02e-05
293.15	0.617	0.0016978	2.03e-05
293.15	0.7316	0.0018194	2.06e-05
293.15	0.8451	0.0019414	2.05e-05
293.15	1.0167	0.0021091	2.16e-05
298.15	0	0.0008897	1.54e-05
298.15	0.0167	0.0009003	1.75e-05
298.15	0.0222	0.0009071	1.75e-05
298.15	0.0275	0.0009112	1.76e-05
298.15	0.0558	0.0009376	1.85e-05
298.15	0.1672	0.0010571	1.86e-05
298.15	0.2788	0.0011632	1.85e-05
298.15	0.3914	0.0012734	1.85e-05
298.15	0.5039	0.0013685	1.87e-05
298.15	0.617	0.0014781	1.9e-05
298.15	0.7316	0.0015806	1.9e-05
298.15	0.8451	0.0016776	1.91e-05
298.15	1.0167	0.0018265	2.01e-05
303.15	0	0.0007988	1.59e-05
303.15	0.0167	0.0008101	1.66e-05
303.15	0.0222	0.0008132	1.67e-05
303.15	0.0275	0.0008167	1.66e-05
303.15	0.0558	0.0008381	1.75e-05
303.15	0.1672	0.0009391	1.76e-05
303.15	0.2788	0.0010278	1.75e-05
303.15	0.3914	0.0011191	1.77e-05
303.15	0.5039	0.0012095	1.79e-05
303.15	0.617	0.0013016	1.78e-05
303.15	0.7316	0.0013803	1.79e-05
303.15	0.8451	0.0014692	1.82e-05
303.15	1.0167	0.0015992	1.88e-05
308.15	0	0.0007184	1.52e-05
308.15	0.0167	0.0007269	1.63e-05
308.15	0.0222	0.0007317	1.64e-05
308.15	0.0275	0.0007348	1.65e-05
308.15	0.0558	0.0007552	1.69e-05
308.15	0.1672	0.0008417	1.69e-05
308.15	0.2788	0.0009169	1.69e-05
308.15	0.3914	0.0009977	1.69e-05
308.15	0.5039	0.0010706	1.7e-05
308.15	0.617	0.0011471	1.72e-05
308.15	0.7316	0.0012252	1.72e-05
308.15	0.8451	0.0012929	1.72e-05
308.15	1.0167	0.0013944	1.79e-05
313.15	0	0.0006525	1.53e-05
313.15	0.0167	0.0006614	1.59e-05
313.15	0.0222	0.0006639	1.6e-05
313.15	0.0275	0.0006664	1.6e-05
313.15	0.0558	0.0006846	1.63e-05
313.15	0.1672	0.000759	1.64e-05
313.15	0.2788	0.0008275	1.64e-05
313.15	0.3914	0.0008942	1.64e-05
313.15	0.5039	0.0009589	1.65e-05
313.15	0.617	0.001027	1.66e-05
313.15	0.7316	0.001089	1.67e-05
313.15	0.8451	0.0011573	1.69e-05
313.15	1.0167	0.0012542	1.7e-05
318.15	0	0.000596	1.53e-05
318.15	0.0167	0.0006042	1.56e-05
318.15	0.0222	0.000606	1.58e-05
318.15	0.0275	0.0006084	1.58e-05
318.15	0.0558	0.0006258	1.59e-05
318.15	0.1672	0.0006883	1.6e-05
318.15	0.2788	0.0007494	1.6e-05
318.15	0.3914	0.0008058	1.61e-05
318.15	0.5039	0.0008676	1.62e-05
318.15	0.617	0.0009291	1.62e-05
318.15	0.7316	0.0009859	1.62e-05
318.15	0.8451	0.0010371	1.62e-05
318.15	1.0167	0.0011155	1.66e-05
323.15	0	0.000547	1.51e-05
323.15	0.0167	0.000554	1.55e-05
323.15	0.0222	0.0005565	1.55e-05
323.15	0.0275	0.0005587	1.55e-05
323.15	0.0558	0.000573	1.56e-05
323.15	0.1672	0.0006294	1.57e-05
323.15	0.2788	0.0006849	1.57e-05
323.15	0.3914	0.0007361	1.57e-05
323.15	0.5039	0.0007813	1.57e-05
323.15	0.617	0.0008319	1.59e-05
323.15	0.7316	0.0008877	1.59e-05
323.15	0.8451	0.0009322	1.59e-05
323.15	1.0167	0.0010003	1.62e-05
328.15	0	0.0005043	1.53e-05
328.15	0.0167	0.0005108	1.53e-05
328.15	0.0222	0.0005134	1.54e-05
328.15	0.0275	0.0005155	1.55e-05
328.15	0.0558	0.0005291	1.55e-05
328.15	0.1672	0.0005802	1.55e-05
328.15	0.2788	0.0006251	1.55e-05
328.15	0.3914	0.0006726	1.55e-05
328.15	0.5039	0.0007168	1.56e-05
328.15	0.617	0.0007641	1.56e-05
328.15	0.7316	0.0008074	1.57e-05
328.15	0.8451	0.0008508	1.57e-05
328.15	1.0167	0.0009121	1.58e-05

System: 1-butyl-3-methylimidazolium alaninate + water; phases: Liquid
Fixed: Pressure, kPa = 100.3
Property: Mass density, kg/m3 (Liquid); method: Vibrating tube method
Molality, mol/kg of 1-butyl-3-methylimidazolium alaninate	Temperature, K	Mass density, kg/m3	uncertainty
0.0163	288.15	999.54	2.12
0.0218	288.15	999.68	2.12
0.0277	288.15	999.83	2.12
0.0543	288.15	1000.53	2.12
0.1629	288.15	1003.42	2.12
0.2778	288.15	1006.51	2.12
0.3939	288.15	1009.63	2.12
0.5049	288.15	1012.54	2.12
0.6189	288.15	1015.57	2.12
0.7406	288.15	1018.73	2.12
0.8516	288.15	1021.59	2.12
1.0065	288.15	1025.45	2.12
0.0163	293.15	998.62	2.12
0.0218	293.15	998.76	2.12
0.0277	293.15	998.9	2.12
0.0543	293.15	999.56	2.11
0.1629	293.15	1002.31	2.12
0.2778	293.15	1005.28	2.12
0.3939	293.15	1008.23	2.12
0.5049	293.15	1011.07	2.12
0.6189	293.15	1014.02	2.12
0.7406	293.15	1017.07	2.12
0.8516	293.15	1019.81	2.11
1.0065	293.15	1023.53	2.11
0.0163	298.15	997.44	2.12
0.0218	298.15	997.57	2.12
0.0277	298.15	997.71	2.11
0.0543	298.15	998.33	2.11
0.1629	298.15	1000.95	2.11
0.2778	298.15	1003.77	2.11
0.3939	298.15	1006.58	2.11
0.5049	298.15	1009.33	2.11
0.6189	298.15	1012.05	2.11
0.7406	298.15	1015.02	2.11
0.8516	298.15	1017.68	2.11
1.0065	298.15	1021.27	2.11
0.0163	303.15	996.03	2.12
0.0218	303.15	996.16	2.12
0.0277	303.15	996.29	2.11
0.0543	303.15	996.9	2.11
0.1629	303.15	999.44	2.11
0.2778	303.15	1002.21	2.11
0.3939	303.15	1004.99	2.11
0.5049	303.15	1007.6	2.11
0.6189	303.15	1010.3	2.11
0.7406	303.15	1013.14	2.11
0.8516	303.15	1015.6	2.11
1.0065	303.15	1019.19	2.11
0.0163	308.15	994.41	2.12
0.0218	308.15	994.53	2.11
0.0277	308.15	994.66	2.11
0.0543	308.15	995.25	2.11
0.1629	308.15	997.73	2.11
0.2778	308.15	1000.41	2.11
0.3939	308.15	1003.11	2.11
0.5049	308.15	1005.72	2.11
0.6189	308.15	1008.37	2.11
0.7406	308.15	1011.04	2.11
0.8516	308.15	1013.63	2.11
1.0065	308.15	1017.14	2.11
0.0163	313.15	992.58	2.12
0.0218	313.15	992.7	2.11
0.0277	313.15	992.83	2.11
0.0543	313.15	993.41	2.11
0.1629	313.15	995.85	2.11
0.2778	313.15	998.47	2.11
0.3939	313.15	1001.16	2.11
0.5049	313.15	1003.7	2.11
0.6189	313.15	1006.31	2.11
0.7406	313.15	1008.99	2.11
0.8516	313.15	1011.44	2.11
1.0065	313.15	1015.01	2.11
0.0163	318.15	990.58	2.12
0.0218	318.15	990.7	2.11
0.0277	318.15	990.83	2.11
0.0543	318.15	991.4	2.11
0.1629	318.15	993.81	2.11
0.2778	318.15	996.41	2.11
0.3939	318.15	999.06	2.11
0.5049	318.15	1001.58	2.11
0.6189	318.15	1004.12	2.11
0.7406	318.15	1006.83	2.11
0.8516	318.15	1009.34	2.11
1.0065	318.15	1012.74	2.11
0.0163	323.15	988.4	2.12
0.0218	323.15	988.52	2.11
0.0277	323.15	988.64	2.11
0.0543	323.15	989.21	2.11
0.1629	323.15	991.6	2.11
0.2778	323.15	994.23	2.11
0.3939	323.15	996.86	2.11
0.5049	323.15	999.37	2.11
0.6189	323.15	1001.91	2.11
0.7406	323.15	1004.58	2.11
0.8516	323.15	1007	2.11
1.0065	323.15	1010.45	2.11
0.0163	328.15	986.06	2.11
0.0218	328.15	986.18	2.11
0.0277	328.15	986.3	2.11
0.0543	328.15	986.87	2.11
0.1629	328.15	989.26	2.11
0.2778	328.15	991.83	2.11
0.3939	328.15	994.44	2.11
0.5049	328.15	996.95	2.11
0.6189	328.15	999.46	2.11
0.7406	328.15	1002.21	2.11
0.8516	328.15	1004.64	2.11
1.0065	328.15	1008.08	2.11

System: 1-butyl-3-methylimidazolium alaninate + water; phases: Liquid
Fixed: Pressure, kPa = 100.3
Property: Viscosity, Pa*s (Liquid); method: Capillary tube (Ostwald; Ubbelohde) method
Temperature, K	Molality, mol/kg of 1-butyl-3-methylimidazolium alaninate	Viscosity, Pa*s	uncertainty
288.15	0.0163	0.0011556	1.58e-05
288.15	0.0218	0.0011621	1.58e-05
288.15	0.0277	0.0011675	1.58e-05
288.15	0.0543	0.0012034	1.59e-05
288.15	0.1629	0.0013613	1.63e-05
288.15	0.2778	0.0015127	1.66e-05
288.15	0.3939	0.001658	1.71e-05
288.15	0.5049	0.0018211	1.75e-05
288.15	0.6189	0.0019572	1.79e-05
288.15	0.7406	0.0021008	1.84e-05
288.15	0.8516	0.0022461	1.89e-05
288.15	1.0065	0.0024585	1.97e-05
293.15	0.0163	0.0010165	1.55e-05
293.15	0.0218	0.0010222	1.55e-05
293.15	0.0277	0.0010265	1.56e-05
293.15	0.0543	0.0010569	1.56e-05
293.15	0.1629	0.0011973	1.59e-05
293.15	0.2778	0.0013257	1.62e-05
293.15	0.3939	0.0014464	1.65e-05
293.15	0.5049	0.0015751	1.69e-05
293.15	0.6189	0.0016974	1.72e-05
293.15	0.7406	0.001819	1.76e-05
293.15	0.8516	0.0019407	1.8e-05
293.15	1.0065	0.0021073	1.85e-05
298.15	0.0163	0.0009003	1.53e-05
298.15	0.0218	0.0009071	1.53e-05
298.15	0.0277	0.0009112	1.53e-05
298.15	0.0543	0.0009375	1.54e-05
298.15	0.1629	0.0010569	1.56e-05
298.15	0.2778	0.001163	1.58e-05
298.15	0.3939	0.0012732	1.61e-05
298.15	0.5049	0.0013681	1.63e-05
298.15	0.6189	0.0014774	1.66e-05
298.15	0.7406	0.00158	1.69e-05
298.15	0.8516	0.0016768	1.72e-05
298.15	1.0065	0.001825	1.76e-05
303.15	0.0163	0.0008104	1.52e-05
303.15	0.0218	0.000813	1.52e-05
303.15	0.0277	0.0008167	1.52e-05
303.15	0.0543	0.0008381	1.52e-05
303.15	0.1629	0.000939	1.54e-05
303.15	0.2778	0.0010276	1.56e-05
303.15	0.3939	0.001119	1.58e-05
303.15	0.5049	0.0012091	1.6e-05
303.15	0.6189	0.0013012	1.62e-05
303.15	0.7406	0.00138	1.64e-05
303.15	0.8516	0.0014686	1.66e-05
303.15	1.0065	0.0015979	1.7e-05
308.15	0.0163	0.0007262	1.5e-05
308.15	0.0218	0.0007317	1.5e-05
308.15	0.0277	0.0007348	1.51e-05
308.15	0.0543	0.0007552	1.51e-05
308.15	0.1629	0.0008415	1.52e-05
308.15	0.2778	0.0009167	1.54e-05
308.15	0.3939	0.0009975	1.55e-05
308.15	0.5049	0.0010702	1.57e-05
308.15	0.6189	0.0011466	1.58e-05
308.15	0.7406	0.0012247	1.6e-05
308.15	0.8516	0.0012923	1.62e-05
308.15	1.0065	0.0013932	1.64e-05
313.15	0.0163	0.0006611	1.49e-05
313.15	0.0218	0.0006639	1.5e-05
313.15	0.0277	0.0006664	1.5e-05
313.15	0.0543	0.0006846	1.5e-05
313.15	0.1629	0.0007589	1.51e-05
313.15	0.2778	0.0008273	1.52e-05
313.15	0.3939	0.000894	1.53e-05
313.15	0.5049	0.0009585	1.54e-05
313.15	0.6189	0.0010266	1.56e-05
313.15	0.7406	0.0010885	1.57e-05
313.15	0.8516	0.0011565	1.59e-05
313.15	1.0065	0.0012531	1.61e-05
318.15	0.0163	0.000604	1.49e-05
318.15	0.0218	0.000606	1.49e-05
318.15	0.0277	0.0006084	1.49e-05
318.15	0.0543	0.0006258	1.49e-05
318.15	0.1629	0.0006882	1.5e-05
318.15	0.2778	0.0007492	1.51e-05
318.15	0.3939	0.0008056	1.52e-05
318.15	0.5049	0.0008672	1.53e-05
318.15	0.6189	0.0009286	1.54e-05
318.15	0.7406	0.0009855	1.55e-05
318.15	0.8516	0.0010365	1.56e-05
318.15	1.0065	0.0011145	1.58e-05
323.15	0.0163	0.000554	1.48e-05
323.15	0.0218	0.0005565	1.48e-05
323.15	0.0277	0.0005587	1.48e-05
323.15	0.0543	0.0005729	1.48e-05
323.15	0.1629	0.0006292	1.49e-05
323.15	0.2778	0.0006848	1.5e-05
323.15	0.3939	0.000736	1.51e-05
323.15	0.5049	0.0007811	1.51e-05
323.15	0.6189	0.0008317	1.52e-05
323.15	0.7406	0.0008875	1.53e-05
323.15	0.8516	0.0009318	1.54e-05
323.15	1.0065	0.0009995	1.55e-05
328.15	0.0163	0.0005108	1.48e-05
328.15	0.0218	0.0005134	1.48e-05
328.15	0.0277	0.0005154	1.48e-05
328.15	0.0543	0.0005291	1.48e-05
328.15	0.1629	0.0005801	1.48e-05
328.15	0.2778	0.000625	1.49e-05
328.15	0.3939	0.0006724	1.5e-05
328.15	0.5049	0.0007166	1.5e-05
328.15	0.6189	0.0007638	1.51e-05
328.15	0.7406	0.0008072	1.52e-05
328.15	0.8516	0.0008505	1.53e-05
328.15	1.0065	0.0009115	1.54e-05

System: 3-methyl-1-pentylimidazolium alaninate + water; phases: Liquid
Fixed: Pressure, kPa = 100.3
Property: Mass density, kg/m3 (Liquid); method: Vibrating tube method
Molality, mol/kg of 3-methyl-1-pentylimidazolium alaninate	Temperature, K	Mass density, kg/m3	uncertainty
0.0167	288.15	999.53	2.11
0.0222	288.15	999.66	2.11
0.0279	288.15	999.8	2.11
0.0562	288.15	1000.5	2.12
0.1681	288.15	1003.31	2.12
0.2834	288.15	1006.24	2.12
0.3868	288.15	1008.89	2.12
0.5075	288.15	1011.97	2.12
0.6214	288.15	1014.79	2.12
0.7266	288.15	1017.46	2.12
0.8339	288.15	1020.12	2.11
1.0157	288.15	1024.49	2.11
0.0167	293.15	998.6	2.12
0.0222	293.15	998.73	2.12
0.0279	293.15	998.86	2.11
0.0562	293.15	999.52	2.11
0.1681	293.15	1002.22	2.11
0.2834	293.15	1005.01	2.11
0.3868	293.15	1007.53	2.11
0.5075	293.15	1010.47	2.11
0.6214	293.15	1013.21	2.11
0.7266	293.15	1015.77	2.11
0.8339	293.15	1018.33	2.11
1.0157	293.15	1022.54	2.11
0.0167	298.15	997.42	2.12
0.0222	298.15	997.54	2.11
0.0279	298.15	997.67	2.11
0.0562	298.15	998.29	2.11
0.1681	298.15	1000.85	2.11
0.2834	298.15	1003.51	2.11
0.3868	298.15	1005.96	2.11
0.5075	298.15	1008.67	2.11
0.6214	298.15	1011.31	2.11
0.7266	298.15	1013.74	2.11
0.8339	298.15	1016.18	2.11
1.0157	298.15	1020.28	2.11
0.0167	303.15	996.01	2.12
0.0222	303.15	996.12	2.11
0.0279	303.15	996.24	2.11
0.0562	303.15	996.83	2.11
0.1681	303.15	999.3	2.11
0.2834	303.15	1001.94	2.11
0.3868	303.15	1004.28	2.11
0.5075	303.15	1007.02	2.11
0.6214	303.15	1009.53	2.11
0.7266	303.15	1011.94	2.11
0.8339	303.15	1014.3	2.11
1.0157	303.15	1018.24	2.11
0.0167	308.15	994.39	2.12
0.0222	308.15	994.5	2.11
0.0279	308.15	994.62	2.11
0.0562	308.15	995.2	2.11
0.1681	308.15	997.61	2.11
0.2834	308.15	1000.17	2.11
0.3868	308.15	1002.49	2.11
0.5075	308.15	1005.16	2.11
0.6214	308.15	1007.74	2.11
0.7266	308.15	1010.01	2.11
0.8339	308.15	1012.39	2.11
1.0157	308.15	1016.34	2.11
0.0167	313.15	992.56	2.11
0.0222	313.15	992.67	2.11
0.0279	313.15	992.78	2.11
0.0562	313.15	993.35	2.11
0.1681	313.15	995.7	2.11
0.2834	313.15	998.19	2.11
0.3868	313.15	1000.52	2.11
0.5075	313.15	1003.09	2.11
0.6214	313.15	1005.67	2.11
0.7266	313.15	1008.03	2.11
0.8339	313.15	1010.3	2.11
1.0157	313.15	1014.21	2.11
0.0167	318.15	990.56	2.12
0.0222	318.15	990.67	2.11
0.0279	318.15	990.78	2.11
0.0562	318.15	991.35	2.11
0.1681	318.15	993.68	2.11
0.2834	318.15	996.17	2.11
0.3868	318.15	998.49	2.11
0.5075	318.15	1001.07	2.11
0.6214	318.15	1003.59	2.11
0.7266	318.15	1005.96	2.11
0.8339	318.15	1008.28	2.11
1.0157	318.15	1012.05	2.11
0.0167	323.15	988.38	2.11
0.0222	323.15	988.49	2.11
0.0279	323.15	988.6	2.11
0.0562	323.15	989.16	2.11
0.1681	323.15	991.5	2.11
0.2834	323.15	993.94	2.11
0.3868	323.15	996.26	2.11
0.5075	323.15	998.85	2.11
0.6214	323.15	1001.42	2.11
0.7266	323.15	1003.68	2.11
0.8339	323.15	1006.14	2.11
1.0157	323.15	1009.83	2.11
0.0167	328.15	986.04	2.11
0.0222	328.15	986.15	2.11
0.0279	328.15	986.26	2.11
0.0562	328.15	986.82	2.11
0.1681	328.15	989.15	2.11
0.2834	328.15	991.62	2.11
0.3868	328.15	993.95	2.11
0.5075	328.15	996.57	2.11
0.6214	328.15	999.06	2.11
0.7266	328.15	1001.38	2.11
0.8339	328.15	1003.74	2.11
1.0157	328.15	1007.45	2.11

System: 3-methyl-1-pentylimidazolium alaninate + water; phases: Liquid
Fixed: Pressure, kPa = 100.3
Property: Viscosity, Pa*s (Liquid); method: Capillary tube (Ostwald; Ubbelohde) method
Temperature, K	Molality, mol/kg of 3-methyl-1-pentylimidazolium alaninate	Viscosity, Pa*s	uncertainty
288.15	0.0167	0.0011556	1.58e-05
288.15	0.0222	0.0011621	1.58e-05
288.15	0.0279	0.0011674	1.58e-05
288.15	0.0562	0.0012033	1.59e-05
288.15	0.1681	0.0013612	1.63e-05
288.15	0.2834	0.0015123	1.67e-05
288.15	0.3868	0.0016567	1.7e-05
288.15	0.5075	0.0018201	1.75e-05
288.15	0.6214	0.0019557	1.8e-05
288.15	0.7266	0.0020982	1.84e-05
288.15	0.8339	0.0022428	1.89e-05
288.15	1.0157	0.0024562	1.97e-05
293.15	0.0167	0.0010154	1.55e-05
293.15	0.0222	0.0010221	1.55e-05
293.15	0.0279	0.0010265	1.56e-05
293.15	0.0562	0.0010568	1.56e-05
293.15	0.1681	0.0011972	1.59e-05
293.15	0.2834	0.0013253	1.62e-05
293.15	0.3868	0.0014454	1.65e-05
293.15	0.5075	0.0015741	1.69e-05
293.15	0.6214	0.001696	1.72e-05
293.15	0.7266	0.0018167	1.76e-05
293.15	0.8339	0.0019379	1.8e-05
293.15	1.0157	0.0021052	1.85e-05
298.15	0.0167	0.0009003	1.53e-05
298.15	0.0222	0.0009071	1.53e-05
298.15	0.0279	0.0009112	1.53e-05
298.15	0.0562	0.0009375	1.54e-05
298.15	0.1681	0.0010568	1.56e-05
298.15	0.2834	0.0011627	1.58e-05
298.15	0.3868	0.0012724	1.61e-05
298.15	0.5075	0.0013672	1.63e-05
298.15	0.6214	0.0014763	1.66e-05
298.15	0.7266	0.001578	1.69e-05
298.15	0.8339	0.0016743	1.72e-05
298.15	1.0157	0.0018232	1.76e-05
303.15	0.0167	0.0008098	1.52e-05
303.15	0.0222	0.000813	1.52e-05
303.15	0.0279	0.0008166	1.52e-05
303.15	0.0562	0.000838	1.52e-05
303.15	0.1681	0.0009388	1.54e-05
303.15	0.2834	0.0010273	1.56e-05
303.15	0.3868	0.0011182	1.58e-05
303.15	0.5075	0.0012084	1.6e-05
303.15	0.6214	0.0013002	1.62e-05
303.15	0.7266	0.0013783	1.64e-05
303.15	0.8339	0.0014667	1.66e-05
303.15	1.0157	0.0015964	1.7e-05
308.15	0.0167	0.0007252	1.5e-05
308.15	0.0222	0.0007316	1.5e-05
308.15	0.0279	0.0007348	1.51e-05
308.15	0.0562	0.0007552	1.51e-05
308.15	0.1681	0.0008414	1.52e-05
308.15	0.2834	0.0009165	1.54e-05
308.15	0.3868	0.0009968	1.55e-05
308.15	0.5075	0.0010696	1.57e-05
308.15	0.6214	0.0011459	1.58e-05
308.15	0.7266	0.0012234	1.6e-05
308.15	0.8339	0.0012907	1.62e-05
308.15	1.0157	0.0013921	1.64e-05
313.15	0.0167	0.000661	1.49e-05
313.15	0.0222	0.0006639	1.5e-05
313.15	0.0279	0.0006664	1.5e-05
313.15	0.0562	0.0006845	1.5e-05
313.15	0.1681	0.0007587	1.51e-05
313.15	0.2834	0.0008271	1.52e-05
313.15	0.3868	0.0008934	1.53e-05
313.15	0.5075	0.0009579	1.54e-05
313.15	0.6214	0.0010259	1.56e-05
313.15	0.7266	0.0010875	1.57e-05
313.15	0.8339	0.0011552	1.59e-05
313.15	1.0157	0.0012521	1.61e-05
318.15	0.0167	0.0006043	1.49e-05
318.15	0.0222	0.000606	1.49e-05
318.15	0.0279	0.0006084	1.49e-05
318.15	0.0562	0.0006257	1.49e-05
318.15	0.1681	0.0006881	1.5e-05
318.15	0.2834	0.000749	1.51e-05
318.15	0.3868	0.0008052	1.52e-05
318.15	0.5075	0.0008668	1.53e-05
318.15	0.6214	0.0009281	1.54e-05
318.15	0.7266	0.0009846	1.55e-05
318.15	0.8339	0.0010354	1.56e-05
318.15	1.0157	0.0011138	1.58e-05
323.15	0.0167	0.000554	1.48e-05
323.15	0.0222	0.0005564	1.48e-05
323.15	0.0279	0.0005587	1.48e-05
323.15	0.0562	0.0005729	1.48e-05
323.15	0.1681	0.0006292	1.49e-05
323.15	0.2834	0.0006846	1.5e-05
323.15	0.3868	0.0007355	1.51e-05
323.15	0.5075	0.0007807	1.51e-05
323.15	0.6214	0.0008312	1.52e-05
323.15	0.7266	0.0008867	1.53e-05
323.15	0.8339	0.000931	1.54e-05
323.15	1.0157	0.0009988	1.55e-05
328.15	0.0167	0.0005108	1.48e-05
328.15	0.0222	0.0005134	1.48e-05
328.15	0.0279	0.0005154	1.48e-05
328.15	0.0562	0.0005291	1.48e-05
328.15	0.1681	0.0005801	1.48e-05
328.15	0.2834	0.0006249	1.49e-05
328.15	0.3868	0.0006721	1.5e-05
328.15	0.5075	0.0007163	1.5e-05
328.15	0.6214	0.0007634	1.51e-05
328.15	0.7266	0.0008065	1.52e-05
328.15	0.8339	0.0008497	1.53e-05
328.15	1.0157	0.0009109	1.54e-05
