Measured thermophysical data. Studies on Phase Equilibria in the Quaternary Systems LiCl-KCl-MgCl2-H2O and Li2B4O7-Na2B4O7-MgB4O7-H2O at 273 K
Source: J. Chem. Eng. Data, 2018, 10.1021/acs.jced.7b00800
Compound 1: lithium chloride, ClLi, InChI=1S/ClH.Li/h1H;/q;+1/p-1
Compound 2: potassium chloride, ClK, InChI=1S/ClH.K/h1H;/q;+1/p-1
Compound 3: magnesium chloride, Cl2Mg, InChI=1S/2ClH.Mg/h2*1H;/q;;+2/p-2
Compound 4: lithium borate, B4Li2O7, InChI=1S/B4O7.2Li/c5-3-7-1-8-4(6,11-3)10-2-9-3;;/q-2;2*+1
Compound 5: sodium tetraborate, B4Na2O7, InChI=1S/B4O7.2Na/c5-1-9-3(7)11-4(8)10-2-6;;/q-2;2*+1
Compound 6: magnesium tetraborate, B4MgO7, InChI=1S/B4O7.Mg/c5-1-7-3-9-2(6)10-4(8-1)11-3;/q-2;+2
Compound 7: water, H2O, InChI=1S/H2O/h1H2, purity 99.8%

System: water + magnesium chloride + potassium chloride; phases: Liquid, Crystal
Property: Mass fraction of magnesium chloride (Liquid); method: Titration method
Mass fraction of potassium chloride	Temperature, K	Pressure, kPa	Mass fraction of magnesium chloride	uncertainty
0.024	273	94.77	0.2674	0.008

System: water + magnesium chloride + potassium chloride; phases: Liquid, Crystal of intercomponent compound 1
Fixed: Temperature, K = 273
Fixed: Pressure, kPa = 94.77
Property: Mass fraction of magnesium chloride (Liquid); method: Titration method
Mass fraction of potassium chloride	Mass fraction of magnesium chloride	uncertainty
0.024	0.2674	0.0008
0.001	0.3462	0.001

System: water + magnesium chloride + potassium chloride; phases: Liquid, Crystal of intercomponent compound 2
Property: Mass fraction of magnesium chloride (Liquid); method: Titration method
Mass fraction of potassium chloride	Temperature, K	Pressure, kPa	Mass fraction of magnesium chloride	uncertainty
0.001	273	94.77	0.3462	0.001

System: water + magnesium chloride + lithium chloride; phases: Liquid, Crystal of intercomponent compound 2
Property: Mass fraction of magnesium chloride (Liquid); method: Titration method
Mass fraction of lithium chloride	Temperature, K	Pressure, kPa	Mass fraction of magnesium chloride	uncertainty
0.3006	273	94.77	0.1043	0.0003

System: water + magnesium chloride + lithium chloride; phases: Liquid, Crystal of intercomponent compound 1
Fixed: Temperature, K = 273
Fixed: Pressure, kPa = 94.77
Property: Mass fraction of magnesium chloride (Liquid); method: Titration method
Mass fraction of lithium chloride	Mass fraction of magnesium chloride	uncertainty
0.3006	0.1043	0.0003
0.3291	0.0813	0.0003

System: water + magnesium chloride + lithium chloride; phases: Liquid, Crystal of intercomponent compound 3
Property: Mass fraction of magnesium chloride (Liquid); method: Titration method
Mass fraction of lithium chloride	Temperature, K	Pressure, kPa	Mass fraction of magnesium chloride	uncertainty
0.3291	273	94.77	0.0813	0.0003

System: water + potassium chloride + lithium chloride; phases: Liquid, Crystal of intercomponent compound 1
Property: Mass fraction of potassium chloride (Liquid); method: Titration method
Mass fraction of lithium chloride	Temperature, K	Pressure, kPa	Mass fraction of potassium chloride	uncertainty
0.4387	273	94.77	0.0212	0.006

System: water + potassium chloride + lithium chloride; phases: Liquid, Crystal
Property: Mass fraction of potassium chloride (Liquid); method: Titration method
Mass fraction of lithium chloride	Temperature, K	Pressure, kPa	Mass fraction of potassium chloride	uncertainty
0.4387	273	94.77	0.0212	0.006

System: water + lithium borate + sodium tetraborate; phases: Liquid, Crystal of intercomponent compound 1
Property: Mass fraction of lithium borate (Liquid); method: Titration method
Mass fraction of sodium tetraborate	Temperature, K	Pressure, kPa	Mass fraction of lithium borate	uncertainty
0.0042	273	94.77	0.0244	0.01

System: water + lithium borate + sodium tetraborate; phases: Liquid, Crystal of intercomponent compound 2
Property: Mass fraction of lithium borate (Liquid); method: Titration method
Mass fraction of sodium tetraborate	Temperature, K	Pressure, kPa	Mass fraction of lithium borate	uncertainty
0.0042	273	94.77	0.0244	0.01

System: water + lithium borate + magnesium tetraborate; phases: Liquid, Crystal of intercomponent compound 1
Property: Mass fraction of lithium borate (Liquid); method: Titration method
Mass fraction of magnesium tetraborate	Temperature, K	Pressure, kPa	Mass fraction of lithium borate	uncertainty
0.001	273	94.77	0.0231	0.01

System: water + lithium borate + magnesium tetraborate; phases: Liquid, Crystal of intercomponent compound 2
Property: Mass fraction of lithium borate (Liquid); method: Titration method
Mass fraction of magnesium tetraborate	Temperature, K	Pressure, kPa	Mass fraction of lithium borate	uncertainty
0.001	273	94.77	0.0231	0.01

System: water + sodium tetraborate + magnesium tetraborate; phases: Liquid, Crystal of intercomponent compound 1
Property: Mass fraction of sodium tetraborate (Liquid); method: Titration method
Mass fraction of magnesium tetraborate	Temperature, K	Pressure, kPa	Mass fraction of sodium tetraborate	uncertainty
0.0008	273	94.77	0.0099	0.0099

System: water + sodium tetraborate + magnesium tetraborate; phases: Liquid, Crystal of intercomponent compound 2
Property: Mass fraction of sodium tetraborate (Liquid); method: Titration method
Mass fraction of magnesium tetraborate	Temperature, K	Pressure, kPa	Mass fraction of sodium tetraborate	uncertainty
0.0008	273	94.77	0.0099	0.0099
