Measured thermophysical data. Experimental Study on the Solubility of Carbon Dioxide in Nitrate and Thiocyanate-Based Ionic Liquids
Source: J. Chem. Eng. Data, 2016, 10.1021/acs.jced.5b00894
Compound 1: 1-methyl-3-octyl-1H-imidazolium thiocyanate, C13H23N3S, InChI=1S/C12H23N2.CHNS/c1-3-4-5-6-7-8-9-14-11-10-13(2)12-14;2-1-3/h10-12H,3-9H2,1-2H3;3H/q+1;/p-1, purity 98%
Compound 2: 1-hexyl-3-methylimidazolium thiocyanate, C11H19N3S, InChI=1S/C10H19N2.CHNS/c1-3-4-5-6-7-12-9-8-11(2)10-12;2-1-3/h8-10H,3-7H2,1-2H3;3H/q+1;/p-1, purity 98%
Compound 3: 1-butyl-3-methylimidazolium tetrafluoroborate, C8H15BF4N2, InChI=1S/C8H15N2.BF4/c1-3-4-5-10-7-6-9(2)8-10;2-1(3,4)5/h6-8H,3-5H2,1-2H3;/q+1;-1, purity 98%
Compound 4: 1-methyl-3-octylimidazolium nitrate, C12H23N3O3, InChI=1S/C12H23N2.NO3/c1-3-4-5-6-7-8-9-14-11-10-13(2)12-14;2-1(3)4/h10-12H,3-9H2,1-2H3;/q+1;-1, purity 98%
Compound 5: carbon dioxide, CO2, InChI=1S/CO2/c2-1-3, purity 99.95%

System: 1-hexyl-3-methylimidazolium thiocyanate; phases: Liquid
Fixed: Pressure, kPa = 88
Property: Mass density, kg/m3 (Liquid); method: Vibrating tube method
Temperature, K	Mass density, kg/m3	uncertainty
298.15	1036.21	4.09
313.15	1027.55	4.08
333.15	1016.12	4.08

System: 1-butyl-3-methylimidazolium tetrafluoroborate; phases: Liquid
Fixed: Pressure, kPa = 88
Property: Mass density, kg/m3 (Liquid); method: Vibrating tube method
Temperature, K	Mass density, kg/m3	uncertainty
298.15	1202.71	4.17
313.15	1192.29	4.16
333.15	1178.73	4.15

System: 1-methyl-3-octylimidazolium nitrate; phases: Liquid
Fixed: Pressure, kPa = 88
Property: Mass density, kg/m3 (Liquid); method: Vibrating tube method
Temperature, K	Mass density, kg/m3	uncertainty
298.15	1063.86	4.1
313.15	1054.55	4.09
333.15	1042.42	4.09

System: carbon dioxide + 1-hexyl-3-methylimidazolium thiocyanate; phases: Liquid, Gas
Property: Vapor or sublimation pressure, kPa (Liquid); method: Closed cell (Static) method
Temperature, K	Molality, mol/kg of carbon dioxide	Vapor or sublimation pressure, kPa	uncertainty
298.15	0.2338	450	277
298.15	0.5352	1027	269
298.15	0.9353	1714	271
298.15	1.3346	2479	279
298.15	2.3912	4521	279
313.15	0.2541	708	344
313.15	0.479	1288	325
313.15	0.7721	2034	324
313.15	1.0874	2890	347
313.15	1.4123	3737	303
333.15	0.2701	856	364
333.15	0.4452	1388	367
333.15	0.6711	2089	388
333.15	0.9079	2925	374
333.15	1.2678	3986	357

System: carbon dioxide + 1-methyl-3-octyl-1H-imidazolium thiocyanate; phases: Liquid, Gas
Property: Vapor or sublimation pressure, kPa (Liquid); method: Closed cell (Static) method
Temperature, K	Molality, mol/kg of carbon dioxide	Vapor or sublimation pressure, kPa	uncertainty
298.15	0.52	994	263
298.15	0.8046	1479	258
298.15	1.2333	2156	260
298.15	1.7209	2998	264
298.15	2.107	3658	264
313.15	0.3667	863	310
313.15	0.6302	1471	307
313.15	0.9931	2335	303
313.15	1.3329	3087	298
313.15	1.7356	3962	296
333.15	0.2906	915	351
333.15	0.4759	1450	356
333.15	0.7122	2156	356
333.15	0.9712	2907	372
333.15	1.1821	3633	360
333.15	1.4877	4459	337

System: carbon dioxide + 1-methyl-3-octylimidazolium nitrate; phases: Liquid, Gas
Property: Vapor or sublimation pressure, kPa (Liquid); method: Closed cell (Static) method
Temperature, K	Molality, mol/kg of carbon dioxide	Vapor or sublimation pressure, kPa	uncertainty
298.15	0.2082	296	251
298.15	0.4327	636	248
298.15	0.7259	1053	242
298.15	1.043	1469	241
298.15	1.421	1983	242
298.15	1.8818	2608	239
298.15	2.3572	3201	238
298.15	2.7097	3669	241
313.15	0.2418	436	269
313.15	0.5516	989	271
313.15	0.8597	1562	266
313.15	1.2219	2178	260
313.15	1.6627	2910	259
313.15	2.1616	3717	258
333.15	0.1938	446	293
333.15	0.451	998	303
333.15	0.6884	1573	307
333.15	0.9756	2219	303
333.15	1.2589	2869	299
333.15	1.6111	3631	295

System: carbon dioxide + 1-butyl-3-methylimidazolium tetrafluoroborate; phases: Liquid, Gas
Property: Vapor or sublimation pressure, kPa (Liquid); method: Closed cell (Static) method
Temperature, K	Molality, mol/kg of carbon dioxide	Vapor or sublimation pressure, kPa	uncertainty
298.15	0.3141	358	228
298.15	0.7181	799	226
298.15	1.1925	1287	223
298.15	1.8067	1875	221
298.15	2.432	2426	219
298.15	3.0703	2941	216
298.15	3.6598	3376	215
313.15	0.2274	416	284
313.15	0.4993	930	269
313.15	0.8118	1500	276
313.15	1.1548	2178	282
313.15	1.4822	2820	277
313.15	1.8052	3419	283
313.15	2.037	3924	297
333.15	0.1788	480	343
333.15	0.3442	941	349
333.15	0.5304	1484	352
333.15	0.7187	2025	353
333.15	0.8996	2555	341
333.15	1.0572	2959	326
