Measured thermophysical data. Solubility of NaHCO3 and NH4HCO3 in the Relevant Media and Prediction of High-Pressure Phase Equilibria for the NH3-CO2-NaCl-H2O System
Source: J. Chem. Eng. Data, 2017, 10.1021/acs.jced.7b00790
Compound 1: sodium bicarbonate, CHNaO3, InChI=1S/CH2O3.Na/c2-1(3)4;/h(H2,2,3,4);/q;+1/p-1, purity 99.5%
Compound 2: sodium carbonate, CNa2O3, InChI=1S/CH2O3.2Na/c2-1(3)4;;/h(H2,2,3,4);;/q;2*+1/p-2, purity 99.8%
Compound 3: acid ammonium carbonate, CH5NO3, InChI=1S/CH2O3.H3N/c2-1(3)4;/h(H2,2,3,4);1H3, purity 95%
Compound 4: sodium chloride, ClNa, InChI=1S/ClH.Na/h1H;/q;+1/p-1, purity 99.5%
Compound 5: water, H2O, InChI=1S/H2O/h1H2, purity 99.9%

System: sodium carbonate + water + sodium bicarbonate; phases: Liquid, Crystal
Fixed: Pressure, kPa = 100
Property: Molality, mol/kg of sodium bicarbonate (Liquid); method: titration
Temperature, K	Molality, mol/kg of sodium carbonate	Molality, mol/kg of sodium bicarbonate	uncertainty
293.15	0.2	1.0555	0.0432
293.15	0.4	0.9804	0.0432
293.15	0.6	0.8993	0.0436
293.15	0.8	0.8149	0.0427
293.15	1	0.7586	0.0405
293.15	1.2	0.7659	0.0402
293.15	1.4	0.7344	0.0415
293.15	1.6	0.6621	0.0412
293.15	1.8	0.6418	0.0408
293.15	2	0.5933	0.0414
303.15	0.2	1.2638	0.0476
303.15	0.4	1.1228	0.046
303.15	0.6	1.0449	0.0433
303.15	0.8	0.9665	0.0433
303.15	1	0.8869	0.0416
303.15	1.2	0.8612	0.0407
303.15	1.4	0.8232	0.0407
303.15	1.6	0.7952	0.041
303.15	1.8	0.746	0.0408
303.15	2	0.7219	0.0406
313.15	0.2	1.4237	0.0467
313.15	0.4	1.3241	0.0459
313.15	0.6	1.2083	0.0445
313.15	0.8	1.14	0.0441
313.15	1	1.0307	0.0423
313.15	1.2	1.0185	0.0412
313.15	1.4	0.9506	0.0415
313.15	1.6	0.9222	0.041
313.15	1.8	0.8734	0.041
313.15	2	0.8427	0.0405
323.15	0.2	1.6333	0.0459
323.15	0.4	1.5043	0.0455
323.15	0.6	1.4265	0.0454
323.15	0.8	1.3013	0.0429
323.15	1	1.2829	0.0415
323.15	1.2	1.2165	0.0423
323.15	1.4	1.1607	0.0423
323.15	1.6	1.0942	0.0425
323.15	1.8	1.0301	0.0418
323.15	2	0.9914	0.0406
333.15	0.2	1.7807	0.0424
333.15	0.4	1.7174	0.0435
333.15	0.6	1.6256	0.0462
333.15	0.8	1.4966	0.0435
333.15	1	1.4729	0.0412
333.15	1.2	1.4185	0.0426
333.15	1.4	1.3418	0.042
333.15	1.6	1.3076	0.0415
333.15	1.8	1.2571	0.0422
333.15	2	1.1952	0.0424

System: acid ammonium carbonate + water + sodium bicarbonate; phases: Liquid, Crystal
Fixed: Pressure, kPa = 100
Property: Molality, mol/kg of sodium bicarbonate (Liquid); method: titration
Temperature, K	Molality, mol/kg of acid ammonium carbonate	Molality, mol/kg of sodium bicarbonate	uncertainty
283.15	0.2	0.9508	0.0411
283.15	0.4	0.9163	0.0411
283.15	0.6	0.8843	0.0412
283.15	0.8	0.8426	0.0412
283.15	1	0.8136	0.0408
283.15	1.2	0.7917	0.0406
283.15	1.4	0.7669	0.0406
283.15	1.6	0.7504	0.0405
288.15	0.2	1.0577	0.0409
288.15	0.4	1.0243	0.0412
288.15	0.6	0.9827	0.041
288.15	0.8	0.9567	0.0411
288.15	1	0.9165	0.0412
288.15	1.2	0.8782	0.0409
288.15	1.4	0.8561	0.0406
288.15	1.6	0.8396	0.0407
288.15	1.8	0.806	0.0406
288.15	2	0.8007	0.0405
293.15	0.2	1.1473	0.0408
293.15	0.4	1.1161	0.041
293.15	0.6	1.0761	0.0409
293.15	0.8	1.0502	0.0409
293.15	1	1.0135	0.0411
293.15	1.2	0.9746	0.0409
293.15	1.4	0.9533	0.0407
293.15	1.6	0.9321	0.0406
293.15	1.8	0.9123	0.0406
293.15	2	0.9036	0.0405
298.15	0.2	1.2249	0.0408
298.15	0.4	1.197	0.0409
298.15	0.6	1.1585	0.0409
298.15	0.8	1.1333	0.0408
298.15	1	1.1017	0.0409
298.15	1.2	1.074	0.0409
298.15	1.4	1.0474	0.0408
298.15	1.6	1.0218	0.0408
298.15	1.8	0.9981	0.0406
298.15	2	0.9858	0.0405
303.15	0.2	1.3074	0.0408
303.15	0.4	1.2775	0.0407
303.15	0.6	1.2595	0.0408
303.15	0.8	1.2344	0.0409
303.15	1	1.202	0.0409
303.15	1.2	1.1838	0.0409
303.15	1.4	1.1511	0.041
303.15	1.6	1.1268	0.0408
303.15	1.8	1.106	0.0408
303.15	2	1.0901	0.0407

System: sodium chloride + water + sodium bicarbonate; phases: Liquid, Crystal
Fixed: Pressure, kPa = 100
Property: Molality, mol/kg of sodium bicarbonate (Liquid); method: titration
Temperature, K	Molality, mol/kg of sodium chloride	Molality, mol/kg of sodium bicarbonate	uncertainty
288.15	0	1.0493	0.0441
288.15	0.5205	0.8192	0.0433
288.15	1.0302	0.6392	0.0415
288.15	1.6782	0.5164	0.041
288.15	2.1098	0.4094	0.0406
288.15	3.1994	0.2796	0.0403
288.15	3.4356	0.2918	0.0403
288.15	4.3877	0.1894	0.0401
288.15	6.1117	0.1468	0.04
298.15	0	1.2207	0.0463
298.15	0.2967	1.0503	0.0435
298.15	0.6685	0.9311	0.0434
298.15	0.9884	0.7995	0.0429
298.15	1.3158	0.6947	0.0419
298.15	1.763	0.5858	0.0407
298.15	2.2186	0.5458	0.0407
298.15	2.5814	0.453	0.0409
298.15	2.862	0.421	0.0404
298.15	4.1516	0.2943	0.0405
298.15	4.2898	0.273	0.0404
298.15	4.747	0.216	0.0402
298.15	5.7427	0.1964	0.0401
298.15	6.0376	0.1627	0.0424
298.15	6.105	0.1962	0.0424
308.15	0.5	1.2268	0.0442
308.15	1	1.0054	0.0432
308.15	1.5	0.8463	0.0424
308.15	2	0.6838	0.0414
308.15	2.5	0.601	0.0408
308.15	3	0.5167	0.0407
308.15	3.5	0.4327	0.0405
308.15	4	0.3808	0.0402
308.15	4.5	0.3472	0.0402
308.15	5	0.2888	0.0402
308.15	5.5	0.2665	0.0401
308.15	6	0.2464	0.0401
318.15	0.5	1.4357	0.0453
318.15	1	1.1851	0.0439
318.15	1.5	1.0171	0.0423
318.15	2	0.8716	0.0421
318.15	2.5	0.7254	0.0414
318.15	3	0.6324	0.0409
318.15	3.5	0.536	0.0406
318.15	4	0.4763	0.0406
318.15	4.5	0.3777	0.0404
318.15	5	0.3335	0.0402
318.15	5.5	0.2996	0.0401
318.15	6	0.2893	0.04

System: water + sodium bicarbonate; phases: Liquid, Crystal
Fixed: Pressure, kPa = 100
Property: Molality, mol/kg of sodium bicarbonate (Liquid); method: titration
Temperature, K	Molality, mol/kg of sodium bicarbonate	uncertainty
288.15	1.0493	0.0404
298.15	1.2207	0.0404
