Measured thermophysical data. Densities and Viscosities for Binary Liquid Mixtures of Pentanol Isomers from (288.15 to 328.15) K at 0.1 MPa
Source: J. Chem. Eng. Data, 2019, 10.1021/acs.jced.8b00979
Compound 1: pentan-1-ol, C5H12O, InChI=1S/C5H12O/c1-2-3-4-5-6/h6H,2-5H2,1H3, purity 99.8%
Compound 2: pentan-2-ol, C5H12O, InChI=1S/C5H12O/c1-3-4-5(2)6/h5-6H,3-4H2,1-2H3, purity 99.7%
Compound 3: 2-methyl-1-butanol, C5H12O, InChI=1S/C5H12O/c1-3-5(2)4-6/h5-6H,3-4H2,1-2H3, purity 99.9%

System: pentan-1-ol; phases: Liquid
Fixed: Pressure, kPa = 100
Property: Mass density, kg/m3 (Liquid); method: Vibrating tube method
Temperature, K	Mass density, kg/m3	uncertainty
288.15	818.56	0.79
293.15	814.92	0.79
298.15	811.26	0.79
303.15	807.57	0.78
308.15	803.86	0.78
313.15	800.11	0.78
318.15	796.32	0.77
323.15	792.48	0.77
328.15	788.61	0.76

System: pentan-1-ol; phases: Liquid
Fixed: Pressure, kPa = 100
Property: Viscosity, Pa*s (Liquid); method: Capillary tube (Ostwald; Ubbelohde) method
Temperature, K	Viscosity, Pa*s	uncertainty
288.15	0.004698	0.00019
293.15	0.004043	0.000163
298.15	0.003501	0.000141
303.15	0.003028	0.000122
308.15	0.002671	0.000108
313.15	0.002335	9.4e-05
318.15	0.002052	8.3e-05
323.15	0.00181	7.3e-05
328.15	0.001607	6.5e-05

System: pentan-2-ol; phases: Liquid
Fixed: Pressure, kPa = 100
Property: Mass density, kg/m3 (Liquid); method: Vibrating tube method
Temperature, K	Mass density, kg/m3	uncertainty
288.15	813.34	0.79
293.15	809.38	0.78
298.15	805.35	0.78
303.15	801.24	0.78
308.15	797.05	0.77
313.15	792.78	0.77
318.15	788.42	0.77
323.15	783.99	0.76
328.15	779.46	0.76

System: pentan-2-ol; phases: Liquid
Fixed: Pressure, kPa = 100
Property: Viscosity, Pa*s (Liquid); method: Capillary tube (Ostwald; Ubbelohde) method
Temperature, K	Viscosity, Pa*s	uncertainty
288.15	0.005057	0.000204
293.15	0.004174	0.000169
298.15	0.003398	0.000137
303.15	0.00282	0.000114
308.15	0.002336	9.4e-05
313.15	0.00199	8e-05
318.15	0.001706	6.9e-05
323.15	0.001472	6e-05
328.15	0.001306	5.3e-05

System: 2-methyl-1-butanol; phases: Liquid
Fixed: Pressure, kPa = 100
Property: Mass density, kg/m3 (Liquid); method: Vibrating tube method
Temperature, K	Mass density, kg/m3	uncertainty
288.15	823.35	0.8
293.15	819.64	0.79
298.15	815.85	0.79
303.15	812.12	0.79
308.15	808.29	0.78
313.15	804.41	0.78
318.15	800.47	0.78
323.15	796.47	0.77
328.15	792.41	0.77

System: 2-methyl-1-butanol; phases: Liquid
Fixed: Pressure, kPa = 100
Property: Viscosity, Pa*s (Liquid); method: Capillary tube (Ostwald; Ubbelohde) method
Temperature, K	Viscosity, Pa*s	uncertainty
288.15	0.006439	0.00026
293.15	0.0053	0.000214
298.15	0.004501	0.000182
303.15	0.003825	0.000154
308.15	0.003265	0.000132
313.15	0.002783	0.000112
318.15	0.002379	9.6e-05
323.15	0.00206	8.3e-05
328.15	0.001787	7.2e-05

System: pentan-1-ol + pentan-2-ol; phases: Liquid
Fixed: Pressure, kPa = 100
Property: Mass density, kg/m3 (Liquid); method: Vibrating tube method
Temperature, K	Mole fraction of pentan-1-ol	Mass density, kg/m3	uncertainty
288.15	0	813.34	0.79
288.15	0.1	813.91	0.79
288.15	0.2	814.5	0.79
288.15	0.298	815.05	0.79
288.15	0.4	815.6	0.79
288.15	0.5	816.13	0.79
288.15	0.601	816.66	0.79
288.15	0.699	817.15	0.79
288.15	0.798	817.63	0.79
288.15	0.901	818.1	0.79
288.15	1	818.56	0.79
293.15	0	809.38	0.78
293.15	0.1	810	0.79
293.15	0.2	810.63	0.79
293.15	0.298	811.21	0.79
293.15	0.4	811.79	0.79
293.15	0.5	812.36	0.79
293.15	0.601	812.92	0.79
293.15	0.699	813.44	0.79
293.15	0.798	813.95	0.79
293.15	0.901	814.45	0.79
293.15	1	814.92	0.79
298.15	0	805.35	0.78
298.15	0.1	806.03	0.78
298.15	0.2	806.7	0.78
298.15	0.298	807.31	0.78
298.15	0.4	807.93	0.78
298.15	0.5	808.54	0.78
298.15	0.601	809.14	0.78
298.15	0.699	809.7	0.78
298.15	0.798	810.24	0.78
298.15	0.901	810.78	0.79
298.15	1	811.26	0.79
303.15	0	801.24	0.78
303.15	0.1	801.98	0.78
303.15	0.2	802.7	0.78
303.15	0.298	803.36	0.78
303.15	0.4	804.02	0.78
303.15	0.5	804.67	0.78
303.15	0.601	805.32	0.78
303.15	0.699	805.92	0.78
303.15	0.798	806.5	0.78
303.15	0.901	807.06	0.78
303.15	1	807.57	0.78
308.15	0	797.05	0.77
308.15	0.1	797.85	0.77
308.15	0.2	798.63	0.78
308.15	0.298	799.35	0.78
308.15	0.4	800.06	0.78
308.15	0.5	800.76	0.78
308.15	0.601	801.45	0.78
308.15	0.699	802.11	0.78
308.15	0.798	802.74	0.78
308.15	0.901	803.33	0.78
308.15	1	803.86	0.78
313.15	0	792.78	0.77
313.15	0.1	793.65	0.77
313.15	0.2	794.49	0.77
313.15	0.298	795.28	0.77
313.15	0.4	796.05	0.77
313.15	0.5	796.8	0.77
313.15	0.601	797.54	0.77
313.15	0.699	798.25	0.77
313.15	0.798	798.92	0.77
313.15	0.901	799.56	0.78
313.15	1	800.11	0.78
318.15	0	788.42	0.77
318.15	0.1	789.37	0.77
318.15	0.2	790.29	0.77
318.15	0.298	791.13	0.77
318.15	0.4	791.96	0.77
318.15	0.5	792.77	0.77
318.15	0.601	793.58	0.77
318.15	0.699	794.34	0.77
318.15	0.798	795.06	0.77
318.15	0.901	795.75	0.77
318.15	1	796.32	0.77
323.15	0	783.99	0.76
323.15	0.1	785.02	0.76
323.15	0.2	786.01	0.76
323.15	0.298	786.92	0.76
323.15	0.4	787.82	0.77
323.15	0.5	788.69	0.77
323.15	0.601	789.56	0.77
323.15	0.699	790.38	0.77
323.15	0.798	791.17	0.77
323.15	0.901	791.88	0.77
323.15	1	792.48	0.77
328.15	0	779.46	0.76
328.15	0.1	780.57	0.76
328.15	0.2	781.64	0.76
328.15	0.298	782.65	0.76
328.15	0.4	783.63	0.76
328.15	0.5	784.57	0.76
328.15	0.601	785.5	0.76
328.15	0.699	786.38	0.76
328.15	0.798	787.22	0.76
328.15	0.901	787.98	0.76
328.15	1	788.61	0.76

System: pentan-1-ol + pentan-2-ol; phases: Liquid
Fixed: Pressure, kPa = 100
Property: Viscosity, Pa*s (Liquid); method: Capillary tube (Ostwald; Ubbelohde) method
Temperature, K	Mole fraction of pentan-1-ol	Viscosity, Pa*s	uncertainty
288.15	0	0.005057	0.000204
288.15	0.1	0.004988	0.000201
288.15	0.2	0.004929	0.000199
288.15	0.298	0.004881	0.000197
288.15	0.4	0.004842	0.000195
288.15	0.5	0.004806	0.000194
288.15	0.601	0.004772	0.000193
288.15	0.699	0.004741	0.000191
288.15	0.798	0.004714	0.00019
288.15	0.901	0.004697	0.00019
288.15	1	0.004698	0.00019
293.15	0	0.004174	0.000169
293.15	0.1	0.004141	0.000167
293.15	0.2	0.004114	0.000166
293.15	0.298	0.004095	0.000165
293.15	0.4	0.004079	0.000165
293.15	0.5	0.004065	0.000164
293.15	0.601	0.004054	0.000164
293.15	0.699	0.004047	0.000163
293.15	0.798	0.004045	0.000163
293.15	0.901	0.004044	0.000163
293.15	1	0.004043	0.000163
298.15	0	0.003398	0.000137
298.15	0.1	0.003388	0.000137
298.15	0.2	0.003382	0.000137
298.15	0.298	0.003377	0.000136
298.15	0.4	0.003373	0.000136
298.15	0.5	0.003371	0.000136
298.15	0.601	0.003377	0.000136
298.15	0.699	0.003385	0.000137
298.15	0.798	0.003402	0.000137
298.15	0.901	0.003434	0.000139
298.15	1	0.003501	0.000141
303.15	0	0.00282	0.000114
303.15	0.1	0.002815	0.000114
303.15	0.2	0.002815	0.000114
303.15	0.298	0.002819	0.000114
303.15	0.4	0.002833	0.000114
303.15	0.5	0.002852	0.000115
303.15	0.601	0.002875	0.000116
303.15	0.699	0.002901	0.000117
303.15	0.798	0.002932	0.000118
303.15	0.901	0.002974	0.00012
303.15	1	0.003028	0.000122
308.15	0	0.002336	9.4e-05
308.15	0.1	0.002354	9.5e-05
308.15	0.2	0.002373	9.6e-05
308.15	0.298	0.002392	9.7e-05
308.15	0.4	0.002416	9.8e-05
308.15	0.5	0.002442	9.9e-05
308.15	0.601	0.002472	0.0001
308.15	0.699	0.002504	0.000101
308.15	0.798	0.00254	0.000103
308.15	0.901	0.002587	0.000104
308.15	1	0.002671	0.000108
313.15	0	0.00199	8e-05
313.15	0.1	0.002016	8.1e-05
313.15	0.2	0.002039	8.2e-05
313.15	0.298	0.002063	8.3e-05
313.15	0.4	0.00209	8.4e-05
313.15	0.5	0.002119	8.6e-05
313.15	0.601	0.002152	8.7e-05
313.15	0.699	0.002188	8.8e-05
313.15	0.798	0.002226	9e-05
313.15	0.901	0.002272	9.2e-05
313.15	1	0.002335	9.4e-05
318.15	0	0.001706	6.9e-05
318.15	0.1	0.001726	7e-05
318.15	0.2	0.001751	7.1e-05
318.15	0.298	0.001778	7.2e-05
318.15	0.4	0.001809	7.3e-05
318.15	0.5	0.001842	7.4e-05
318.15	0.601	0.001878	7.6e-05
318.15	0.699	0.001916	7.7e-05
318.15	0.798	0.001956	7.9e-05
318.15	0.901	0.001997	8.1e-05
318.15	1	0.002052	8.3e-05
323.15	0	0.001472	6e-05
323.15	0.1	0.001498	6.1e-05
323.15	0.2	0.001522	6.2e-05
323.15	0.298	0.001546	6.2e-05
323.15	0.4	0.001575	6.4e-05
323.15	0.5	0.001607	6.5e-05
323.15	0.601	0.001642	6.6e-05
323.15	0.699	0.001679	6.8e-05
323.15	0.798	0.001718	6.9e-05
323.15	0.901	0.001762	7.1e-05
323.15	1	0.00181	7.3e-05
328.15	0	0.001306	5.3e-05
328.15	0.1	0.001317	5.3e-05
328.15	0.2	0.001335	5.4e-05
328.15	0.298	0.001359	5.5e-05
328.15	0.4	0.001387	5.6e-05
328.15	0.5	0.001418	5.7e-05
328.15	0.601	0.00145	5.9e-05
328.15	0.699	0.001486	6e-05
328.15	0.798	0.001524	6.2e-05
328.15	0.901	0.001564	6.3e-05
328.15	1	0.001607	6.5e-05

System: pentan-1-ol + 2-methyl-1-butanol; phases: Liquid
Fixed: Pressure, kPa = 100
Property: Mass density, kg/m3 (Liquid); method: Vibrating tube method
Temperature, K	Mole fraction of pentan-1-ol	Mass density, kg/m3	uncertainty
288.15	0	823.35	0.8
288.15	0.1	822.86	0.8
288.15	0.2	822.37	0.8
288.15	0.3	821.88	0.79
288.15	0.399	821.4	0.79
288.15	0.5	820.92	0.79
288.15	0.6	820.44	0.79
288.15	0.699	819.96	0.79
288.15	0.799	819.5	0.79
288.15	0.899	819.03	0.79
288.15	1	818.56	0.79
293.15	0	819.64	0.79
293.15	0.1	819.15	0.79
293.15	0.2	818.66	0.79
293.15	0.3	818.19	0.79
293.15	0.399	817.71	0.79
293.15	0.5	817.24	0.79
293.15	0.6	816.77	0.79
293.15	0.699	816.3	0.79
293.15	0.799	815.84	0.79
293.15	0.899	815.38	0.79
293.15	1	814.92	0.79
298.15	0	815.85	0.79
298.15	0.1	815.37	0.79
298.15	0.2	814.9	0.79
298.15	0.3	814.43	0.79
298.15	0.399	813.97	0.79
298.15	0.5	813.51	0.79
298.15	0.6	813.05	0.79
298.15	0.699	812.6	0.79
298.15	0.799	812.15	0.79
298.15	0.899	811.7	0.79
298.15	1	811.26	0.79
303.15	0	812.12	0.79
303.15	0.1	811.64	0.79
303.15	0.2	811.17	0.79
303.15	0.3	810.71	0.78
303.15	0.399	810.26	0.78
303.15	0.5	809.8	0.78
303.15	0.6	809.34	0.78
303.15	0.699	808.89	0.78
303.15	0.799	808.45	0.78
303.15	0.899	808	0.78
303.15	1	807.57	0.78
308.15	0	808.29	0.78
308.15	0.1	807.82	0.78
308.15	0.2	807.36	0.78
308.15	0.3	806.92	0.78
308.15	0.399	806.47	0.78
308.15	0.5	806.03	0.78
308.15	0.6	805.58	0.78
308.15	0.699	805.15	0.78
308.15	0.799	804.71	0.78
308.15	0.899	804.28	0.78
308.15	1	803.86	0.78
313.15	0	804.41	0.78
313.15	0.1	803.95	0.78
313.15	0.2	803.51	0.78
313.15	0.3	803.07	0.78
313.15	0.399	802.64	0.78
313.15	0.5	802.21	0.78
313.15	0.6	801.78	0.78
313.15	0.699	801.35	0.78
313.15	0.799	800.93	0.78
313.15	0.899	800.51	0.78
313.15	1	800.11	0.78
318.15	0	800.47	0.78
318.15	0.1	800.02	0.78
318.15	0.2	799.6	0.77
318.15	0.3	799.18	0.77
318.15	0.399	798.76	0.77
318.15	0.5	798.34	0.77
318.15	0.6	797.93	0.77
318.15	0.699	797.52	0.77
318.15	0.799	797.11	0.77
318.15	0.899	796.7	0.77
318.15	1	796.32	0.77
323.15	0	796.47	0.77
323.15	0.1	796.04	0.77
323.15	0.2	795.63	0.77
323.15	0.3	795.22	0.77
323.15	0.399	794.82	0.77
323.15	0.5	794.42	0.77
323.15	0.6	794.02	0.77
323.15	0.699	793.63	0.77
323.15	0.799	793.24	0.77
323.15	0.899	792.85	0.77
323.15	1	792.48	0.77
328.15	0	792.41	0.77
328.15	0.1	792	0.77
328.15	0.2	791.6	0.77
328.15	0.3	791.22	0.77
328.15	0.399	790.84	0.77
328.15	0.5	790.46	0.77
328.15	0.6	790.08	0.77
328.15	0.699	789.7	0.77
328.15	0.799	789.33	0.77
328.15	0.899	788.96	0.77
328.15	1	788.61	0.76

System: pentan-1-ol + 2-methyl-1-butanol; phases: Liquid
Fixed: Pressure, kPa = 100
Property: Viscosity, Pa*s (Liquid); method: Capillary tube (Ostwald; Ubbelohde) method
Temperature, K	Mole fraction of pentan-1-ol	Viscosity, Pa*s	uncertainty
288.15	0	0.006439	0.00026
288.15	0.1	0.006245	0.000252
288.15	0.2	0.006036	0.000244
288.15	0.3	0.005819	0.000235
288.15	0.399	0.005595	0.000226
288.15	0.5	0.005361	0.000216
288.15	0.6	0.005128	0.000207
288.15	0.699	0.004916	0.000199
288.15	0.799	0.004741	0.000191
288.15	0.899	0.004697	0.00019
288.15	1	0.004698	0.00019
293.15	0	0.0053	0.000214
293.15	0.1	0.005146	0.000208
293.15	0.2	0.004998	0.000202
293.15	0.3	0.004837	0.000195
293.15	0.399	0.004677	0.000189
293.15	0.5	0.004516	0.000182
293.15	0.6	0.004362	0.000176
293.15	0.699	0.004196	0.000169
293.15	0.799	0.004062	0.000164
293.15	0.899	0.004046	0.000163
293.15	1	0.004043	0.000163
298.15	0	0.004501	0.000182
298.15	0.1	0.004383	0.000177
298.15	0.2	0.004255	0.000172
298.15	0.3	0.004129	0.000167
298.15	0.399	0.003988	0.000161
298.15	0.5	0.003848	0.000155
298.15	0.6	0.00372	0.00015
298.15	0.699	0.003604	0.000146
298.15	0.799	0.003507	0.000142
298.15	0.899	0.003489	0.000141
298.15	1	0.003501	0.000141
303.15	0	0.003825	0.000154
303.15	0.1	0.003725	0.00015
303.15	0.2	0.00363	0.000147
303.15	0.3	0.003518	0.000142
303.15	0.399	0.003402	0.000137
303.15	0.5	0.003287	0.000133
303.15	0.6	0.003197	0.000129
303.15	0.699	0.003114	0.000126
303.15	0.799	0.003051	0.000123
303.15	0.899	0.003018	0.000122
303.15	1	0.003028	0.000122
308.15	0	0.003265	0.000132
308.15	0.1	0.003176	0.000128
308.15	0.2	0.003099	0.000125
308.15	0.3	0.003007	0.000121
308.15	0.399	0.002921	0.000118
308.15	0.5	0.002831	0.000114
308.15	0.6	0.002765	0.000112
308.15	0.699	0.002701	0.000109
308.15	0.799	0.00266	0.000107
308.15	0.899	0.002648	0.000107
308.15	1	0.002671	0.000108
313.15	0	0.002783	0.000112
313.15	0.1	0.002717	0.00011
313.15	0.2	0.002657	0.000107
313.15	0.3	0.00259	0.000105
313.15	0.399	0.002528	0.000102
313.15	0.5	0.002468	0.0001
313.15	0.6	0.002419	9.8e-05
313.15	0.699	0.002365	9.6e-05
313.15	0.799	0.002327	9.4e-05
313.15	0.899	0.002323	9.4e-05
313.15	1	0.002335	9.4e-05
318.15	0	0.002379	9.6e-05
318.15	0.1	0.002329	9.4e-05
318.15	0.2	0.002281	9.2e-05
318.15	0.3	0.002232	9e-05
318.15	0.399	0.002187	8.8e-05
318.15	0.5	0.002141	8.6e-05
318.15	0.6	0.002103	8.5e-05
318.15	0.699	0.00207	8.4e-05
318.15	0.799	0.002041	8.2e-05
318.15	0.899	0.002028	8.2e-05
318.15	1	0.002052	8.3e-05
323.15	0	0.00206	8.3e-05
323.15	0.1	0.002016	8.1e-05
323.15	0.2	0.00198	8e-05
323.15	0.3	0.001942	7.8e-05
323.15	0.399	0.001908	7.7e-05
323.15	0.5	0.001877	7.6e-05
323.15	0.6	0.00185	7.5e-05
323.15	0.699	0.001823	7.4e-05
323.15	0.799	0.001801	7.3e-05
323.15	0.899	0.001791	7.2e-05
323.15	1	0.00181	7.3e-05
328.15	0	0.001787	7.2e-05
328.15	0.1	0.001753	7.1e-05
328.15	0.2	0.001725	7e-05
328.15	0.3	0.001697	6.9e-05
328.15	0.399	0.001669	6.7e-05
328.15	0.5	0.001645	6.6e-05
328.15	0.6	0.001624	6.6e-05
328.15	0.699	0.001609	6.5e-05
328.15	0.799	0.001598	6.5e-05
328.15	0.899	0.001594	6.4e-05
328.15	1	0.001607	6.5e-05

System: pentan-2-ol + 2-methyl-1-butanol; phases: Liquid
Fixed: Pressure, kPa = 100
Property: Mass density, kg/m3 (Liquid); method: Vibrating tube method
Temperature, K	Mole fraction of pentan-2-ol	Mass density, kg/m3	uncertainty
288.15	0	823.35	0.8
288.15	0.1	822.37	0.8
288.15	0.2	821.39	0.8
288.15	0.301	820.41	0.79
288.15	0.4	819.44	0.79
288.15	0.5	818.45	0.79
288.15	0.6	817.47	0.79
288.15	0.7	816.47	0.79
288.15	0.8	815.45	0.79
288.15	0.9	814.4	0.79
288.15	1	813.34	0.79
293.15	0	819.64	0.79
293.15	0.1	818.65	0.79
293.15	0.2	817.65	0.79
293.15	0.301	816.65	0.79
293.15	0.4	815.65	0.79
293.15	0.5	814.64	0.79
293.15	0.6	813.63	0.79
293.15	0.7	812.6	0.79
293.15	0.8	811.57	0.79
293.15	0.9	810.5	0.79
293.15	1	809.38	0.78
298.15	0	815.85	0.79
298.15	0.1	814.84	0.79
298.15	0.2	813.83	0.79
298.15	0.301	812.81	0.79
298.15	0.4	811.79	0.79
298.15	0.5	810.75	0.79
298.15	0.6	809.72	0.79
298.15	0.7	808.68	0.78
298.15	0.8	807.63	0.78
298.15	0.9	806.54	0.78
298.15	1	805.35	0.78
303.15	0	812.12	0.79
303.15	0.1	811.09	0.79
303.15	0.2	810.04	0.79
303.15	0.301	808.98	0.78
303.15	0.4	807.92	0.78
303.15	0.5	806.85	0.78
303.15	0.6	805.78	0.78
303.15	0.7	804.7	0.78
303.15	0.8	803.62	0.78
303.15	0.9	802.49	0.78
303.15	1	801.24	0.78
308.15	0	808.29	0.78
308.15	0.1	807.23	0.78
308.15	0.2	806.15	0.78
308.15	0.301	805.06	0.78
308.15	0.4	803.97	0.78
308.15	0.5	802.86	0.78
308.15	0.6	801.76	0.78
308.15	0.7	800.64	0.78
308.15	0.8	799.52	0.78
308.15	0.9	798.36	0.78
308.15	1	797.05	0.77
313.15	0	804.41	0.78
313.15	0.1	803.33	0.78
313.15	0.2	802.22	0.78
313.15	0.301	801.08	0.78
313.15	0.4	799.95	0.78
313.15	0.5	798.81	0.78
313.15	0.6	797.67	0.77
313.15	0.7	796.51	0.77
313.15	0.8	795.35	0.77
313.15	0.9	794.14	0.77
313.15	1	792.78	0.77
318.15	0	800.47	0.78
318.15	0.1	799.36	0.78
318.15	0.2	798.21	0.77
318.15	0.301	797.03	0.77
318.15	0.4	795.86	0.77
318.15	0.5	794.68	0.77
318.15	0.6	793.49	0.77
318.15	0.7	792.29	0.77
318.15	0.8	791.09	0.77
318.15	0.9	789.84	0.77
318.15	1	788.42	0.77
323.15	0	796.47	0.77
323.15	0.1	795.33	0.77
323.15	0.2	794.13	0.77
323.15	0.301	792.91	0.77
323.15	0.4	791.7	0.77
323.15	0.5	790.47	0.77
323.15	0.6	789.24	0.77
323.15	0.7	788	0.77
323.15	0.8	786.75	0.77
323.15	0.9	785.47	0.76
323.15	1	783.99	0.76
328.15	0	792.41	0.77
328.15	0.1	791.24	0.77
328.15	0.2	789.99	0.77
328.15	0.301	788.72	0.77
328.15	0.4	787.46	0.77
328.15	0.5	786.19	0.76
328.15	0.6	784.91	0.76
328.15	0.7	783.62	0.76
328.15	0.8	782.33	0.76
328.15	0.9	781	0.76
328.15	1	779.46	0.76

System: pentan-2-ol + 2-methyl-1-butanol; phases: Liquid
Fixed: Pressure, kPa = 100
Property: Viscosity, Pa*s (Liquid); method: Capillary tube (Ostwald; Ubbelohde) method
Temperature, K	Mole fraction of pentan-2-ol	Viscosity, Pa*s	uncertainty
288.15	0	0.006439	0.00026
288.15	0.1	0.006154	0.000248
288.15	0.2	0.005978	0.000241
288.15	0.301	0.00583	0.000235
288.15	0.4	0.005687	0.00023
288.15	0.5	0.005556	0.000224
288.15	0.6	0.005435	0.000219
288.15	0.7	0.005323	0.000215
288.15	0.8	0.005232	0.000211
288.15	0.9	0.005154	0.000208
288.15	1	0.005057	0.000204
293.15	0	0.0053	0.000214
293.15	0.1	0.005034	0.000203
293.15	0.2	0.004881	0.000197
293.15	0.301	0.004762	0.000192
293.15	0.4	0.004649	0.000188
293.15	0.5	0.004548	0.000184
293.15	0.6	0.004459	0.00018
293.15	0.7	0.004377	0.000177
293.15	0.8	0.004314	0.000174
293.15	0.9	0.004251	0.000172
293.15	1	0.004174	0.000169
298.15	0	0.004501	0.000182
298.15	0.1	0.004249	0.000172
298.15	0.2	0.004106	0.000166
298.15	0.301	0.00399	0.000161
298.15	0.4	0.003882	0.000157
298.15	0.5	0.003787	0.000153
298.15	0.6	0.003703	0.00015
298.15	0.7	0.003625	0.000146
298.15	0.8	0.003564	0.000144
298.15	0.9	0.003496	0.000141
298.15	1	0.003398	0.000137
303.15	0	0.003825	0.000154
303.15	0.1	0.003585	0.000145
303.15	0.2	0.00346	0.00014
303.15	0.301	0.003355	0.000136
303.15	0.4	0.003253	0.000131
303.15	0.5	0.003163	0.000128
303.15	0.6	0.003093	0.000125
303.15	0.7	0.003028	0.000122
303.15	0.8	0.002973	0.00012
303.15	0.9	0.00291	0.000118
303.15	1	0.00282	0.000114
308.15	0	0.003265	0.000132
308.15	0.1	0.003047	0.000123
308.15	0.2	0.002928	0.000118
308.15	0.301	0.00283	0.000114
308.15	0.4	0.002735	0.000111
308.15	0.5	0.002653	0.000107
308.15	0.6	0.002589	0.000105
308.15	0.7	0.00253	0.000102
308.15	0.8	0.002482	0.0001
308.15	0.9	0.002422	9.8e-05
308.15	1	0.002336	9.4e-05
313.15	0	0.002783	0.000112
313.15	0.1	0.002586	0.000105
313.15	0.2	0.002481	0.0001
313.15	0.301	0.002398	9.7e-05
313.15	0.4	0.002317	9.4e-05
313.15	0.5	0.002248	9.1e-05
313.15	0.6	0.002196	8.9e-05
313.15	0.7	0.002151	8.7e-05
313.15	0.8	0.002112	8.5e-05
313.15	0.9	0.002062	8.3e-05
313.15	1	0.00199	8e-05
318.15	0	0.002379	9.6e-05
318.15	0.1	0.002199	8.9e-05
318.15	0.2	0.00211	8.5e-05
318.15	0.301	0.002037	8.2e-05
318.15	0.4	0.001968	8e-05
318.15	0.5	0.00191	7.7e-05
318.15	0.6	0.001869	7.6e-05
318.15	0.7	0.001835	7.4e-05
318.15	0.8	0.001805	7.3e-05
318.15	0.9	0.001764	7.1e-05
318.15	1	0.001706	6.9e-05
323.15	0	0.00206	8.3e-05
323.15	0.1	0.001898	7.7e-05
323.15	0.2	0.001817	7.3e-05
323.15	0.301	0.001754	7.1e-05
323.15	0.4	0.001696	6.9e-05
323.15	0.5	0.001649	6.7e-05
323.15	0.6	0.001618	6.5e-05
323.15	0.7	0.00159	6.4e-05
323.15	0.8	0.00156	6.3e-05
323.15	0.9	0.001525	6.2e-05
323.15	1	0.001472	6e-05
328.15	0	0.001787	7.2e-05
328.15	0.1	0.001649	6.7e-05
328.15	0.2	0.001578	6.4e-05
328.15	0.301	0.001525	6.2e-05
328.15	0.4	0.001476	6e-05
328.15	0.5	0.00144	5.8e-05
328.15	0.6	0.001418	5.7e-05
328.15	0.7	0.001396	5.6e-05
328.15	0.8	0.001371	5.5e-05
328.15	0.9	0.001346	5.4e-05
328.15	1	0.001306	5.3e-05
