Measured thermophysical data. Kirkwood-Buff Integrals, Excess Volume, and Preferential Solvation in Pentanoic Acid/(C5-C10) 1-Alkanol Binary Mixtures
Source: J. Chem. Eng. Data, 2019, 10.1021/acs.jced.8b01189
Compound 1: pentanoic acid, C5H10O2, InChI=1S/C5H10O2/c1-2-3-4-5(6)7/h2-4H2,1H3,(H,6,7), purity 99.5%
Compound 2: pentan-1-ol, C5H12O, InChI=1S/C5H12O/c1-2-3-4-5-6/h6H,2-5H2,1H3, purity 99.5%
Compound 3: hexan-1-ol, C6H14O, InChI=1S/C6H14O/c1-2-3-4-5-6-7/h7H,2-6H2,1H3, purity 99.5%
Compound 4: heptan-1-ol, C7H16O, InChI=1S/C7H16O/c1-2-3-4-5-6-7-8/h8H,2-7H2,1H3, purity 99.5%
Compound 5: octan-1-ol, C8H18O, InChI=1S/C8H18O/c1-2-3-4-5-6-7-8-9/h9H,2-8H2,1H3, purity 99.6%
Compound 6: nonan-1-ol, C9H20O, InChI=1S/C9H20O/c1-2-3-4-5-6-7-8-9-10/h10H,2-9H2,1H3, purity 99.7%
Compound 7: decan-1-ol, C10H22O, InChI=1S/C10H22O/c1-2-3-4-5-6-7-8-9-10-11/h11H,2-10H2,1H3, purity 99.5%

System: pentanoic acid; phases: Liquid
Property: Mass density, kg/m3 (Liquid); method: Vibrating tube method
Temperature, K	Pressure, kPa	Mass density, kg/m3	uncertainty
298.15	100	935.1	1

System: pentan-1-ol; phases: Liquid
Property: Mass density, kg/m3 (Liquid); method: Vibrating tube method
Temperature, K	Pressure, kPa	Mass density, kg/m3	uncertainty
298.15	100	810.8	1

System: hexan-1-ol; phases: Liquid
Property: Mass density, kg/m3 (Liquid); method: Vibrating tube method
Temperature, K	Pressure, kPa	Mass density, kg/m3	uncertainty
298.15	100	815.1	1

System: heptan-1-ol; phases: Liquid
Property: Mass density, kg/m3 (Liquid); method: Vibrating tube method
Temperature, K	Pressure, kPa	Mass density, kg/m3	uncertainty
298.15	100	818.7	1

System: octan-1-ol; phases: Liquid
Property: Mass density, kg/m3 (Liquid); method: Vibrating tube method
Temperature, K	Pressure, kPa	Mass density, kg/m3	uncertainty
298.15	100	821.4	1

System: nonan-1-ol; phases: Liquid
Property: Mass density, kg/m3 (Liquid); method: Vibrating tube method
Temperature, K	Pressure, kPa	Mass density, kg/m3	uncertainty
298.15	100	824	1

System: decan-1-ol; phases: Liquid
Property: Mass density, kg/m3 (Liquid); method: Vibrating tube method
Temperature, K	Pressure, kPa	Mass density, kg/m3	uncertainty
298.15	100	826.1	1

System: pentanoic acid + pentan-1-ol; phases: Liquid
Fixed: Temperature, K = 298.15
Fixed: Pressure, kPa = 100
Property: Mass density, kg/m3 (Liquid); method: Vibrating tube method
Mole fraction of pentanoic acid	Mass density, kg/m3	uncertainty
0	810.8	1
0.0807	821.4	1
0.1596	831.9	1
0.2398	842.4	1
0.3501	856.7	1
0.4401	868.2	1
0.5604	883.1	1
0.6498	894	1
0.7399	904.7	1
0.8498	917.6	1
0.9396	928.1	1
1	935.1	1

System: pentanoic acid + hexan-1-ol; phases: Liquid
Fixed: Temperature, K = 298.15
Fixed: Pressure, kPa = 100
Property: Mass density, kg/m3 (Liquid); method: Vibrating tube method
Mole fraction of pentanoic acid	Mass density, kg/m3	uncertainty
0	815.1	1
0.0924	825.4	1
0.1783	835.2	1
0.264	845.1	1
0.3796	858.6	1
0.4718	869.5	1
0.5914	883.9	1
0.6785	894.5	1
0.7639	905	1
0.8656	917.8	1
0.9468	928.2	1
1	935.1	1

System: pentanoic acid + heptan-1-ol; phases: Liquid
Fixed: Temperature, K = 298.15
Fixed: Pressure, kPa = 100
Property: Mass density, kg/m3 (Liquid); method: Vibrating tube method
Mole fraction of pentanoic acid	Mass density, kg/m3	uncertainty
0	818.7	1
0.0812	826.5	1
0.1601	834.3	1
0.24	842.5	1
0.3506	854.2	1
0.4398	864	1
0.5605	877.8	1
0.6496	888.5	1
0.7405	899.7	1
0.8501	914.1	1
0.9405	926.5	1
1	935.1	1

System: pentanoic acid + octan-1-ol; phases: Liquid
Fixed: Temperature, K = 298.15
Fixed: Pressure, kPa = 100
Property: Mass density, kg/m3 (Liquid); method: Vibrating tube method
Mole fraction of pentanoic acid	Mass density, kg/m3	uncertainty
0	821.4	1
0.0809	828.2	1
0.1604	835.1	1
0.2392	842.4	1
0.3496	853	1
0.4399	862.3	1
0.5605	875.5	1
0.6497	886.1	1
0.7401	897.4	1
0.8504	912.4	1
0.9403	925.7	1.1
1	935.1	1

System: pentanoic acid + nonan-1-ol; phases: Liquid
Fixed: Temperature, K = 298.15
Fixed: Pressure, kPa = 100
Property: Mass density, kg/m3 (Liquid); method: Vibrating tube method
Mole fraction of pentanoic acid	Mass density, kg/m3	uncertainty
0	824	1
0.0802	830	1
0.1604	836.1	1
0.2394	842.8	1
0.3496	852.5	1
0.4397	861.2	1
0.5605	873.9	1
0.6497	884.3	1
0.7401	895.6	1
0.8502	911	1
0.9403	925	1.1
1	935.1	1

System: pentanoic acid + decan-1-ol; phases: Liquid
Fixed: Temperature, K = 298.15
Fixed: Pressure, kPa = 100
Property: Mass density, kg/m3 (Liquid); method: Vibrating tube method
Mole fraction of pentanoic acid	Mass density, kg/m3	uncertainty
0	826.1	1
0.0809	831.4	1
0.1598	837	1
0.2406	843	1
0.3493	852	1
0.4405	860.2	1
0.5601	872.3	1
0.6502	882.5	1
0.7406	893.9	1
0.8504	909.6	1.1
0.9411	924.2	1.1
1	935.1	1
