Measured thermophysical data. Densities and Viscosities of Ethyl Heptanoate and Ethyl Octanoate at Temperatures from 303 to 353 K and at Pressures up to 15 MPa
Source: J. Chem. Eng. Data, 2017, 10.1021/acs.jced.7b00386
Compound 1: ethyl heptanoate, C9H18O2, InChI=1S/C9H18O2/c1-3-5-6-7-8-9(10)11-4-2/h3-8H2,1-2H3, purity 99%
Compound 2: ethyl octanoate, C10H20O2, InChI=1S/C10H20O2/c1-3-5-6-7-8-9-10(11)12-4-2/h3-9H2,1-2H3, purity 99%

System: ethyl heptanoate; phases: Liquid
Property: Mass density, kg/m3 (Liquid); method: Siemens ultrasonic flowmeter
Temperature, K	Pressure, kPa	Mass density, kg/m3	uncertainty
303.2	100	860.8	5
303.2	3020	864.5	5
303.1	6000	867.7	5
303.2	9010	871.2	5
303.21	11950	874.5	5
303.19	14980	877.5	5
312.96	100	851.2	5
313.06	3060	854.7	5
313.13	6090	858.1	5
313.17	9070	861.4	5
313.18	12000	864.7	5
313.17	15010	867.9	5
323.09	100	841.6	5
323.11	3100	845.2	5
323.14	6110	848.8	5
323.1	9100	852.5	5
323.13	12060	855.8	5
323.09	15150	859.2	5
333.05	100	832.1	5
333.14	3010	835.6	5
333.18	6080	839.7	5
333.14	9020	843.2	5
333.14	12010	846.8	5
333.2	15070	850.5	5
343.02	100	823	5
343.06	3010	827.1	5
343.23	6050	831	5
343.2	9000	834.8	5
343.22	12100	838.5	5
343.19	15000	842.1	5
352.85	100	815.1	5
352.95	3090	819.4	5
353.11	6070	823.2	5
353.06	9090	827.5	5
353.14	12070	831.2	5
353.23	15010	835.1	5

System: ethyl heptanoate; phases: Liquid
Property: Viscosity, Pa*s (Liquid); method: Capillary tube (Ostwald; Ubbelohde) method
Temperature, K	Pressure, kPa	Viscosity, Pa*s	uncertainty
312.73	100	0.0009036	1.52e-05
312.8	3100	0.0009452	1.59e-05
312.77	6100	0.0009702	1.63e-05
312.72	9120	0.001006	1.69e-05
313.1	12180	0.0010328	1.73e-05
313.17	15170	0.0010604	1.78e-05
322.62	100	0.0007963	1.34e-05
322.71	3120	0.0008252	1.39e-05
322.78	6130	0.0008471	1.43e-05
322.85	9090	0.0008702	1.46e-05
322.91	12080	0.0009036	1.52e-05
322.76	15110	0.0009293	1.56e-05
333.45	100	0.0007016	1.19e-05
333.57	3070	0.0007229	1.22e-05
333.63	6130	0.0007431	1.25e-05
333.6	9160	0.0007629	1.29e-05
333.5	12100	0.0007844	1.32e-05
333.42	15070	0.0008106	1.37e-05
343.16	100	0.0006217	1.05e-05
343.27	3070	0.0006412	1.09e-05
343.38	6080	0.0006593	1.12e-05
343.22	9070	0.0006801	1.15e-05
343.22	12050	0.0006996	1.18e-05
343.27	15120	0.0007191	1.21e-05
352.71	100	0.0005547	9.4e-06
352.83	3040	0.0005733	9.7e-06
352.86	6100	0.0005898	1e-05
352.9	9030	0.0006068	1.03e-05
352.95	12080	0.0006227	1.06e-05
353.04	15040	0.0006414	1.09e-05

System: ethyl octanoate; phases: Liquid
Property: Mass density, kg/m3 (Liquid); method: Siemens ultrasonic flowmeter
Temperature, K	Pressure, kPa	Mass density, kg/m3	uncertainty
303.25	100	858.1	5
303.32	3120	861.3	5
303.3	6080	864.4	5
303.32	9130	867.8	5
303.26	12080	871	5
303.33	15080	874.1	5
313.05	100	849.5	5
313.12	3140	853	5
313.08	6150	856.1	5
313.1	9150	859.6	5
313.1	12100	862.7	5
313.11	15110	865.9	5
323	100	841.1	5
323.09	3130	844.7	5
323.1	6150	848.1	5
323.13	9110	851.4	5
323.14	12140	854.8	5
323.16	15050	858.1	5
333	100	832.2	5
333.14	3100	836.2	5
333.18	6080	839.7	5
333.18	9090	843.3	5
333.2	12100	846.9	5
333.21	15100	850.3	5
343.11	100	823.6	5
343.11	3120	827.8	5
343.14	6100	831.7	5
343.16	9070	835	5
343.1	12150	838.8	5
343.17	15000	842.1	5
353.1	100	814.5	5
353.21	3150	819	5
353.27	6150	823	5
353.16	9130	826.8	5
353.25	12140	830.7	5
353.24	15070	834.4	5

System: ethyl octanoate; phases: Liquid
Property: Viscosity, Pa*s (Liquid); method: Capillary tube (Ostwald; Ubbelohde) method
Temperature, K	Pressure, kPa	Viscosity, Pa*s	uncertainty
312.87	100	0.0010825	1.82e-05
312.96	3120	0.0011334	1.9e-05
313.03	6060	0.0011892	1.99e-05
313.08	9090	0.0012112	2.03e-05
313.12	12070	0.001245	2.08e-05
313.14	15240	0.0012839	2.15e-05
323.07	100	0.0009464	1.59e-05
323.16	3150	0.0009842	1.65e-05
323.17	6110	0.0010158	1.71e-05
323.17	9080	0.001043	1.75e-05
323.17	12070	0.0010637	1.78e-05
323.19	15060	0.0010979	1.84e-05
333.14	100	0.0008143	1.37e-05
333.29	3110	0.0008536	1.44e-05
333.3	6060	0.0008851	1.49e-05
333.3	9130	0.0009101	1.53e-05
333.31	12040	0.0009301	1.56e-05
333.3	15090	0.0009551	1.6e-05
342.78	100	0.000731	1.23e-05
343.41	3120	0.0007572	1.28e-05
343.07	6130	0.0007776	1.31e-05
343.16	9090	0.0007968	1.34e-05
343.22	12100	0.0008165	1.38e-05
343.27	15050	0.0008446	1.42e-05
353.21	100	0.0006393	1.08e-05
353.32	3120	0.0006742	1.14e-05
353.35	6090	0.000691	1.17e-05
353.38	9070	0.000707	1.19e-05
353.35	12080	0.0007292	1.23e-05
353.36	15060	0.0007479	1.26e-05
