Measured thermophysical data. Viscosity of 1-Alkyl-1-methylpyrrolidinium Bis(trifluoromethylsulfonyl)imide Ionic Liquids Saturated with Compressed CO2
Source: J. Chem. Eng. Data, 2019, 10.1021/acs.jced.8b01237
Compound 1: carbon dioxide, CO2, InChI=1S/CO2/c2-1-3
Compound 2: 1-methyl-1-propylpyrrolidinium bis[(trifluoromethyl)sulfonyl]imide, C10H18F6N2O4S2, InChI=1S/C8H18N.C2F6NO4S2/c1-3-6-9(2)7-4-5-8-9;3-1(4,5)14(10,11)9-15(12,13)2(6,7)8/h3-8H2,1-2H3;/q+1;-1
Compound 3: 1-butyl-1-methylpyrrolidinium bis[(trifluoromethyl)sulfonyl]imide, C11H20F6N2O4S2, InChI=1S/C9H20N.C2F6NO4S2/c1-3-4-7-10(2)8-5-6-9-10;3-1(4,5)14(10,11)9-15(12,13)2(6,7)8/h3-9H2,1-2H3;/q+1;-1
Compound 4: 1-hexyl-1-methylpyrrolidinium bis(trifluoromethanesulfonyl)imide, C13H24F6N2O4S2, InChI=1S/C11H24N.C2F6NO4S2/c1-3-4-5-6-9-12(2)10-7-8-11-12;3-1(4,5)14(10,11)9-15(12,13)2(6,7)8/h3-11H2,1-2H3;/q+1;-1

System: 1-methyl-1-propylpyrrolidinium bis[(trifluoromethyl)sulfonyl]imide; phases: Liquid
Fixed: Pressure, kPa = 100
Property: Viscosity, Pa*s (Liquid); method: Concentric cylinders viscometry
Temperature, K	Viscosity, Pa*s	uncertainty
298.15	0.0566	0.0091
318.15	0.02648	0.00424
338.15	0.01555	0.00249

System: 1-butyl-1-methylpyrrolidinium bis[(trifluoromethyl)sulfonyl]imide; phases: Liquid
Fixed: Pressure, kPa = 100
Property: Viscosity, Pa*s (Liquid); method: Concentric cylinders viscometry
Temperature, K	Viscosity, Pa*s	uncertainty
298.15	0.0756	0.0121
318.15	0.0343	0.0055
338.15	0.01862	0.00298

System: 1-hexyl-1-methylpyrrolidinium bis(trifluoromethanesulfonyl)imide; phases: Liquid
Fixed: Pressure, kPa = 100
Property: Viscosity, Pa*s (Liquid); method: Concentric cylinders viscometry
Temperature, K	Viscosity, Pa*s	uncertainty
298.15	0.0983	0.0158
318.15	0.04138	0.00663
338.15	0.02188	0.00351

System: 1-methyl-1-propylpyrrolidinium bis[(trifluoromethyl)sulfonyl]imide + carbon dioxide; phases: Liquid, Gas
Property: Viscosity, Pa*s (Liquid); method: Concentric cylinders viscometry
Temperature, K	Pressure, kPa	Viscosity, Pa*s	uncertainty
298.15	1960	0.0277	0.0048
298.15	3120	0.01728	0.0032
298.15	4030	0.01113	0.002
298.15	5030	0.00862	0.00145
298.15	6000	0.00678	0.00115
298.15	6400	0.00607	0.00103
298.15	9760	0.00543	0.00087
318.15	930	0.02104	0.00349
318.15	2960	0.0115	0.00196
318.15	5000	0.00738	0.00122
318.15	7140	0.00529	0.00086
318.15	9150	0.0044	0.00071
318.15	10730	0.00402	0.00065
318.15	12320	0.0039	0.00062
318.15	14710	0.00374	0.0006
318.15	20010	0.00371	0.00059
318.15	24920	0.00362	0.00058
338.15	2010	0.01055	0.00172
338.15	3010	0.00883	0.00144
338.15	4060	0.00755	0.00123
338.15	5100	0.00647	0.00105
338.15	6000	0.0059	0.00095
338.15	7520	0.005	0.00081
338.15	10100	0.00405	0.00065
338.15	12510	0.00363	0.00058
338.15	14910	0.00337	0.00054

System: 1-methyl-1-propylpyrrolidinium bis[(trifluoromethyl)sulfonyl]imide + carbon dioxide; phases: Liquid mixture 1, Liquid mixture 2, Gas
Property: Vapor or sublimation pressure, kPa (Liquid mixture 1); method: Closed cell (Static) method
Temperature, K	Vapor or sublimation pressure, kPa	uncertainty
298.15	6400	210

System: 1-methyl-1-propylpyrrolidinium bis[(trifluoromethyl)sulfonyl]imide + carbon dioxide; phases: Liquid mixture 1, Liquid mixture 2
Fixed: Temperature, K = 298.15
Property: Vapor or sublimation pressure, kPa (Liquid mixture 1); method: Closed cell (Static) method
Mole fraction of carbon dioxide	Vapor or sublimation pressure, kPa	uncertainty
0.729	6400	200
0.781	9760	200

System: 1-butyl-1-methylpyrrolidinium bis[(trifluoromethyl)sulfonyl]imide + carbon dioxide; phases: Liquid, Gas
Property: Viscosity, Pa*s (Liquid); method: Concentric cylinders viscometry
Temperature, K	Pressure, kPa	Viscosity, Pa*s	uncertainty
298.15	1050	0.043	0.0075
298.15	2010	0.02832	0.00515
298.15	3100	0.01783	0.00323
298.15	4000	0.01339	0.0023
298.15	5010	0.00984	0.00162
298.15	7140	0.00702	0.00114
298.15	10130	0.0055	0.00089
318.15	2100	0.01749	0.00307
318.15	3040	0.0134	0.00226
318.15	3920	0.01093	0.00182
318.15	4920	0.00871	0.00144
318.15	5890	0.00733	0.0012
318.15	7390	0.00606	0.00098
318.15	9890	0.00466	0.00075
318.15	14850	0.00408	0.00065
318.15	20010	0.00371	0.00059
318.15	24920	0.00362	0.00058
338.15	1270	0.01441	0.00235
338.15	1910	0.01295	0.00211
338.15	3180	0.01056	0.00173
338.15	4250	0.00887	0.00145
338.15	5250	0.00772	0.00125
338.15	6270	0.00694	0.00112
338.15	7470	0.006	0.00097
338.15	9910	0.00483	0.00078
338.15	15020	0.00381	0.00061

System: 1-butyl-1-methylpyrrolidinium bis[(trifluoromethyl)sulfonyl]imide + carbon dioxide; phases: Liquid mixture 1, Liquid mixture 2, Gas
Property: Vapor or sublimation pressure, kPa (Liquid mixture 1); method: Closed cell (Static) method
Temperature, K	Vapor or sublimation pressure, kPa	uncertainty
298.15	7140	210

System: 1-butyl-1-methylpyrrolidinium bis[(trifluoromethyl)sulfonyl]imide + carbon dioxide; phases: Liquid mixture 1, Liquid mixture 2
Fixed: Temperature, K = 298.15
Property: Vapor or sublimation pressure, kPa (Liquid mixture 1); method: Closed cell (Static) method
Mole fraction of carbon dioxide	Vapor or sublimation pressure, kPa	uncertainty
0.817	7140	200
0.858	10130	200

System: 1-hexyl-1-methylpyrrolidinium bis(trifluoromethanesulfonyl)imide + carbon dioxide; phases: Liquid, Gas
Property: Viscosity, Pa*s (Liquid); method: Concentric cylinders viscometry
Temperature, K	Pressure, kPa	Viscosity, Pa*s	uncertainty
298.15	1080	0.0641	0.0114
298.15	2020	0.0413	0.0076
298.15	3060	0.02706	0.00491
298.15	4040	0.018	0.0031
298.15	5670	0.01099	0.00189
298.15	6950	0.00798	0.00129
298.15	10040	0.00733	0.00117
318.15	1060	0.0293	0.0057
318.15	2020	0.02122	0.00367
318.15	3070	0.0157	0.00267
318.15	4040	0.01216	0.00204
318.15	4950	0.01	0.00164
318.15	6300	0.0079	0.0013
318.15	7600	0.00648	0.00105
318.15	10030	0.0052	0.00083
318.15	15230	0.0046	0.00074
338.15	950	0.0182	0.003
338.15	1940	0.01494	0.00246
338.15	2990	0.01244	0.00204
338.15	3970	0.01056	0.00173
338.15	5020	0.00892	0.00145
338.15	6010	0.0078	0.00126
338.15	7470	0.00654	0.00105
338.15	10060	0.0052	0.00083
338.15	14890	0.00443	0.00071

System: 1-hexyl-1-methylpyrrolidinium bis(trifluoromethanesulfonyl)imide + carbon dioxide; phases: Liquid mixture 1, Liquid mixture 2, Gas
Property: Vapor or sublimation pressure, kPa (Liquid mixture 1); method: Closed cell (Static) method
Temperature, K	Vapor or sublimation pressure, kPa	uncertainty
298.15	6950	210

System: 1-hexyl-1-methylpyrrolidinium bis(trifluoromethanesulfonyl)imide + carbon dioxide; phases: Liquid mixture 1, Liquid mixture 2
Fixed: Temperature, K = 298.15
Property: Vapor or sublimation pressure, kPa (Liquid mixture 1); method: Closed cell (Static) method
Mole fraction of carbon dioxide	Vapor or sublimation pressure, kPa	uncertainty
0.817	6950	200
0.858	10040	200
