Measured thermophysical data. Solubility and Speciation of Ketoprofen and Aspirin in Supercritical CO2 by Infrared Spectroscopy
Source: J. Chem. Eng. Data, 2016, 10.1021/acs.jced.5b00812
Compound 1: carbon dioxide, CO2, InChI=1S/CO2/c2-1-3
Compound 2: 2-acetoxybenzoic acid, C9H8O4, InChI=1S/C9H8O4/c1-6(10)13-8-5-3-2-4-7(8)9(11)12/h2-5H,1H3,(H,11,12), purity 99%
Compound 3: ketoprofen, C16H14O3, InChI=1S/C16H14O3/c1-11(16(18)19)13-8-5-9-14(10-13)15(17)12-6-3-2-4-7-12/h2-11H,1H3,(H,18,19), purity 98%

System: carbon dioxide + ketoprofen; phases: Fluid (supercritical or subcritical phases), Crystal
Property: Mole fraction of ketoprofen (Fluid (supercritical or subcritical phases)); method: FTIR absorption spectroscopy
Temperature, K	Pressure, kPa	Mole fraction of ketoprofen	uncertainty
298.2	7200	2.07e-05	3.4e-06
298.2	10000	3.24e-05	3.9e-06
298.2	12600	4.2e-05	4.2e-06
298.2	18000	5.74e-05	6.8e-06
298.2	25000	7.7e-05	9.9e-06
298.2	35000	9.74e-05	1.22e-05
313.2	9500	1.07e-05	3.4e-06
313.2	10000	1.67e-05	3.6e-06
313.2	13000	4.18e-05	4.9e-06
313.2	15000	5.7e-05	7e-06
313.2	20000	8.96e-05	9.4e-06
313.2	25800	0.000123	1.36e-05
313.2	30000	0.0001364	1.8e-05
313.2	35000	0.000152	1.92e-05
328.2	13000	1.35e-05	4.8e-06
328.2	17500	7.26e-05	8.3e-06
328.2	21500	0.0001168	1.38e-05
328.2	25000	0.0001612	2.56e-05
328.2	30000	0.0002241	3.85e-05
328.2	35000	0.0002714	5e-05
353.2	17000	0.0001036	1.37e-05
353.2	20000	0.0002225	2.87e-05
353.2	25000	0.000482	5.53e-05
353.2	30000	0.0007221	8.29e-05
353.2	35000	0.0009511	0.00011

System: 2-acetoxybenzoic acid + carbon dioxide; phases: Fluid (supercritical or subcritical phases), Crystal
Property: Mole fraction of 2-acetoxybenzoic acid (Fluid (supercritical or subcritical phases)); method: FTIR absorption spectroscopy
Temperature, K	Pressure, kPa	Mole fraction of 2-acetoxybenzoic acid	uncertainty
298.2	7500	7.56e-05	1.2e-05
298.2	10000	9.73e-05	1.17e-05
298.2	12500	0.0001122	1.16e-05
298.2	18500	0.0001403	1.44e-05
298.2	25000	0.0001687	1.72e-05
298.2	30000	0.000181	1.83e-05
298.2	35000	0.0001988	2.02e-05
313.2	9000	1.95e-05	9.9e-06
313.2	9500	3.41e-05	1.01e-05
313.2	10000	4.79e-05	9.7e-06
313.2	13000	9.18e-05	1e-05
313.2	15000	0.0001131	1.18e-05
313.2	20000	0.0001704	2e-05
313.2	25000	0.0001897	2.07e-05
313.2	30000	0.0001999	3.61e-05
313.2	35000	0.000224	2.27e-05
328.2	11000	2.21e-05	2.8e-06
328.2	12000	4.99e-05	7.7e-06
328.2	13000	7.62e-05	9.5e-06
328.2	15000	0.0001307	1.4e-05
328.2	17500	0.0001876	1.92e-05
328.2	20000	0.0002354	2.6e-05
328.2	24000	0.0002907	3.75e-05
328.2	28500	0.0003733	5.24e-05
353.2	12000	4.05e-05	5.3e-06
353.2	13000	5.74e-05	7.6e-06
353.2	15000	0.0001121	1.3e-05
353.2	17000	0.000186	2.18e-05
353.2	20000	0.0003783	4.09e-05
353.2	24800	0.0006403	6.94e-05
353.2	30000	0.0009195	9.98e-05
