Measured thermophysical data. Solubility Determination and Model Correlation of Pymetrozine and Evaluation of the Effect of Solvent Properties and Composition
Source: J. Chem. Eng. Data, 2019, 10.1021/acs.jced.9b00229
Compound 1: pymetrozine, C10H11N5O, InChI=1S/C10H11N5O/c1-8-7-15(10(16)14-13-8)12-6-9-3-2-4-11-5-9/h2-6H,7H2,1H3,(H,14,16)/b12-6+
Compound 2: dimethylformamide, C3H7NO, InChI=1S/C3H7NO/c1-4(2)3-5/h3H,1-2H3
Compound 3: butan-1-ol, C4H10O, InChI=1S/C4H10O/c1-2-3-4-5/h5H,2-4H2,1H3
Compound 4: propan-2-ol, C3H8O, InChI=1S/C3H8O/c1-3(2)4/h3-4H,1-2H3
Compound 5: 1,4-dioxane, C4H8O2, InChI=1S/C4H8O2/c1-2-6-4-3-5-1/h1-4H2
Compound 6: N-methylpyrrolidone, C5H9NO, InChI=1S/C5H9NO/c1-6-4-2-3-5(6)7/h2-4H2,1H3
Compound 7: dimethyl sulfoxide, C2H6OS, InChI=1S/C2H6OS/c1-4(2)3/h1-2H3

System: pymetrozine + propan-2-ol; phases: Liquid, Crystal
Fixed: Pressure, kPa = 101.2
Property: Mole fraction of pymetrozine (Liquid); method: Chromatography
Temperature, K	Mole fraction of pymetrozine	uncertainty
278.15	0.0001976	9.5e-06
283.15	0.0002324	1.12e-05
288.15	0.00028	1.35e-05
293.15	0.0003315	1.59e-05
298.15	0.0003913	1.88e-05
303.15	0.0004609	2.22e-05
308.15	0.0005397	2.59e-05
313.15	0.0006255	3.01e-05
318.15	0.0007291	3.5e-05

System: pymetrozine + butan-1-ol; phases: Liquid, Crystal
Fixed: Pressure, kPa = 101.2
Property: Mole fraction of pymetrozine (Liquid); method: Chromatography
Temperature, K	Mole fraction of pymetrozine	uncertainty
278.15	0.0001591	7.6e-06
283.15	0.0001904	9.2e-06
288.15	0.0002295	1.1e-05
293.15	0.0002769	1.33e-05
298.15	0.0003319	1.6e-05
303.15	0.0003894	1.87e-05
308.15	0.0004601	2.21e-05
313.15	0.000537	2.58e-05
318.15	0.0006351	3.05e-05

System: pymetrozine + dimethyl sulfoxide; phases: Liquid, Crystal
Fixed: Pressure, kPa = 101.2
Property: Mole fraction of pymetrozine (Liquid); method: Chromatography
Temperature, K	Mole fraction of pymetrozine	uncertainty
293.15	0.007624	0.000366
298.15	0.008623	0.000414
303.15	0.009846	0.000473
308.15	0.01118	0.00054
313.15	0.01265	0.00061
318.15	0.01441	0.00069

System: pymetrozine + dimethylformamide; phases: Liquid, Crystal
Fixed: Pressure, kPa = 101.2
Property: Mole fraction of pymetrozine (Liquid); method: Chromatography
Temperature, K	Mole fraction of pymetrozine	uncertainty
278.15	0.003103	0.000149
283.15	0.003473	0.000167
288.15	0.003979	0.000191
293.15	0.004505	0.000217
298.15	0.005147	0.000247
303.15	0.005823	0.00028
308.15	0.006556	0.000315
313.15	0.007381	0.000355
318.15	0.008318	0.0004

System: pymetrozine + 1,4-dioxane; phases: Liquid, Crystal
Fixed: Pressure, kPa = 101.2
Property: Mole fraction of pymetrozine (Liquid); method: Chromatography
Temperature, K	Mole fraction of pymetrozine	uncertainty
288.15	0.0004621	2.22e-05
293.15	0.0005398	2.59e-05
298.15	0.0006289	3.02e-05
303.15	0.0007281	3.5e-05
308.15	0.0008416	4.04e-05
313.15	0.0009641	4.63e-05
318.15	0.001102	5.3e-05

System: pymetrozine + N-methylpyrrolidone; phases: Liquid, Crystal
Fixed: Pressure, kPa = 101.2
Property: Mole fraction of pymetrozine (Liquid); method: Chromatography
Temperature, K	Mole fraction of pymetrozine	uncertainty
278.15	0.001634	7.9e-05
283.15	0.001895	9.1e-05
288.15	0.002202	0.000106
293.15	0.002547	0.000122
298.15	0.002946	0.000142
303.15	0.003379	0.000162
308.15	0.00389	0.000187
313.15	0.004442	0.000213
318.15	0.005062	0.000243

System: pymetrozine + dimethylformamide + propan-2-ol; phases: Liquid, Crystal
Fixed: Pressure, kPa = 101.1
Property: Mole fraction of pymetrozine (Liquid); method: Chromatography
Temperature, K	Solvent: Mass fraction of dimethylformamide	Mole fraction of pymetrozine	uncertainty
278.15	1	0.003103	0.000174
283.15	1	0.003473	0.000195
288.15	1	0.003979	0.000223
293.15	1	0.004505	0.000253
298.15	1	0.005147	0.000288
303.15	1	0.005823	0.000326
308.15	1	0.006556	0.000367
313.15	1	0.007381	0.000414
318.15	1	0.008318	0.000466
278.15	0.8	0.002501	0.000142
283.15	0.8	0.002825	0.000161
288.15	0.8	0.003239	0.000184
293.15	0.8	0.00367	0.000208
298.15	0.8	0.004196	0.000238
303.15	0.8	0.004772	0.000271
308.15	0.8	0.005394	0.000306
313.15	0.8	0.006051	0.000343
318.15	0.8	0.006862	0.000389
278.15	0.6	0.001909	0.000116
283.15	0.6	0.002161	0.000132
288.15	0.6	0.002499	0.000152
293.15	0.6	0.002836	0.000172
298.15	0.6	0.003245	0.000197
303.15	0.6	0.003678	0.000222
308.15	0.6	0.004149	0.000251
313.15	0.6	0.004679	0.000282
318.15	0.6	0.005282	0.000319
278.15	0.4	0.00136	8.9e-05
283.15	0.4	0.001529	0.0001
288.15	0.4	0.00176	0.000115
293.15	0.4	0.002035	0.000132
298.15	0.4	0.002327	0.000151
303.15	0.4	0.002685	0.000173
308.15	0.4	0.003059	0.000196
313.15	0.4	0.003453	0.000221
318.15	0.4	0.003923	0.00025
278.15	0.2	0.0007582	4.84e-05
283.15	0.2	0.0008736	5.54e-05
288.15	0.2	0.001013	6.4e-05
293.15	0.2	0.001166	7.4e-05
298.15	0.2	0.001342	8.5e-05
303.15	0.2	0.001533	9.7e-05
308.15	0.2	0.001763	0.000111
313.15	0.2	0.00201	0.000126
318.15	0.2	0.002295	0.000144
278.15	0	0.0001976	1.11e-05
283.15	0	0.0002324	1.3e-05
288.15	0	0.00028	1.57e-05
293.15	0	0.0003315	1.86e-05
298.15	0	0.0003913	2.19e-05
303.15	0	0.0004609	2.58e-05
308.15	0	0.0005397	3.03e-05
313.15	0	0.0006255	3.51e-05
318.15	0	0.0007291	4.09e-05

System: pymetrozine + N-methylpyrrolidone + propan-2-ol; phases: Liquid, Crystal
Fixed: Pressure, kPa = 101.1
Property: Mole fraction of pymetrozine (Liquid); method: Chromatography
Temperature, K	Solvent: Mass fraction of N-methylpyrrolidone	Mole fraction of pymetrozine	uncertainty
278.15	1	0.001634	9.2e-05
283.15	1	0.001895	0.000106
288.15	1	0.002202	0.000123
293.15	1	0.002547	0.000143
298.15	1	0.002946	0.000165
303.15	1	0.003379	0.000189
308.15	1	0.00389	0.000218
313.15	1	0.004442	0.000249
318.15	1	0.005062	0.000284
278.15	0.8	0.001347	7.6e-05
283.15	0.8	0.001562	8.9e-05
288.15	0.8	0.001818	0.000103
293.15	0.8	0.002104	0.000119
298.15	0.8	0.002435	0.000138
303.15	0.8	0.002795	0.000158
308.15	0.8	0.00322	0.000182
313.15	0.8	0.003679	0.000208
318.15	0.8	0.004195	0.000238
278.15	0.6	0.001059	6.4e-05
283.15	0.6	0.00123	7.4e-05
288.15	0.6	0.001433	8.6e-05
293.15	0.6	0.001661	0.0001
298.15	0.6	0.001924	0.000115
303.15	0.6	0.002212	0.000132
308.15	0.6	0.00255	0.000153
313.15	0.6	0.002915	0.000174
318.15	0.6	0.003329	0.000199
278.15	0.4	0.0007722	4.9e-05
283.15	0.4	0.0008974	5.69e-05
288.15	0.4	0.001049	6.6e-05
293.15	0.4	0.001218	7.7e-05
298.15	0.4	0.001413	8.9e-05
303.15	0.4	0.001628	0.000103
308.15	0.4	0.00188	0.000118
313.15	0.4	0.002152	0.000135
318.15	0.4	0.002462	0.000154
278.15	0.2	0.0004849	2.95e-05
283.15	0.2	0.0005649	3.43e-05
288.15	0.2	0.0006644	4.03e-05
293.15	0.2	0.0007746	4.69e-05
298.15	0.2	0.0009022	5.45e-05
303.15	0.2	0.001045	6.3e-05
308.15	0.2	0.00121	7.3e-05
313.15	0.2	0.001389	8.4e-05
318.15	0.2	0.001596	9.6e-05
278.15	0	0.0001976	1.11e-05
283.15	0	0.0002324	1.3e-05
288.15	0	0.00028	1.57e-05
293.15	0	0.0003315	1.86e-05
298.15	0	0.0003913	2.19e-05
303.15	0	0.0004609	2.58e-05
308.15	0	0.0005397	3.03e-05
313.15	0	0.0006255	3.51e-05
318.15	0	0.0007291	4.09e-05

System: pymetrozine + dimethyl sulfoxide + propan-2-ol; phases: Liquid, Crystal
Fixed: Pressure, kPa = 101.1
Property: Mole fraction of pymetrozine (Liquid); method: Chromatography
Temperature, K	Solvent: Mass fraction of dimethyl sulfoxide	Mole fraction of pymetrozine	uncertainty
293.15	1	0.007624	0.000427
298.15	1	0.008623	0.000483
303.15	1	0.009846	0.000552
308.15	1	0.01118	0.00063
313.15	1	0.01265	0.00071
318.15	1	0.01441	0.00081
293.15	0.8	0.006185	0.000352
298.15	0.8	0.006899	0.000393
303.15	0.8	0.007844	0.000447
308.15	0.8	0.008928	0.000508
313.15	0.8	0.01006	0.00057
318.15	0.8	0.01137	0.00065
293.15	0.6	0.004588	0.000286
298.15	0.6	0.005158	0.000321
303.15	0.6	0.005794	0.000362
308.15	0.6	0.006664	0.000417
313.15	0.6	0.007552	0.000472
318.15	0.6	0.00844	0.000529
293.15	0.4	0.003043	0.000213
298.15	0.4	0.003421	0.000238
303.15	0.4	0.003831	0.000267
308.15	0.4	0.004283	0.000302
313.15	0.4	0.004845	0.000339
318.15	0.4	0.005463	0.000381
293.15	0.2	0.001402	9.5e-05
298.15	0.2	0.001615	0.000109
303.15	0.2	0.001815	0.000122
308.15	0.2	0.002102	0.00014
313.15	0.2	0.002472	0.000162
318.15	0.2	0.00279	0.000183
293.15	0	0.0003315	1.86e-05
298.15	0	0.0003913	2.19e-05
303.15	0	0.0004609	2.58e-05
308.15	0	0.0005397	3.03e-05
313.15	0	0.0006255	3.51e-05
318.15	0	0.0007291	4.09e-05

System: pymetrozine + 1,4-dioxane + propan-2-ol; phases: Liquid, Crystal
Fixed: Pressure, kPa = 101.1
Property: Mole fraction of pymetrozine (Liquid); method: Chromatography
Temperature, K	Solvent: Mass fraction of 1,4-dioxane	Mole fraction of pymetrozine	uncertainty
288.15	1	0.0004621	2.59e-05
293.15	1	0.0005398	3.03e-05
298.15	1	0.0006289	3.53e-05
303.15	1	0.0007281	4.08e-05
308.15	1	0.0008416	4.72e-05
313.15	1	0.0009641	5.4e-05
318.15	1	0.001102	6.2e-05
288.15	0.8	0.0004321	2.43e-05
293.15	0.8	0.0005029	2.82e-05
298.15	0.8	0.0005803	3.26e-05
303.15	0.8	0.0006639	3.73e-05
308.15	0.8	0.0007643	4.29e-05
313.15	0.8	0.0008733	4.91e-05
318.15	0.8	0.001002	5.6e-05
288.15	0.6	0.0003871	2.2e-05
293.15	0.6	0.0004518	2.56e-05
298.15	0.6	0.0005264	2.98e-05
303.15	0.6	0.0006035	3.41e-05
308.15	0.6	0.0006923	3.92e-05
313.15	0.6	0.0007968	4.5e-05
318.15	0.6	0.0009177	5.19e-05
288.15	0.4	0.0003482	1.97e-05
293.15	0.4	0.0004042	2.29e-05
298.15	0.4	0.000473	2.68e-05
303.15	0.4	0.0005481	3.1e-05
308.15	0.4	0.000634	3.58e-05
313.15	0.4	0.0007274	4.11e-05
318.15	0.4	0.0008345	4.71e-05
288.15	0.2	0.000314	1.77e-05
293.15	0.2	0.0003694	2.08e-05
298.15	0.2	0.0004335	2.44e-05
303.15	0.2	0.0004997	2.81e-05
308.15	0.2	0.0005838	3.28e-05
313.15	0.2	0.0006711	3.77e-05
318.15	0.2	0.0007721	4.33e-05
288.15	0	0.00028	1.57e-05
293.15	0	0.0003315	1.86e-05
298.15	0	0.0003913	2.19e-05
303.15	0	0.0004609	2.58e-05
308.15	0	0.0005397	3.03e-05
313.15	0	0.0006255	3.51e-05
318.15	0	0.0007291	4.09e-05
