Measured thermophysical data. Densities of the binary systems n-hexane + n-decane and nhexane + n-hexadecane up to 60 MPa and 463 K
Source: J. Chem. Eng. Data, 2015, 10.1021/acs.jced.5b00613
Compound 1: hexane, C6H14, InChI=1S/C6H14/c1-3-5-6-4-2/h3-6H2,1-2H3, purity 99.2%
Compound 2: decane, C10H22, InChI=1S/C10H22/c1-3-5-7-9-10-8-6-4-2/h3-10H2,1-2H3, purity 99.8%
Compound 3: dodecane, C12H26, InChI=1S/C12H26/c1-3-5-7-9-11-12-10-8-6-4-2/h3-12H2,1-2H3, purity 99.8%
Compound 4: hexadecane, C16H34, InChI=1S/C16H34/c1-3-5-7-9-11-13-15-16-14-12-10-8-6-4-2/h3-16H2,1-2H3, purity 99.4%

System: hexane; phases: Liquid
Property: Mass density, kg/m3 (Liquid); method: Vibrating tube method
Temperature, K	Pressure, kPa	Mass density, kg/m3	uncertainty
278.15	100	673.3	0.7
278.15	1000	673.9	0.7
278.15	5000	677.6	0.8
278.15	10000	681.8	0.8
278.15	20000	689.6	0.8
278.15	30000	696.8	0.9
278.15	40000	703.2	0.9
278.15	50000	709.2	1
278.15	60000	715	1.1
298.15	100	656.1	0.7
298.15	1000	655.9	0.7
298.15	5000	660.1	0.8
298.15	10000	665.1	0.8
298.15	20000	673.9	0.8
298.15	30000	681.9	0.9
298.15	40000	689	1
298.15	50000	695.5	1
298.15	60000	701.7	1.1
323.15	100	631.7	0.8
323.15	1000	633.1	0.7
323.15	5000	638.2	0.8
323.15	10000	644.2	0.8
323.15	20000	654.7	0.8
323.15	30000	663.9	0.9
323.15	40000	671.9	1
323.15	50000	679.3	1
323.15	60000	686.1	1.1
348.15	1000	608.5	0.8
348.15	5000	614.9	0.8
348.15	10000	622.1	0.8
348.15	20000	634.6	0.9
348.15	30000	645.2	0.9
348.15	40000	654.4	1
348.15	50000	662.6	1.1
348.15	60000	670.2	1.1
373.15	1000	582.6	3
373.15	5000	591	3
373.15	10000	600	3
373.15	20000	614.8	3
373.15	30000	627	3.1
373.15	40000	637.4	3.1
373.15	50000	646.6	3.1
373.15	60000	654.9	3.1
423.15	1000	521.2	3.1
423.15	5000	536.9	3.1
423.15	10000	551.5	3
423.15	20000	573.2	3.1
423.15	30000	589.7	3.1
423.15	40000	603.2	3.1
423.15	50000	614.6	3.1
423.15	60000	624.8	3.2
463.15	5000	484.2	3.1
463.15	10000	508.5	3.1
463.15	20000	538.9	3.1
463.15	30000	559.8	3.1
463.15	40000	575.9	3.1
463.15	50000	589.3	3.2
463.15	60000	600.7	3.2

System: decane; phases: Liquid
Property: Mass density, kg/m3 (Liquid); method: Vibrating tube method
Temperature, K	Pressure, kPa	Mass density, kg/m3	uncertainty
278.15	100	741.6	0.7
278.15	1000	742.2	0.7
278.15	5000	745	0.7
278.15	10000	748.3	0.7
278.15	20000	754.4	0.8
278.15	30000	760.1	0.8
278.15	40000	765.4	0.8
278.15	50000	770.4	0.9
278.15	60000	775.3	0.9
298.15	100	726.7	0.7
298.15	1000	727.4	0.7
298.15	5000	730.5	0.7
298.15	10000	734.2	0.7
298.15	20000	740.9	0.8
298.15	30000	747.2	0.8
298.15	40000	753	0.8
298.15	50000	758.4	0.9
298.15	60000	763.7	0.9
323.15	100	707.4	0.7
323.15	1000	708.4	0.7
323.15	5000	711.9	0.7
323.15	10000	716.2	0.8
323.15	20000	724	0.8
323.15	30000	731.1	0.8
323.15	40000	737.5	0.9
323.15	50000	743.5	0.9
323.15	60000	749.2	1
348.15	100	687.6	0.8
348.15	1000	688.6	0.7
348.15	5000	692.8	0.7
348.15	10000	697.7	0.8
348.15	20000	706.7	0.8
348.15	30000	714.6	0.8
348.15	40000	721.8	0.9
348.15	50000	728.4	0.9
348.15	60000	734.6	1
373.15	100	667.1	5
373.15	1000	668.8	3
373.15	5000	673.8	3
373.15	10000	679.6	3
373.15	20000	689.8	3
373.15	30000	698.8	3
373.15	40000	706.8	3.1
373.15	50000	714.1	3.1
373.15	60000	720.8	3.1
423.15	100	624.8	5
423.15	1000	627.2	3
423.15	5000	634.5	3
423.15	10000	642.4	3
423.15	20000	655.8	3
423.15	30000	667.1	3
423.15	40000	677	3.1
423.15	50000	685.9	3.1
423.15	60000	693.8	3.1
463.15	1000	590.4	5
463.15	5000	600.3	3
463.15	10000	610.8	3
463.15	20000	627.8	3
463.15	30000	641.4	3.1
463.15	40000	653.1	3.1
463.15	50000	663.3	3.1
463.15	60000	672.1	3.1

System: dodecane; phases: Liquid
Property: Mass density, kg/m3 (Liquid); method: Vibrating tube method
Temperature, K	Pressure, kPa	Mass density, kg/m3	uncertainty
278.15	100	759.2	0.7
278.15	1000	760.5	0.8
278.15	5000	763.1	0.7
278.15	10000	766.2	0.7
278.15	20000	771.9	0.8
278.15	30000	777.3	0.8
278.15	40000	782.3	0.8
278.15	50000	787.1	0.9
278.15	60000	791.7	0.9
298.15	100	745.6	0.7
298.15	1000	746.2	0.7
298.15	5000	749	0.7
298.15	10000	752.4	0.7
298.15	20000	758.7	0.8
298.15	30000	764.7	0.8
298.15	40000	770.1	0.8
298.15	50000	775.3	0.9
298.15	60000	780.2	0.9
323.15	100	727.2	0.7
323.15	1000	728.2	0.7
323.15	5000	731.4	0.7
323.15	10000	735.3	0.7
323.15	20000	742.6	0.8
323.15	30000	749.2	0.8
323.15	40000	755.2	0.8
323.15	50000	760.9	0.9
323.15	60000	766.3	0.9
348.15	100	708.7	0.7
348.15	1000	709.6	0.7
348.15	5000	713.4	0.7
348.15	10000	717.8	0.8
348.15	20000	726.1	0.8
348.15	30000	733.5	0.8
348.15	40000	740.2	0.9
348.15	50000	746.4	0.9
348.15	60000	752.3	1
373.15	1000	690.8	3
373.15	5000	695.2	3
373.15	10000	700.4	3
373.15	20000	709.8	3
373.15	30000	718.1	3
373.15	40000	725.6	3
373.15	50000	732.5	3.1
373.15	60000	738.9	3.1
423.15	1000	652.6	3
423.15	5000	658.7	3
423.15	10000	665.6	3
423.15	20000	677.6	3
423.15	30000	688	3
423.15	40000	697	3.1
423.15	50000	705.3	3.1
423.15	60000	712.8	3.1
463.15	5000	627.9	3
463.15	10000	636.9	3
463.15	20000	651.8	3
463.15	30000	664.2	3.1
463.15	40000	674.8	3.1
463.15	50000	684.1	3.1
463.15	60000	692.6	3.1

System: hexadecane; phases: Liquid
Property: Mass density, kg/m3 (Liquid); method: Vibrating tube method
Temperature, K	Pressure, kPa	Mass density, kg/m3	uncertainty
298.15	100	770.5	0.7
298.15	1000	771.1	0.7
298.15	5000	773.6	0.7
298.15	10000	776.9	0.7
298.15	20000	782.6	0.8
298.15	30000	788.1	0.8
323.15	100	753.1	0.7
323.15	1000	753.9	0.7
323.15	5000	756.8	0.7
323.15	10000	760.4	0.7
323.15	20000	766.9	0.8
323.15	30000	772.9	0.8
323.15	40000	778.5	0.8
323.15	50000	783.8	0.9
323.15	60000	788.7	0.9
348.15	100	735.6	0.7
348.15	1000	736.5	0.7
348.15	5000	739.8	0.7
348.15	10000	743.8	0.8
348.15	20000	751.1	0.8
348.15	30000	757.8	0.8
348.15	40000	763.9	0.9
348.15	50000	769.7	0.9
348.15	60000	775.1	0.9
373.15	100	717.8	5
373.15	1000	719.4	3
373.15	5000	723.2	3
373.15	10000	727.7	3
373.15	20000	735.9	3
373.15	30000	743.4	3
373.15	40000	750.3	3
373.15	50000	756.5	3.1
373.15	60000	762.4	3.1
423.15	100	680.8	5
423.15	1000	684.1	3
423.15	5000	689.2	3
423.15	10000	695.1	3
423.15	20000	705.5	3
423.15	30000	714.7	3
423.15	40000	722.9	3.1
423.15	50000	730.4	3.1
423.15	60000	737.2	3.1
463.15	100	651.6	5
463.15	1000	654.5	5
463.15	5000	661	3
463.15	10000	668.5	3
463.15	20000	681.2	3
463.15	30000	692	3
463.15	40000	701.4	3.1
463.15	50000	709.8	3.1
463.15	60000	717.5	3.1

System: hexane + decane; phases: Liquid
Property: Mass density, kg/m3 (Liquid); method: Vibrating tube method
Temperature, K	Pressure, kPa	Mole fraction of hexane	Mass density, kg/m3	uncertainty
278.15	100	0.1992	732.4	0.7
278.15	1000	0.1992	733	0.7
278.15	5000	0.1992	735.8	0.7
278.15	10000	0.1992	739.2	0.7
278.15	20000	0.1992	745.6	0.8
278.15	30000	0.1992	751.5	0.8
278.15	40000	0.1992	756.9	0.8
278.15	50000	0.1992	761.9	0.9
278.15	60000	0.1992	767	0.9
298.15	100	0.1992	716.8	0.7
298.15	1000	0.1992	717.5	0.7
298.15	5000	0.1992	720.7	0.7
298.15	10000	0.1992	724.6	0.7
298.15	20000	0.1992	731.7	0.8
298.15	30000	0.1992	738.1	0.8
298.15	40000	0.1992	744	0.9
298.15	50000	0.1992	749.6	0.9
298.15	60000	0.1992	755	1
323.15	100	0.1992	697.5	0.7
323.15	1000	0.1992	698.6	0.7
323.15	5000	0.1992	702.3	0.7
323.15	10000	0.1992	706.7	0.7
323.15	20000	0.1992	714.8	0.8
323.15	30000	0.1992	722.1	0.8
323.15	40000	0.1992	728.6	0.9
323.15	50000	0.1992	734.9	0.9
323.15	60000	0.1992	740.7	1
348.15	100	0.1992	677	0.7
348.15	1000	0.1992	678.1	0.7
348.15	5000	0.1992	682.5	0.7
348.15	10000	0.1992	687.7	0.7
348.15	20000	0.1992	697.1	0.8
348.15	30000	0.1992	705.3	0.8
348.15	40000	0.1992	712.7	0.9
348.15	50000	0.1992	719.5	0.9
348.15	60000	0.1992	725.8	1
373.15	1000	0.1992	657.7	3
373.15	5000	0.1992	663	3
373.15	10000	0.1992	669	3
373.15	20000	0.1992	679.9	3
373.15	30000	0.1992	689.3	3
373.15	40000	0.1992	697.6	3.1
373.15	50000	0.1992	705	3.1
373.15	60000	0.1992	711.8	3.1
423.15	1000	0.1992	614.4	3
423.15	5000	0.1992	622.2	3
423.15	10000	0.1992	630.6	3
423.15	20000	0.1992	644.9	3
423.15	30000	0.1992	656.8	3
423.15	40000	0.1992	667.1	3.1
423.15	50000	0.1992	676.2	3.1
423.15	60000	0.1992	684.4	3.1
463.15	5000	0.1992	586.3	3
463.15	10000	0.1992	597.8	3
463.15	20000	0.1992	616.1	3
463.15	30000	0.1992	630.7	3.1
463.15	40000	0.1992	642.9	3.1
463.15	50000	0.1992	653.4	3.1
463.15	60000	0.1992	662.7	3.1
278.15	100	0.3968	721.4	0.7
278.15	1000	0.3968	722.1	0.7
278.15	5000	0.3968	725.1	0.7
278.15	10000	0.3968	728.7	0.7
278.15	20000	0.3968	735.1	0.8
278.15	30000	0.3968	741.4	0.8
278.15	40000	0.3968	747	0.9
278.15	50000	0.3968	752.2	0.9
278.15	60000	0.3968	757.4	1
298.15	100	0.3968	705.6	0.7
298.15	1000	0.3968	706.3	0.7
298.15	5000	0.3968	709.7	0.7
298.15	10000	0.3968	713.8	0.7
298.15	20000	0.3968	721	0.8
298.15	30000	0.3968	727.9	0.8
298.15	40000	0.3968	734.2	0.9
298.15	50000	0.3968	739.9	0.9
298.15	60000	0.3968	745.4	1
323.15	100	0.3968	685.4	0.7
323.15	1000	0.3968	686.5	0.7
323.15	5000	0.3968	690.5	0.7
323.15	10000	0.3968	695.3	0.7
323.15	20000	0.3968	703.7	0.8
323.15	30000	0.3968	711.3	0.8
323.15	40000	0.3968	718.2	0.9
323.15	50000	0.3968	724.6	0.9
323.15	60000	0.3968	730.6	1
348.15	1000	0.3968	665.7	0.7
348.15	5000	0.3968	670.4	0.7
348.15	10000	0.3968	676	0.8
348.15	20000	0.3968	685.8	0.8
348.15	30000	0.3968	694.4	0.8
348.15	40000	0.3968	702.2	0.9
348.15	50000	0.3968	709.3	1
348.15	60000	0.3968	715.9	1
373.15	1000	0.3968	645	3
373.15	5000	0.3968	650.7	3
373.15	10000	0.3968	657.1	3
373.15	20000	0.3968	668.5	3
373.15	30000	0.3968	678.3	3
373.15	40000	0.3968	687	3.1
373.15	50000	0.3968	694.8	3.1
373.15	60000	0.3968	701.9	3.1
423.15	1000	0.3968	599.1	3
423.15	5000	0.3968	607.8	3
423.15	10000	0.3968	617.1	3
423.15	20000	0.3968	632.5	3
423.15	30000	0.3968	645.3	3.1
423.15	40000	0.3968	656.2	3.1
423.15	50000	0.3968	665.7	3.1
423.15	60000	0.3968	674.3	3.1
463.15	5000	0.3968	570.2	3
463.15	10000	0.3968	583.3	3
463.15	20000	0.3968	603.3	3
463.15	30000	0.3968	618.8	3.1
463.15	40000	0.3968	631.7	3.1
463.15	50000	0.3968	642.8	3.1
463.15	60000	0.3968	652.7	3.1
278.15	100	0.4978	715.4	0.7
278.15	1000	0.4978	716	0.7
278.15	5000	0.4978	719.2	0.7
278.15	10000	0.4978	722.8	0.7
278.15	20000	0.4978	729.5	0.8
278.15	30000	0.4978	735.7	0.8
278.15	40000	0.4978	741.4	0.9
278.15	50000	0.4978	746.8	0.9
278.15	60000	0.4978	752	1
298.15	100	0.4978	699.1	0.7
298.15	1000	0.4978	699.6	0.7
298.15	5000	0.4978	703.1	0.7
298.15	10000	0.4978	707.3	0.7
298.15	20000	0.4978	714.8	0.8
298.15	30000	0.4978	721.7	0.8
298.15	40000	0.4978	728	0.9
298.15	50000	0.4978	733.8	0.9
298.15	60000	0.4978	739.4	1
323.15	100	0.4978	678.2	0.7
323.15	1000	0.4978	679.4	0.7
323.15	5000	0.4978	683.6	0.7
323.15	10000	0.4978	688.3	0.8
323.15	20000	0.4978	697.1	0.8
323.15	30000	0.4978	704.9	0.8
323.15	40000	0.4978	711.9	0.9
323.15	50000	0.4978	718.5	1
323.15	60000	0.4978	724.6	1
348.15	1000	0.4978	658.2	0.7
348.15	5000	0.4978	663.2	0.7
348.15	10000	0.4978	668.8	0.8
348.15	20000	0.4978	679	0.8
348.15	30000	0.4978	687.8	0.9
348.15	40000	0.4978	695.7	0.9
348.15	50000	0.4978	703	1
348.15	60000	0.4978	709.7	1
373.15	1000	0.4978	636.7	3
373.15	5000	0.4978	642.6	3
373.15	10000	0.4978	649.4	3
373.15	20000	0.4978	661.3	3
373.15	30000	0.4978	671.4	3
373.15	40000	0.4978	680.2	3.1
373.15	50000	0.4978	688.2	3.1
373.15	60000	0.4978	695.5	3.1
423.15	1000	0.4978	589.4	3
423.15	5000	0.4978	598.8	3
423.15	10000	0.4978	608.6	3
423.15	20000	0.4978	624.8	3
423.15	30000	0.4978	637.9	3.1
423.15	40000	0.4978	649	3.1
423.15	50000	0.4978	658.8	3.1
423.15	60000	0.4978	667.5	3.1
463.15	5000	0.4978	559.5	3
463.15	10000	0.4978	573.5	3
463.15	20000	0.4978	594.6	3
463.15	30000	0.4978	610.7	3.1
463.15	40000	0.4978	624.1	3.1
463.15	50000	0.4978	635.5	3.1
463.15	60000	0.4978	645.6	3.1
278.15	100	0.5957	708.5	0.7
278.15	1000	0.5957	709.1	0.7
278.15	5000	0.5957	712.3	0.7
278.15	10000	0.5957	716	0.7
278.15	20000	0.5957	722.8	0.8
278.15	30000	0.5957	729.3	0.8
278.15	40000	0.5957	735.1	0.9
278.15	50000	0.5957	740.6	0.9
278.15	60000	0.5957	745.8	1
298.15	100	0.5957	692.1	0.7
298.15	1000	0.5957	692.7	0.7
298.15	5000	0.5957	696.2	0.7
298.15	10000	0.5957	700.5	0.8
298.15	20000	0.5957	708.2	0.8
298.15	30000	0.5957	715.2	0.8
298.15	40000	0.5957	721.6	0.9
298.15	50000	0.5957	727.6	0.9
298.15	60000	0.5957	733.3	1
323.15	100	0.5957	670.9	0.7
323.15	1000	0.5957	672.1	0.7
323.15	5000	0.5957	676.3	0.7
323.15	10000	0.5957	681.3	0.8
323.15	20000	0.5957	690.3	0.8
323.15	30000	0.5957	698.3	0.9
323.15	40000	0.5957	705.5	0.9
323.15	50000	0.5957	712.1	1
323.15	60000	0.5957	718.4	1
348.15	1000	0.5957	650.3	0.7
348.15	5000	0.5957	655.5	0.7
348.15	10000	0.5957	661.4	0.8
348.15	20000	0.5957	671.9	0.8
348.15	30000	0.5957	681	0.9
348.15	40000	0.5957	689.1	0.9
348.15	50000	0.5957	696.4	1
348.15	60000	0.5957	703.2	1.1
373.15	1000	0.5957	628.1	3
373.15	5000	0.5957	634.4	3
373.15	10000	0.5957	641.4	3
373.15	20000	0.5957	653.7	3
373.15	30000	0.5957	664.1	3
373.15	40000	0.5957	673.2	3.1
373.15	50000	0.5957	681.3	3.1
373.15	60000	0.5957	688.8	3.1
423.15	1000	0.5957	578.9	3
423.15	5000	0.5957	588.9	3
423.15	10000	0.5957	599.2	3
423.15	20000	0.5957	616.2	3
423.15	30000	0.5957	629.8	3.1
423.15	40000	0.5957	641.3	3.1
423.15	50000	0.5957	651.3	3.1
423.15	60000	0.5957	660.2	3.1
463.15	5000	0.5957	547.9	3
463.15	10000	0.5957	563.1	3
463.15	20000	0.5957	585.4	3
463.15	30000	0.5957	602.3	3.1
463.15	40000	0.5957	616	3.1
463.15	50000	0.5957	627.6	3.1
463.15	60000	0.5957	637.9	3.2
278.15	100	0.7978	692.6	0.7
278.15	1000	0.7978	693.3	0.7
278.15	5000	0.7978	696.8	0.7
278.15	10000	0.7978	700.6	0.8
278.15	20000	0.7978	707.9	0.8
278.15	30000	0.7978	714.7	0.8
278.15	40000	0.7978	720.8	0.9
278.15	50000	0.7978	726.4	1
278.15	60000	0.7978	731.9	1
298.15	100	0.7978	675.5	0.7
298.15	1000	0.7978	676.3	0.7
298.15	5000	0.7978	680.3	0.7
298.15	10000	0.7978	684.8	0.8
298.15	20000	0.7978	693	0.8
298.15	30000	0.7978	700.4	0.9
298.15	40000	0.7978	707.2	0.9
298.15	50000	0.7978	713.4	1
298.15	60000	0.7978	719.3	1
323.15	100	0.7978	653.4	0.7
323.15	1000	0.7978	654.6	0.7
323.15	5000	0.7978	659.3	0.7
323.15	10000	0.7978	664.7	0.8
323.15	20000	0.7978	674.3	0.8
323.15	30000	0.7978	682.8	0.9
323.15	40000	0.7978	690.4	0.9
323.15	50000	0.7978	697.4	1
323.15	60000	0.7978	703.9	1.1
348.15	1000	0.7978	631.9	0.7
348.15	5000	0.7978	637.5	0.7
348.15	10000	0.7978	644	0.8
348.15	20000	0.7978	655.3	0.8
348.15	30000	0.7978	665	0.9
348.15	40000	0.7978	673.6	1
348.15	50000	0.7978	681.4	1
348.15	60000	0.7978	688.5	1.1
373.15	1000	0.7978	608.4	3
373.15	5000	0.7978	615.4	3
373.15	10000	0.7978	623.2	3
373.15	20000	0.7978	636.6	3
373.15	30000	0.7978	647.8	3.1
373.15	40000	0.7978	657.5	3.1
373.15	50000	0.7978	666.2	3.1
373.15	60000	0.7978	674	3.1
423.15	1000	0.7978	554.6	3
423.15	5000	0.7978	566.5	3
423.15	10000	0.7978	578.7	3
423.15	20000	0.7978	597.5	3
423.15	30000	0.7978	612.4	3.1
423.15	40000	0.7978	624.8	3.1
423.15	50000	0.7978	635.7	3.1
423.15	60000	0.7978	645.3	3.1
463.15	5000	0.7978	521.1	3
463.15	10000	0.7978	539.4	3
463.15	20000	0.7978	565.1	3
463.15	30000	0.7978	583.8	3.1
463.15	40000	0.7978	598.5	3.1
463.15	50000	0.7978	611	3.1
463.15	60000	0.7978	621.8	3.2

System: hexane + hexadecane; phases: Liquid
Property: Mass density, kg/m3 (Liquid); method: Vibrating tube method
Temperature, K	Pressure, kPa	Mole fraction of hexane	Mass density, kg/m3	uncertainty
298.15	100	0.1985	759.7	0.7
298.15	1000	0.1985	760.3	0.7
298.15	5000	0.1985	763	0.7
298.15	10000	0.1985	766.3	0.7
298.15	20000	0.1985	772.3	0.8
298.15	30000	0.1985	777.9	0.8
298.15	40000	0.1985	783.2	0.8
298.15	50000	0.1985	788.1	0.9
323.15	100	0.1985	742.3	0.7
323.15	1000	0.1985	743.2	0.7
323.15	5000	0.1985	746.2	0.7
323.15	10000	0.1985	749.9	0.8
323.15	20000	0.1985	756.7	0.8
323.15	30000	0.1985	763	0.8
323.15	40000	0.1985	768.7	0.9
323.15	50000	0.1985	774.2	0.9
323.15	60000	0.1985	779.4	0.9
348.15	100	0.1985	724.4	0.7
348.15	1000	0.1985	725.2	0.7
348.15	5000	0.1985	728.7	0.7
348.15	10000	0.1985	732.9	0.8
348.15	20000	0.1985	740.6	0.8
348.15	30000	0.1985	747.6	0.8
348.15	40000	0.1985	754	0.9
348.15	50000	0.1985	760	0.9
348.15	60000	0.1985	765.6	1
373.15	100	0.1985	706.6	5
373.15	1000	0.1985	707.5	3
373.15	5000	0.1985	711.7	3
373.15	10000	0.1985	716.4	3
373.15	20000	0.1985	725.2	3
373.15	30000	0.1985	733	3
373.15	40000	0.1985	740.1	3
373.15	50000	0.1985	746.6	3.1
373.15	60000	0.1985	752.7	3.1
423.15	100	0.1985	668.8	5
423.15	1000	0.1985	670.8	3
423.15	5000	0.1985	676.3	3
423.15	10000	0.1985	682.5	3
423.15	20000	0.1985	693.7	3
423.15	30000	0.1985	703.3	3
423.15	40000	0.1985	711.9	3.1
423.15	50000	0.1985	719.7	3.1
423.15	60000	0.1985	726.8	3.1
463.15	1000	0.1985	640.3	5
463.15	5000	0.1985	647.5	3
463.15	10000	0.1985	655.5	3
463.15	20000	0.1985	669.1	3
463.15	30000	0.1985	680.6	3.1
463.15	40000	0.1985	690.5	3.1
463.15	50000	0.1985	699.3	3.1
463.15	60000	0.1985	707.4	3.1
298.15	100	0.4136	744.4	0.8
298.15	1000	0.4136	745.1	0.7
298.15	5000	0.4136	748	0.7
298.15	10000	0.4136	751.4	0.8
298.15	20000	0.4136	757.8	0.8
298.15	30000	0.4136	763.7	0.8
298.15	40000	0.4136	769.2	0.9
298.15	50000	0.4136	774.4	0.9
298.15	60000	0.4136	779.5	0.9
323.15	100	0.4136	726.2	0.8
323.15	1000	0.4136	727.1	0.7
323.15	5000	0.4136	730.4	0.7
323.15	10000	0.4136	734.4	0.8
323.15	20000	0.4136	741.6	0.8
323.15	30000	0.4136	748.3	0.8
323.15	40000	0.4136	754.3	0.9
323.15	50000	0.4136	760.1	0.9
323.15	60000	0.4136	765.4	1
348.15	100	0.4136	708	0.8
348.15	1000	0.4136	709	0.7
348.15	5000	0.4136	712.8	0.8
348.15	10000	0.4136	717.3	0.8
348.15	20000	0.4136	725.6	0.8
348.15	30000	0.4136	733	0.8
348.15	40000	0.4136	739.7	0.9
348.15	50000	0.4136	746	0.9
348.15	60000	0.4136	751.9	1
373.15	100	0.4136	689.1	5
373.15	1000	0.4136	690.2	3
373.15	5000	0.4136	694.8	3
373.15	10000	0.4136	699.9	3
373.15	20000	0.4136	709.4	3
373.15	30000	0.4136	717.7	3
373.15	40000	0.4136	725.3	3.1
373.15	50000	0.4136	732.3	3.1
373.15	60000	0.4136	738.7	3.1
423.15	1000	0.4136	651.3	3
423.15	5000	0.4136	657.6	3
423.15	10000	0.4136	664.5	3
423.15	20000	0.4136	676.6	3
423.15	30000	0.4136	687.1	3
423.15	40000	0.4136	696.3	3.1
423.15	50000	0.4136	704.6	3.1
423.15	60000	0.4136	712.1	3.1
463.15	1000	0.4136	618.2	5
463.15	5000	0.4136	626.5	3
463.15	10000	0.4136	635.6	3
463.15	20000	0.4136	650.7	3
463.15	30000	0.4136	663.2	3.1
463.15	40000	0.4136	673.9	3.1
463.15	50000	0.4136	683.4	3.1
463.15	60000	0.4136	692	3.1
298.15	100	0.5007	736.7	0.8
298.15	1000	0.5007	737.5	0.7
298.15	5000	0.5007	740.4	0.7
298.15	10000	0.5007	744	0.8
298.15	20000	0.5007	750.4	0.8
298.15	30000	0.5007	756.5	0.8
298.15	40000	0.5007	762.2	0.9
298.15	50000	0.5007	767.5	0.9
298.15	60000	0.5007	772.6	1
323.15	100	0.5007	717.7	0.8
323.15	1000	0.5007	719.1	0.7
323.15	5000	0.5007	722.6	0.8
323.15	10000	0.5007	726.7	0.8
323.15	20000	0.5007	734.1	0.8
323.15	30000	0.5007	741	0.8
323.15	40000	0.5007	747.2	0.9
323.15	50000	0.5007	753	0.9
323.15	60000	0.5007	758.5	1
348.15	100	0.5007	698.3	0.8
348.15	1000	0.5007	700.1	0.8
348.15	5000	0.5007	704	0.8
348.15	10000	0.5007	708.6	0.8
348.15	20000	0.5007	717.2	0.8
348.15	30000	0.5007	724.9	0.9
348.15	40000	0.5007	731.8	0.9
348.15	50000	0.5007	738.2	1
348.15	60000	0.5007	744.2	1
373.15	1000	0.5007	681	3
373.15	5000	0.5007	685.8	3
373.15	10000	0.5007	691.2	3
373.15	20000	0.5007	701	3
373.15	30000	0.5007	709.7	3
373.15	40000	0.5007	717.5	3.1
373.15	50000	0.5007	724.6	3.1
373.15	60000	0.5007	731.2	3.1
423.15	1000	0.5007	640.9	3
423.15	5000	0.5007	647.6	3
423.15	10000	0.5007	654.9	3
423.15	20000	0.5007	667.6	3
423.15	30000	0.5007	678.5	3.1
423.15	40000	0.5007	688	3.1
423.15	50000	0.5007	696.5	3.1
423.15	60000	0.5007	704.2	3.1
463.15	1000	0.5007	606.1	5
463.15	5000	0.5007	615.2	3
463.15	10000	0.5007	624.9	3
463.15	20000	0.5007	640.9	3
463.15	30000	0.5007	654	3.1
463.15	40000	0.5007	665.1	3.1
463.15	50000	0.5007	674.9	3.1
463.15	60000	0.5007	683.6	3.1
298.15	100	0.5966	726.9	0.8
298.15	1000	0.5966	727.5	0.7
298.15	5000	0.5966	730.6	0.7
298.15	10000	0.5966	734.3	0.8
298.15	20000	0.5966	741.1	0.8
298.15	30000	0.5966	747.4	0.8
298.15	40000	0.5966	753.2	0.9
298.15	50000	0.5966	758.6	0.9
298.15	60000	0.5966	763.9	1
323.15	100	0.5966	707.8	0.8
323.15	1000	0.5966	708.9	0.7
323.15	5000	0.5966	712.4	0.8
323.15	10000	0.5966	716.7	0.8
323.15	20000	0.5966	724.4	0.8
323.15	30000	0.5966	731.5	0.8
323.15	40000	0.5966	737.9	0.9
323.15	50000	0.5966	744	0.9
323.15	60000	0.5966	749.7	1
348.15	100	0.5966	687.2	1
348.15	1000	0.5966	689.3	0.8
348.15	5000	0.5966	693.5	0.8
348.15	10000	0.5966	698.5	0.8
348.15	20000	0.5966	707.5	0.8
348.15	30000	0.5966	715.4	0.9
348.15	40000	0.5966	722.6	0.9
348.15	50000	0.5966	729.3	1
348.15	60000	0.5966	735.5	1
373.15	1000	0.5966	669.9	3
373.15	5000	0.5966	674.9	3
373.15	10000	0.5966	680.7	3
373.15	20000	0.5966	691	3
373.15	30000	0.5966	700	3
373.15	40000	0.5966	708	3.1
373.15	50000	0.5966	715.3	3.1
373.15	60000	0.5966	722.1	3.1
423.15	1000	0.5966	628.2	3
423.15	5000	0.5966	635.3	3
423.15	10000	0.5966	643.3	3
423.15	20000	0.5966	656.9	3
423.15	30000	0.5966	668.3	3.1
423.15	40000	0.5966	678.2	3.1
423.15	50000	0.5966	687.1	3.1
423.15	60000	0.5966	695.2	3.1
463.15	1000	0.5966	593	5
463.15	5000	0.5966	602.9	3
463.15	10000	0.5966	613.2	3
463.15	20000	0.5966	630	3
463.15	30000	0.5966	643.6	3.1
463.15	40000	0.5966	655.2	3.1
463.15	50000	0.5966	665.3	3.1
463.15	60000	0.5966	674.4	3.1
298.15	100	0.7928	700.2	0.7
298.15	1000	0.7928	700.8	0.7
298.15	5000	0.7928	704.3	0.8
298.15	10000	0.7928	708.5	0.8
298.15	20000	0.7928	715.9	0.8
298.15	30000	0.7928	722.7	0.9
298.15	40000	0.7928	729	0.9
298.15	50000	0.7928	734.8	1
298.15	60000	0.7928	740.4	1
323.15	100	0.7928	679.1	0.8
323.15	1000	0.7928	680.6	0.8
323.15	5000	0.7928	684.7	0.8
323.15	10000	0.7928	689.6	0.8
323.15	20000	0.7928	698.3	0.8
323.15	30000	0.7928	706.2	0.9
323.15	40000	0.7928	713.2	0.9
323.15	50000	0.7928	719.7	1
323.15	60000	0.7928	725.7	1
348.15	100	0.7928	658.2	0.8
348.15	1000	0.7928	659.5	0.8
348.15	5000	0.7928	664.5	0.8
348.15	10000	0.7928	670.2	0.8
348.15	20000	0.7928	680.3	0.8
348.15	30000	0.7928	689.2	0.9
348.15	40000	0.7928	697.1	0.9
348.15	50000	0.7928	704.3	1
348.15	60000	0.7928	711	1.1
373.15	1000	0.7928	638.3	3
373.15	5000	0.7928	644.3	3
373.15	10000	0.7928	651	3
373.15	20000	0.7928	662.7	3
373.15	30000	0.7928	672.8	3.1
373.15	40000	0.7928	681.7	3.1
373.15	50000	0.7928	689.7	3.1
373.15	60000	0.7928	697	3.1
423.15	1000	0.7928	592.3	3
423.15	5000	0.7928	601.2	3
423.15	10000	0.7928	610.7	3
423.15	20000	0.7928	626.4	3
423.15	30000	0.7928	639.2	3.1
423.15	40000	0.7928	650.3	3.1
423.15	50000	0.7928	660	3.1
423.15	60000	0.7928	668.8	3.1
463.15	5000	0.7928	563.7	3
463.15	10000	0.7928	577	3
463.15	20000	0.7928	597.1	3.1
463.15	30000	0.7928	612.8	3.1
463.15	40000	0.7928	625.8	3.1
463.15	50000	0.7928	637	3.1
463.15	60000	0.7928	647	3.2
