Measured thermophysical data. Permittivities, Refractive Indices, Densities, and Excess Properties for Binary Systems Containing 1-Alkanols and Cyclopentanone
Source: J. Chem. Eng. Data, 2018, 10.1021/acs.jced.8b00217
Compound 1: cyclopentanone, C5H8O, InChI=1S/C5H8O/c6-5-3-1-2-4-5/h1-4H2, purity 99%
Compound 2: cyclohexane, C6H12, InChI=1S/C6H12/c1-2-4-6-5-3-1/h1-6H2, purity 99.9%
Compound 3: ethanol, C2H6O, InChI=1S/C2H6O/c1-2-3/h3H,2H2,1H3, purity 99.8%
Compound 4: butan-1-ol, C4H10O, InChI=1S/C4H10O/c1-2-3-4-5/h5H,2-4H2,1H3, purity 99.5%
Compound 5: hexan-1-ol, C6H14O, InChI=1S/C6H14O/c1-2-3-4-5-6-7/h7H,2-6H2,1H3, purity 98%
Compound 6: octan-1-ol, C8H18O, InChI=1S/C8H18O/c1-2-3-4-5-6-7-8-9/h9H,2-8H2,1H3, purity 99%
Compound 7: decan-1-ol, C10H22O, InChI=1S/C10H22O/c1-2-3-4-5-6-7-8-9-10-11/h11H,2-10H2,1H3, purity 99%

System: cyclopentanone; phases: Liquid
Property: Relative permittivity at various frequencies (Liquid); method: Coaxial cylinder capacitor
Temperature, K	Pressure, kPa	Frequency, MHz	Relative permittivity at various frequencies	uncertainty
298.15	101.3	0.01	13.52	0.63

System: cyclopentanone; phases: Liquid
Property: Refractive index (Na D-line) (Liquid); method: Standard Abbe refractometry
Temperature, K	Pressure, kPa	Refractive index (Na D-line)	uncertainty
298.15	101.3	1.4347	0.0011

System: cyclopentanone; phases: Liquid
Property: Mass density, kg/m3 (Liquid); method: Vibrating tube method
Temperature, K	Pressure, kPa	Mass density, kg/m3	uncertainty
298.15	101.3	944.31	1.02

System: cyclohexane; phases: Liquid
Property: Mass density, kg/m3 (Liquid); method: Vibrating tube method
Temperature, K	Pressure, kPa	Mass density, kg/m3	uncertainty
298.15	101.3	773.89	1.01

System: cyclohexane; phases: Liquid
Property: Relative permittivity at various frequencies (Liquid); method: Coaxial cylinder capacitor
Temperature, K	Pressure, kPa	Frequency, MHz	Relative permittivity at various frequencies	uncertainty
298.15	101.3	0.01	2.02	0.29

System: cyclohexane; phases: Liquid
Property: Refractive index (Na D-line) (Liquid); method: Standard Abbe refractometry
Temperature, K	Pressure, kPa	Refractive index (Na D-line)	uncertainty
298.15	101.3	1.4235	0.001

System: ethanol; phases: Liquid
Property: Relative permittivity at various frequencies (Liquid); method: Coaxial cylinder capacitor
Temperature, K	Pressure, kPa	Frequency, MHz	Relative permittivity at various frequencies	uncertainty
298.15	101.3	0.01	24.37	0.84

System: ethanol; phases: Liquid
Property: Refractive index (Na D-line) (Liquid); method: Standard Abbe refractometry
Temperature, K	Pressure, kPa	Refractive index (Na D-line)	uncertainty
298.15	101.3	1.3594	0.001

System: ethanol; phases: Liquid
Property: Mass density, kg/m3 (Liquid); method: Vibrating tube method
Temperature, K	Pressure, kPa	Mass density, kg/m3	uncertainty
298.15	101.3	785.26	1.01

System: butan-1-ol; phases: Liquid
Property: Relative permittivity at various frequencies (Liquid); method: Coaxial cylinder capacitor
Temperature, K	Pressure, kPa	Frequency, MHz	Relative permittivity at various frequencies	uncertainty
298.15	101.3	0.01	17.49	0.71

System: butan-1-ol; phases: Liquid
Property: Refractive index (Na D-line) (Liquid); method: Standard Abbe refractometry
Temperature, K	Pressure, kPa	Refractive index (Na D-line)	uncertainty
298.15	101.3	1.3971	0.001

System: butan-1-ol; phases: Liquid
Property: Mass density, kg/m3 (Liquid); method: Vibrating tube method
Temperature, K	Pressure, kPa	Mass density, kg/m3	uncertainty
298.15	101.3	805.92	1.01

System: hexan-1-ol; phases: Liquid
Property: Relative permittivity at various frequencies (Liquid); method: Coaxial cylinder capacitor
Temperature, K	Pressure, kPa	Frequency, MHz	Relative permittivity at various frequencies	uncertainty
298.15	101.3	0.01	13.09	0.62

System: hexan-1-ol; phases: Liquid
Property: Refractive index (Na D-line) (Liquid); method: Standard Abbe refractometry
Temperature, K	Pressure, kPa	Refractive index (Na D-line)	uncertainty
298.15	101.3	1.4161	0.0011

System: hexan-1-ol; phases: Liquid
Property: Mass density, kg/m3 (Liquid); method: Vibrating tube method
Temperature, K	Pressure, kPa	Mass density, kg/m3	uncertainty
298.15	101.3	815.99	1.16

System: octan-1-ol; phases: Liquid
Property: Relative permittivity at various frequencies (Liquid); method: Coaxial cylinder capacitor
Temperature, K	Pressure, kPa	Frequency, MHz	Relative permittivity at various frequencies	uncertainty
298.15	101.3	0.01	9.85	0.55

System: octan-1-ol; phases: Liquid
Property: Refractive index (Na D-line) (Liquid); method: Standard Abbe refractometry
Temperature, K	Pressure, kPa	Refractive index (Na D-line)	uncertainty
298.15	101.3	1.4276	0.0011

System: octan-1-ol; phases: Liquid
Property: Mass density, kg/m3 (Liquid); method: Vibrating tube method
Temperature, K	Pressure, kPa	Mass density, kg/m3	uncertainty
298.15	101.3	821.98	1.02

System: decan-1-ol; phases: Liquid
Property: Relative permittivity at various frequencies (Liquid); method: Coaxial cylinder capacitor
Temperature, K	Pressure, kPa	Frequency, MHz	Relative permittivity at various frequencies	uncertainty
298.15	101.3	0.01	7.74	0.49

System: decan-1-ol; phases: Liquid
Property: Refractive index (Na D-line) (Liquid); method: Standard Abbe refractometry
Temperature, K	Pressure, kPa	Refractive index (Na D-line)	uncertainty
298.15	101.3	1.4352	0.0011

System: decan-1-ol; phases: Liquid
Property: Mass density, kg/m3 (Liquid); method: Vibrating tube method
Temperature, K	Pressure, kPa	Mass density, kg/m3	uncertainty
298.15	101.3	826.71	1.02

System: cyclohexane + cyclopentanone; phases: Liquid
Fixed: Temperature, K = 298.15
Fixed: Pressure, kPa = 101.3
Fixed: Frequency, MHz = 0.01
Property: Relative permittivity at various frequencies (Liquid); method: Coaxial cylinder capacitor
Mole fraction of cyclopentanone	Relative permittivity at various frequencies	uncertainty
0	2.02	0.29
0.03	2.25	0.3
0.05	2.39	0.31
0.1	2.78	0.32
0.15	3.19	0.34
0.2	3.61	0.36
0.3	4.51	0.39
0.4	5.51	0.42
0.5	6.6	0.46
0.6	7.78	0.49
0.7	9.06	0.53
0.8	10.45	0.56
0.9	11.94	0.6
1	13.52	0.63

System: cyclohexane + cyclopentanone; phases: Liquid
Fixed: Temperature, K = 298.15
Fixed: Pressure, kPa = 101.3
Property: Refractive index (Na D-line) (Liquid); method: Standard Abbe refractometry
Mole fraction of cyclopentanone	Refractive index (Na D-line)	uncertainty
0	1.4235	0.001
0.03	1.4235	0.001
0.05	1.4235	0.001
0.1	1.4236	0.001
0.15	1.4237	0.001
0.2	1.4239	0.001
0.3	1.4244	0.001
0.4	1.4252	0.001
0.5	1.4262	0.001
0.6	1.4274	0.001
0.7	1.4289	0.0011
0.8	1.4306	0.0011
0.9	1.4325	0.0011
1	1.4347	0.0011

System: ethanol + cyclopentanone; phases: Liquid
Fixed: Temperature, K = 298.15
Fixed: Pressure, kPa = 101.3
Fixed: Frequency, MHz = 0.01
Property: Relative permittivity at various frequencies (Liquid); method: Coaxial cylinder capacitor
Mole fraction of cyclopentanone	Relative permittivity at various frequencies	uncertainty
0	24.37	0.84
0.1	22.42	0.8
0.2	20.69	0.77
0.3	19.16	0.75
0.4	17.78	0.72
0.5	16.6	0.7
0.6	15.59	0.68
0.7	14.77	0.66
0.8	14.16	0.65
0.9	13.75	0.64
1	13.52	0.63

System: ethanol + cyclopentanone; phases: Liquid
Fixed: Temperature, K = 298.15
Fixed: Pressure, kPa = 101.3
Property: Refractive index (Na D-line) (Liquid); method: Standard Abbe refractometry
Mole fraction of cyclopentanone	Refractive index (Na D-line)	uncertainty
0	1.3594	0.001
0.1	1.3696	0.0011
0.2	1.3793	0.0011
0.3	1.3884	0.0011
0.4	1.3968	0.0011
0.5	1.4046	0.0011
0.6	1.4117	0.0011
0.7	1.4182	0.0011
0.8	1.4242	0.0011
0.9	1.4296	0.0011
1	1.4347	0.0011

System: ethanol + cyclopentanone; phases: Liquid
Fixed: Temperature, K = 298.15
Fixed: Pressure, kPa = 101.3
Property: Mass density, kg/m3 (Liquid); method: Vibrating tube method
Mole fraction of cyclopentanone	Mass density, kg/m3	uncertainty
0	785.26	1.01
0.1	811.02	1.12
0.2	833.48	1.09
0.3	853.69	1.08
0.4	871.79	1.06
0.5	888.17	1.05
0.6	902.91	1.05
0.7	915.99	1.04
0.8	927.18	1.03
0.9	936.58	1.03
1	944.31	1.02

System: butan-1-ol + cyclopentanone; phases: Liquid
Fixed: Temperature, K = 298.15
Fixed: Pressure, kPa = 101.3
Fixed: Frequency, MHz = 0.01
Property: Relative permittivity at various frequencies (Liquid); method: Coaxial cylinder capacitor
Mole fraction of cyclopentanone	Relative permittivity at various frequencies	uncertainty
0	17.49	0.71
0.1	16.31	0.69
0.2	15.37	0.67
0.3	14.58	0.65
0.4	13.97	0.64
0.5	13.5	0.6
0.6	13.18	0.62
0.7	13.03	0.62
0.8	13.04	0.62
0.9	13.19	0.62
1	13.52	0.63

System: butan-1-ol + cyclopentanone; phases: Liquid
Fixed: Temperature, K = 298.15
Fixed: Pressure, kPa = 101.3
Property: Refractive index (Na D-line) (Liquid); method: Standard Abbe refractometry
Mole fraction of cyclopentanone	Refractive index (Na D-line)	uncertainty
0	1.3971	0.001
0.1	1.4015	0.0011
0.2	1.4057	0.0011
0.3	1.4098	0.0011
0.4	1.4137	0.0011
0.5	1.4175	0.0011
0.6	1.4212	0.0011
0.7	1.4248	0.0011
0.8	1.4282	0.0011
0.9	1.4315	0.0011
1	1.4347	0.0011

System: butan-1-ol + cyclopentanone; phases: Liquid
Fixed: Temperature, K = 298.15
Fixed: Pressure, kPa = 101.3
Property: Mass density, kg/m3 (Liquid); method: Vibrating tube method
Mole fraction of cyclopentanone	Mass density, kg/m3	uncertainty
0	805.92	1.01
0.1	820.75	1.05
0.2	835.31	1.05
0.3	849.88	1.05
0.4	864.47	1.05
0.5	878.88	1.05
0.6	893.05	1.05
0.7	906.81	1.05
0.8	920.01	1.05
0.9	932.67	1.05
1	944.31	1.02

System: hexan-1-ol + cyclopentanone; phases: Liquid
Fixed: Temperature, K = 298.15
Fixed: Pressure, kPa = 101.3
Fixed: Frequency, MHz = 0.01
Property: Relative permittivity at various frequencies (Liquid); method: Coaxial cylinder capacitor
Mole fraction of cyclopentanone	Relative permittivity at various frequencies	uncertainty
0	13.09	0.62
0.1	12.44	0.61
0.2	12	0.6
0.3	11.68	0.59
0.4	11.51	0.59
0.5	11.48	0.59
0.6	11.59	0.59
0.7	11.87	0.59
0.8	12.27	0.6
0.9	12.83	0.62
1	13.52	0.63

System: hexan-1-ol + cyclopentanone; phases: Liquid
Fixed: Temperature, K = 298.15
Fixed: Pressure, kPa = 101.3
Property: Refractive index (Na D-line) (Liquid); method: Standard Abbe refractometry
Mole fraction of cyclopentanone	Refractive index (Na D-line)	uncertainty
0	1.4161	0.0011
0.1	1.4175	0.0011
0.2	1.4189	0.0011
0.3	1.4204	0.0011
0.4	1.4221	0.0011
0.5	1.4239	0.0011
0.6	1.4258	0.0011
0.7	1.4279	0.0011
0.8	1.4301	0.0011
0.9	1.4324	0.0011
1	1.4347	0.0011

System: hexan-1-ol + cyclopentanone; phases: Liquid
Fixed: Temperature, K = 298.15
Fixed: Pressure, kPa = 101.3
Property: Mass density, kg/m3 (Liquid); method: Vibrating tube method
Mole fraction of cyclopentanone	Mass density, kg/m3	uncertainty
0	815.99	1.16
0.1	823.87	1.15
0.2	832.61	1.13
0.3	842.44	1.12
0.4	853.65	1.11
0.5	866.02	1.1
0.6	879.48	1.1
0.7	894.17	1.09
0.8	909.92	1.09
0.9	926.64	1.09
1	944.31	1.02

System: octan-1-ol + cyclopentanone; phases: Liquid
Fixed: Temperature, K = 298.15
Fixed: Pressure, kPa = 101.3
Fixed: Frequency, MHz = 0.01
Property: Relative permittivity at various frequencies (Liquid); method: Coaxial cylinder capacitor
Mole fraction of cyclopentanone	Relative permittivity at various frequencies	uncertainty
0	9.85	0.55
0.1	9.63	0.54
0.2	9.51	0.54
0.3	9.5	0.54
0.4	9.65	0.54
0.5	9.94	0.55
0.6	10.37	0.56
0.7	10.97	0.57
0.8	11.69	0.59
0.9	12.55	0.61
1	13.52	0.63

System: octan-1-ol + cyclopentanone; phases: Liquid
Fixed: Temperature, K = 298.15
Fixed: Pressure, kPa = 101.3
Property: Refractive index (Na D-line) (Liquid); method: Standard Abbe refractometry
Mole fraction of cyclopentanone	Refractive index (Na D-line)	uncertainty
0	1.4276	0.0011
0.1	1.4276	0.0011
0.2	1.4278	0.0011
0.3	1.4282	0.0011
0.4	1.4287	0.0011
0.5	1.4294	0.0011
0.6	1.4302	0.0011
0.7	1.4311	0.0011
0.8	1.4321	0.0011
0.9	1.4333	0.0011
1	1.4347	0.0011

System: octan-1-ol + cyclopentanone; phases: Liquid
Fixed: Temperature, K = 298.15
Fixed: Pressure, kPa = 101.3
Property: Mass density, kg/m3 (Liquid); method: Vibrating tube method
Mole fraction of cyclopentanone	Mass density, kg/m3	uncertainty
0	821.98	1.02
0.1	827.28	1.03
0.2	833.41	1.03
0.3	841.25	1.04
0.4	850.89	1.04
0.5	862.2	1.05
0.6	874.88	1.06
0.7	889.18	1.07
0.8	905.27	1.08
0.9	923.62	1.09
1	944.31	1.02

System: decan-1-ol + cyclopentanone; phases: Liquid
Fixed: Temperature, K = 298.15
Fixed: Pressure, kPa = 101.3
Fixed: Frequency, MHz = 0.01
Property: Relative permittivity at various frequencies (Liquid); method: Coaxial cylinder capacitor
Mole fraction of cyclopentanone	Relative permittivity at various frequencies	uncertainty
0	7.74	0.49
0.1	7.75	0.49
0.2	7.84	0.49
0.3	8.07	0.5
0.4	8.43	0.51
0.5	8.93	0.52
0.6	9.56	0.54
0.7	10.34	0.56
0.8	11.27	0.58
0.9	12.31	0.61
1	13.52	0.63

System: decan-1-ol + cyclopentanone; phases: Liquid
Fixed: Temperature, K = 298.15
Fixed: Pressure, kPa = 101.3
Property: Refractive index (Na D-line) (Liquid); method: Standard Abbe refractometry
Mole fraction of cyclopentanone	Refractive index (Na D-line)	uncertainty
0	1.4352	0.0011
0.1	1.4345	0.0011
0.2	1.4339	0.0011
0.3	1.4335	0.0011
0.4	1.4333	0.0011
0.5	1.4332	0.0011
0.6	1.4332	0.0011
0.7	1.4333	0.0011
0.8	1.4336	0.0011
0.9	1.4341	0.0011
1	1.4347	0.0011

System: decan-1-ol + cyclopentanone; phases: Liquid
Fixed: Temperature, K = 298.15
Fixed: Pressure, kPa = 101.3
Property: Mass density, kg/m3 (Liquid); method: Vibrating tube method
Mole fraction of cyclopentanone	Mass density, kg/m3	uncertainty
0	826.71	1.02
0.1	829.38	1.03
0.2	833.22	1.03
0.3	839.24	1.03
0.4	847.47	1.04
0.5	857.91	1.05
0.6	870.34	1.06
0.7	884.81	1.07
0.8	901.52	1.08
0.9	921.01	1.11
1	944.31	1.02
