Measured thermophysical data. Solubility Measurement and Thermodynamic Model Correlation and Evaluation of 2-Chloro-5-nitroaniline in 12 Pure Solvents
Source: J. Chem. Eng. Data, 2019, 10.1021/acs.jced.8b00931
Compound 1: 2-chloro-5-nitroaniline, C6H5ClN2O2, InChI=1S/C6H5ClN2O2/c7-5-2-1-4(9(10)11)3-6(5)8/h1-3H,8H2, purity 99.6%
Compound 2: methanol, CH4O, InChI=1S/CH4O/c1-2/h2H,1H3, purity 99.7%
Compound 3: propan-1-ol, C3H8O, InChI=1S/C3H8O/c1-2-3-4/h4H,2-3H2,1H3, purity 99.4%
Compound 4: propan-2-ol, C3H8O, InChI=1S/C3H8O/c1-3(2)4/h3-4H,1-2H3, purity 99.5%
Compound 5: ethanol, C2H6O, InChI=1S/C2H6O/c1-2-3/h3H,2H2,1H3, purity 99.5%
Compound 6: toluene, C7H8, InChI=1S/C7H8/c1-7-5-3-2-4-6-7/h2-6H,1H3, purity 99.6%
Compound 7: ethyl acetate, C4H8O2, InChI=1S/C4H8O2/c1-3-6-4(2)5/h3H2,1-2H3, purity 99.5%
Compound 8: acetonitrile, C2H3N, InChI=1S/C2H3N/c1-2-3/h1H3, purity 99.4%
Compound 9: 1,4-dioxane, C4H8O2, InChI=1S/C4H8O2/c1-2-6-4-3-5-1/h1-4H2, purity 99.6%
Compound 10: butan-1-ol, C4H10O, InChI=1S/C4H10O/c1-2-3-4-5/h5H,2-4H2,1H3, purity 99.6%
Compound 11: acetone, C3H6O, InChI=1S/C3H6O/c1-3(2)4/h1-2H3, purity 99.5%
Compound 12: butanone, C4H8O, InChI=1S/C4H8O/c1-3-4(2)5/h3H2,1-2H3, purity 99.5%
Compound 13: N-methylpyrrolidone, C5H9NO, InChI=1S/C5H9NO/c1-6-4-2-3-5(6)7/h2-4H2,1H3, purity 99.5%

System: 2-chloro-5-nitroaniline; phases: Crystal, Liquid, Air at 1 atmosphere
Property: Triple point temperature, K (Crystal); method: DSC
Triple point temperature, K	uncertainty
393.39	1.22

System: 2-chloro-5-nitroaniline; phases: Crystal, Liquid, Air at 1 atmosphere
Property: Molar enthalpy of transition or fusion, kJ/mol (Crystal); method: DSC
Molar enthalpy of transition or fusion, kJ/mol	uncertainty
27.026	0.97

System: 2-chloro-5-nitroaniline + methanol; phases: Liquid, Crystal
Fixed: Pressure, kPa = 100
Property: Mole fraction of 2-chloro-5-nitroaniline (Liquid); method: Chromatography
Temperature, K	Mole fraction of 2-chloro-5-nitroaniline	uncertainty
273.15	0.0071	0.0003
278.15	0.0085	0.0003
283.15	0.01	0.0004
288.15	0.0118	0.0004
293.15	0.0141	0.0005
298.15	0.0165	0.0006
303.15	0.0193	0.0007
308.15	0.0227	0.0008
313.15	0.0263	0.001

System: 2-chloro-5-nitroaniline + ethanol; phases: Liquid, Crystal
Fixed: Pressure, kPa = 100
Property: Mole fraction of 2-chloro-5-nitroaniline (Liquid); method: Chromatography
Temperature, K	Mole fraction of 2-chloro-5-nitroaniline	uncertainty
273.15	0.0097	0.0004
278.15	0.0112	0.0004
283.15	0.0129	0.0005
288.15	0.0149	0.0005
293.15	0.0173	0.0006
298.15	0.0198	0.0007
303.15	0.0227	0.0008
308.15	0.0258	0.0009
313.15	0.0297	0.0011

System: 2-chloro-5-nitroaniline + propan-1-ol; phases: Liquid, Crystal
Fixed: Pressure, kPa = 100
Property: Mole fraction of 2-chloro-5-nitroaniline (Liquid); method: Chromatography
Temperature, K	Mole fraction of 2-chloro-5-nitroaniline	uncertainty
273.15	0.008	0.0003
278.15	0.0094	0.0003
283.15	0.011	0.0004
288.15	0.0129	0.0005
293.15	0.0152	0.0006
298.15	0.0177	0.0006
303.15	0.0209	0.0008
308.15	0.0246	0.0009
313.15	0.0283	0.001

System: 2-chloro-5-nitroaniline + propan-2-ol; phases: Liquid, Crystal
Fixed: Pressure, kPa = 100
Property: Mole fraction of 2-chloro-5-nitroaniline (Liquid); method: Chromatography
Temperature, K	Mole fraction of 2-chloro-5-nitroaniline	uncertainty
273.15	0.0047	0.0003
278.15	0.0059	0.0003
283.15	0.0074	0.0004
288.15	0.0091	0.0004
293.15	0.0109	0.0005
298.15	0.0132	0.0006
303.15	0.0158	0.0007
308.15	0.0188	0.0008
313.15	0.0226	0.001

System: 2-chloro-5-nitroaniline + butan-1-ol; phases: Liquid, Crystal
Fixed: Pressure, kPa = 100
Property: Mole fraction of 2-chloro-5-nitroaniline (Liquid); method: Chromatography
Temperature, K	Mole fraction of 2-chloro-5-nitroaniline	uncertainty
273.15	0.0055	0.0003
278.15	0.0069	0.0003
283.15	0.0086	0.0004
288.15	0.0104	0.0004
293.15	0.0128	0.0005
298.15	0.0153	0.0006
303.15	0.0182	0.0007
308.15	0.0213	0.0008
313.15	0.0252	0.001

System: 2-chloro-5-nitroaniline + toluene; phases: Liquid, Crystal
Fixed: Pressure, kPa = 100
Property: Mole fraction of 2-chloro-5-nitroaniline (Liquid); method: Chromatography
Temperature, K	Mole fraction of 2-chloro-5-nitroaniline	uncertainty
273.15	0.0118	0.0004
278.15	0.0134	0.0005
283.15	0.0153	0.0006
288.15	0.0174	0.0006
293.15	0.0199	0.0007
298.15	0.0231	0.0008
303.15	0.0268	0.001
308.15	0.0309	0.0011
313.15	0.0352	0.0013

System: 2-chloro-5-nitroaniline + N-methylpyrrolidone; phases: Liquid, Crystal
Fixed: Pressure, kPa = 100
Property: Mole fraction of 2-chloro-5-nitroaniline (Liquid); method: Chromatography
Temperature, K	Mole fraction of 2-chloro-5-nitroaniline	uncertainty
273.15	0.155	0.0056
278.15	0.1605	0.0058
283.15	0.1664	0.006
288.15	0.1729	0.0062
293.15	0.1794	0.0065
298.15	0.1862	0.0067
303.15	0.1931	0.007
308.15	0.201	0.0072
313.15	0.2092	0.0075

System: 2-chloro-5-nitroaniline + acetone; phases: Liquid, Crystal
Fixed: Pressure, kPa = 100
Property: Mole fraction of 2-chloro-5-nitroaniline (Liquid); method: Chromatography
Temperature, K	Mole fraction of 2-chloro-5-nitroaniline	uncertainty
273.15	0.1032	0.0037
278.15	0.1123	0.0041
283.15	0.1225	0.0044
288.15	0.1332	0.0048
293.15	0.1444	0.0052
298.15	0.1561	0.0056
303.15	0.1682	0.0061
308.15	0.1818	0.0066
313.15	0.1969	0.0071

System: 2-chloro-5-nitroaniline + butanone; phases: Liquid, Crystal
Fixed: Pressure, kPa = 100
Property: Mole fraction of 2-chloro-5-nitroaniline (Liquid); method: Chromatography
Temperature, K	Mole fraction of 2-chloro-5-nitroaniline	uncertainty
273.15	0.0877	0.0032
278.15	0.0973	0.0035
283.15	0.1079	0.0039
288.15	0.1186	0.0043
293.15	0.1296	0.0047
298.15	0.1409	0.0051
303.15	0.1529	0.0055
308.15	0.165	0.006
313.15	0.1787	0.0064

System: 2-chloro-5-nitroaniline + 1,4-dioxane; phases: Liquid, Crystal
Fixed: Pressure, kPa = 100
Property: Mole fraction of 2-chloro-5-nitroaniline (Liquid); method: Chromatography
Temperature, K	Mole fraction of 2-chloro-5-nitroaniline	uncertainty
288.15	0.1104	0.004
293.15	0.1194	0.0043
298.15	0.1297	0.0047
303.15	0.1417	0.0051
308.15	0.154	0.0056
313.15	0.1689	0.0061

System: 2-chloro-5-nitroaniline + ethyl acetate; phases: Liquid, Crystal
Fixed: Pressure, kPa = 100
Property: Mole fraction of 2-chloro-5-nitroaniline (Liquid); method: Chromatography
Temperature, K	Mole fraction of 2-chloro-5-nitroaniline	uncertainty
273.15	0.0765	0.0028
278.15	0.0836	0.003
283.15	0.0915	0.0033
288.15	0.0991	0.0036
293.15	0.1073	0.0039
298.15	0.1157	0.0042
303.15	0.1256	0.0045
308.15	0.1354	0.0049
313.15	0.145	0.0052

System: 2-chloro-5-nitroaniline + acetonitrile; phases: Liquid, Crystal
Fixed: Pressure, kPa = 100
Property: Mole fraction of 2-chloro-5-nitroaniline (Liquid); method: Chromatography
Temperature, K	Mole fraction of 2-chloro-5-nitroaniline	uncertainty
273.15	0.0222	0.0008
278.15	0.0277	0.001
283.15	0.0342	0.0012
288.15	0.0413	0.0015
293.15	0.0495	0.0018
298.15	0.0579	0.0021
303.15	0.0671	0.0024
308.15	0.077	0.0028
313.15	0.0877	0.0032
