Measured thermophysical data. Heat Capacities of Aqueous Solutions of K4Fe(CN)6, K3Fe(CN)6, K3Co(CN)6, K2Ni(CN)4, and KAg(CN)2 at 298.15 K
Source: J. Chem. Eng. Data, 2018, 10.1021/acs.jced.8b00078
Compound 1: potassium ferrocyanide, C6FeK4N6, InChI=1S/6CN.Fe.4K/c6*1-2;;;;;/q6*-1;+2;4*+1, purity 98.5%
Compound 2: potassium ferricyanide, C6FeK3N6, InChI=1S/6CN.Fe.3K/c6*1-2;;;;/q6*-1;+3;3*+1, purity 99.9%
Compound 3: potassium hexacyanocobaltate(III), C6CoK3N6, InChI=1S/6CN.Co.3K/c6*1-2;;;;/q;;;;;;-3;3*+1, purity 99.5%
Compound 4: potassium tetracyanonickelate(II), C4K2N4Ni, InChI=1S/4CN.2K.Ni/c4*1-2;;;/q;;;;2*+1;-2, purity 99%
Compound 5: potassium dicyanoargentate(I), C2AgKN2, InChI=1S/2CN.Ag.K/c2*1-2;;/q;;-1;+1, purity 95%
Compound 6: water, H2O, InChI=1S/H2O/h1H2, purity 99.9%

System: potassium ferrocyanide + water; phases: Liquid
Fixed: Temperature, K = 298.15
Fixed: Pressure, kPa = 100
Property: Molar heat capacity at constant pressure, J/K/mol (Liquid); method: Flow calorimetry
Molality, mol/kg of potassium ferrocyanide	Molar heat capacity at constant pressure, J/K/mol	uncertainty
0.02006	75.1906614445641	0.123364497858186
0.0301	75.1308155455672	0.123794990358346
0.04007	75.0777825360438	0.124222327423499
0.05002	75.0219922919467	0.124648654332162
0.05995	74.9726496507363	0.12323464896836
0.08023	74.8781494689901	0.124090034737993
0.09994	74.7995803304962	0.123056291485437
0.1202	74.709812342264	0.123896869555993
0.1499	74.6274783958291	0.123232123967403
0.1998	74.4525323836787	0.125266342374113
0.2497	74.35902688326	0.131213748088662
0.2998	74.2365580778101	0.13729087395789
0.3997	74.1854193890726	0.149794916477258

System: potassium ferrocyanide + water; phases: Liquid
Fixed: Temperature, K = 298.15
Fixed: Pressure, kPa = 100
Property: Mass density, kg/m3 (Liquid); method: Vibrating tube method
Molality, mol/kg of potassium ferrocyanide	Mass density, kg/m3	uncertainty
0.02006	1002	0.04
0.0301	1004.43	0.04
0.04007	1006.83	0.04
0.05002	1009.21	0.04
0.05995	1011.55	0.05
0.08023	1016.31	0.05
0.09994	1020.87	0.05
0.1202	1025.53	0.06
0.1499	1032.25	0.06
0.1998	1043.39	0.07
0.2497	1054.21	0.08
0.2998	1064.86	0.09
0.3997	1085.42	0.12

System: potassium ferricyanide + water; phases: Liquid
Fixed: Temperature, K = 298.15
Fixed: Pressure, kPa = 100
Property: Molar heat capacity at constant pressure, J/K/mol (Liquid); method: Flow calorimetry
Molality, mol/kg of potassium ferricyanide	Molar heat capacity at constant pressure, J/K/mol	uncertainty
0.01813	75.2557891850652	0.125006607134729
0.02721	75.2254623221233	0.12354082591664
0.03657	75.1947187098805	0.123897283069345
0.04528	75.1712596745452	0.124228878359761
0.05438	75.1444995592566	0.124575210152359
0.07277	75.1022178279679	0.123432482815921
0.09066	75.0542684097226	0.124102566225356
0.1085	75.0167747925493	0.124770347568473
0.1353	74.9736768212815	0.123895507403905
0.1809	74.8931074689809	0.123670756433294
0.2247	74.8256702569528	0.125255435660622
0.269	74.8019114645766	0.128807299015395
0.3997	74.7718230753537	0.141682302400378

System: potassium ferricyanide + water; phases: Liquid
Fixed: Temperature, K = 298.15
Fixed: Pressure, kPa = 100
Property: Mass density, kg/m3 (Liquid); method: Vibrating tube method
Molality, mol/kg of potassium ferricyanide	Mass density, kg/m3	uncertainty
0.01813	1000.29	0.04
0.02721	1001.9	0.04
0.03657	1003.55	0.04
0.04528	1005.07	0.04
0.05438	1006.65	0.04
0.07277	1009.82	0.04
0.09066	1012.87	0.04
0.1085	1015.89	0.05
0.1353	1020.38	0.05
0.1809	1027.9	0.06
0.2247	1034.97	0.06
0.269	1041.98	0.07
0.3997	1061.89	0.08

System: potassium hexacyanocobaltate(III) + water; phases: Liquid
Fixed: Temperature, K = 298.15
Fixed: Pressure, kPa = 100
Property: Molar heat capacity at constant pressure, J/K/mol (Liquid); method: Flow calorimetry
Molality, mol/kg of potassium hexacyanocobaltate(III)	Molar heat capacity at constant pressure, J/K/mol	uncertainty
0.02009	75.2570998586004	0.125090091786554
0.02953	75.2351563166707	0.123640355491653
0.04081	75.2090016790137	0.124074143336154
0.05018	75.1766439023603	0.124434345585914
0.06136	75.1589281981195	0.124863969057001
0.08045	75.11448821424	0.123750140413939
0.1012	75.0684634011646	0.124534801987719
0.1201	75.0222794362569	0.123379608362228
0.1513	74.9749390959558	0.12453995369927
0.2013	74.905407708789	0.124481668526354
0.2529	74.886098881324	0.126365431653324
0.3024	74.8547894573731	0.132112925916548
0.3567	74.8209712956333	0.136150982046698

System: potassium hexacyanocobaltate(III) + water; phases: Liquid
Fixed: Temperature, K = 298.15
Fixed: Pressure, kPa = 100
Property: Mass density, kg/m3 (Liquid); method: Vibrating tube method
Molality, mol/kg of potassium hexacyanocobaltate(III)	Mass density, kg/m3	uncertainty
0.02009	1000.75	0.04
0.02953	1002.49	0.04
0.04081	1004.54	0.04
0.05018	1006.23	0.04
0.06136	1008.23	0.04
0.08045	1011.63	0.04
0.1012	1015.28	0.05
0.1201	1018.6	0.05
0.1513	1024.01	0.05
0.2013	1032.52	0.06
0.2529	1041.15	0.07
0.3024	1049.26	0.07
0.3567	1057.98	0.08

System: potassium tetracyanonickelate(II) + water; phases: Liquid
Fixed: Temperature, K = 298.15
Fixed: Pressure, kPa = 100
Property: Molar heat capacity at constant pressure, J/K/mol (Liquid); method: Flow calorimetry
Molality, mol/kg of potassium tetracyanonickelate(II)	Molar heat capacity at constant pressure, J/K/mol	uncertainty
0.02009	75.2718738047214	0.124861988953884
0.03016	75.2458986164496	0.125140808516354
0.04015	75.2213056077651	0.12359967091939
0.05036	75.199452432762	0.123878067914141
0.06049	75.1662284821521	0.124154182437911
0.08047	75.1326707191382	0.12469848451103
0.1005	75.0744226835754	0.123401936159553
0.1206	75.0303565291554	0.123940677698555
0.1511	74.9866623705224	0.124757427896625
0.2004	74.9153256978331	0.124193999197654
0.2501	74.8802625937517	0.123599305939558
0.3004	74.8398065177172	0.122978012147836
0.3477	74.8454857813496	0.128060404976644
0.3973	74.8608954525548	0.129357745774803

System: potassium tetracyanonickelate(II) + water; phases: Liquid
Fixed: Temperature, K = 298.15
Fixed: Pressure, kPa = 100
Property: Mass density, kg/m3 (Liquid); method: Vibrating tube method
Molality, mol/kg of potassium tetracyanonickelate(II)	Mass density, kg/m3	uncertainty
0.02009	999.61	0.04
0.03016	1000.88	0.04
0.04015	1002.15	0.04
0.05036	1003.43	0.04
0.06049	1004.7	0.04
0.08047	1007.19	0.04
0.1005	1009.68	0.04
0.1206	1012.15	0.05
0.1511	1015.88	0.05
0.2004	1021.86	0.05
0.2501	1027.78	0.06
0.3004	1033.66	0.06
0.3477	1039.13	0.07
0.3973	1044.8	0.07

System: potassium dicyanoargentate(I) + water; phases: Liquid
Fixed: Temperature, K = 298.15
Fixed: Pressure, kPa = 100
Property: Molar heat capacity at constant pressure, J/K/mol (Liquid); method: Flow calorimetry
Molality, mol/kg of potassium dicyanoargentate(I)	Molar heat capacity at constant pressure, J/K/mol	uncertainty
0.02005	75.3456001957645	0.124756345112012
0.03005	75.3527460796596	0.124981117749489
0.04021	75.3615440963934	0.125209403868316
0.05015	75.3686714730954	0.123614801258333
0.06026	75.3812294811123	0.123838509970904
0.08034	75.3993219905409	0.124282588242517
0.1006	75.4159882334088	0.124730322263694
0.1207	75.4321807346645	0.125174198105256
0.1505	75.4601558281025	0.123981226623578
0.2	75.4982280821069	0.125055780896961
0.2507	75.5570753861862	0.124271505569385
0.2999	75.5944440398779	0.125319835894503
0.3503	75.6359293803956	0.124476792832837

System: potassium dicyanoargentate(I) + water; phases: Liquid
Fixed: Temperature, K = 298.15
Fixed: Pressure, kPa = 100
Property: Mass density, kg/m3 (Liquid); method: Vibrating tube method
Molality, mol/kg of potassium dicyanoargentate(I)	Mass density, kg/m3	uncertainty
0.02005	999.59	0.04
0.03005	1000.86	0.04
0.04021	1002.13	0.04
0.05015	1003.39	0.04
0.06026	1004.65	0.04
0.08034	1007.18	0.04
0.1006	1009.72	0.05
0.1207	1012.2	0.05
0.1505	1015.92	0.05
0.2	1022	0.06
0.2507	1028.17	0.07
0.2999	1034.12	0.08
0.3503	1040.16	0.09
