Measured thermophysical data. Isothermal Vapor-Liquid Equilibrium Data for Binary Systems of CHF3 or C2F6 with Methylcyclohexane or Toluene
Source: J. Chem. Eng. Data, 2018, 10.1021/acs.jced.8b00123
Compound 1: trifluoromethane, CHF3, InChI=1S/CHF3/c2-1(3)4/h1H
Compound 2: hexafluoroethane, C2F6, InChI=1S/C2F6/c3-1(4,5)2(6,7)8
Compound 3: methylcyclohexane, C7H14, InChI=1S/C7H14/c1-7-5-3-2-4-6-7/h7H,2-6H2,1H3, purity 99.6%
Compound 4: toluene, C7H8, InChI=1S/C7H8/c1-7-5-3-2-4-6-7/h2-6H,1H3, purity 99.5%

System: methylcyclohexane; phases: Liquid
Fixed: Pressure, kPa = 99.6
Property: Mass density, kg/m3 (Liquid); method: Vibrating tube method
Temperature, K	Mass density, kg/m3	uncertainty
293.2	768.85	0.17
295.2	767.19	0.17
296.7	765.9	0.17
297	765.61	0.17
297.2	765.51	0.17
298.2	764.67	0.17

System: methylcyclohexane; phases: Liquid
Fixed: Pressure, kPa = 99.5
Property: Refractive index (Na D-line) (Liquid); method: Standard Abbe refractometry
Temperature, K	Refractive index (Na D-line)	uncertainty
293.15	1.4231	0.0007
298.15	1.4206	0.0007

System: toluene; phases: Liquid
Fixed: Pressure, kPa = 99.6
Property: Mass density, kg/m3 (Liquid); method: Vibrating tube method
Temperature, K	Mass density, kg/m3	uncertainty
293.2	866.51	0.16
295.2	864.69	0.16
297.2	862.86	0.16
298.2	861.94	0.16
298.7	861.45	0.16

System: toluene; phases: Liquid
Fixed: Pressure, kPa = 99.5
Property: Refractive index (Na D-line) (Liquid); method: Standard Abbe refractometry
Temperature, K	Refractive index (Na D-line)	uncertainty
293.15	1.4966	0.0007
298.15	1.4937	0.0007

System: trifluoromethane + methylcyclohexane; phases: Liquid mixture 1, Gas
Property: Vapor or sublimation pressure, kPa (Liquid mixture 1); method: Closed cell (Static) method
Temperature, K	Mole fraction of trifluoromethane	Vapor or sublimation pressure, kPa	uncertainty
293.03	0.019	914	37
293.03	0.035	1509	34
293.03	0.055	2121	61
293.04	0.072	2625	55
293.04	0.09	3060	44
293.04	0.115	3553	60
293.03	0.133	3893	58
303.12	0.02	1011	42
303.13	0.034	1601	39
303.13	0.054	2311	36
303.13	0.073	2942	58
303.13	0.105	3784	50
303.13	0.133	4396	64
303.13	0.156	4848	80
313.23	0.016	931	82
313.23	0.029	1459	43
313.23	0.045	2159	81
313.23	0.063	2831	71
313.22	0.083	3489	65
313.22	0.101	4046	82
313.22	0.132	4819	75
313.23	0.154	5335	96
313.22	0.165	5598	129
313.23	0.173	5950	98
313.22	0.18	6077	76

System: trifluoromethane + methylcyclohexane; phases: Liquid mixture 2, Gas
Property: Vapor or sublimation pressure, kPa (Liquid mixture 2); method: Closed cell (Static) method
Temperature, K	Mole fraction of trifluoromethane	Vapor or sublimation pressure, kPa	uncertainty
293.03	0.898	3893	120
293.04	0.916	3910	18
293.04	0.933	3939	126
293.04	0.942	3960	520
293.04	0.972	4066	16
303.13	0.911	4848	18
303.13	0.913	4847	17
303.14	0.954	4973	17
303.14	0.973	5074	20
303.14	0.985	5112	18

System: trifluoromethane + methylcyclohexane; phases: Gas, Liquid mixture 1
Property: Mole fraction of trifluoromethane (Gas); method: Chromatography
Temperature, K	Mole fraction of trifluoromethane	Mole fraction of trifluoromethane	uncertainty
293.03	0.019	0.976	0.009
293.03	0.035	0.981	0.006
293.03	0.055	0.984	0.005
293.04	0.072	0.98	0.005
293.04	0.09	0.988	0.004
293.04	0.115	0.983	0.008
293.03	0.133	0.987	0.005
303.12	0.02	0.97	0.006
303.13	0.034	0.973	0.009
303.13	0.054	0.984	0.007
303.13	0.073	0.988	0.006
303.13	0.105	0.986	0.003
303.13	0.133	0.985	0.002
303.13	0.156	0.992	0.005
313.23	0.016	0.952	0.008
313.23	0.029	0.962	0.007
313.23	0.045	0.968	0.006
313.23	0.063	0.975	0.007
313.22	0.083	0.977	0.004
313.22	0.101	0.98	0.004
313.22	0.132	0.978	0.002
313.23	0.154	0.973	0.002
313.22	0.165	0.967	0.007
313.23	0.173	0.943	0.011
313.22	0.18	0.92	0.014

System: trifluoromethane + methylcyclohexane; phases: Gas, Liquid mixture 2
Property: Mole fraction of trifluoromethane (Gas); method: Chromatography
Temperature, K	Mole fraction of trifluoromethane	Mole fraction of trifluoromethane	uncertainty
293.03	0.898	0.987	0.013
293.04	0.916	0.989	0.003
293.04	0.933	0.989	0.011
293.04	0.942	0.994	0.004
293.04	0.972	0.994	0.002
303.13	0.911	0.992	0.007
303.13	0.913	0.99	0.004
303.14	0.954	0.985	0.002
303.14	0.973	0.989	0.005
303.14	0.985	0.996	0.003

System: trifluoromethane + toluene; phases: Liquid, Gas
Property: Vapor or sublimation pressure, kPa (Liquid); method: Closed cell (Static) method
Temperature, K	Mole fraction of trifluoromethane	Vapor or sublimation pressure, kPa	uncertainty
293.04	0.041	847	15
293.06	0.077	1376	25
293.05	0.135	1999	38
293.07	0.196	2481	24
293.07	0.306	2976	21
293.06	0.404	3199	14
293.07	0.538	3400	13
293.05	0.66	3487	13
293.05	0.74	3593	15
293.06	0.868	3790	15
293.06	0.958	4035	16
293.05	0.987	4114	15
303.1	0.038	908	20
303.1	0.065	1429	18
303.12	0.104	2000	22
303.13	0.231	3232	33
303.13	0.324	3680	22
303.13	0.44	3980	17
303.13	0.576	4198	16
303.12	0.713	4339	16
303.12	0.788	4460	18
303.12	0.914	4813	20
303.13	0.969	5037	19
313.24	0.029	834	23
313.23	0.066	1675	22
313.23	0.106	2397	31
313.23	0.171	3238	25
313.23	0.247	3960	32
313.23	0.346	4534	27
313.23	0.462	4886	21
313.22	0.565	5083	20
313.22	0.659	5213	20
313.22	0.767	5413	21
313.24	0.837	5605	21
313.26	0.898	5698	20

System: trifluoromethane + toluene; phases: Gas, Liquid
Property: Mole fraction of trifluoromethane (Gas); method: Chromatography
Temperature, K	Mole fraction of trifluoromethane	Mole fraction of trifluoromethane	uncertainty
293.04	0.041	0.977	0.004
293.06	0.077	0.981	0.003
293.05	0.135	0.987	0.005
293.07	0.196	0.988	0.004
293.07	0.306	0.988	0.003
293.06	0.404	0.988	0.003
293.07	0.538	0.992	0.002
293.05	0.66	0.992	0.002
293.05	0.74	0.991	0.004
293.06	0.868	0.994	0.003
293.06	0.958	0.998	0.002
293.05	0.987	0.998	0.001
303.1	0.038	0.965	0.002
303.1	0.065	0.977	0.003
303.12	0.104	0.984	0.003
303.13	0.231	0.986	0.002
303.13	0.324	0.987	0.003
303.13	0.44	0.987	0.002
303.13	0.576	0.987	0.004
303.12	0.713	0.989	0.002
303.12	0.788	0.988	0.003
303.12	0.914	0.994	0.002
303.13	0.969	0.997	0.003
313.24	0.029	0.94	0.005
313.23	0.066	0.974	0.002
313.23	0.106	0.98	0.002
313.23	0.171	0.979	0.002
313.23	0.247	0.98	0.004
313.23	0.346	0.979	0.002
313.23	0.462	0.977	0.002
313.22	0.565	0.976	0.003
313.22	0.659	0.976	0.003
313.22	0.767	0.973	0.002
313.24	0.837	0.967	0.004
313.26	0.898	0.967	0.005

System: hexafluoroethane + methylcyclohexane; phases: Liquid mixture 1, Gas
Property: Vapor or sublimation pressure, kPa (Liquid mixture 1); method: Closed cell (Static) method
Temperature, K	Mole fraction of hexafluoroethane	Vapor or sublimation pressure, kPa	uncertainty
293.11	0.03	941	112
293.1	0.038	1240	108
293.1	0.046	1517	54
293.1	0.061	1871	93
293.1	0.074	2164	67
293.12	0.088	2464	66
293.11	0.103	2737	164
293.11	0.102	2778	123
303.11	0.028	912	25
303.11	0.037	1129	66
303.11	0.041	1342	65
303.11	0.052	1667	52
303.1	0.065	1990	88
303.11	0.075	2337	94
303.12	0.086	2651	72
303.12	0.1	2966	200
303.12	0.107	3212	112
303.12	0.118	3384	68
303.12	0.121	3451	83
303.12	0.123	3486	54
313.14	0.029	962	67
313.14	0.038	1264	69
313.15	0.045	1516	55
313.14	0.064	1994	55
313.13	0.078	2416	85
313.14	0.093	2807	80
313.13	0.102	3057	88
313.14	0.112	3361	82
313.13	0.124	3656	111
313.13	0.128	3819	180
313.12	0.131	3972	334
313.12	0.134	4220	331

System: hexafluoroethane + methylcyclohexane; phases: Liquid mixture 2, Gas
Property: Vapor or sublimation pressure, kPa (Liquid mixture 2); method: Closed cell (Static) method
Temperature, K	Mole fraction of hexafluoroethane	Vapor or sublimation pressure, kPa	uncertainty
293.11	0.925	2778	18
293.11	0.941	2830	19
293.1	0.982	2928	1050
293.11	0.994	3010	17

System: hexafluoroethane + methylcyclohexane; phases: Gas, Liquid mixture 1
Property: Mole fraction of hexafluoroethane (Gas); method: Chromatography
Temperature, K	Mole fraction of hexafluoroethane	Mole fraction of hexafluoroethane	uncertainty
293.11	0.03	0.974	0.004
293.1	0.038	0.982	0.004
293.1	0.046	0.98	0.002
293.1	0.061	0.985	0.003
293.1	0.074	0.984	0.004
293.12	0.088	0.983	0.003
293.11	0.103	0.987	0.013
293.11	0.102	0.992	0.008
303.11	0.028	0.942	0.005
303.11	0.037	0.971	0.007
303.11	0.041	0.978	0.005
303.11	0.052	0.975	0.004
303.1	0.065	0.981	0.005
303.11	0.075	0.978	0.004
303.12	0.086	0.978	0.002
303.12	0.1	0.982	0.004
303.12	0.107	0.983	0.005
303.12	0.118	0.977	0.005
303.12	0.121	0.971	0.014
303.12	0.123	0.96	0.018
313.14	0.029	0.971	0.002
313.14	0.038	0.975	0.002
313.15	0.045	0.976	0.004
313.14	0.064	0.978	0.005
313.13	0.078	0.982	0.006
313.14	0.093	0.973	0.01
313.13	0.102	0.979	0.004
313.14	0.112	0.976	0.005
313.13	0.124	0.976	0.004
313.13	0.128	0.976	0.004
313.12	0.131	0.977	0.009
313.12	0.134	0.966	0.015

System: hexafluoroethane + methylcyclohexane; phases: Gas, Liquid mixture 2
Property: Mole fraction of hexafluoroethane (Gas); method: Chromatography
Temperature, K	Mole fraction of hexafluoroethane	Mole fraction of hexafluoroethane	uncertainty
293.11	0.925	0.992	0.004
293.11	0.941	0.995	0.002
293.1	0.982	0.994	0.006
293.11	0.994	0.998	0.002

System: hexafluoroethane + toluene; phases: Liquid mixture 1, Gas
Property: Vapor or sublimation pressure, kPa (Liquid mixture 1); method: Closed cell (Static) method
Temperature, K	Mole fraction of hexafluoroethane	Vapor or sublimation pressure, kPa	uncertainty
293.11	0.01	1007	239
293.11	0.016	1484	255
293.1	0.02	1861	272
293.1	0.026	2391	280
293.11	0.029	2708	378
293.11	0.03	2919	633
303.11	0.01	1026	245
303.11	0.017	1607	145
303.11	0.028	2345	378
303.11	0.03	2836	396
303.1	0.033	3344	360
303.1	0.034	3568	672
303.1	0.034	3807	926
313.11	0.01	1076	238
313.1	0.017	1630	292
313.1	0.027	2320	174
313.12	0.031	2907	437
313.11	0.036	3631	411
313.11	0.04	4137	380
313.11	0.04	4605	731

System: hexafluoroethane + toluene; phases: Liquid mixture 2, Gas
Property: Vapor or sublimation pressure, kPa (Liquid mixture 2); method: Closed cell (Static) method
Temperature, K	Mole fraction of hexafluoroethane	Vapor or sublimation pressure, kPa	uncertainty
293.11	0.997	2919	15

System: hexafluoroethane + toluene; phases: Gas, Liquid mixture 1
Property: Mole fraction of hexafluoroethane (Gas); method: Chromatography
Temperature, K	Mole fraction of hexafluoroethane	Mole fraction of hexafluoroethane	uncertainty
293.11	0.01	0.97	0.011
293.11	0.016	0.984	0.007
293.1	0.02	0.989	0.003
293.1	0.026	0.991	0.003
293.11	0.029	0.994	0.004
293.11	0.03	0.995	0.004
303.11	0.01	0.966	0.006
303.11	0.017	0.982	0.005
303.11	0.028	0.987	0.005
303.11	0.03	0.99	0.003
303.1	0.033	0.992	0.002
303.1	0.034	0.987	0.013
303.1	0.034	0.981	0.019
313.11	0.01	0.977	0.006
313.1	0.017	0.982	0.002
313.1	0.027	0.979	0.004
313.12	0.031	0.986	0.006
313.11	0.036	0.988	0.002
313.11	0.04	0.987	0.004
313.11	0.04	0.98	0.007

System: hexafluoroethane + toluene; phases: Gas, Liquid mixture 2
Property: Mole fraction of hexafluoroethane (Gas); method: Chromatography
Temperature, K	Mole fraction of hexafluoroethane	Mole fraction of hexafluoroethane	uncertainty
293.11	0.997	0.995	0.003
