Measured thermophysical data. Study on the Phase Equilibrium of Na+, K+//Cl-, CO32--H2O and Single-Salt of Potassium Separation with the Aid of Compressed CO2
Source: J. Chem. Eng. Data, 2019, 10.1021/acs.jced.9b00367
Compound 1: sodium carbonate, CNa2O3, InChI=1S/CH2O3.2Na/c2-1(3)4;;/h(H2,2,3,4);;/q;2*+1/p-2, purity 99.5%
Compound 2: potassium carbonate, CK2O3, InChI=1S/CH2O3.2K/c2-1(3)4;;/h(H2,2,3,4);;/q;2*+1/p-2, purity 99.5%
Compound 3: sodium chloride, ClNa, InChI=1S/ClH.Na/h1H;/q;+1/p-1, purity 99.5%
Compound 4: potassium chloride, ClK, InChI=1S/ClH.K/h1H;/q;+1/p-1, purity 99.5%
Compound 5: water, H2O, InChI=1S/H2O/h1H2, purity 99.9%

System: sodium chloride + sodium carbonate + water; phases: Liquid, Crystal
Property: Mass fraction of sodium carbonate (Liquid); method: Titration method
Mass fraction of sodium chloride	Pressure, kPa	Temperature, K	Mass fraction of sodium carbonate	uncertainty
0.1568	101	298.15	0.1662	0.0011

System: sodium chloride + sodium carbonate + water; phases: Liquid, Crystal of intercomponent compound 1
Property: Mass fraction of sodium carbonate (Liquid); method: Titration method
Mass fraction of sodium chloride	Pressure, kPa	Temperature, K	Mass fraction of sodium carbonate	uncertainty
0.1568	101	298.15	0.1662	0.0005

System: sodium chloride + sodium carbonate + water; phases: Liquid
Property: Mass density, kg/m3 (Liquid); method: Pycnometric method
Mass fraction of sodium chloride	Mass fraction of sodium carbonate	Temperature, K	Pressure, kPa	Mass density, kg/m3	uncertainty
0.1568	0.1662	298.15	101	1298.5	0.5

System: sodium chloride + potassium chloride + water; phases: Liquid, Crystal
Property: Mass fraction of potassium chloride (Liquid); method: Titration method
Mass fraction of sodium chloride	Pressure, kPa	Temperature, K	Mass fraction of potassium chloride	uncertainty
0.2163	101	298.15	0.0984	0.0003

System: sodium chloride + potassium chloride + water; phases: Liquid, Crystal
Property: Mass fraction of potassium chloride (Liquid); method: Titration method
Mass fraction of sodium chloride	Pressure, kPa	Temperature, K	Mass fraction of potassium chloride	uncertainty
0.2163	101	298.15	0.0984	0.0003

System: sodium chloride + potassium chloride + water; phases: Liquid
Property: Mass density, kg/m3 (Liquid); method: Pycnometric method
Mass fraction of sodium chloride	Mass fraction of potassium chloride	Temperature, K	Pressure, kPa	Mass density, kg/m3	uncertainty
0.2163	0.0984	298.15	100	1239.6	0.5

System: sodium carbonate + potassium carbonate + water; phases: Liquid, Crystal of intercomponent compound 1
Property: Mass fraction of potassium carbonate (Liquid); method: Titration method
Mass fraction of sodium carbonate	Pressure, kPa	Temperature, K	Mass fraction of potassium carbonate	uncertainty
0.1994	101	298.15	0.2238	0.0011

System: sodium carbonate + potassium carbonate + water; phases: Liquid, Crystal of intercomponent compound 2
Fixed: Pressure, kPa = 101
Fixed: Temperature, K = 298.15
Property: Mass fraction of potassium carbonate (Liquid); method: Titration method
Mass fraction of sodium carbonate	Mass fraction of potassium carbonate	uncertainty
0.1994	0.2238	0.0039
0.1335	0.4682	0.004

System: sodium carbonate + potassium carbonate + water; phases: Liquid, Crystal of intercomponent compound 3
Property: Mass fraction of potassium carbonate (Liquid); method: Titration method
Mass fraction of sodium carbonate	Pressure, kPa	Temperature, K	Mass fraction of potassium carbonate	uncertainty
0.1335	101	298.15	0.4682	0.0014

System: sodium carbonate + potassium carbonate + water; phases: Liquid
Fixed: Temperature, K = 298.15
Fixed: Pressure, kPa = 100
Property: Mass density, kg/m3 (Liquid); method: Pycnometric method
Mass fraction of sodium carbonate	Mass fraction of potassium carbonate	Mass density, kg/m3	uncertainty
0.1994	0.2238	1393.8	2.8
0.1335	0.4682	1572.4	2.8

System: potassium chloride + potassium carbonate + water; phases: Liquid, Crystal of intercomponent compound 1
Property: Mass fraction of potassium carbonate (Liquid); method: Titration method
Mass fraction of potassium chloride	Pressure, kPa	Temperature, K	Mass fraction of potassium carbonate	uncertainty
0.0219	101	298.15	0.5101	0.0015

System: potassium chloride + potassium carbonate + water; phases: Liquid
Property: Mass density, kg/m3 (Liquid); method: Pycnometric method
Mass fraction of potassium chloride	Mass fraction of potassium carbonate	Temperature, K	Pressure, kPa	Mass density, kg/m3	uncertainty
0.0219	0.5101	298.15	101	1566.5	0.6

System: potassium chloride + potassium carbonate + water; phases: Liquid, Crystal
Property: Mass fraction of potassium carbonate (Liquid); method: Titration method
Mass fraction of potassium chloride	Pressure, kPa	Temperature, K	Mass fraction of potassium carbonate	uncertainty
0.0219	101	298.15	0.5101	0.0015
