Measured thermophysical data. Measurement and Correlation of Vapor-Liquid Equilibrium for Binary Systems of Dimethyl Carbonate with Butyl Butyrate, o-Xylene, and Cyclohexanone at 101.3 kPa
Source: J. Chem. Eng. Data, 2019, 10.1021/acs.jced.9b00414
Compound 1: dimethyl carbonate, C3H6O3, InChI=1S/C3H6O3/c1-5-3(4)6-2/h1-2H3, purity 99.5%
Compound 2: ethanol, C2H6O, InChI=1S/C2H6O/c1-2-3/h3H,2H2,1H3, purity 99.7%
Compound 3: 1,2-dimethylbenzene, C8H10, InChI=1S/C8H10/c1-7-5-3-4-6-8(7)2/h3-6H,1-2H3, purity 99.5%
Compound 4: butyl butanoate, C8H16O2, InChI=1S/C8H16O2/c1-3-5-7-10-8(9)6-4-2/h3-7H2,1-2H3, purity 99%
Compound 5: cyclohexanone, C6H10O, InChI=1S/C6H10O/c7-6-4-2-1-3-5-6/h1-5H2, purity 99.5%

System: dimethyl carbonate; phases: Liquid, Gas
Property: Vapor or sublimation pressure, kPa (Liquid); method: Ebulliometric method (Recirculating still)
Temperature, K	Vapor or sublimation pressure, kPa	uncertainty
363.36	101.3	1.2

System: ethanol; phases: Liquid, Gas
Property: Vapor or sublimation pressure, kPa (Liquid); method: Ebulliometric method (Recirculating still)
Temperature, K	Vapor or sublimation pressure, kPa	uncertainty
351.45	101.3	1.2

System: 1,2-dimethylbenzene; phases: Liquid, Gas
Property: Vapor or sublimation pressure, kPa (Liquid); method: Ebulliometric method (Recirculating still)
Temperature, K	Vapor or sublimation pressure, kPa	uncertainty
417.43	101.3	1.2

System: butyl butanoate; phases: Liquid, Gas
Property: Vapor or sublimation pressure, kPa (Liquid); method: Ebulliometric method (Recirculating still)
Temperature, K	Vapor or sublimation pressure, kPa	uncertainty
438.28	101.3	1.2

System: cyclohexanone; phases: Liquid, Gas
Property: Vapor or sublimation pressure, kPa (Liquid); method: Ebulliometric method (Recirculating still)
Temperature, K	Vapor or sublimation pressure, kPa	uncertainty
428.57	101.3	1.2

System: ethanol + dimethyl carbonate; phases: Liquid, Gas
Fixed: Pressure, kPa = 101.3
Property: Boiling temperature at pressure P, K (Liquid); method: Ebulliometric method (Recirculating still)
Mole fraction of ethanol	Boiling temperature at pressure P, K	uncertainty
0.9807	350.93	0.3
0.9641	350.51	0.29
0.9385	350.03	0.28
0.9276	349.86	0.27
0.8994	349.5	0.27
0.8674	349.2	0.26
0.8291	348.96	0.26
0.7892	348.8	0.26
0.6996	348.69	0.26
0.6566	348.76	0.26
0.6079	348.89	0.26
0.5397	349.18	0.26
0.4971	349.44	0.26
0.4581	349.72	0.26
0.3601	350.77	0.27
0.2403	352.88	0.3
0.1076	357.09	0.34
0.0647	359.18	0.42
0.0294	361.26	0.46
0.0141	362.31	0.51
1	351.45	0.26
0	363.36	0.26

System: ethanol + dimethyl carbonate; phases: Gas, Liquid
Fixed: Pressure, kPa = 101.3
Property: Mole fraction of ethanol (Gas); method: Chromatography
Mole fraction of ethanol	Mole fraction of ethanol	uncertainty
0.9807	0.9622	0.0129
0.9641	0.9319	0.0118
0.9385	0.8936	0.0111
0.9276	0.8783	0.0097
0.8994	0.8468	0.009
0.8674	0.8161	0.0084
0.8291	0.7861	0.0079
0.7892	0.7598	0.0075
0.6996	0.7098	0.0076
0.6566	0.6867	0.0075
0.6079	0.6656	0.0075
0.5397	0.6329	0.0077
0.4971	0.6112	0.0078
0.4581	0.5913	0.0081
0.3601	0.5324	0.0087
0.2403	0.4356	0.0099
0.1076	0.2627	0.0111
0.0647	0.1774	0.0151
0.0294	0.0896	0.0172
0.0141	0.0455	0.0189

System: dimethyl carbonate + 1,2-dimethylbenzene; phases: Liquid, Gas
Fixed: Pressure, kPa = 101.3
Property: Boiling temperature at pressure P, K (Liquid); method: Ebulliometric method (Recirculating still)
Mole fraction of dimethyl carbonate	Boiling temperature at pressure P, K	uncertainty
0.8857	364.68	0.27
0.7756	366.36	0.28
0.5892	369.38	0.28
0.4323	372.39	0.29
0.3304	375.42	0.34
0.2627	378.39	0.4
0.2105	381.38	0.49
0.1738	384.4	0.62
0.1451	387.39	0.76
0.1219	390.41	0.9
0.1019	393.4	1.01
0.0839	396.41	1.15
0.0687	399.42	1.29
0.0546	402.4	1.37
0.041	405.41	1.5
0.0294	408.43	1.69
0.0187	411.42	1.85
0.0091	414.43	2.01
1	363.36	0.26
0	417.43	0.26

System: dimethyl carbonate + 1,2-dimethylbenzene; phases: Gas, Liquid
Fixed: Pressure, kPa = 101.3
Property: Mole fraction of dimethyl carbonate (Gas); method: Chromatography
Mole fraction of dimethyl carbonate	Mole fraction of dimethyl carbonate	uncertainty
0.8857	0.9432	0.0067
0.7756	0.9002	0.0066
0.5892	0.8513	0.0066
0.4323	0.8143	0.0067
0.3304	0.7785	0.0071
0.2627	0.7421	0.0077
0.2105	0.7052	0.0087
0.1738	0.6649	0.0105
0.1451	0.6222	0.0128
0.1219	0.5759	0.0155
0.1019	0.5267	0.0183
0.0839	0.4734	0.0212
0.0687	0.4201	0.0247
0.0546	0.3619	0.0286
0.041	0.2961	0.0332
0.0294	0.2295	0.0389
0.0187	0.1582	0.045
0.0091	0.0835	0.0486

System: dimethyl carbonate + butyl butanoate; phases: Liquid, Gas
Fixed: Pressure, kPa = 101.3
Property: Boiling temperature at pressure P, K (Liquid); method: Ebulliometric method (Recirculating still)
Mole fraction of dimethyl carbonate	Boiling temperature at pressure P, K	uncertainty
0.9032	365.14	0.29
0.7971	367.52	0.29
0.5801	371.68	0.29
0.4194	375.84	0.33
0.3305	380.01	0.42
0.2662	384.17	0.53
0.2206	388.33	0.67
0.1824	392.49	0.81
0.1541	396.66	0.97
0.1269	400.82	1.05
0.1036	404.98	1.22
0.0839	409.14	1.43
0.0669	413.3	1.63
0.0518	417.47	1.84
0.0386	421.63	2.07
0.0267	425.79	2.35
0.0166	429.95	2.71
0.0076	434.12	3.11
1	363.36	0.26
0	438.28	0.26

System: dimethyl carbonate + butyl butanoate; phases: Gas, Liquid
Fixed: Pressure, kPa = 101.3
Property: Mole fraction of dimethyl carbonate (Gas); method: Chromatography
Mole fraction of dimethyl carbonate	Mole fraction of dimethyl carbonate	uncertainty
0.9032	0.9729	0.0063
0.7971	0.9545	0.0063
0.5801	0.9239	0.0063
0.4194	0.9003	0.0064
0.3305	0.8761	0.0067
0.2662	0.8468	0.0073
0.2206	0.8141	0.0083
0.1824	0.7767	0.0095
0.1541	0.7403	0.0114
0.1269	0.6947	0.0137
0.1036	0.6442	0.0167
0.0839	0.5896	0.0207
0.0669	0.5296	0.0258
0.0518	0.4619	0.032
0.0386	0.3873	0.0401
0.0267	0.3018	0.0502
0.0166	0.2101	0.0632
0.0076	0.1077	0.0708

System: dimethyl carbonate + cyclohexanone; phases: Liquid, Gas
Fixed: Pressure, kPa = 101.3
Property: Boiling temperature at pressure P, K (Liquid); method: Ebulliometric method (Recirculating still)
Mole fraction of dimethyl carbonate	Boiling temperature at pressure P, K	uncertainty
0.9241	364.99	0.29
0.8302	366.98	0.29
0.6731	370.6	0.3
0.5339	374.22	0.31
0.4217	377.84	0.34
0.328	381.47	0.38
0.2642	385.09	0.48
0.2163	388.71	0.57
0.1768	392.34	0.67
0.1442	395.96	0.81
0.1187	399.58	0.99
0.0971	403.2	1.1
0.0766	406.83	1.24
0.06	410.46	1.43
0.0447	414.07	1.59
0.0315	417.69	1.84
0.0201	421.32	2.03
0.0092	424.94	2.25
1	363.36	0.26
0	428.57	0.26

System: dimethyl carbonate + cyclohexanone; phases: Gas, Liquid
Fixed: Pressure, kPa = 101.3
Property: Mole fraction of dimethyl carbonate (Gas); method: Chromatography
Mole fraction of dimethyl carbonate	Mole fraction of dimethyl carbonate	uncertainty
0.9241	0.9764	0.0064
0.8302	0.9521	0.0064
0.6731	0.9144	0.0064
0.5339	0.8809	0.0065
0.4217	0.8475	0.0067
0.328	0.813	0.007
0.2642	0.7766	0.0078
0.2163	0.7364	0.0089
0.1768	0.6944	0.0103
0.1442	0.6469	0.0124
0.1187	0.598	0.0154
0.0971	0.5431	0.0188
0.0766	0.4806	0.0225
0.06	0.4159	0.0276
0.0447	0.3433	0.0331
0.0315	0.2668	0.0398
0.0201	0.1871	0.0481
0.0092	0.0951	0.0527
