Measured thermophysical data. Vapor Liquid Equilibria of Nitrogen + Diethyl Ether and Nitrogen + 1,1,1,2,2,4,5,5,5-Nonafluoro-4-(trifluoromethyl)-3-pentanone by Experiment, Peng Robinson and PC-SAFT Equations of State
Source: J. Chem. Eng. Data, 2017, 10.1021/acs.jced.7b00217
Compound 1: nitrogen, N2, InChI=1S/N2/c1-2
Compound 2: diethyl ether, C4H10O, InChI=1S/C4H10O/c1-3-5-4-2/h3-4H2,1-2H3
Compound 3: dodecafluoro-2-methylpentan-3-one, C6F12O, InChI=1S/C6F12O/c7-2(4(10,11)12,5(13,14)15)1(19)3(8,9)6(16,17)18

System: nitrogen + diethyl ether; phases: Liquid, Gas
Property: Mole fraction of nitrogen (Liquid); method: Phase equilibration
Temperature, K	Pressure, kPa	Mole fraction of nitrogen	uncertainty
390	3550	0.047	0.005
390	6430	0.096	0.008
390	9020	0.143	0.012
390	10200	0.164	0.014
390	11240	0.182	0.014
390	14220	0.235	0.018
390	19270	0.33	0.02
390	22670	0.44	0.02
390	24000	0.52	0.02
390	24390	0.62	0.04
420	4010	0.052	0.007
420	6620	0.106	0.01
420	8930	0.161	0.015
420	9970	0.186	0.014
420	10730	0.208	0.016
420	11640	0.227	0.017
420	14500	0.32	0.02
420	15520	0.38	0.02
420	16070	0.44	0.03
420	16250	0.49	0.04
450	4310	0.056	0.008
450	5180	0.089	0.009
450	6140	0.121	0.011
450	7640	0.184	0.016
450	7910	0.2	0.023
450	8790	0.31	0.03

System: nitrogen + dodecafluoro-2-methylpentan-3-one; phases: Liquid, Gas
Property: Mole fraction of nitrogen (Liquid); method: Phase equilibration
Temperature, K	Pressure, kPa	Mole fraction of nitrogen	uncertainty
360	2200	0.078	0.006
360	4120	0.144	0.009
360	5490	0.195	0.013
360	7110	0.259	0.017
360	10480	0.36	0.02
360	13430	0.45	0.02
360	15680	0.52	0.04
360	17610	0.58	0.04
360	18590	0.66	0.04
390	2450	0.086	0.008
390	4360	0.159	0.012
390	5670	0.219	0.015
390	8650	0.33	0.02
390	10230	0.4	0.02
390	12330	0.53	0.06
390	12800	0.67	0.06
420	2900	0.102	0.01
420	4510	0.19	0.015
420	5680	0.282	0.022
420	6620	0.41	0.03
