Measured thermophysical data. Solid + Liquid Equilibria for the Systems CsBr + ErBr3 + H2O and CsBr + ErBr3 + HBr (~12.3%) + H2O at 298.15 K and Atmospheric Pressure and Thermodynamic and Fluorescent Properties of the New Solid-Phase Compound
Source: J. Chem. Eng. Data, 2015, 10.1021/acs.jced.5b00139
Compound 1: cesium bromide, BrCs, InChI=1S/BrH.Cs/h1H;/q;+1/p-1, purity 99.5%
Compound 2: erbium bromide (ErBr3), Br3Er, InChI=1S/3BrH.Er/h3*1H;/q;;;+3/p-3, purity 99.8%
Compound 3: water, H2O, InChI=1S/H2O/h1H2

System: water + cesium bromide + erbium bromide (ErBr3); phases: Liquid, Crystal
Fixed: Pressure, kPa = 100
Fixed: Temperature, K = 298.15
Property: Mass fraction of cesium bromide (Liquid); method: Titration method
Mass fraction of erbium bromide (ErBr3)	Mass fraction of cesium bromide	uncertainty
0	0.5551	0.0071
0.0594	0.4931	0.0079
0.118	0.4297	0.0078
0.1895	0.3568	0.0077
0.2484	0.3065	0.0076
0.3	0.2592	0.0075
0.3536	0.2176	0.0073
0.409	0.1865	0.0072
0.4416	0.1708	0.0072
0.4659	0.1609	0.0071
0.4987	0.1511	0.0071
0.548	0.1407	0.007
0.5556	0.142	0.007

System: water + cesium bromide + erbium bromide (ErBr3); phases: Liquid, Crystal of intercomponent compound 1
Fixed: Pressure, kPa = 100
Fixed: Temperature, K = 298.15
Property: Mass fraction of cesium bromide (Liquid); method: Titration method
Mass fraction of erbium bromide (ErBr3)	Mass fraction of cesium bromide	uncertainty
0.5593	0.1417	0.0081
0.5744	0.1224	0.0079
0.5872	0.1094	0.0077
0.5875	0.1089	0.0077
0.5989	0.0983	0.0076

System: water + cesium bromide + erbium bromide (ErBr3); phases: Liquid, Crystal of intercomponent compound 2
Fixed: Pressure, kPa = 100
Fixed: Temperature, K = 298.15
Property: Mass fraction of cesium bromide (Liquid); method: Titration method
Mass fraction of erbium bromide (ErBr3)	Mass fraction of cesium bromide	uncertainty
0.6173	0.0722	0.0089
0.6338	0.0439	0.0089
0.6448	0.0247	0.0092
0.6573	0	

System: water + cesium bromide + erbium bromide (ErBr3); phases: Liquid, Crystal of intercomponent compound 1, Crystal
Property: Mass fraction of cesium bromide (Liquid); method: Titration method
Temperature, K	Pressure, kPa	Mass fraction of cesium bromide	uncertainty
298.15	100	0.1448	0.007

System: water + cesium bromide + erbium bromide (ErBr3); phases: Liquid, Crystal of intercomponent compound 1, Crystal
Property: Mass fraction of erbium bromide (ErBr3) (Liquid); method: Titration method
Temperature, K	Pressure, kPa	Mass fraction of erbium bromide (ErBr3)	uncertainty
298.15	100	0.5552	0.0034

System: water + cesium bromide + erbium bromide (ErBr3); phases: Liquid, Crystal of intercomponent compound 2, Crystal of intercomponent compound 1
Property: Mass fraction of cesium bromide (Liquid); method: Titration method
Temperature, K	Pressure, kPa	Mass fraction of cesium bromide	uncertainty
298.15	100	0.0831	0.007

System: water + cesium bromide + erbium bromide (ErBr3); phases: Liquid, Crystal of intercomponent compound 2, Crystal of intercomponent compound 1
Property: Mass fraction of erbium bromide (ErBr3) (Liquid); method: Titration method
Temperature, K	Pressure, kPa	Mass fraction of erbium bromide (ErBr3)	uncertainty
298.15	100	0.6134	0.0035
