Measured thermophysical data. Liquid-Liquid Equilibria for Ternary Systems of Water + Methoxycyclopentane (CPME) + Alcohol; Methanol, Ethanol, 1-Propanol, or 2-Propanol
Source: J. Chem. Eng. Data, 2016, 10.1021/acs.jced.5b00803
Compound 1: water, H2O, InChI=1S/H2O/h1H2, purity 99.9%
Compound 2: methanol, CH4O, InChI=1S/CH4O/c1-2/h2H,1H3, purity 99.9%
Compound 3: ethanol, C2H6O, InChI=1S/C2H6O/c1-2-3/h3H,2H2,1H3, purity 99.5%
Compound 4: propan-1-ol, C3H8O, InChI=1S/C3H8O/c1-2-3-4/h4H,2-3H2,1H3, purity 99.9%
Compound 5: propan-2-ol, C3H8O, InChI=1S/C3H8O/c1-3(2)4/h3-4H,1-2H3, purity 99.9%
Compound 6: methoxycyclopentane, C6H12O, InChI=1S/C6H12O/c1-7-6-4-2-3-5-6/h6H,2-5H2,1H3, purity 99.9%

System: methanol + methoxycyclopentane + water; phases: Liquid mixture 1, Liquid mixture 2
Fixed: Pressure, kPa = 100
Fixed: Temperature, K = 298.15
Property: Mass fraction of methoxycyclopentane (Liquid mixture 1); method: Titration method
Mass fraction of methanol	Mass fraction of methoxycyclopentane	uncertainty
0	0.9934	0.006
0.1027	0.853	0.0114
0.1867	0.7183	0.2817
0.2622	0.5919	0.0176
0.3204	0.4641	0.0144
0.3734	0.3522	0.2479
0	0.0131	0.006
0.0984	0.0193	0.0115
0.1986	0.0318	0.0318
0.2851	0.0407	0.0085
0.3669	0.0839	0.0839
0.4085	0.1836	0.0299

System: methanol + methoxycyclopentane + water; phases: Liquid mixture 2, Liquid mixture 1
Fixed: Temperature, K = 298.15
Fixed: Pressure, kPa = 100
Property: Mass fraction of methanol (Liquid mixture 2); method: Chromatography
Property: Mass fraction of water (Liquid mixture 1); method: Chromatography
Property: Mass fraction of methanol (Liquid mixture 1); method: Chromatography
Mass fraction of water	Mass fraction of methanol	uncertainty	Mass fraction of water	uncertainty	Mass fraction of methanol	uncertainty
0.4398	0.396	0.0106	0.0571	0.012	0.1144	
0.5444	0.3616	0.0109	0.0307	0.0113	0.0678	
0.6872	0.2675	0.013	0.0147	0.0108	0.0316	
0.812	0.1603	0.0135	0.0087	0.0087	0.0135	
0.3767	0.3985	0.0104	0.087	0.01	0.1526	
0.5719	0.3471	0.012	0.0264	0.0113	0.0586	
0.653	0.2946	0.0123	0.0174	0.0108	0.0381	
0.729	0.2335	0.0133	0.0122	0.0106	0.0244	
0.9296	0.0519	0.01	0.0042	0.0042	0.0028	

System: ethanol + methoxycyclopentane + water; phases: Liquid mixture 1, Liquid mixture 2
Fixed: Pressure, kPa = 100
Fixed: Temperature, K = 298.15
Property: Mass fraction of methoxycyclopentane (Liquid mixture 1); method: Titration method
Mass fraction of ethanol	Mass fraction of methoxycyclopentane	uncertainty
0	0.9934	0.006
0.1067	0.8616	0.1384
0.186	0.7345	0.2655
0.2557	0.5898	0.0185
0.311	0.467	0.0336
0.336	0.3362	0.0333
0	0.0057	0.0057
0.1001	0.0223	0.0223
0.1935	0.0329	0.0329
0.279	0.068	0.0102
0.3383	0.1533	0.0693
0.338	0.3226	0.0339

System: ethanol + methoxycyclopentane + water; phases: Liquid mixture 2, Liquid mixture 1
Fixed: Temperature, K = 298.15
Fixed: Pressure, kPa = 100
Property: Mass fraction of ethanol (Liquid mixture 2); method: Chromatography
Property: Mass fraction of water (Liquid mixture 1); method: Chromatography
Property: Mass fraction of ethanol (Liquid mixture 1); method: Chromatography
Mass fraction of water	Mass fraction of ethanol	uncertainty	Mass fraction of water	uncertainty	Mass fraction of ethanol	uncertainty
0.5818	0.3147	0.0102	0.1585	0.0101	0.25	
0.6449	0.2845	0.0114	0.0986	0.0131	0.1919	
0.6866	0.2616	0.012	0.0745	0.0119	0.149	
0.7315	0.2301	0.0122	0.0411	0.0115	0.1013	
0.832	0.1428	0.014	0.0145	0.0105	0.0361	
0.9011	0.0763	0.01	0.0085	0.0085	0.0152	
0.8077	0.1669	0.0136	0.0198	0.0108	0.0511	
0.7485	0.2194	0.0132	0.0368	0.0115	0.0918	

System: propan-1-ol + methoxycyclopentane + water; phases: Liquid mixture 1, Liquid mixture 2
Fixed: Pressure, kPa = 100
Fixed: Temperature, K = 298.15
Property: Mass fraction of methoxycyclopentane (Liquid mixture 1); method: Titration method
Mass fraction of propan-1-ol	Mass fraction of methoxycyclopentane	uncertainty
0	0.9869	0.006
0.0984	0.8632	0.0104
0.1876	0.7499	0.2501
0.2763	0.6443	0.3557
0.3494	0.5229	0.2527
0.4034	0.4031	0.0181
0	0.013	0.006
0.1042	0.0222	0.0113
0.1953	0.0381	0.0381
0.2833	0.0541	0.0541
0.3594	0.1024	0.1024
0.4202	0.1576	0.088

System: propan-1-ol + methoxycyclopentane + water; phases: Liquid mixture 2, Liquid mixture 1
Fixed: Temperature, K = 298.15
Fixed: Pressure, kPa = 100
Property: Mass fraction of propan-1-ol (Liquid mixture 2); method: Chromatography
Property: Mass fraction of water (Liquid mixture 1); method: Chromatography
Property: Mass fraction of propan-1-ol (Liquid mixture 1); method: Chromatography
Mass fraction of water	Mass fraction of propan-1-ol	uncertainty	Mass fraction of water	uncertainty	Mass fraction of propan-1-ol	uncertainty
0.8234	0.1541	0.0101	0.2038	0.0101	0.4071	
0.8408	0.1372	0.0138	0.1579	0.0141	0.368	
0.8538	0.1245	0.014	0.1225	0.0117	0.3211	
0.8538	0.1247	0.0141	0.1253	0.0118	0.3211	
0.8747	0.1044	0.0141	0.0798	0.011	0.24	
0.9096	0.07	0.0138	0.0343	0.0103	0.1057	
0.8304	0.1478	0.0101	0.1953	0.0101	0.4022	
0.8418	0.1368	0.0139	0.1619	0.014	0.3719	
0.8518	0.1274	0.014	0.136	0.0126	0.3416	
0.8636	0.1156	0.0142	0.1045	0.0113	0.2899	
0.9338	0.0472	0.01	0.0211	0.01	0.0504	
0.9031	0.0758	0.0139	0.0379	0.0104	0.1196	
0.8934	0.0857	0.0141	0.0472	0.0105	0.1518	
0.8848	0.0945	0.0142	0.0647	0.0107	0.2027	

System: propan-2-ol + methoxycyclopentane + water; phases: Liquid mixture 1, Liquid mixture 2
Fixed: Pressure, kPa = 100
Fixed: Temperature, K = 298.15
Property: Mass fraction of methoxycyclopentane (Liquid mixture 1); method: Titration method
Mass fraction of propan-2-ol	Mass fraction of methoxycyclopentane	uncertainty
0	0.9901	0.006
0.0974	0.8767	0.1233
0.2018	0.7258	0.0262
0.2668	0.6195	0.2114
0.3352	0.5028	0.0232
0.3898	0.3849	0.1195
0	0.0101	0.006
0.1092	0.0223	0.0223
0.2	0.0296	0.0223
0.2824	0.0708	0.008
0.3491	0.1285	0.0072
0.3988	0.2066	0.1192

System: propan-2-ol + methoxycyclopentane + water; phases: Liquid mixture 2, Liquid mixture 1
Fixed: Temperature, K = 298.15
Fixed: Pressure, kPa = 100
Property: Mass fraction of propan-2-ol (Liquid mixture 2); method: Chromatography
Property: Mass fraction of water (Liquid mixture 1); method: Chromatography
Property: Mass fraction of propan-2-ol (Liquid mixture 1); method: Chromatography
Mass fraction of water	Mass fraction of propan-2-ol	uncertainty	Mass fraction of water	uncertainty	Mass fraction of propan-2-ol	uncertainty
0.7573	0.2067	0.0124	0.158	0.0145	0.3387	
0.7827	0.1872	0.0132	0.122	0.01	0.2947	
0.814	0.1605	0.0135	0.0816	0.0111	0.2149	
0.8691	0.1096	0.0137	0.0258	0.0106	0.0861	
0.7342	0.2235	0.0126	0.1866	0.0225	0.3535	
0.7692	0.1987	0.0125	0.137	0.0128	0.3085	
0.7803	0.1896	0.0132	0.122	0.0116	0.2887	
0.8153	0.1594	0.0135	0.0742	0.0111	0.2082	
0.8729	0.1054	0.0137	0.0247	0.0106	0.0815	
0.9289	0.0532	0.01	0.0121	0.01	0.0214	
0.7088	0.2431	0.0101	0.2537	0.0102	0.3863	

System: methoxycyclopentane + water; phases: Liquid mixture 1, Liquid mixture 2
Fixed: Pressure, kPa = 100
Fixed: Temperature, K = 298.15
Property: Mass fraction of methoxycyclopentane (Liquid mixture 1); method: Titration method
Mass fraction of methoxycyclopentane	uncertainty
0.9934	0.006
0.0131	0.006
0.9934	0.006
0.0057	0.0057
0.9869	0.006
0.013	0.006
0.9901	0.006
0.0101	0.006
