Measured thermophysical data. Solubility and Thermodynamic Modeling of Sulfanilamide in 12 Mono Solvents and 4 Binary Solvent Mixtures from 278.15 to 318.15 K
Source: J. Chem. Eng. Data, 2019, 10.1021/acs.jced.9b00411
Compound 1: 4-aminobenzenesulfonamide, C6H8N2O2S, InChI=1S/C6H8N2O2S/c7-5-1-3-6(4-2-5)11(8,9)10/h1-4H,7H2,(H2,8,9,10), purity 99.5%
Compound 2: acetone, C3H6O, InChI=1S/C3H6O/c1-3(2)4/h1-2H3, purity 99%
Compound 3: methanol, CH4O, InChI=1S/CH4O/c1-2/h2H,1H3, purity 99%
Compound 4: ethanol, C2H6O, InChI=1S/C2H6O/c1-2-3/h3H,2H2,1H3, purity 99.9%
Compound 5: propan-1-ol, C3H8O, InChI=1S/C3H8O/c1-2-3-4/h4H,2-3H2,1H3, purity 98%
Compound 6: propan-2-ol, C3H8O, InChI=1S/C3H8O/c1-3(2)4/h3-4H,1-2H3, purity 99.5%
Compound 7: butan-2-ol, C4H10O, InChI=1S/C4H10O/c1-3-4(2)5/h4-5H,3H2,1-2H3, purity 99%
Compound 8: butan-1-ol, C4H10O, InChI=1S/C4H10O/c1-2-3-4-5/h5H,2-4H2,1H3, purity 99.5%
Compound 9: benzene, C6H6, InChI=1S/C6H6/c1-2-4-6-5-3-1/h1-6H, purity 99.7%
Compound 10: water, H2O, InChI=1S/H2O/h1H2, purity 99.9%
Compound 11: octan-1-ol, C8H18O, InChI=1S/C8H18O/c1-2-3-4-5-6-7-8-9/h9H,2-8H2,1H3, purity 99%
Compound 12: ethyl acetate, C4H8O2, InChI=1S/C4H8O2/c1-3-6-4(2)5/h3H2,1-2H3, purity 99%
Compound 13: toluene, C7H8, InChI=1S/C7H8/c1-7-5-3-2-4-6-7/h2-6H,1H3, purity 99.5%

System: 4-aminobenzenesulfonamide; phases: Crystal, Liquid, Air at 1 atmosphere
Property: Triple point temperature, K (Crystal); method: DSC
Triple point temperature, K	uncertainty
437.78	1.22

System: 4-aminobenzenesulfonamide + acetone; phases: Liquid, Crystal
Fixed: Pressure, kPa = 101.3
Property: Mole fraction of 4-aminobenzenesulfonamide (Liquid); method: gravimetric
Temperature, K	Mole fraction of 4-aminobenzenesulfonamide	uncertainty
278.15	0.0831505	0.0332607
283.15	0.0856947	0.0342784
288.15	0.0883618	0.0353453
293.15	0.0911962	0.036479
298.15	0.0941789	0.0376721
303.15	0.0975483	0.0390199
308.15	0.1007898	0.0403166
313.15	0.1053312	0.0421332
318.15	0.1103777	0.0441518

System: 4-aminobenzenesulfonamide + methanol; phases: Liquid, Crystal
Fixed: Pressure, kPa = 101.3
Property: Mole fraction of 4-aminobenzenesulfonamide (Liquid); method: gravimetric
Temperature, K	Mole fraction of 4-aminobenzenesulfonamide	uncertainty
278.15	0.0112488	0.0044998
283.15	0.013639	0.0054559
288.15	0.0164602	0.0065845
293.15	0.0198649	0.0079464
298.15	0.0238486	0.00954
303.15	0.0285645	0.0114264
308.15	0.0342927	0.0137178
313.15	0.0407646	0.0163067
318.15	0.0485986	0.0194403

System: 4-aminobenzenesulfonamide + ethanol; phases: Liquid, Crystal
Fixed: Pressure, kPa = 101.3
Property: Mole fraction of 4-aminobenzenesulfonamide (Liquid); method: gravimetric
Temperature, K	Mole fraction of 4-aminobenzenesulfonamide	uncertainty
278.15	0.0054737	0.0021896
283.15	0.0065561	0.0026226
288.15	0.0078984	0.0031595
293.15	0.0095266	0.0038109
298.15	0.0115306	0.0046125
303.15	0.01394	0.0055763
308.15	0.0169119	0.0067652
313.15	0.020517	0.0082073
318.15	0.0249201	0.0099686

System: 4-aminobenzenesulfonamide + propan-1-ol; phases: Liquid, Crystal
Fixed: Pressure, kPa = 101.3
Property: Mole fraction of 4-aminobenzenesulfonamide (Liquid); method: gravimetric
Temperature, K	Mole fraction of 4-aminobenzenesulfonamide	uncertainty
278.15	0.000982	0.0003929
283.15	0.0012931	0.0005173
288.15	0.0017499	0.0007
293.15	0.0022988	0.0009196
298.15	0.0029925	0.0011971
303.15	0.0036455	0.0014583
308.15	0.0044367	0.0017748
313.15	0.0053654	0.0021463
318.15	0.0061457	0.0024584

System: 4-aminobenzenesulfonamide + propan-2-ol; phases: Liquid, Crystal
Fixed: Pressure, kPa = 101.3
Property: Mole fraction of 4-aminobenzenesulfonamide (Liquid); method: gravimetric
Temperature, K	Mole fraction of 4-aminobenzenesulfonamide	uncertainty
278.15	0.0002023	8.1e-05
283.15	0.0003642	0.0001457
288.15	0.0005886	0.0002355
293.15	0.0010219	0.0004089
298.15	0.0017473	0.0006991
303.15	0.0023198	0.0009281
308.15	0.0032249	0.0012901
313.15	0.0041968	0.0016789
318.15	0.0058476	0.0023393

System: 4-aminobenzenesulfonamide + butan-2-ol; phases: Liquid, Crystal
Fixed: Pressure, kPa = 101.3
Property: Mole fraction of 4-aminobenzenesulfonamide (Liquid); method: gravimetric
Temperature, K	Mole fraction of 4-aminobenzenesulfonamide	uncertainty
278.15	9.56e-05	3.84e-05
283.15	0.000252	0.0001008
288.15	0.0003771	0.0001509
293.15	0.000721	0.0002885
298.15	0.0009399	0.000376
303.15	0.0013171	0.0005269
308.15	0.0016946	0.0006779
313.15	0.0021474	0.000859
318.15	0.0027654	0.0011062

System: 4-aminobenzenesulfonamide + butan-1-ol; phases: Liquid, Crystal
Fixed: Pressure, kPa = 101.3
Property: Mole fraction of 4-aminobenzenesulfonamide (Liquid); method: gravimetric
Temperature, K	Mole fraction of 4-aminobenzenesulfonamide	uncertainty
278.15	0.0012051	0.0004821
283.15	0.0013412	0.0005365
288.15	0.001483	0.0005932
293.15	0.0016782	0.0006713
298.15	0.0019579	0.0007832
303.15	0.0022677	0.0009071
308.15	0.0025831	0.0010333
313.15	0.0030433	0.0012174
318.15	0.0035692	0.0014277

System: 4-aminobenzenesulfonamide + benzene; phases: Liquid, Crystal
Fixed: Pressure, kPa = 101.3
Property: Mole fraction of 4-aminobenzenesulfonamide (Liquid); method: gravimetric
Temperature, K	Mole fraction of 4-aminobenzenesulfonamide	uncertainty
278.15	0.0006698	0.0002679
283.15	0.0008149	0.000326
288.15	0.0009804	0.0003922
293.15	0.001167	0.0004668
298.15	0.0013756	0.0005503
303.15	0.0016093	0.0006437
308.15	0.0018645	0.0007458
313.15	0.0021459	0.0008584
318.15	0.0024572	0.0009829

System: 4-aminobenzenesulfonamide + water; phases: Liquid, Crystal
Fixed: Pressure, kPa = 101.3
Property: Mole fraction of 4-aminobenzenesulfonamide (Liquid); method: gravimetric
Temperature, K	Mole fraction of 4-aminobenzenesulfonamide	uncertainty
278.15	0.000314	0.0001256
283.15	0.0003794	0.0001518
288.15	0.0004948	0.0001979
293.15	0.0006362	0.0002545
298.15	0.0008129	0.0003252
303.15	0.0010558	0.0004224
308.15	0.0013396	0.0005359
313.15	0.0017171	0.0006869
318.15	0.0021637	0.0008655

System: 4-aminobenzenesulfonamide + octan-1-ol; phases: Liquid, Crystal
Fixed: Pressure, kPa = 101.3
Property: Mole fraction of 4-aminobenzenesulfonamide (Liquid); method: gravimetric
Temperature, K	Mole fraction of 4-aminobenzenesulfonamide	uncertainty
278.15	0.0003136	0.0001254
283.15	0.0003515	0.0001406
288.15	0.0003986	0.0001594
293.15	0.0004544	0.0001818
298.15	0.0005221	0.0002088
303.15	0.0006048	0.0002419
308.15	0.0007051	0.0002821
313.15	0.0008282	0.0003313
318.15	0.0009726	0.0003891

System: 4-aminobenzenesulfonamide + ethyl acetate; phases: Liquid, Crystal
Fixed: Pressure, kPa = 101.3
Property: Mole fraction of 4-aminobenzenesulfonamide (Liquid); method: gravimetric
Temperature, K	Mole fraction of 4-aminobenzenesulfonamide	uncertainty
278.15	8.9e-06	3.6e-06
283.15	1.026e-05	4.1e-06
288.15	1.259e-05	5.04e-06
293.15	1.483e-05	5.93e-06
298.15	1.895e-05	7.58e-06
303.15	2.557e-05	1.023e-05
308.15	3.311e-05	1.325e-05
313.15	4.407e-05	1.763e-05
318.15	6.028e-05	2.411e-05

System: 4-aminobenzenesulfonamide + toluene; phases: Liquid, Crystal
Fixed: Pressure, kPa = 101.3
Property: Mole fraction of 4-aminobenzenesulfonamide (Liquid); method: gravimetric
Temperature, K	Mole fraction of 4-aminobenzenesulfonamide	uncertainty
278.15	3.92e-06	1.57e-06
283.15	5.63e-06	2.25e-06
288.15	7.96e-06	3.18e-06
293.15	1.078e-05	4.31e-06
298.15	1.374e-05	5.5e-06
303.15	1.719e-05	6.88e-06
308.15	2.108e-05	8.43e-06
313.15	2.514e-05	1.006e-05
318.15	2.961e-05	1.184e-05

System: 4-aminobenzenesulfonamide + acetone + methanol; phases: Liquid, Crystal
Fixed: Pressure, kPa = 101.3
Property: Mole fraction of 4-aminobenzenesulfonamide (Liquid); method: gravimetric
Temperature, K	Solvent: Mass fraction of acetone	Mole fraction of 4-aminobenzenesulfonamide	uncertainty
278.15	0.1	0.014825	0.00593
283.15	0.1	0.017198	0.00688
288.15	0.1	0.020259	0.008104
293.15	0.1	0.024497	0.009799
298.15	0.1	0.029509	0.011804
303.15	0.1	0.03442	0.013769
308.15	0.1	0.039863	0.015946
313.15	0.1	0.04596	0.018385
318.15	0.1	0.05276	0.021105
278.15	0.2	0.019108	0.007644
283.15	0.2	0.021151	0.008461
288.15	0.2	0.024243	0.009698
293.15	0.2	0.029049	0.01162
298.15	0.2	0.034892	0.013958
303.15	0.2	0.040597	0.01624
308.15	0.2	0.046521	0.018609
313.15	0.2	0.053381	0.021353
318.15	0.2	0.060828	0.024332
278.15	0.3	0.024885	0.009955
283.15	0.3	0.026587	0.010636
288.15	0.3	0.029809	0.011925
293.15	0.3	0.034737	0.013896
298.15	0.3	0.040284	0.016115
303.15	0.3	0.04577	0.018309
308.15	0.3	0.051533	0.020614
313.15	0.3	0.058394	0.023359
318.15	0.3	0.065831	0.026333
278.15	0.4	0.030186	0.012076
283.15	0.4	0.032848	0.013141
288.15	0.4	0.036381	0.014554
293.15	0.4	0.041106	0.016444
298.15	0.4	0.046696	0.01868
303.15	0.4	0.052449	0.020981
308.15	0.4	0.058498	0.023401
313.15	0.4	0.064923	0.02597
318.15	0.4	0.07156	0.028625
278.15	0.5	0.038207	0.015285
283.15	0.5	0.040708	0.016285
288.15	0.5	0.044191	0.017678
293.15	0.5	0.049259	0.019706
298.15	0.5	0.05522	0.02209
303.15	0.5	0.060913	0.024367
308.15	0.5	0.066475	0.026592
313.15	0.5	0.072452	0.028982
318.15	0.5	0.078614	0.031447
278.15	0.6	0.047202	0.018882
283.15	0.6	0.048943	0.019579
288.15	0.6	0.052042	0.020818
293.15	0.6	0.057144	0.022859
298.15	0.6	0.06326	0.025305
303.15	0.6	0.068556	0.027424
308.15	0.6	0.073684	0.029475
313.15	0.6	0.079197	0.03168
318.15	0.6	0.085105	0.034043
278.15	0.7	0.056287	0.022516
283.15	0.7	0.059268	0.023708
288.15	0.7	0.062692	0.025078
293.15	0.7	0.066658	0.026664
298.15	0.7	0.071017	0.028408
303.15	0.7	0.075396	0.030159
308.15	0.7	0.080186	0.032075
313.15	0.7	0.085418	0.034168
318.15	0.7	0.091212	0.036486
278.15	0.8	0.06456	0.025825
283.15	0.8	0.066825	0.026731
288.15	0.8	0.069658	0.027864
293.15	0.8	0.0735	0.029401
298.15	0.8	0.077809	0.031124
303.15	0.8	0.082133	0.032854
308.15	0.8	0.086596	0.034639
313.15	0.8	0.091699	0.03668
318.15	0.8	0.09724	0.038897
278.15	0.9	0.072624	0.02905
283.15	0.9	0.074866	0.029947
288.15	0.9	0.077727	0.031091
293.15	0.9	0.081653	0.032662
298.15	0.9	0.086049	0.03442
303.15	0.9	0.090086	0.036035
308.15	0.9	0.094272	0.037709
313.15	0.9	0.099052	0.039622
318.15	0.9	0.104202	0.041682
278.15	1	0.0831505	0.0332607
283.15	1	0.0856947	0.0342784
288.15	1	0.0883618	0.0353453
293.15	1	0.0911962	0.036479
298.15	1	0.0941789	0.0376721
303.15	1	0.0975483	0.0390199
308.15	1	0.1007898	0.0403166
313.15	1	0.1053312	0.0421332
318.15	1	0.1103777	0.0441518
278.15	0	0.0112488	0.0044998
283.15	0	0.013639	0.0054559
288.15	0	0.0164602	0.0065845
293.15	0	0.0198649	0.0079464
298.15	0	0.0238486	0.00954
303.15	0	0.0285645	0.0114264
308.15	0	0.0342927	0.0137178
313.15	0	0.0407646	0.0163067
318.15	0	0.0485986	0.0194403

System: 4-aminobenzenesulfonamide + acetone + ethanol; phases: Liquid, Crystal
Fixed: Pressure, kPa = 101.3
Property: Mole fraction of 4-aminobenzenesulfonamide (Liquid); method: gravimetric
Temperature, K	Solvent: Mass fraction of acetone	Mole fraction of 4-aminobenzenesulfonamide	uncertainty
278.15	0.1	0.009986	0.003995
283.15	0.1	0.011055	0.004422
288.15	0.1	0.012607	0.005043
293.15	0.1	0.014984	0.005994
298.15	0.1	0.017893	0.007158
303.15	0.1	0.020822	0.008329
308.15	0.1	0.023804	0.009522
313.15	0.1	0.027178	0.010872
318.15	0.1	0.030633	0.012254
278.15	0.2	0.0146	0.00584
283.15	0.2	0.016094	0.006438
288.15	0.2	0.018173	0.00727
293.15	0.2	0.021265	0.008507
298.15	0.2	0.02486	0.009945
303.15	0.2	0.028231	0.011293
308.15	0.2	0.031958	0.012784
313.15	0.2	0.036141	0.014457
318.15	0.2	0.040783	0.016314
278.15	0.3	0.019667	0.007868
283.15	0.3	0.021604	0.008642
288.15	0.3	0.024112	0.009646
293.15	0.3	0.027398	0.01096
298.15	0.3	0.031173	0.01247
303.15	0.3	0.034896	0.013959
308.15	0.3	0.039021	0.015609
313.15	0.3	0.043762	0.017506
318.15	0.3	0.048664	0.019467
278.15	0.4	0.025091	0.010038
283.15	0.4	0.027118	0.010849
288.15	0.4	0.029757	0.011904
293.15	0.4	0.03343	0.013374
298.15	0.4	0.03756	0.015026
303.15	0.4	0.041713	0.016687
308.15	0.4	0.046281	0.018514
313.15	0.4	0.051398	0.020561
318.15	0.4	0.056816	0.022729
278.15	0.5	0.033483	0.013396
283.15	0.5	0.035332	0.014136
288.15	0.5	0.038136	0.015258
293.15	0.5	0.042612	0.017048
298.15	0.5	0.047885	0.019157
303.15	0.5	0.053012	0.021208
308.15	0.5	0.058307	0.023326
313.15	0.5	0.064181	0.025675
318.15	0.5	0.070399	0.028162
278.15	0.6	0.041396	0.01656
283.15	0.6	0.04513	0.018054
288.15	0.6	0.049031	0.019614
293.15	0.6	0.053164	0.021267
298.15	0.6	0.057592	0.023038
303.15	0.6	0.062313	0.024927
308.15	0.6	0.067572	0.02703
313.15	0.6	0.073367	0.029348
318.15	0.6	0.07946	0.031785
278.15	0.7	0.052731	0.021094
283.15	0.7	0.055443	0.022178
288.15	0.7	0.058542	0.023418
293.15	0.7	0.062639	0.025057
298.15	0.7	0.06716	0.026865
303.15	0.7	0.071719	0.028689
308.15	0.7	0.07664	0.030657
313.15	0.7	0.082204	0.032883
318.15	0.7	0.088055	0.035223
278.15	0.8	0.062382	0.024953
283.15	0.8	0.06431	0.025725
288.15	0.8	0.066993	0.026798
293.15	0.8	0.070663	0.028266
298.15	0.8	0.074872	0.029949
303.15	0.8	0.079349	0.03174
308.15	0.8	0.084077	0.033632
313.15	0.8	0.089276	0.035711
318.15	0.8	0.094879	0.037952
278.15	0.9	0.069588	0.027836
283.15	0.9	0.071437	0.028575
288.15	0.9	0.074192	0.029677
293.15	0.9	0.078283	0.031314
298.15	0.9	0.082829	0.033132
303.15	0.9	0.087222	0.034889
308.15	0.9	0.091853	0.036742
313.15	0.9	0.096831	0.038733
318.15	0.9	0.102145	0.040859
278.15	1	0.0831505	0.0332607
283.15	1	0.0856947	0.0342784
288.15	1	0.0883618	0.0353453
293.15	1	0.0911962	0.036479
298.15	1	0.0941789	0.0376721
303.15	1	0.0975483	0.0390199
308.15	1	0.1007898	0.0403166
313.15	1	0.1053312	0.0421332
318.15	1	0.1103777	0.0441518
278.15	0	0.0054737	0.0021896
283.15	0	0.0065561	0.0026226
288.15	0	0.0078984	0.0031595
293.15	0	0.0095266	0.0038109
298.15	0	0.0115306	0.0046125
303.15	0	0.01394	0.0055763
308.15	0	0.0169119	0.0067652
313.15	0	0.020517	0.0082073
318.15	0	0.0249201	0.0099686

System: 4-aminobenzenesulfonamide + acetone + ethyl acetate; phases: Liquid, Crystal
Fixed: Pressure, kPa = 101.3
Property: Mole fraction of 4-aminobenzenesulfonamide (Liquid); method: gravimetric
Temperature, K	Solvent: Mass fraction of acetone	Mole fraction of 4-aminobenzenesulfonamide	uncertainty
278.15	0.1	0.000125	5.1e-05
283.15	0.1	0.00034	0.000136
288.15	0.1	0.000465	0.000186
293.15	0.1	0.000593	0.000237
298.15	0.1	0.000763	0.000305
303.15	0.1	0.000941	0.000377
308.15	0.1	0.001156	0.000463
313.15	0.1	0.001475	0.00059
318.15	0.1	0.001713	0.000685
278.15	0.2	0.002078	0.000832
283.15	0.2	0.002309	0.000924
288.15	0.2	0.002546	0.001019
293.15	0.2	0.002796	0.001119
298.15	0.2	0.003167	0.001267
303.15	0.2	0.00356	0.001425
308.15	0.2	0.003825	0.001531
313.15	0.2	0.004153	0.001662
318.15	0.2	0.004465	0.001787
278.15	0.3	0.005413	0.002166
283.15	0.3	0.005632	0.002254
288.15	0.3	0.005843	0.002339
293.15	0.3	0.006432	0.002574
298.15	0.3	0.007371	0.00295
303.15	0.3	0.008334	0.003336
308.15	0.3	0.009345	0.00374
313.15	0.3	0.010361	0.004147
318.15	0.3	0.011275	0.004513
278.15	0.4	0.009342	0.00374
283.15	0.4	0.010144	0.004061
288.15	0.4	0.011171	0.004472
293.15	0.4	0.012728	0.005095
298.15	0.4	0.014439	0.00578
303.15	0.4	0.016291	0.006521
308.15	0.4	0.018303	0.007326
313.15	0.4	0.020295	0.008123
318.15	0.4	0.022413	0.008971
278.15	0.5	0.017427	0.006977
283.15	0.5	0.018853	0.007547
288.15	0.5	0.020618	0.008253
293.15	0.5	0.022714	0.009092
298.15	0.5	0.025267	0.010113
303.15	0.5	0.027949	0.011186
308.15	0.5	0.030561	0.01223
313.15	0.5	0.03355	0.013426
318.15	0.5	0.036574	0.014636
278.15	0.6	0.028125	0.011254
283.15	0.6	0.029757	0.011906
288.15	0.6	0.031689	0.012679
293.15	0.6	0.034144	0.013661
298.15	0.6	0.036982	0.014796
303.15	0.6	0.039992	0.016
308.15	0.6	0.043023	0.017212
313.15	0.6	0.046344	0.018541
318.15	0.6	0.049789	0.019919
278.15	0.7	0.040811	0.016326
283.15	0.7	0.042394	0.016959
288.15	0.7	0.044381	0.017754
293.15	0.7	0.046995	0.0188
298.15	0.7	0.049954	0.019983
303.15	0.7	0.052973	0.021191
308.15	0.7	0.05623	0.022494
313.15	0.7	0.059668	0.023869
318.15	0.7	0.063439	0.025377
278.15	0.8	0.051411	0.020565
283.15	0.8	0.053682	0.021474
288.15	0.8	0.056479	0.022592
293.15	0.8	0.059574	0.02383
298.15	0.8	0.062928	0.025172
303.15	0.8	0.066454	0.026583
308.15	0.8	0.070195	0.028079
313.15	0.8	0.074076	0.029631
318.15	0.8	0.078131	0.031253
278.15	0.9	0.064016	0.025607
283.15	0.9	0.066207	0.026483
288.15	0.9	0.068764	0.027506
293.15	0.9	0.071745	0.028699
298.15	0.9	0.075013	0.030006
303.15	0.9	0.078689	0.031476
308.15	0.9	0.082586	0.033035
313.15	0.9	0.086711	0.034685
318.15	0.9	0.091107	0.036444
278.15	1	0.0831505	0.0332607
283.15	1	0.0856947	0.0342784
288.15	1	0.0883618	0.0353453
293.15	1	0.0911962	0.036479
298.15	1	0.0941789	0.0376721
303.15	1	0.0975483	0.0390199
308.15	1	0.1007898	0.0403166
313.15	1	0.1053312	0.0421332
318.15	1	0.1103777	0.0441518
278.15	0	8.9e-06	3.6e-06
283.15	0	1.026e-05	4.1e-06
288.15	0	1.259e-05	5.04e-06
293.15	0	1.483e-05	5.93e-06
298.15	0	1.895e-05	7.58e-06
303.15	0	2.557e-05	1.023e-05
308.15	0	3.311e-05	1.325e-05
313.15	0	4.407e-05	1.763e-05
318.15	0	6.028e-05	2.411e-05

System: 4-aminobenzenesulfonamide + acetone + toluene; phases: Liquid, Crystal
Fixed: Pressure, kPa = 101.3
Property: Mole fraction of 4-aminobenzenesulfonamide (Liquid); method: gravimetric
Temperature, K	Solvent: Mass fraction of acetone	Mole fraction of 4-aminobenzenesulfonamide	uncertainty
278.15	0.1	9.7e-05	3.9e-05
283.15	0.1	0.000122	4.9e-05
288.15	0.1	0.000163	6.5e-05
293.15	0.1	0.000232	9.3e-05
298.15	0.1	0.000325	0.00013
303.15	0.1	0.000435	0.000174
308.15	0.1	0.000559	0.000224
313.15	0.1	0.00069	0.000276
318.15	0.1	0.000828	0.000332
278.15	0.2	0.000644	0.000258
283.15	0.2	0.000818	0.000328
288.15	0.2	0.00105	0.00042
293.15	0.2	0.00137	0.000549
298.15	0.2	0.00179	0.000717
303.15	0.2	0.00224	0.000897
308.15	0.2	0.00272	0.001089
313.15	0.2	0.00322	0.001289
318.15	0.2	0.00376	0.001505
278.15	0.3	0.001895	0.000759
283.15	0.3	0.002449	0.00098
288.15	0.3	0.003133	0.001254
293.15	0.3	0.003975	0.001591
298.15	0.3	0.004971	0.00199
303.15	0.3	0.006061	0.002426
308.15	0.3	0.007224	0.002891
313.15	0.3	0.008466	0.003388
318.15	0.3	0.009821	0.00393
278.15	0.4	0.003575	0.001433
283.15	0.4	0.005118	0.00205
288.15	0.4	0.006588	0.002638
293.15	0.4	0.008047	0.003221
298.15	0.4	0.009568	0.003829
303.15	0.4	0.011153	0.004463
308.15	0.4	0.012757	0.005105
313.15	0.4	0.014572	0.005831
318.15	0.4	0.016449	0.006581
278.15	0.5	0.010026	0.004014
283.15	0.5	0.010847	0.004341
288.15	0.5	0.011937	0.004777
293.15	0.5	0.013372	0.005351
298.15	0.5	0.015038	0.006017
303.15	0.5	0.016643	0.006659
308.15	0.5	0.018316	0.007329
313.15	0.5	0.020108	0.008045
318.15	0.5	0.022119	0.00885
278.15	0.6	0.014233	0.005699
283.15	0.6	0.015058	0.006029
288.15	0.6	0.016267	0.006512
293.15	0.6	0.017683	0.007079
298.15	0.6	0.019734	0.007899
303.15	0.6	0.021798	0.008725
308.15	0.6	0.024041	0.009622
313.15	0.6	0.026	0.010406
318.15	0.6	0.028085	0.011241
278.15	0.7	0.031248	0.012502
283.15	0.7	0.032207	0.012886
288.15	0.7	0.033552	0.013424
293.15	0.7	0.03598	0.014395
298.15	0.7	0.039056	0.015626
303.15	0.7	0.042184	0.016877
308.15	0.7	0.045373	0.018153
313.15	0.7	0.048701	0.019484
318.15	0.7	0.052294	0.020922
278.15	0.8	0.043337	0.017336
283.15	0.8	0.045025	0.018011
288.15	0.8	0.047679	0.019073
293.15	0.8	0.051238	0.020496
298.15	0.8	0.055183	0.022074
303.15	0.8	0.059124	0.023651
308.15	0.8	0.063233	0.025294
313.15	0.8	0.067545	0.027019
318.15	0.8	0.072461	0.028986
278.15	0.9	0.056033	0.022414
283.15	0.9	0.058687	0.023476
288.15	0.9	0.062071	0.024829
293.15	0.9	0.064384	0.025754
298.15	0.9	0.06815	0.027261
303.15	0.9	0.071621	0.028649
308.15	0.9	0.076208	0.030484
313.15	0.9	0.081419	0.032568
318.15	0.9	0.087162	0.034866
278.15	1	0.0831505	0.0332607
283.15	1	0.0856947	0.0342784
288.15	1	0.0883618	0.0353453
293.15	1	0.0911962	0.036479
298.15	1	0.0941789	0.0376721
303.15	1	0.0975483	0.0390199
308.15	1	0.1007898	0.0403166
313.15	1	0.1053312	0.0421332
318.15	1	0.1103777	0.0441518
278.15	0	3.92e-06	1.57e-06
283.15	0	5.63e-06	2.25e-06
288.15	0	7.96e-06	3.18e-06
293.15	0	1.078e-05	4.31e-06
298.15	0	1.374e-05	5.5e-06
303.15	0	1.719e-05	6.88e-06
308.15	0	2.108e-05	8.43e-06
313.15	0	2.514e-05	1.006e-05
318.15	0	2.961e-05	1.184e-05
