Measured thermophysical data. Evaluation of Solute-Solvent Interactions in Aqueous Solutions Containing Cholinium Aminoate Ionic Liquids and Polyethylene Glycol Dimethyl Ether as a Nontoxic Solvent: Thermodynamic and Transport Studies
Source: J. Chem. Eng. Data, 2019, 10.1021/acs.jced.8b00879
Compound 1: 2-hydroxy-N,N,N-trimethylethanaminium glycinate, C7H18N2O3, InChI=1S/C5H14NO.C2H5NO2/c1-6(2,3)4-5-7;3-1-2(4)5/h7H,4-5H2,1-3H3;1,3H2,(H,4,5)/q+1;/p-1, purity 98%
Compound 2: 2-hydroxy-N,N,N-trimethylethanaminium L-prolinate, C10H22N2O3, InChI=1S/C5H9NO2.C5H14NO/c7-5(8)4-2-1-3-6-4;1-6(2,3)4-5-7/h4,6H,1-3H2,(H,7,8);7H,4-5H2,1-3H3/q;+1/p-1/t4-;/m0./s1, purity 95%
Compound 3: choline L-valinate, C10H24N2O3, InChI=1S/C5H11NO2.C5H14NO/c1-3(2)4(6)5(7)8;1-6(2,3)4-5-7/h3-4H,6H2,1-2H3,(H,7,8);7H,4-5H2,1-3H3/q;+1/p-1/t4-;/m0./s1, purity 95%
Compound 4: water, H2O, InChI=1S/H2O/h1H2, purity 99.9%

System: water; phases: Liquid
Fixed: Pressure, kPa = 85
Property: Mass density, kg/m3 (Liquid); method: Vibrating tube method
Temperature, K	Mass density, kg/m3	uncertainty
288.15	999.09	0.3
298.15	997.38	0.3
308.15	994.02	0.3
318.15	990.21	0.3
298.15	997.04	0.3

System: water; phases: Liquid
Fixed: Pressure, kPa = 85
Fixed: Frequency, MHz = 3
Property: Speed of sound, m/s (Liquid); method: Single path-length method
Temperature, K	Speed of sound, m/s	uncertainty
288.15	1466.7	1.1
298.15	1497	1
308.15	1520.1	1
318.15	1536	1

System: water; phases: Liquid
Fixed: Pressure, kPa = 85
Property: Viscosity, Pa*s (Liquid); method: Capillary tube (Ostwald; Ubbelohde) method
Temperature, K	Viscosity, Pa*s	uncertainty
288.15	0.001259	0.00012
298.15	0.000995	0.00012
308.15	0.000819	0.00012
318.15	0.000686	0.00012

System: 2-hydroxy-N,N,N-trimethylethanaminium glycinate + water; phases: Liquid
Fixed: Pressure, kPa = 85
Property: Mass density, kg/m3 (Liquid); method: Vibrating tube method
Temperature, K	Molality, mol/kg of 2-hydroxy-N,N,N-trimethylethanaminium glycinate	Mass density, kg/m3	uncertainty
288.15	0	999.09	0.33
288.15	0.0111	999.43	0.32
288.15	0.0214	999.73	0.32
288.15	0.0318	1000.03	0.32
288.15	0.0417	1000.3	0.32
288.15	0.0534	1000.63	0.32
288.15	0.0619	1000.85	0.32
298.15	0	997.38	0.43
298.15	0.0111	997.68	0.32
298.15	0.0214	997.97	0.32
298.15	0.0318	998.25	0.32
298.15	0.0417	998.57	0.32
298.15	0.0534	998.8	0.37
298.15	0.0619	997.38	0.48
308.15	0	994.02	0.35
308.15	0.0111	994.36	0.33
308.15	0.0214	994.66	0.33
308.15	0.0318	994.96	0.32
308.15	0.0417	995.24	0.32
308.15	0.0534	995.56	0.32
308.15	0.0619	995.79	0.39
318.15	0	990.21	0.33
318.15	0.0111	990.55	0.33
318.15	0.0214	990.85	0.33
318.15	0.0318	991.15	0.33
318.15	0.0417	991.43	0.32
318.15	0.0534	991.75	0.32
318.15	0.0619	991.99	0.32

System: 2-hydroxy-N,N,N-trimethylethanaminium glycinate + water; phases: Liquid
Fixed: Pressure, kPa = 85
Fixed: Frequency, MHz = 3
Property: Speed of sound, m/s (Liquid); method: Single path-length method
Temperature, K	Molality, mol/kg of 2-hydroxy-N,N,N-trimethylethanaminium glycinate	Speed of sound, m/s	uncertainty
288.15	0	1466.7	1.2
288.15	0.0111	1468.1	1.2
288.15	0.0214	1469.5	1.2
288.15	0.0318	1470.8	1.2
288.15	0.0417	1472.1	1.2
288.15	0.0534	1473.6	1.2
288.15	0.0619	1474.7	1.2
298.15	0	1497	1.7
298.15	0.0111	1498.2	1.1
298.15	0.0214	1499.4	1.1
298.15	0.0318	1500.6	1.1
298.15	0.0417	1501.7	1.1
298.15	0.0534	1503	1.1
298.15	0.0619	1504	1.2
308.15	0	1520.1	1.6
308.15	0.0111	1521.1	1.1
308.15	0.0214	1522.2	1.1
308.15	0.0318	1523.2	1.1
308.15	0.0417	1524.1	1.1
308.15	0.0534	1525.2	1.1
308.15	0.0619	1526	1.2
318.15	0	1536	1.1
318.15	0.0111	1536.9	1.1
318.15	0.0214	1537.7	1.1
318.15	0.0318	1538.6	1.1
318.15	0.0417	1539.4	1.1
318.15	0.0534	1540.5	1.1
318.15	0.0619	1541.2	1.1

System: 2-hydroxy-N,N,N-trimethylethanaminium glycinate + water; phases: Liquid
Fixed: Pressure, kPa = 85
Property: Viscosity, Pa*s (Liquid); method: Capillary tube (Ostwald; Ubbelohde) method
Temperature, K	Molality, mol/kg of 2-hydroxy-N,N,N-trimethylethanaminium glycinate	Viscosity, Pa*s	uncertainty
288.15	0	0.001259	0.00012
288.15	0.0111	0.001251	0.00012
288.15	0.0214	0.001263	0.00012
288.15	0.0318	0.001275	0.00012
288.15	0.0417	0.001288	0.00012
288.15	0.0534	0.001302	0.00012
288.15	0.0619	0.001313	0.00012
298.15	0	0.000995	0.00012
298.15	0.0111	0.001	0.00012
298.15	0.0214	0.001011	0.00012
298.15	0.0318	0.00102	0.00012
298.15	0.0417	0.00103	0.00012
298.15	0.0534	0.001042	0.00012
298.15	0.0619	0.001049	0.000121
308.15	0	0.000819	0.00012
308.15	0.0111	0.000832	0.00012
308.15	0.0214	0.000841	0.00012
308.15	0.0318	0.000851	0.00012
308.15	0.0417	0.000858	0.00012
308.15	0.0534	0.000869	0.00012
308.15	0.0619	0.000877	0.00012
318.15	0	0.000686	0.00012
318.15	0.0111	0.000706	0.00012
318.15	0.0214	0.000714	0.00012
318.15	0.0318	0.000722	0.00012
318.15	0.0417	0.000729	0.00012
318.15	0.0534	0.000737	0.00012
318.15	0.0619	0.000741	0.00012

System: 2-hydroxy-N,N,N-trimethylethanaminium L-prolinate + water; phases: Liquid
Fixed: Pressure, kPa = 85
Property: Mass density, kg/m3 (Liquid); method: Vibrating tube method
Temperature, K	Molality, mol/kg of 2-hydroxy-N,N,N-trimethylethanaminium L-prolinate	Mass density, kg/m3	uncertainty
288.15	0	999.09	0.33
288.15	0.0136	999.51	0.33
288.15	0.0217	999.76	0.33
288.15	0.0329	1000.09	0.32
288.15	0.044	1000.42	0.32
288.15	0.0525	1000.67	0.32
288.15	0.0626	1000.96	0.32
298.15	0	997.04	0.38
298.15	0.0136	997.47	0.32
298.15	0.0217	997.71	0.33
298.15	0.0329	998.05	0.33
298.15	0.044	998.38	0.32
298.15	0.0525	998.63	0.33
298.15	0.0626	998.92	0.3
308.15	0	994.02	0.37
308.15	0.0136	994.45	0.32
308.15	0.0217	994.7	0.33
308.15	0.0329	995.04	0.33
308.15	0.044	995.37	0.32
308.15	0.0525	995.63	0.33
308.15	0.0626	995.92	0.3
318.15	0	990.21	0.33
318.15	0.0136	990.64	0.33
318.15	0.0217	990.9	0.33
318.15	0.0329	991.24	0.33
318.15	0.044	991.58	0.33
318.15	0.0525	991.84	0.33
318.15	0.0626	992.13	0.33

System: 2-hydroxy-N,N,N-trimethylethanaminium L-prolinate + water; phases: Liquid
Fixed: Pressure, kPa = 85
Fixed: Frequency, MHz = 3
Property: Speed of sound, m/s (Liquid); method: Single path-length method
Temperature, K	Molality, mol/kg of 2-hydroxy-N,N,N-trimethylethanaminium L-prolinate	Speed of sound, m/s	uncertainty
288.15	0	1466.7	1.2
288.15	0.0136	1468.7	1.2
288.15	0.0217	1469.9	1.2
288.15	0.0329	1471.5	1.2
288.15	0.044	1473.1	1.2
288.15	0.0525	1474.2	1.2
288.15	0.0626	1475.6	1.2
298.15	0	1497	1.7
298.15	0.0136	1499	1.1
298.15	0.0217	1500.2	1.2
298.15	0.0329	1501.8	1.2
298.15	0.044	1503.4	1.1
298.15	0.0525	1504.5	1.2
298.15	0.0626	1505.9	1.1
308.15	0	1520.1	1.7
308.15	0.0136	1522.1	1.1
308.15	0.0217	1523.3	1.2
308.15	0.0329	1524.8	1.2
308.15	0.044	1526.4	1.1
308.15	0.0525	1527.5	1.2
308.15	0.0626	1528.9	1.1
318.15	0	1536	1.2
318.15	0.0136	1538	1.2
318.15	0.0217	1539.1	1.2
318.15	0.0329	1540.7	1.2
318.15	0.044	1542.2	1.2
318.15	0.0525	1543.3	1.1
318.15	0.0626	1544.6	1.1

System: 2-hydroxy-N,N,N-trimethylethanaminium L-prolinate + water; phases: Liquid
Fixed: Pressure, kPa = 85
Property: Viscosity, Pa*s (Liquid); method: Capillary tube (Ostwald; Ubbelohde) method
Temperature, K	Molality, mol/kg of 2-hydroxy-N,N,N-trimethylethanaminium L-prolinate	Viscosity, Pa*s	uncertainty
288.15	0	0.001259	0.000122
288.15	0.0136	0.001325	0.000121
288.15	0.0217	0.001337	0.00012
288.15	0.0329	0.001351	0.00012
288.15	0.044	0.001364	0.00012
288.15	0.0525	0.001375	0.00012
288.15	0.0626	0.001388	0.00012
298.15	0	0.000995	0.000121
298.15	0.0136	0.001059	0.000121
298.15	0.0217	0.001067	0.00012
298.15	0.0329	0.001077	0.00012
298.15	0.044	0.001089	0.00012
298.15	0.0525	0.001096	0.00012
298.15	0.0626	0.001104	0.000121
308.15	0	0.000819	0.000121
308.15	0.0136	0.000879	0.000121
308.15	0.0217	0.000884	0.00012
308.15	0.0329	0.000894	0.00012
308.15	0.044	0.000902	0.00012
308.15	0.0525	0.000908	0.00012
308.15	0.0626	0.000916	0.00012
318.15	0	0.000686	0.000121
318.15	0.0136	0.00074	0.000121
318.15	0.0217	0.000746	0.00012
318.15	0.0329	0.000753	0.00012
318.15	0.044	0.00076	0.00012
318.15	0.0525	0.000764	0.00012
318.15	0.0626	0.000772	0.00012

System: choline L-valinate + water; phases: Liquid
Fixed: Pressure, kPa = 85
Property: Mass density, kg/m3 (Liquid); method: Vibrating tube method
Temperature, K	Molality, mol/kg of choline L-valinate	Mass density, kg/m3	uncertainty
288.15	0	999.09	0.32
288.15	0.0123	999.42	0.32
288.15	0.0222	999.68	0.32
288.15	0.0313	999.91	0.32
288.15	0.0436	1000.22	0.32
288.15	0.0522	1000.43	0.32
288.15	0.0618	1000.66	0.32
298.15	0	997.04	0.37
298.15	0.0123	997.36	0.32
298.15	0.0222	997.61	0.32
298.15	0.0313	997.83	0.32
298.15	0.0436	998.12	0.31
298.15	0.0522	998.33	0.32
298.15	0.0618	998.54	0.31
308.15	0	994.02	0.36
308.15	0.0123	994.33	0.32
308.15	0.0222	994.57	0.32
308.15	0.0313	994.79	0.32
308.15	0.0436	995.07	0.31
308.15	0.0522	995.26	0.32
308.15	0.0618	995.47	0.3
318.15	0	990.21	0.32
318.15	0.0123	990.51	0.32
318.15	0.0222	990.75	0.32
318.15	0.0313	990.96	0.32
318.15	0.0436	991.24	0.32
318.15	0.0522	991.43	0.32
318.15	0.0618	991.64	0.32

System: choline L-valinate + water; phases: Liquid
Fixed: Pressure, kPa = 85
Fixed: Frequency, MHz = 3
Property: Speed of sound, m/s (Liquid); method: Single path-length method
Temperature, K	Molality, mol/kg of choline L-valinate	Speed of sound, m/s	uncertainty
288.15	0	1466.7	1.2
288.15	0.0123	1468.6	1.2
288.15	0.0222	1470.1	1.2
288.15	0.0313	1471.5	1.2
288.15	0.0436	1473.3	1.2
288.15	0.0522	1474.6	1.2
288.15	0.0618	1476	1.2
298.15	0	1497	1.7
298.15	0.0123	1498.9	1.2
298.15	0.0222	1500.4	1.2
298.15	0.0313	1501.8	1.3
298.15	0.0436	1503.7	1.2
298.15	0.0522	1505	1.2
298.15	0.0618	1506.5	1.1
308.15	0	1520.1	1.8
308.15	0.0123	1522.1	1.2
308.15	0.0222	1523.6	1.2
308.15	0.0313	1524.9	1.2
308.15	0.0436	1526.8	1.1
308.15	0.0522	1528	1.2
308.15	0.0618	1529.4	1.1
318.15	0	1536	1.2
318.15	0.0123	1537.9	1.2
318.15	0.0222	1539.4	1.2
318.15	0.0313	1540.8	1.2
318.15	0.0436	1542.6	1.2
318.15	0.0522	1543.9	1.2
318.15	0.0618	1545.4	1.2

System: choline L-valinate + water; phases: Liquid
Fixed: Pressure, kPa = 85
Property: Viscosity, Pa*s (Liquid); method: Capillary tube (Ostwald; Ubbelohde) method
Temperature, K	Molality, mol/kg of choline L-valinate	Viscosity, Pa*s	uncertainty
288.15	0	0.001259	0.000121
288.15	0.0123	0.001289	0.00012
288.15	0.0222	0.001299	0.00012
288.15	0.0313	0.001308	0.00012
288.15	0.0436	0.00132	0.00012
288.15	0.0522	0.001328	0.00012
288.15	0.0618	0.001338	0.00012
298.15	0	0.000995	0.00012
298.15	0.0123	0.001027	0.00012
298.15	0.0222	0.001036	0.00012
298.15	0.0313	0.001045	0.00012
298.15	0.0436	0.001055	0.00012
298.15	0.0522	0.001062	0.00012
298.15	0.0618	0.001071	0.000121
308.15	0	0.000819	0.00012
308.15	0.0123	0.000851	0.00012
308.15	0.0222	0.00086	0.00012
308.15	0.0313	0.000868	0.00012
308.15	0.0436	0.000877	0.00012
308.15	0.0522	0.000884	0.00012
308.15	0.0618	0.000892	0.00012
318.15	0	0.000686	0.000121
318.15	0.0123	0.000718	0.00012
318.15	0.0222	0.000726	0.00012
318.15	0.0313	0.000732	0.00012
318.15	0.0436	0.00074	0.00012
318.15	0.0522	0.000748	0.00012
318.15	0.0618	0.000755	0.00012
