Measured thermophysical data. Measurement and Prediction of Solid + Liquid Equilibria in the Quaternary System LiCl-KCl-Li2SO4-K2SO4-H2O at 288.15 K
Source: J. Chem. Eng. Data, 2019, 10.1021/acs.jced.9b00271
Compound 1: lithium chloride, ClLi, InChI=1S/ClH.Li/h1H;/q;+1/p-1, purity 99.9%
Compound 2: potassium chloride, ClK, InChI=1S/ClH.K/h1H;/q;+1/p-1, purity 99.5%
Compound 3: lithium sulfate, Li2O4S, InChI=1S/2Li.H2O4S/c;;1-5(2,3)4/h;;(H2,1,2,3,4)/q2*+1;/p-2, purity 99.9%
Compound 4: potassium sulfate, K2O4S, InChI=1S/2K.H2O4S/c;;1-5(2,3)4/h;;(H2,1,2,3,4)/q2*+1;/p-2, purity 99.99%
Compound 5: water, H2O, InChI=1S/H2O/h1H2, purity 99.8%

System: lithium chloride + potassium chloride + water; phases: Liquid, Crystal of intercomponent compound 1
Fixed: Temperature, K = 288.15
Fixed: Pressure, kPa = 77
Property: Mass fraction of potassium chloride (Liquid); method: titration, gravimetric determination, and spectrometry
Mass fraction of lithium chloride	Mass fraction of potassium chloride	uncertainty
0.4408	0	
0.4389	0.0058	0.0058
0.4362	0.0137	0.0137
0.4349	0.021	0.021

System: lithium chloride + potassium chloride + water; phases: Liquid, Crystal
Fixed: Temperature, K = 288.15
Fixed: Pressure, kPa = 77
Property: Mass fraction of potassium chloride (Liquid); method: titration, gravimetric determination, and spectrometry
Mass fraction of lithium chloride	Mass fraction of potassium chloride	uncertainty
0.4349	0.021	0.0003
0.3287	0.0268	0.0005
0.2533	0.0437	0.0011
0.1972	0.0812	0.0016
0.1325	0.1252	0.0017
0.0535	0.203	0.0021
0	0.2476	0.0025

System: lithium chloride + lithium sulfate + water; phases: Liquid, Crystal of intercomponent compound 1
Fixed: Temperature, K = 288.15
Fixed: Pressure, kPa = 77
Property: Mass fraction of lithium sulfate (Liquid); method: titration, gravimetric determination, and spectrometry
Mass fraction of lithium chloride	Mass fraction of lithium sulfate	uncertainty
0.4408	0	
0.441	0.0007	0.0007
0.4428	0.001	0.0007

System: lithium chloride + lithium sulfate + water; phases: Liquid, Crystal of intercomponent compound 2
Fixed: Temperature, K = 288.15
Fixed: Pressure, kPa = 77
Property: Mass fraction of lithium sulfate (Liquid); method: titration, gravimetric determination, and spectrometry
Mass fraction of lithium chloride	Mass fraction of lithium sulfate	uncertainty
0.4428	0.001	0.0003
0.3319	0.0082	0.0003
0.2681	0.0164	0.0008
0.2045	0.0477	0.0015
0.1587	0.0925	0.0018
0.0923	0.1544	0.0018
0.0368	0.2173	0.0023
0	0.2598	0.0027

System: potassium chloride + potassium sulfate + water; phases: Liquid, Crystal
Property: Mass fraction of potassium sulfate (Liquid); method: titration, gravimetric determination, and spectrometry
Mass fraction of potassium chloride	Temperature, K	Pressure, kPa	Mass fraction of potassium sulfate	uncertainty
0.2408	288.15	77	0.0116	0.0001

System: potassium chloride + potassium sulfate + water; phases: Liquid, Crystal
Property: Mass fraction of potassium sulfate (Liquid); method: titration, gravimetric determination, and spectrometry
Mass fraction of potassium chloride	Temperature, K	Pressure, kPa	Mass fraction of potassium sulfate	uncertainty
0.2408	288.15	77	0.0116	0.0001

System: lithium sulfate + potassium sulfate + water; phases: Liquid, Crystal
Property: Mass fraction of potassium sulfate (Liquid); method: titration, gravimetric determination, and spectrometry
Mass fraction of lithium sulfate	Temperature, K	Pressure, kPa	Mass fraction of potassium sulfate	uncertainty
0.1212	288.15	77	0.0876	0.0009

System: lithium sulfate + potassium sulfate + water; phases: Liquid, Crystal of intercomponent compound 1
Fixed: Temperature, K = 288.15
Fixed: Pressure, kPa = 77
Property: Mass fraction of potassium sulfate (Liquid); method: titration, gravimetric determination, and spectrometry
Mass fraction of lithium sulfate	Mass fraction of potassium sulfate	uncertainty
0.2603	0.0238	0.0012
0.1212	0.0876	0.0011

System: lithium sulfate + potassium sulfate + water; phases: Liquid, Crystal of intercomponent compound 2
Property: Mass fraction of potassium sulfate (Liquid); method: titration, gravimetric determination, and spectrometry
Mass fraction of lithium sulfate	Temperature, K	Pressure, kPa	Mass fraction of potassium sulfate	uncertainty
0.2603	288.15	77	0.0238	0.0002

System: lithium chloride + water; phases: Liquid, Crystal of intercomponent compound 1
Property: Mass fraction of lithium chloride (Liquid); method: titration, gravimetric determination, and spectrometry
Temperature, K	Pressure, kPa	Mass fraction of lithium chloride	uncertainty
288.15	77	0.4408	

System: potassium chloride + water; phases: Liquid, Crystal
Property: Mass fraction of potassium chloride (Liquid); method: titration, gravimetric determination, and spectrometry
Temperature, K	Pressure, kPa	Mass fraction of potassium chloride	uncertainty
288.15	77	0.2476	0.0025

System: lithium sulfate + water; phases: Liquid, Crystal of intercomponent compound 2
Property: Mass fraction of lithium sulfate (Liquid); method: titration, gravimetric determination, and spectrometry
Temperature, K	Pressure, kPa	Mass fraction of lithium sulfate	uncertainty
288.15	77	0.2598	0.0027
