Measured thermophysical data. Determination of the Solubility of the Repaglinide Drug in Supercritical Carbon Dioxide: Experimental Data and Thermodynamic Modeling
Source: J. Chem. Eng. Data, 2019, 10.1021/acs.jced.9b00550
Compound 1: repaglinide, C27H36N2O4, InChI=1S/C27H36N2O4/c1-4-33-25-17-20(12-13-22(25)27(31)32)18-26(30)28-23(16-19(2)3)21-10-6-7-11-24(21)29-14-8-5-9-15-29/h6-7,10-13,17,19,23H,4-5,8-9,14-16,18H2,1-3H3,(H,28,30)(H,31,32)/t23-/m0/s1, purity 99%
Compound 2: carbon dioxide, CO2, InChI=1S/CO2/c2-1-3, purity 99.9%

System: repaglinide + carbon dioxide; phases: Fluid (supercritical or subcritical phases), Crystal
Property: Mole fraction of repaglinide (Fluid (supercritical or subcritical phases)); method: UV spectrometry
Temperature, K	Pressure, kPa	Mole fraction of repaglinide	uncertainty
308	12000	1.53e-05	1.5e-06
308	15000	2.02e-05	2e-06
308	18000	2.2e-05	2.2e-06
308	21000	2.52e-05	2.5e-06
308	24000	3.38e-05	3.4e-06
308	27000	4.57e-05	4.6e-06
318	12000	8.5e-06	9e-07
318	15000	1.7e-05	1.7e-06
318	18000	2.07e-05	2.1e-06
318	21000	3.39e-05	3.4e-06
318	24000	4.68e-05	4.7e-06
318	27000	6.03e-05	6e-06
328	12000	4.8e-06	5e-07
328	15000	1.45e-05	1.5e-06
328	18000	1.91e-05	1.9e-06
328	21000	3.6e-05	3.6e-06
328	24000	6.15e-05	6.2e-06
328	27000	7.49e-05	7.5e-06
338	12000	2.9e-06	3e-07
338	15000	9.8e-06	1e-06
338	18000	1.8e-05	1.8e-06
338	21000	4.2e-05	4.2e-06
338	24000	7.31e-05	7.3e-06
338	27000	9.52e-05	9.5e-06
