Measured thermophysical data. Measurements and Correlation of Liquid-Liquid Equilibria for the Ternary System Cyclohexanol + Water + Cyclohexyl Formate at 298.2-338.2 K
Source: J. Chem. Eng. Data, 2019, 10.1021/acs.jced.8b01104
Compound 1: cyclohexanol, C6H12O, InChI=1S/C6H12O/c7-6-4-2-1-3-5-6/h6-7H,1-5H2, purity 99.5%
Compound 2: water, H2O, InChI=1S/H2O/h1H2, purity 99.9%
Compound 3: cyclohexyl methanoate, C7H12O2, InChI=1S/C7H12O2/c8-6-9-7-4-2-1-3-5-7/h6-7H,1-5H2

System: cyclohexanol + water + cyclohexyl methanoate; phases: Liquid mixture 2, Liquid mixture 1
Fixed: Pressure, kPa = 99.81
Property: Mole fraction of water (Liquid mixture 2); method: Chromatography
Property: Mole fraction of water (Liquid mixture 1); method: Chromatography
Property: Mole fraction of cyclohexanol (Liquid mixture 1); method: Chromatography
Temperature, K	Mole fraction of cyclohexanol	Mole fraction of water	uncertainty	Mole fraction of water	uncertainty	Mole fraction of cyclohexanol	uncertainty
298.2	0.0064	0.9936	0.006	0.4381	0.0124	0.5616	
318.2	0.0035	0.9963	0.0037	0.2706	0.008	0.3984	
318.2	0.0031	0.9966	0.0034	0.2259	0.0075	0.3356	
298.2	0.0001	0.9995	0.0005	0.0404	0.0062	0.0051	
318.2	0.0024	0.9972	0.0028	0.1556	0.0072	0.2356	
318.2	0.002	0.9977	0.0023	0.1192	0.0067	0.1691	
318.2	0.0012	0.9985	0.0015	0.0841	0.0064	0.0912	
298.2	0.0052	0.9946	0.0054	0.363	0.0096	0.5071	
318.2	0.0001	0.9995	0.0005	0.0574	0.0063	0.0063	
328.2	0.0052	0.9948	0.0052	0.4479	0.013	0.5518	
328.2	0.0046	0.9953	0.0047	0.4097	0.0097	0.5303	
308.2	0.0022	0.9974	0.0026	0.1111	0.0068	0.1689	
328.2	0.0041	0.9958	0.0042	0.3786	0.0094	0.4961	
328.2	0.0036	0.9962	0.0038	0.3329	0.0088	0.4618	
328.2	0.0033	0.9964	0.0036	0.2747	0.0078	0.3955	
308.2	0.0059	0.9941	0.0059	0.4406	0.0118	0.5591	
328.2	0.0029	0.9968	0.0032	0.2331	0.0076	0.3318	
328.2	0.0023	0.9974	0.0026	0.1602	0.0074	0.237	
328.2	0.0018	0.9979	0.0021	0.1261	0.0066	0.1725	
328.2	0.0011	0.9986	0.0014	0.095	0.0064	0.0934	
298.2	0.0046	0.9951	0.0049	0.3171	0.0087	0.4694	
328.2	0.0001	0.9996	0.0004	0.0661	0.0063	0.0053	
308.2	0.0014	0.9983	0.0017	0.0763	0.0065	0.0911	
338.2	0.0051	0.9949	0.0051	0.4526	0.0147	0.5471	
338.2	0.0045	0.9954	0.0046	0.412	0.0107	0.5284	
338.2	0.004	0.9959	0.0041	0.3792	0.009	0.4961	
338.2	0.0036	0.9963	0.0037	0.3395	0.0088	0.4579	
308.2	0.0051	0.9948	0.0052	0.4036	0.0099	0.5351	
338.2	0.0033	0.9965	0.0035	0.2783	0.0079	0.3943	
338.2	0.0027	0.997	0.003	0.2419	0.0076	0.3327	
338.2	0.0021	0.9976	0.0024	0.166	0.0073	0.2396	
338.2	0.0016	0.9981	0.0019	0.1334	0.0066	0.1645	
338.2	0.0009	0.9988	0.0012	0.1024	0.0064	0.0866	
298.2	0.0057	0.9942	0.0058	0.3992	0.0105	0.5391	
298.2	0.0043	0.9954	0.0046	0.2587	0.0078	0.4013	
338.2	0.0002	0.9995	0.0005	0.0765	0.0063	0.0058	
298.2	0.0039	0.9957	0.0043	0.2137	0.0076	0.3355	
298.2	0.0031	0.9965	0.0035	0.1405	0.0073	0.2371	
298.2	0.0025	0.9971	0.0029	0.103	0.0067	0.1677	
308.2	0.0045	0.9953	0.0047	0.3694	0.0093	0.502	
298.2	0.0016	0.998	0.002	0.0676	0.0064	0.0903	
308.2	0.004	0.9958	0.0042	0.325	0.0086	0.464	
308.2	0.0038	0.996	0.004	0.266	0.008	0.398	
308.2	0.0034	0.9962	0.0038	0.2194	0.0076	0.3346	
308.2	0.0001	0.9995	0.0005	0.0473	0.0063	0.0056	
308.2	0.0027	0.9969	0.0031	0.1492	0.0073	0.2363	
318.2	0.0053	0.9947	0.0053	0.4452	0.0122	0.5546	
318.2	0.0048	0.9951	0.0049	0.4066	0.01	0.5327	
318.2	0.0042	0.9957	0.0043	0.3737	0.0093	0.4989	
318.2	0.0037	0.996	0.004	0.3295	0.0088	0.4627	
