Measured thermophysical data. Liquid Liquid Equilibria of Quaternary Systems Composed of 1,3-Propanediol, Short-Chain Alcohol, Water, and Salt
Source: J. Chem. Eng. Data, 2016, 10.1021/acs.jced.6b00472
Compound 1: ethanol, C2H6O, InChI=1S/C2H6O/c1-2-3/h3H,2H2,1H3, purity 99.5%
Compound 2: propan-1-ol, C3H8O, InChI=1S/C3H8O/c1-2-3-4/h4H,2-3H2,1H3, purity 99.5%
Compound 3: dipotassium hydrogen phosphate, HK2O4P, InChI=1S/2K.H3O4P/c;;1-5(2,3)4/h;;(H3,1,2,3,4)/q2*+1;/p-2, purity 99%
Compound 4: sodium carbonate, CNa2O3, InChI=1S/CH2O3.2Na/c2-1(3)4;;/h(H2,2,3,4);;/q;2*+1/p-2, purity 99%
Compound 5: water, H2O, InChI=1S/H2O/h1H2, purity 99.8%

System: ethanol + water + dipotassium hydrogen phosphate; phases: Liquid mixture 1, Liquid mixture 2
Fixed: Temperature, K = 298.15
Fixed: Pressure, kPa = 100
Property: Mass fraction of dipotassium hydrogen phosphate (Liquid mixture 1); method: OTHER
Property: Mass fraction of dipotassium hydrogen phosphate (Liquid mixture 2); method: OTHER
Property: Mass fraction of water (Liquid mixture 2); method: OTHER
Mass fraction of water	Mass fraction of dipotassium hydrogen phosphate	uncertainty	Mass fraction of dipotassium hydrogen phosphate	uncertainty	Mass fraction of water	uncertainty
0.6503	0.276	0.0064	0.0868	0.002	0.6614	
0.6301	0.33	0.0382	0.0448	0.0091	0.6173	
0.5894	0.3933	0.0278	0.014	0.0044	0.5122	
0.5697	0.4189	0.0285	0.0079	0.0016	0.4428	
0.5301	0.4626	0.0245	0.0023	0.0011	0.3492	
0.4816	0.5157	0.0113	0.0003	0.0003	0.2406	

System: propan-1-ol + sodium carbonate + water; phases: Liquid mixture 1, Liquid mixture 2
Fixed: Temperature, K = 313.15
Fixed: Pressure, kPa = 100
Property: Mass fraction of water (Liquid mixture 1); method: OTHER
Property: Mass fraction of sodium carbonate (Liquid mixture 2); method: OTHER
Property: Mass fraction of water (Liquid mixture 2); method: OTHER
Mass fraction of sodium carbonate	Mass fraction of water	uncertainty	Mass fraction of sodium carbonate	uncertainty	Mass fraction of water	uncertainty
0.0514	0.7927	0.0078	0.0092	0.0004	0.5018	
0.1109	0.8291	0.0074	0.0027	0.0005	0.3608	
0.1639	0.8075	0.0076	0.0012	0.0004	0.2977	
0.2136	0.7735	0.008	0.0005	0.0004	0.2502	
0.2595	0.7348	0.0085	0.0003	0.0003	0.2061	
0.3011	0.6959	0.0091	0.0002	0.0002	0.1668	
