Measured thermophysical data. Thermodynamic Study of Aqueous Solutions of 1-Butyl-3-methylimidazolium Tetrafluoroborate Ionic Liquid Using Potentiometric Measurements at Different Temperatures
Source: J. Chem. Eng. Data, 2016, 10.1021/acs.jced.6b00447
Compound 1: water, H2O, InChI=1S/H2O/h1H2, purity 99.8%
Compound 2: 1-butyl-3-methylimidazolium tetrafluoroborate, C8H15BF4N2, InChI=1S/C8H15N2.BF4/c1-3-4-5-10-7-6-9(2)8-10;2-1(3,4)5/h6-8H,3-5H2,1-2H3;/q+1;-1, purity 99%

System: water + 1-butyl-3-methylimidazolium tetrafluoroborate; phases: Liquid
Fixed: Pressure, kPa = 100
Property: Mean ionic activity coefficient of 1-butyl-3-methylimidazolium tetrafluoroborate (Liquid); method: Calculated from EMF cell potential
Temperature, K	Molality, mol/kg of 1-butyl-3-methylimidazolium tetrafluoroborate	Mean ionic activity coefficient of 1-butyl-3-methylimidazolium tetrafluoroborate	uncertainty
298.15	0.0021	0.9504	0.0259
298.15	0.006	0.9234	0.0262
298.15	0.0146	0.8832	0.0268
298.15	0.0246	0.8461	0.0273
298.15	0.0384	0.8189	0.0277
298.15	0.0531	0.7598	0.0286
298.15	0.0741	0.7122	0.0293
298.15	0.0984	0.6644	0.03
298.15	0.1432	0.6066	0.0309
308.15	0.0028	0.9515	0.0258
308.15	0.0067	0.9277	0.0261
308.15	0.0155	0.8911	0.0267
308.15	0.0253	0.856	0.0272
308.15	0.0391	0.8304	0.0276
308.15	0.0538	0.773	0.0284
308.15	0.0725	0.7267	0.0291
308.15	0.0991	0.6799	0.0298
308.15	0.1445	0.6231	0.0307
318.15	0.0019	0.9564	0.0257
318.15	0.0065	0.9336	0.0261
318.15	0.0149	0.8974	0.0266
318.15	0.025	0.8632	0.0271
318.15	0.0388	0.8378	0.0275
318.15	0.0533	0.7817	0.0283
318.15	0.0719	0.7361	0.029
318.15	0.0996	0.6901	0.0297
318.15	0.145	0.6342	0.0305
328.15	0.0024	0.9532	0.0258
328.15	0.0057	0.932	0.0261
328.15	0.0144	0.899	0.0266
328.15	0.0242	0.8663	0.027
328.15	0.0379	0.8426	0.0274
328.15	0.0528	0.788	0.0282
328.15	0.0737	0.7439	0.0289
328.15	0.1001	0.6994	0.0295
328.15	0.1461	0.6447	0.0303
