Measured thermophysical data. Liquid-Liquid Equilibrium for Ternary Systems of 2-Pentanone/Mesityl Oxide + Catechol + Water at 298.2, 318.2, and 333.2 K
Source: J. Chem. Eng. Data, 2018, 10.1021/acs.jced.8b00380
Compound 1: pentan-2-one, C5H10O, InChI=1S/C5H10O/c1-3-4-5(2)6/h3-4H2,1-2H3, purity 99%
Compound 2: 1,2-benzenediol, C6H6O2, InChI=1S/C6H6O2/c7-5-3-1-2-4-6(5)8/h1-4,7-8H, purity 99.5%
Compound 3: 4-methyl-3-penten-2-one, C6H10O, InChI=1S/C6H10O/c1-5(2)4-6(3)7/h4H,1-3H3, purity 99%
Compound 4: water, H2O, InChI=1S/H2O/h1H2, purity 99.9%

System: pentan-2-one + 1,2-benzenediol + water; phases: Liquid mixture 2, Liquid mixture 1
Fixed: Pressure, kPa = 101
Property: Mass fraction of pentan-2-one (Liquid mixture 2); method: Chromatography
Property: Mass fraction of pentan-2-one (Liquid mixture 1); method: Chromatography
Property: Mass fraction of 1,2-benzenediol (Liquid mixture 1); method: Chromatography
Temperature, K	Mass fraction of 1,2-benzenediol	Mass fraction of pentan-2-one	uncertainty	Mass fraction of pentan-2-one	uncertainty	Mass fraction of 1,2-benzenediol	uncertainty
298.2	0	0.9718	0.0218	0.0532	0.0048	0	
298.2	0.0117	0.9583	0.0256	0.0542	0.0048	0.0004	
298.2	0.0485	0.9161	0.0319	0.054	0.0048	0.0018	
298.2	0.0977	0.8662	0.035	0.054	0.005	0.0042	
298.2	0.1534	0.7847	0.0431	0.0536	0.0053	0.0078	
298.2	0.1997	0.6913	0.0375	0.0512	0.0054	0.0124	
298.2	0.3287	0.5321	0.0352	0.0448	0.0059	0.0222	
298.2	0.4166	0.4186	0.0357	0.0378	0.0061	0.0313	
318.2	0	0.9546	0.0218	0.0487	0.0048	0	
318.2	0.0093	0.9434	0.025	0.0476	0.0048	0.0004	
318.2	0.0406	0.8988	0.0371	0.0473	0.0048	0.0022	
318.2	0.0746	0.8534	0.0337	0.0468	0.0048	0.0053	
318.2	0.1499	0.7655	0.0342	0.0442	0.0051	0.0147	
318.2	0.2295	0.6664	0.0433	0.0395	0.0051	0.0244	
318.2	0.3047	0.4942	0.0453	0.0359	0.0054	0.0375	
318.2	0.3915	0.37	0.038	0.0208	0.0059	0.0582	
333.2	0	0.937	0.0218	0.0359	0.0048	0	
333.2	0.0115	0.9209	0.0256	0.0334	0.0048	0.0007	
333.2	0.0331	0.8899	0.0336	0.0328	0.0048	0.0025	
333.2	0.1057	0.811	0.0381	0.0325	0.0048	0.0113	
333.2	0.1256	0.7693	0.0378	0.0318	0.0048	0.0157	
333.2	0.2166	0.6305	0.0438	0.0293	0.005	0.0309	
333.2	0.2882	0.4851	0.048	0.0198	0.005	0.0542	
333.2	0.3545	0.3611	0.0463	0.0129	0.005	0.0813	

System: 4-methyl-3-penten-2-one + 1,2-benzenediol + water; phases: Liquid mixture 1, Liquid mixture 2
Fixed: Pressure, kPa = 101
Property: Mass fraction of 4-methyl-3-penten-2-one (Liquid mixture 1); method: Chromatography
Property: Mass fraction of 1,2-benzenediol (Liquid mixture 2); method: Chromatography
Property: Mass fraction of 4-methyl-3-penten-2-one (Liquid mixture 2); method: Chromatography
Temperature, K	Mass fraction of 1,2-benzenediol	Mass fraction of 4-methyl-3-penten-2-one	uncertainty	Mass fraction of 1,2-benzenediol	uncertainty	Mass fraction of 4-methyl-3-penten-2-one	uncertainty
298.2	0.0001	0.0284	0.0048	0.0056	0.0056	0.9497	
318.2	0.0052	0.0207	0.0052	0.102	0.0289	0.8217	
318.2	0.009	0.0196	0.005	0.1642	0.0279	0.7522	
318.2	0.015	0.0182	0.005	0.2595	0.0266	0.6255	
318.2	0.0212	0.0153	0.0051	0.3086	0.025	0.5428	
318.2	0.0303	0.0131	0.0049	0.3863	0.0251	0.3953	
333.2	0.0005	0.0199	0.0048	0.0113	0.0113	0.9163	
333.2	0.0025	0.0196	0.0048	0.0509	0.0289	0.8718	
333.2	0.0058	0.0195	0.0049	0.1017	0.0286	0.8123	
333.2	0.0114	0.0183	0.0048	0.1687	0.027	0.7331	
333.2	0.0175	0.0183	0.0049	0.2258	0.0252	0.642	
298.2	0.0021	0.0279	0.0049	0.0765	0.0275	0.886	
333.2	0.0273	0.0148	0.0049	0.2963	0.0246	0.511	
333.2	0.0445	0.0127	0.0048	0.3816	0.0245	0.3409	
298.2	0.0042	0.0277	0.0056	0.134	0.0269	0.787	
298.2	0.007	0.026	0.0057	0.1976	0.0299	0.7201	
298.2	0.0107	0.0233	0.0059	0.268	0.0275	0.6439	
298.2	0.0157	0.0194	0.0062	0.3462	0.0271	0.527	
298.2	0.0225	0.0138	0.0062	0.4333	0.028	0.4175	
318.2	0.0004	0.0225	0.0048	0.0126	0.0126	0.9208	
318.2	0.0024	0.0219	0.0049	0.0599	0.0291	0.8705	

System: pentan-2-one + water; phases: Liquid mixture 2, Liquid mixture 1
Fixed: Pressure, kPa = 101
Property: Mass fraction of pentan-2-one (Liquid mixture 2); method: Chromatography
Temperature, K	Mass fraction of pentan-2-one	uncertainty
298.2	0.9718	0.0218
333.2	0.937	0.0218
318.2	0.9546	0.0218

System: pentan-2-one + water; phases: Liquid mixture 1, Liquid mixture 2
Fixed: Pressure, kPa = 101
Property: Mass fraction of pentan-2-one (Liquid mixture 1); method: Chromatography
Temperature, K	Mass fraction of pentan-2-one	uncertainty
298.2	0.0532	0.0048
333.2	0.0359	0.0048
318.2	0.0487	0.0048
