Measured thermophysical data. Solubilities of Sulfuryl Fluoride in 2-Butoxyethyl Acetate, 3-Methoxybutyl Acetate, 2-Methoxyethyl Acetate, 1-Methoxy-2-propyl Acetate, and 2-(2-Ethoxyethoxy)ethyl Acetate
Source: J. Chem. Eng. Data, 2018, 10.1021/acs.jced.8b00224
Compound 1: carbon dioxide, CO2, InChI=1S/CO2/c2-1-3, purity 99.9%
Compound 2: sulfuryl difluoride, F2O2S, InChI=1S/F2O2S/c1-5(2,3)4, purity 99.9%
Compound 3: 4-methyl-1,3-dioxolan-2-one, C4H6O3, InChI=1S/C4H6O3/c1-3-2-6-4(5)7-3/h3H,2H2,1H3, purity 99%
Compound 4: 2-butoxyethyl acetate, C8H16O3, InChI=1S/C8H16O3/c1-3-4-5-10-6-7-11-8(2)9/h3-7H2,1-2H3, purity 99%
Compound 5: 3-methoxybutyl acetate, C7H14O3, InChI=1S/C7H14O3/c1-6(9-3)4-5-10-7(2)8/h6H,4-5H2,1-3H3, purity 99%
Compound 6: 2-methoxyethyl ethanoate, C5H10O3, InChI=1S/C5H10O3/c1-5(6)8-4-3-7-2/h3-4H2,1-2H3, purity 99%
Compound 7: 1-methoxy-2-propyl acetate, C6H12O3, InChI=1S/C6H12O3/c1-5(4-8-3)9-6(2)7/h5H,4H2,1-3H3, purity 99%
Compound 8: 2-(2-ethoxyethoxy)ethyl acetate, C8H16O4, InChI=1S/C8H16O4/c1-3-10-4-5-11-6-7-12-8(2)9/h3-7H2,1-2H3, purity 99%

System: carbon dioxide + 4-methyl-1,3-dioxolan-2-one; phases: Liquid, Gas
Fixed: Temperature, K = 313.15
Property: Mole fraction of carbon dioxide (Liquid); method: Phase equilibration
Pressure, kPa	Mole fraction of carbon dioxide	uncertainty
55.6	0.0053	0.0003
137.5	0.013	0.0003
205.4	0.0192	0.0003
304.8	0.0284	0.0003
403.7	0.0375	0.0003
499.9	0.0463	0.0004
535.7	0.0495	0.0004
53.3	0.005	0.0003
129.5	0.0121	0.0003
198.3	0.0185	0.0003
296.9	0.0277	0.0003
392.7	0.0365	0.0003
492.5	0.0456	0.0004
543.4	0.0502	0.0004

System: sulfuryl difluoride + 2-butoxyethyl acetate; phases: Liquid, Gas
Property: Mole fraction of sulfuryl difluoride (Liquid); method: Phase equilibration
Temperature, K	Pressure, kPa	Mole fraction of sulfuryl difluoride	uncertainty
293.15	33.7	0.0106	0.0004
293.15	78.3	0.0241	0.0004
293.15	128.7	0.0394	0.0005
293.15	177.3	0.0543	0.0005
293.15	227.2	0.0695	0.0006
293.15	277.8	0.085	0.0007
293.15	324.8	0.0997	0.0008
293.15	375.9	0.116	0.0008
293.15	427	0.1323	0.0009
293.15	472.4	0.147	0.001
293.15	515.1	0.161	0.0011
303.15	35.2	0.0088	0.0004
303.15	84.2	0.021	0.0004
303.15	133.7	0.0335	0.0004
303.15	179.4	0.0451	0.0005
303.15	231.5	0.0583	0.0005
303.15	285.7	0.0721	0.0006
303.15	332.5	0.0841	0.0006
303.15	382.4	0.097	0.0007
303.15	432.8	0.1101	0.0008
303.15	483.1	0.1234	0.0009
303.15	523.6	0.1342	0.001
313.15	35.6	0.0078	0.0003
313.15	83	0.0181	0.0003
313.15	136.6	0.0297	0.0004
313.15	181.1	0.0393	0.0004
313.15	231.9	0.0503	0.0004
313.15	280.7	0.061	0.0005
313.15	333.3	0.0722	0.0005
313.15	384.4	0.0836	0.0006
313.15	429.9	0.0934	0.0007
313.15	481.4	0.1048	0.0007
313.15	524.9	0.1144	0.0008
323.15	41.2	0.0075	0.0003
323.15	89.9	0.0162	0.0003
323.15	140.8	0.0254	0.0003
323.15	191.5	0.0346	0.0004
323.15	241	0.0433	0.0004
323.15	290.6	0.0523	0.0004
323.15	341.5	0.0616	0.0005
323.15	393.2	0.0712	0.0005
323.15	461.4	0.0837	0.0006
323.15	494.3	0.09	0.0006
323.15	542.6	0.0989	0.0007

System: sulfuryl difluoride + 3-methoxybutyl acetate; phases: Liquid, Gas
Property: Mole fraction of sulfuryl difluoride (Liquid); method: Phase equilibration
Temperature, K	Pressure, kPa	Mole fraction of sulfuryl difluoride	uncertainty
293.15	31.2	0.0098	0.0004
293.15	78.4	0.0246	0.0005
293.15	125.6	0.0394	0.0005
293.15	172.8	0.0544	0.0005
293.15	221.6	0.0702	0.0006
293.15	276.6	0.0894	0.0007
293.15	322.2	0.1043	0.0008
293.15	370.4	0.1203	0.0009
293.15	420	0.1355	0.001
293.15	469.2	0.1518	0.0011
293.15	510.4	0.1661	0.0012
303.15	38.4	0.0101	0.0004
303.15	82.5	0.0218	0.0004
303.15	136.7	0.0361	0.0004
303.15	180.7	0.0479	0.0005
303.15	232.6	0.0617	0.0005
303.15	279.1	0.0743	0.0006
303.15	330.4	0.0881	0.0007
303.15	378.7	0.1016	0.0007
303.15	428.4	0.1154	0.0008
303.15	473.5	0.1281	0.0009
303.15	517.5	0.1404	0.001
313.15	35.4	0.0079	0.0003
313.15	84.7	0.0189	0.0004
313.15	132.2	0.0297	0.0004
313.15	182.3	0.0409	0.0004
313.15	230.7	0.0519	0.0005
313.15	278.5	0.0627	0.0005
313.15	333.1	0.0752	0.0006
313.15	380.7	0.086	0.0006
313.15	435.1	0.0987	0.0007
313.15	480.1	0.1091	0.0008
313.15	528.9	0.1203	0.0008
323.15	41.8	0.008	0.0003
323.15	88.6	0.017	0.0003
323.15	137.2	0.0266	0.0003
323.15	182.7	0.0351	0.0004
323.15	233.8	0.0449	0.0004
323.15	285.9	0.0549	0.0004
323.15	335.7	0.0644	0.0005
323.15	379.8	0.0731	0.0005
323.15	435.2	0.0838	0.0006
323.15	484.8	0.0935	0.0007
323.15	537	0.1037	0.0007

System: sulfuryl difluoride + 2-methoxyethyl ethanoate; phases: Liquid, Gas
Property: Mole fraction of sulfuryl difluoride (Liquid); method: Phase equilibration
Temperature, K	Pressure, kPa	Mole fraction of sulfuryl difluoride	uncertainty
293.15	33	0.0081	0.0004
293.15	79.2	0.0196	0.0004
293.15	126.6	0.0309	0.0004
293.15	180.2	0.0439	0.0004
293.15	231.1	0.0567	0.0005
293.15	278.5	0.0683	0.0005
293.15	327.3	0.0809	0.0006
293.15	379	0.0945	0.0007
293.15	429.8	0.1085	0.0008
293.15	480	0.1227	0.0009
293.15	513.8	0.1318	0.0009
303.15	34	0.0068	0.0003
303.15	76.8	0.0155	0.0003
303.15	127.1	0.0255	0.0004
303.15	180	0.0361	0.0004
303.15	237.5	0.0478	0.0004
303.15	274.6	0.0555	0.0005
303.15	330.5	0.0672	0.0005
303.15	377.6	0.0771	0.0006
303.15	424.7	0.0872	0.0006
303.15	474.7	0.0983	0.0007
303.15	514.4	0.1072	0.0008
313.15	34.7	0.0061	0.0003
313.15	80.8	0.0141	0.0003
313.15	130.9	0.0226	0.0003
313.15	180.8	0.0313	0.0003
313.15	233.4	0.0405	0.0004
313.15	281.5	0.049	0.0004
313.15	326.1	0.0569	0.0004
313.15	382.9	0.0672	0.0005
313.15	430.2	0.0758	0.0005
313.15	477.3	0.0846	0.0006
313.15	526.6	0.0937	0.0006
323.15	35.9	0.0051	0.0003
323.15	83.5	0.012	0.0003
323.15	133.4	0.0193	0.0003
323.15	181.7	0.0263	0.0003
323.15	235.5	0.0341	0.0003
323.15	282.5	0.0411	0.0004
323.15	329.6	0.0482	0.0004
323.15	390.7	0.0572	0.0004
323.15	436.3	0.0642	0.0005
323.15	483.3	0.0711	0.0005
323.15	530.7	0.0782	0.0005

System: sulfuryl difluoride + 1-methoxy-2-propyl acetate; phases: Liquid, Gas
Property: Mole fraction of sulfuryl difluoride (Liquid); method: Phase equilibration
Temperature, K	Pressure, kPa	Mole fraction of sulfuryl difluoride	uncertainty
293.15	31	0.0095	0.0004
293.15	72	0.0221	0.0004
293.15	122	0.0376	0.0005
293.15	163.9	0.0512	0.0005
293.15	212.8	0.0659	0.0006
293.15	262.6	0.082	0.0007
293.15	311.8	0.0973	0.0007
293.15	364.7	0.1147	0.0008
293.15	412.7	0.1295	0.0009
293.15	469.5	0.1483	0.0011
293.15	516.5	0.1648	0.0012
303.15	33.3	0.0085	0.0004
303.15	79.2	0.0201	0.0004
303.15	128.3	0.0324	0.0004
303.15	173.1	0.0437	0.0005
303.15	231.9	0.0587	0.0005
303.15	273.1	0.0693	0.0006
303.15	324.8	0.0829	0.0006
303.15	377.6	0.0968	0.0007
303.15	426.7	0.1099	0.0008
303.15	478.2	0.1239	0.0009
303.15	519.4	0.1352	0.001
313.15	37.8	0.0079	0.0003
313.15	84.7	0.0177	0.0003
313.15	129.8	0.0272	0.0004
313.15	180.1	0.0378	0.0004
313.15	227	0.0479	0.0004
313.15	282.2	0.0596	0.0005
313.15	331.7	0.0701	0.0005
313.15	375.8	0.0797	0.0006
313.15	431.1	0.0919	0.0007
313.15	483.7	0.1037	0.0007
313.15	532.2	0.1145	0.0008
323.15	37.8	0.0066	0.0003
323.15	89.1	0.0156	0.0003
323.15	133.7	0.0234	0.0003
323.15	184.2	0.0322	0.0004
323.15	233.7	0.041	0.0004
323.15	283.4	0.0498	0.0004
323.15	338.9	0.0597	0.0005
323.15	390.2	0.069	0.0005
323.15	436	0.0773	0.0006
323.15	479.1	0.0852	0.0006
323.15	535.3	0.0956	0.0007

System: sulfuryl difluoride + 2-(2-ethoxyethoxy)ethyl acetate; phases: Liquid, Gas
Property: Mole fraction of sulfuryl difluoride (Liquid); method: Phase equilibration
Temperature, K	Pressure, kPa	Mole fraction of sulfuryl difluoride	uncertainty
293.15	32.5	0.0085	0.0004
293.15	76.5	0.0197	0.0004
293.15	124.4	0.0318	0.0004
293.15	172.9	0.0442	0.0005
293.15	222.7	0.057	0.0005
293.15	272.4	0.0697	0.0006
293.15	324.3	0.0831	0.0006
293.15	370.5	0.0955	0.0007
293.15	422.8	0.1096	0.0008
293.15	474.8	0.1239	0.0009
293.15	521.5	0.137	0.001
303.15	44.3	0.01	0.0003
303.15	83.3	0.0185	0.0004
303.15	130	0.0288	0.0004
303.15	178.8	0.0394	0.0004
303.15	227.7	0.05	0.0004
303.15	277	0.0608	0.0005
303.15	326.1	0.0714	0.0005
303.15	376.4	0.0826	0.0006
303.15	428.4	0.0943	0.0007
303.15	476.9	0.1051	0.0007
303.15	526	0.116	0.0008
313.15	36.1	0.0067	0.0003
313.15	82.1	0.0154	0.0003
313.15	132.8	0.0248	0.0003
313.15	183.9	0.0343	0.0004
313.15	232.9	0.0433	0.0004
313.15	286.6	0.0533	0.0004
313.15	332.2	0.0617	0.0005
313.15	381.6	0.071	0.0005
313.15	429.3	0.0798	0.0006
313.15	480.4	0.0895	0.0006
313.15	526.9	0.0981	0.0007
323.15	44.3	0.0072	0.0003
323.15	88.4	0.0143	0.0003
323.15	135.2	0.022	0.0003
323.15	183.8	0.0297	0.0003
323.15	235.8	0.038	0.0004
323.15	284	0.0458	0.0004
323.15	336.7	0.0543	0.0004
323.15	382.6	0.0617	0.0005
323.15	432.8	0.0698	0.0005
323.15	483.3	0.0778	0.0005
323.15	534.6	0.086	0.0006
