Measured thermophysical data. Phase Equilibria in the Aqueous Ternary Systems (NaCl + NaBO2 + H2O) and (Na2SO4 + NaBO2 + H2O) at 298.15 K and 0.1 MPa
Source: J. Chem. Eng. Data, 2018, 10.1021/acs.jced.8b00715
Compound 1: sodium chloride, ClNa, InChI=1S/ClH.Na/h1H;/q;+1/p-1, purity 99%
Compound 2: sodium metaborate, BNaO2, InChI=1S/BO2.Na/c2-1-3;/q-1;+1, purity 99%
Compound 3: water, H2O, InChI=1S/H2O/h1H2, purity 99.9%
Compound 4: sodium sulfate, Na2O4S, InChI=1S/2Na.H2O4S/c;;1-5(2,3)4/h;;(H2,1,2,3,4)/q2*+1;/p-2, purity 99%

System: sodium chloride + sodium metaborate + water; phases: Liquid, Crystal of intercomponent compound 1
Fixed: Temperature, K = 298.15
Fixed: Pressure, kPa = 100
Property: Mass fraction of sodium metaborate (Liquid); method: titration and gravimetry
Mass fraction of sodium chloride	Mass fraction of sodium metaborate	uncertainty
0	0.2259	0.0013
0.0291	0.213	0.0047
0.0567	0.1902	0.0044
0.097	0.1723	0.0024
0.1254	0.1713	0.0012

System: sodium chloride + sodium metaborate + water; phases: Liquid, Crystal of intercomponent compound 2
Fixed: Temperature, K = 298.15
Fixed: Pressure, kPa = 100
Property: Mass fraction of sodium metaborate (Liquid); method: titration and gravimetry
Mass fraction of sodium chloride	Mass fraction of sodium metaborate	uncertainty
0.1254	0.1713	0.0102
0.1269	0.1682	0.01
0.158	0.1254	0.01
0.1802	0.095	0.0068
0.2177	0.0684	0.0053
0.2348	0.0557	0.0055

System: sodium chloride + sodium metaborate + water; phases: Liquid, Crystal
Fixed: Temperature, K = 298.15
Fixed: Pressure, kPa = 100
Property: Mass fraction of sodium metaborate (Liquid); method: titration and gravimetry
Mass fraction of sodium chloride	Mass fraction of sodium metaborate	uncertainty
0.2348	0.0557	0.0012
0.238	0.0537	0.0012
0.2473	0.0322	0.0012
0.2645	0	

System: sodium chloride + sodium metaborate + water; phases: Liquid
Fixed: Temperature, K = 298.15
Fixed: Pressure, kPa = 100
Property: Refractive index (Na D-line) (Liquid); method: Standard Abbe refractometry
Mass fraction of sodium chloride	Mass fraction of sodium metaborate	Refractive index (Na D-line)	uncertainty
0	0.2259	1.3872	0.0007
0.0291	0.213	1.3884	0.0007
0.0567	0.1902	1.3895	0.0014
0.097	0.1723	1.393	0.0016
0.1254	0.1713	1.3981	0.0017
0.1269	0.1682	1.3968	0.0017
0.158	0.1254	1.3919	0.0014
0.1802	0.095	1.3882	0.0013
0.2177	0.0684	1.3876	0.0017
0.2348	0.0557	1.388	0.0021
0.238	0.0537	1.3882	0.0021
0.2473	0.0322	1.3846	0.0014
0.2645	0	1.3796	0.0015

System: sodium chloride + sodium metaborate + water; phases: Liquid
Fixed: Temperature, K = 298.15
Fixed: Pressure, kPa = 100
Property: Mass density, kg/m3 (Liquid); method: Vibrating tube method
Mass fraction of sodium chloride	Mass fraction of sodium metaborate	Mass density, kg/m3	uncertainty
0	0.2259	1267.8	1.1
0.0291	0.213	1270.97	1.09
0.0567	0.1902	1276.62	4.62
0.097	0.1723	1291.49	5.21
0.1254	0.1713	1309.66	4.83
0.1269	0.1682	1309.53	4.83
0.158	0.1254	1276.01	4.35
0.1802	0.095	1256.25	3.49
0.2177	0.0684	1246.82	7.29
0.2348	0.0557	1246.23	61.96
0.238	0.0537	1250.4	61.96
0.2473	0.0322	1226.43	7.54
0.2645	0	1198.1	5.56

System: sodium sulfate + sodium metaborate + water; phases: Liquid, Crystal of intercomponent compound 1
Fixed: Temperature, K = 298.15
Fixed: Pressure, kPa = 100
Property: Mass fraction of sodium metaborate (Liquid); method: titration and gravimetry
Mass fraction of sodium sulfate	Mass fraction of sodium metaborate	uncertainty
0	0.2259	0.0013
0.0575	0.1977	0.0052
0.0966	0.1836	0.0045
0.1309	0.1699	0.0042
0.1815	0.1531	0.0035
0.2222	0.1439	0.0028

System: sodium sulfate + sodium metaborate + water; phases: Liquid, Crystal of intercomponent compound 2
Fixed: Temperature, K = 298.15
Fixed: Pressure, kPa = 100
Property: Mass fraction of sodium metaborate (Liquid); method: titration and gravimetry
Mass fraction of sodium sulfate	Mass fraction of sodium metaborate	uncertainty
0.2222	0.1439	0.0012
0.2072	0.1032	0.0012
0.2073	0.0722	0.0012
0.2113	0.0494	0.0012
0.2146	0.0217	0.0012
0.219	0	

System: sodium sulfate + sodium metaborate + water; phases: Liquid
Fixed: Temperature, K = 298.15
Fixed: Pressure, kPa = 100
Property: Refractive index (Na D-line) (Liquid); method: Standard Abbe refractometry
Mass fraction of sodium sulfate	Mass fraction of sodium metaborate	Refractive index (Na D-line)	uncertainty
0	0.2259	1.3872	0.0007
0.0575	0.1977	1.3898	0.0009
0.0966	0.1836	1.3917	0.0017
0.1309	0.1699	1.3938	0.0021
0.1815	0.1531	1.3971	0.0016
0.2222	0.1439	1.3994	0.0016
0.2072	0.1032	1.3861	0.0009
0.2073	0.0722	1.3821	0.0014
0.2113	0.0494	1.3748	0.0023
0.219	0	1.3626	0.002

System: sodium sulfate + sodium metaborate + water; phases: Liquid
Fixed: Temperature, K = 298.15
Fixed: Pressure, kPa = 100
Property: Mass density, kg/m3 (Liquid); method: Vibrating tube method
Mass fraction of sodium sulfate	Mass fraction of sodium metaborate	Mass density, kg/m3	uncertainty
0	0.2259	1267.8	1.06
0.0575	0.1977	1302.44	7.18
0.0966	0.1836	1326.8	13.1
0.1309	0.1699	1349.96	14.96
0.1815	0.1531	1388.21	13
0.2222	0.1439	1417.91	13
0.2072	0.1032	1330.4	7.88
0.2073	0.0722	1302.91	11.01
0.2113	0.0494	1266.12	15.02
0.219	0	1204.85	13.51

System: sodium metaborate + water; phases: Liquid, Crystal of intercomponent compound 1
Property: Mass fraction of sodium metaborate (Liquid); method: titration and gravimetry
Temperature, K	Pressure, kPa	Mass fraction of sodium metaborate	uncertainty
298.15	100	0.2259	0.0013

System: sodium metaborate + water; phases: Liquid
Property: Refractive index (Na D-line) (Liquid); method: Standard Abbe refractometry
Mass fraction of sodium metaborate	Temperature, K	Pressure, kPa	Refractive index (Na D-line)	uncertainty
0.2259	298.15	100	1.3872	0.0007

System: sodium metaborate + water; phases: Liquid
Property: Mass density, kg/m3 (Liquid); method: Vibrating tube method
Mass fraction of sodium metaborate	Temperature, K	Pressure, kPa	Mass density, kg/m3	uncertainty
0.2259	298.15	100	1267.8	1.1

System: sodium chloride + water; phases: Liquid, Crystal
Property: Mass fraction of sodium chloride (Liquid); method: titration and gravimetry
Temperature, K	Pressure, kPa	Mass fraction of sodium chloride	uncertainty
298.15	100	0.2645	

System: sodium chloride + water; phases: Liquid
Property: Refractive index (Na D-line) (Liquid); method: Standard Abbe refractometry
Mass fraction of sodium chloride	Temperature, K	Pressure, kPa	Refractive index (Na D-line)	uncertainty
0.2645	298.15	100	1.3796	0.0015

System: sodium chloride + water; phases: Liquid
Property: Mass density, kg/m3 (Liquid); method: Vibrating tube method
Mass fraction of sodium chloride	Temperature, K	Pressure, kPa	Mass density, kg/m3	uncertainty
0.2645	298.15	100	1198.1	5.56

System: sodium sulfate + water; phases: Liquid, Crystal of intercomponent compound 2
Property: Mass fraction of sodium sulfate (Liquid); method: titration and gravimetry
Temperature, K	Pressure, kPa	Mass fraction of sodium sulfate	uncertainty
298.15	100	0.219	

System: sodium sulfate + water; phases: Liquid
Property: Refractive index (Na D-line) (Liquid); method: Standard Abbe refractometry
Mass fraction of sodium sulfate	Temperature, K	Pressure, kPa	Refractive index (Na D-line)	uncertainty
0.219	298.15	100	1.3626	0.002

System: sodium sulfate + water; phases: Liquid
Property: Mass density, kg/m3 (Liquid); method: Vibrating tube method
Mass fraction of sodium sulfate	Temperature, K	Pressure, kPa	Mass density, kg/m3	uncertainty
0.219	298.15	100	1204.85	13.51
