Measured thermophysical data. Thermodynamic Properties Determination and Modeling of the (CaCl2 + Ca(NO3)2 + l-Glutamine + H2O) System Using Potentiometric Measurements at T = (293.2, 303.2, and 313.2) K
Source: J. Chem. Eng. Data, 2018, 10.1021/acs.jced.7b00593
Compound 1: calcium chloride, CaCl2, InChI=1S/Ca.2ClH/h;2*1H/q+2;;/p-2, purity 99%
Compound 2: L-glutamine, C5H10N2O3, InChI=1S/C5H10N2O3/c6-3(5(9)10)1-2-4(7)8/h3H,1-2,6H2,(H2,7,8)(H,9,10)/t3-/m0/s1, purity 99%
Compound 3: water, H2O, InChI=1S/H2O/h1H2, purity 99.8%
Compound 4: calcium nitrate, CaN2O6, InChI=1S/Ca.2NO3/c;2*2-1(3)4/q+2;2*-1, purity 99%

System: calcium chloride + L-glutamine + water; phases: Liquid
Fixed: Pressure, kPa = 100
Property: Mean ionic activity coefficient of calcium chloride (Liquid); method: potentiometry
Solvent: Molality, mol/kg of L-glutamine	Temperature, K	Molality, mol/kg of calcium chloride	Mean ionic activity coefficient of calcium chloride	uncertainty
0.1755	293.2	0.0039	1.0587	0.0562
0.1754	293.2	0.0173	0.8246	0.0534
0.1753	293.2	0.033	0.7576	0.0534
0.175	293.2	0.0828	0.6858	0.0534
0.1744	293.2	0.1654	0.6196	0.0534
0.1739	293.2	0.2475	0.6051	0.0534
0.1734	293.2	0.3292	0.5945	0.0534
0.1728	293.2	0.4103	0.5947	0.0534
0.1723	293.2	0.491	0.5989	0.0534
0.1718	293.2	0.5712	0.6033	0.0534
0.1713	293.2	0.6509	0.6089	0.0534
0.1703	293.2	0.8089	0.6342	0.0534
0.1692	293.2	0.9651	0.6649	0.0534
0.1682	293.2	1.1195	0.6908	0.0534
0.1673	293.2	1.2722	0.7441	0.0534
0.1755	303.2	0.0039	1.0376	0.0552
0.1754	303.2	0.0166	0.8256	0.0534
0.1753	303.2	0.0332	0.7834	0.0534
0.175	303.2	0.0831	0.6644	0.0534
0.1744	303.2	0.1659	0.6403	0.0534
0.1739	303.2	0.248	0.5875	0.0534
0.1734	303.2	0.3296	0.5418	0.0534
0.1728	303.2	0.4109	0.5355	0.0534
0.1723	303.2	0.4916	0.5323	0.0534
0.1718	303.2	0.5718	0.5353	0.0534
0.1713	303.2	0.6516	0.536	0.0534
0.1703	303.2	0.8097	0.5433	0.0534
0.1692	303.2	0.9661	0.5643	0.0534
0.1682	303.2	1.1206	0.5897	0.0534
0.1673	303.2	1.2733	0.6395	0.0534
0.1755	313.2	0.0039	0.9144	0.0534
0.1754	313.2	0.0204	0.7568	0.0534
0.1753	313.2	0.0333	0.8062	0.0534
0.175	313.2	0.0829	0.6779	0.0534
0.1744	313.2	0.1658	0.6175	0.0534
0.1738	313.2	0.2561	0.6	0.0534
0.1734	313.2	0.3295	0.575	0.0534
0.1728	313.2	0.4106	0.5585	0.0534
0.1723	313.2	0.4912	0.5331	0.0534
0.1718	313.2	0.5714	0.5178	0.0534
0.1713	313.2	0.651	0.508	0.0534
0.1703	313.2	0.8091	0.4882	0.0534
0.1692	313.2	0.9652	0.4824	0.0534
0.1682	313.2	1.1196	0.5142	0.0534
0.1673	313.2	1.2722	0.5536	0.0534

System: calcium nitrate + L-glutamine + water; phases: Liquid
Fixed: Pressure, kPa = 100
Property: Mean ionic activity coefficient of calcium nitrate (Liquid); method: potentiometry
Solvent: Molality, mol/kg of L-glutamine	Temperature, K	Molality, mol/kg of calcium nitrate	Mean ionic activity coefficient of calcium nitrate	uncertainty
0.1755	293.2	0.0023	0.9522	0.0534
0.1753	293.2	0.0167	0.8047	0.0534
0.1751	293.2	0.0332	0.7684	0.0534
0.1744	293.2	0.0828	0.6628	0.0534
0.1734	293.2	0.1647	0.6367	0.0534
0.1723	293.2	0.2456	0.6124	0.0534
0.1713	293.2	0.3255	0.6014	0.0534
0.1703	293.2	0.4046	0.5843	0.0534
0.1692	293.2	0.4827	0.5818	0.0534
0.1682	293.2	0.5598	0.5769	0.0534
0.1671	293.2	0.6464	0.5599	0.0534
0.1653	293.2	0.7861	0.5578	0.0534
0.1634	293.2	0.9327	0.5442	0.0534
0.1616	293.2	1.0762	0.5622	0.0534
0.1755	303.2	0.0033	0.9185	0.0534
0.1753	303.2	0.0168	0.8318	0.0534
0.1751	303.2	0.0332	0.7664	0.0534
0.1744	303.2	0.083	0.6797	0.0534
0.1734	303.2	0.1647	0.6179	0.0534
0.1723	303.2	0.2455	0.5887	0.0534
0.1713	303.2	0.3255	0.566	0.0534
0.1703	303.2	0.4044	0.554	0.0534
0.1692	303.2	0.4826	0.528	0.0534
0.1682	303.2	0.5597	0.5207	0.0534
0.1673	303.2	0.6361	0.5165	0.0534
0.1653	303.2	0.7861	0.4725	0.0534
0.1634	303.2	0.9328	0.4787	0.0534
0.1616	303.2	1.0762	0.4719	0.0534
0.1598	303.2	1.2165	0.4557	0.0534
0.1755	313.2	0.0033	0.9073	0.0534
0.1753	313.2	0.0167	0.8372	0.0534
0.1751	313.2	0.0334	0.7509	0.0534
0.1744	313.2	0.0829	0.6775	0.0534
0.1734	313.2	0.1648	0.6097	0.0534
0.1723	313.2	0.2456	0.5829	0.0534
0.1713	313.2	0.3255	0.557	0.0534
0.1703	313.2	0.4044	0.5274	0.0534
0.1692	313.2	0.4826	0.5077	0.0534
0.1682	313.2	0.5598	0.4955	0.0534
0.1673	313.2	0.6361	0.4793	0.0534
0.1653	313.2	0.7862	0.4416	0.0534
0.1634	313.2	0.9328	0.4314	0.0534
0.1616	313.2	1.0762	0.4347	0.0534
0.1598	313.2	1.2165	0.4315	0.0534
