Measured thermophysical data. Studies on Phase Equilibria in the Ternary System LiCl-SrCl2-H2O and the Quaternary System KCl-LiCl-SrCl2-H2O at 308 K
Source: J. Chem. Eng. Data, 2019, 10.1021/acs.jced.9b00421
Compound 1: lithium chloride, ClLi, InChI=1S/ClH.Li/h1H;/q;+1/p-1, purity 98.5%
Compound 2: potassium chloride, ClK, InChI=1S/ClH.K/h1H;/q;+1/p-1, purity 99.5%
Compound 3: strontium chloride, Cl2Sr, InChI=1S/2ClH.Sr/h2*1H;/q;;+2/p-2, purity 99.5%
Compound 4: water, H2O, InChI=1S/H2O/h1H2, purity 99.9%

System: lithium chloride + strontium chloride + water; phases: Liquid, Crystal of intercomponent compound 1
Fixed: Temperature, K = 308
Fixed: Pressure, kPa = 100
Property: Mass fraction of strontium chloride (Liquid); method: Titration method
Mass fraction of lithium chloride	Mass fraction of strontium chloride	uncertainty
0	0.3841	0.0039
0.0561	0.3003	0.0032
0.1398	0.1881	0.0025
0.2404	0.0868	0.0013
0.2618	0.0781	0.0013

System: lithium chloride + strontium chloride + water; phases: Liquid, Crystal of intercomponent compound 2
Fixed: Temperature, K = 308
Fixed: Pressure, kPa = 100
Property: Mass fraction of strontium chloride (Liquid); method: Titration method
Mass fraction of lithium chloride	Mass fraction of strontium chloride	uncertainty
0.2618	0.0781	0.0032
0.2963	0.0378	0.0024
0.3268	0.0278	0.0013
0.3743	0.0078	0.0012
0.3967	0.0058	0.0002
0.4619	0.0041	0.0028
0.4637	0.003	0.0028

System: lithium chloride + strontium chloride + water; phases: Liquid, Crystal of intercomponent compound 3
Fixed: Temperature, K = 308
Fixed: Pressure, kPa = 100
Property: Mass fraction of strontium chloride (Liquid); method: Titration method
Mass fraction of lithium chloride	Mass fraction of strontium chloride	uncertainty
0.4637	0.003	0.003
0.4667	0	

System: potassium chloride + strontium chloride + water; phases: Liquid, Crystal of intercomponent compound 1
Property: Mass fraction of strontium chloride (Liquid); method: Titration method
Temperature, K	Mass fraction of potassium chloride	Pressure, kPa	Mass fraction of strontium chloride	uncertainty
308	0.0724	100	0.3479	0.0036

System: potassium chloride + strontium chloride + water; phases: Liquid, Crystal
Property: Mass fraction of strontium chloride (Liquid); method: Titration method
Temperature, K	Mass fraction of potassium chloride	Pressure, kPa	Mass fraction of strontium chloride	uncertainty
308	0.0724	100	0.3479	0.0036

System: lithium chloride + potassium chloride + water; phases: Liquid, Crystal of intercomponent compound 1
Property: Mass fraction of potassium chloride (Liquid); method: Titration method
Temperature, K	Mass fraction of lithium chloride	Pressure, kPa	Mass fraction of potassium chloride	uncertainty
308	0.4552	100	0.0435	0.0004

System: lithium chloride + potassium chloride + water; phases: Liquid, Crystal
Property: Mass fraction of potassium chloride (Liquid); method: Titration method
Temperature, K	Mass fraction of lithium chloride	Pressure, kPa	Mass fraction of potassium chloride	uncertainty
308	0.4552	100	0.0435	0.0004

System: strontium chloride + water; phases: Liquid, Crystal of intercomponent compound 1
Property: Mass fraction of strontium chloride (Liquid); method: Titration method
Temperature, K	Pressure, kPa	Mass fraction of strontium chloride	uncertainty
308	100	0.3841	0.0039

System: lithium chloride + water; phases: Liquid, Crystal of intercomponent compound 3
Property: Solid-liquid equilibrium temperature, K (Liquid); method: Titration method
Mass fraction of lithium chloride	Pressure, kPa	Solid-liquid equilibrium temperature, K	uncertainty
0.4667	100	308	1
