Measured thermophysical data. Extraction of Citric Acid and Maleic Acid from Their Aqueous Solutions Using a Phosphorus-Bonded Extractant, Tri-n-octylphosphineoxide, and a Secondary Amine, Dioctylamine
Source: J. Chem. Eng. Data, 2018, 10.1021/acs.jced.7b00562
Compound 1: decane, C10H22, InChI=1S/C10H22/c1-3-5-7-9-10-8-6-4-2/h3-10H2,1-2H3, purity 94%
Compound 2: octane, C8H18, InChI=1S/C8H18/c1-3-5-7-8-6-4-2/h3-8H2,1-2H3, purity 99%
Compound 3: butan-1-ol, C4H10O, InChI=1S/C4H10O/c1-2-3-4-5/h5H,2-4H2,1H3, purity 99.5%
Compound 4: decan-1-ol, C10H22O, InChI=1S/C10H22O/c1-2-3-4-5-6-7-8-9-10-11/h11H,2-10H2,1H3, purity 99%
Compound 5: octan-1-ol, C8H18O, InChI=1S/C8H18O/c1-2-3-4-5-6-7-8-9/h9H,2-8H2,1H3, purity 99%
Compound 6: 3-methylbutan-1-ol, C5H12O, InChI=1S/C5H12O/c1-5(2)3-4-6/h5-6H,3-4H2,1-2H3, purity 98%
Compound 7: butanone, C4H8O, InChI=1S/C4H8O/c1-3-4(2)5/h3H2,1-2H3, purity 99%
Compound 8: 4-methylpentan-2-one, C6H12O, InChI=1S/C6H12O/c1-5(2)4-6(3)7/h5H,4H2,1-3H3, purity 99%
Compound 9: 2,6-dimethyl-4-heptanone, C9H18O, InChI=1S/C9H18O/c1-7(2)5-9(10)6-8(3)4/h7-8H,5-6H2,1-4H3, purity 96%
Compound 10: citric acid, C6H8O7, InChI=1S/C6H8O7/c7-3(8)1-6(13,5(11)12)2-4(9)10/h13H,1-2H2,(H,7,8)(H,9,10)(H,11,12), purity 99%
Compound 11: cis-1,4-butenedioic acid, C4H4O4, InChI=1S/C4H4O4/c5-3(6)1-2-4(7)8/h1-2H,(H,5,6)(H,7,8)/b2-1-, purity 99%
Compound 12: water, H2O, InChI=1S/H2O/h1H2, purity 99.8%

System: butan-1-ol + citric acid + water; phases: Liquid mixture 1, Liquid mixture 2
Property: Molality, mol/kg of citric acid (Liquid mixture 1); method: titration
Molality, mol/kg of citric acid	Temperature, K	Pressure, kPa	Molality, mol/kg of citric acid	uncertainty
0.368	298.15	100	0.085	0.02

System: decan-1-ol + citric acid + water; phases: Liquid mixture 1, Liquid mixture 2
Property: Molality, mol/kg of citric acid (Liquid mixture 1); method: titration
Molality, mol/kg of citric acid	Temperature, K	Pressure, kPa	Molality, mol/kg of citric acid	uncertainty
0.447	298.15	100	0.005	0.005

System: 3-methylbutan-1-ol + citric acid + water; phases: Liquid mixture 1, Liquid mixture 2
Property: Molality, mol/kg of citric acid (Liquid mixture 1); method: titration
Molality, mol/kg of citric acid	Temperature, K	Pressure, kPa	Molality, mol/kg of citric acid	uncertainty
0.443	298.15	100	0.009	0.009

System: 4-methylpentan-2-one + citric acid + water; phases: Liquid mixture 1, Liquid mixture 2
Property: Molality, mol/kg of citric acid (Liquid mixture 1); method: titration
Molality, mol/kg of citric acid	Temperature, K	Pressure, kPa	Molality, mol/kg of citric acid	uncertainty
0.444	298.15	100	0.009	0.009

System: octan-1-ol + citric acid + water; phases: Liquid mixture 1, Liquid mixture 2
Property: Molality, mol/kg of citric acid (Liquid mixture 1); method: titration
Molality, mol/kg of citric acid	Temperature, K	Pressure, kPa	Molality, mol/kg of citric acid	uncertainty
0.448	298.15	100	0.005	0.005

System: octane + citric acid + water; phases: Liquid mixture 1, Liquid mixture 2
Property: Molality, mol/kg of citric acid (Liquid mixture 1); method: titration
Molality, mol/kg of citric acid	Temperature, K	Pressure, kPa	Molality, mol/kg of citric acid	uncertainty
0.45	298.15	100	0.002	0.002

System: decane + citric acid + water; phases: Liquid mixture 1, Liquid mixture 2
Property: Molality, mol/kg of citric acid (Liquid mixture 1); method: titration
Molality, mol/kg of citric acid	Temperature, K	Pressure, kPa	Molality, mol/kg of citric acid	uncertainty
0.442	298.15	100	0.011	0.011

System: 2,6-dimethyl-4-heptanone + citric acid + water; phases: Liquid mixture 1, Liquid mixture 2
Property: Molality, mol/kg of citric acid (Liquid mixture 1); method: titration
Molality, mol/kg of citric acid	Temperature, K	Pressure, kPa	Molality, mol/kg of citric acid	uncertainty
0.448	298.15	100	0.005	0.005

System: butanone + citric acid + water; phases: Liquid mixture 1, Liquid mixture 2
Property: Molality, mol/kg of citric acid (Liquid mixture 1); method: titration
Molality, mol/kg of citric acid	Temperature, K	Pressure, kPa	Molality, mol/kg of citric acid	uncertainty
0.292	298.15	100	0.161	0.02

System: butan-1-ol + cis-1,4-butenedioic acid + water; phases: Liquid mixture 1, Liquid mixture 2
Property: Molality, mol/kg of cis-1,4-butenedioic acid (Liquid mixture 1); method: titration
Molality, mol/kg of cis-1,4-butenedioic acid	Temperature, K	Pressure, kPa	Molality, mol/kg of cis-1,4-butenedioic acid	uncertainty
0.395	298.15	100	0.354	0.021

System: decan-1-ol + cis-1,4-butenedioic acid + water; phases: Liquid mixture 1, Liquid mixture 2
Property: Molality, mol/kg of cis-1,4-butenedioic acid (Liquid mixture 1); method: titration
Molality, mol/kg of cis-1,4-butenedioic acid	Temperature, K	Pressure, kPa	Molality, mol/kg of cis-1,4-butenedioic acid	uncertainty
0.674	298.15	100	0.075	0.02

System: 3-methylbutan-1-ol + cis-1,4-butenedioic acid + water; phases: Liquid mixture 1, Liquid mixture 2
Property: Molality, mol/kg of cis-1,4-butenedioic acid (Liquid mixture 1); method: titration
Molality, mol/kg of cis-1,4-butenedioic acid	Temperature, K	Pressure, kPa	Molality, mol/kg of cis-1,4-butenedioic acid	uncertainty
0.484	298.15	100	0.265	0.021

System: 4-methylpentan-2-one + cis-1,4-butenedioic acid + water; phases: Liquid mixture 1, Liquid mixture 2
Property: Molality, mol/kg of cis-1,4-butenedioic acid (Liquid mixture 1); method: titration
Molality, mol/kg of cis-1,4-butenedioic acid	Temperature, K	Pressure, kPa	Molality, mol/kg of cis-1,4-butenedioic acid	uncertainty
0.586	298.15	100	0.163	0.02

System: octan-1-ol + cis-1,4-butenedioic acid + water; phases: Liquid mixture 1, Liquid mixture 2
Property: Molality, mol/kg of cis-1,4-butenedioic acid (Liquid mixture 1); method: titration
Molality, mol/kg of cis-1,4-butenedioic acid	Temperature, K	Pressure, kPa	Molality, mol/kg of cis-1,4-butenedioic acid	uncertainty
0.637	298.15	100	0.112	0.02

System: octane + cis-1,4-butenedioic acid + water; phases: Liquid mixture 1, Liquid mixture 2
Property: Molality, mol/kg of cis-1,4-butenedioic acid (Liquid mixture 1); method: titration
Molality, mol/kg of cis-1,4-butenedioic acid	Temperature, K	Pressure, kPa	Molality, mol/kg of cis-1,4-butenedioic acid	uncertainty
0.737	298.15	100	0.012	0.012

System: decane + cis-1,4-butenedioic acid + water; phases: Liquid mixture 1, Liquid mixture 2
Property: Molality, mol/kg of cis-1,4-butenedioic acid (Liquid mixture 1); method: titration
Molality, mol/kg of cis-1,4-butenedioic acid	Temperature, K	Pressure, kPa	Molality, mol/kg of cis-1,4-butenedioic acid	uncertainty
0.7	298.15	100	0.049	0.02

System: 2,6-dimethyl-4-heptanone + cis-1,4-butenedioic acid + water; phases: Liquid mixture 1, Liquid mixture 2
Property: Molality, mol/kg of cis-1,4-butenedioic acid (Liquid mixture 1); method: titration
Molality, mol/kg of cis-1,4-butenedioic acid	Temperature, K	Pressure, kPa	Molality, mol/kg of cis-1,4-butenedioic acid	uncertainty
0.073	298.15	100	0.019	0.019

System: butanone + cis-1,4-butenedioic acid + water; phases: Liquid mixture 1, Liquid mixture 2
Property: Molality, mol/kg of cis-1,4-butenedioic acid (Liquid mixture 1); method: titration
Molality, mol/kg of cis-1,4-butenedioic acid	Temperature, K	Pressure, kPa	Molality, mol/kg of cis-1,4-butenedioic acid	uncertainty
0.403	298.15	100	0.346	0.021
