Measured thermophysical data. Solubility and Caloric Properties of Cinnarizine
Source: J. Chem. Eng. Data, 2015, 10.1021/acs.jced.5b00075
Compound 1: cinnarizine, C26H28N2, InChI=1S/C26H28N2/c1-4-11-23(12-5-1)13-10-18-27-19-21-28(22-20-27)26(24-14-6-2-7-15-24)25-16-8-3-9-17-25/h1-17,26H,18-22H2/b13-10+
Compound 2: acetonitrile, C2H3N, InChI=1S/C2H3N/c1-2-3/h1H3
Compound 3: butyl ethanoate, C6H12O2, InChI=1S/C6H12O2/c1-3-4-5-8-6(2)7/h3-5H2,1-2H3
Compound 4: butan-1-ol, C4H10O, InChI=1S/C4H10O/c1-2-3-4-5/h5H,2-4H2,1H3
Compound 5: propan-2-ol, C3H8O, InChI=1S/C3H8O/c1-3(2)4/h3-4H,1-2H3
Compound 6: water, H2O, InChI=1S/H2O/h1H2

System: cinnarizine; phases: Crystal, Liquid, Air at 1 atmosphere
Property: Molar enthalpy of transition or fusion, kJ/mol (Crystal); method: DSC
Molar enthalpy of transition or fusion, kJ/mol	uncertainty
37.13	4.32

System: cinnarizine; phases: Crystal, Liquid, Air at 1 atmosphere
Property: Normal melting temperature, K (Crystal); method: DTA
Normal melting temperature, K	uncertainty
393.98	0.5

System: cinnarizine; phases: Liquid
Fixed: Pressure, kPa = 101.325
Property: Molar heat capacity at constant pressure, J/K/mol (Liquid); method: Small sample (50 mg) DSC
Temperature, K	Molar heat capacity at constant pressure, J/K/mol	uncertainty
400	558.85	35.49
405	563.97	35.51
410	569.09	35.52
415	574.21	35.54

System: cinnarizine; phases: Crystal
Fixed: Pressure, kPa = 101.325
Property: Molar heat capacity at constant pressure, J/K/mol (Crystal); method: Small sample (50 mg) DSC
Temperature, K	Molar heat capacity at constant pressure, J/K/mol	uncertainty
305	307.19	37.45
310	314.6	37.47
315	322.02	37.48
320	329.43	37.49
325	336.84	37.5
330	344.26	37.52
335	351.67	37.53
340	359.09	37.55
345	366.5	37.56
350	373.91	37.57
355	381.33	37.59
360	388.74	37.6
365	396.15	37.62
370	403.57	37.64
375	410.98	37.65
380	418.4	37.67
385	425.81	37.68

System: acetonitrile + cinnarizine; phases: Liquid, Crystal
Fixed: Pressure, kPa = 101
Property: Mole fraction of cinnarizine (Liquid); method: gravimetric
Temperature, K	Mole fraction of cinnarizine	uncertainty
288.5	0.000877	3.3e-05
293.5	0.00105	2e-05
298.5	0.00137	0.00016
303.3	0.00158	2e-05
308.3	0.00204	0.00018
313.2	0.00273	0.00031

System: butan-1-ol + cinnarizine; phases: Liquid, Crystal
Fixed: Pressure, kPa = 101
Property: Mole fraction of cinnarizine (Liquid); method: gravimetric
Temperature, K	Mole fraction of cinnarizine	uncertainty
288.5	0.00273	0.00054
293.5	0.00351	0.00013
298.5	0.00412	6e-05
303.3	0.00499	0.00011
308.3	0.00607	0.00026
313.2	0.00804	0.00057

System: butyl ethanoate + cinnarizine; phases: Liquid, Crystal
Fixed: Pressure, kPa = 101
Property: Mole fraction of cinnarizine (Liquid); method: gravimetric
Temperature, K	Mole fraction of cinnarizine	uncertainty
288.5	0.0153	0.0013
293.5	0.0197	0.0014
298.5	0.0226	0.0005
303.3	0.0272	0.0002
308.3	0.0337	0.0008
313.2	0.0425	0.0003

System: propan-2-ol + cinnarizine; phases: Liquid, Crystal
Fixed: Pressure, kPa = 101
Property: Mole fraction of cinnarizine (Liquid); method: gravimetric
Temperature, K	Mole fraction of cinnarizine	uncertainty
288.5	0.00064	9.8e-05
293.5	0.000811	0.000131
298.5	0.000994	6.1e-05
303.3	0.00127	9e-05
308.3	0.00165	8e-05
313.2	0.00208	0.00018

System: cinnarizine + water; phases: Liquid, Crystal
Fixed: Pressure, kPa = 101
Property: Mole fraction of cinnarizine (Liquid); method: UV spectroscopy
Temperature, K	Mole fraction of cinnarizine	uncertainty
288.8	5.23e-08	1.29e-08
298.5	5.61e-08	1.75e-08
298.3	6.63e-08	3.09e-08
303	7.71e-08	3.2e-09
307.8	9.35e-08	1.09e-08
309.7	1.22e-07	1.3e-08
312.6	1.32e-07	9e-09
