Measured thermophysical data. Density, Viscosity and N2O solubility of Aqueous 2- (methylamino)ethanol Solution
Source: J. Chem. Eng. Data, 2017, 10.1021/acs.jced.6b00504
Compound 1: 2-(methylamino)ethanol, C3H9NO, InChI=1S/C3H9NO/c1-4-2-3-5/h4-5H,2-3H2,1H3
Compound 2: water, H2O, InChI=1S/H2O/h1H2, purity 99.8%
Compound 3: carbon dioxide, CO2, InChI=1S/CO2/c2-1-3
Compound 4: nitrous oxide, N2O, InChI=1S/N2O/c1-2-3

System: 2-(methylamino)ethanol + water; phases: Liquid
Fixed: Pressure, kPa = 100
Property: Mass density, kg/m3 (Liquid); method: Vibrating tube method
Temperature, K	Mass fraction of 2-(methylamino)ethanol	Mass density, kg/m3	uncertainty
293.15	0.075	997.66	5.84
298.15	0.075	996.35	5.84
303.15	0.075	994.81	5.84
308.15	0.075	993.06	5.84
313.15	0.075	991.11	5.84
318.15	0.075	988.99	5.84
323.15	0.075	986.7	5.84
293.15	0.15	997.93	5.84
298.15	0.15	996.35	5.84
303.15	0.15	994.57	5.84
308.15	0.15	992.6	5.84
313.15	0.15	990.45	5.84
318.15	0.15	988.13	5.84
323.15	0.15	985.66	5.84
293.15	0.225	999	5.84
298.15	0.225	997.03	5.84
303.15	0.225	994.9	5.84
308.15	0.225	992.58	5.84
313.15	0.225	990.11	5.84
318.15	0.225	987.49	5.84
323.15	0.225	984.71	5.84
293.15	0.3	1001.69	5.84
298.15	0.3	999.21	5.84
303.15	0.3	996.58	5.84
308.15	0.3	993.8	5.84
313.15	0.3	990.81	5.84
318.15	0.3	987.7	5.84
323.15	0.3	984.5	5.84

System: 2-(methylamino)ethanol + water; phases: Liquid
Fixed: Pressure, kPa = 100
Property: Viscosity, Pa*s (Liquid); method: Falling or rolling sphere viscometry
Temperature, K	Mass fraction of 2-(methylamino)ethanol	Viscosity, Pa*s	uncertainty
293.15	0.075	0.00139	1.2e-05
298.15	0.075	0.001217	1.1e-05
303.15	0.075	0.001075	1e-05
308.15	0.075	0.000958	9e-06
313.15	0.075	0.000859	8e-06
318.15	0.075	0.000777	7e-06
323.15	0.075	0.000707	6e-06
293.15	0.15	0.001875	1.7e-05
298.15	0.15	0.001639	1.5e-05
303.15	0.15	0.001426	1.3e-05
308.15	0.15	0.001263	1.1e-05
313.15	0.15	0.001151	1e-05
318.15	0.15	0.001022	9e-06
323.15	0.15	0.000993	9e-06
293.15	0.225	0.002702	2.4e-05
298.15	0.225	0.002367	2.1e-05
303.15	0.225	0.00202	1.8e-05
308.15	0.225	0.001744	1.6e-05
313.15	0.225	0.001521	1.4e-05
318.15	0.225	0.001409	1.3e-05
323.15	0.225	0.001299	1.2e-05
293.15	0.3	0.003973	3.6e-05
298.15	0.3	0.003335	3e-05
303.15	0.3	0.002886	2.6e-05
308.15	0.3	0.002461	2.2e-05
313.15	0.3	0.002157	1.9e-05
318.15	0.3	0.001902	1.7e-05
323.15	0.3	0.001727	1.6e-05

System: 2-(methylamino)ethanol + carbon dioxide + water; phases: Liquid
Fixed: Pressure, kPa = 100
Property: Mass density, kg/m3 (Liquid); method: Vibrating tube method
Temperature, K	Solvent: Mass fraction of 2-(methylamino)ethanol	Molality, mol/kg of carbon dioxide	Mass density, kg/m3	uncertainty
293.15	0.075	0	997.66	8.42
293.15	0.075	0.102	1003.69	8.61
293.15	0.075	0.164	1008.17	8.58
293.15	0.075	0.256	1013.18	8.16
293.15	0.075	0.358	1019.88	8.12
293.15	0.075	0.4	1023	7.98
293.15	0.075	0.475	1024.69	7.86
293.15	0.075	0.549	1026.54	7.41
293.15	0.075	0.645	1034.36	7.46
298.15	0.075	0	996.35	8.37
298.15	0.075	0.102	1002.33	8.57
298.15	0.075	0.164	1006.76	8.69
298.15	0.075	0.256	1011.61	8.08
298.15	0.075	0.358	1018.29	8.02
298.15	0.075	0.4	1021.37	7.87
298.15	0.075	0.475	1023.06	8.04
298.15	0.075	0.549	1024.93	7.53
298.15	0.075	0.645	1032.27	7.18
303.15	0.075	0	994.81	8.32
303.15	0.075	0.102	1000.74	8.5
303.15	0.075	0.164	1005.13	8.6
303.15	0.075	0.256	1009.91	8.03
303.15	0.075	0.358	1016.48	8.3
303.15	0.075	0.4	1019.53	8.2
303.15	0.075	0.475	1021.24	8
303.15	0.075	0.549	1023.12	7.51
303.15	0.075	0.645	1032.77	7.7
308.15	0.075	0	993.06	8.28
308.15	0.075	0.102	998.94	8.45
308.15	0.075	0.164	1003.29	8.55
308.15	0.075	0.256	1008.02	7.99
308.15	0.075	0.358	1014.5	8.3
308.15	0.075	0.4	1017.53	8.21
308.15	0.075	0.475	1019.24	7.96
308.15	0.075	0.549	1021.14	7.58
308.15	0.075	0.645	1030.98	7.75
313.15	0.075	0	991.11	8.24
313.15	0.075	0.102	996.96	8.4
313.15	0.075	0.164	1001.26	8.51
313.15	0.075	0.256	1005.93	8.3
313.15	0.075	0.358	1012.36	8.31
313.15	0.075	0.4	1015.38	8.22
313.15	0.075	0.475	1019.09	8.45
313.15	0.075	0.549	1019	7.47
313.15	0.075	0.645	1029.03	7.8
318.15	0.075	0	988.99	8.21
318.15	0.075	0.102	994.79	8.37
318.15	0.075	0.164	999.06	8.48
318.15	0.075	0.256	1003.69	7.95
318.15	0.075	0.358	1010.07	8.02
318.15	0.075	0.4	1013.07	7.9
318.15	0.075	0.475	1014.78	7.91
318.15	0.075	0.549	1016.7	7.55
318.15	0.075	0.645	1024.67	7.33
323.15	0.075	0	986.7	8.16
323.15	0.075	0.102	992.46	8.32
323.15	0.075	0.164	996.7	8.3
323.15	0.075	0.256	1001.29	7.96
323.15	0.075	0.358	1007.62	8.01
323.15	0.075	0.4	1010.6	7.9
323.15	0.075	0.475	1012.32	7.71
323.15	0.075	0.549	1014.25	7.33
323.15	0.075	0.645	1022.27	7.54
293.15	0.15	0	997.93	8.25
293.15	0.15	0.152	1006.44	8.35
293.15	0.15	0.208	1010.32	8.29
293.15	0.15	0.475	1025.97	7.22
293.15	0.15	0.62	1029.66	7.36
293.15	0.15	0.834	1037.74	7.29
293.15	0.15	1.036	1047.79	7.04
293.15	0.15	1.283	1055.48	6.62
293.15	0.15	1.358	1057.11	6.52
298.15	0.15	0	996.35	8.3
298.15	0.15	0.152	1004.83	7.95
298.15	0.15	0.208	1008.7	7.97
298.15	0.15	0.475	1022.26	7.2
298.15	0.15	0.62	1027.87	7.34
298.15	0.15	0.834	1035.85	7.26
298.15	0.15	1.036	1045.87	7.02
298.15	0.15	1.283	1053.6	6.62
298.15	0.15	1.358	1055.24	6.56
303.15	0.15	0	994.57	8.29
303.15	0.15	0.152	1003.01	7.94
303.15	0.15	0.208	1006.87	7.96
303.15	0.15	0.475	1020.35	7.18
303.15	0.15	0.62	1025.87	7.32
303.15	0.15	0.834	1033.78	7.25
303.15	0.15	1.036	1043.78	7.03
303.15	0.15	1.283	1051.54	6.62
303.15	0.15	1.358	1053.19	6.56
308.15	0.15	0	992.6	8.28
308.15	0.15	0.152	1001.01	7.89
308.15	0.15	0.208	1004.85	7.92
308.15	0.15	0.475	1018.26	7.16
308.15	0.15	0.62	1023.68	7.3
308.15	0.15	0.834	1031.56	7.24
308.15	0.15	1.036	1041.54	7.03
308.15	0.15	1.283	1049.34	6.63
308.15	0.15	1.358	1051	6.57
313.15	0.15	0	990.45	8.27
313.15	0.15	0.152	999.91	7.88
313.15	0.15	0.208	1002.67	7.93
313.15	0.15	0.475	1016	7.15
313.15	0.15	0.62	1021.32	7.28
313.15	0.15	0.834	1029.2	7.24
313.15	0.15	1.036	1039.17	7.03
313.15	0.15	1.283	1047.01	6.64
313.15	0.15	1.358	1048.69	6.58
318.15	0.15	0	988.13	8.27
318.15	0.15	0.152	996.49	7.87
318.15	0.15	0.208	1000.31	7.9
318.15	0.15	0.475	1013.58	7.14
318.15	0.15	0.62	1018.81	7.27
318.15	0.15	0.834	1026.72	7.24
318.15	0.15	1.036	1036.67	7.04
318.15	0.15	1.283	1044.56	6.65
318.15	0.15	1.358	1046.25	6.59
323.15	0.15	0	985.66	8.25
323.15	0.15	0.152	993.98	7.91
323.15	0.15	0.208	997.8	7.9
323.15	0.15	0.475	1011.03	7.14
323.15	0.15	0.62	1016.19	7.25
323.15	0.15	0.834	1024.1	7.24
323.15	0.15	1.036	1034.04	7.06
323.15	0.15	1.283	1041.99	6.67
323.15	0.15	1.358	1043.7	6.57
293.15	0.225	0	999	7.71
293.15	0.225	0.145	1006.43	7.83
293.15	0.225	0.367	1017.99	7.69
293.15	0.225	0.716	1035	7.27
293.15	0.225	1.107	1050.13	7.2
293.15	0.225	1.189	1055.17	7.19
293.15	0.225	1.497	1067.62	6.62
293.15	0.225	1.801	1073.45	6.15
293.15	0.225	1.976	1079.79	6.37
298.15	0.225	0	997.03	7.75
298.15	0.225	0.145	1004.42	7.84
298.15	0.225	0.367	1015.98	7.68
298.15	0.225	0.716	1033.01	7.26
298.15	0.225	1.107	1048.02	7.18
298.15	0.225	1.189	1053.01	7.18
298.15	0.225	1.497	1065.37	6.65
298.15	0.225	1.801	1071.25	6.15
298.15	0.225	1.976	1077.62	6.38
303.15	0.225	0	994.9	7.75
303.15	0.225	0.145	1002.23	7.84
303.15	0.225	0.367	1013.8	7.68
303.15	0.225	0.716	1030.83	7.25
303.15	0.225	1.107	1045.74	7.17
303.15	0.225	1.189	1050.69	7.16
303.15	0.225	1.497	1062.98	6.64
303.15	0.225	1.801	1068.9	6.15
303.15	0.225	1.976	1075.28	6.38
308.15	0.225	0	992.58	7.74
308.15	0.225	0.145	999.89	7.84
308.15	0.225	0.367	1011.46	7.68
308.15	0.225	0.716	1028.49	7.25
308.15	0.225	1.107	1043.33	7.16
308.15	0.225	1.189	1048.25	7.15
308.15	0.225	1.497	1060.5	6.64
308.15	0.225	1.801	1066.44	6.16
308.15	0.225	1.976	1072.83	6.38
313.15	0.225	0	990.11	7.75
313.15	0.225	0.145	997.41	7.84
313.15	0.225	0.367	1008.98	7.68
313.15	0.225	0.716	1026.02	7.24
313.15	0.225	1.107	1040.79	7.15
313.15	0.225	1.189	1045.69	7.14
313.15	0.225	1.497	1057.9	6.64
313.15	0.225	1.801	1063.87	6.16
313.15	0.225	1.976	1070.29	6.39
318.15	0.225	0	987.49	7.76
318.15	0.225	0.145	994.78	7.84
318.15	0.225	0.367	1006.36	7.69
318.15	0.225	0.716	1023.4	7.24
318.15	0.225	1.107	1038.14	7.14
318.15	0.225	1.189	1043.03	7.13
318.15	0.225	1.497	1055.21	6.64
318.15	0.225	1.801	1061.19	6.16
318.15	0.225	1.976	1067.64	6.39
323.15	0.225	0	984.71	7.66
323.15	0.225	0.145	992.02	7.7
323.15	0.225	0.367	1003.16	7.7
323.15	0.225	0.716	1020.67	7.28
323.15	0.225	1.107	1035.38	7.14
323.15	0.225	1.189	1040.25	7.12
323.15	0.225	1.497	1052.4	6.6
323.15	0.225	1.801	1058.42	6.17
323.15	0.225	1.976	1064.9	6.4
293.15	0.3	0	1001.69	7.12
293.15	0.3	0.358	1016.25	7.22
293.15	0.3	0.512	1024.17	7.22
293.15	0.3	1.017	1044.79	7.11
293.15	0.3	1.489	1063.8	7.22
293.15	0.3	1.588	1070.03	7.21
293.15	0.3	2.145	1092.5	7.1
298.15	0.3	0	999.21	7.14
298.15	0.3	0.358	1013.83	7.24
298.15	0.3	0.512	1021.77	7.22
298.15	0.3	1.017	1042.43	7.11
298.15	0.3	1.489	1061.41	7.22
298.15	0.3	1.588	1067.62	7.22
298.15	0.3	2.145	1090	7.09
303.15	0.3	0	996.58	7.15
303.15	0.3	0.358	1011.28	7.24
303.15	0.3	0.512	1019.23	7.23
303.15	0.3	1.017	1039.93	7.11
303.15	0.3	1.489	1058.89	7.21
303.15	0.3	1.588	1065.08	7.21
303.15	0.3	2.145	1087.4	7.08
308.15	0.3	0	993.8	7.17
308.15	0.3	0.358	1008.6	7.25
308.15	0.3	0.512	1016.57	7.24
308.15	0.3	1.017	1037.33	7.12
308.15	0.3	1.489	1056.26	7.21
308.15	0.3	1.588	1062.43	7.21
308.15	0.3	2.145	1084.73	7.08
313.15	0.3	0	990.81	7.2
313.15	0.3	0.358	1005.81	7.27
313.15	0.3	0.512	1013.79	7.26
313.15	0.3	1.017	1034.6	7.12
313.15	0.3	1.489	1053.54	7.2
313.15	0.3	1.588	1059.7	7.21
313.15	0.3	2.145	1081.97	7.08
318.15	0.3	0	987.7	7.23
318.15	0.3	0.358	1002.91	7.28
318.15	0.3	0.512	1010.9	7.27
318.15	0.3	1.017	1031.77	7.12
318.15	0.3	1.489	1050.72	7.2
318.15	0.3	1.588	1056.88	7.21
318.15	0.3	2.145	1079.12	7.07
323.15	0.3	0	984.5	7.25
323.15	0.3	0.358	999.9	7.29
323.15	0.3	0.512	1007.91	7.29
323.15	0.3	1.017	1028.84	7.13
323.15	0.3	1.489	1047.81	7.2
323.15	0.3	1.588	1053.96	7.19
323.15	0.3	2.145	1076.18	7.08

System: 2-(methylamino)ethanol + carbon dioxide + water; phases: Liquid
Fixed: Pressure, kPa = 100
Property: Viscosity, Pa*s (Liquid); method: Falling or rolling sphere viscometry
Temperature, K	Solvent: Mass fraction of 2-(methylamino)ethanol	Molality, mol/kg of carbon dioxide	Viscosity, Pa*s	uncertainty
293.15	0.075	0	0.00139	1.6e-05
293.15	0.075	0.102	0.001401	1.6e-05
293.15	0.075	0.164	0.001403	1.8e-05
293.15	0.075	0.256	0.001414	1.5e-05
293.15	0.075	0.358	0.001423	1.4e-05
293.15	0.075	0.4	0.00143	1.4e-05
293.15	0.075	0.475	0.001426	1.5e-05
293.15	0.075	0.549	0.001422	1.4e-05
293.15	0.075	0.645	0.001418	1.4e-05
298.15	0.075	0	0.001217	1.3e-05
298.15	0.075	0.102	0.001229	1.2e-05
298.15	0.075	0.164	0.001231	1.3e-05
298.15	0.075	0.256	0.001242	1.4e-05
298.15	0.075	0.358	0.00125	1.3e-05
298.15	0.075	0.4	0.001259	1.3e-05
298.15	0.075	0.475	0.001257	1.5e-05
298.15	0.075	0.549	0.001256	1.4e-05
298.15	0.075	0.645	0.001255	1.2e-05
303.15	0.075	0	0.001075	1.2e-05
303.15	0.075	0.102	0.001087	1.1e-05
303.15	0.075	0.164	0.001091	1.1e-05
303.15	0.075	0.256	0.001098	1.2e-05
303.15	0.075	0.358	0.001101	1.2e-05
303.15	0.075	0.4	0.00111	1.2e-05
303.15	0.075	0.475	0.001107	1.3e-05
303.15	0.075	0.549	0.001113	1.2e-05
303.15	0.075	0.645	0.001119	1.1e-05
308.15	0.075	0	0.000958	1.1e-05
308.15	0.075	0.102	0.000966	1e-05
308.15	0.075	0.164	0.000974	1e-05
308.15	0.075	0.256	0.000979	1e-05
308.15	0.075	0.358	0.000982	1.1e-05
308.15	0.075	0.4	0.000989	1e-05
308.15	0.075	0.475	0.000981	1e-05
308.15	0.075	0.549	0.000987	1e-05
308.15	0.075	0.645	0.000994	1e-05
313.15	0.075	0	0.000859	1e-05
313.15	0.075	0.102	0.000868	8e-06
313.15	0.075	0.164	0.000876	9e-06
313.15	0.075	0.256	0.000877	9e-06
313.15	0.075	0.358	0.000877	9e-06
313.15	0.075	0.4	0.000884	9e-06
313.15	0.075	0.475	0.000885	1e-05
313.15	0.075	0.549	0.000886	9e-06
313.15	0.075	0.645	0.000889	9e-06
318.15	0.075	0	0.000777	1e-05
318.15	0.075	0.102	0.000785	8e-06
318.15	0.075	0.164	0.000792	8e-06
318.15	0.075	0.256	0.000799	8e-06
318.15	0.075	0.358	0.000787	8e-06
318.15	0.075	0.4	0.000793	8e-06
318.15	0.075	0.475	0.000794	8e-06
318.15	0.075	0.549	0.000798	8e-06
318.15	0.075	0.645	0.000802	9e-06
323.15	0.075	0	0.000707	1.1e-05
323.15	0.075	0.102	0.000714	8e-06
323.15	0.075	0.164	0.000721	7e-06
323.15	0.075	0.256	0.000728	8e-06
323.15	0.075	0.358	0.000722	8e-06
323.15	0.075	0.4	0.000724	7e-06
323.15	0.075	0.475	0.000725	7e-06
323.15	0.075	0.549	0.000729	7e-06
323.15	0.075	0.645	0.000733	8e-06
293.15	0.15	0	0.001875	3.2e-05
293.15	0.15	0.152	0.001936	3.1e-05
293.15	0.15	0.208	0.001934	1.9e-05
293.15	0.15	0.475	0.001971	1.9e-05
293.15	0.15	0.62	0.001993	2.9e-05
293.15	0.15	0.834	0.002002	2e-05
293.15	0.15	1.036	0.002014	1.9e-05
293.15	0.15	1.283	0.002006	1.9e-05
293.15	0.15	1.358	0.002109	3.6e-05
298.15	0.15	0	0.001639	2.3e-05
298.15	0.15	0.152	0.001668	2.1e-05
298.15	0.15	0.208	0.00167	1.7e-05
298.15	0.15	0.475	0.00171	1.6e-05
298.15	0.15	0.62	0.00173	2.4e-05
298.15	0.15	0.834	0.001733	2.3e-05
298.15	0.15	1.036	0.001797	2.8e-05
298.15	0.15	1.283	0.001835	1.8e-05
298.15	0.15	1.358	0.001864	2.2e-05
303.15	0.15	0	0.001426	1.8e-05
303.15	0.15	0.152	0.001455	1.7e-05
303.15	0.15	0.208	0.001459	1.5e-05
303.15	0.15	0.475	0.001497	1.4e-05
303.15	0.15	0.62	0.001517	2.2e-05
303.15	0.15	0.834	0.001522	1.6e-05
303.15	0.15	1.036	0.001547	1.9e-05
303.15	0.15	1.283	0.001581	2.7e-05
303.15	0.15	1.358	0.001609	2.7e-05
308.15	0.15	0	0.001263	1.6e-05
308.15	0.15	0.152	0.001281	1.3e-05
308.15	0.15	0.208	0.001285	1.4e-05
308.15	0.15	0.475	0.001323	1.3e-05
308.15	0.15	0.62	0.001341	2e-05
308.15	0.15	0.834	0.001349	1.5e-05
308.15	0.15	1.036	0.001373	1.6e-05
308.15	0.15	1.283	0.001391	1.8e-05
308.15	0.15	1.358	0.001391	1.6e-05
313.15	0.15	0	0.001151	1.5e-05
313.15	0.15	0.152	0.001131	1.1e-05
313.15	0.15	0.208	0.001142	1.1e-05
313.15	0.15	0.475	0.001178	1.2e-05
313.15	0.15	0.62	0.001195	1.8e-05
313.15	0.15	0.834	0.001205	1.4e-05
313.15	0.15	1.036	0.001229	1.4e-05
313.15	0.15	1.283	0.001238	1.4e-05
313.15	0.15	1.358	0.001231	1.2e-05
318.15	0.15	0	0.001022	1.7e-05
318.15	0.15	0.152	0.001037	1e-05
318.15	0.15	0.208	0.001042	1.1e-05
318.15	0.15	0.475	0.001056	1e-05
318.15	0.15	0.62	0.001072	1.4e-05
318.15	0.15	0.834	0.001083	1.3e-05
318.15	0.15	1.036	0.001107	1.3e-05
318.15	0.15	1.283	0.001117	1.2e-05
318.15	0.15	1.358	0.001112	1.1e-05
323.15	0.15	0	0.000993	2.9e-05
323.15	0.15	0.152	0.000936	1.4e-05
323.15	0.15	0.208	0.000942	1.4e-05
323.15	0.15	0.475	0.000954	9e-06
323.15	0.15	0.62	0.000969	1.3e-05
323.15	0.15	0.834	0.00098	1.2e-05
323.15	0.15	1.036	0.001002	1.2e-05
323.15	0.15	1.283	0.001014	1.1e-05
323.15	0.15	1.358	0.00101	1e-05
293.15	0.225	0	0.002702	2.6e-05
293.15	0.225	0.145	0.002798	4e-05
293.15	0.225	0.367	0.002854	4.5e-05
293.15	0.225	0.716	0.002994	4.7e-05
293.15	0.225	1.107	0.00313	3.4e-05
293.15	0.225	1.189	0.003108	3.7e-05
293.15	0.225	1.497	0.003174	3.1e-05
293.15	0.225	1.801	0.003274	4.5e-05
293.15	0.225	1.976	0.003279	3.8e-05
298.15	0.225	0	0.002367	2.5e-05
298.15	0.225	0.145	0.002406	2.6e-05
298.15	0.225	0.367	0.002454	3.4e-05
298.15	0.225	0.716	0.002535	3.7e-05
298.15	0.225	1.107	0.00266	2.9e-05
298.15	0.225	1.189	0.002645	3.3e-05
298.15	0.225	1.497	0.002709	2.6e-05
298.15	0.225	1.801	0.002725	3.7e-05
298.15	0.225	1.976	0.002763	3.5e-05
303.15	0.225	0	0.00202	2.5e-05
303.15	0.225	0.145	0.002097	2e-05
303.15	0.225	0.367	0.002148	2.7e-05
303.15	0.225	0.716	0.002186	2.9e-05
303.15	0.225	1.107	0.002299	2.7e-05
303.15	0.225	1.189	0.002288	3e-05
303.15	0.225	1.497	0.002351	2.2e-05
303.15	0.225	1.801	0.002368	2.6e-05
303.15	0.225	1.976	0.002408	2.8e-05
308.15	0.225	0	0.001744	2.3e-05
308.15	0.225	0.145	0.001812	1.7e-05
308.15	0.225	0.367	0.00186	2.4e-05
308.15	0.225	0.716	0.001903	2.7e-05
308.15	0.225	1.107	0.002005	2.4e-05
308.15	0.225	1.189	0.001998	2.7e-05
308.15	0.225	1.497	0.002058	2e-05
308.15	0.225	1.801	0.00208	2.3e-05
308.15	0.225	1.976	0.002114	2.5e-05
313.15	0.225	0	0.001521	1.7e-05
313.15	0.225	0.145	0.001581	1.5e-05
313.15	0.225	0.367	0.001628	2.2e-05
313.15	0.225	0.716	0.001671	2.4e-05
313.15	0.225	1.107	0.001764	2.3e-05
313.15	0.225	1.189	0.001761	2.5e-05
313.15	0.225	1.497	0.001818	1.8e-05
313.15	0.225	1.801	0.001838	2.1e-05
313.15	0.225	1.976	0.001872	2.3e-05
318.15	0.225	0	0.001409	1.3e-05
318.15	0.225	0.145	0.001412	1.6e-05
318.15	0.225	0.367	0.001437	1.8e-05
318.15	0.225	0.716	0.00148	2.2e-05
318.15	0.225	1.107	0.001565	2.1e-05
318.15	0.225	1.189	0.001564	2.3e-05
318.15	0.225	1.497	0.001617	1.7e-05
318.15	0.225	1.801	0.00164	1.9e-05
318.15	0.225	1.976	0.001672	2.1e-05
323.15	0.225	0	0.001299	1.2e-05
323.15	0.225	0.145	0.001312	1.2e-05
323.15	0.225	0.367	0.001332	1.3e-05
323.15	0.225	0.716	0.001321	1.6e-05
323.15	0.225	1.107	0.001398	1.9e-05
323.15	0.225	1.189	0.001399	2.1e-05
323.15	0.225	1.497	0.001448	1.6e-05
323.15	0.225	1.801	0.00147	1.6e-05
323.15	0.225	1.976	0.001501	1.8e-05
293.15	0.3	0	0.003973	7.7e-05
293.15	0.3	0.358	0.004213	7.6e-05
293.15	0.3	0.512	0.004341	7.7e-05
293.15	0.3	1.017	0.004636	8.7e-05
293.15	0.3	1.489	0.005074	8.7e-05
293.15	0.3	1.588	0.005139	8.8e-05
293.15	0.3	2.145	0.005457	7.7e-05
298.15	0.3	0	0.003335	5.7e-05
298.15	0.3	0.358	0.003567	7e-05
298.15	0.3	0.512	0.003668	7.2e-05
298.15	0.3	1.017	0.003978	7.1e-05
298.15	0.3	1.489	0.004253	6.8e-05
298.15	0.3	1.588	0.004353	6.9e-05
298.15	0.3	2.145	0.004612	7.1e-05
303.15	0.3	0	0.002886	5.8e-05
303.15	0.3	0.358	0.003078	5.4e-05
303.15	0.3	0.512	0.003177	5.5e-05
303.15	0.3	1.017	0.003356	5.4e-05
303.15	0.3	1.489	0.003603	6e-05
303.15	0.3	1.588	0.003685	6e-05
303.15	0.3	2.145	0.003919	6.3e-05
308.15	0.3	0	0.002461	3.9e-05
308.15	0.3	0.358	0.002611	4.6e-05
308.15	0.3	0.512	0.002692	4.7e-05
308.15	0.3	1.017	0.002867	4.8e-05
308.15	0.3	1.489	0.003083	5.3e-05
308.15	0.3	1.588	0.003143	5.3e-05
308.15	0.3	2.145	0.003374	5.7e-05
313.15	0.3	0	0.002157	2.7e-05
313.15	0.3	0.358	0.002234	3.7e-05
313.15	0.3	0.512	0.002316	3.8e-05
313.15	0.3	1.017	0.00247	4.3e-05
313.15	0.3	1.489	0.002663	4.8e-05
313.15	0.3	1.588	0.002707	4.8e-05
313.15	0.3	2.145	0.002934	5.3e-05
318.15	0.3	0	0.001902	2.8e-05
318.15	0.3	0.358	0.002007	3.1e-05
318.15	0.3	0.512	0.002074	3.2e-05
318.15	0.3	1.017	0.002154	3.3e-05
318.15	0.3	1.489	0.002325	4.2e-05
318.15	0.3	1.588	0.002407	4.3e-05
318.15	0.3	2.145	0.002567	4.1e-05
323.15	0.3	0	0.001727	2e-05
323.15	0.3	0.358	0.001768	2.4e-05
323.15	0.3	0.512	0.001829	2.4e-05
323.15	0.3	1.017	0.001896	2.9e-05
323.15	0.3	1.489	0.002049	3.8e-05
323.15	0.3	1.588	0.00209	3.8e-05
323.15	0.3	2.145	0.002268	3.9e-05

System: carbon dioxide + water; phases: Liquid, Gas
Property: Molality, mol/kg of carbon dioxide (Liquid); method: phase equilibration
Temperature, K	Pressure, kPa of carbon dioxide	Molality, mol/kg of carbon dioxide	uncertainty
294.57	132.16	0.0466	0.004
298.86	96.14	0.0312	0.004
314.22	128.69	0.031	0.004
326.65	140.06	0.0268	0.004
345.57	142.33	0.0189	0.0043

System: water + nitrous oxide; phases: Liquid, Gas
Property: Molality, mol/kg of nitrous oxide (Liquid); method: phase equilibration
Temperature, K	Pressure, kPa of nitrous oxide	Molality, mol/kg of nitrous oxide	uncertainty
290.75	119.79	0.0348	0.004
301.95	136.64	0.0286	0.0041
317.43	154.95	0.0235	0.004
333.15	167.5	0.0187	0.004
351.44	192.75	0.016	0.004

System: 2-(methylamino)ethanol + nitrous oxide; phases: Liquid, Gas
Property: Molality, mol/kg of nitrous oxide (Liquid); method: phase equilibration
Temperature, K	Pressure, kPa of nitrous oxide	Molality, mol/kg of nitrous oxide	uncertainty
289.05	102.81	0.0966	0.004
303.15	114	0.0835	0.0053
317.85	124.72	0.0732	0.004
331.35	134.42	0.0615	0.004
347.15	146.14	0.0541	0.004

System: 2-(methylamino)ethanol + water + nitrous oxide; phases: Liquid, Gas
Property: Molality, mol/kg of nitrous oxide (Liquid); method: phase equilibration
Temperature, K	Solvent: Mass fraction of 2-(methylamino)ethanol	Pressure, kPa of nitrous oxide	Molality, mol/kg of nitrous oxide	uncertainty
289.31	0.075	122.06	0.0353	0.004
302.88	0.075	121.24	0.024	0.004
318.19	0.075	132.99	0.0204	0.004
332.87	0.075	144.25	0.0181	0.004
348.18	0.075	154.2	0.0144	0.004
289.31	0.15	108.26	0.0312	0.004
302.88	0.15	126.14	0.0233	0.004
318.19	0.15	137.7	0.0199	0.004
332.87	0.15	148.13	0.0172	0.004
348.18	0.15	159.4	0.0143	0.004
289.31	0.225	109.51	0.0268	0.004
302.88	0.225	133.36	0.0251	0.004
318.19	0.225	141.63	0.0216	0.004
332.87	0.225	152.53	0.0184	0.004
348.18	0.225	165.18	0.0145	0.004
289.31	0.3	139.59	0.032	0.004
302.88	0.3	150.91	0.0283	0.004
318.19	0.3	164.4	0.0248	0.004
332.87	0.3	183.32	0.022	0.004
289.31	0.375	110.78	0.0274	0.004
302.88	0.375	123.05	0.0208	0.004
318.19	0.375	133.9	0.0186	0.004
332.87	0.375	142.42	0.0168	0.004
348.18	0.375	154.87	0.0134	0.004
289.31	0.45	123.18	0.0267	0.004
302.88	0.45	132.81	0.0202	0.004
318.19	0.45	140.93	0.018	0.004
332.87	0.45	150.04	0.0158	0.004
348.18	0.45	160.27	0.0139	0.004
289.31	0.6	112.12	0.0234	0.004
302.88	0.6	120.07	0.0203	0.004
318.19	0.6	128.8	0.018	0.0041
332.87	0.6	138.13	0.0173	0.004
348.18	0.6	142.46	0.015	0.004
289.31	0.75	106.01	0.0345	0.0057
302.88	0.75	115.33	0.0278	0.0048
318.19	0.75	123.65	0.0255	0.0044
332.87	0.75	130.64	0.0235	0.0042
348.18	0.3	205.23	0.0179	0.004
348.18	0.75	138.73	0.0196	0.004
289.05	1	102.81	0.0966	0.0214
303.15	1	114	0.0835	0.1527
317.85	1	124.72	0.0732	0.0064
331.35	1	134.42	0.0615	0.0045
347.15	1	146.14	0.0541	0.0043
290.75	0	119.79	0.0348	0.004
301.95	0	136.64	0.0286	0.004
317.43	0	154.95	0.0235	0.004
333.15	0	167.5	0.0187	0.004
351.44	0	192.75	0.016	0.004
