Measured thermophysical data. Measurements and Modeling of the Phase Equilibria in AlCl3 + NaCl + CaCl2 + H2O and AlCl3 + CaCl2 + NH4Cl + H2O Systems
Source: J. Chem. Eng. Data, 2019, 10.1021/acs.jced.9b00175
Compound 1: aluminum chloride, AlCl3, InChI=1S/Al.3ClH/h;3*1H/q+3;;;/p-3, purity 97%
Compound 2: calcium chloride, CaCl2, InChI=1S/Ca.2ClH/h;2*1H/q+2;;/p-2, purity 96%
Compound 3: sodium chloride, ClNa, InChI=1S/ClH.Na/h1H;/q;+1/p-1, purity 99.5%
Compound 4: ammonium chloride (NH4Cl), ClH4N, InChI=1S/ClH.H3N/h1H;1H3, purity 99.5%
Compound 5: water, H2O, InChI=1S/H2O/h1H2, purity 99.9%

System: aluminum chloride + sodium chloride + water; phases: Liquid, Crystal
Fixed: Pressure, kPa = 100
Property: Molality, mol/kg of sodium chloride (Liquid); method: titration
Temperature, K	Molality, mol/kg of aluminum chloride	Molality, mol/kg of sodium chloride	uncertainty
283.15	0	6.1126	0.4002
283.15	0.2519	5.3719	0.4002
283.15	0.5	4.6171	0.4001
283.15	0.7506	3.8807	0.4001
283.15	1.0001	3.2184	0.4001
283.15	1.2465	2.5145	0.4
283.15	1.5003	1.9467	0.4
283.15	1.7473	1.3943	0.4
283.15	2	1.0026	0.4
283.15	2.2479	0.6609	0.4
283.15	2.5007	0.4664	0.4
283.15	2.7514	0.2499	0.4
283.15	2.9981	0.1722	0.4
283.15	3.249	0.0931	0.4
283.15	3.3462	0.0524	0.4
298.15	0	6.1537	0.4002
298.15	0.2519	5.4404	0.4002
298.15	0.5	4.6955	0.4001
298.15	0.7506	3.9916	0.4001
298.15	1.0001	3.2868	0.4001
298.15	1.2465	2.6042	0.4
298.15	1.5003	2.049	0.4
298.15	1.7473	1.5128	0.4
298.15	2	1.1052	0.4
298.15	2.2479	0.7719	0.4
298.15	2.5007	0.545	0.4
298.15	2.7514	0.32	0.4
298.15	2.9981	0.2438	0.4
298.15	3.249	0.1471	0.4
298.15	3.3781	0.0945	0.4
313.15	0	6.2234	0.4002
313.15	0.2519	5.4886	0.4002
313.15	0.5	4.7746	0.4001
313.15	0.7506	4.1014	0.4001
313.15	1.0001	3.3796	0.4001
313.15	1.2465	2.7182	0.4
313.15	1.5003	2.1981	0.4
313.15	1.7473	1.6468	0.4
313.15	2	1.1927	0.4
313.15	2.2479	0.8804	0.4
313.15	2.5007	0.6359	0.4
313.15	2.7514	0.4219	0.4
313.15	2.9981	0.3428	0.4
313.15	3.249	0.2337	0.4
313.15	3.3912	0.1445	0.4
333.15	0	6.3386	0.4002
333.15	0.2519	5.5379	0.4002
333.15	0.5	4.8913	0.4001
333.15	0.7506	4.1959	0.4001
333.15	1.0001	3.4851	0.4001
333.15	1.2465	2.8298	0.4
333.15	1.5003	2.297	0.4
333.15	1.7473	1.7934	0.4
333.15	2	1.3209	0.4
333.15	2.2479	0.9811	0.4
333.15	2.5007	0.7619	0.4
333.15	2.7514	0.5259	0.4
333.15	2.9981	0.4304	0.4
333.15	3.249	0.3044	0.4
333.15	3.4032	0.2028	0.4
353.15	0	6.4906	0.4002
353.15	0.2519	5.6454	0.4002
353.15	0.5	5.0001	0.4001
353.15	0.7506	4.301	0.4001
353.15	1.0001	3.5771	0.4001
353.15	1.2465	3.0841	0.4001
353.15	1.5003	2.4167	0.4
353.15	1.7473	2.0164	0.4
353.15	2	1.4625	0.4
353.15	2.2479	1.1747	0.4
353.15	2.5007	0.876	0.4
353.15	2.7514	0.6859	0.4
353.15	2.9981	0.5376	0.4
353.15	3.249	0.3948	0.4
353.15	3.4249	0.2674	0.4

System: aluminum chloride + sodium chloride + water; phases: Liquid, Crystal of intercomponent compound 1
Fixed: Pressure, kPa = 100
Property: Molality, mol/kg of sodium chloride (Liquid); method: titration
Temperature, K	Molality, mol/kg of aluminum chloride	Molality, mol/kg of sodium chloride	uncertainty
283.15	3.3462	0.0524	0.4
283.15	3.3771	0	1
298.15	3.3781	0.0945	0.4
298.15	3.3998	0.0584	0.4
298.15	3.4309	0	1
313.15	3.3912	0.1445	0.4
313.15	3.4119	0.0904	0.4
313.15	3.448	0	1
333.15	3.4032	0.2028	0.4
333.15	3.4291	0.121	0.4
333.15	3.475	0	1
353.15	3.4249	0.2674	0.4
353.15	3.4629	0.1426	0.4
353.15	3.509	0	1

System: aluminum chloride + ammonium chloride (NH4Cl) + water; phases: Liquid, Crystal
Fixed: Pressure, kPa = 100
Property: Molality, mol/kg of ammonium chloride (NH4Cl) (Liquid); method: titration
Temperature, K	Molality, mol/kg of aluminum chloride	Molality, mol/kg of ammonium chloride (NH4Cl)	uncertainty
283.15	0	6.2716	0.4002
283.15	0.25	5.5881	0.4002
283.15	0.5	4.852	0.4001
283.15	0.7501	4.0973	0.4001
283.15	1.0001	3.4395	0.4001
283.15	1.2518	2.8452	0.4
283.15	1.5005	2.3311	0.4
283.15	1.7483	1.8983	0.4
283.15	2.003	1.5362	0.4
283.15	2.2485	1.369	0.4
283.15	2.4984	1.1502	0.4
283.15	2.7426	0.9405	0.4
283.15	3.0002	0.7253	0.4
283.15	3.2574	0.4998	0.4
283.15	3.3455	0.536	0.4
298.15	0	7.3935	0.4003
298.15	0.25	6.6205	0.4002
298.15	0.5	5.8372	0.4002
298.15	0.7501	5.0082	0.4001
298.15	1.0001	4.3343	0.4001
298.15	1.2518	3.6359	0.4001
298.15	1.5005	3.0566	0.4001
298.15	1.7483	2.5666	0.4
298.15	2.003	2.0903	0.4
298.15	2.2485	1.8548	0.4
298.15	2.4984	1.62	0.4
298.15	2.7426	1.3372	0.4
298.15	3.0002	1.0694	0.4
298.15	3.2574	0.8298	0.4
298.15	3.3977	0.8362	0.4
313.15	0	8.5811	0.4004
313.15	0.25	7.6861	0.4003
313.15	0.5	6.8506	0.4003
313.15	0.7501	5.9995	0.4002
313.15	1.0001	5.2437	0.4002
313.15	1.2518	4.5202	0.4001
313.15	1.5005	3.896	0.4001
313.15	1.7483	3.3529	0.4001
313.15	2.003	2.8054	0.4
313.15	2.2485	2.5064	0.4
313.15	2.4984	2.2433	0.4
313.15	2.7426	1.9727	0.4
313.15	3.0002	1.633	0.4
313.15	3.2574	1.3843	0.4
313.15	3.4138	1.3812	0.4
333.15	0	10.285	0.4006
333.15	0.25	9.0688	0.4005
333.15	0.5	8.0912	0.4004
333.15	0.7501	7.3001	0.4003
333.15	1.0001	6.4698	0.4002
333.15	1.2518	5.7974	0.4002
333.15	1.5005	5.0459	0.4001
333.15	1.7483	4.4036	0.4001
333.15	2.003	3.8781	0.4001
333.15	2.2485	3.485	0.4001
333.15	2.4984	3.2272	0.4001
333.15	2.7426	2.9538	0.4
333.15	3.0002	2.6149	0.4
333.15	3.2574	2.4522	0.4
333.15	3.4277	2.4494	0.4
353.15	0	12.1549	0.4008
353.15	0.25	10.7174	0.4006
353.15	0.5	9.8685	0.4005
353.15	0.7501	8.8941	0.4004
353.15	1.0001	8.0437	0.4004
353.15	1.2518	7.2852	0.4003
353.15	1.5005	6.4769	0.4002
353.15	1.7483	5.8228	0.4002
353.15	2.003	5.3301	0.4002
353.15	2.2485	4.7849	0.4001
353.15	2.4984	4.4784	0.4001
353.15	2.7426	4.0997	0.4001
353.15	3.0002	3.8171	0.4001
353.15	3.2574	3.5219	0.4001
353.15	0	12.1549	0.4008
353.15	0.25	10.7174	0.4006
353.15	0.5	9.8685	0.4005
353.15	0.7501	8.8941	0.4004
353.15	1.0001	8.0437	0.4004
353.15	1.2518	7.2852	0.4003
353.15	1.5005	6.4769	0.4002
353.15	1.7483	5.8228	0.4002
353.15	2.003	5.3301	0.4002
353.15	2.2485	4.7849	0.4001
353.15	2.4984	4.4784	0.4001
353.15	2.7426	4.0997	0.4001
353.15	3.0002	3.8171	0.4001
353.15	3.2574	3.5219	0.4001

System: calcium chloride + ammonium chloride (NH4Cl) + water; phases: Liquid, Crystal
Fixed: Pressure, kPa = 100
Property: Molality, mol/kg of ammonium chloride (NH4Cl) (Liquid); method: titration
Temperature, K	Molality, mol/kg of calcium chloride	Molality, mol/kg of ammonium chloride (NH4Cl)	uncertainty
283.15	0	6.2716	0.4002
283.15	0.5016	5.5038	0.4002
283.15	1.0022	4.7601	0.4001
283.15	1.5091	4.089	0.4001
283.15	2.0029	3.4132	0.4001
283.15	2.4876	2.7682	0.4
283.15	2.9931	2.4723	0.4
283.15	3.4988	2.2015	0.4
283.15	3.957	1.8458	0.4
283.15	4.4895	1.5209	0.4
283.15	4.9947	1.3327	0.4
283.15	5.5	1.1359	0.4
298.15	0	7.3935	0.4003
298.15	0.5016	6.5285	0.4002
298.15	1.0022	5.7286	0.4002
298.15	1.5091	4.9603	0.4001
298.15	2.0029	4.2723	0.4001
298.15	2.4876	3.4963	0.4001
298.15	2.9931	3.0779	0.4001
298.15	3.4988	2.7361	0.4
298.15	3.957	2.4438	0.4
298.15	4.4895	2.1713	0.4
298.15	4.9947	1.9645	0.4
298.15	5.5	1.6669	0.4
298.15	5.9888	1.479	0.4
298.15	7.1115	1.4457	0.4
313.15	0	8.5811	0.4004
313.15	0.5016	7.5517	0.4003
313.15	1.0022	6.6608	0.4002
313.15	1.5091	5.8425	0.4002
313.15	2.0029	5.1706	0.4002
313.15	2.4876	4.3232	0.4001
313.15	2.9931	3.953	0.4001
313.15	3.4988	3.5711	0.4001
313.15	3.957	3.1457	0.4001
313.15	4.4895	2.8542	0.4
313.15	4.9947	2.5989	0.4
313.15	5.5	2.4071	0.4
313.15	5.9888	2.3213	0.4
313.15	7.1115	2.207	0.4
313.15	7.9783	2.0351	0.4
313.15	9.0117	2.0047	0.4
313.15	10.024	1.9987	0.4
333.15	0	10.285	0.4006
333.15	0.5016	8.9837	0.4005
333.15	1.0022	8.1014	0.4004
333.15	1.5091	7.2182	0.4003
333.15	2.0029	6.478	0.4002
333.15	2.4876	5.6006	0.4002
333.15	2.9931	5.1792	0.4002
333.15	3.4988	4.7824	0.4001
333.15	3.957	4.3361	0.4001
333.15	4.4895	4.0618	0.4001
333.15	4.9947	3.802	0.4001
333.15	5.5	3.5887	0.4001
333.15	5.9888	3.519	0.4001
333.15	7.1115	3.4719	0.4001
333.15	7.9783	3.458	0.4001
333.15	9.033	3.3523	0.4001
333.15	9.9713	3.154	0.4001
333.15	11.0008	3.1228	0.4001
333.15	12.0078	2.9774	0.4
353.15	0	12.1549	0.4008
353.15	0.5016	10.5761	0.4006
353.15	1.0022	9.777	0.4005
353.15	1.5091	8.885	0.4004
353.15	2.0029	8.1805	0.4004
353.15	2.4876	7.2637	0.4003
353.15	2.9931	6.8342	0.4003
353.15	3.4988	6.443	0.4002
353.15	3.957	5.8868	0.4002
353.15	4.4895	5.5245	0.4002
353.15	4.9947	5.4264	0.4002
353.15	5.5	5.1607	0.4001
353.15	5.9888	5.1155	0.4001
353.15	7.1115	4.9494	0.4001
353.15	7.9783	4.9303	0.4001
353.15	9.033	4.8592	0.4001
353.15	9.9713	4.7356	0.4001
353.15	11.0008	4.733	0.4001
353.15	12.0078	4.455	0.4001
353.15	13.0352	4.0444	0.4001
283.15	1.0004	4.892	0.4001
298.15	1.0004	5.8572	0.4002
313.15	1.0004	6.8561	0.4003
333.15	1.0004	8.2647	0.4004
353.15	1.0004	10.0135	0.4006

System: calcium chloride + ammonium chloride (NH4Cl) + water; phases: Liquid, Crystal of intercomponent compound 1
Fixed: Pressure, kPa = 100
Property: Molality, mol/kg of ammonium chloride (NH4Cl) (Liquid); method: titration
Temperature, K	Molality, mol/kg of calcium chloride	Molality, mol/kg of ammonium chloride (NH4Cl)	uncertainty
283.15	5.5	1.1359	0.4
283.15	5.9112	0	1
298.15	7.1115	1.4457	0.4
298.15	7.462	0	1
313.15	10.024	1.9987	0.4
313.15	10.326	0	1
333.15	12.0078	2.9774	0.4
333.15	12.327	0	1
353.15	13.0352	4.0444	0.4001
353.15	13.246	0	1

System: calcium chloride + sodium chloride + water; phases: Liquid, Crystal
Fixed: Molality, mol/kg of calcium chloride = 1.0013
Fixed: Pressure, kPa = 100
Property: Molality, mol/kg of sodium chloride (Liquid); method: titration
Temperature, K	Molality, mol/kg of sodium chloride	uncertainty
283.15	4.4297	0.4001
298.15	4.6347	0.4001
313.15	4.703	0.4001
333.15	4.8226	0.4001
353.15	5.0068	0.4002

System: sodium chloride + water; phases: Liquid, Crystal
Fixed: Pressure, kPa = 100
Property: Molality, mol/kg of sodium chloride (Liquid); method: titration
Temperature, K	Molality, mol/kg of sodium chloride	uncertainty
283.15	6.1126	0.4002
298.15	6.1537	0.4002
313.15	6.2234	0.4002
333.15	6.3386	0.4002
353.15	6.4906	0.4002

System: aluminum chloride + water; phases: Liquid, Crystal of intercomponent compound 1
Fixed: Pressure, kPa = 100
Property: Solid-liquid equilibrium temperature, K (Liquid); method: titration
Molality, mol/kg of aluminum chloride	Solid-liquid equilibrium temperature, K	uncertainty
3.3771	283.15	
3.4309	298.15	
3.448	313.15	
3.475	333.15	
3.509	353.15	

System: ammonium chloride (NH4Cl) + water; phases: Liquid, Crystal
Fixed: Pressure, kPa = 100
Property: Molality, mol/kg of ammonium chloride (NH4Cl) (Liquid); method: titration
Temperature, K	Molality, mol/kg of ammonium chloride (NH4Cl)	uncertainty
283.15	6.2716	0.4002
298.15	7.3935	0.4003
313.15	8.5811	0.4004
333.15	10.285	0.4006
353.15	12.1549	0.4008

System: calcium chloride + water; phases: Liquid, Crystal of intercomponent compound 1
Fixed: Pressure, kPa = 100
Property: Solid-liquid equilibrium temperature, K (Liquid); method: titration
Molality, mol/kg of calcium chloride	Solid-liquid equilibrium temperature, K	uncertainty
5.9112	283.15	
7.462	298.15	
10.326	313.15	
12.327	333.15	
13.246	353.15	
