Measured thermophysical data. Measuring the Refractive Index, Density, Viscosity, pH, and Surface Tension of Potassium Thiocyanate (KSCN) Solutions for Refractive Index Matching in Flow Experiments
Source: J. Chem. Eng. Data, 2018, 10.1021/acs.jced.7b00904
Compound 1: potassium thiocyanate, CKNS, InChI=1S/CHNS.K/c2-1-3;/h3H;/q;+1/p-1
Compound 2: sodium iodide, INa, InChI=1S/HI.Na/h1H;/q;+1/p-1
Compound 3: water, H2O, InChI=1S/H2O/h1H2, purity 99.9%

System: potassium thiocyanate + water; phases: Liquid
Fixed: Pressure, kPa = 101.3
Property: Refractive index (Na D-line) (Liquid); method: Standard Abbe refractometry
Temperature, K	Mass fraction of potassium thiocyanate	Refractive index (Na D-line)	uncertainty
293	0.705	1.49315	0.0006
293	0.697	1.49135	0.0006
293	0.689	1.4891	0.0006
293	0.681	1.4875	0.00059
293	0.674	1.48485	0.0006
293	0.667	1.48275	0.00059
293	0.659	1.4809	0.00059
293	0.652	1.478	0.00059
293	0.646	1.4771	0.00059
293	0.639	1.47505	0.00059
293	0.632	1.4733	0.00059
293	0.626	1.47155	0.00059
293	0.62	1.4694	0.00059
293	0.613	1.4681	0.00059
293	0.607	1.4672	0.00059
293	0.601	1.46515	0.00059
293	0.595	1.4635	0.00059
293	0.59	1.46215	0.00059
293	0.584	1.46045	0.00059
293	0.579	1.45915	0.00059
293	0.565	1.45545	0.00059
293	0.553	1.4521	0.00059
293	0.54	1.4493	0.00059
293	0.529	1.4465	0.00059
293	0.518	1.4437	0.00059
293	0.507	1.441	0.00059
293	0.497	1.43825	0.00059
293	0.487	1.4358	0.00059
293	0.477	1.43375	0.00059
293	0.468	1.43175	0.00059
293	0.451	1.42755	0.00059
293	0.435	1.42345	0.00059
293	0.42	1.41995	0.00058
293	0.406	1.41705	0.00058
293	0.381	1.41155	0.00058
293	0.359	1.4061	0.00058
293	0.321	1.39825	0.00058
293	0.291	1.39085	0.00058
293	0.265	1.38565	0.00058
293	0.244	1.38075	0.00058
293	0.218	1.3754	0.00058
293	0	1.3333	0.00058
298	0.705	1.4922	0.0006
298	0.697	1.4907	0.0006
298	0.689	1.4885	0.00059
298	0.681	1.48685	0.00059
298	0.674	1.4846	0.0006
298	0.667	1.4826	0.00059
298	0.659	1.4805	0.00059
298	0.652	1.47805	0.00059
298	0.646	1.47675	0.00059
298	0.639	1.4747	0.00059
298	0.632	1.47285	0.00059
298	0.626	1.47145	0.00059
298	0.62	1.4693	0.00059
298	0.613	1.46775	0.00059
298	0.607	1.46635	0.00059
298	0.601	1.46505	0.00059
298	0.595	1.46305	0.00059
298	0.59	1.4614	0.00059
298	0.584	1.46015	0.00059
298	0.579	1.4587	0.00059
298	0.565	1.45505	0.00059
298	0.553	1.45205	0.00059
298	0.54	1.44905	0.00059
298	0.529	1.44635	0.00059
298	0.518	1.443	0.00059
298	0.507	1.44045	0.00059
298	0.497	1.43755	0.00059
298	0.487	1.4352	0.00059
298	0.477	1.433	0.00059
298	0.468	1.43085	0.00059
298	0.451	1.42705	0.00059
298	0.435	1.423	0.00059
298	0.42	1.41945	0.00059
298	0.406	1.41615	0.00059
298	0.381	1.4105	0.00058
298	0.359	1.4054	0.00058
298	0.321	1.39675	0.00058
298	0.291	1.3906	0.00058
298	0.265	1.3852	0.00058
298	0.244	1.3802	0.00058
298	0.218	1.37475	0.00058
298	0	1.3326	0.00058
303	0.705	1.49135	0.0006
303	0.697	1.4896	0.0006
303	0.689	1.4876	0.0006
303	0.681	1.48595	0.0006
303	0.674	1.4835	0.0006
303	0.667	1.4813	0.0006
303	0.659	1.4795	0.00059
303	0.652	1.4773	0.00059
303	0.646	1.4757	0.0006
303	0.639	1.47385	0.00059
303	0.632	1.4721	0.0006
303	0.626	1.46985	0.0006
303	0.62	1.4682	0.00059
303	0.613	1.4663	0.0006
303	0.607	1.465	0.0006
303	0.601	1.4633	0.0006
303	0.595	1.46155	0.0006
303	0.59	1.4599	0.0006
303	0.584	1.4584	0.0006
303	0.579	1.4569	0.0006
303	0.565	1.4534	0.00059
303	0.553	1.4499	0.0006
303	0.54	1.44675	0.00059
303	0.529	1.44455	0.00059
303	0.518	1.44095	0.00059
303	0.507	1.43855	0.00059
303	0.497	1.43665	0.00059
303	0.487	1.4344	0.00059
303	0.477	1.4319	0.00059
303	0.468	1.4295	0.00059
303	0.451	1.42585	0.00059
303	0.435	1.422	0.00059
303	0.42	1.4183	0.00059
303	0.406	1.4147	0.00059
303	0.381	1.4097	0.00059
303	0.359	1.4046	0.00058
303	0.321	1.396	0.00058
303	0.291	1.3896	0.00058
303	0.265	1.3844	0.00058
303	0.244	1.3796	0.00058
303	0.218	1.37415	0.00058
303	0	1.3321	0.00058
308	0.705	1.49005	0.0006
308	0.697	1.4884	0.0006
308	0.689	1.4865	0.0006
308	0.681	1.48455	0.0006
308	0.674	1.48215	0.0006
308	0.667	1.48045	0.0006
308	0.659	1.4784	0.0006
308	0.652	1.4761	0.0006
308	0.646	1.47355	0.0006
308	0.639	1.47195	0.0006
308	0.632	1.4698	0.0006
308	0.626	1.46845	0.00059
308	0.62	1.46645	0.0006
308	0.613	1.46415	0.0006
308	0.607	1.46265	0.00059
308	0.601	1.46085	0.0006
308	0.595	1.4595	0.00059
308	0.59	1.4579	0.0006
308	0.584	1.4559	0.00059
308	0.579	1.45455	0.00059
308	0.565	1.45115	0.00059
308	0.553	1.4473	0.00059
308	0.54	1.4451	0.00059
308	0.529	1.4423	0.00059
308	0.518	1.4393	0.00059
308	0.507	1.43715	0.00059
308	0.497	1.4347	0.00059
308	0.487	1.43245	0.00059
308	0.477	1.43035	0.00059
308	0.468	1.4281	0.00059
308	0.451	1.4241	0.00059
308	0.435	1.4199	0.00059
308	0.42	1.41675	0.00059
308	0.406	1.4139	0.00058
308	0.381	1.4079	0.00059
308	0.359	1.4033	0.00058
308	0.321	1.3949	0.00058
308	0.291	1.38835	0.00058
308	0.265	1.383	0.00058
308	0.244	1.37855	0.00058
308	0.218	1.3731	0.00058
308	0	1.33165	0.00058
313	0.705	1.48924	0.0006
313	0.697	1.4871	0.0006
313	0.689	1.4855	0.0006
313	0.681	1.483	0.0006
313	0.674	1.48105	0.0006
313	0.667	1.47875	0.0006
313	0.659	1.47655	0.0006
313	0.652	1.4745	0.0006
313	0.646	1.4724	0.0006
313	0.639	1.4704	0.00059
313	0.632	1.4689	0.00059
313	0.626	1.46715	0.0006
313	0.62	1.46495	0.00059
313	0.613	1.46305	0.00059
313	0.607	1.462	0.00059
313	0.601	1.4596	0.00059
313	0.595	1.4587	0.00059
313	0.59	1.45645	0.00059
313	0.584	1.4554	0.00059
313	0.579	1.4536	0.00059
313	0.565	1.45065	0.00059
313	0.553	1.44725	0.00059
313	0.54	1.44415	0.00059
313	0.529	1.44175	0.00059
313	0.518	1.4385	0.00059
313	0.507	1.4362	0.00059
313	0.497	1.43375	0.00059
313	0.487	1.4315	0.00059
313	0.477	1.4294	0.00059
313	0.468	1.4272	0.00059
313	0.451	1.4229	0.00059
313	0.435	1.41875	0.00059
313	0.42	1.41585	0.00058
313	0.406	1.41305	0.00059
313	0.381	1.40725	0.00058
313	0.359	1.40235	0.00058
313	0.321	1.39375	0.00058
313	0.291	1.3876	0.00058
313	0.265	1.38205	0.00058
313	0.244	1.3779	0.00058
313	0.218	1.3728	0.00058
313	0	1.33085	0.00058

System: potassium thiocyanate + water; phases: Liquid
Fixed: Temperature, K = 295
Fixed: Pressure, kPa = 101.3
Property: Mass density, kg/m3 (Liquid); method: Buoyancy - hydrostatic balance
Mass fraction of potassium thiocyanate	Mass density, kg/m3	uncertainty
0	999	6
0.03	1013	6
0.05	1022	6
0.07	1031	6
0.1	1047	6
0.2	1100	6
0.3	1157	6
0.4	1218	6
0.5	1283	6
0.6	1353	6
0.65	1392	6
0.68	1414	6

System: potassium thiocyanate + water; phases: Liquid
Fixed: Temperature, K = 295
Fixed: Pressure, kPa = 101.3
Property: Viscosity, Pa*s (Liquid); method: Concentric cylinders viscometry
Mass fraction of potassium thiocyanate	Viscosity, Pa*s	uncertainty
0	0.000975	7e-05
0.03	0.000834	7e-05
0.05	0.000845	7e-05
0.07	0.000825	7e-05
0.1	0.000843	7e-05
0.2	0.000881	7e-05
0.3	0.000916	7e-05
0.4	0.001101	7e-05
0.5	0.001321	7.1e-05
0.6	0.001979	7.1e-05
0.65	0.002588	7.3e-05
0.68	0.003125	7.4e-05

System: potassium thiocyanate + water; phases: Liquid, Gas
Fixed: Temperature, K = 295
Property: Surface tension liquid-gas, N/m (Liquid); method: Wilhelmi plate
Mass fraction of potassium thiocyanate	Surface tension liquid-gas, N/m	uncertainty
0	0.072282	0.000402
0.03	0.067247	0.001102
0.05	0.061979	0.0054
0.07	0.058585	0.0129
0.1	0.057199	0.0129
0.2	0.057786	0.004601
0.4	0.055455	0.005801
0.5	0.056475	0.005402
0.6	0.06293	0.003905
0.65	0.073264	0.001226
0.68	0.074619	0.001229

System: potassium thiocyanate + water; phases: Liquid, Crystal
Property: Mass fraction of potassium thiocyanate (Liquid); method: Titration method
Temperature, K	Pressure, kPa	Mass fraction of potassium thiocyanate	uncertainty
296	101.3	0.705	0.002

System: sodium iodide + water; phases: Liquid, Crystal
Property: Mass fraction of sodium iodide (Liquid); method: Titration method
Temperature, K	Pressure, kPa	Mass fraction of sodium iodide	uncertainty
298	101.3	0.648	0.002

System: sodium iodide + water; phases: Liquid
Fixed: Pressure, kPa = 101.3
Property: Refractive index (Na D-line) (Liquid); method: Standard Abbe refractometry
Temperature, K	Mass fraction of sodium iodide	Refractive index (Na D-line)	uncertainty
296	0.332	1.3939	0.00059
296	0.359	1.40055	0.00059
296	0.374	1.4045	0.00059
296	0.39	1.40905	0.00059
296	0.408	1.41365	0.0007
296	0.427	1.4193	0.00061
296	0.449	1.426	0.0006
296	0.46	1.4295	0.00059
296	0.472	1.43335	0.00059
296	0.485	1.4376	0.00058
296	0.498	1.4421	0.00058
296	0.513	1.44705	0.00058
296	0.528	1.4523	0.00059
296	0.544	1.4581	0.00059
296	0.56	1.4648	0.00059
296	0.579	1.472	0.00058
296	0.598	1.4797	0.00058
298	0.498	1.4428	0.00058
298	0.512	1.44745	0.00059
298	0.518	1.44985	0.00059
298	0.524	1.45195	0.00059
298	0.53	1.45405	0.00059
298	0.536	1.45645	0.00059
298	0.543	1.45915	0.0006
298	0.549	1.4615	0.0006
298	0.556	1.46395	0.00058
298	0.563	1.4666	0.00058
298	0.57	1.4694	0.00059
298	0.577	1.4721	0.00058
298	0.585	1.4744	0.00058
