Measured thermophysical data. Physicochemical Properties of Long Chain Alkylated Imidazolium Based Chloride and Bis(trifluoromethanesulfonyl)imide Ionic Liquids
Source: J. Chem. Eng. Data, 2017, 10.1021/acs.jced.7b00242
Compound 1: 1-decyl-3-methylimidazolium chloride, C14H27ClN2, InChI=1S/C14H27N2.ClH/c1-3-4-5-6-7-8-9-10-11-16-13-12-15(2)14-16;/h12-14H,3-11H2,1-2H3;1H/q+1;/p-1, purity 99%
Compound 2: 1-dodecyl-3-methylimidazolium chloride, C16H31ClN2, InChI=1S/C16H31N2.ClH/c1-3-4-5-6-7-8-9-10-11-12-13-18-15-14-17(2)16-18;/h14-16H,3-13H2,1-2H3;1H/q+1;/p-1, purity 99%
Compound 3: 1-methyl-3-tetradecylimidazolium chloride, C18H35ClN2, InChI=1S/C18H35N2.ClH/c1-3-4-5-6-7-8-9-10-11-12-13-14-15-20-17-16-19(2)18-20;/h16-18H,3-15H2,1-2H3;1H/q+1;/p-1, purity 99%
Compound 4: 1-decyl-3-methylimidazolium bis(trifluoromethylsulfonyl)amide, C16H27F6N3O4S2, InChI=1S/C14H27N2.C2F6NO4S2/c1-3-4-5-6-7-8-9-10-11-16-13-12-15(2)14-16;3-1(4,5)14(10,11)9-15(12,13)2(6,7)8/h12-14H,3-11H2,1-2H3;/q+1;-1, purity 99%
Compound 5: 1-dodecyl-3-methyl-1H-imidazolium bis(trifluoromethylsulfonyl)amide, C18H31F6N3O4S2, InChI=1S/C16H31N2.C2F6NO4S2/c1-3-4-5-6-7-8-9-10-11-12-13-18-15-14-17(2)16-18;3-1(4,5)14(10,11)9-15(12,13)2(6,7)8/h14-16H,3-13H2,1-2H3;/q+1;-1, purity 99%
Compound 6: 1-tetradecyl-3-methylimidazolium bis(trifluoromethylsulfonyl)imide, C20H35F6N3O4S2, InChI=1S/C18H35N2.C2F6NO4S2/c1-3-4-5-6-7-8-9-10-11-12-13-14-15-20-17-16-19(2)18-20;3-1(4,5)14(10,11)9-15(12,13)2(6,7)8/h16-18H,3-15H2,1-2H3;/q+1;-1, purity 99%

System: 1-decyl-3-methylimidazolium chloride; phases: Crystal, Liquid, Air at 1 atmosphere
Property: Normal melting temperature, K (Crystal); method: DTA
Normal melting temperature, K	uncertainty
302.11	1.06

System: 1-decyl-3-methylimidazolium chloride; phases: Liquid
Fixed: Pressure, kPa = 101
Property: Mass density, kg/m3 (Liquid); method: Vibrating tube method
Temperature, K	Mass density, kg/m3	uncertainty
298.15	984	20
303.15	979.7	20
313.15	974.4	20
323.15	968.1	20
333.15	962.4	20
343.15	956.4	20
353.15	950.7	20
363.15	943.8	20

System: 1-decyl-3-methylimidazolium chloride; phases: Liquid
Fixed: Pressure, kPa = 100
Property: Viscosity, Pa*s (Liquid); method: Concentric cylinders viscometry
Temperature, K	Viscosity, Pa*s	uncertainty
313.15	3.716	0.628
323.15	1.613	0.269
333.15	0.7789	0.128
343.15	0.4112	0.0669
353.15	0.2337	0.0378
363.15	0.1417	0.0228

System: 1-decyl-3-methylimidazolium chloride; phases: Liquid
Fixed: Pressure, kPa = 100
Property: Refractive index (Na D-line) (Liquid); method: Standard Abbe refractometry
Temperature, K	Refractive index (Na D-line)	uncertainty
293.15	1.5002	0.0048
298.15	1.4988	0.0054
303.15	1.4972	0.0058
313.15	1.4937	0.0064
323.15	1.4897	0.0064
333.15	1.4864	0.0068
343.15	1.4834	0.0074
353.15	1.4806	0.0078
363.15	1.4788	0.009

System: 1-decyl-3-methylimidazolium chloride; phases: Liquid, Air at 1 atmosphere
Property: Surface tension liquid-gas, N/m (Liquid); method: Ring tensiometer
Temperature, K	Surface tension liquid-gas, N/m	uncertainty
303.15	0.034	0.0009
313.15	0.0302	0.0009
323.15	0.0284	0.0009
333.15	0.0278	0.0009
343.15	0.027	0.0009
353.15	0.0262	0.0009
363.15	0.0255	0.0009

System: 1-dodecyl-3-methylimidazolium chloride; phases: Crystal, Liquid, Air at 1 atmosphere
Property: Normal melting temperature, K (Crystal); method: DTA
Normal melting temperature, K	uncertainty
369.37	1.06

System: 1-methyl-3-tetradecylimidazolium chloride; phases: Crystal, Liquid, Air at 1 atmosphere
Property: Normal melting temperature, K (Crystal); method: DTA
Normal melting temperature, K	uncertainty
467.2	1.06

System: 1-decyl-3-methylimidazolium bis(trifluoromethylsulfonyl)amide; phases: Crystal, Liquid, Air at 1 atmosphere
Property: Normal melting temperature, K (Crystal); method: DTA
Normal melting temperature, K	uncertainty
276.19	1.06

System: 1-decyl-3-methylimidazolium bis(trifluoromethylsulfonyl)amide; phases: Liquid
Fixed: Pressure, kPa = 101
Property: Viscosity, Pa*s (Liquid); method: Concentric cylinders viscometry
Temperature, K	Viscosity, Pa*s	uncertainty
293.15	0.1399	0.0225
298.15	0.1012	0.0163
303.15	0.07917	0.0127
313.15	0.05086	0.00815
323.15	0.03451	0.00553
333.15	0.0245	0.00393
343.15	0.01808	0.0029
353.15	0.01378	0.00221
363.15	0.01079	0.00173

System: 1-decyl-3-methylimidazolium bis(trifluoromethylsulfonyl)amide; phases: Liquid
Fixed: Pressure, kPa = 101
Property: Refractive index (Na D-line) (Liquid); method: Standard Abbe refractometry
Temperature, K	Refractive index (Na D-line)	uncertainty
293.15	1.4366	0.004
298.15	1.4351	0.004
303.15	1.4336	0.004
313.15	1.4306	0.004
323.15	1.4278	0.004
333.15	1.425	0.004
343.15	1.4222	0.004
353.15	1.4194	0.004
363.15	1.4166	0.004

System: 1-decyl-3-methylimidazolium bis(trifluoromethylsulfonyl)amide; phases: Liquid, Air at 1 atmosphere
Property: Surface tension liquid-gas, N/m (Liquid); method: Ring tensiometer
Temperature, K	Surface tension liquid-gas, N/m	uncertainty
298.15	0.0298	0.0009
303.15	0.0292	0.0009
313.15	0.0283	0.0009
323.15	0.0275	0.0009
333.15	0.0269	0.0009
343.15	0.0263	0.0009
353.15	0.0257	0.0009
363.15	0.0252	0.0009

System: 1-decyl-3-methylimidazolium bis(trifluoromethylsulfonyl)amide; phases: Liquid
Fixed: Pressure, kPa = 101
Property: Mass density, kg/m3 (Liquid); method: Vibrating tube method
Temperature, K	Mass density, kg/m3	uncertainty
273.15	1292.7	20
289.15	1287.3	20
293.15	1282.3	20
298.15	1278.4	20
303.15	1274.2	20
313.15	1265.3	20
323.15	1256.3	20
333.15	1247.5	20
343.15	1239.4	20
353.15	1230.6	20
363.15	1222.3	20

System: 1-dodecyl-3-methyl-1H-imidazolium bis(trifluoromethylsulfonyl)amide; phases: Crystal, Liquid, Air at 1 atmosphere
Property: Normal melting temperature, K (Crystal); method: DTA
Normal melting temperature, K	uncertainty
295.65	1.06

System: 1-dodecyl-3-methyl-1H-imidazolium bis(trifluoromethylsulfonyl)amide; phases: Liquid
Fixed: Pressure, kPa = 101
Property: Mass density, kg/m3 (Liquid); method: Vibrating tube method
Temperature, K	Mass density, kg/m3	uncertainty
293.15	1253.1	20
298.15	1248	20
303.15	1242	20
313.15	1232.2	20
323.15	1224.1	20
333.15	1216	20
343.15	1208.1	20
353.15	1200	20
363.15	1191.8	20

System: 1-dodecyl-3-methyl-1H-imidazolium bis(trifluoromethylsulfonyl)amide; phases: Liquid
Fixed: Pressure, kPa = 101
Property: Viscosity, Pa*s (Liquid); method: Concentric cylinders viscometry
Temperature, K	Viscosity, Pa*s	uncertainty
298.15	0.1305	0.021
303.15	0.1011	0.0162
313.15	0.06354	0.01019
323.15	0.04241	0.0068
333.15	0.02967	0.00475
343.15	0.02163	0.00347
353.15	0.01631	0.00261
363.15	0.01265	0.00203

System: 1-dodecyl-3-methyl-1H-imidazolium bis(trifluoromethylsulfonyl)amide; phases: Liquid
Fixed: Pressure, kPa = 101
Property: Refractive index (Na D-line) (Liquid); method: Standard Abbe refractometry
Temperature, K	Refractive index (Na D-line)	uncertainty
293.15	1.4385	0.004
298.15	1.437	0.004
303.15	1.4354	0.004
313.15	1.4324	0.004
323.15	1.4295	0.004
333.15	1.4265	0.004
343.15	1.4237	0.004
353.15	1.4209	0.004
363.15	1.4179	0.004

System: 1-dodecyl-3-methyl-1H-imidazolium bis(trifluoromethylsulfonyl)amide; phases: Liquid, Air at 1 atmosphere
Property: Surface tension liquid-gas, N/m (Liquid); method: Ring tensiometer
Temperature, K	Surface tension liquid-gas, N/m	uncertainty
298.15	0.0281	0.0009
303.15	0.0277	0.0009
313.15	0.0269	0.0009
323.15	0.0259	0.0009
333.15	0.0249	0.0009
343.15	0.0241	0.0009
353.15	0.0233	0.0009
363.15	0.0225	0.0009

System: 1-tetradecyl-3-methylimidazolium bis(trifluoromethylsulfonyl)imide; phases: Crystal, Liquid, Air at 1 atmosphere
Property: Normal melting temperature, K (Crystal); method: DTA
Normal melting temperature, K	uncertainty
307.5	1.1

System: 1-tetradecyl-3-methylimidazolium bis(trifluoromethylsulfonyl)imide; phases: Liquid
Fixed: Pressure, kPa = 101
Property: Mass density, kg/m3 (Liquid); method: Vibrating tube method
Temperature, K	Mass density, kg/m3	uncertainty
303.15	1197.1	20
313.15	1187.6	20
323.15	1180	20
333.15	1171.3	20
343.15	1163.1	20
353.15	1154.6	20
363.15	1146.5	20

System: 1-tetradecyl-3-methylimidazolium bis(trifluoromethylsulfonyl)imide; phases: Liquid
Fixed: Pressure, kPa = 101
Property: Viscosity, Pa*s (Liquid); method: Concentric cylinders viscometry
Temperature, K	Viscosity, Pa*s	uncertainty
313.15	0.08354	0.0134
323.15	0.05436	0.00871
333.15	0.03721	0.00596
343.15	0.02658	0.00426
353.15	0.01968	0.00315
363.15	0.01504	0.00241

System: 1-tetradecyl-3-methylimidazolium bis(trifluoromethylsulfonyl)imide; phases: Metastable liquid
Fixed: Pressure, kPa = 101
Property: Refractive index (Na D-line) (Metastable liquid); method: Standard Abbe refractometry
Temperature, K	Refractive index (Na D-line)	uncertainty
303.15	1.4384	0.004
313.15	1.4352	0.004
323.15	1.4322	0.004
333.15	1.4292	0.004
343.15	1.4262	0.004
353.15	1.4233	0.004
363.15	1.4204	0.004

System: 1-tetradecyl-3-methylimidazolium bis(trifluoromethylsulfonyl)imide; phases: Metastable liquid, Air at 1 atmosphere
Property: Surface tension liquid-gas, N/m (Metastable liquid); method: Ring tensiometer
Temperature, K	Surface tension liquid-gas, N/m	uncertainty
303.15	0.0263	0.0009
313.15	0.0253	0.0009
323.15	0.0245	0.0009
333.15	0.0237	0.0009
343.15	0.0229	0.0009
353.15	0.0223	0.0009
363.15	0.0217	0.0009
