Measured thermophysical data. Isobaric Vapor-Liquid Phase Equilibrium Measurements, Correlation, and Prediction for Separation of the Mixtures of Cyclohexanone and Alcohols
Source: J. Chem. Eng. Data, 2018, 10.1021/acs.jced.8b00033
Compound 1: cyclohexanone, C6H10O, InChI=1S/C6H10O/c7-6-4-2-1-3-5-6/h1-5H2, purity 99.5%
Compound 2: ethanol, C2H6O, InChI=1S/C2H6O/c1-2-3/h3H,2H2,1H3, purity 99.5%
Compound 3: propan-1-ol, C3H8O, InChI=1S/C3H8O/c1-2-3-4/h4H,2-3H2,1H3, purity 99.5%
Compound 4: propan-2-ol, C3H8O, InChI=1S/C3H8O/c1-3(2)4/h3-4H,1-2H3, purity 99.5%

System: cyclohexanone; phases: Liquid
Property: Mass density, kg/m3 (Liquid); method: Vibrating tube method
Temperature, K	Pressure, kPa	Mass density, kg/m3	uncertainty
298.15	101.325	941.1	1

System: cyclohexanone; phases: Liquid
Property: Refractive index (Na D-line) (Liquid); method: Standard Abbe refractometry
Temperature, K	Pressure, kPa	Refractive index (Na D-line)	uncertainty
298.15	101.325	1.44842	0.00051

System: cyclohexanone; phases: Liquid, Gas
Property: Vapor or sublimation pressure, kPa (Liquid); method: Ebulliometric method (Recirculating still)
Temperature, K	Vapor or sublimation pressure, kPa	uncertainty
428.6	101.3	1

System: ethanol; phases: Liquid
Property: Mass density, kg/m3 (Liquid); method: Vibrating tube method
Temperature, K	Pressure, kPa	Mass density, kg/m3	uncertainty
298.15	101.325	785	1

System: ethanol; phases: Liquid
Property: Refractive index (Na D-line) (Liquid); method: Standard Abbe refractometry
Temperature, K	Pressure, kPa	Refractive index (Na D-line)	uncertainty
298.15	101.325	1.35931	0.00051

System: ethanol; phases: Liquid, Gas
Property: Vapor or sublimation pressure, kPa (Liquid); method: Ebulliometric method (Recirculating still)
Temperature, K	Vapor or sublimation pressure, kPa	uncertainty
351.5	101.3	1

System: propan-1-ol; phases: Liquid
Property: Mass density, kg/m3 (Liquid); method: Vibrating tube method
Temperature, K	Pressure, kPa	Mass density, kg/m3	uncertainty
298.15	101.325	799.5	1

System: propan-1-ol; phases: Liquid
Property: Refractive index (Na D-line) (Liquid); method: Standard Abbe refractometry
Temperature, K	Pressure, kPa	Refractive index (Na D-line)	uncertainty
298.15	101.325	1.3831	0.00051

System: propan-1-ol; phases: Liquid, Gas
Property: Vapor or sublimation pressure, kPa (Liquid); method: Ebulliometric method (Recirculating still)
Temperature, K	Vapor or sublimation pressure, kPa	uncertainty
370.4	101.3	1

System: propan-2-ol; phases: Liquid
Property: Mass density, kg/m3 (Liquid); method: Vibrating tube method
Temperature, K	Pressure, kPa	Mass density, kg/m3	uncertainty
298.15	101.325	781.1	1

System: propan-2-ol; phases: Liquid
Property: Refractive index (Na D-line) (Liquid); method: Standard Abbe refractometry
Temperature, K	Pressure, kPa	Refractive index (Na D-line)	uncertainty
298.15	101.325	1.375	0.00051

System: propan-2-ol; phases: Liquid, Gas
Property: Vapor or sublimation pressure, kPa (Liquid); method: Ebulliometric method (Recirculating still)
Temperature, K	Vapor or sublimation pressure, kPa	uncertainty
355.3	101.3	1

System: cyclohexanone + ethanol; phases: Liquid, Gas
Fixed: Pressure, kPa = 101.3
Property: Boiling temperature at pressure P, K (Liquid); method: Ebulliometric method (Recirculating still)
Mole fraction of cyclohexanone	Boiling temperature at pressure P, K	uncertainty
0	351.5	0.2
0.0754	352.9	0.3
0.1758	354.9	0.3
0.2965	357.7	0.4
0.4175	361.1	0.4
0.5119	364.9	0.5
0.5911	369.1	0.7
0.654	373	0.8
0.7378	379.5	0.9
0.7869	384.2	1.2
0.8539	392.5	1.6
0.9049	401.1	2.1
0.9523	412	2.7
0.9738	418.6	3.5
0.9888	423.9	4.1
1	428.6	0.2

System: cyclohexanone + ethanol; phases: Gas, Liquid
Fixed: Pressure, kPa = 101.3
Property: Mole fraction of cyclohexanone (Gas); method: Chromatography
Mole fraction of cyclohexanone	Mole fraction of cyclohexanone	uncertainty
0	0	
0.0754	0.0106	0.0106
0.1758	0.0232	0.0232
0.2965	0.0354	0.0354
0.4175	0.054	0.054
0.5119	0.0749	0.0749
0.5911	0.0999	0.0999
0.654	0.1247	0.1247
0.7378	0.1736	0.1736
0.7869	0.2148	0.2004
0.8539	0.3037	0.2008
0.9049	0.4152	0.2027
0.9523	0.6013	0.206
0.9738	0.7379	0.2145
0.9888	0.8658	0.1342
1	1	

System: cyclohexanone + propan-1-ol; phases: Liquid, Gas
Fixed: Pressure, kPa = 101.3
Property: Boiling temperature at pressure P, K (Liquid); method: Ebulliometric method (Recirculating still)
Mole fraction of cyclohexanone	Boiling temperature at pressure P, K	uncertainty
0	370.4	0.2
0.0445	371.1	0.3
0.0902	371.9	0.3
0.1868	374.1	0.3
0.2537	375.7	0.4
0.4283	380.9	0.4
0.5152	384.4	0.5
0.5944	388.1	0.6
0.6638	392.1	0.7
0.7744	399.7	0.8
0.8367	405.1	1.1
0.8931	411.4	1.3
0.924	415.4	1.6
0.9555	420.3	1.7
0.9768	423.9	2
1	428.6	0.2

System: cyclohexanone + propan-1-ol; phases: Gas, Liquid
Fixed: Pressure, kPa = 101.3
Property: Mole fraction of cyclohexanone (Gas); method: Chromatography
Mole fraction of cyclohexanone	Mole fraction of cyclohexanone	uncertainty
0	0	
0.0445	0.01	0.01
0.0902	0.0188	0.0188
0.1868	0.0392	0.0392
0.2537	0.0555	0.0555
0.4283	0.1106	0.1106
0.5152	0.1457	0.1457
0.5944	0.1875	0.1875
0.6638	0.2346	0.2002
0.7744	0.3457	0.2004
0.8367	0.4375	0.201
0.8931	0.5605	0.2017
0.924	0.6481	0.2031
0.9555	0.7649	0.2045
0.9768	0.8585	0.1415
1	1	

System: cyclohexanone + propan-2-ol; phases: Liquid, Gas
Fixed: Pressure, kPa = 101.3
Property: Boiling temperature at pressure P, K (Liquid); method: Ebulliometric method (Recirculating still)
Mole fraction of cyclohexanone	Boiling temperature at pressure P, K	uncertainty
0	355.3	0.2
0.1253	358	0.3
0.2332	360.8	0.4
0.3458	364	0.4
0.4585	367.8	0.5
0.5515	371.9	0.6
0.6124	375	0.7
0.7052	381.1	0.8
0.7859	387.8	1
0.8409	394	1.4
0.8895	401.1	1.8
0.9243	407.5	2.2
0.9515	413.7	2.8
0.9615	416.3	2.8
0.984	423	3.4
1	428.6	0.2

System: cyclohexanone + propan-2-ol; phases: Gas, Liquid
Fixed: Pressure, kPa = 101.3
Property: Mole fraction of cyclohexanone (Gas); method: Chromatography
Mole fraction of cyclohexanone	Mole fraction of cyclohexanone	uncertainty
0	0	
0.1253	0.0187	0.0187
0.2332	0.0341	0.0341
0.3458	0.053	0.053
0.4585	0.0735	0.0735
0.5515	0.0998	0.0998
0.6124	0.1209	0.1209
0.7052	0.1714	0.1714
0.7859	0.2392	0.2003
0.8409	0.3119	0.2008
0.8895	0.4102	0.2017
0.9243	0.515	0.2037
0.9515	0.632	0.2087
0.9615	0.6867	0.2084
0.984	0.8426	0.1574
1	1	
