Measured thermophysical data. Evaluation of the 2,2',2"-Nitrilotrisethanol as an Entrainer for Separation of an Isopropanol + Water Mixture
Source: J. Chem. Eng. Data, 2019, 10.1021/acs.jced.8b00610
Compound 1: propan-2-ol, C3H8O, InChI=1S/C3H8O/c1-3(2)4/h3-4H,1-2H3, purity 99%
Compound 2: triethanolamine, C6H15NO3, InChI=1S/C6H15NO3/c8-4-1-7(2-5-9)3-6-10/h8-10H,1-6H2, purity 98%
Compound 3: water, H2O, InChI=1S/H2O/h1H2, purity 99.9%

System: propan-2-ol; phases: Liquid, Gas
Fixed: Temperature, K = 355.7
Property: Vapor or sublimation pressure, kPa (Liquid); method: Ebulliometric method (Recirculating still)
Vapor or sublimation pressure, kPa	uncertainty
101.3	1.4
101.32	10.132

System: water; phases: Liquid, Gas
Property: Vapor or sublimation pressure, kPa (Liquid); method: Ebulliometric method (Recirculating still)
Temperature, K	Vapor or sublimation pressure, kPa	uncertainty
373.1	101.3	1.4

System: propan-2-ol + water + triethanolamine; phases: Gas, Liquid
Fixed: Pressure, kPa = 101.3
Property: Boiling temperature at pressure P, K (Gas); method: Ebulliometric method (Recirculating still)
Mole fraction of triethanolamine	Solvent: Mole fraction of propan-2-ol	Boiling temperature at pressure P, K	uncertainty
0.05	0	373.5	2
0.05	0.044	370.1	2.3
0.05	0.13	366	2.3
0.05	0.2	362.9	2.1
0.05	0.334	360.4	2.1
0.05	0.413	358.8	2
0.05	0.567	358.2	2
0.05	0.671	357.8	2
0.05	0.826	357.3	2
0.05	0.89	357	2
0.05	0.946	356.9	2
0.05	0.95	356.8	2
0.05	1	356.8	2
0.1	0	373.8	2
0.1	0.04	370.2	2.5
0.1	0.099	366.4	2.3
0.1	0.164	363.5	2.1
0.1	0.302	361.3	2
0.1	0.431	359.5	2
0.1	0.609	358.4	2
0.1	0.683	357.9	2
0.1	0.724	357.6	2
0.1	0.823	357.4	2
0.1	0.89	357.2	2
0.1	0.926	357.2	2
0.1	0.962	357.1	2
0.1	1	357.1	2
0.15	0	374.3	2
0.15	0.032	371.2	2.6
0.15	0.087	367.1	2.4
0.15	0.15	363.9	2.2
0.15	0.22	361.8	2
0.15	0.401	360.4	2
0.15	0.556	359.6	2
0.15	0.659	359	2.1
0.15	0.743	358.5	2.1
0.15	0.886	358.1	2
0.15	0.923	357.9	2
0.15	0.967	357.7	2
0.15	1	357.6	2

System: propan-2-ol + water + triethanolamine; phases: Gas, Liquid
Fixed: Pressure, kPa = 101.3
Property: Mole fraction of propan-2-ol (Gas); method: Chromatography
Mole fraction of triethanolamine	Solvent: Mole fraction of propan-2-ol	Mole fraction of propan-2-ol	uncertainty
0	0.627	0.637	0.021
0.02	0.629	0.649	0.028
0.03	0.628	0.662	0.028
0.05	0.626	0.688	0.037
0.07	0.627	0.721	0.044
0.1	0.63	0.761	0.028
0.15	0.632	0.817	0.03

System: propan-2-ol + water + triethanolamine; phases: Gas, Liquid
Fixed: Pressure, kPa = 101.3
Property: Mole fraction of propan-2-ol (Gas); method: Chromatography
Mole fraction of triethanolamine	Solvent: Mole fraction of propan-2-ol	Mole fraction of propan-2-ol	uncertainty
0.05	0	0	
0.05	0.044	0.145	0.06
0.05	0.13	0.312	0.063
0.05	0.2	0.432	0.047
0.05	0.334	0.574	0.038
0.05	0.413	0.616	0.027
0.05	0.567	0.66	0.034
0.05	0.671	0.732	0.037
0.05	0.826	0.837	0.032
0.05	0.89	0.884	0.031
0.05	0.946	0.932	0.03
0.05	0.95	0.934	0.03
0.05	1	1	
0.1	0	0	
0.1	0.04	0.189	0.077
0.1	0.099	0.365	0.058
0.1	0.164	0.453	0.049
0.1	0.302	0.596	0.027
0.1	0.431	0.652	0.032
0.1	0.609	0.759	0.035
0.1	0.683	0.808	0.034
0.1	0.724	0.829	0.033
0.1	0.823	0.888	0.032
0.1	0.89	0.932	0.028
0.1	0.926	0.954	0.025
0.1	0.962	0.976	0.024
0.1	1	1	
0.15	0	0	
0.15	0.032	0.193	0.09
0.15	0.087	0.388	0.061
0.15	0.15	0.526	0.051
0.15	0.22	0.621	0.048
0.15	0.401	0.719	0.038
0.15	0.556	0.786	0.033
0.15	0.659	0.848	0.03
0.15	0.743	0.889	0.03
0.15	0.886	0.955	0.024
0.15	0.923	0.969	0.023
0.15	0.967	0.987	0.013
0.15	1	1	

System: water + triethanolamine; phases: Liquid, Gas
Fixed: Pressure, kPa = 101.3
Property: Boiling temperature at pressure P, K (Liquid); method: Ebulliometric method (Recirculating still)
Mole fraction of water	Boiling temperature at pressure P, K	uncertainty
1	373.1	2
0.981	373.7	2.1
0.967	374.1	2.1
0.927	375	2.1
0.873	376.2	2.1
0.823	377.3	2.1
0.789	378.1	2.1
0.764	378.6	2.1
0.735	379.4	2.1
0.692	380.3	2.1
0.669	381.7	2.1
0.61	382.3	2.1
0.542	384.6	2.1

System: water + triethanolamine; phases: Gas, Liquid
Fixed: Pressure, kPa = 101.3
Property: Boiling temperature at pressure P, K (Gas); method: Ebulliometric method (Recirculating still)
Mole fraction of triethanolamine	Boiling temperature at pressure P, K	uncertainty
0.05	373.5	2
0.1	373.8	2
0.15	374.3	2

System: propan-2-ol + triethanolamine; phases: Liquid, Gas
Fixed: Pressure, kPa = 101.32
Property: Boiling temperature at pressure P, K (Liquid); method: Ebulliometric method (Recirculating still)
Mole fraction of propan-2-ol	Boiling temperature at pressure P, K	uncertainty
1	355.7	2
0.978	356.1	2.1
0.946	357.1	2.1
0.916	357.9	2.1
0.853	359.8	2.1
0.792	361.9	2.1
0.734	364.2	2.2
0.696	366.7	2.2
0.642	368.1	2.1
0.581	370.2	2.2
0.544	372.8	2.3
0.51	374.1	2.2

System: propan-2-ol + triethanolamine; phases: Gas, Liquid
Fixed: Pressure, kPa = 101.3
Property: Boiling temperature at pressure P, K (Gas); method: Ebulliometric method (Recirculating still)
Mole fraction of triethanolamine	Boiling temperature at pressure P, K	uncertainty
0.05	356.8	2
0.1	357.1	2
0.15	357.6	2

System: propan-2-ol + water; phases: Gas, Liquid
Fixed: Mole fraction of propan-2-ol = 0.627
Fixed: Mole fraction of propan-2-ol = 0.637
Property: Vapor or sublimation pressure, kPa (Gas); method: Ebulliometric method (Recirculating still)
Vapor or sublimation pressure, kPa	uncertainty
101.32	1.08
101.3	
