Measured thermophysical data. Density and Viscosity of Partially Carbonated Aqueous Solutions Containing a Tertiary Alkanolamine and Piperazine at Temperatures between 298.15 and 353.15 K
Source: J. Chem. Eng. Data, 2017, 10.1021/acs.jced.7b00144
Compound 1: carbon dioxide, CO2, InChI=1S/CO2/c2-1-3, purity 99.995%
Compound 2: piperazine, C4H10N2, InChI=1S/C4H10N2/c1-2-6-4-3-5-1/h5-6H,1-4H2, purity 99%
Compound 3: 2-(N,N-dimethylamino)ethanol, C4H11NO, InChI=1S/C4H11NO/c1-5(2)3-4-6/h6H,3-4H2,1-2H3, purity 99.5%
Compound 4: (diethylamino)ethanol, C6H15NO, InChI=1S/C6H15NO/c1-3-7(4-2)5-6-8/h8H,3-6H2,1-2H3, purity 99%
Compound 5: water, H2O, InChI=1S/H2O/h1H2, purity 99.9%

System: 2-(N,N-dimethylamino)ethanol + piperazine + water; phases: Liquid
Fixed: Pressure, kPa = 101
Property: Mass density, kg/m3 (Liquid); method: Vibrating tube method
Mass fraction of 2-(N,N-dimethylamino)ethanol	Mass fraction of piperazine	Temperature, K	Mass density, kg/m3	uncertainty
0.1	0.1	298.15	1001.95	0.11
0.1	0.1	303.15	999.86	0.11
0.1	0.1	313.15	994.78	0.11
0.1	0.1	323.15	989.23	0.11
0.1	0.1	333.15	983.05	0.11
0.1	0.1	343.15	976.22	0.11
0.1	0.1	353.15	968.75	0.11
0.15	0.15	298.15	1004.11	0.11
0.15	0.15	303.15	1001.37	0.11
0.15	0.15	313.15	995.55	0.11
0.15	0.15	323.15	989.29	0.11
0.15	0.15	333.15	982.6	0.1
0.15	0.15	343.15	975.51	0.12
0.15	0.15	353.15	968.03	0.12
0.2	0.1	298.15	998.9	0.11
0.2	0.1	303.15	996.11	0.11
0.2	0.1	313.15	990.18	0.11
0.2	0.1	323.15	983.81	0.11
0.2	0.1	333.15	977.02	0.11
0.2	0.1	343.15	969.85	0.11
0.2	0.1	353.15	962.29	0.12
0.25	0.05	298.15	993.41	0.11
0.25	0.05	303.15	990.57	0.11
0.25	0.05	313.15	984.55	0.11
0.25	0.05	323.15	978.1	0.1
0.25	0.05	333.15	971.23	0.11
0.25	0.05	343.15	963.98	0.11
0.25	0.05	353.15	956.35	0.12
0.3	0	298.15	987.98	0.11
0.3	0	303.15	985.08	0.11
0.3	0	313.15	978.95	0.11
0.3	0	323.15	972.38	0.11
0.3	0	333.15	965.41	0.11
0.3	0	343.15	958.05	0.11
0.3	0	353.15	950.31	0.12
0.25	0.15	303.15	998.12	0.11
0.25	0.15	313.15	991.1	0.1
0.25	0.15	323.15	983.79	0.12
0.25	0.15	333.15	976.16	0.12
0.25	0.15	343.15	968.23	0.12
0.25	0.15	353.15	960	10
0.3	0.1	298.15	995.35	0.11
0.3	0.1	303.15	991.93	0.11
0.3	0.1	313.15	984.87	0.11
0.3	0.1	323.15	977.51	0.12
0.3	0.1	333.15	969.86	0.12
0.3	0.1	343.15	961.88	0.12
0.3	0.1	353.15	953.62	0.12
0.35	0.05	298.15	989.36	0.11
0.35	0.05	303.15	985.92	0.11
0.35	0.05	313.15	978.82	0.11
0.35	0.05	323.15	971.41	0.12
0.35	0.05	333.15	963.7	0.1
0.35	0.05	343.15	955.69	0.12
0.35	0.05	353.15	947.37	0.12
0.4	0	298.15	983.8	0.1
0.4	0	303.15	980.32	0.11
0.4	0	313.15	973.17	0.11
0.4	0	323.15	965.72	0.11
0.4	0	333.15	957.96	0.12
0.4	0	343.15	949.9	0.1
0.4	0	353.15	941.53	0.12

System: 2-(N,N-dimethylamino)ethanol + piperazine + water; phases: Liquid
Fixed: Pressure, kPa = 101
Property: Viscosity, Pa*s (Liquid); method: Capillary tube (Ostwald; Ubbelohde) method
Mass fraction of 2-(N,N-dimethylamino)ethanol	Mass fraction of piperazine	Temperature, K	Viscosity, Pa*s	uncertainty
0.15	0.15	303.15	0.00331	7e-05
0.15	0.15	313.15	0.00235	5e-05
0.15	0.15	323.15	0.00174	4e-05
0.15	0.15	333.15	0.00134	3e-05
0.15	0.15	343.15	0.00106	2e-05
0.15	0.15	353.15	0.00087	2e-05
0.2	0.1	293.15	0.0047	0.0001
0.2	0.1	303.15	0.00328	7e-05
0.2	0.1	313.15	0.00233	5e-05
0.2	0.1	323.15	0.00174	4e-05
0.2	0.1	333.15	0.00134	3e-05
0.2	0.1	343.15	0.00107	2e-05
0.2	0.1	353.15	0.00087	2e-05
0.25	0.05	293.15	0.00456	9e-05
0.25	0.05	303.15	0.00308	6e-05
0.25	0.05	313.15	0.0022	5e-05
0.25	0.05	323.15	0.00165	3e-05
0.25	0.05	333.15	0.00128	3e-05
0.25	0.05	343.15	0.00102	2e-05
0.25	0.05	353.15	0.00088	2e-05
0.3	0	303.15	0.00292	6e-05
0.3	0	313.15	0.00201	4e-05
0.3	0	323.15	0.00151	3e-05
0.3	0	333.15	0.00118	3e-05
0.3	0	343.15	0.00094	2e-05
0.3	0	353.15	0.00078	2e-05
0.25	0.15	313.15	0.003915	8.1e-05
0.25	0.15	323.15	0.002765	5.7e-05
0.25	0.15	333.15	0.001995	4.1e-05
0.25	0.15	343.15	0.0015	3e-05
0.25	0.15	353.15	0.001235	2.6e-05
0.3	0.1	293.15	0.00837	0.00017
0.3	0.1	303.15	0.00524	0.00011
0.3	0.1	313.15	0.00353	7e-05
0.3	0.1	323.15	0.00252	5e-05
0.3	0.1	333.15	0.00188	4e-05
0.3	0.1	343.15	0.00146	3e-05
0.3	0.1	353.15	0.00114	2e-05
0.35	0.05	293.15	0.00796	0.00016
0.35	0.05	303.15	0.00504	0.0001
0.35	0.05	313.15	0.00347	7e-05
0.35	0.05	323.15	0.00246	5e-05
0.35	0.05	333.15	0.00184	4e-05
0.35	0.05	343.15	0.00143	3e-05
0.35	0.05	353.15	0.00114	2e-05
0.4	0	303.15	0.00464	0.0001
0.4	0	313.15	0.00319	7e-05
0.4	0	323.15	0.00231	5e-05
0.4	0	333.15	0.00174	4e-05
0.4	0	343.15	0.00135	3e-05
0.4	0	353.15	0.00108	2e-05

System: 2-(N,N-dimethylamino)ethanol + carbon dioxide + water; phases: Liquid
Fixed: Pressure, kPa = 101
Property: Mass density, kg/m3 (Liquid); method: Vibrating tube method
Molality, mol/kg of carbon dioxide	Solvent: Mass fraction of 2-(N,N-dimethylamino)ethanol	Temperature, K	Mass density, kg/m3	uncertainty
0.61	0.3	298.15	1013.83	1.11
0.61	0.3	303.15	1010.74	1.1
0.61	0.3	313.15	1004.24	1.1
0.61	0.3	323.15	997.36	1.09
0.61	0.3	333.15	990.15	1.09
0.61	0.3	343.15	982.63	1.09
0.61	0.3	353.15	974.83	1.08
1.14	0.3	298.15	1037.76	2.03
1.14	0.3	303.15	1034.54	2.04
1.14	0.3	313.15	1027.82	2.03
1.14	0.3	323.15	1020.8	2
1.14	0.3	333.15	1013.52	2.03
1.14	0.3	343.15	1006	2
1.14	0.3	353.15	998.27	2.04
1.65	0.3	298.15	1060.16	2.91
1.65	0.3	303.15	1056.93	2.92
1.65	0.3	313.15	1050.28	2.97
1.65	0.3	323.15	1043.36	2.95
1.65	0.3	333.15	1036.22	2.97
1.65	0.3	343.15	1028.82	2.99
1.65	0.3	353.15	1021.17	3
2.42	0.3	298.15	1093.53	4.27
2.42	0.3	303.15	1090.8	4.3
2.42	0.3	313.15	1085.16	4.3
0.72	0.4	298.15	1013.99	1.26
0.72	0.4	303.15	1010.37	1.26
0.72	0.4	313.15	1002.95	1.26
0.72	0.4	323.15	995.31	1.25
0.72	0.4	333.15	987.46	1.25
0.72	0.4	343.15	979.4	1.3
0.72	0.4	353.15	971.08	1.26
1.39	0.4	298.15	1043.19	2.44
1.39	0.4	303.15	1039.49	2.43
1.39	0.4	313.15	1031.97	2.35
1.39	0.4	323.15	1024.27	2.39
1.39	0.4	333.15	1016.45	2.42
1.39	0.4	343.15	1008.46	2.44
1.39	0.4	353.15	1000.26	2.42
2.02	0.4	303.15	1067.05	3.4
2.02	0.4	313.15	1059.66	3.43
2.02	0.4	323.15	1052.14	3.52
2.02	0.4	333.15	1044.51	3.59
2.02	0.4	343.15	1036.74	3.63
2.65	0.4	303.15	1094.95	4.7
2.65	0.4	313.15	1088.07	4.43
2.65	0.4	323.15	1081.07	4.51
2.65	0.4	333.15	1073.88	4.94

System: 2-(N,N-dimethylamino)ethanol + carbon dioxide + water; phases: Liquid
Fixed: Pressure, kPa = 101
Property: Viscosity, Pa*s (Liquid); method: Capillary tube (Ostwald; Ubbelohde) method
Solvent: Mass fraction of 2-(N,N-dimethylamino)ethanol	Molality, mol/kg of carbon dioxide	Temperature, K	Viscosity, Pa*s	uncertainty
0.3	0.61	303.15	0.00296	6e-05
0.3	0.61	313.15	0.00215	4e-05
0.3	0.61	323.15	0.00163	3e-05
0.3	0.61	333.15	0.00128	3e-05
0.3	0.61	343.15	0.00103	2e-05
0.3	0.61	353.15	0.00085	2e-05
0.3	1.14	303.15	0.00309	6e-05
0.3	1.14	313.15	0.00227	5e-05
0.3	1.14	323.15	0.00174	4e-05
0.3	1.14	333.15	0.00137	3e-05
0.3	1.14	343.15	0.00111	2e-05
0.3	1.14	353.15	0.00092	2e-05
0.3	1.65	303.15	0.0032	7e-05
0.3	1.65	313.15	0.00238	5e-05
0.3	1.65	323.15	0.00184	4e-05
0.3	1.65	333.15	0.00146	3e-05
0.3	1.65	343.15	0.00119	3e-05
0.4	0.72	293.15	0.00757	0.00016
0.4	0.72	303.15	0.00495	0.0001
0.4	0.72	313.15	0.00344	7e-05
0.4	0.72	323.15	0.00251	5e-05
0.4	0.72	333.15	0.0019	4e-05
0.4	0.72	343.15	0.00148	3e-05
0.4	0.72	353.15	0.0012	3e-05
0.4	1.39	303.15	0.00574	0.00013
0.4	1.39	313.15	0.00403	0.00011
0.4	1.39	323.15	0.00295	8e-05
0.4	1.39	333.15	0.00224	5e-05
0.4	2.02	293.15	0.00893	0.00019
0.4	2.02	303.15	0.00599	0.00015
0.4	2.02	313.15	0.00425	0.00017
0.4	2.02	323.15	0.00316	0.00012
0.4	2.02	333.15	0.00241	5e-05

System: (diethylamino)ethanol + piperazine + water; phases: Liquid
Fixed: Pressure, kPa = 101
Property: Mass density, kg/m3 (Liquid); method: Vibrating tube method
Mass fraction of (diethylamino)ethanol	Mass fraction of piperazine	Temperature, K	Mass density, kg/m3	uncertainty
0.1	0.1	298.15	997.69	0.11
0.1	0.1	303.15	996.29	0.11
0.1	0.1	313.15	992.92	0.11
0.1	0.1	323.15	988.79	0.11
0.1	0.1	333.15	983.91	0.11
0.1	0.1	343.15	978.28	0.11
0.1	0.1	353.15	971.89	0.12
0.15	0.15	303.15	1001.5	0.1
0.15	0.15	313.15	995.44	0.12
0.15	0.15	323.15	988.92	0.12
0.15	0.15	333.15	981.98	0.12
0.15	0.15	343.15	974.64	0.12
0.15	0.15	353.15	966.85	0.12
0.2	0.1	298.15	999.15	0.11
0.2	0.1	303.15	996.21	0.12
0.2	0.1	313.15	989.99	0.12
0.2	0.1	323.15	983.31	0.12
0.2	0.1	333.15	976.23	0.12
0.2	0.1	343.15	968.77	0.12
0.2	0.1	353.15	960.94	0.12
0.25	0.05	298.15	993.15	0.12
0.25	0.05	303.15	990.05	0.12
0.25	0.05	313.15	983.62	0.12
0.25	0.05	323.15	976.77	0.12
0.25	0.05	333.15	969.52	0.12
0.25	0.05	343.15	961.89	0.12
0.25	0.05	353.15	953.89	0.12
0.3	0	298.15	987.24	0.12
0.3	0	303.15	984.1	0.1
0.3	0	313.15	977.49	0.12
0.3	0	323.15	970.47	0.12
0.3	0	333.15	963.06	0.12
0.3	0	343.15	955.26	0.12
0.3	0	353.15	947.1	0.1
0.25	0.15	303.15	996.2	0.1
0.25	0.15	313.15	988.91	0.12
0.25	0.15	323.15	981.32	0.13
0.25	0.15	333.15	973.43	0.13
0.25	0.15	343.15	965.23	0.13
0.25	0.15	353.15	956.73	0.13
0.3	0.1	298.15	993.46	0.12
0.3	0.1	303.15	989.89	0.12
0.3	0.1	313.15	982.51	0.13
0.3	0.1	323.15	974.85	0.13
0.3	0.1	333.15	966.87	0.13
0.3	0.1	343.15	958.58	0.13
0.3	0.1	353.15	950.02	0.13
0.35	0.05	298.15	986.96	0.12
0.35	0.05	303.15	983.36	0.12
0.35	0.05	313.15	975.91	0.13
0.35	0.05	323.15	968.15	0.13
0.35	0.05	333.15	960.07	0.13
0.35	0.05	343.15	951.67	0.13
0.35	0.05	353.15	942.96	0.13
0.4	0	298.15	980.18	0.12
0.4	0	303.15	976.55	0.13
0.4	0	313.15	969.01	0.13
0.4	0	323.15	961.13	0.13
0.4	0	333.15	952.94	0.13
0.4	0	343.15	944.42	0.13
0.4	0	353.15	935.57	0.13

System: (diethylamino)ethanol + piperazine + water; phases: Liquid
Fixed: Pressure, kPa = 101
Property: Viscosity, Pa*s (Liquid); method: Capillary tube (Ostwald; Ubbelohde) method
Mass fraction of (diethylamino)ethanol	Mass fraction of piperazine	Temperature, K	Viscosity, Pa*s	uncertainty
0.1	0.1	303.15	0.00206	4e-05
0.1	0.1	313.15	0.00158	3e-05
0.1	0.1	323.15	0.00119	3e-05
0.1	0.1	333.15	0.00096	2e-05
0.1	0.1	343.15	0.00079	2e-05
0.1	0.1	353.15	0.00066	1e-05
0.15	0.15	303.15	0.00353	7e-05
0.15	0.15	313.15	0.00248	5e-05
0.15	0.15	323.15	0.00183	4e-05
0.15	0.15	333.15	0.00141	3e-05
0.15	0.15	343.15	0.00111	2e-05
0.15	0.15	353.15	0.00091	2e-05
0.25	0.05	303.15	0.00322	7e-05
0.25	0.05	313.15	0.00227	5e-05
0.25	0.05	323.15	0.00169	4e-05
0.25	0.05	333.15	0.00131	3e-05
0.25	0.05	343.15	0.00105	2e-05
0.25	0.05	353.15	0.00086	2e-05
0.3	0	303.15	0.003	6e-05
0.3	0	313.15	0.00213	4e-05
0.3	0	323.15	0.0016	3e-05
0.3	0	333.15	0.00125	3e-05
0.3	0	343.15	0.001	2e-05
0.3	0	353.15	0.00083	2e-05
0.25	0.15	303.15	0.00353	7e-05
0.25	0.15	313.15	0.00248	5e-05
0.25	0.15	323.15	0.00183	4e-05
0.25	0.15	333.15	0.00141	3e-05
0.25	0.15	343.15	0.00112	2e-05
0.25	0.15	353.15	0.0009	0.0001
0.3	0.1	303.15	0.0054	0.00011
0.3	0.1	313.15	0.0036	8e-05
0.3	0.1	323.15	0.00255	5e-05
0.3	0.1	333.15	0.0019	4e-05
0.3	0.1	343.15	0.00146	3e-05
0.3	0.1	353.15	0.00116	2e-05
0.35	0.5	303.15	0.00494	0.0001
0.35	0.5	313.15	0.00333	7e-05
0.35	0.5	323.15	0.0024	5e-05
0.35	0.5	333.15	0.00179	4e-05
0.35	0.5	343.15	0.00139	3e-05
0.35	0.5	353.15	0.00112	2e-05
0.4	0	303.15	0.00451	9e-05
0.4	0	313.15	0.00308	6e-05
0.4	0	323.15	0.00223	5e-05
0.4	0	333.15	0.00176	4e-05
0.4	0	343.15	0.00145	3e-05
0.4	0	353.15	0.0012	0.0001

System: (diethylamino)ethanol + carbon dioxide + water; phases: Liquid
Fixed: Pressure, kPa = 101
Property: Mass density, kg/m3 (Liquid); method: Vibrating tube method
Molality, mol/kg of carbon dioxide	Solvent: Mass fraction of (diethylamino)ethanol	Temperature, K	Mass density, kg/m3	uncertainty
0.49	0.3	298.15	1008.4	0.9
0.49	0.3	303.15	1005.02	0.88
0.49	0.3	313.15	997.89	0.87
0.49	0.3	323.15	990.36	0.86
0.49	0.3	333.15	982.53	0.85
0.49	0.3	343.15	974.41	0.85
0.49	0.3	353.15	966.03	0.82
0.92	0.3	298.15	1027.58	1.59
0.92	0.3	303.15	1024.02	1.6
0.92	0.3	313.15	1016.57	1.59
0.92	0.3	323.15	1008.8	1.6
0.92	0.3	333.15	1000.79	1.58
0.92	0.3	343.15	992.61	1.58
0.92	0.3	353.15	984.26	1.6
1.33	0.3	298.15	1044.59	2.29
1.33	0.3	303.15	1041.06	2.34
1.33	0.3	313.15	1033.69	2.42
1.33	0.3	323.15	1026.03	2.51
1.33	0.3	333.15	1018.18	2.58
1.33	0.3	343.15	1010.18	2.28
1.92	0.3	298.15	1070.55	3.38
1.92	0.3	303.15	1067.73	3.46
1.92	0.3	313.15	1061.76	3.64
1.92	0.3	323.15	1055.44	3.82
1.92	0.3	333.15	1048.82	3.99
0.68	0.4	298.15	1009.47	1.16
0.68	0.4	303.15	1005.44	1.15
0.68	0.4	313.15	997.24	1.05
0.68	0.4	323.15	988.82	1.08
0.68	0.4	333.15	980.26	1.1
0.68	0.4	343.15	971.49	1.12
0.68	0.4	353.15	962.52	1.14
1.23	0.4	298.15	1032.76	2.11
1.23	0.4	303.15	1028.59	2.11
1.23	0.4	313.15	1020.13	2.09
1.23	0.4	323.15	1011.59	2.09
1.23	0.4	333.15	1002.97	2.1
1.23	0.4	343.15	994.25	2.11
1.23	0.4	353.15	985.39	2.05
1.64	0.4	298.15	1050.66	2.81
1.64	0.4	303.15	1046.55	2.83
1.64	0.4	313.15	1038.15	2.56
1.64	0.4	323.15	1029.7	2.6
1.64	0.4	333.15	1021.23	2.73
1.64	0.4	343.15	1012.71	2.95
1.98	0.4	298.15	1064.87	3.31
1.98	0.4	303.15	1060.84	3.33
1.98	0.4	313.15	1052.69	3.38
1.98	0.4	323.15	1044.48	3.44
1.98	0.4	333.15	1036.26	3.5
1.98	0.4	343.15	1027.98	3.56

System: (diethylamino)ethanol + carbon dioxide + water; phases: Liquid
Fixed: Pressure, kPa = 101
Property: Viscosity, Pa*s (Liquid); method: Capillary tube (Ostwald; Ubbelohde) method
Solvent: Mass fraction of (diethylamino)ethanol	Molality, mol/kg of carbon dioxide	Temperature, K	Viscosity, Pa*s	uncertainty
0.3	0.49	303.15	0.00329	7e-05
0.3	0.49	313.15	0.00234	5e-05
0.3	0.49	323.15	0.00175	4e-05
0.3	0.49	333.15	0.00136	3e-05
0.3	0.49	343.15	0.00109	2e-05
0.3	0.49	353.15	0.00089	2e-05
0.3	0.92	303.15	0.00353	8e-05
0.3	0.92	313.15	0.00251	5e-05
0.3	0.92	323.15	0.00188	4e-05
0.3	0.92	333.15	0.00146	3e-05
0.3	0.92	343.15	0.00117	3e-05
0.3	1.33	303.15	0.00373	8e-05
0.3	1.33	313.15	0.00267	6e-05
0.3	1.33	323.15	0.002	4e-05
0.3	1.33	333.15	0.00155	4e-05
0.3	1.33	343.15	0.00124	3e-05
0.3	1.92	303.15	0.00381	8e-05
0.3	1.92	313.15	0.00282	7e-05
0.3	1.92	323.15	0.00217	5e-05
0.3	1.92	333.15	0.00171	4e-05
0.4	0.68	303.15	0.00534	0.00012
0.4	0.68	313.15	0.00363	9e-05
0.4	0.68	323.15	0.00262	6e-05
0.4	0.68	333.15	0.00197	4e-05
0.4	0.68	343.15	0.00152	3e-05
0.4	0.68	353.15	0.00121	3e-05
0.4	1.23	303.15	0.00612	0.00014
0.4	1.23	313.15	0.00414	0.0001
0.4	1.23	323.15	0.00298	7e-05
0.4	1.23	333.15	0.00224	5e-05
0.4	1.23	343.15	0.00173	4e-05
0.4	1.23	353.15	0.00139	3e-05
0.4	1.64	303.15	0.00662	0.00017
0.4	1.64	313.15	0.00451	0.00018
0.4	1.64	323.15	0.00322	0.00011
0.4	1.64	333.15	0.00241	7e-05
0.4	1.64	343.15	0.00185	4e-05
0.4	1.98	303.15	0.0073	0.00022
0.4	1.98	313.15	0.00494	0.0002
0.4	1.98	323.15	0.0035	0.00013
0.4	1.98	333.15	0.00259	7e-05

System: 2-(N,N-dimethylamino)ethanol + water; phases: Liquid
Fixed: Pressure, kPa = 101
Property: Mass density, kg/m3 (Liquid); method: Vibrating tube method
Mass fraction of 2-(N,N-dimethylamino)ethanol	Temperature, K	Mass density, kg/m3	uncertainty
0.3	298.15	987.98	0.11
0.3	303.15	985.08	0.11
0.3	313.15	978.95	0.11
0.3	323.15	972.38	0.11
0.3	333.15	965.41	0.11
0.3	343.15	958.05	0.11
0.3	353.15	950.31	0.12
0.4	298.15	983.8	0.1
0.4	303.15	980.32	0.11
0.4	313.15	973.17	0.11
0.4	323.15	965.72	0.11
0.4	333.15	957.96	0.12
0.4	343.15	949.9	0.1
0.4	353.15	941.53	0.12

System: 2-(N,N-dimethylamino)ethanol + water; phases: Liquid
Fixed: Pressure, kPa = 101
Property: Viscosity, Pa*s (Liquid); method: Capillary tube (Ostwald; Ubbelohde) method
Mass fraction of 2-(N,N-dimethylamino)ethanol	Temperature, K	Viscosity, Pa*s	uncertainty
0.3	303.15	0.00292	6e-05
0.3	313.15	0.00201	4e-05
0.3	323.15	0.00151	3e-05
0.3	333.15	0.00118	3e-05
0.3	343.15	0.00094	2e-05
0.3	353.15	0.00078	2e-05
0.4	303.15	0.00464	0.0001
0.4	313.15	0.00319	7e-05
0.4	323.15	0.00231	5e-05
0.4	333.15	0.00174	4e-05
0.4	343.15	0.00135	3e-05
0.4	353.15	0.00108	2e-05

System: (diethylamino)ethanol + water; phases: Liquid
Fixed: Pressure, kPa = 100
Property: Mass density, kg/m3 (Liquid); method: Vibrating tube method
Mass fraction of (diethylamino)ethanol	Temperature, K	Mass density, kg/m3	uncertainty
0.3	298.15	987.24	0.12
0.3	303.15	984.1	0.1
0.3	313.15	977.49	0.12
0.3	323.15	970.47	0.12
0.3	333.15	963.06	0.12
0.3	343.15	955.26	0.12
0.3	353.15	947.1	0.1
0.4	298.15	980.18	0.12
0.4	303.15	976.55	0.13
0.4	313.15	969.01	0.13
0.4	323.15	961.13	0.13
0.4	333.15	952.94	0.13
0.4	343.15	944.42	0.13
0.4	353.15	935.57	0.13

System: (diethylamino)ethanol + water; phases: Liquid
Fixed: Pressure, kPa = 100
Property: Viscosity, Pa*s (Liquid); method: Capillary tube (Ostwald; Ubbelohde) method
Mass fraction of (diethylamino)ethanol	Temperature, K	Viscosity, Pa*s	uncertainty
0.3	303.15	0.003	6e-05
0.3	313.15	0.00213	4e-05
0.3	323.15	0.0016	3e-05
0.3	333.15	0.00125	3e-05
0.3	343.15	0.001	2e-05
0.3	353.15	0.00083	2e-05
0.4	303.15	0.00451	9e-05
0.4	313.15	0.00308	6e-05
0.4	323.15	0.00223	5e-05
0.4	333.15	0.00176	4e-05
0.4	343.15	0.00145	3e-05
0.4	353.15	0.0012	0.0001
