Measured thermophysical data. Micellisation of Binary Mixtures of Surfactants Na-Deoxycholate-Na-Decyl Sulfate and Na-Hyodeoxycholate-Na-Decyl Sulfate in Water Solutions: Rational Development of the Thermodynamic Model for the Excess Gibbs Energy (GE)
Source: J. Chem. Eng. Data, 2018, 10.1021/acs.jced.7b00880
Compound 1: Sodium decyl Sulfate, C10H21NaO4S, InChI=1S/C10H22O4S.Na/c1-2-3-4-5-6-7-8-9-10-14-15(11,12)13;/h2-10H2,1H3,(H,11,12,13);/q;+1/p-1, purity 98%
Compound 2: sodium hyodeoxycholate, C24H39NaO4, InChI=1S/C24H40O4.Na/c1-14(4-7-22(27)28)17-5-6-18-16-13-21(26)20-12-15(25)8-10-24(20,3)19(16)9-11-23(17,18)2;/h14-21,25-26H,4-13H2,1-3H3,(H,27,28);/q;+1/p-1/t14-,15-,16+,17-,18+,19+,20+,21+,23-,24-;/m1./s1, purity 99%
Compound 3: sodium deoxycholate, C24H39NaO4, InChI=1S/C24H40O4.Na/c1-14(4-9-22(27)28)18-7-8-19-17-6-5-15-12-16(25)10-11-23(15,2)20(17)13-21(26)24(18,19)3;/h14-21,25-26H,4-13H2,1-3H3,(H,27,28);/q;+1/p-1/t14-,15-,16-,17+,18-,19+,20+,21+,23+,24-;/m1./s1, purity 98%
Compound 4: sodium chloride, ClNa, InChI=1S/ClH.Na/h1H;/q;+1/p-1, purity 99%
Compound 5: water, H2O, InChI=1S/H2O/h1H2, purity 99.9%

System: water + sodium chloride + sodium hyodeoxycholate; phases: Liquid, Gas
Fixed: Temperature, K = 295.15
Fixed: Solvent: Molality, mol/kg of sodium chloride = 0.3
Property: Surface tension liquid-gas, N/m (Liquid); method: Ring tensiometer
Molality, mol/kg of sodium hyodeoxycholate	Surface tension liquid-gas, N/m	uncertainty
0.0055	0.0691	0.0012
0.0056	0.0675	0.0011
0.00569	0.0665	0.0011
0.00579	0.0645	0.0011
0.00589	0.0632	0.0011
0.006	0.062	0.001
0.0061	0.0603	0.001
0.00619	0.0592	0.001
0.0063	0.0578	0.001
0.00637	0.0566	0.001
0.00649	0.0554	0.001
0.00659	0.0542	0.0009
0.0067	0.0536	0.0009
0.00679	0.053	0.001
0.00689	0.0529	0.0009
0.007	0.0528	0.0009
0.0071	0.0528	0.0009
0.00719	0.0527	0.0009
0.00729	0.0527	0.0009
0.0074	0.0526	0.0009
0.0075	0.0526	0.0009

System: water + sodium chloride + sodium deoxycholate; phases: Liquid, Gas
Fixed: Temperature, K = 295.15
Fixed: Solvent: Molality, mol/kg of sodium chloride = 0.3
Property: Surface tension liquid-gas, N/m (Liquid); method: Ring tensiometer
Molality, mol/kg of sodium deoxycholate	Surface tension liquid-gas, N/m	uncertainty
0.002	0.066	0.0011
0.0021	0.0645	0.0011
0.0022	0.063	0.0011
0.0023	0.0615	0.0011
0.0024	0.0597	0.001
0.00249	0.0588	0.001
0.00259	0.0575	0.001
0.0027	0.056	0.001
0.0028	0.0551	0.001
0.0029	0.054	0.001
0.003	0.053	0.0009
0.0031	0.053	0.0009
0.0032	0.053	0.0009
0.0033	0.053	0.0009
0.0034	0.053	0.0009
0.0035	0.0529	0.0009
0.0036	0.0528	0.0009
0.0037	0.0529	0.0009
0.00379	0.0529	0.0009
0.0039	0.0528	0.0009
0.004	0.0527	0.0009
0.00409	0.0527	0.0009
0.0042	0.0526	0.0009
0.0043	0.0525	0.0009
0.0044	0.0523	0.0009
0.0045	0.0522	0.0009
0.00459	0.0522	0.0009
0.0047	0.0522	0.0009
0.0048	0.0521	0.0009
0.0049	0.0521	0.0009

System: water + sodium chloride + Sodium decyl Sulfate; phases: Liquid, Gas
Fixed: Temperature, K = 295.15
Fixed: Solvent: Molality, mol/kg of sodium chloride = 0.3
Property: Surface tension liquid-gas, N/m (Liquid); method: Ring tensiometer
Molality, mol/kg of Sodium decyl Sulfate	Surface tension liquid-gas, N/m	uncertainty
0.00649	0.0655	0.0011
0.00659	0.064	0.001
0.0067	0.0625	0.0011
0.00679	0.0615	0.0011
0.00689	0.06	0.001
0.007	0.0595	0.001
0.0071	0.058	0.001
0.00719	0.0565	0.001
0.00729	0.056	0.001
0.0074	0.0542	0.001
0.0075	0.0538	0.001
0.00759	0.053	0.001
0.0078	0.053	0.001
0.00789	0.053	0.001
0.008	0.053	0.001
0.00809	0.0529	0.0009
0.00818	0.0528	0.0009
0.0083	0.0529	0.0009
0.00839	0.0529	0.0009
0.00849	0.0528	0.0009
