Measured thermophysical data. Isobaric Vapor-Liquid Equilibrium Data for Two Binary Systems n-Hexane + 1,2-Dimethoxyethane and Methylcyclopentane + 1,2-Dimethoxyethane at 101.3 kPa
Source: J. Chem. Eng. Data, 2018, 10.1021/acs.jced.7b00802
Compound 1: hexane, C6H14, InChI=1S/C6H14/c1-3-5-6-4-2/h3-6H2,1-2H3, purity 99.5%
Compound 2: methylcyclopentane, C6H12, InChI=1S/C6H12/c1-6-4-2-3-5-6/h6H,2-5H2,1H3, purity 99%
Compound 3: 1,2-dimethoxyethane, C4H10O2, InChI=1S/C4H10O2/c1-5-3-4-6-2/h3-4H2,1-2H3, purity 99.5%

System: hexane; phases: Liquid, Gas
Property: Vapor or sublimation pressure, kPa (Liquid); method: Ebulliometric method (Recirculating still)
Temperature, K	Vapor or sublimation pressure, kPa	uncertainty
341.88	101.3	0.8

System: methylcyclopentane; phases: Liquid, Gas
Property: Vapor or sublimation pressure, kPa (Liquid); method: Ebulliometric method (Recirculating still)
Temperature, K	Vapor or sublimation pressure, kPa	uncertainty
344.96	101.3	0.8

System: 1,2-dimethoxyethane; phases: Liquid, Gas
Property: Vapor or sublimation pressure, kPa (Liquid); method: Ebulliometric method (Recirculating still)
Temperature, K	Vapor or sublimation pressure, kPa	uncertainty
357.75	101.3	0.8

System: hexane + 1,2-dimethoxyethane; phases: Liquid, Gas
Fixed: Pressure, kPa = 101.3
Property: Boiling temperature at pressure P, K (Liquid); method: Ebulliometric method (Recirculating still)
Mole fraction of hexane	Boiling temperature at pressure P, K	uncertainty
1	341.88	0.17
0.9218	342.15	0.19
0.8922	342.25	0.19
0.7831	342.61	0.19
0.7505	342.86	0.23
0.671	343.46	0.25
0.6269	344.02	0.29
0.5813	344.53	0.29
0.5248	345.21	0.3
0.4636	345.94	0.31
0.4423	346.28	0.25
0.3824	346.72	0.33
0.3379	347.79	0.5
0.306	348.51	0.5
0.2679	349.43	0.51
0.2349	350.23	0.62
0.1981	351.49	0.58
0.1186	353.49	0.54
0.1001	354.13	0.55
0.0697	354.81	0.69
0.0682	354.94	0.69
0.0614	355.34	0.7
0.0573	355.76	0.7
0.0474	355.92	0.8
0.0404	356.16	0.75
0.0315	356.44	0.62
0.0155	357.01	0.56
0.0114	357.14	0.43
0.0096	357.22	0.38
0	357.75	0.17

System: hexane + 1,2-dimethoxyethane; phases: Gas, Liquid
Fixed: Pressure, kPa = 101.3
Property: Mole fraction of hexane (Gas); method: Chromatography
Mole fraction of hexane	Mole fraction of hexane	uncertainty
1	1	
0.9218	0.9311	0.0266
0.8922	0.906	0.0257
0.7831	0.8186	0.0253
0.7505	0.7981	0.0238
0.671	0.7474	0.0245
0.6269	0.7102	0.0249
0.5813	0.6814	0.025
0.5248	0.635	0.0254
0.4636	0.5912	0.0225
0.4423	0.6004	0.0226
0.3824	0.5563	0.0267
0.3379	0.5097	0.0294
0.306	0.4757	0.0307
0.2679	0.4296	0.0319
0.2349	0.3883	0.0325
0.1981	0.341	0.0356
0.1186	0.2193	0.0372
0.1001	0.1916	0.037
0.0697	0.1398	0.0402
0.0682	0.1375	0.0402
0.0614	0.1256	0.0405
0.0573	0.1186	0.0409
0.0474	0.0995	0.044
0.0404	0.0859	0.0445
0.0315	0.0686	0.0452
0.0155	0.0345	0.0345
0.0114	0.0255	0.0255
0.0096	0.0218	0.0218
0	0	

System: methylcyclopentane + 1,2-dimethoxyethane; phases: Liquid, Gas
Fixed: Pressure, kPa = 101.3
Property: Boiling temperature at pressure P, K (Liquid); method: Ebulliometric method (Recirculating still)
Mole fraction of methylcyclopentane	Boiling temperature at pressure P, K	uncertainty
1	344.96	0.17
0.9427	345.15	0.18
0.8467	345.18	0.18
0.7498	345.47	0.2
0.6693	346.02	0.21
0.5744	346.5	0.2
0.5204	347.07	0.26
0.4723	347.49	0.3
0.4212	348.29	0.36
0.3752	349.01	0.38
0.334	349.76	0.38
0.2859	350.52	0.4
0.2319	351.57	0.43
0.1909	352.39	0.43
0.1458	353.27	0.46
0.1105	354.11	0.48
0.0749	354.84	0.51
0.0547	355.48	0.7
0.0415	356.04	0.73
0.0263	356.48	0.75
0.0098	357.14	0.38
0.0052	357.28	0.26
0	357.75	0.17

System: methylcyclopentane + 1,2-dimethoxyethane; phases: Gas, Liquid
Fixed: Pressure, kPa = 101.3
Property: Mole fraction of methylcyclopentane (Gas); method: Chromatography
Mole fraction of methylcyclopentane	Mole fraction of methylcyclopentane	uncertainty
1	1	
0.9427	0.9461	0.0269
0.8467	0.8617	0.0263
0.7498	0.7824	0.0257
0.6693	0.7196	0.0253
0.5744	0.6477	0.0253
0.5204	0.607	0.0253
0.4723	0.5704	0.0255
0.4212	0.5306	0.0258
0.3752	0.4937	0.0262
0.334	0.4591	0.0268
0.2859	0.4161	0.0276
0.2319	0.3636	0.0287
0.1909	0.3192	0.0307
0.1458	0.264	0.0328
0.1105	0.2146	0.0361
0.0749	0.1575	0.039
0.0547	0.1208	0.044
0.0415	0.0949	0.0454
0.0263	0.0625	0.0478
0.0098	0.0246	0.0246
0.0052	0.0131	0.0131
0	0	
