Measured thermophysical data. Study of Apparent Molar Volumes for Ionic Liquid, 1-Ethyl-3-methyl Imidazolium Chloride in Aqueous Lithium Nitrate, Lithium Bromide, and Lithium Chloride Solutions at Temperatures (298.15 to 318.15) K
Source: J. Chem. Eng. Data, 2015, 10.1021/acs.jced.5b00329
Compound 1: 1-ethyl-3-methylimidazolium chloride, C6H11ClN2, InChI=1S/C6H11N2.ClH/c1-3-8-5-4-7(2)6-8;/h4-6H,3H2,1-2H3;1H/q+1;/p-1, purity 98%
Compound 2: lithium chloride, ClLi, InChI=1S/ClH.Li/h1H;/q;+1/p-1, purity 99%
Compound 3: lithium bromide, BrLi, InChI=1S/BrH.Li/h1H;/q;+1/p-1, purity 99%
Compound 4: lithium nitrate, LiNO3, InChI=1S/Li.NO3/c;2-1(3)4/q+1;-1, purity 99%
Compound 5: water, H2O, InChI=1S/H2O/h1H2, purity 99.8%

System: lithium chloride + water + 1-ethyl-3-methylimidazolium chloride; phases: Liquid
Fixed: Pressure, kPa = 101
Property: Mass density, kg/m3 (Liquid); method: Vibrating tube method
Solvent: Mass fraction of lithium chloride	Temperature, K	Molality, mol/kg of 1-ethyl-3-methylimidazolium chloride	Mass density, kg/m3	uncertainty
0	298.15	0.1031	998.29	0.26
0	298.15	0.3601	1001.17	0.26
0	298.15	0.54	1003.12	0.26
0	298.15	0.732	1005.14	0.26
0	298.15	0.922	1007.06	0.26
0	298.15	1.0244	1008.08	0.26
0	298.15	1.2087	1009.85	0.26
0	298.15	1.3605	1011.27	0.27
0	303.15	0.1031	996.88	0.26
0	303.15	0.3601	999.71	0.26
0	303.15	0.54	1001.62	0.26
0	303.15	0.732	1003.59	0.26
0	303.15	0.922	1005.47	0.26
0	303.15	1.0244	1006.45	0.26
0	303.15	1.2087	1008.18	0.26
0	303.15	1.3605	1009.56	0.26
0	308.15	0.1031	995.24	0.26
0	308.15	0.3601	998.01	0.26
0	308.15	0.54	999.89	0.26
0	308.15	0.732	1001.83	0.26
0	308.15	0.922	1003.7	0.26
0	308.15	1.0244	1004.69	0.26
0	308.15	1.2087	1006.43	0.26
0	308.15	1.3605	1007.82	0.26
0	313.15	0.1031	993.3	0.26
0	313.15	0.3601	996.08	0.26
0	313.15	0.54	997.97	0.26
0	313.15	0.732	999.92	0.26
0	313.15	0.922	1001.8	0.26
0	313.15	1.0244	1002.78	0.26
0	313.15	1.2087	1004.5	0.26
0	313.15	1.3605	1005.88	0.26
0	318.15	0.1031	991.27	0.26
0	318.15	0.3601	994.02	0.26
0	318.15	0.54	995.9	0.26
0	318.15	0.732	997.85	0.26
0	318.15	0.922	999.73	0.26
0	318.15	1.0244	1000.71	0.26
0	318.15	1.2087	1002.43	0.26
0	318.15	1.3605	1003.81	0.26
0.05	298.15	0.1059	1027.56	0.28
0.05	298.15	0.3599	1032	0.28
0.05	298.15	0.512	1034.63	0.29
0.05	298.15	0.7374	1038.45	0.29
0.05	298.15	0.9321	1041.64	0.29
0.05	298.15	1.0223	1043.09	0.29
0.05	298.15	1.2055	1045.98	0.3
0.05	298.15	1.3624	1048.38	0.3
0.05	303.15	0.1059	1026.11	0.28
0.05	303.15	0.3599	1030.43	0.28
0.05	303.15	0.512	1033	0.28
0.05	303.15	0.7374	1036.72	0.29
0.05	303.15	0.9321	1039.85	0.29
0.05	303.15	1.0223	1041.28	0.29
0.05	303.15	1.2055	1044.13	0.29
0.05	303.15	1.3624	1046.5	0.3
0.05	308.15	0.1059	1024.32	0.28
0.05	308.15	0.3599	1028.56	0.28
0.05	308.15	0.512	1031.08	0.28
0.05	308.15	0.7374	1034.75	0.29
0.05	308.15	0.9321	1037.85	0.29
0.05	308.15	1.0223	1039.25	0.29
0.05	308.15	1.2055	1042.05	0.29
0.05	308.15	1.3624	1044.41	0.29
0.05	313.15	0.1059	1022.68	0.28
0.05	313.15	0.3599	1026.84	0.28
0.05	313.15	0.512	1029.32	0.28
0.05	313.15	0.7374	1032.94	0.28
0.05	313.15	0.9321	1035.97	0.29
0.05	313.15	1.0223	1037.35	0.29
0.05	313.15	1.2055	1040.1	0.29
0.05	313.15	1.3624	1042.4	0.29
0.05	318.15	0.1059	1020.55	0.27
0.05	318.15	0.3599	1024.65	0.28
0.05	318.15	0.512	1027.1	0.28
0.05	318.15	0.7374	1030.67	0.28
0.05	318.15	0.9321	1033.7	0.29
0.05	318.15	1.0223	1035.07	0.29
0.05	318.15	1.2055	1037.82	0.29
0.05	318.15	1.3624	1040.1	0.29
0.1	298.15	0.1052	1055.05	0.3
0.1	298.15	0.3611	1059.63	0.31
0.1	298.15	0.5118	1062.29	0.31
0.1	298.15	0.728	1066.05	0.31
0.1	298.15	0.9331	1069.53	0.32
0.1	298.15	1.0155	1070.91	0.32
0.1	298.15	1.1709	1073.49	0.32
0.1	298.15	1.4003	1077.2	0.32
0.1	303.15	0.1052	1053.55	0.3
0.1	303.15	0.3611	1058.07	0.31
0.1	303.15	0.5118	1060.7	0.31
0.1	303.15	0.728	1064.4	0.31
0.1	303.15	0.9331	1067.85	0.31
0.1	303.15	1.0155	1069.22	0.32
0.1	303.15	1.1709	1071.77	0.32
0.1	303.15	1.4003	1075.45	0.32
0.1	308.15	0.1052	1052.08	0.3
0.1	308.15	0.3611	1056.53	0.3
0.1	308.15	0.5118	1059.12	0.31
0.1	308.15	0.728	1062.79	0.31
0.1	308.15	0.9331	1066.2	0.31
0.1	308.15	1.0155	1067.55	0.31
0.1	308.15	1.1709	1070.09	0.32
0.1	308.15	1.4003	1073.75	0.32
0.1	313.15	0.1052	1050.44	0.3
0.1	313.15	0.3611	1054.84	0.3
0.1	313.15	0.5118	1057.4	0.31
0.1	313.15	0.728	1061	0.31
0.1	313.15	0.9331	1064.37	0.31
0.1	313.15	1.0155	1065.7	0.31
0.1	313.15	1.1709	1068.2	0.31
0.1	313.15	1.4003	1071.8	0.32
0.1	318.15	0.1052	1048.53	0.3
0.1	318.15	0.3611	1052.89	0.3
0.1	318.15	0.5118	1055.42	0.3
0.1	318.15	0.728	1059	0.31
0.1	318.15	0.9331	1062.32	0.31
0.1	318.15	1.0155	1063.63	0.31
0.1	318.15	1.1709	1066.1	0.31
0.1	318.15	1.4003	1069.65	0.32
0.15	298.15	0.1113	1083.96	0.33
0.15	298.15	0.3585	1088.23	0.33
0.15	298.15	0.5152	1090.91	0.33
0.15	298.15	0.7408	1094.67	0.34
0.15	298.15	0.9313	1097.75	0.34
0.15	298.15	1.021	1099.17	0.34
0.15	298.15	1.2036	1101.99	0.34
0.15	298.15	1.3969	1104.85	0.35
0.15	303.15	0.1113	1082.45	0.33
0.15	303.15	0.3585	1086.65	0.33
0.15	303.15	0.5152	1089.28	0.33
0.15	303.15	0.7408	1093.01	0.34
0.15	303.15	0.9313	1096.06	0.34
0.15	303.15	1.021	1097.47	0.34
0.15	303.15	1.2036	1100.28	0.34
0.15	303.15	1.3969	1103.15	0.35
0.15	308.15	0.1113	1080.81	0.33
0.15	308.15	0.3585	1084.95	0.33
0.15	308.15	0.5152	1087.55	0.33
0.15	308.15	0.7408	1091.23	0.33
0.15	308.15	0.9313	1094.25	0.34
0.15	308.15	1.021	1095.64	0.34
0.15	308.15	1.2036	1098.4	0.34
0.15	308.15	1.3969	1101.25	0.34
0.15	313.15	0.1113	1079.05	0.32
0.15	313.15	0.3585	1083.14	0.33
0.15	313.15	0.5152	1085.73	0.33
0.15	313.15	0.7408	1089.38	0.33
0.15	313.15	0.9313	1092.38	0.34
0.15	313.15	1.021	1093.77	0.34
0.15	313.15	1.2036	1096.53	0.34
0.15	313.15	1.3969	1099.34	0.34
0.15	318.15	0.1113	1077.05	0.32
0.15	318.15	0.3585	1081.1	0.33
0.15	318.15	0.5152	1083.66	0.33
0.15	318.15	0.7408	1087.27	0.33
0.15	318.15	0.9313	1090.27	0.33
0.15	318.15	1.021	1091.63	0.34
0.15	318.15	1.2036	1094.37	0.34
0.15	318.15	1.3969	1097.18	0.34

System: lithium bromide + water + 1-ethyl-3-methylimidazolium chloride; phases: Liquid
Fixed: Pressure, kPa = 101
Property: Mass density, kg/m3 (Liquid); method: Vibrating tube method
Solvent: Mass fraction of lithium bromide	Temperature, K	Molality, mol/kg of 1-ethyl-3-methylimidazolium chloride	Mass density, kg/m3	uncertainty
0	298.15	0.1031	998.29	0.26
0	298.15	0.3601	1001.17	0.26
0	298.15	0.54	1003.12	0.26
0	298.15	0.732	1005.14	0.26
0	298.15	0.922	1007.06	0.26
0	298.15	1.0244	1008.08	0.26
0	298.15	1.2087	1009.85	0.26
0	298.15	1.3605	1011.27	0.27
0	303.15	0.1031	996.88	0.26
0	303.15	0.3601	999.71	0.26
0	303.15	0.54	1001.62	0.26
0	303.15	0.732	1003.59	0.26
0	303.15	0.922	1005.47	0.26
0	303.15	1.0244	1006.45	0.26
0	303.15	1.2087	1008.18	0.26
0	303.15	1.3605	1009.56	0.26
0	308.15	0.1031	995.24	0.26
0	308.15	0.3601	998.01	0.26
0	308.15	0.54	999.89	0.26
0	308.15	0.732	1001.83	0.26
0	308.15	0.922	1003.7	0.26
0	308.15	1.0244	1004.69	0.26
0	308.15	1.2087	1006.43	0.26
0	308.15	1.3605	1007.82	0.26
0	313.15	0.1031	993.3	0.26
0	313.15	0.3601	996.08	0.26
0	313.15	0.54	997.97	0.26
0	313.15	0.732	999.92	0.26
0	313.15	0.922	1001.8	0.26
0	313.15	1.0244	1002.78	0.26
0	313.15	1.2087	1004.5	0.26
0	313.15	1.3605	1005.88	0.26
0	318.15	0.1031	991.27	0.26
0	318.15	0.3601	994.02	0.26
0	318.15	0.54	995.9	0.26
0	318.15	0.732	997.85	0.26
0	318.15	0.922	999.73	0.26
0	318.15	1.0244	1000.71	0.26
0	318.15	1.2087	1002.43	0.26
0	318.15	1.3605	1003.81	0.26
0.05	298.15	0.1041	1024.98	0.28
0.05	298.15	0.3587	1027.91	0.28
0.05	298.15	0.5072	1029.61	0.28
0.05	298.15	0.7454	1032.26	0.28
0.05	298.15	0.9422	1034.37	0.29
0.05	298.15	1.021	1035.18	0.29
0.05	298.15	1.2004	1036.99	0.29
0.05	298.15	1.3653	1038.6	0.29
0.05	303.15	0.1041	1023.48	0.28
0.05	303.15	0.3587	1026.39	0.28
0.05	303.15	0.5072	1028.07	0.28
0.05	303.15	0.7454	1030.68	0.28
0.05	303.15	0.9422	1032.77	0.28
0.05	303.15	1.021	1033.57	0.28
0.05	303.15	1.2004	1035.35	0.29
0.05	303.15	1.3653	1036.94	0.29
0.05	308.15	0.1041	1021.84	0.27
0.05	308.15	0.3587	1024.67	0.28
0.05	308.15	0.5072	1026.31	0.28
0.05	308.15	0.7454	1028.87	0.28
0.05	308.15	0.9422	1030.91	0.28
0.05	308.15	1.021	1031.72	0.28
0.05	308.15	1.2004	1033.49	0.28
0.05	308.15	1.3653	1035.06	0.29
0.05	313.15	0.1041	1019.95	0.27
0.05	313.15	0.3587	1022.72	0.28
0.05	313.15	0.5072	1024.32	0.28
0.05	313.15	0.7454	1026.83	0.28
0.05	313.15	0.9422	1028.83	0.28
0.05	313.15	1.021	1029.61	0.28
0.05	313.15	1.2004	1031.34	0.28
0.05	313.15	1.3653	1032.87	0.28
0.05	318.15	0.1041	1017.96	0.27
0.05	318.15	0.3587	1020.67	0.27
0.05	318.15	0.5072	1022.24	0.28
0.05	318.15	0.7454	1024.72	0.28
0.05	318.15	0.9422	1026.7	0.28
0.05	318.15	1.021	1027.48	0.28
0.05	318.15	1.2004	1029.2	0.28
0.05	318.15	1.3653	1030.73	0.28
0.1	298.15	0.1022	1051.72	0.3
0.1	298.15	0.359	1054.72	0.3
0.1	298.15	0.5151	1056.55	0.3
0.1	298.15	0.7666	1059.41	0.31
0.1	298.15	0.9375	1061.3	0.31
0.1	298.15	1.0205	1062.21	0.31
0.1	298.15	1.2063	1064.19	0.31
0.1	298.15	1.3621	1065.79	0.31
0.1	303.15	0.1022	1050.13	0.3
0.1	303.15	0.359	1053.09	0.3
0.1	303.15	0.5151	1054.88	0.3
0.1	303.15	0.7666	1057.71	0.31
0.1	303.15	0.9375	1059.57	0.31
0.1	303.15	1.0205	1060.45	0.31
0.1	303.15	1.2063	1062.36	0.31
0.1	303.15	1.3621	1063.92	0.31
0.1	308.15	0.1022	1048.25	0.3
0.1	308.15	0.359	1051.19	0.3
0.1	308.15	0.5151	1052.98	0.3
0.1	308.15	0.7666	1055.78	0.3
0.1	308.15	0.9375	1057.62	0.31
0.1	308.15	1.0205	1058.49	0.31
0.1	308.15	1.2063	1060.37	0.31
0.1	308.15	1.3621	1061.9	0.31
0.1	313.15	0.1022	1046.45	0.3
0.1	313.15	0.359	1049.34	0.3
0.1	313.15	0.5151	1051.09	0.3
0.1	313.15	0.7666	1053.85	0.3
0.1	313.15	0.9375	1055.66	0.3
0.1	313.15	1.0205	1056.52	0.3
0.1	313.15	1.2063	1058.38	0.31
0.1	313.15	1.3621	1059.89	0.31
0.1	318.15	0.1022	1044.39	0.29
0.1	318.15	0.359	1047.26	0.3
0.1	318.15	0.5151	1049.01	0.3
0.1	318.15	0.7666	1051.76	0.3
0.1	318.15	0.9375	1053.57	0.3
0.1	318.15	1.0205	1054.43	0.3
0.1	318.15	1.2063	1056.3	0.3
0.1	318.15	1.3621	1057.81	0.31
0.15	298.15	0.1057	1078.56	0.32
0.15	298.15	0.3581	1081.21	0.33
0.15	298.15	0.5099	1082.9	0.33
0.15	298.15	0.7366	1085.44	0.33
0.15	298.15	0.9333	1087.61	0.33
0.15	298.15	1.0216	1088.59	0.33
0.15	298.15	1.2168	1090.65	0.33
0.15	298.15	1.3614	1092.17	0.34
0.15	303.15	0.1057	1076.87	0.32
0.15	303.15	0.3581	1079.42	0.32
0.15	303.15	0.5099	1081.03	0.33
0.15	303.15	0.7366	1083.54	0.33
0.15	303.15	0.9333	1085.69	0.33
0.15	303.15	1.0216	1086.67	0.33
0.15	303.15	1.2168	1088.77	0.33
0.15	303.15	1.3614	1090.32	0.33
0.15	308.15	0.1057	1075.05	0.32
0.15	308.15	0.3581	1077.5	0.32
0.15	308.15	0.5099	1079.08	0.32
0.15	308.15	0.7366	1081.53	0.33
0.15	308.15	0.9333	1083.65	0.33
0.15	308.15	1.0216	1084.6	0.33
0.15	308.15	1.2168	1086.7	0.33
0.15	308.15	1.3614	1088.21	0.33
0.15	313.15	0.1057	1073.03	0.32
0.15	313.15	0.3581	1075.37	0.32
0.15	313.15	0.5099	1076.92	0.32
0.15	313.15	0.7366	1079.32	0.32
0.15	313.15	0.9333	1081.4	0.33
0.15	313.15	1.0216	1082.38	0.33
0.15	313.15	1.2168	1084.51	0.33
0.15	313.15	1.3614	1086.04	0.33
0.15	318.15	0.1057	1070.89	0.32
0.15	318.15	0.3581	1073.18	0.32
0.15	318.15	0.5099	1074.68	0.32
0.15	318.15	0.7366	1077.03	0.32
0.15	318.15	0.9333	1079.1	0.32
0.15	318.15	1.0216	1080.06	0.33
0.15	318.15	1.2168	1082.22	0.33
0.15	318.15	1.3614	1083.73	0.33

System: water + lithium nitrate + 1-ethyl-3-methylimidazolium chloride; phases: Liquid
Fixed: Pressure, kPa = 101
Property: Mass density, kg/m3 (Liquid); method: Vibrating tube method
Solvent: Mass fraction of lithium nitrate	Temperature, K	Molality, mol/kg of 1-ethyl-3-methylimidazolium chloride	Mass density, kg/m3	uncertainty
0	298.15	0.1031	998.29	0.26
0	298.15	0.3601	1001.17	0.26
0	298.15	0.54	1003.12	0.26
0	298.15	0.732	1005.14	0.26
0	298.15	0.922	1007.06	0.26
0	298.15	1.0244	1008.08	0.26
0	298.15	1.2087	1009.85	0.26
0	298.15	1.3605	1011.27	0.27
0	303.15	0.1031	996.88	0.26
0	303.15	0.3601	999.71	0.26
0	303.15	0.54	1001.62	0.26
0	303.15	0.732	1003.59	0.26
0	303.15	0.922	1005.47	0.26
0	303.15	1.0244	1006.45	0.26
0	303.15	1.2087	1008.18	0.26
0	303.15	1.3605	1009.56	0.26
0	308.15	0.1031	995.24	0.26
0	308.15	0.3601	998.01	0.26
0	308.15	0.54	999.89	0.26
0	308.15	0.732	1001.83	0.26
0	308.15	0.922	1003.7	0.26
0	308.15	1.0244	1004.69	0.26
0	308.15	1.2087	1006.43	0.26
0	308.15	1.3605	1007.82	0.26
0	313.15	0.1031	993.3	0.26
0	313.15	0.3601	996.08	0.26
0	313.15	0.54	997.97	0.26
0	313.15	0.732	999.92	0.26
0	313.15	0.922	1001.8	0.26
0	313.15	1.0244	1002.78	0.26
0	313.15	1.2087	1004.5	0.26
0	313.15	1.3605	1005.88	0.26
0	318.15	0.1031	991.27	0.26
0	318.15	0.3601	994.02	0.26
0	318.15	0.54	995.9	0.26
0	318.15	0.732	997.85	0.26
0	318.15	0.922	999.73	0.26
0	318.15	1.0244	1000.71	0.26
0	318.15	1.2087	1002.43	0.26
0	318.15	1.3605	1003.81	0.26
0.05	298.15	0.1075	1018.4	0.27
0.05	298.15	0.3617	1021.15	0.27
0.05	298.15	0.5169	1022.81	0.28
0.05	298.15	0.7383	1025.09	0.28
0.05	298.15	0.934	1026.98	0.28
0.05	298.15	1.0197	1027.79	0.28
0.05	298.15	1.2011	1029.45	0.28
0.05	298.15	1.3579	1030.84	0.28
0.05	303.15	0.1075	1016.78	0.27
0.05	303.15	0.3617	1019.47	0.27
0.05	303.15	0.5169	1021.12	0.27
0.05	303.15	0.7383	1023.38	0.28
0.05	303.15	0.934	1025.28	0.28
0.05	303.15	1.0197	1026.08	0.28
0.05	303.15	1.2011	1027.74	0.28
0.05	303.15	1.3579	1029.14	0.28
0.05	308.15	0.1075	1014.75	0.27
0.05	308.15	0.3617	1017.46	0.27
0.05	308.15	0.5169	1019.12	0.27
0.05	308.15	0.7383	1021.4	0.27
0.05	308.15	0.934	1023.32	0.28
0.05	308.15	1.0197	1024.15	0.28
0.05	308.15	1.2011	1025.83	0.28
0.05	308.15	1.3579	1027.26	0.28
0.05	313.15	0.1075	1012.97	0.27
0.05	313.15	0.3617	1015.68	0.27
0.05	313.15	0.5169	1017.31	0.27
0.05	313.15	0.7383	1019.61	0.27
0.05	313.15	0.934	1021.54	0.27
0.05	313.15	1.0197	1022.37	0.28
0.05	313.15	1.2011	1024.06	0.28
0.05	313.15	1.3579	1025.51	0.28
0.05	318.15	0.1075	1010.85	0.27
0.05	318.15	0.3617	1013.54	0.27
0.05	318.15	0.5169	1015.15	0.27
0.05	318.15	0.7383	1017.46	0.27
0.05	318.15	0.934	1019.44	0.27
0.05	318.15	1.0197	1020.29	0.27
0.05	318.15	1.2011	1022.07	0.27
0.05	318.15	1.3579	1023.52	0.28
0.1	298.15	0.1069	1040.52	0.29
0.1	298.15	0.3618	1043.03	0.29
0.1	298.15	0.5136	1044.57	0.29
0.1	298.15	0.7296	1046.75	0.3
0.1	298.15	0.9325	1048.73	0.3
0.1	298.15	1.0148	1049.51	0.3
0.1	298.15	1.2024	1051.29	0.3
0.1	298.15	1.355	1052.65	0.3
0.1	303.15	0.1069	1038.72	0.29
0.1	303.15	0.3618	1041.25	0.29
0.1	303.15	0.5136	1042.79	0.29
0.1	303.15	0.7296	1044.96	0.29
0.1	303.15	0.9325	1046.93	0.3
0.1	303.15	1.0148	1047.71	0.3
0.1	303.15	1.2024	1049.38	0.3
0.1	303.15	1.355	1050.72	0.3
0.1	308.15	0.1069	1036.2	0.29
0.1	308.15	0.3618	1038.69	0.29
0.1	308.15	0.5136	1040.21	0.29
0.1	308.15	0.7296	1042.37	0.29
0.1	308.15	0.9325	1044.35	0.29
0.1	308.15	1.0148	1045.12	0.29
0.1	308.15	1.2024	1046.83	0.3
0.1	308.15	1.355	1048.23	0.3
0.1	313.15	0.1069	1034.58	0.29
0.1	313.15	0.3618	1037.05	0.29
0.1	313.15	0.5136	1038.54	0.29
0.1	313.15	0.7296	1040.67	0.29
0.1	313.15	0.9325	1042.62	0.29
0.1	313.15	1.0148	1043.4	0.29
0.1	313.15	1.2024	1045.13	0.29
0.1	313.15	1.355	1046.47	0.3
0.1	318.15	0.1069	1031.9	0.28
0.1	318.15	0.3618	1034.36	0.29
0.1	318.15	0.5136	1035.87	0.29
0.1	318.15	0.7296	1038.03	0.29
0.1	318.15	0.9325	1040.01	0.29
0.1	318.15	1.0148	1040.8	0.29
0.1	318.15	1.2024	1042.56	0.29
0.1	318.15	1.355	1044	0.29
0.15	298.15	0.1095	1061.45	0.31
0.15	298.15	0.3218	1063.53	0.31
0.15	298.15	0.5126	1065.44	0.31
0.15	298.15	0.734	1067.6	0.31
0.15	298.15	0.9319	1069.48	0.32
0.15	298.15	1.0244	1070.34	0.32
0.15	298.15	1.2076	1071.98	0.32
0.15	298.15	1.3524	1073.23	0.32
0.15	303.15	0.1095	1059.44	0.31
0.15	303.15	0.3218	1061.52	0.31
0.15	303.15	0.5126	1063.4	0.31
0.15	303.15	0.734	1065.56	0.31
0.15	303.15	0.9319	1067.41	0.31
0.15	303.15	1.0244	1068.25	0.31
0.15	303.15	1.2076	1069.89	0.32
0.15	303.15	1.3524	1071.12	0.32
0.15	308.15	0.1095	1057.27	0.31
0.15	308.15	0.3218	1059.33	0.31
0.15	308.15	0.5126	1061.21	0.31
0.15	308.15	0.734	1063.35	0.31
0.15	308.15	0.9319	1065.2	0.31
0.15	308.15	1.0244	1066.03	0.31
0.15	308.15	1.2076	1067.65	0.31
0.15	308.15	1.3524	1068.85	0.32
0.15	313.15	0.1095	1055.04	0.3
0.15	313.15	0.3218	1057.1	0.31
0.15	313.15	0.5126	1058.97	0.31
0.15	313.15	0.734	1061.1	0.31
0.15	313.15	0.9319	1062.93	0.31
0.15	313.15	1.0244	1063.75	0.31
0.15	313.15	1.2076	1065.36	0.31
0.15	313.15	1.3524	1066.58	0.31
0.15	318.15	0.1095	1052.92	0.3
0.15	318.15	0.3218	1054.91	0.3
0.15	318.15	0.5126	1056.72	0.3
0.15	318.15	0.734	1058.79	0.31
0.15	318.15	0.9319	1060.59	0.31
0.15	318.15	1.0244	1061.41	0.31
0.15	318.15	1.2076	1063	0.31
0.15	318.15	1.3524	1064.23	0.31

System: water + 1-ethyl-3-methylimidazolium chloride; phases: Liquid
Fixed: Pressure, kPa = 101
Property: Mass density, kg/m3 (Liquid); method: Vibrating tube method
Temperature, K	Molality, mol/kg of 1-ethyl-3-methylimidazolium chloride	Mass density, kg/m3	uncertainty
298.15	0.1031	998.29	0.06
298.15	0.3601	1001.17	0.07
298.15	0.54	1003.12	0.07
298.15	0.732	1005.14	0.08
298.15	0.922	1007.06	0.08
298.15	1.0244	1008.08	0.08
298.15	1.2087	1009.85	0.09
298.15	1.3605	1011.27	0.09
303.15	0.1031	996.88	0.06
303.15	0.3601	999.71	0.07
303.15	0.54	1001.62	0.07
303.15	0.732	1003.59	0.07
303.15	0.922	1005.47	0.08
303.15	1.0244	1006.45	0.08
303.15	1.2087	1008.18	0.09
303.15	1.3605	1009.56	0.09
308.15	0.1031	995.24	0.06
308.15	0.3601	998.01	0.07
308.15	0.54	999.89	0.07
308.15	0.732	1001.83	0.07
308.15	0.922	1003.7	0.08
308.15	1.0244	1004.69	0.08
308.15	1.2087	1006.43	0.09
308.15	1.3605	1007.82	0.09
313.15	0.1031	993.3	0.06
313.15	0.3601	996.08	0.07
313.15	0.54	997.97	0.07
313.15	0.732	999.92	0.07
313.15	0.922	1001.8	0.08
313.15	1.0244	1002.78	0.08
313.15	1.2087	1004.5	0.09
313.15	1.3605	1005.88	0.09
318.15	0.1031	991.27	0.07
318.15	0.3601	994.02	0.07
318.15	0.54	995.9	0.07
318.15	0.732	997.85	0.07
318.15	0.922	999.73	0.08
318.15	1.0244	1000.71	0.08
318.15	1.2087	1002.43	0.09
318.15	1.3605	1003.81	0.09
