Measured thermophysical data. Comment on Studies on Thermodynamic Properties of FOX-7 and Its Five Closed-Loop Derivatives
Source: J. Chem. Eng. Data, 2017, 10.1021/acs.jced.6b00483
Compound 1: 1,1-diamino-2,2-dinitroethene, C2H4N4O4, InChI=1S/C2H4N4O4/c3-1(4)2(5(7)8)6(9)10/h3-4H2
Compound 2: 2,4,6-trinitrotoluene, C7H5N3O6, InChI=1S/C7H5N3O6/c1-4-6(9(13)14)2-5(8(11)12)3-7(4)10(15)16/h2-3H,1H3
Compound 3: anthracene, C14H10, InChI=1S/C14H10/c1-2-6-12-10-14-8-4-3-7-13(14)9-11(12)5-1/h1-10H
Compound 4: naphthalene, C10H8, InChI=1S/C10H8/c1-2-6-10-8-4-3-7-9(10)5-1/h1-8H

System: 1,1-diamino-2,2-dinitroethene; phases: Crystal 3, Crystal 2, Air at 1 atmosphere
Property: Triple point temperature, K (Crystal 3); method: DSC
Triple point temperature, K	uncertainty
393.7	4.1

System: 1,1-diamino-2,2-dinitroethene; phases: Crystal 2, Crystal 1, Air at 1 atmosphere
Property: Triple point temperature, K (Crystal 2); method: DSC
Triple point temperature, K	uncertainty
439.2	4.1

System: 1,1-diamino-2,2-dinitroethene; phases: Crystal 3, Crystal 2, Air at 1 atmosphere
Property: Molar enthalpy of transition or fusion, kJ/mol (Crystal 3); method: DSC
Molar enthalpy of transition or fusion, kJ/mol	uncertainty
2.606167872	0.29615544

System: 1,1-diamino-2,2-dinitroethene; phases: Crystal 3, Crystal 2, Air at 1 atmosphere
Property: Molar enthalpy of transition or fusion, kJ/mol (Crystal 3); method: DSC
Molar enthalpy of transition or fusion, kJ/mol	uncertainty
2.828284452	0.29615544

System: 1,1-diamino-2,2-dinitroethene; phases: Crystal 3, Gas
Property: Molar enthalpy of vaporization or sublimation, kJ/mol (Crystal 3); method: Derived by Second law
Temperature, K	Molar enthalpy of vaporization or sublimation, kJ/mol	uncertainty
457.15	112.1	3.9

System: 1,1-diamino-2,2-dinitroethene; phases: Crystal 3
Fixed: Pressure, kPa = 101.325
Property: Molar heat capacity at constant pressure, J/K/mol (Crystal 3); method: DSC
Temperature, K	Molar heat capacity at constant pressure, J/K/mol	uncertainty
345	191.16833652	9.6250518
350	193.2414246	9.6250518
355	195.16643496	9.77312952
360	197.23952304	9.92120724
365	199.1645334	9.92120724
370	201.23762148	10.06928496
375	203.16263184	10.21736268
380	205.0876422	10.21736268
385	207.16073028	10.3654404

System: 2,4,6-trinitrotoluene; phases: Crystal, Gas
Property: Molar enthalpy of vaporization or sublimation, kJ/mol (Crystal); method: Derived by Second law
Temperature, K	Molar enthalpy of vaporization or sublimation, kJ/mol	uncertainty
343.15	113.7	3.6

System: anthracene; phases: Crystal, Gas
Property: Molar enthalpy of vaporization or sublimation, kJ/mol (Crystal); method: Derived by Second law
Temperature, K	Molar enthalpy of vaporization or sublimation, kJ/mol	uncertainty
453.15	95.1	3.2

System: naphthalene; phases: Crystal, Gas
Property: Molar enthalpy of vaporization or sublimation, kJ/mol (Crystal); method: Derived by Second law
Temperature, K	Molar enthalpy of vaporization or sublimation, kJ/mol	uncertainty
339.15	71	1.9
