Measured thermophysical data. Phase Equilibrium Behavior in Mixtures Containing Tributyl Citrate, Citric Acid, Butan-1-ol, and Water
Source: J. Chem. Eng. Data, 2018, 10.1021/acs.jced.8b00064
Compound 1: tributyl citrate, C18H32O7, InChI=1S/C18H32O7/c1-4-7-10-23-15(19)13-18(22,17(21)25-12-9-6-3)14-16(20)24-11-8-5-2/h22H,4-14H2,1-3H3, purity 99%
Compound 2: citric acid, C6H8O7, InChI=1S/C6H8O7/c7-3(8)1-6(13,5(11)12)2-4(9)10/h13H,1-2H2,(H,7,8)(H,9,10)(H,11,12), purity 99.9%
Compound 3: butan-1-ol, C4H10O, InChI=1S/C4H10O/c1-2-3-4-5/h5H,2-4H2,1H3, purity 99.5%
Compound 4: water, H2O, InChI=1S/H2O/h1H2, purity 99.8%

System: citric acid; phases: Crystal, Liquid, Air at 1 atmosphere
Property: Normal melting temperature, K (Crystal); method: DTA
Normal melting temperature, K	uncertainty
424.9	2

System: citric acid; phases: Crystal, Liquid, Air at 1 atmosphere
Property: Molar enthalpy of transition or fusion, kJ/mol (Crystal); method: DSC
Molar enthalpy of transition or fusion, kJ/mol	uncertainty
59.2	1.3

System: citric acid; phases: Crystal
Fixed: Pressure, kPa = 101.325
Property: Molar heat capacity at constant pressure, J/K/mol (Crystal); method: DSC
Temperature, K	Molar heat capacity at constant pressure, J/K/mol	uncertainty
324.9	239.8	25.5
328.2	243	25.8
331.5	245.9	26.1
334.9	248.6	26.4
338.2	251.2	26.7
341.5	253.6	26.9
344.9	255.9	27.2
348.2	258.2	27.4
351.5	260.4	27.6
354.9	262.5	27.9
358.2	264.6	28.1
361.5	266.6	28.3
364.9	268.7	28.5
368.2	270.7	28.7
371.5	272.6	28.9
374.9	274.5	29.1
378.2	276.2	29.3
381.5	278.1	29.5
384.9	279.9	29.7
388.2	281.8	29.9
391.5	283.7	30.1
394.9	286	30.4

System: citric acid; phases: Liquid
Property: Molar heat capacity at constant pressure, J/K/mol (Liquid); method: DSC
Temperature, K	Pressure, kPa	Molar heat capacity at constant pressure, J/K/mol	uncertainty
424.9	101.325	236.2	25.1

System: butan-1-ol; phases: Liquid, Gas
Property: Vapor or sublimation pressure, kPa (Liquid); method: Closed cell (Static) method
Temperature, K	Vapor or sublimation pressure, kPa	uncertainty
333.2	8.1	0.61
348.2	17.5	0.61

System: butan-1-ol + tributyl citrate; phases: Liquid, Gas
Property: Vapor or sublimation pressure, kPa (Liquid); method: Closed cell (Static) method
Temperature, K	Mole fraction of tributyl citrate	Vapor or sublimation pressure, kPa	uncertainty
333.2	0	8.1	0.61
333.2	0.111	7.31	0.93
333.2	0.112	7.31	0.93
333.2	0.14	7.07	0.93
333.2	0.141	7.07	0.93
333.2	0.183	6.75	0.93
333.2	0.285	6.11	0.83
333.2	0.287	6.11	0.83
333.2	0.295	6.29	0.84
333.2	0.295	6.29	0.84
333.2	0.313	6.07	0.83
333.2	0.313	6.07	0.83
333.2	0.315	6.07	0.83
333.2	0.315	6.07	0.83
333.2	0.343	5.77	0.93
333.2	0.443	5.28	1
333.2	0.548	4.19	0.98
333.2	0.556	4.19	0.98
333.2	0.614	3.89	1.05
333.2	0.71	3.19	0.88
333.2	0.74	2.71	1.11
333.2	0.753	2.71	1.04
348.2	0	17.5	0.62
348.2	0.045	16.61	1.02
348.2	0.047	16.41	1
348.2	0.049	16.35	1.01
348.2	0.052	16.27	1.04
348.2	0.052	16.41	1.09
348.2	0.052	16.51	1.13
348.2	0.054	16.27	1.08
348.2	0.056	16.16	1.07
348.2	0.056	16.24	1.11
348.2	0.057	16.28	1.15
348.2	0.058	16.11	1.09
348.2	0.06	15.97	1.07
348.2	0.06	16.04	1.1
348.2	0.062	15.96	1.1
348.2	0.063	15.91	1.1
348.2	0.066	15.84	1.12
348.2	0.068	15.84	1.2
348.2	0.071	15.84	1.24
348.2	0.072	15.75	1.25
348.2	0.074	15.79	1.28
348.2	0.075	15.83	1.31
348.2	0.087	15.63	1.47
348.2	0.094	15.45	1.55
348.2	0.104	15.31	1.73
348.2	0.109	15.23	1.73
348.2	0.118	15.12	1.73
348.2	0.124	15.12	1.74
348.2	0.135	14.96	1.74
348.2	0.142	14.75	1.74
348.2	0.167	14.41	1.63
348.2	0.168	14.32	1.63
348.2	0.472	9.72	1.69
348.2	0.482	9.55	1.67
348.2	0.536	8.83	1.73
348.2	0.538	8.68	1.74
348.2	0.548	8.6	1.7
348.2	0.558	8.24	1.74
348.2	0.581	7.72	1.92
348.2	0.606	7.44	1.93
348.2	0.614	7.17	1.93
348.2	0.618	7.08	1.93
348.2	0.622	7.31	1.92
348.2	0.632	7.31	1.76
348.2	0.709	5.39	2.08
348.2	0.723	5.13	2.24
348.2	0.725	5.04	2.28
348.2	0.749	5.12	1.97
348.2	0.752	5.12	1.92
348.2	0.761	5.28	1.68
348.2	0.793	5.28	1.4

System: butan-1-ol + tributyl citrate + water; phases: Liquid mixture 1, Liquid mixture 2
Fixed: Pressure, kPa = 74.6
Property: Mass fraction of tributyl citrate (Liquid mixture 1); method: Chromatography
Property: Mass fraction of tributyl citrate (Liquid mixture 2); method: Chromatography
Property: Mole fraction of butan-1-ol (Liquid mixture 2); method: Chromatography
Temperature, K	Mole fraction of butan-1-ol	Mass fraction of tributyl citrate	uncertainty	Mass fraction of tributyl citrate	uncertainty	Mole fraction of butan-1-ol	uncertainty
298.2	0.212	0.568	0.184	0		0.006	
298.2	0.473	0.144	0.144	0.000181	0.000181	0.014	
298.2	0.507	0.029	0.029	0		0.017	
298.2	0.511	0.045	0.045	0		0.017	
298.2	0.48	0.056	0.056	0		0.016	
298.2	0.462	0.202	0.177	0		0.013	
298.2	0.495	0.106	0.106	0		0.015	
298.2	0.504	0.021	0.021	0		0.017	
298.2	0.514	0.065	0.065	0		0.016	
298.2	0.51	0.042	0.042	0.000121	0.000121	0.016	
298.2	0.418	0.249	0.184	0		0.011	
298.2	0.464	0.185	0.182	0		0.013	
298.2	0.17	0.651	0.19	0		0.005	
313.2	0	0.82	0.1	0		0	
313.2	0.536	0.122	0.122	0		0.013	
313.2	0.523	0.019	0.019	0		0.015	
313.2	0.552	0.038	0.038	0		0.015	
313.2	0.53	0.064	0.064	0		0.014	
313.2	0.427	0.272	0.194	7.97e-05	7.97e-05	0.01	
313.2	0.543	0.013	0.013	0		0.013	
313.2	0	0.81	0.1	0.000256	0.000256	0	
313.2	0.518	0.113	0.113	0		0.013	
313.2	0.581	0.021	0.021	0		0.016	
313.2	0.586	0.04	0.04	0		0.015	
313.2	0.6	0.068	0.068	0		0.014	
313.2	0.445	0.28	0.187	0		0.009	
313.2	0.487	0.226	0.169	0.00159	0.00159	0.013	
313.2	0.302	0.438	0.162	0		0.008	
343.2	0.181	0.477	0.183	0		0.007	
343.2	0.187	0.465	0.182	0		0.005	
343.2	0.478	0.054	0.054	0		0.013	
343.2	0.461	0.049	0.049	0		0.013	
343.2	0.488	0.088	0.088	0		0.011	
343.2	0.498	0.096	0.096	0		0.012	

System: butan-1-ol + citric acid + tributyl citrate; phases: Liquid, Crystal
Fixed: Pressure, kPa = 74.6
Property: Mole fraction of butan-1-ol (Liquid); method: Chromatography
Temperature, K	Mole fraction of tributyl citrate	Mole fraction of butan-1-ol	uncertainty
298.2	0.028	0.928	0.072
298.2	0.022	0.933	0.067
298.2	0.063	0.888	0.112
298.2	0.06	0.893	0.107
298.2	0.159	0.788	0.14
298.2	0.197	0.751	0.139
298.2	0.352	0.608	0.136
298.2	0.412	0.55	0.14
313.2	0.026	0.931	0.069
313.2	0.031	0.925	0.075
313.2	0.66	0.299	0.14
313.2	0.047	0.901	0.099
313.2	0.172	0.775	0.14
313.2	0.17	0.773	0.14
313.2	0.181	0.752	0.139
313.2	0.255	0.697	0.14

System: tributyl citrate + water; phases: Liquid mixture 1, Liquid mixture 2
Fixed: Temperature, K = 313.2
Fixed: Pressure, kPa = 74.6
Property: Mass fraction of tributyl citrate (Liquid mixture 1); method: Chromatography
Mass fraction of tributyl citrate	uncertainty
0.82	0.1
0.81	0.1

System: tributyl citrate + water; phases: Liquid mixture 2, Liquid mixture 1
Property: Mass fraction of tributyl citrate (Liquid mixture 2); method: Chromatography
Temperature, K	Pressure, kPa	Mass fraction of tributyl citrate	uncertainty
313.2	74.6	0.000256	0.000256

System: citric acid + water; phases: Liquid, Crystal
Fixed: Pressure, kPa = 74.66
Property: Mole fraction of citric acid (Liquid); method: Chromatography
Temperature, K	Mole fraction of citric acid	uncertainty
313.15	0.178	0.007
323.15	0.194	0.008
