Measured thermophysical data. Phase Equilibrium Involving Xylose, Water, and Ethylene Glycol or 1,2-Propylene Glycol at Different Temperatures
Source: J. Chem. Eng. Data, 2019, 10.1021/acs.jced.8b01128
Compound 1: water, H2O, InChI=1S/H2O/h1H2, purity 99.8%
Compound 2: 1,2-ethanediol, C2H6O2, InChI=1S/C2H6O2/c3-1-2-4/h3-4H,1-2H2, purity 99.5%
Compound 3: 1,2-propanediol, C3H8O2, InChI=1S/C3H8O2/c1-3(5)2-4/h3-5H,2H2,1H3, purity 99.5%
Compound 4: D-xylose, C5H10O5, InChI=1S/C5H10O5/c6-1-3(8)5(10)4(9)2-7/h1,3-5,7-10H,2H2/t3-,4+,5+/m0/s1, purity 99%
Compound 5: 1,6-hexanedioic acid, C6H10O4, InChI=1S/C6H10O4/c7-5(8)3-1-2-4-6(9)10/h1-4H2,(H,7,8)(H,9,10), purity 99.5%

System: water; phases: Liquid
Property: Refractive index (Na D-line) (Liquid); method: Standard Abbe refractometry
Temperature, K	Pressure, kPa	Refractive index (Na D-line)	uncertainty
298.15	101.325	1.33299	0.012

System: water; phases: Liquid
Property: Mass density, kg/m3 (Liquid); method: Pycnometric method
Temperature, K	Pressure, kPa	Mass density, kg/m3	uncertainty
298.15	101.325	997.1	0.3

System: 1,2-ethanediol; phases: Liquid
Property: Refractive index (Na D-line) (Liquid); method: Standard Abbe refractometry
Temperature, K	Pressure, kPa	Refractive index (Na D-line)	uncertainty
298.15	101.325	1.43159	0.012

System: 1,2-ethanediol; phases: Liquid
Property: Mass density, kg/m3 (Liquid); method: Pycnometric method
Temperature, K	Pressure, kPa	Mass density, kg/m3	uncertainty
298.15	101.325	1109.7	0.5

System: 1,2-propanediol; phases: Liquid
Property: Refractive index (Na D-line) (Liquid); method: Standard Abbe refractometry
Temperature, K	Pressure, kPa	Refractive index (Na D-line)	uncertainty
298.15	101.325	1.43262	0.012

System: 1,2-propanediol; phases: Liquid
Property: Mass density, kg/m3 (Liquid); method: Pycnometric method
Temperature, K	Pressure, kPa	Mass density, kg/m3	uncertainty
298.15	101.325	1032.7	0.4

System: D-xylose + water + 1,2-ethanediol; phases: Liquid, Crystal
Fixed: Pressure, kPa = 100
Property: Mass fraction of D-xylose (Liquid); method: Index of refraction calibration data
Temperature, K	Solvent: Mole fraction of water	Mass fraction of D-xylose	uncertainty
293.15	1	0.5317	0.0468
293.15	0.8993	0.4344	0.0563
293.15	0.7988	0.3518	0.0454
293.15	0.6987	0.2905	0.0359
293.15	0.5999	0.2472	0.03
293.15	0.5	0.2062	0.026
293.15	0.4001	0.168	0.0209
293.15	0.3016	0.1445	0.0172
293.15	0.2044	0.1224	0.0149
293.15	0.1024	0.1023	0.0127
293.15	0	0.084	0.0084
298.15	1	0.5545	0.0446
298.15	0.8993	0.4665	0.0569
298.15	0.7988	0.3908	0.0475
298.15	0.6987	0.3312	0.0398
298.15	0.5999	0.2813	0.0335
298.15	0.5	0.241	0.0285
298.15	0.4001	0.2057	0.0238
298.15	0.3016	0.182	0.0205
298.15	0.2044	0.1598	0.0182
298.15	0.1024	0.139	0.0167
298.15	0	0.1126	0.0113
303.15	1	0.5773	0.0423
303.15	0.8993	0.4921	0.0585
303.15	0.7988	0.4186	0.0497
303.15	0.6987	0.3583	0.0423
303.15	0.5999	0.3067	0.036
303.15	0.5	0.2649	0.0306
303.15	0.4001	0.23	0.026
303.15	0.3016	0.2048	0.0228
303.15	0.2044	0.1814	0.0202
303.15	0.1024	0.1608	0.0182
303.15	0	0.1375	0.0138
308.15	1	0.6031	0.0397
308.15	0.8993	0.5193	0.0571
308.15	0.7988	0.4485	0.0518
308.15	0.6987	0.389	0.0451
308.15	0.5999	0.3355	0.0388
308.15	0.5	0.2919	0.0332
308.15	0.4001	0.2561	0.0284
308.15	0.3016	0.2309	0.0252
308.15	0.2044	0.2062	0.0226
308.15	0.1024	0.1846	0.0203
308.15	0	0.163	0.0163
313.15	1	0.6359	0.0364
313.15	0.8993	0.5461	0.0551
313.15	0.7988	0.4787	0.0541
313.15	0.6987	0.4199	0.0477
313.15	0.5999	0.3661	0.0414
313.15	0.5	0.3236	0.0361
313.15	0.4001	0.2858	0.0317
313.15	0.3016	0.2562	0.028
313.15	0.2044	0.2307	0.025
313.15	0.1024	0.2084	0.0225
313.15	0	0.1871	0.0187
318.15	1	0.6566	0.0344
318.15	0.8993	0.5733	0.0518
318.15	0.7988	0.5093	0.0547
318.15	0.6987	0.4521	0.0505
318.15	0.5999	0.3977	0.0447
318.15	0.5	0.3513	0.039
318.15	0.4001	0.3133	0.0343
318.15	0.3016	0.2818	0.0305
318.15	0.2044	0.2564	0.0276
318.15	0.1024	0.2316	0.0248
318.15	0	0.2107	0.0211
323.15	1	0.6714	0.0329
323.15	0.8993	0.6019	0.0476
323.15	0.7988	0.5404	0.0515
323.15	0.6987	0.4854	0.0534
323.15	0.5999	0.4297	0.0475
323.15	0.5	0.3852	0.0419
323.15	0.4001	0.3478	0.0377
323.15	0.3016	0.3138	0.0336
323.15	0.2044	0.2897	0.0306
323.15	0.1024	0.2649	0.0282
323.15	0	0.2398	0.024

System: D-xylose + water + 1,2-propanediol; phases: Liquid, Crystal
Fixed: Pressure, kPa = 100
Property: Mass fraction of D-xylose (Liquid); method: Index of refraction calibration data
Temperature, K	Solvent: Mole fraction of water	Mass fraction of D-xylose	uncertainty
293.15	1	0.5317	0.0468
293.15	0.8998	0.3987	0.0612
293.15	0.7996	0.299	0.046
293.15	0.6998	0.2237	0.0336
293.15	0.6006	0.1743	0.0249
293.15	0.5005	0.135	0.0201
293.15	0.4004	0.1001	0.0167
293.15	0.3024	0.0686	0.0118
293.15	0.2022	0.0523	0.0075
293.15	0.1016	0.0418	0.0056
293.15	0	0.0337	0.0034
298.15	1	0.5545	0.0446
298.15	0.8998	0.4336	0.0611
298.15	0.7996	0.3387	0.0475
298.15	0.6998	0.2675	0.038
298.15	0.6006	0.2045	0.0293
298.15	0.5005	0.1628	0.023
298.15	0.4004	0.1235	0.0183
298.15	0.3024	0.0959	0.0132
298.15	0.2022	0.0783	0.01
298.15	0.1016	0.0643	0.009
298.15	0	0.0467	0.0047
303.15	1	0.5773	0.0423
303.15	0.8998	0.4622	0.0622
303.15	0.7996	0.3688	0.0494
303.15	0.6998	0.298	0.0406
303.15	0.6006	0.2315	0.0324
303.15	0.5005	0.185	0.0259
303.15	0.4004	0.1409	0.0205
303.15	0.3024	0.1115	0.0152
303.15	0.2022	0.09	0.0117
303.15	0.1016	0.0741	0.0101
303.15	0	0.055	0.0055
308.15	1	0.6031	0.0397
308.15	0.8998	0.4896	0.0639
308.15	0.7996	0.3978	0.0514
308.15	0.6998	0.327	0.0426
308.15	0.6006	0.2624	0.035
308.15	0.5005	0.2113	0.0294
308.15	0.4004	0.1601	0.0233
308.15	0.3024	0.1275	0.0172
308.15	0.2022	0.1027	0.0135
308.15	0.1016	0.0837	0.0111
308.15	0	0.066	0.0066
313.15	1	0.6359	0.0364
313.15	0.8998	0.5186	0.0635
313.15	0.7996	0.4287	0.0533
313.15	0.6998	0.3605	0.0451
313.15	0.6006	0.2939	0.0383
313.15	0.5005	0.2381	0.0325
313.15	0.4004	0.183	0.0262
313.15	0.3024	0.1454	0.0195
313.15	0.2022	0.1189	0.0154
313.15	0.1016	0.0966	0.012
313.15	0	0.0825	0.0083
318.15	1	0.6566	0.0344
318.15	0.8998	0.5455	0.06
318.15	0.7996	0.4606	0.0551
318.15	0.6998	0.3942	0.048
318.15	0.6006	0.3243	0.0415
318.15	0.5005	0.2654	0.0358
318.15	0.4004	0.2043	0.0289
318.15	0.3024	0.1643	0.0215
318.15	0.2022	0.1359	0.0171
318.15	0.1016	0.1121	0.0138
318.15	0	0.0952	0.0095
323.15	1	0.6714	0.0329
323.15	0.8998	0.5751	0.0555
323.15	0.7996	0.4929	0.0574
323.15	0.6998	0.4278	0.0501
323.15	0.6006	0.3637	0.0445
323.15	0.5005	0.3	0.0395
323.15	0.4004	0.235	0.032
323.15	0.3024	0.1929	0.0247
323.15	0.2022	0.1589	0.02
323.15	0.1016	0.1319	0.0159
323.15	0	0.1145	0.0115

System: D-xylose + water; phases: Liquid, Crystal
Fixed: Pressure, kPa = 100
Property: Mass fraction of D-xylose (Liquid); method: Index of refraction calibration data
Temperature, K	Mass fraction of D-xylose	uncertainty
293.15	0.5317	0.0468
298.15	0.5545	0.0446
303.15	0.5773	0.0423
308.15	0.6031	0.0397
313.15	0.6359	0.0364
318.15	0.6566	0.0344
323.15	0.6714	0.0329

System: D-xylose + 1,2-ethanediol; phases: Liquid, Crystal
Fixed: Pressure, kPa = 100
Property: Mass fraction of D-xylose (Liquid); method: Index of refraction calibration data
Temperature, K	Mass fraction of D-xylose	uncertainty
293.15	0.084	0.0084
298.15	0.1126	0.0113
303.15	0.1375	0.0138
308.15	0.163	0.0163
313.15	0.1871	0.0187
318.15	0.2107	0.0211
323.15	0.2398	0.024

System: D-xylose + 1,2-propanediol; phases: Liquid, Crystal
Fixed: Pressure, kPa = 100
Property: Mass fraction of D-xylose (Liquid); method: Index of refraction calibration data
Temperature, K	Mass fraction of D-xylose	uncertainty
293.15	0.0337	0.0034
298.15	0.0467	0.0047
303.15	0.055	0.0055
308.15	0.066	0.0066
313.15	0.0825	0.0083
318.15	0.0952	0.0095
323.15	0.1145	0.0115

System: 1,6-hexanedioic acid + water; phases: Liquid, Crystal
Fixed: Pressure, kPa = 100
Property: Mole fraction of 1,6-hexanedioic acid (Liquid); method: Index of refraction calibration data
Temperature, K	Mole fraction of 1,6-hexanedioic acid	uncertainty
293.15	0.0023	0.0003
298.15	0.003	0.0003
303.15	0.0037	0.0004
308.15	0.005	0.0006
313.15	0.0066	0.0008
318.15	0.0091	0.001
323.15	0.0117	0.0013
