Measured thermophysical data. Density and Viscosity of Magnesium Chloride Solution in N-Methylacetamide over the Temperature Range from 308.15 to 328.15 K at Ambient Pressure
Source: J. Chem. Eng. Data, 2019, 10.1021/acs.jced.9b00046
Compound 1: N-methylacetamide, C3H7NO, InChI=1S/C3H7NO/c1-3(5)4-2/h1-2H3,(H,4,5), purity 99%
Compound 2: magnesium chloride, Cl2Mg, InChI=1S/2ClH.Mg/h2*1H;/q;;+2/p-2, purity 99.99%

System: N-methylacetamide; phases: Liquid
Fixed: Pressure, kPa = 99.6
Property: Mass density, kg/m3 (Liquid); method: Vibrating tube method
Temperature, K	Mass density, kg/m3	uncertainty
308.15	945.71	1.9
313.15	941.53	1.89
318.15	937.33	1.89
323.15	933.16	1.88
328.15	928.93	1.87

System: N-methylacetamide; phases: Liquid
Fixed: Pressure, kPa = 99.6
Property: Viscosity, Pa*s (Liquid); method: Capillary tube (Ostwald; Ubbelohde) method
Temperature, K	Viscosity, Pa*s	uncertainty
308.15	0.003488	4.3e-05
313.15	0.003073	3.8e-05
318.15	0.002723	3.4e-05
323.15	0.002438	3e-05
328.15	0.002194	2.7e-05

System: magnesium chloride + N-methylacetamide; phases: Liquid
Fixed: Pressure, kPa = 99.6
Property: Mass density, kg/m3 (Liquid); method: Vibrating tube method
Temperature, K	Molality, mol/kg of magnesium chloride	Mass density, kg/m3	uncertainty
308.15	0	945.71	1.9
308.15	0.00111	945.76	1.9
308.15	0.004	945.9	1.9
308.15	0.00479	945.94	1.9
308.15	0.00663	946.03	1.9
308.15	0.00734	946.06	1.9
308.15	0.00868	946.13	1.9
308.15	0.01179	946.27	1.9
308.15	0.01529	946.45	1.9
308.15	0.02124	946.72	1.9
308.15	0.02416	946.86	1.91
308.15	0.05144	948.15	1.91
308.15	0.0831	949.6	1.91
313.15	0	941.53	1.89
313.15	0.00111	941.57	1.89
313.15	0.004	941.69	1.9
313.15	0.00479	941.73	1.9
313.15	0.00663	941.81	1.9
313.15	0.00734	941.85	1.9
313.15	0.00868	941.92	1.9
313.15	0.01179	942.07	1.9
313.15	0.01529	942.24	1.9
313.15	0.02124	942.53	1.9
313.15	0.02416	942.67	1.9
313.15	0.05144	943.94	1.9
313.15	0.0831	945.45	1.9
318.15	0	937.33	1.89
318.15	0.00111	937.37	1.89
318.15	0.004	937.51	1.89
318.15	0.00479	937.54	1.89
318.15	0.00663	937.63	1.89
318.15	0.00734	937.66	1.89
318.15	0.00868	937.73	1.89
318.15	0.01179	937.87	1.89
318.15	0.01529	938.04	1.89
318.15	0.02124	938.33	1.89
318.15	0.02416	938.47	1.89
318.15	0.05144	939.77	1.89
318.15	0.0831	941.26	1.89
323.15	0	933.16	1.88
323.15	0.00111	933.2	1.88
323.15	0.004	933.33	1.88
323.15	0.00479	933.37	1.88
323.15	0.00663	933.45	1.88
323.15	0.00734	933.48	1.88
323.15	0.00868	933.54	1.88
323.15	0.01179	933.7	1.88
323.15	0.01529	933.87	1.88
323.15	0.02124	934.15	1.88
323.15	0.02416	934.29	1.88
323.15	0.05144	935.6	1.88
323.15	0.0831	937.11	1.89
328.15	0	928.93	1.87
328.15	0.00111	928.98	1.87
328.15	0.004	929.12	1.87
328.15	0.00479	929.16	1.87
328.15	0.00663	929.24	1.87
328.15	0.00734	929.29	1.87
328.15	0.00868	929.35	1.87
328.15	0.01179	929.49	1.87
328.15	0.01529	929.68	1.87
328.15	0.02124	929.95	1.87
328.15	0.02416	930.09	1.87
328.15	0.05144	931.4	1.87
328.15	0.0831	932.91	1.88

System: magnesium chloride + N-methylacetamide; phases: Liquid
Fixed: Pressure, kPa = 99.6
Property: Viscosity, Pa*s (Liquid); method: Capillary tube (Ostwald; Ubbelohde) method
Temperature, K	Molality, mol/kg of magnesium chloride	Viscosity, Pa*s	uncertainty
308.15	0	0.003488	4.3e-05
308.15	0.00111	0.003491	4.3e-05
308.15	0.004	0.003502	4.3e-05
308.15	0.00479	0.003505	4.3e-05
308.15	0.00663	0.003512	4.3e-05
308.15	0.00734	0.003514	4.3e-05
308.15	0.00868	0.00352	4.3e-05
308.15	0.01179	0.003531	4.3e-05
308.15	0.01529	0.003544	4.4e-05
308.15	0.02124	0.003566	4.4e-05
308.15	0.02416	0.003577	4.4e-05
308.15	0.05144	0.003681	4.5e-05
308.15	0.0831	0.003798	4.7e-05
313.15	0	0.003073	3.8e-05
313.15	0.00111	0.003077	3.8e-05
313.15	0.004	0.003087	3.8e-05
313.15	0.00479	0.00309	3.8e-05
313.15	0.00663	0.003097	3.8e-05
313.15	0.00734	0.003099	3.8e-05
313.15	0.00868	0.003103	3.8e-05
313.15	0.01179	0.003114	3.8e-05
313.15	0.01529	0.003127	3.8e-05
313.15	0.02124	0.003147	3.9e-05
313.15	0.02416	0.003156	3.9e-05
313.15	0.05144	0.003251	4e-05
313.15	0.0831	0.003361	4.1e-05
318.15	0	0.002723	3.4e-05
318.15	0.00111	0.002725	3.4e-05
318.15	0.004	0.002735	3.4e-05
318.15	0.00479	0.002737	3.4e-05
318.15	0.00663	0.002743	3.4e-05
318.15	0.00734	0.002747	3.4e-05
318.15	0.00868	0.00275	3.4e-05
318.15	0.01179	0.00276	3.4e-05
318.15	0.01529	0.002771	3.4e-05
318.15	0.02124	0.002792	3.4e-05
318.15	0.02416	0.002801	3.4e-05
318.15	0.05144	0.00289	3.6e-05
318.15	0.0831	0.002994	3.7e-05
323.15	0	0.002438	3e-05
323.15	0.00111	0.00244	3e-05
323.15	0.004	0.002448	3e-05
323.15	0.00479	0.002451	3e-05
323.15	0.00663	0.002455	3e-05
323.15	0.00734	0.002457	3e-05
323.15	0.00868	0.002462	3e-05
323.15	0.01179	0.002471	3e-05
323.15	0.01529	0.00248	3.1e-05
323.15	0.02124	0.002495	3.1e-05
323.15	0.02416	0.002505	3.1e-05
323.15	0.05144	0.002579	3.2e-05
323.15	0.0831	0.00267	3.3e-05
328.15	0	0.002194	2.7e-05
328.15	0.00111	0.002196	2.7e-05
328.15	0.004	0.002203	2.7e-05
328.15	0.00479	0.002204	2.7e-05
328.15	0.00663	0.002208	2.7e-05
328.15	0.00734	0.002211	2.7e-05
328.15	0.00868	0.002214	2.7e-05
328.15	0.01179	0.002221	2.7e-05
328.15	0.01529	0.00223	2.8e-05
328.15	0.02124	0.002244	2.8e-05
328.15	0.02416	0.002251	2.8e-05
328.15	0.05144	0.002317	2.9e-05
328.15	0.0831	0.002391	2.9e-05
