Measured thermophysical data. Solid-Liquid Equilibrium of Isomaltulose in Five Pure Solvents and Four Binary Solvents from (283.15 to 323.15) K
Source: J. Chem. Eng. Data, 2019, 10.1021/acs.jced.8b00823
Compound 1: isomaltulose, C12H22O11, InChI=1S/C12H22O11/c13-1-4(15)7(17)8(18)5(16)3-22-12-11(21)10(20)9(19)6(2-14)23-12/h5-14,16-21H,1-3H2/t5-,6-,7-,8-,9-,10+,11-,12+/m1/s1, purity 99%
Compound 2: methanol, CH4O, InChI=1S/CH4O/c1-2/h2H,1H3, purity 99.5%
Compound 3: ethanol, C2H6O, InChI=1S/C2H6O/c1-2-3/h3H,2H2,1H3, purity 99.7%
Compound 4: acetone, C3H6O, InChI=1S/C3H6O/c1-3(2)4/h1-2H3, purity 99.5%
Compound 5: water, H2O, InChI=1S/H2O/h1H2, purity 99.9%
Compound 6: propan-2-ol, C3H8O, InChI=1S/C3H8O/c1-3(2)4/h3-4H,1-2H3, purity 99.7%

System: isomaltulose + water + methanol; phases: Liquid, Crystal
Fixed: Pressure, kPa = 100
Property: Mole fraction of isomaltulose (Liquid); method: gravimetric
Temperature, K	Solvent: Mass fraction of water	Mole fraction of isomaltulose	uncertainty
283.15	0	0.0023278	0.0006984
283.15	0.05	0.0008542	0.0002563
283.15	0.1	0.0005402	0.0001621
283.15	0.2	0.0005546	0.0001664
283.15	0.3	0.0007798	0.000234
283.15	0.4	0.0010276	0.0003083
283.15	0.5	0.0018342	0.0005504
283.15	0.6	0.0024757	0.0007429
283.15	0.7	0.0046971	0.0014093
283.15	0.8	0.0068179	0.0020455
283.15	0.9	0.0108092	0.003243
283.15	1	0.0179778	0.0053937
293.15	0	0.003358	0.0010075
293.15	0.05	0.001026	0.0003079
293.15	0.1	0.0007035	0.0002111
293.15	0.2	0.0006835	0.0002051
293.15	0.3	0.000991	0.0002974
293.15	0.4	0.0014573	0.0004373
293.15	0.5	0.0025063	0.0007522
293.15	0.6	0.0038893	0.0011672
293.15	0.7	0.0063873	0.0019166
293.15	0.8	0.0091522	0.0027463
293.15	0.9	0.0150595	0.0045184
293.15	1	0.0230793	0.0069242
303.15	0	0.0042924	0.0012879
303.15	0.05	0.0018219	0.0005467
303.15	0.1	0.001384	0.0004153
303.15	0.2	0.0013905	0.0004172
303.15	0.3	0.0018102	0.0005432
303.15	0.4	0.0027251	0.0008178
303.15	0.5	0.0049056	0.0014722
303.15	0.6	0.0076557	0.0022973
303.15	0.7	0.0108697	0.0032617
303.15	0.8	0.0179727	0.0053928
303.15	0.9	0.0225703	0.0067719
303.15	1	0.0305341	0.0091609
313.15	0	0.0069296	0.0020791
313.15	0.05	0.0028021	0.0008408
313.15	0.1	0.0021364	0.000641
313.15	0.2	0.0022794	0.000684
313.15	0.3	0.0031702	0.0009514
313.15	0.4	0.00476	0.0014285
313.15	0.5	0.0080886	0.0024274
313.15	0.6	0.012641	0.0037933
313.15	0.7	0.0181706	0.0054524
313.15	0.8	0.0273339	0.0082014
313.15	0.9	0.0328539	0.0098573
313.15	1	0.04031	0.0120941
323.15	0	0.01029	0.0030873
323.15	0.05	0.0047409	0.0014227
323.15	0.1	0.0035522	0.0010659
323.15	0.2	0.0040386	0.0012119
323.15	0.3	0.006369	0.0019111
323.15	0.4	0.0085902	0.0025778
323.15	0.5	0.0140557	0.0042178
323.15	0.6	0.0216248	0.0064887
323.15	0.7	0.0308563	0.0092583
323.15	0.8	0.0426259	0.0127888
323.15	0.9	0.0485833	0.0145763
323.15	1	0.0580443	0.0174146

System: isomaltulose + water + ethanol; phases: Liquid, Crystal
Fixed: Pressure, kPa = 100
Property: Mole fraction of isomaltulose (Liquid); method: gravimetric
Temperature, K	Solvent: Mass fraction of water	Mole fraction of isomaltulose	uncertainty
283.15	0	0.0003943	0.0001183
283.15	0.05	0.0001147	3.44e-05
283.15	0.1	7.82e-05	2.35e-05
283.15	0.2	5.14e-05	1.54e-05
283.15	0.3	0.0001952	5.86e-05
283.15	0.4	0.0003346	0.0001004
283.15	0.5	0.0008059	0.0002419
283.15	0.6	0.0015949	0.0004786
283.15	0.7	0.0024602	0.0007382
283.15	0.8	0.0053753	0.0016127
283.15	0.9	0.0096224	0.0028869
283.15	1	0.0179778	0.0053937
293.15	0	0.0006031	0.000181
293.15	0.05	0.0001266	3.8e-05
293.15	0.1	0.000103	3.09e-05
293.15	0.2	7.48e-05	2.24e-05
293.15	0.3	0.0002599	7.8e-05
293.15	0.4	0.0004743	0.0001423
293.15	0.5	0.001028	0.0003085
293.15	0.6	0.0020904	0.0006273
293.15	0.7	0.0038997	0.0011702
293.15	0.8	0.0070156	0.0021051
293.15	0.9	0.013213	0.0039643
293.15	1	0.0230793	0.0069242
303.15	0	0.0012336	0.0003702
303.15	0.05	0.0001596	4.79e-05
303.15	0.1	0.0001388	4.16e-05
303.15	0.2	0.0001469	4.41e-05
303.15	0.3	0.000405	0.0001215
303.15	0.4	0.0007538	0.0002262
303.15	0.5	0.0016409	0.0004925
303.15	0.6	0.0032706	0.0009815
303.15	0.7	0.0061463	0.0018444
303.15	0.8	0.0118549	0.0035572
303.15	0.9	0.0191191	0.0057364
303.15	1	0.0305341	0.0091609
313.15	0	0.0019877	0.0005964
313.15	0.05	0.0002636	7.91e-05
313.15	0.1	0.0002072	6.22e-05
313.15	0.2	0.000284	8.52e-05
313.15	0.3	0.0006638	0.0001992
313.15	0.4	0.0012591	0.0003779
313.15	0.5	0.0028187	0.000846
313.15	0.6	0.005572	0.0016722
313.15	0.7	0.010323	0.0030977
313.15	0.8	0.0191754	0.0057536
313.15	0.9	0.0287502	0.0086264
313.15	1	0.04031	0.0120941
323.15	0	0.0030596	0.000918
323.15	0.05	0.0004239	0.0001276
323.15	0.1	0.0002898	8.7e-05
323.15	0.2	0.0005058	0.0001518
323.15	0.3	0.0012115	0.0003635
323.15	0.4	0.0021522	0.000646
323.15	0.5	0.0046182	0.0013862
323.15	0.6	0.0094616	0.0028394
323.15	0.7	0.017283	0.0051861
323.15	0.8	0.0302339	0.0090714
323.15	0.9	0.0467072	0.0140135
323.15	1	0.0580443	0.0174146

System: isomaltulose + water + propan-2-ol; phases: Liquid, Crystal
Fixed: Pressure, kPa = 100
Property: Mole fraction of isomaltulose (Liquid); method: gravimetric
Temperature, K	Solvent: Mass fraction of water	Mole fraction of isomaltulose	uncertainty
283.15	0	0.0001257	3.77e-05
283.15	0.05	6.07e-05	1.82e-05
283.15	0.1	5.2e-05	1.56e-05
283.15	0.2	7.06e-05	2.12e-05
283.15	0.3	9.86e-05	2.96e-05
283.15	0.4	0.0002401	7.2e-05
283.15	0.5	0.0004864	0.000146
283.15	0.6	0.0013596	0.000408
283.15	0.7	0.0026355	0.0007907
283.15	0.8	0.0040686	0.0012207
283.15	0.9	0.0083342	0.0025004
283.15	1	0.0179778	0.0053937
293.15	0	0.0002448	7.35e-05
293.15	0.05	8.91e-05	2.67e-05
293.15	0.1	8.05e-05	2.42e-05
293.15	0.2	0.0001071	3.21e-05
293.15	0.3	0.0001577	4.73e-05
293.15	0.4	0.0002922	8.77e-05
293.15	0.5	0.0006756	0.0002029
293.15	0.6	0.001773	0.0005321
293.15	0.7	0.0031142	0.0009345
293.15	0.8	0.0058168	0.0017455
293.15	0.9	0.0111899	0.0033575
293.15	1	0.0230793	0.0069242
303.15	0	0.0003901	0.0001171
303.15	0.05	0.0001224	3.67e-05
303.15	0.1	0.0001155	3.47e-05
303.15	0.2	0.0001538	4.61e-05
303.15	0.3	0.000285	8.55e-05
303.15	0.4	0.0004998	0.00015
303.15	0.5	0.001195	0.0003587
303.15	0.6	0.0028018	0.0008408
303.15	0.7	0.0055402	0.0016625
303.15	0.8	0.0106143	0.003185
303.15	0.9	0.0183433	0.0055039
303.15	1	0.0305341	0.0091609
313.15	0	0.0006677	0.0002004
313.15	0.05	0.0002249	6.75e-05
313.15	0.1	0.0001826	5.48e-05
313.15	0.2	0.0002468	7.41e-05
313.15	0.3	0.0004004	0.0001201
313.15	0.4	0.0007691	0.0002308
313.15	0.5	0.0018714	0.0005618
313.15	0.6	0.0043212	0.0012969
313.15	0.7	0.008999	0.0027004
313.15	0.8	0.0172335	0.0051709
313.15	0.9	0.0288241	0.0086488
313.15	1	0.04031	0.0120941
323.15	0	0.0011976	0.0003593
323.15	0.05	0.0003391	0.0001018
323.15	0.1	0.0002742	8.23e-05
323.15	0.2	0.0003603	0.0001081
323.15	0.3	0.0005158	0.0001548
323.15	0.4	0.0012734	0.0003822
323.15	0.5	0.002815	0.0008454
323.15	0.6	0.0076308	0.0022901
323.15	0.7	0.0143849	0.0043164
323.15	0.8	0.0254275	0.0076297
323.15	0.9	0.0485989	0.0145809
323.15	1	0.0580443	0.0174146

System: isomaltulose + water + acetone; phases: Liquid, Crystal
Fixed: Pressure, kPa = 100
Property: Mole fraction of isomaltulose (Liquid); method: gravimetric
Temperature, K	Solvent: Mass fraction of water	Mole fraction of isomaltulose	uncertainty
283.15	0	2.81e-05	8.4e-06
283.15	0.1	4.29e-05	1.29e-05
283.15	0.2	5.73e-05	1.72e-05
283.15	0.3	7.94e-05	2.38e-05
283.15	0.4	0.0001434	4.3e-05
283.15	0.5	0.0002786	8.36e-05
283.15	0.6	0.0007014	0.0002105
283.15	0.7	0.0014835	0.0004451
283.15	0.8	0.0036046	0.0010815
283.15	0.9	0.0076344	0.0022904
283.15	1	0.0179778	0.0053937
293.15	0	4.3e-05	1.29e-05
293.15	0.1	6.45e-05	1.94e-05
293.15	0.2	8.41e-05	2.52e-05
293.15	0.3	0.0001096	3.29e-05
293.15	0.4	0.0001941	5.82e-05
293.15	0.5	0.0003748	0.0001125
293.15	0.6	0.0009818	0.0002947
293.15	0.7	0.0020791	0.000624
293.15	0.8	0.0046922	0.001408
293.15	0.9	0.0107611	0.0032289
293.15	1	0.0230793	0.0069242
303.15	0	7.55e-05	2.27e-05
303.15	0.1	9.27e-05	2.78e-05
303.15	0.2	0.0001476	4.43e-05
303.15	0.3	0.0001708	5.12e-05
303.15	0.4	0.0002598	7.8e-05
303.15	0.5	0.0006868	0.0002062
303.15	0.6	0.0017061	0.0005121
303.15	0.7	0.0039124	0.0011741
303.15	0.8	0.0084256	0.0025284
303.15	0.9	0.0178911	0.0053681
303.15	1	0.0305341	0.0091609
313.15	0	0.0001221	3.66e-05
313.15	0.1	0.0001684	5.05e-05
313.15	0.2	0.0002269	6.81e-05
313.15	0.3	0.0002616	7.85e-05
313.15	0.4	0.0003933	0.000118
313.15	0.5	0.0009974	0.0002994
313.15	0.6	0.0024587	0.0007381
313.15	0.7	0.0063616	0.0019092
313.15	0.8	0.0143047	0.0042923
313.15	0.9	0.0269427	0.0080839
313.15	1	0.04031	0.0120941
323.15	0	0.0002003	6.01e-05
323.15	0.1	0.0002718	8.15e-05
323.15	0.2	0.000324	9.72e-05
323.15	0.3	0.0004105	0.0001232
323.15	0.4	0.000581	0.0001744
323.15	0.5	0.0015773	0.0004737
323.15	0.6	0.0043863	0.0013168
323.15	0.7	0.0107866	0.0032372
323.15	0.8	0.0228585	0.0068588
323.15	0.9	0.0407391	0.0122228
323.15	1	0.0580443	0.0174146

System: isomaltulose + methanol; phases: Liquid, Crystal
Fixed: Pressure, kPa = 100
Property: Mole fraction of isomaltulose (Liquid); method: gravimetric
Temperature, K	Mole fraction of isomaltulose	uncertainty
283.15	0.0023278	0.0006984
293.15	0.003358	0.0010075
303.15	0.0042924	0.0012879
313.15	0.0069296	0.0020791
323.15	0.01029	0.0030873

System: isomaltulose + water; phases: Liquid, Crystal
Fixed: Pressure, kPa = 100
Property: Mole fraction of isomaltulose (Liquid); method: gravimetric
Temperature, K	Mole fraction of isomaltulose	uncertainty
283.15	0.0179778	0.0053937
293.15	0.0230793	0.0069242
303.15	0.0305341	0.0091609
313.15	0.04031	0.0120941
323.15	0.0580443	0.0174146

System: isomaltulose + ethanol; phases: Liquid, Crystal
Fixed: Pressure, kPa = 100
Property: Mole fraction of isomaltulose (Liquid); method: gravimetric
Temperature, K	Mole fraction of isomaltulose	uncertainty
283.15	0.0003943	0.0001183
293.15	0.0006031	0.000181
303.15	0.0012336	0.0003702
313.15	0.0019877	0.0005964
323.15	0.0030596	0.000918

System: isomaltulose + propan-2-ol; phases: Liquid, Crystal
Fixed: Pressure, kPa = 100
Property: Mole fraction of isomaltulose (Liquid); method: gravimetric
Temperature, K	Mole fraction of isomaltulose	uncertainty
283.15	0.0001257	3.77e-05
293.15	0.0002448	7.35e-05
303.15	0.0003901	0.0001171
313.15	0.0006677	0.0002004
323.15	0.0011976	0.0003593

System: isomaltulose + acetone; phases: Liquid, Crystal
Fixed: Pressure, kPa = 100
Property: Mole fraction of isomaltulose (Liquid); method: gravimetric
Temperature, K	Mole fraction of isomaltulose	uncertainty
283.15	2.81e-05	8.4e-06
293.15	4.3e-05	1.29e-05
303.15	7.55e-05	2.27e-05
313.15	0.0001221	3.66e-05
323.15	0.0002003	6.01e-05
