Measured thermophysical data. Solubility of 2-Chlorophenylacetic Acid in 12 Pure Solvents from T = (273.15/283.15 to 318.15) K: Determination and Modeling
Source: J. Chem. Eng. Data, 2018, 10.1021/acs.jced.8b00139
Compound 1: (2-chlorophenyl)ethanoic acid, C8H7ClO2, InChI=1S/C8H7ClO2/c9-7-4-2-1-3-6(7)5-8(10)11/h1-4H,5H2,(H,10,11), purity 99%
Compound 2: toluene, C7H8, InChI=1S/C7H8/c1-7-5-3-2-4-6-7/h2-6H,1H3, purity 99.5%
Compound 3: water, H2O, InChI=1S/H2O/h1H2, purity 99.9%
Compound 4: acetonitrile, C2H3N, InChI=1S/C2H3N/c1-2-3/h1H3, purity 99.3%
Compound 5: ethyl acetate, C4H8O2, InChI=1S/C4H8O2/c1-3-6-4(2)5/h3H2,1-2H3, purity 99.5%
Compound 6: ethylbenzene, C8H10, InChI=1S/C8H10/c1-2-8-6-4-3-5-7-8/h3-7H,2H2,1H3, purity 99.5%
Compound 7: propan-1-ol, C3H8O, InChI=1S/C3H8O/c1-2-3-4/h4H,2-3H2,1H3, purity 99.5%
Compound 8: propan-2-ol, C3H8O, InChI=1S/C3H8O/c1-3(2)4/h3-4H,1-2H3, purity 99.7%
Compound 9: butan-1-ol, C4H10O, InChI=1S/C4H10O/c1-2-3-4-5/h5H,2-4H2,1H3, purity 99.5%
Compound 10: 2-methyl-1-propanol, C4H10O, InChI=1S/C4H10O/c1-4(2)3-5/h4-5H,3H2,1-2H3, purity 99.5%
Compound 11: cyclohexane, C6H12, InChI=1S/C6H12/c1-2-4-6-5-3-1/h1-6H2, purity 99.5%
Compound 12: butanone, C4H8O, InChI=1S/C4H8O/c1-3-4(2)5/h3H2,1-2H3, purity 99.5%
Compound 13: acetone, C3H6O, InChI=1S/C3H6O/c1-3(2)4/h1-2H3, purity 99.5%
Compound 14: 1,3-diphenylguanidine, C13H13N3, InChI=1S/C13H13N3/c14-13(15-11-7-3-1-4-8-11)16-12-9-5-2-6-10-12/h1-10H,(H3,14,15,16), purity 99.7%
Compound 15: ethanol, C2H6O, InChI=1S/C2H6O/c1-2-3/h3H,2H2,1H3, purity 99.7%

System: (2-chlorophenyl)ethanoic acid + toluene; phases: Liquid, Crystal
Fixed: Pressure, kPa = 101.2
Property: Mole fraction of (2-chlorophenyl)ethanoic acid (Liquid); method: Chromatography
Temperature, K	Mole fraction of (2-chlorophenyl)ethanoic acid	uncertainty
273.15	0.02411	0.00126
278.15	0.03075	0.0016
283.15	0.03881	0.00202
288.15	0.04906	0.00255
293.15	0.06166	0.00321
298.15	0.07779	0.00405
303.15	0.09746	0.00508
308.15	0.1222	0.0064
313.15	0.1529	0.008
318.15	0.1909	0.0099

System: (2-chlorophenyl)ethanoic acid + water; phases: Liquid, Crystal
Fixed: Pressure, kPa = 101.2
Property: Mole fraction of (2-chlorophenyl)ethanoic acid (Liquid); method: Chromatography
Temperature, K	Mole fraction of (2-chlorophenyl)ethanoic acid	uncertainty
273.15	0.0001414	7.4e-06
278.15	0.0001863	9.7e-06
283.15	0.0002427	1.26e-05
288.15	0.0003108	1.62e-05
293.15	0.0003936	2.05e-05
298.15	0.0005064	2.64e-05
303.15	0.000645	3.36e-05
308.15	0.0008211	4.28e-05
313.15	0.00105	5.5e-05
318.15	0.00134	7e-05

System: (2-chlorophenyl)ethanoic acid + acetonitrile; phases: Liquid, Crystal
Fixed: Pressure, kPa = 101.2
Property: Mole fraction of (2-chlorophenyl)ethanoic acid (Liquid); method: Chromatography
Temperature, K	Mole fraction of (2-chlorophenyl)ethanoic acid	uncertainty
273.15	0.05821	0.00303
278.15	0.07383	0.00384
283.15	0.09252	0.00482
288.15	0.1143	0.006
293.15	0.1394	0.0073
298.15	0.1677	0.0087
303.15	0.1993	0.0104
308.15	0.2341	0.0122
313.15	0.2724	0.0142
318.15	0.3141	0.0164

System: (2-chlorophenyl)ethanoic acid + ethyl acetate; phases: Liquid, Crystal
Fixed: Pressure, kPa = 101.2
Property: Mole fraction of (2-chlorophenyl)ethanoic acid (Liquid); method: Chromatography
Temperature, K	Mole fraction of (2-chlorophenyl)ethanoic acid	uncertainty
273.15	0.1748	0.0091
278.15	0.1932	0.0101
283.15	0.2137	0.0111
288.15	0.2369	0.0123
293.15	0.2582	0.0134
298.15	0.2844	0.0148
303.15	0.3119	0.0162
308.15	0.3416	0.0178
313.15	0.3721	0.0194
318.15	0.4071	0.0212

System: (2-chlorophenyl)ethanoic acid + ethylbenzene; phases: Liquid, Crystal
Fixed: Pressure, kPa = 101.2
Property: Mole fraction of (2-chlorophenyl)ethanoic acid (Liquid); method: Chromatography
Temperature, K	Mole fraction of (2-chlorophenyl)ethanoic acid	uncertainty
273.15	0.02175	0.00113
278.15	0.02776	0.00145
283.15	0.03477	0.00181
288.15	0.04367	0.00227
293.15	0.05418	0.00282
298.15	0.0678	0.00353
303.15	0.0853	0.00444
308.15	0.1061	0.0055
313.15	0.1321	0.0069
318.15	0.1651	0.0086

System: (2-chlorophenyl)ethanoic acid + propan-1-ol; phases: Liquid, Crystal
Fixed: Pressure, kPa = 101.2
Property: Mole fraction of (2-chlorophenyl)ethanoic acid (Liquid); method: Chromatography
Temperature, K	Mole fraction of (2-chlorophenyl)ethanoic acid	uncertainty
273.15	0.1599	0.0083
278.15	0.1838	0.0096
283.15	0.2098	0.0109
288.15	0.2373	0.0124
293.15	0.2682	0.014
298.15	0.2993	0.0156
303.15	0.3323	0.0173
308.15	0.3682	0.0192
313.15	0.4049	0.0211
318.15	0.4464	0.0232

System: (2-chlorophenyl)ethanoic acid + propan-2-ol; phases: Liquid, Crystal
Fixed: Pressure, kPa = 101.2
Property: Mole fraction of (2-chlorophenyl)ethanoic acid (Liquid); method: Chromatography
Temperature, K	Mole fraction of (2-chlorophenyl)ethanoic acid	uncertainty
273.15	0.1801	0.0094
278.15	0.2062	0.0107
283.15	0.235	0.0122
288.15	0.2656	0.0138
293.15	0.2978	0.0155
298.15	0.3359	0.0175
303.15	0.3689	0.0192
308.15	0.4067	0.0212
313.15	0.4459	0.0232
318.15	0.4858	0.0253

System: (2-chlorophenyl)ethanoic acid + butan-1-ol; phases: Liquid, Crystal
Fixed: Pressure, kPa = 101.2
Property: Mole fraction of (2-chlorophenyl)ethanoic acid (Liquid); method: Chromatography
Temperature, K	Mole fraction of (2-chlorophenyl)ethanoic acid	uncertainty
273.15	0.1416	0.0074
278.15	0.1642	0.0085
283.15	0.1899	0.0099
288.15	0.2175	0.0113
293.15	0.2474	0.0129
298.15	0.2803	0.0146
303.15	0.3143	0.0164
308.15	0.3488	0.0182
313.15	0.3872	0.0202
318.15	0.4249	0.0221

System: (2-chlorophenyl)ethanoic acid + 2-methyl-1-propanol; phases: Liquid, Crystal
Fixed: Pressure, kPa = 101.2
Property: Mole fraction of (2-chlorophenyl)ethanoic acid (Liquid); method: Chromatography
Temperature, K	Mole fraction of (2-chlorophenyl)ethanoic acid	uncertainty
273.15	0.15	0.0078
278.15	0.1716	0.0089
283.15	0.1985	0.0103
288.15	0.2263	0.0118
293.15	0.2562	0.0133
298.15	0.288	0.015
303.15	0.3215	0.0167
308.15	0.3574	0.0186
313.15	0.3942	0.0205
318.15	0.4328	0.0225

System: (2-chlorophenyl)ethanoic acid + cyclohexane; phases: Liquid, Crystal
Fixed: Pressure, kPa = 101.2
Property: Mole fraction of (2-chlorophenyl)ethanoic acid (Liquid); method: Chromatography
Temperature, K	Mole fraction of (2-chlorophenyl)ethanoic acid	uncertainty
283.15	0.00197	0.000103
288.15	0.002632	0.000137
293.15	0.003461	0.00018
298.15	0.004543	0.000237
303.15	0.006014	0.000313
308.15	0.007991	0.000416
313.15	0.01066	0.00056
318.15	0.01446	0.00075

System: (2-chlorophenyl)ethanoic acid + butanone; phases: Liquid, Crystal
Fixed: Pressure, kPa = 101.2
Property: Mole fraction of (2-chlorophenyl)ethanoic acid (Liquid); method: Chromatography
Temperature, K	Mole fraction of (2-chlorophenyl)ethanoic acid	uncertainty
273.15	0.2536	0.0132
278.15	0.282	0.0147
283.15	0.3148	0.0164
288.15	0.351	0.0183
293.15	0.3887	0.0202
298.15	0.4262	0.0222
303.15	0.4622	0.0241
308.15	0.4963	0.0258
313.15	0.5284	0.0246
318.15	0.5673	0.0225

System: (2-chlorophenyl)ethanoic acid + acetone; phases: Liquid, Crystal
Fixed: Pressure, kPa = 101.2
Property: Mole fraction of (2-chlorophenyl)ethanoic acid (Liquid); method: Chromatography
Temperature, K	Mole fraction of (2-chlorophenyl)ethanoic acid	uncertainty
273.15	0.209	0.0109
278.15	0.2247	0.0117
283.15	0.2418	0.0126
288.15	0.2613	0.0136
293.15	0.2805	0.0146
298.15	0.3031	0.0158
303.15	0.3261	0.017
308.15	0.3518	0.0183
313.15	0.3803	0.0198
318.15	0.4117	0.0214

System: 1,3-diphenylguanidine + acetonitrile; phases: Liquid, Crystal
Fixed: Pressure, kPa = 101.2
Property: Mole fraction of 1,3-diphenylguanidine (Liquid); method: Chromatography
Temperature, K	Mole fraction of 1,3-diphenylguanidine	uncertainty
273.15	0.008109	0.000341
275.65	0.009112	0.000384
278.15	0.01034	0.00044
280.65	0.01098	0.00046
283.15	0.01198	0.0005
285.65	0.01307	0.00055
288.15	0.01512	0.00064
290.65	0.01649	0.00069
293.15	0.01798	0.00076
295.65	0.01998	0.00084
298.15	0.02102	0.00088
300.65	0.02309	0.00097
303.15	0.02429	0.00102
305.65	0.02701	0.00114
308.15	0.03121	0.00131
310.65	0.03226	0.00136
313.15	0.03562	0.0015

System: 1,3-diphenylguanidine + ethanol; phases: Liquid, Crystal
Fixed: Pressure, kPa = 101.2
Property: Mole fraction of 1,3-diphenylguanidine (Liquid); method: Chromatography
Temperature, K	Mole fraction of 1,3-diphenylguanidine	uncertainty
273.15	0.0139	0.00058
275.65	0.01516	0.00064
278.15	0.01698	0.00071
280.65	0.0191	0.0008
283.15	0.01921	0.00081
285.65	0.02139	0.0009
288.15	0.02397	0.00101
290.65	0.02572	0.00108
293.15	0.02762	0.00116
295.65	0.02994	0.00126
298.15	0.03101	0.0013
300.65	0.03298	0.00139
303.15	0.03791	0.0016
305.65	0.03978	0.00167
308.15	0.04101	0.00172
310.65	0.04378	0.00184
313.15	0.04701	0.00198

System: 1,3-diphenylguanidine + propan-1-ol; phases: Liquid, Crystal
Fixed: Pressure, kPa = 101.2
Property: Mole fraction of 1,3-diphenylguanidine (Liquid); method: Chromatography
Temperature, K	Mole fraction of 1,3-diphenylguanidine	uncertainty
273.15	0.01525	0.00064
275.65	0.01712	0.00072
278.15	0.01807	0.00076
280.65	0.02102	0.00088
283.15	0.02149	0.0009
285.65	0.02412	0.00102
288.15	0.02613	0.0011
290.65	0.02825	0.00119
293.15	0.02978	0.00125
295.65	0.03198	0.00135
298.15	0.03576	0.0015
300.65	0.03892	0.00164
303.15	0.0412	0.00173
305.65	0.04301	0.00181
308.15	0.04691	0.00197
310.65	0.04792	0.00202
313.15	0.05311	0.00224

System: 1,3-diphenylguanidine + toluene; phases: Liquid, Crystal
Fixed: Pressure, kPa = 101.2
Property: Mole fraction of 1,3-diphenylguanidine (Liquid); method: Chromatography
Temperature, K	Mole fraction of 1,3-diphenylguanidine	uncertainty
273.15	0.001338	5.6e-05
275.65	0.001491	6.3e-05
278.15	0.001778	7.5e-05
280.65	0.001889	8e-05
283.15	0.002187	9.2e-05
285.65	0.002398	0.000101
288.15	0.002873	0.000121
290.65	0.003186	0.000134
293.15	0.003585	0.000151
295.65	0.003787	0.000159
298.15	0.004278	0.00018
300.65	0.004809	0.000202
303.15	0.005321	0.000224
305.65	0.005916	0.000249
308.15	0.006587	0.000277
310.65	0.007167	0.000302
313.15	0.007806	0.000328

System: 1,3-diphenylguanidine + 2-methyl-1-propanol; phases: Liquid, Crystal
Fixed: Pressure, kPa = 101.2
Property: Mole fraction of 1,3-diphenylguanidine (Liquid); method: Chromatography
Temperature, K	Mole fraction of 1,3-diphenylguanidine	uncertainty
273.15	0.01276	0.00054
275.65	0.01376	0.00058
278.15	0.01421	0.0006
280.65	0.01662	0.0007
283.15	0.01771	0.00074
285.65	0.01828	0.00077
288.15	0.02102	0.00088
290.65	0.02263	0.00095
293.15	0.02476	0.00104
295.65	0.02669	0.00112
298.15	0.02817	0.00119
300.65	0.03102	0.00131
303.15	0.03375	0.00142
305.65	0.03518	0.00148
308.15	0.03832	0.00161
310.65	0.04101	0.00173
313.15	0.04472	0.00188
