Measured thermophysical data. Physicochemical Characterization of Ionic Liquid Binary Mixtures Containing 1-Butyl-3-methylimidazolium as the Common Cation
Source: J. Chem. Eng. Data, 2019, 10.1021/acs.jced.9b00415
Compound 1: 1-butyl-3-methylimidazolium nitrate, C8H15N3O3, InChI=1S/C8H15N2.NO3/c1-3-4-5-10-7-6-9(2)8-10;2-1(3)4/h6-8H,3-5H2,1-2H3;/q+1;-1
Compound 2: 1-butyl-3-methylimidazolium methanesulfonate, C9H18N2O3S, InChI=1S/C8H15N2.CH4O3S/c1-3-4-5-10-7-6-9(2)8-10;1-5(2,3)4/h6-8H,3-5H2,1-2H3;1H3,(H,2,3,4)/q+1;/p-1, purity 98%
Compound 3: 1-butyl-3-methylimidazolium chloride, C8H15ClN2, InChI=1S/C8H15N2.ClH/c1-3-4-5-10-7-6-9(2)8-10;/h6-8H,3-5H2,1-2H3;1H/q+1;/p-1

System: 1-butyl-3-methylimidazolium nitrate; phases: Crystal 1, Liquid, Air at 1 atmosphere
Property: Triple point temperature, K (Crystal 1); method: DSC
Triple point temperature, K	uncertainty
308	6

System: 1-butyl-3-methylimidazolium nitrate; phases: Crystal 4, Crystal 3, Air at 1 atmosphere
Property: Triple point temperature, K (Crystal 4); method: DSC
Triple point temperature, K	uncertainty
279	6

System: 1-butyl-3-methylimidazolium nitrate; phases: Liquid
Fixed: Pressure, kPa = 102
Property: Mass density, kg/m3 (Liquid); method: Vibrating tube method
Temperature, K	Mass density, kg/m3	uncertainty
303.15	1151.9	2.8
308.15	1148.7	2.8
313.15	1145.5	2.8
318.15	1142.3	2.8
323.15	1139.2	2.8
328.15	1136.1	2.8
333.15	1133.1	2.8
338.15	1130	2.7
343.15	1127	2.7
348.15	1123.9	2.7
353.15	1120.9	2.7
358.15	1117.9	2.7
363.15	1115	2.7

System: 1-butyl-3-methylimidazolium nitrate; phases: Liquid
Fixed: Pressure, kPa = 102
Property: Viscosity, Pa*s (Liquid); method: Concentric cylinders viscometry
Temperature, K	Viscosity, Pa*s	uncertainty
303.15	0.1481	0.0151
308.15	0.1129	0.0114
313.15	0.08787	0.00888
318.15	0.06965	0.00703
323.15	0.05617	0.00566
328.15	0.04597	0.00464
333.15	0.03811	0.00384
338.15	0.03205	0.00323
343.15	0.02729	0.00275
348.15	0.0234	0.00236
353.15	0.02029	0.00205
358.15	0.01773	0.00179
363.15	0.01561	0.00157

System: 1-butyl-3-methylimidazolium methanesulfonate; phases: Crystal, Liquid, Air at 1 atmosphere
Property: Triple point temperature, K (Crystal); method: DSC
Triple point temperature, K	uncertainty
348	6

System: 1-butyl-3-methylimidazolium methanesulfonate; phases: Liquid
Fixed: Pressure, kPa = 102
Property: Mass density, kg/m3 (Liquid); method: Vibrating tube method
Temperature, K	Mass density, kg/m3	uncertainty
348.15	1139.4	2.5
353.15	1136.3	2.5
358.15	1133.1	2.5
363.15	1130	2.5

System: 1-butyl-3-methylimidazolium methanesulfonate; phases: Liquid
Fixed: Pressure, kPa = 102
Property: Viscosity, Pa*s (Liquid); method: Concentric cylinders viscometry
Temperature, K	Viscosity, Pa*s	uncertainty
348.15	0.03651	0.00367
353.15	0.03057	0.00307
358.15	0.02589	0.0026
363.15	0.02216	0.00223

System: 1-butyl-3-methylimidazolium chloride; phases: Crystal, Liquid, Air at 1 atmosphere
Property: Triple point temperature, K (Crystal); method: DSC
Triple point temperature, K	uncertainty
342	6

System: 1-butyl-3-methylimidazolium chloride; phases: Glass, Liquid, Air at 1 atmosphere
Property: Triple point temperature, K (Glass); method: DSC
Triple point temperature, K	uncertainty
231	6

System: 1-butyl-3-methylimidazolium chloride; phases: Liquid
Fixed: Pressure, kPa = 102
Property: Mass density, kg/m3 (Liquid); method: Vibrating tube method
Temperature, K	Mass density, kg/m3	uncertainty
343.15	1057.5	2.9
348.15	1054.8	2.9
353.15	1052	2.8
358.15	1049.3	2.8
363.15	1046.5	2.8

System: 1-butyl-3-methylimidazolium chloride; phases: Liquid
Fixed: Pressure, kPa = 102
Property: Viscosity, Pa*s (Liquid); method: Concentric cylinders viscometry
Temperature, K	Viscosity, Pa*s	uncertainty
343.15	0.2567	0.0265
348.15	0.1894	0.0194
353.15	0.1427	0.0146
358.15	0.1096	0.0111
363.15	0.08565	0.00868

System: 1-butyl-3-methylimidazolium nitrate + 1-butyl-3-methylimidazolium methanesulfonate; phases: Liquid, Crystal
Fixed: Pressure, kPa = 102
Property: Solid-liquid equilibrium temperature, K (Liquid); method: DTA
Mole fraction of 1-butyl-3-methylimidazolium nitrate	Solid-liquid equilibrium temperature, K	uncertainty
0.1	345	6
0.2	344	6
0.3	331	6
0.4	327	6
0.5	325	6
0.6	315	6
0.8	309	6
0.9	303	6

System: 1-butyl-3-methylimidazolium nitrate + 1-butyl-3-methylimidazolium methanesulfonate; phases: Liquid
Fixed: Pressure, kPa = 102
Property: Mass density, kg/m3 (Liquid); method: Vibrating tube method
Temperature, K	Mole fraction of 1-butyl-3-methylimidazolium nitrate	Mass density, kg/m3	uncertainty
348.15	0.1	1138.3	2.5
353.15	0.1	1135.2	2.5
358.15	0.1	1132	2.5
363.15	0.1	1128.9	2.5
348.15	0.2	1136.8	2.5
353.15	0.2	1133.6	2.5
358.15	0.2	1130.5	2.5
363.15	0.2	1127.4	2.5
333.15	0.3	1144.9	2.6
338.15	0.3	1141.8	2.6
343.15	0.3	1138.6	2.6
348.15	0.3	1135.5	2.6
353.15	0.3	1132.4	2.6
358.15	0.3	1129.3	2.5
363.15	0.3	1126.2	2.5
328.15	0.4	1146.9	2.6
333.15	0.4	1143.8	2.6
338.15	0.4	1140.6	2.6
343.15	0.4	1137.5	2.6
348.15	0.4	1134.4	2.6
353.15	0.4	1131.3	2.6
358.15	0.4	1128.2	2.6
363.15	0.4	1125.1	2.6
328.15	0.5	1145.4	2.6
333.15	0.5	1142.2	2.6
338.15	0.5	1139.1	2.6
343.15	0.5	1136	2.6
348.15	0.5	1132.9	2.6
353.15	0.5	1129.8	2.6
358.15	0.5	1126.8	2.6
363.15	0.5	1123.7	2.6
318.15	0.6	1150.5	2.7
323.15	0.6	1147.3	2.7
328.15	0.6	1144.1	2.7
333.15	0.6	1141	2.7
338.15	0.6	1137.9	2.6
343.15	0.6	1134.8	2.6
348.15	0.6	1131.7	2.6
353.15	0.6	1128.6	2.6
358.15	0.6	1125.6	2.6
363.15	0.6	1122.5	2.6
318.15	0.7	1148.5	2.7
323.15	0.7	1145.4	2.7
328.15	0.7	1142.2	2.7
333.15	0.7	1139.1	2.7
338.15	0.7	1136	2.7
343.15	0.7	1132.9	2.7
348.15	0.7	1129.9	2.7
353.15	0.7	1126.8	2.6
358.15	0.7	1123.8	2.6
363.15	0.7	1120.7	2.6
313.15	0.8	1149.3	2.7
318.15	0.8	1146.2	2.7
323.15	0.8	1143	2.7
328.15	0.8	1139.9	2.7
333.15	0.8	1136.8	2.7
338.15	0.8	1133.7	2.7
343.15	0.8	1130.6	2.7
348.15	0.8	1127.6	2.7
353.15	0.8	1124.5	2.7
358.15	0.8	1121.5	2.7
363.15	0.8	1118.5	2.6
303.15	0.9	1154.3	2.8
308.15	0.9	1151.1	2.8
313.15	0.9	1147.9	2.8
318.15	0.9	1144.7	2.8
323.15	0.9	1141.6	2.8
328.15	0.9	1138.5	2.7
333.15	0.9	1135.4	2.7
338.15	0.9	1132.3	2.7
343.15	0.9	1129.3	2.7
348.15	0.9	1126.2	2.7
353.15	0.9	1123.2	2.7
358.15	0.9	1120.2	2.7
363.15	0.9	1117.2	2.7

System: 1-butyl-3-methylimidazolium nitrate + 1-butyl-3-methylimidazolium methanesulfonate; phases: Liquid
Fixed: Pressure, kPa = 102
Property: Viscosity, Pa*s (Liquid); method: Concentric cylinders viscometry
Temperature, K	Mole fraction of 1-butyl-3-methylimidazolium nitrate	Viscosity, Pa*s	uncertainty
348.15	0.1	0.03498	0.00352
353.15	0.1	0.02938	0.00296
358.15	0.1	0.02494	0.00251
363.15	0.1	0.02139	0.00215
348.15	0.2	0.0345	0.00347
353.15	0.2	0.02904	0.00292
358.15	0.2	0.02471	0.00249
363.15	0.2	0.02127	0.00214
333.15	0.3	0.05913	0.00595
338.15	0.3	0.04804	0.00484
343.15	0.3	0.03958	0.00399
348.15	0.3	0.03303	0.00333
353.15	0.3	0.02788	0.00281
358.15	0.3	0.02379	0.00239
363.15	0.3	0.02051	0.00206
328.15	0.4	0.07076	0.00713
333.15	0.4	0.05685	0.00572
338.15	0.4	0.04637	0.00467
343.15	0.4	0.03834	0.00386
348.15	0.4	0.0321	0.00323
353.15	0.4	0.02717	0.00274
358.15	0.4	0.02323	0.00234
363.15	0.4	0.02004	0.00202
328.15	0.5	0.06657	0.00671
333.15	0.5	0.0537	0.00541
338.15	0.5	0.04399	0.00443
343.15	0.5	0.03652	0.00368
348.15	0.5	0.03069	0.00309
353.15	0.5	0.02608	0.00263
358.15	0.5	0.02238	0.00225
363.15	0.5	0.01936	0.00195
318.15	0.6	0.103	0.0104
323.15	0.6	0.0807	0.00815
328.15	0.6	0.06437	0.00649
333.15	0.6	0.05218	0.00526
338.15	0.6	0.0429	0.00432
343.15	0.6	0.03574	0.0036
348.15	0.6	0.03013	0.00303
353.15	0.6	0.02568	0.00259
358.15	0.6	0.02209	0.00222
363.15	0.6	0.01918	0.00193
318.15	0.7	0.09785	0.0099
323.15	0.7	0.07705	0.00778
328.15	0.7	0.06172	0.00623
333.15	0.7	0.05022	0.00506
338.15	0.7	0.04144	0.00418
343.15	0.7	0.03463	0.00349
348.15	0.7	0.02928	0.00295
353.15	0.7	0.02502	0.00252
358.15	0.7	0.02157	0.00217
363.15	0.7	0.01876	0.00189
313.15	0.8	0.1136	0.0115
318.15	0.8	0.08838	0.00895
323.15	0.8	0.07003	0.00708
328.15	0.8	0.05642	0.0057
333.15	0.8	0.04614	0.00466
338.15	0.8	0.03825	0.00386
343.15	0.8	0.03211	0.00324
348.15	0.8	0.02725	0.00275
353.15	0.8	0.02336	0.00236
358.15	0.8	0.02021	0.00204
363.15	0.8	0.01763	0.00178
303.15	0.9	0.1801	0.0184
308.15	0.9	0.1354	0.0138
313.15	0.9	0.104	0.0105
318.15	0.9	0.08149	0.00824
323.15	0.9	0.06496	0.00656
328.15	0.9	0.05261	0.00531
333.15	0.9	0.04323	0.00436
338.15	0.9	0.03599	0.00363
343.15	0.9	0.03032	0.00306
348.15	0.9	0.02581	0.0026
353.15	0.9	0.0222	0.00224
358.15	0.9	0.01926	0.00194
363.15	0.9	0.01686	0.0017

System: 1-butyl-3-methylimidazolium nitrate + 1-butyl-3-methylimidazolium chloride; phases: Liquid, Crystal
Fixed: Pressure, kPa = 102
Property: Solid-liquid equilibrium temperature, K (Liquid); method: DTA
Mole fraction of 1-butyl-3-methylimidazolium nitrate	Solid-liquid equilibrium temperature, K	uncertainty
0.1	324	6
0.2	322	6
0.3	325	6
0.4	315	6
0.5	313	6
0.6	313	6
0.7	312	6

System: 1-butyl-3-methylimidazolium nitrate + 1-butyl-3-methylimidazolium chloride; phases: Liquid, Crystal 1
Property: Solid-liquid equilibrium temperature, K (Liquid); method: DTA
Mole fraction of 1-butyl-3-methylimidazolium nitrate	Pressure, kPa	Solid-liquid equilibrium temperature, K	uncertainty
0.95	102	305	6

System: 1-butyl-3-methylimidazolium nitrate + 1-butyl-3-methylimidazolium chloride; phases: Liquid, Crystal, Crystal 1
Property: Eutectic temperature, K (Liquid); method: DTA
Pressure, kPa	Eutectic temperature, K	uncertainty
102	302	6

System: 1-butyl-3-methylimidazolium nitrate + 1-butyl-3-methylimidazolium chloride; phases: Liquid
Fixed: Pressure, kPa = 102
Property: Mass density, kg/m3 (Liquid); method: Vibrating tube method
Temperature, K	Mole fraction of 1-butyl-3-methylimidazolium nitrate	Mass density, kg/m3	uncertainty
333.15	0.1	1070.3	2.9
338.15	0.1	1067.5	2.9
343.15	0.1	1064.8	2.9
348.15	0.1	1062.1	2.9
353.15	0.1	1059.3	2.9
358.15	0.1	1056.6	2.9
363.15	0.1	1053.8	2.9
328.15	0.2	1080.2	2.9
333.15	0.2	1077.3	2.9
338.15	0.2	1074.4	2.9
343.15	0.2	1071.6	2.9
348.15	0.2	1068.8	2.9
353.15	0.2	1065.9	2.9
358.15	0.2	1063.1	2.9
363.15	0.2	1060.4	2.9
323.15	0.4	1097.9	2.9
328.15	0.4	1095	2.9
333.15	0.4	1092	2.9
338.15	0.4	1089.1	2.9
343.15	0.4	1086.2	2.9
348.15	0.4	1083.3	2.9
353.15	0.4	1080.5	2.8
358.15	0.4	1077.6	2.8
363.15	0.4	1074.8	2.8
313.15	0.5	1109.6	2.9
318.15	0.5	1106.6	2.9
323.15	0.5	1103.7	2.9
328.15	0.5	1100.8	2.9
333.15	0.5	1097.9	2.9
338.15	0.5	1095	2.9
343.15	0.5	1092.1	2.8
348.15	0.5	1089.2	2.8
353.15	0.5	1086.4	2.8
358.15	0.5	1083.5	2.8
363.15	0.5	1080.6	2.8
313.15	0.6	1116.9	2.9
318.15	0.6	1113.9	2.9
323.15	0.6	1110.9	2.9
328.15	0.6	1107.9	2.9
333.15	0.6	1104.9	2.9
338.15	0.6	1101.9	2.8
343.15	0.6	1099	2.8
348.15	0.6	1096.1	2.8
353.15	0.6	1093.2	2.8
358.15	0.6	1090.3	2.8
363.15	0.6	1087.4	2.8
298.15	0.8	1139.9	2.9
303.15	0.8	1136.8	2.9
308.15	0.8	1133.7	2.9
313.15	0.8	1130.6	2.9
318.15	0.8	1127.6	2.9
323.15	0.8	1124.6	2.9
328.15	0.8	1121.6	2.8
333.15	0.8	1118.6	2.8
338.15	0.8	1115.7	2.8
343.15	0.8	1112.7	2.8
348.15	0.8	1109.7	2.8
353.15	0.8	1106.8	2.8
358.15	0.8	1103.8	2.8
363.15	0.8	1100.9	2.8

System: 1-butyl-3-methylimidazolium nitrate + 1-butyl-3-methylimidazolium chloride; phases: Liquid
Fixed: Pressure, kPa = 102
Property: Viscosity, Pa*s (Liquid); method: Concentric cylinders viscometry
Temperature, K	Mole fraction of 1-butyl-3-methylimidazolium nitrate	Viscosity, Pa*s	uncertainty
333.15	0.1	0.3784	0.0407
338.15	0.1	0.2718	0.0291
343.15	0.1	0.1999	0.0212
348.15	0.1	0.1501	0.0157
353.15	0.1	0.115	0.012
358.15	0.1	0.08962	0.00928
363.15	0.1	0.07103	0.0073
318.15	0.2	0.7213	0.0772
323.15	0.2	0.4956	0.0531
328.15	0.2	0.3499	0.037
333.15	0.2	0.2534	0.0268
338.15	0.2	0.1876	0.0196
343.15	0.2	0.1419	0.0147
348.15	0.2	0.1093	0.0113
353.15	0.2	0.08568	0.00881
358.15	0.2	0.06825	0.00699
363.15	0.2	0.05517	0.00564
323.15	0.4	0.2598	0.028
328.15	0.4	0.1913	0.0204
333.15	0.4	0.144	0.0152
338.15	0.4	0.1106	0.0116
343.15	0.4	0.08647	0.00897
348.15	0.4	0.06873	0.0071
353.15	0.4	0.05546	0.00571
358.15	0.4	0.04537	0.00466
363.15	0.4	0.0376	0.00385
313.15	0.5	0.3651	0.0386
318.15	0.5	0.2627	0.0277
323.15	0.5	0.1937	0.0203
328.15	0.5	0.1459	0.0152
333.15	0.5	0.112	0.0116
338.15	0.5	0.08765	0.00901
343.15	0.5	0.0697	0.00714
348.15	0.5	0.05625	0.00575
353.15	0.5	0.04603	0.0047
358.15	0.5	0.03816	0.00389
363.15	0.5	0.03202	0.00326
313.15	0.6	0.2754	0.029
318.15	0.6	0.2015	0.021
323.15	0.6	0.1508	0.0156
328.15	0.6	0.1152	0.0119
333.15	0.6	0.08966	0.00919
338.15	0.6	0.07102	0.00726
343.15	0.6	0.05714	0.00583
348.15	0.6	0.04663	0.00475
353.15	0.6	0.03855	0.00393
358.15	0.6	0.03227	0.00328
363.15	0.6	0.02732	0.00278
298.15	0.8	0.3736	0.0397
303.15	0.8	0.2664	0.0283
308.15	0.8	0.1949	0.0206
313.15	0.8	0.146	0.0157
318.15	0.8	0.1117	0.0118
323.15	0.8	0.0871	0.00914
328.15	0.8	0.06909	0.0072
333.15	0.8	0.05568	0.00577
338.15	0.8	0.04553	0.0047
343.15	0.8	0.03772	0.00388
348.15	0.8	0.03162	0.00324
353.15	0.8	0.02681	0.00274
358.15	0.8	0.02296	0.00234
363.15	0.8	0.01987	0.00203

System: 1-butyl-3-methylimidazolium methanesulfonate + 1-butyl-3-methylimidazolium chloride; phases: Liquid, Crystal
Fixed: Pressure, kPa = 102
Property: Solid-liquid equilibrium temperature, K (Liquid); method: DTA
Mole fraction of 1-butyl-3-methylimidazolium methanesulfonate	Solid-liquid equilibrium temperature, K	uncertainty
0.1	333	6
0.2	326	6
0.3	319	6

System: 1-butyl-3-methylimidazolium methanesulfonate + 1-butyl-3-methylimidazolium chloride; phases: Liquid, Crystal 1
Fixed: Pressure, kPa = 102
Property: Solid-liquid equilibrium temperature, K (Liquid); method: DTA
Mole fraction of 1-butyl-3-methylimidazolium methanesulfonate	Solid-liquid equilibrium temperature, K	uncertainty
0.35	321	6
0.4	322	6
0.45	321	6
0.5	321	6
0.6	331	6
0.7	336	6
0.8	339	6
0.9	345	6

System: 1-butyl-3-methylimidazolium methanesulfonate + 1-butyl-3-methylimidazolium chloride; phases: Liquid
Fixed: Pressure, kPa = 102
Property: Mass density, kg/m3 (Liquid); method: Vibrating tube method
Temperature, K	Mole fraction of 1-butyl-3-methylimidazolium methanesulfonate	Mass density, kg/m3	uncertainty
328.15	0.1	1076.7	3
333.15	0.1	1074	2.9
338.15	0.1	1071.4	2.9
343.15	0.1	1068.7	2.9
348.15	0.1	1066.1	2.9
353.15	0.1	1063.5	2.9
358.15	0.1	1060.9	2.9
363.15	0.1	1058.2	2.9
328.15	0.2	1086.1	2.9
333.15	0.2	1083.4	2.9
338.15	0.2	1080.7	2.9
343.15	0.2	1078	2.9
348.15	0.2	1075.4	2.9
353.15	0.2	1072.8	2.9
358.15	0.2	1070.1	2.9
363.15	0.2	1067.3	2.8
323.15	0.3	1098.9	2.8
328.15	0.3	1096.1	2.9
333.15	0.3	1093.3	2.8
338.15	0.3	1090.6	2.8
343.15	0.3	1087.9	2.8
348.15	0.3	1085.2	2.8
353.15	0.3	1082.5	2.8
358.15	0.3	1079.8	2.8
363.15	0.3	1077	2.8
323.15	0.4	1106.3	2.8
328.15	0.4	1103.4	2.8
333.15	0.4	1100.6	2.8
338.15	0.4	1097.9	2.8
343.15	0.4	1095.2	2.8
348.15	0.4	1092.5	2.8
353.15	0.4	1089.7	2.8
358.15	0.4	1086.9	2.8
363.15	0.4	1084.1	2.7
323.15	0.5	1116.6	2.8
328.15	0.5	1113.7	2.8
333.15	0.5	1110.9	2.8
338.15	0.5	1108.1	2.8
343.15	0.5	1105.3	2.8
348.15	0.5	1102.6	2.8
353.15	0.5	1099.8	2.7
358.15	0.5	1097	2.7
363.15	0.5	1094.1	2.7
333.15	0.6	1119.1	2.7
338.15	0.6	1116.3	2.7
343.15	0.6	1113.5	2.7
348.15	0.6	1110.7	2.7
353.15	0.6	1107.9	2.7
358.15	0.6	1105	2.7
363.15	0.6	1102.1	2.7
338.15	0.7	1124.3	2.7
343.15	0.7	1121.5	2.7
348.15	0.7	1118.6	2.7
353.15	0.7	1115.7	2.7
358.15	0.7	1112.8	2.6
363.15	0.7	1109.9	2.6
343.15	0.8	1129.7	2.6
348.15	0.8	1126.8	2.6
353.15	0.8	1123.9	2.6
358.15	0.8	1120.9	2.6
363.15	0.8	1117.9	2.6
348.15	0.9	1134.4	2.6
353.15	0.9	1131.4	2.6
358.15	0.9	1128.4	2.6
363.15	0.9	1125.3	2.6

System: 1-butyl-3-methylimidazolium methanesulfonate + 1-butyl-3-methylimidazolium chloride; phases: Liquid
Fixed: Pressure, kPa = 102
Property: Viscosity, Pa*s (Liquid); method: Concentric cylinders viscometry
Temperature, K	Mole fraction of 1-butyl-3-methylimidazolium methanesulfonate	Viscosity, Pa*s	uncertainty
328.15	0.1	0.4905	0.0517
333.15	0.1	0.3463	0.0363
338.15	0.1	0.2507	0.026
343.15	0.1	0.1856	0.0191
348.15	0.1	0.1403	0.0144
353.15	0.1	0.1081	0.011
358.15	0.1	0.08467	0.00861
363.15	0.1	0.06742	0.00683
328.15	0.2	0.4283	0.0455
333.15	0.2	0.3046	0.032
338.15	0.2	0.222	0.0231
343.15	0.2	0.1654	0.0171
348.15	0.2	0.1258	0.0129
353.15	0.2	0.0975	0.00998
358.15	0.2	0.07685	0.00784
363.15	0.2	0.06154	0.00627
323.15	0.3	0.3882	0.0404
328.15	0.3	0.2782	0.0295
333.15	0.3	0.2042	0.0214
338.15	0.3	0.1532	0.0159
343.15	0.3	0.1172	0.0121
348.15	0.3	0.09136	0.00938
353.15	0.3	0.07239	0.00741
358.15	0.3	0.05823	0.00594
363.15	0.3	0.04751	0.00484
323.15	0.4	0.3655	0.0382
328.15	0.4	0.2618	0.0271
333.15	0.4	0.1922	0.0198
338.15	0.4	0.1443	0.0148
343.15	0.4	0.1105	0.0113
348.15	0.4	0.08621	0.00876
353.15	0.4	0.0684	0.00694
358.15	0.4	0.05511	0.00558
363.15	0.4	0.04504	0.00456
323.15	0.5	0.2671	0.0286
328.15	0.5	0.1956	0.0205
333.15	0.5	0.1465	0.0151
338.15	0.5	0.1121	0.0115
343.15	0.5	0.08731	0.00892
348.15	0.5	0.06919	0.00705
353.15	0.5	0.0557	0.00566
358.15	0.5	0.04547	0.00462
363.15	0.5	0.03762	0.00382
333.15	0.6	0.128	0.0131
338.15	0.6	0.09876	0.01005
343.15	0.6	0.07762	0.00788
348.15	0.6	0.06201	0.00628
353.15	0.6	0.05028	0.00509
358.15	0.6	0.04133	0.00418
363.15	0.6	0.03441	0.00348
338.15	0.7	0.08297	0.00846
343.15	0.7	0.06589	0.00669
348.15	0.7	0.05315	0.00539
353.15	0.7	0.04348	0.00441
358.15	0.7	0.03603	0.00365
363.15	0.7	0.03022	0.00306
343.15	0.8	0.05684	0.00577
348.15	0.8	0.04631	0.00469
353.15	0.8	0.03824	0.00387
358.15	0.8	0.03196	0.00323
363.15	0.8	0.02702	0.00273
348.15	0.9	0.03965	0.00402
353.15	0.9	0.03304	0.00335
358.15	0.9	0.02785	0.00282
363.15	0.9	0.02372	0.0024
