Measured thermophysical data. The Volumetric Properties of Carbonyl Sulfide and Carbon Dioxide Mixtures from T = 322 to 393 K and p = 2.5 to 35 MPa: Application to COS Hydrolysis in Subsurface Injectate Streams
Source: J. Chem. Eng. Data, 2016, 10.1021/acs.jced.5b01061
Compound 1: carbon dioxide, CO2, InChI=1S/CO2/c2-1-3, purity 99.9995%
Compound 2: carbonyl sulfide, COS, InChI=1S/COS/c2-1-3, purity 99.9%

System: carbon dioxide + carbonyl sulfide; phases: Fluid (supercritical or subcritical phases)
Fixed: Molality, mol/kg of carbonyl sulfide = 0.63956
Property: Mass density, kg/m3 (Fluid (supercritical or subcritical phases)); method: Vibrating tube method
Temperature, K	Pressure, kPa	Mass density, kg/m3	uncertainty
322.914	2455.1	45.52	0.06
322.914	2472.9	45.98	0.06
322.914	4975.8	105.73	0.09
322.914	4991.7	106.28	0.09
322.914	7461.2	196.64	0.17
322.914	7572.5	202.93	0.17
322.914	10031.9	414.68	0.38
322.914	10038.2	415.8	0.39
322.914	10650.3	492.55	0.43
322.914	10653.8	492.86	0.43
322.914	12430.2	625.76	0.36
322.914	14946.6	707.61	0.32
322.914	14982.2	708.34	0.32
322.914	17463.5	755.04	0.29
322.914	17481.5	755.2	0.29
322.914	19979.1	788.85	0.28
322.914	19980.8	788.81	0.28
322.914	22470	815.25	0.26
322.914	22502.5	815.6	0.26
322.914	24973.5	837.26	0.25
322.914	25015	837.69	0.25
322.914	27485.7	856.18	0.24
322.914	27514.7	856.5	0.24
322.914	29981.4	872.68	0.23
322.914	30011	872.99	0.23
322.914	32495.3	887.56	0.22
322.914	32522.7	887.84	0.22
322.914	35012.6	901.09	0.2
322.914	35038.2	901.32	0.2
346.591	2479.8	41.68	0.06
346.591	2493.3	41.88	0.06
346.591	4991	92.35	0.11
346.591	4993.4	92.43	0.09
346.591	7478.5	156.18	0.14
346.591	7532.4	156.36	0.15
346.591	10007.5	243.48	0.22
346.591	10008.9	244.17	0.22
346.591	12498.7	361.92	0.35
346.591	12515.6	362.86	0.35
346.591	14995.2	488.69	0.51
346.591	15012.4	489.5	0.51
346.591	17467.2	581.16	0.48
346.591	17493.6	582.01	0.48
346.591	19985.3	644.7	0.45
346.591	19990	644.82	0.45
346.591	22494.3	690.2	0.42
346.591	22497.5	690.16	0.42
346.591	25004.1	725.34	0.4
346.591	25016.3	725.41	0.4
346.591	27511.5	753.91	0.39
346.591	27527.4	754.03	0.39
346.591	30005.6	777.82	0.38
346.591	30027.3	778.01	0.38
346.591	32506.8	798.57	0.36
346.591	32527.9	798.74	0.36
346.591	35006.3	816.89	0.35
346.591	35030.2	817.07	0.35
369.926	2503.1	38.46	0.05
369.926	4980	82.32	0.08
369.926	7496.6	133.97	0.12
369.926	10014	196.59	0.18
369.926	12481.5	268.67	0.27
369.926	15031.6	352.24	0.37
369.926	17477.9	432.9	0.49
369.926	17488.7	433.22	0.49
369.926	19991.9	505.37	0.61
369.926	20003	505.6	0.61
369.926	22506	564.22	0.58
369.926	22515.8	564.32	0.58
369.926	25012.5	611.24	0.56
369.926	25022.7	611.37	0.56
369.926	27518.9	649.51	0.54
369.926	27530.8	649.65	0.54
369.926	30027.6	681.47	0.53
369.926	30034.9	681.49	0.53
369.926	32528.1	708.65	0.51
369.926	32539.3	708.69	0.51
369.926	35022.2	732.17	0.5
369.926	35029.7	732.34	0.5
393.25	2486.8	35.67	0.05
393.25	2490.8	35.62	0.05
393.25	4958.3	74.9	0.08
393.25	4968.9	75.22	0.08
393.25	7500	119.67	0.11
393.25	7519.5	120.17	0.11
393.25	10207.1	173.62	0.17
393.25	10207.1	173.42	0.17
393.25	12513.5	226.32	0.23
393.25	12515	226.09	0.23
393.25	15100.1	287.94	0.31
393.25	15140.4	289.14	0.41
393.25	17587	349.93	0.41
393.25	17589.4	349.77	0.41
393.25	20082.5	410.19	0.51
393.25	20084.9	410.01	0.51
393.25	22570.2	465.29	0.62
393.25	22572	465.06	0.62
393.25	25053.5	513.85	0.69
393.25	25054.1	513.59	0.69
393.25	27533.8	555.77	0.68
393.25	27535.8	555.55	0.68
393.25	30110.3	593.07	0.67
393.25	30111.8	593.33	0.67
393.25	32574.5	624.51	0.65
393.25	32575.6	624.26	0.65
393.25	35027	651.77	0.64
393.25	35027.8	651.5	0.64
