Measured thermophysical data. Excess Molar Volumes for Three and Four Component Mixtures Simulating the Binary Mixture (Cyclohexane+ Hexadecane)
Source: J. Chem. Eng. Data, 2015, 10.1021/acs.jced.5b00331
Compound 1: cyclohexane, C6H12, InChI=1S/C6H12/c1-2-4-6-5-3-1/h1-6H2, purity 99.9%
Compound 2: cyclopentane, C5H10, InChI=1S/C5H10/c1-2-4-5-3-1/h1-5H2, purity 99.8%
Compound 3: cycloheptane, C7H14, InChI=1S/C7H14/c1-2-4-6-7-5-3-1/h1-7H2, purity 99.8%
Compound 4: hexadecane, C16H34, InChI=1S/C16H34/c1-3-5-7-9-11-13-15-16-14-12-10-8-6-4-2/h3-16H2,1-2H3, purity 99.4%
Compound 5: tetradecane, C14H30, InChI=1S/C14H30/c1-3-5-7-9-11-13-14-12-10-8-6-4-2/h3-14H2,1-2H3, purity 99.6%
Compound 6: octadecane, C18H38, InChI=1S/C18H38/c1-3-5-7-9-11-13-15-17-18-16-14-12-10-8-6-4-2/h3-18H2,1-2H3, purity 98.9%
Compound 7: decane, C10H22, InChI=1S/C10H22/c1-3-5-7-9-10-8-6-4-2/h3-10H2,1-2H3, purity 99.9%
Compound 8: docosane, C22H46, InChI=1S/C22H46/c1-3-5-7-9-11-13-15-17-19-21-22-20-18-16-14-12-10-8-6-4-2/h3-22H2,1-2H3, purity 99.7%
Compound 9: tetracosane, C24H50, InChI=1S/C24H50/c1-3-5-7-9-11-13-15-17-19-21-23-24-22-20-18-16-14-12-10-8-6-4-2/h3-24H2,1-2H3, purity 99.7%
Compound 10: octane, C8H18, InChI=1S/C8H18/c1-3-5-7-8-6-4-2/h3-8H2,1-2H3, purity 98%

System: cyclohexane; phases: Liquid
Property: Mass density, kg/m3 (Liquid); method: Vibrating tube method
Temperature, K	Pressure, kPa	Mass density, kg/m3	uncertainty
313.15	101.325	759.8	0.2

System: hexadecane; phases: Liquid
Property: Mass density, kg/m3 (Liquid); method: Vibrating tube method
Temperature, K	Pressure, kPa	Mass density, kg/m3	uncertainty
313.15	101.325	762.9	0.3

System: cyclopentane + cycloheptane; phases: Liquid
Property: Mass density, kg/m3 (Liquid); method: Vibrating tube method
Mole fraction of cyclopentane	Pressure, kPa	Temperature, K	Mass density, kg/m3	uncertainty
0.4999	101	313.15	762.9	0.2

System: octadecane + tetradecane; phases: Liquid
Property: Mass density, kg/m3 (Liquid); method: Vibrating tube method
Mole fraction of tetradecane	Pressure, kPa	Temperature, K	Mass density, kg/m3	uncertainty
0.5001	101	313.15	758.4	0.2

System: decane + docosane; phases: Liquid
Property: Mass density, kg/m3 (Liquid); method: Vibrating tube method
Mole fraction of decane	Pressure, kPa	Temperature, K	Mass density, kg/m3	uncertainty
0.5001	101	313.15	758.9	0.2

System: octane + tetracosane; phases: Liquid
Fixed: Mole fraction of octane = 0.5
Fixed: Pressure, kPa = 101
Property: Mass density, kg/m3 (Liquid); method: Vibrating tube method
Temperature, K	Mass density, kg/m3	uncertainty
315.65	757.1	0.3
313.15	758.8	0.3

System: cyclohexane + hexadecane; phases: Liquid
Fixed: Pressure, kPa = 101
Fixed: Temperature, K = 313.15
Property: Excess molar volume, m3/mol (Liquid); method: Direct dilatometry
Mole fraction of cyclohexane	Excess molar volume, m3/mol	uncertainty
0.0083	1.32e-08	2.8e-09
0.03441	5.31e-08	2.9e-09
0.0839	1.341e-07	3.1e-09
0.1372	2.074e-07	3.8e-09
0.2221	3.185e-07	5.1e-09
0.3029	4.088e-07	6.6e-09
0.3641	4.671e-07	7.7e-09
0.4199	5.136e-07	8.8e-09
0.4911	5.593e-07	1.01e-08
0.5316	5.779e-07	9.7e-09
0.5632	5.878e-07	9.2e-09
0.59	5.938e-07	8.6e-09
0.6216	5.968e-07	8e-09
0.6527	5.956e-07	7.4e-09
0.6834	5.888e-07	6.9e-09
0.7073	5.731e-07	6.3e-09
0.7163	5.728e-07	6.1e-09
0.7223	5.731e-07	6.1e-09
0.7489	5.558e-07	6.1e-09
0.7508	5.513e-07	6.1e-09
0.7749	5.318e-07	5.3e-09
0.8022	5.039e-07	4.8e-09
0.8303	4.675e-07	4.5e-09
0.8736	3.939e-07	4e-09
0.8928	3.535e-07	3.9e-09
0.9106	3.105e-07	3.9e-09
0.9242	2.747e-07	4e-09
0.9453	2.13e-07	4e-09
0.9634	1.518e-07	4.4e-09
0.9801	8.6e-08	4.7e-09
0.988	5.32e-08	4.9e-09
0.9948	2.3e-08	5e-09

System: cyclohexane + octadecane + tetradecane; phases: Liquid
Fixed: Temperature, K = 313.15
Fixed: Pressure, kPa = 101
Property: Excess molar volume, m3/mol (Liquid); method: Direct dilatometry
Mole fraction of tetradecane	Mole fraction of cyclohexane	Excess molar volume, m3/mol	uncertainty
0.4942	0.0117	1.88e-08	3.8e-09
0.4791	0.042	6.48e-08	3.9e-09
0.4489	0.1024	1.522e-07	4.1e-09
0.4334	0.1334	1.948e-07	4.4e-09
0.3904	0.2193	3.074e-07	5.6e-09
0.3409	0.3183	4.172e-07	7e-09
0.3021	0.3959	4.871e-07	8.4e-09
0.2679	0.4643	5.364e-07	9.7e-09
0.2368	0.5264	5.687e-07	9.8e-09
0.2171	0.5659	5.815e-07	6.17e-08
0.1976	0.6048	5.887e-07	8.3e-09
0.1788	0.6424	5.888e-07	7.6e-09
0.1603	0.6795	5.828e-07	6.9e-09
0.1463	0.7074	5.729e-07	6.6e-09
0.1452	0.7096	5.712e-07	6.5e-09
0.1335	0.7331	5.597e-07	6.1e-09
0.1314	0.7372	5.567e-07	6e-09
0.1256	0.7489	5.496e-07	5.7e-09
0.1186	0.7629	5.383e-07	5.6e-09
0.1058	0.7884	5.152e-07	5.4e-09
0.0933	0.8134	4.868e-07	5e-09
0.0804	0.8393	4.498e-07	5.2e-09
0.0713	0.8574	4.206e-07	5.3e-09
0.0641	0.8718	3.941e-07	5.1e-09
0.0541	0.8918	3.529e-07	5.2e-09
0.0399	0.9202	2.833e-07	6.4e-09
0.0296	0.9408	2.242e-07	7.1e-09
0.0204	0.9592	1.637e-07	7e-09
0.0111	0.9778	9.13e-08	8.7e-09
0.0067	0.9866	5.45e-08	8.5e-09
0.003	0.9941	2.43e-08	8.5e-09
0.0003	0.9994	2.1e-09	3.4e-09

System: cyclohexane + decane + docosane; phases: Liquid
Fixed: Temperature, K = 315.15
Fixed: Pressure, kPa = 101
Property: Excess molar volume, m3/mol (Liquid); method: Direct dilatometry
Mole fraction of docosane	Mole fraction of cyclohexane	Excess molar volume, m3/mol	uncertainty
0.0117	0.4942	1.88e-08	2.8e-09
0.042	0.4791	6.48e-08	2.8e-09
0.1024	0.4489	1.522e-07	3.3e-09
0.1334	0.4334	1.948e-07	3.8e-09
0.2193	0.3904	3.074e-07	5.1e-09
0.3183	0.3409	4.172e-07	6.9e-09
0.3959	0.3021	4.871e-07	8.3e-09
0.4643	0.2679	5.364e-07	9.6e-09
0.5264	0.2368	5.687e-07	9.8e-09
0.5659	0.2171	5.815e-07	6.17e-08
0.6048	0.1976	5.887e-07	8.3e-09
0.6424	0.1788	5.888e-07	7.6e-09
0.6795	0.1603	5.828e-07	6.9e-09
0.7074	0.1463	5.729e-07	6.4e-09
0.7096	0.1452	5.712e-07	6.4e-09
0.7331	0.1335	5.597e-07	5.9e-09
0.7372	0.1314	5.567e-07	5.9e-09
0.7489	0.1256	5.496e-07	5.6e-09
0.7629	0.1186	5.383e-07	5.4e-09
0.7884	0.1058	5.152e-07	5e-09
0.8134	0.0933	4.868e-07	4.6e-09
0.8393	0.0804	4.498e-07	4.4e-09
0.8574	0.0713	4.206e-07	4.2e-09
0.8718	0.0641	3.941e-07	4e-09
0.8918	0.0541	3.529e-07	3.8e-09
0.9202	0.0399	2.833e-07	4e-09
0.9408	0.0296	2.242e-07	4.2e-09
0.9592	0.0204	1.637e-07	4.1e-09
0.9778	0.0111	9.13e-08	4.8e-09
0.9866	0.0067	5.45e-08	4.7e-09
0.9941	0.003	2.43e-08	4.8e-09
0.9994	0.0003	2.1e-09	3.4e-09

System: cyclohexane + octane + tetracosane; phases: Liquid
Fixed: Temperature, K = 315.65
Fixed: Pressure, kPa = 101
Property: Excess molar volume, m3/mol (Liquid); method: Direct dilatometry
Mole fraction of octane	Mole fraction of cyclohexane	Excess molar volume, m3/mol	uncertainty
0.4916	0.0169	3.49e-08	3.7e-09
0.4771	0.0459	7.68e-08	3.7e-09
0.4505	0.0991	1.488e-07	4e-09
0.4284	0.1432	2.072e-07	4.5e-09
0.3846	0.2309	3.191e-07	5.8e-09
0.3368	0.3265	4.221e-07	7.2e-09
0.2915	0.4171	5.009e-07	8.8e-09
0.2572	0.4856	5.455e-07	1.01e-08
0.2246	0.5509	5.754e-07	9.3e-09
0.2047	0.5906	5.86e-07	8.6e-09
0.1838	0.6325	5.893e-07	7.8e-09
0.1665	0.667	5.863e-07	7.1e-09
0.1541	0.6919	5.794e-07	6.7e-09
0.145	0.71	5.724e-07	7.3e-09
0.1406	0.7188	5.565e-07	7.1e-09
0.1324	0.7352	5.611e-07	6.9e-09
0.1267	0.7466	5.399e-07	7.7e-09
0.1244	0.7512	5.52e-07	7.7e-09
0.1141	0.7719	5.211e-07	1.326e-07
0.1037	0.7926	5.02e-07	5.2e-09
0.0927	0.8146	4.775e-07	5e-09
0.0808	0.8385	4.458e-07	7.52e-08
0.0692	0.8616	4.085e-07	4.9e-09
0.0568	0.8864	3.612e-07	5.5e-09
0.05	0.9	3.311e-07	5.4e-09
0.0376	0.9248	2.691e-07	6.5e-09
0.026	0.9481	2.007e-07	7.4e-09
0.0147	0.9707	1.225e-07	8.3e-09
0.0071	0.9859	6.18e-08	8.4e-09
0.0051	0.9898	4.56e-08	8.8e-09
0.0032	0.9935	2.94e-08	8.8e-09

System: cyclopentane + cycloheptane + hexadecane; phases: Liquid
Fixed: Pressure, kPa = 101
Fixed: Temperature, K = 315.15
Property: Excess molar volume, m3/mol (Liquid); method: Direct dilatometry
Mole fraction of hexadecane	Mole fraction of cyclopentane	Excess molar volume, m3/mol	uncertainty
0.9949	0.0025	8e-10	2.5e-09
0.9695	0.0152	2.11e-08	2.5e-09
0.9343	0.0328	5.61e-08	2.7e-09
0.8919	0.054	9.51e-08	3.2e-09
0.8584	0.0708	1.232e-07	3.7e-09
0.7774	0.1113	1.88e-07	5e-09
0.7119	0.144	2.297e-07	6.2e-09
0.6429	0.1785	2.669e-07	7.5e-09
0.59	0.205	2.889e-07	5.53e-08
0.5371	0.2314	3.06e-07	9.6e-09
0.4905	0.2547	3.164e-07	1.01e-08
0.4538	0.273	3.218e-07	9.4e-09
0.4085	0.2957	3.227e-07	8.5e-09
0.3649	0.3175	3.186e-07	7.7e-09
0.3219	0.339	3.115e-07	6.9e-09
0.2915	0.3542	2.999e-07	6.3e-09
0.2908	0.3545	2.992e-07	6.3e-09
0.2703	0.3648	2.915e-07	5.9e-09
0.2601	0.3699	2.853e-07	5.7e-09
0.2501	0.3749	2.819e-07	5.5e-09
0.2011	0.3994	2.495e-07	4.7e-09
0.1702	0.4148	2.25e-07	4.2e-09
0.1351	0.4324	1.924e-07	3.7e-09
0.1047	0.4476	1.596e-07	3.3e-09
0.0757	0.4621	1.228e-07	3e-09
0.0472	0.4763	8.16e-08	2.9e-09
0.035	0.4824	6.23e-08	2.9e-09
0.0215	0.4892	3.81e-08	4.7e-09
0.0169	0.4915	1.95e-08	4.7e-09
0.0063	0.4968	1.05e-08	2.9e-09
0.0026	0.4986	4.3e-09	2.9e-09
