Measured thermophysical data. Vapor Liquid Equilibrium for Methanol + Methyl Palmitate near the Critical Temperature of Methanol
Source: J. Chem. Eng. Data, 2016, 10.1021/acs.jced.5b00865
Compound 1: methanol, CH4O, InChI=1S/CH4O/c1-2/h2H,1H3, purity 97%
Compound 2: methyl hexadecanoate, C17H34O2, InChI=1S/C17H34O2/c1-3-4-5-6-7-8-9-10-11-12-13-14-15-16-17(18)19-2/h3-16H2,1-2H3, purity 99.7%

System: methanol + methyl hexadecanoate; phases: Gas, Liquid
Property: Vapor or sublimation pressure, kPa (Gas); method: Closed cell (Static) method
Temperature, K	Mole fraction of methanol	Vapor or sublimation pressure, kPa	uncertainty
493	0.3731	1860	60
493	0.4952	2490	70
493	0.6359	3120	90
493	0.7111	3760	120
493	0.804	4310	160
493	0.8889	4890	130
523	0.2952	1890	60
523	0.3851	2590	60
523	0.4395	3280	200
523	0.5953	4300	110
523	0.7252	5420	110
523	0.837	6660	120
543	0.3825	3070	60
543	0.5031	4360	120
543	0.6361	5500	130
543	0.7293	6460	120
543	0.8276	7560	100
543	0.8674	8810	220

System: methanol + methyl hexadecanoate; phases: Gas, Liquid
Property: Mole fraction of methanol (Gas); method: Chromatography
Temperature, K	Mole fraction of methanol	Mole fraction of methanol	uncertainty
493	0.3731	0.9977	0.0023
493	0.4952	0.9981	0.0019
493	0.6359	0.9974	0.0026
493	0.7111	0.9965	0.0035
493	0.804	0.9967	0.0033
493	0.8889	0.9977	0.0023
523	0.2952	0.99134	0.00866
523	0.3851	0.9928	0.0072
523	0.4395	0.9935	0.0065
523	0.5953	0.9942	0.0058
523	0.7252	0.9906	0.0094
523	0.837	0.9919	0.0081
543	0.3825	0.9893	0.0107
543	0.5031	0.99	0.01
543	0.6361	0.9867	0.0133
543	0.7293	0.9899	0.0101
543	0.8276	0.988	0.012
543	0.8674	0.9879	0.0121
