Measured thermophysical data. Experimental Determination and Modeling of Liquid-Liquid Equilibrium for Ternary Mixtures of Ethylene Glycol + 1,2-Butanediol + 3-Heptanone or Anisole
Source: J. Chem. Eng. Data, 2019, 10.1021/acs.jced.8b01257
Compound 1: 1,2-ethanediol, C2H6O2, InChI=1S/C2H6O2/c3-1-2-4/h3-4H,1-2H2, purity 99.5%
Compound 2: 1,2-butanediol, C4H10O2, InChI=1S/C4H10O2/c1-2-4(6)3-5/h4-6H,2-3H2,1H3, purity 98%
Compound 3: 3-heptanone, C7H14O, InChI=1S/C7H14O/c1-3-5-6-7(8)4-2/h3-6H2,1-2H3, purity 99%
Compound 4: anisole, C7H8O, InChI=1S/C7H8O/c1-8-7-5-3-2-4-6-7/h2-6H,1H3, purity 99%
Compound 5: toluene, C7H8, InChI=1S/C7H8/c1-7-5-3-2-4-6-7/h2-6H,1H3, purity 99.5%

System: 1,2-ethanediol + 1,2-butanediol + 3-heptanone; phases: Liquid mixture 2, Liquid mixture 1
Fixed: Pressure, kPa = 101.325
Property: Mole fraction of 1,2-butanediol (Liquid mixture 2); method: Chromatography
Property: Mole fraction of 1,2-butanediol (Liquid mixture 1); method: Chromatography
Property: Mole fraction of 1,2-ethanediol (Liquid mixture 1); method: Chromatography
Temperature, K	Mole fraction of 1,2-ethanediol	Mole fraction of 1,2-butanediol	uncertainty	Mole fraction of 1,2-butanediol	uncertainty	Mole fraction of 1,2-ethanediol	uncertainty
293.15	0.051	0.0086	0.0086	0.0444	0.0054	0.9231	
293.15	0.1083	0.0952	0.0068	0.2723	0.0048	0.6005	
293.15	0.1131	0.1019	0.006	0.2846	0.0048	0.5718	
293.15	0.1254	0.1142	0.0059	0.2921	0.0047	0.5505	
293.15	0.1286	0.1189	0.006	0.2947	0.0046	0.5376	
293.15	0.1386	0.1294	0.0057	0.3	0.0046	0.5187	
293.15	0.1514	0.1415	0.0056	0.3039	0.0046	0.4995	
293.15	0.1674	0.1564	0.0056	0.307	0.0046	0.4788	
303.15	0.0651	0.0155	0.0068	0.0726	0.0052	0.8866	
303.15	0.0675	0.0177	0.0079	0.08	0.0051	0.8773	
303.15	0.072	0.0249	0.0068	0.1056	0.0051	0.8445	
293.15	0.055	0.0164	0.0084	0.0799	0.0052	0.8834	
303.15	0.0804	0.0354	0.0061	0.1348	0.0047	0.8066	
303.15	0.0806	0.0354	0.0061	0.1415	0.0051	0.7972	
303.15	0.0857	0.0413	0.0059	0.1574	0.005	0.7759	
303.15	0.0944	0.0521	0.0069	0.1834	0.0049	0.7362	
303.15	0.0979	0.0566	0.0068	0.1933	0.0052	0.7219	
303.15	0.1034	0.0654	0.0064	0.2062	0.0047	0.7035	
303.15	0.1077	0.0676	0.0059	0.2112	0.0049	0.6889	
303.15	0.1147	0.077	0.006	0.2264	0.0049	0.667	
303.15	0.1261	0.0904	0.0054	0.2447	0.0047	0.6309	
303.15	0.1399	0.1008	0.0052	0.2537	0.0046	0.608	
293.15	0.059	0.0243	0.0085	0.1166	0.0051	0.8342	
303.15	0.1533	0.1134	0.0062	0.2635	0.0047	0.5813	
313.15	0.0764	0.0116	0.0062	0.0448	0.0051	0.9148	
313.15	0.1004	0.0403	0.0063	0.1297	0.0051	0.8046	
313.15	0.1097	0.0528	0.0064	0.1555	0.0049	0.7663	
313.15	0.1208	0.0658	0.0055	0.1804	0.0048	0.7257	
313.15	0.138	0.0799	0.0052	0.2011	0.0048	0.6903	
313.15	0.1451	0.0853	0.0053	0.206	0.0046	0.6794	
313.15	0.1591	0.0976	0.0055	0.2181	0.0046	0.6522	
313.15	0.1667	0.1057	0.0057	0.2259	0.0047	0.6287	
313.15	0.1782	0.1164	0.0055	0.2354	0.0046	0.6137	
293.15	0.0653	0.0354	0.0075	0.1522	0.0051	0.7868	
313.15	0.2304	0.1513	0.0049	0.2567	0.0046	0.5563	
293.15	0.0681	0.0404	0.0076	0.1719	0.0051	0.7615	
293.15	0.0735	0.0475	0.0069	0.191	0.005	0.7336	
293.15	0.0784	0.0549	0.0071	0.2095	0.005	0.7055	
293.15	0.0867	0.067	0.0067	0.2335	0.005	0.6668	
293.15	0.0976	0.0808	0.0066	0.2552	0.005	0.6333	

System: 1,2-ethanediol + 1,2-butanediol + anisole; phases: Liquid mixture 2, Liquid mixture 1
Fixed: Temperature, K = 303.15
Fixed: Pressure, kPa = 101.325
Property: Mole fraction of 1,2-ethanediol (Liquid mixture 2); method: Chromatography
Property: Mole fraction of 1,2-ethanediol (Liquid mixture 1); method: Chromatography
Property: Mole fraction of 1,2-butanediol (Liquid mixture 1); method: Chromatography
Mole fraction of 1,2-butanediol	Mole fraction of 1,2-ethanediol	uncertainty	Mole fraction of 1,2-ethanediol	uncertainty	Mole fraction of 1,2-butanediol	uncertainty
0.0482	0.8996	0.006	0.0103	0.004	0.0034	
0.128	0.8127	0.0062	0.0107	0.0041	0.0095	
0.1979	0.7282	0.0066	0.0125	0.0041	0.0165	
0.2198	0.6987	0.0068	0.0135	0.0041	0.0196	
0.2417	0.6726	0.0068	0.0134	0.0042	0.0218	
0.2764	0.6281	0.0072	0.0158	0.0041	0.0282	
0.2895	0.6079	0.0075	0.016	0.0041	0.0305	
0.306	0.586	0.0075	0.0165	0.004	0.0338	
0.3201	0.5644	0.0079	0.0172	0.004	0.0373	
0.3519	0.5161	0.008	0.0179	0.004	0.0449	
0.3681	0.4925	0.0079	0.0187	0.0041	0.0495	

System: toluene + 1,2-ethanediol; phases: Liquid mixture 1, Liquid mixture 2
Fixed: Pressure, kPa = 101.33
Property: Mole fraction of toluene (Liquid mixture 1); method: Chromatography
Temperature, K	Mole fraction of toluene	uncertainty
293.15	0.998892	0.001108
303.15	0.998314	0.001686
313.15	0.997473	0.002527
323.15	0.996487	0.003513
333.15	0.994973	0.004
343.15	0.992219	0.004
353.15	0.988829	0.004001
363.15	0.984983	0.004002

System: toluene + 1,2-ethanediol; phases: Liquid mixture 2, Liquid mixture 1
Fixed: Pressure, kPa = 101.33
Property: Mole fraction of toluene (Liquid mixture 2); method: Chromatography
Temperature, K	Mole fraction of toluene	uncertainty
293.15	0.019873	0.004002
303.15	0.018859	0.004002
313.15	0.027254	0.004005
323.15	0.025592	0.004004
333.15	0.027171	0.004005
343.15	0.029153	0.004005
353.15	0.028213	0.004005
363.15	0.034276	0.004008
