Measured thermophysical data. Measurement and Correlation for the Solubility of Adipic Acid and Succinic Acid in Glutaric Acid + Cyclohexanone and Glutaric Acid + Acetic Acid Mixtures
Source: J. Chem. Eng. Data, 2017, 10.1021/acs.jced.7b00468
Compound 1: 1,6-hexanedioic acid, C6H10O4, InChI=1S/C6H10O4/c7-5(8)3-1-2-4-6(9)10/h1-4H2,(H,7,8)(H,9,10)
Compound 2: 1,5-pentanedioic acid, C5H8O4, InChI=1S/C5H8O4/c6-4(7)2-1-3-5(8)9/h1-3H2,(H,6,7)(H,8,9)
Compound 3: butanedioic acid, C4H6O4, InChI=1S/C4H6O4/c5-3(6)1-2-4(7)8/h1-2H2,(H,5,6)(H,7,8)
Compound 4: acetic acid, C2H4O2, InChI=1S/C2H4O2/c1-2(3)4/h1H3,(H,3,4)
Compound 5: cyclohexanone, C6H10O, InChI=1S/C6H10O/c7-6-4-2-1-3-5-6/h1-5H2

System: 1,6-hexanedioic acid + cyclohexanone; phases: Liquid, Crystal
Fixed: Pressure, kPa = 101.3
Property: Solid-liquid equilibrium temperature, K (Liquid); method: VISOBS
Mole fraction of 1,6-hexanedioic acid	Solid-liquid equilibrium temperature, K	uncertainty
0.01515	300.25	1.77
0.01896	305.45	0.3
0.023	309.75	1.88
0.02737	313.95	1.98
0.03207	317.85	1.96
0.03691	321.15	1.91
0.04678	327.65	0.3
0.0542	331.65	2.36
0.06328	335.75	2.18
0.07425	340.45	2.56
0.01876	305.45	0.3
0.04221	324.35	2.24
0.04778	327.65	0.3
0.06094	334.75	2.23

System: 1,6-hexanedioic acid + acetic acid; phases: Liquid, Crystal
Fixed: Pressure, kPa = 101.3
Property: Solid-liquid equilibrium temperature, K (Liquid); method: VISOBS
Mole fraction of 1,6-hexanedioic acid	Solid-liquid equilibrium temperature, K	uncertainty
0.02411	301.75	2.1
0.02764	305.55	2.14
0.03423	311.45	2.38
0.03821	314.65	2.42
0.04276	318.15	2.39
0.04745	321.05	2.13
0.05618	325.65	2.12
0.06773	330.55	2.28
0.07629	334.05	2.37
0.09229	340.05	2.78
0.03152	308.85	2.27

System: butanedioic acid + cyclohexanone; phases: Liquid, Crystal
Fixed: Pressure, kPa = 101.3
Property: Solid-liquid equilibrium temperature, K (Liquid); method: VISOBS
Mole fraction of butanedioic acid	Solid-liquid equilibrium temperature, K	uncertainty
0.01131	298.55	1.83
0.01402	303.95	2.05
0.01748	309.75	2.27
0.02154	316.05	2.32
0.02473	319.35	2.44
0.02791	323.85	2.58
0.03265	328.55	2.65
0.03773	333.75	2.72
0.04227	337.15	2.61
0.04698	340.85	2.97

System: butanedioic acid + acetic acid; phases: Liquid, Crystal
Fixed: Pressure, kPa = 101.3
Property: Solid-liquid equilibrium temperature, K (Liquid); method: VISOBS
Mole fraction of butanedioic acid	Solid-liquid equilibrium temperature, K	uncertainty
0.01422	301.35	2.62
0.0161	305.65	2.27
0.01889	309.65	2.46
0.02109	313.75	2.45
0.02404	317.15	2.27
0.02741	321.15	2.44
0.03466	328.95	2.58
0.03978	332.45	1.96
0.04546	335.55	2.03
0.05392	340.25	2.41

System: 1,6-hexanedioic acid + 1,5-pentanedioic acid + cyclohexanone; phases: Liquid, Crystal
Fixed: Pressure, kPa = 101.3
Property: Solid-liquid equilibrium temperature, K (Liquid); method: VISOBS
Solvent: Mass fraction of 1,5-pentanedioic acid	Mole fraction of 1,6-hexanedioic acid	Solid-liquid equilibrium temperature, K	uncertainty
0	0.01515	300.25	1.77
0	0.01876	305.45	1.83
0	0.023	309.75	1.84
0	0.02737	313.95	1.98
0	0.03207	317.85	1.8
0	0.04221	324.35	2.13
0	0.04778	327.65	2.35
0	0.0542	331.65	2.36
0	0.06094	334.75	2.15
0	0.07425	340.45	2.56
0.05	0.01392	300.15	1.54
0.05	0.01752	305.25	1.92
0.05	0.02011	308.35	1.67
0.05	0.02702	315.05	1.99
0.05	0.03123	318.45	1.85
0.05	0.03914	323.95	2.12
0.05	0.04341	326.55	2.11
0.05	0.05095	330.95	2.18
0.05	0.06054	335.65	2.23
0.05	0.07163	340.35	2.45
0.1	0.01105	298.25	1.35
0.1	0.01368	302.15	1.57
0.1	0.01701	306.65	1.51
0.1	0.02011	309.35	1.47
0.1	0.02764	316.15	1.9
0.1	0.03612	322.95	2.32
0.1	0.04012	326.05	2.1
0.1	0.04775	330.55	2.19
0.1	0.05523	334.65	2.25
0.1	0.06535	339.45	2.5
0.15	0.01088	300.15	1.23
0.15	0.01456	305.15	1.32
0.15	0.02028	310.75	1.5
0.15	0.02801	317.35	1.96
0.15	0.03217	320.85	2.13
0.15	0.03632	324.15	2.11
0.15	0.0411	327.25	2.09
0.15	0.04901	332.25	2.35
0.15	0.05685	336.65	2.5
0.15	0.06385	340.35	2.43
0.2	0.00938	300.15	1.07
0.2	0.01306	305.15	1.08
0.2	0.02031	311.25	1.58
0.2	0.02543	317.05	2.01
0.2	0.02903	320.15	2.05
0.2	0.0331	323.55	2.14
0.2	0.03751	326.75	2.12
0.2	0.04223	329.85	2.12
0.2	0.05243	335.85	2.34
0.2	0.06139	340.35	2.32
0.3	0.0261	318.65	2.01
0.3	0.02904	321.45	2.18
0.3	0.0319	324.05	2.15
0.3	0.03515	326.55	2.08
0.3	0.03858	328.95	2.06
0.3	0.04225	331.25	2.1
0.3	0.04606	333.55	2.21
0.3	0.05016	335.95	2.2
0.3	0.05453	338.15	2.16
0.3	0.05912	340.35	2.29

System: 1,6-hexanedioic acid + 1,5-pentanedioic acid + acetic acid; phases: Liquid, Crystal
Fixed: Pressure, kPa = 101.3
Property: Solid-liquid equilibrium temperature, K (Liquid); method: VISOBS
Solvent: Mass fraction of 1,5-pentanedioic acid	Mole fraction of 1,6-hexanedioic acid	Solid-liquid equilibrium temperature, K	uncertainty
0	0.02411	301.75	2.1
0	0.02764	305.55	2.14
0	0.03152	308.85	2.19
0	0.03821	314.65	2.56
0	0.04276	318.15	2.39
0	0.04745	321.05	2.13
0	0.05618	325.65	2.12
0	0.06773	330.55	2.28
0	0.07629	334.05	2.37
0	0.09229	340.05	2.78
0.05	0.01994	298.05	2.06
0.05	0.0244	303.75	1.86
0.05	0.03377	311.55	2.26
0.05	0.03852	315.45	2.51
0.05	0.04328	319.05	2.04
0.05	0.05042	322.95	2.1
0.05	0.05843	326.85	2.19
0.05	0.06593	330.15	2.41
0.05	0.07691	335.35	2.72
0.05	0.08979	340.65	2.97
0.1	0.01956	301.85	1.7
0.1	0.02614	308.25	2.07
0.1	0.03038	312.45	2.06
0.1	0.03505	315.75	2.08
0.1	0.04022	319.45	2.26
0.1	0.04578	323.15	2.22
0.1	0.05283	326.95	2.32
0.1	0.06028	331.05	2.14
0.1	0.07258	335.65	2.38
0.1	0.08309	340.35	2.99
0.15	0.01697	301.65	1.36
0.15	0.02365	308.15	1.88
0.15	0.02672	311.15	1.75
0.15	0.03274	315.75	1.96
0.15	0.04069	321.45	2.16
0.15	0.04891	326.45	2.38
0.15	0.05512	330.15	2.18
0.15	0.0627	333.25	2.08
0.15	0.07075	336.55	2.31
0.15	0.08075	340.55	2.6
0.2	0.0165	303.25	1.96
0.2	0.01841	306.15	1.72
0.2	0.02177	309.45	1.67
0.2	0.02518	312.65	1.7
0.2	0.03414	319.55	2.04
0.2	0.03995	323.45	1.91
0.2	0.04731	327.35	2.09
0.2	0.05504	331.65	2.43
0.2	0.06227	335.55	2.15
0.2	0.07567	340.55	2.28
0.3	0.01283	304.55	1.23
0.3	0.01667	308.85	1.49
0.3	0.02096	313.25	1.64
0.3	0.02467	316.45	1.71
0.3	0.0289	319.95	1.86
0.3	0.03344	323.35	1.72
0.3	0.04525	330.35	2
0.3	0.05378	334.35	2.01
0.3	0.06091	337.55	2.1
0.3	0.06739	340.15	2.19

System: butanedioic acid + 1,5-pentanedioic acid + cyclohexanone; phases: Liquid, Crystal
Fixed: Pressure, kPa = 101.3
Property: Solid-liquid equilibrium temperature, K (Liquid); method: VISOBS
Solvent: Mass fraction of 1,5-pentanedioic acid	Mole fraction of butanedioic acid	Solid-liquid equilibrium temperature, K	uncertainty
0	0.01131	298.55	1.83
0	0.01402	303.95	2.05
0	0.01748	309.75	2.27
0	0.02154	316.05	2.32
0	0.02473	319.35	2.44
0	0.02791	323.85	2.58
0	0.03265	328.55	2.65
0	0.03773	333.75	2.72
0	0.04227	337.15	2.61
0	0.04698	340.85	2.97
0.05	0.01128	300.25	1.52
0.05	0.01358	304.25	1.88
0.05	0.01728	310.45	2.41
0.05	0.01908	313.35	2.31
0.05	0.02179	317.25	2.27
0.05	0.02394	320.05	2.31
0.05	0.0269	323.35	2.26
0.05	0.0339	330.65	2.63
0.05	0.03827	334.15	2.71
0.05	0.04458	340.25	3.46
0.1	0.00912	298.15	1.52
0.1	0.01173	303.45	1.91
0.1	0.01432	308.65	2.05
0.1	0.01765	314.15	2.19
0.1	0.01985	317.05	2.01
0.1	0.02413	322.45	2.33
0.1	0.02886	327.85	2.64
0.1	0.03091	330.15	2.21
0.1	0.03716	335.35	2.42
0.1	0.04248	339.55	2.7
0.15	0.00813	298.45	1.91
0.15	0.00972	303.25	2
0.15	0.01179	307.85	1.95
0.15	0.01405	312.05	1.81
0.15	0.01816	317.95	2.17
0.15	0.01986	320.75	1.76
0.15	0.02661	327.25	2.16
0.15	0.03068	331.55	2.4
0.15	0.03466	335.05	2.41
0.15	0.03973	339.35	2.71
0.2	0.00734	300.05	1.57
0.2	0.0094	305.35	1.72
0.2	0.012	310.55	1.82
0.2	0.01436	314.55	1.93
0.2	0.01688	318.65	1.76
0.2	0.02211	324.65	2.04
0.2	0.02412	327.05	2.11
0.2	0.02909	332.25	2.39
0.2	0.03206	335.15	2.1
0.2	0.03904	340.35	2.35
0.3	0.01357	317.65	1.93
0.3	0.01593	321.75	2.23
0.3	0.01798	325.25	2.22
0.3	0.01939	326.95	1.74
0.3	0.02084	328.35	1.99
0.3	0.02166	329.65	1.68
0.3	0.02358	331.05	1.59
0.3	0.0261	333.25	2.08
0.3	0.03006	337.35	2
0.3	0.03506	340.65	1.89

System: butanedioic acid + 1,5-pentanedioic acid + acetic acid; phases: Liquid, Crystal
Fixed: Pressure, kPa = 101.3
Property: Solid-liquid equilibrium temperature, K (Liquid); method: VISOBS
Solvent: Mass fraction of 1,5-pentanedioic acid	Mole fraction of butanedioic acid	Solid-liquid equilibrium temperature, K	uncertainty
0	0.01422	301.35	2.62
0	0.0161	305.65	2.27
0	0.01889	309.65	2.46
0	0.02109	313.75	2.45
0	0.02404	317.15	2.27
0	0.02741	321.15	2.44
0	0.03466	328.95	2.58
0	0.03978	332.45	1.96
0	0.04546	335.55	2.03
0	0.05392	340.25	2.41
0.05	0.01322	300.65	3.1
0.05	0.01452	304.35	2.27
0.05	0.01895	312.35	2.47
0.05	0.02249	317.15	2.44
0.05	0.02487	320.35	2.37
0.05	0.0287	324.45	2.31
0.05	0.03309	328.45	2.18
0.05	0.03897	332.85	2.1
0.05	0.04539	336.65	2.09
0.05	0.05212	340.35	2.31
0.1	0.01056	296.15	4.24
0.1	0.01138	300.25	2.32
0.1	0.01446	306.65	2.57
0.1	0.01592	310.25	2.08
0.1	0.01898	314.25	1.82
0.1	0.02557	321.95	2.11
0.1	0.03302	328.85	2.39
0.1	0.03845	333.35	2.17
0.1	0.04551	337.75	2.17
0.1	0.05077	340.55	2.18
0.15	0.00998	298.45	3
0.15	0.01124	303.05	2.98
0.15	0.01228	305.95	2.36
0.15	0.01422	310.05	2.08
0.15	0.01769	315.75	1.86
0.15	0.02264	321.05	1.85
0.15	0.02806	326.15	2.04
0.15	0.03358	330.85	2.08
0.15	0.03979	335.25	2.04
0.15	0.04882	340.65	2.36
0.2	0.00937	300.35	2.33
0.2	0.01141	306.45	2.44
0.2	0.0135	311.35	2.14
0.2	0.01644	316.35	2.21
0.2	0.01791	318.45	1.82
0.2	0.02032	321.25	1.77
0.2	0.02499	326.05	1.94
0.2	0.02989	330.35	1.91
0.2	0.03654	335.15	1.87
0.2	0.04584	340.45	2.11
0.3	0.00899	305.95	2.37
0.3	0.00989	308.85	2.44
0.3	0.01094	311.85	2.18
0.3	0.01282	316.05	1.96
0.3	0.01573	320.85	1.84
0.3	0.01852	324.15	1.72
0.3	0.02166	327.55	1.71
0.3	0.0259	331.25	1.67
0.3	0.03257	336.15	1.6
0.3	0.04161	340.75	1.73
