Measured thermophysical data. Thermodynamic Properties of cis-1,1,1,4,4,4-Hexafluoro-2-butene (HFO-1336mzz(Z)): Measurements of the pT Property and Determinations of Vapor Pressures, Saturated Liquid and Vapor Densities, and Critical Parameters
Source: J. Chem. Eng. Data, 2016, 10.1021/acs.jced.6b00169
Compound 1: (Z)-1,1,1,4,4,4-hexafluorobut-2-ene, C4H2F6, InChI=1S/C4H2F6/c5-3(6,7)1-2-4(8,9)10/h1-2H/b2-1-, purity 99.95%

System: (Z)-1,1,1,4,4,4-hexafluorobut-2-ene; phases: Liquid, Gas
Property: Critical temperature, K (Liquid); method: Derived from PVT data
Critical temperature, K	uncertainty
444.42	0.08

System: (Z)-1,1,1,4,4,4-hexafluorobut-2-ene; phases: Liquid, Gas
Property: Critical pressure, kPa (Liquid); method: Derived from PVT data
Critical pressure, kPa	uncertainty
2901	14

System: (Z)-1,1,1,4,4,4-hexafluorobut-2-ene; phases: Liquid, Gas
Property: Critical density, kg/m3 (Liquid); method: Derived from PVT data
Critical density, kg/m3	uncertainty
471	4

System: (Z)-1,1,1,4,4,4-hexafluorobut-2-ene; phases: Liquid, Gas
Property: Vapor or sublimation pressure, kPa (Liquid); method: Closed cell (Static) method
Temperature, K	Vapor or sublimation pressure, kPa	uncertainty
323.53	182.1	8
333.49	248.2	8
343.49	331.8	8
353.48	435.2	8.1
363.49	561.6	8.1
373.49	714.3	8.1
383.48	895.3	8.2
393.49	1109.6	8.3
323.52	182.6	8
333.49	249.2	8
343.49	332.9	8
353.5	436.9	8.1
363.49	563.9	8.1
373.5	716.9	8.1
383.49	898.4	8.2
393.51	1113.3	8.3
403.41	1365.2	8.4
413.51	1658.7	8.5
423.51	1999.9	8.7
323.5	182.2	8
333.44	247.7	8
343.46	331.6	8
353.47	435.3	8.1
363.46	562	8.1
373.47	714.4	8.1
383.47	895.9	8.2
393.48	1110.3	8.3
403.5	1362.4	8.4
413.49	1656.4	8.5
423.49	1997.8	8.7
433.49	2393.9	9
323.5	177.6	8
333.47	243.5	8
343.48	326.6	8
353.48	430.2	8
363.47	556.4	8.1
373.47	708	8.1
383.46	888.7	8.2
393.47	1103.1	8.3
403.48	1355	8.4
413.47	1648.2	8.5
423.48	1989.3	8.7
433.47	2384.5	9
443.47	2837.9	9.3
323.51	181.8	8
333.49	248.2	8
343.5	331.7	8
353.49	435.6	8.1
363.49	562.2	8.1
373.5	714.9	8.1
383.5	896.4	8.2
393.5	1111.3	8.3
403.51	1363.4	8.4
413.51	1657.7	8.5
423.5	1999.2	8.7
433.52	2395.9	9
443.51	2859.8	9.3
323.47	182.2	8
333.45	248.1	8
343.45	331.8	8
353.46	435.3	8.1
363.46	561.7	8.1
373.45	714	8.1
383.45	895.1	8.2
393.47	1109.7	8.3
323.47	182.2	8
403.47	1361.3	8.4
413.47	1655.1	8.5
423.47	1995.7	8.7
433.46	2391.8	9
443.45	2854.5	9.3
323.52	180.2	8
333.49	246.4	8
343.49	329.7	8
353.5	433	8.1
363.5	559.4	8.1
373.5	711.4	8.1
383.49	892.4	8.2
393.51	1107	8.3
403.51	1358.6	8.4
413.51	1652.2	8.5
423.51	1993.1	8.7
433.5	2388.6	9
443.51	2850.8	9.3
323.51	181.2	8
333.49	247.6	8
343.49	331.5	8
353.49	435.6	8.1
363.48	562.6	8.1
373.48	715.2	8.1
383.49	897.1	8.2
393.5	1112	8.3
403.51	1364.3	8.4
413.51	1658.4	8.5
423.51	1999.7	8.7
433.51	2396.2	9
443.5	2860.1	9.3
323.51	178.8	8
333.49	244.7	8
343.49	327.9	8
353.49	430.7	8
363.49	556.9	8.1
373.49	708.6	8.1
383.49	889.8	8.2
393.49	1104	8.3
403.49	1355.4	8.4
413.49	1648.6	8.5
423.5	1990	8.7
433.5	2385.2	9
443.5	2847.4	9.3
323.5	180.6	8
333.47	247.2	8
343.48	331.2	8
353.48	435.2	8.1
363.48	562.1	8.1
373.47	714.9	8.1
383.47	896.6	8.2
393.48	1112.1	8.3
403.49	1364.6	8.4
413.49	1658.8	8.5
423.49	2000.4	8.7
433.49	2396.8	9
323.51	180.3	8
333.48	246.1	8
343.48	328.9	8
353.49	432.7	8.1
363.48	558.9	8.1
373.49	711	8.1
383.49	892.1	8.2
393.5	1106.5	8.3
403.5	1358.5	8.4
413.5	1651.9	8.5
423.49	1992.9	8.7
433.49	2389.4	9
323.51	181.5	8
333.49	247.9	8
343.48	331.4	8
353.48	435.2	8.1
363.48	561.9	8.1
373.49	714.8	8.1
383.48	896.5	8.2
393.5	1111.5	8.3
403.49	1364.1	8.4
413.49	1657.8	8.5
423.48	2000.2	8.7
323.51	182.1	8
333.48	248.3	8
343.48	331.6	8
353.49	435.2	8.1
363.49	561.6	8.1
373.49	713.5	8.1
383.49	893.4	8.2
393.49	1108.1	8.3
403.49	1364.2	8.4
323.49	177.9	8
333.46	243.8	8
343.48	326.7	8
353.48	429.9	8
363.47	555.8	8.1
373.47	708.2	8.1
383.47	889.9	8.2
393.49	1110	8.3
323.52	178.6	8
333.49	245.9	8
343.49	330	8
353.5	434.6	8.1
323.51	179.3	8
333.49	245.1	8
343.49	330.6	8
353.49	442.1	8.1
363.49	572.3	8.1
373.48	731.7	8.1
323.52	186.9	8
333.49	257	8
343.5	343.2	8
353.5	428.1	8
323.53	186.3	8
333.5	254.8	8
343.5	336.4	8
323.52	174.1	8
323.5	178.4	8
363.5	567.8	8.1
373.5	722.5	8.1
383.5	921.5	8.2

System: (Z)-1,1,1,4,4,4-hexafluorobut-2-ene; phases: Fluid (supercritical or subcritical phases)
Property: Mass density, kg/m3 (Fluid (supercritical or subcritical phases)); method: ISOCHOR
Temperature, K	Pressure, kPa	Mass density, kg/m3	uncertainty
403.49	1273.1	87.8	64.4
413.5	1339.2	87.8	15.5
423.5	1403.2	87.7	9.9
433.49	1466	87.7	1
443.5	1526.7	87.6	1
453.5	1586.1	87.6	0.9
463.5	1644.5	87.5	0.8
473.5	1702.6	87.5	0.8
483.5	1760.4	87.5	0.8
493.51	1817.2	87.4	0.7
433.5	2159.2	167.2	5.7
443.5	2301.4	167.1	1.9
453.51	2439	167	2
463.51	2573	166.9	1.1
473.51	2705	166.8	1.4
483.51	2834.3	166.8	1
493.51	2962	166.7	1
443.48	2727.2	261.3	5.3
453.5	2978.8	261.1	3.2
463.5	3221.4	261	1.9
473.5	3458.3	260.9	1.7
483.5	3690.6	260.8	1.5
493.5	3920	260.6	1.4
453.48	3200.2	348.3	5.1
463.48	3548.1	348.1	3.1
473.49	3889.2	347.9	2.3
483.49	4225.7	347.8	2
493.49	4559.3	347.6	1.9
503.5	4890.2	347.4	1.7
453.52	3308.4	416.3	5.3
463.52	3741	416.1	3.8
473.51	4169.1	416	3
483.51	4596.7	415.8	2.4
463.47	3811.6	451.7	4.3
473.46	4282.9	451.5	3
483.45	4753	451.3	2.6
453.51	3355.4	473.8	8.5
463.51	3856.7	473.6	4
473.52	4360	473.3	3
483.5	4863.2	473.1	2.3
493.51	5368	472.9	2.3
453.51	3423.1	534.1	8
463.51	4003.3	533.8	4
473.51	4592.6	533.6	3
483.5	5186.3	533.3	2.6
453.5	3477.4	589	4.9
463.5	4145.4	588.7	3.3
473.5	4828.4	588.4	2.8
483.5	5522.5	588.1	2.6
493.5	6223.9	587.8	2.6
503.51	6930.9	587.6	2.5
443.49	2906.1	659.8	12.9
453.5	3654.8	659.5	3.3
463.5	4465.6	659.2	3.1
473.49	5297.9	658.9	2.8
483.49	6143.2	658.6	2.7
443.5	3041.4	734.7	4.2
453.49	4021.4	734.4	3.3
463.84	5039.9	734	3.1
473.49	6084.9	733.7	3
483.51	7145.4	733.3	2.9
433.47	2440.9	790.6	5.3
443.48	3403.1	790.2	3.3
453.5	4584	789.8	3.2
463.49	5796.3	789.4	3.2
473.49	7031.2	789.1	3.1
483.48	8280.1	788.7	3.1
413.49	1667.6	884.8	15.6
423.49	2049.1	884.4	4.4
433.49	3342.9	883.9	3.4
443.49	4930.5	883.5	3.4
453.5	6552.2	883.1	3.4
463.5	8195.5	882.7	3.4
473.5	9855	882.3	3.4
403.48	1382.1	964.9	64.5
413.48	1705.4	964.4	17.2
423.48	3720.9	964	3.7
433.49	5765	963.5	3.7
443.5	7837.5	963.1	3.7
453.49	9923.8	962.6	3.7
393.51	1151.8	1038.9	5.3
403.51	2538.6	1038.4	4
413.51	5100.3	1037.9	4
423.51	7690	1037.4	4
383.48	2373.8	1121.1	4.3
393.48	5697.9	1120.5	4.3
403.5	9039.9	1120	4.3
363.49	3108.6	1196.7	4.6
373.49	7319.3	1196.2	4.6
353.5	1179.2	1214.2	4.7
363.5	5627.6	1213.6	4.7
333.49	4294.8	1291.4	5
343.5	9927.3	1290.8	5
333.47	5013.6	1294.9	5

System: (Z)-1,1,1,4,4,4-hexafluorobut-2-ene; phases: Fluid (supercritical or subcritical phases)
Property: Mass density, kg/m3 (Fluid (supercritical or subcritical phases)); method: ISOCHOR
Temperature, K	Pressure, kPa	Mass density, kg/m3	uncertainty
443.49	2856.2	410.2	113.4
444.48	2904	410.2	118
445.48	2948.7	410.1	66
446.47	2992.8	410.1	34.8
447.47	3036.6	410.1	24.9
448.47	3080.1	410.1	19.4
449.46	3123.1	410.1	15.3
450.46	3166.1	410	12.8
451.47	3209.5	410	11
452.47	3252.2	410	9.4
453.47	3294.8	410	8.4
443.49	2855.8	451.8	114.9
444.48	2905.8	451.8	99.9
445.48	2955	451.8	91
446.48	3003.8	451.8	39.2
447.49	3052.3	451.8	27.2
448.48	3099.7	451.7	20.5
449.48	3147.7	451.7	16.8
450.48	3195.5	451.7	13.9
451.48	3243	451.7	11.7
452.48	3290.8	451.7	10.2
453.49	3338.4	451.6	8.9
443.5	2857	496.8	116
444.49	2907.9	496.8	79.3
445.49	2960.5	496.8	49.7
446.5	3013.3	496.8	42.4
447.51	3065.9	496.8	28.9
448.5	3117.9	496.7	21.6
449.5	3170.6	496.7	16.8
450.5	3223.3	496.7	14.3
451.5	3275.9	496.7	12.2
452.49	3328.2	496.6	10.6
453.49	3381.2	496.6	9.3
443.51	2855.3	532.1	118.3
444.5	2907.5	532.1	46.6
445.5	2963.5	532.1	46.7
446.49	3019.2	532.1	31.1
447.49	3075.5	532	20.4
448.49	3131.1	532	21.5
449.49	3187.7	532	17.1
450.51	3244.9	532	14.1
451.51	3300.8	531.9	12
452.5	3358.3	531.9	10.2
453.5	3415.5	531.9	9
443.5	2856.5	556.1	118.3
444.49	2909.6	556.1	37.7
445.49	2967.6	556.1	49.6
446.49	3024.7	556	27.5
447.5	3083	556	20.8
448.5	3140.9	556	14.5
449.5	3200.1	556	12.1
450.5	3259.2	555.9	10.3
451.5	3318.3	555.9	8.7
452.49	3378.2	555.9	7.9
453.5	3438.5	555.9	7
443.51	2860.2	589.2	118
444.5	2918.3	589.2	37.7
445.49	2979	589.2	26.5
446.47	3039.9	589.2	18.5
447.49	3102.7	589.1	15.1
448.49	3165.1	589.1	12.2
449.5	3229.7	589.1	10.4
450.5	3293.6	589	8.8
451.49	3357.7	589	7.7
452.49	3422.9	589	7
453.5	3489.4	589	6.2
