Measured thermophysical data. H-Bonding in 2,2,2-Trifluoroethanol: Application of the Stokes-Einstein-Sutherland Equation to Self-Diffusion and Viscosity at High Pressures
Source: J. Chem. Eng. Data, 2018, 10.1021/acs.jced.7b01030
Compound 1: 2,2,2-trifluoroethanol, C2H3F3O, InChI=1S/C2H3F3O/c3-2(4,5)1-6/h6H,1H2, purity 99.7%

System: 2,2,2-trifluoroethanol; phases: Liquid
Property: Viscosity, Pa*s (Liquid); method: Falling or rolling sphere viscometry
Temperature, K	Pressure, kPa	Viscosity, Pa*s	uncertainty
263.15	100	0.005502	0.000225
263.15	100	0.005485	0.000225
263.15	9900	0.006125	0.00025
263.15	10000	0.006134	0.000251
263.15	24500	0.007159	0.000293
263.15	24600	0.007168	0.000293
263.15	50500	0.009212	0.000376
263.15	50600	0.009203	0.000376
263.15	75500	0.01152	0.00047
263.15	75500	0.01151	0.00047
263.15	100200	0.01428	0.00058
263.15	101000	0.01438	0.00059
263.15	131600	0.0184	0.00075
263.15	132200	0.01853	0.00076
268.15	100	0.004517	0.000186
268.15	100	0.004513	0.000186
322.14	10500	0.001125	4.6e-05
322.14	10500	0.001128	4.6e-05
322.14	25500	0.001286	5.2e-05
322.14	25500	0.001286	5.2e-05
322.14	50500	0.001561	6.4e-05
322.14	50500	0.001561	6.4e-05
322.14	75000	0.001827	7.4e-05
322.14	75200	0.001828	7.4e-05
322.14	100300	0.002137	8.7e-05
322.14	100300	0.002137	8.7e-05
323.15	100	0.0009974	4.08e-05
323.15	100	0.000989	4.04e-05
323.15	100	0.0009965	4.07e-05
323.15	100	0.001002	4.1e-05
323.15	100	0.0009797	4.01e-05
323.15	100	0.0009841	4.02e-05
273.15	100	0.003807	0.000155
273.15	100	0.003805	0.000155
273.15	100	0.00378	0.000154
273.15	100	0.003777	0.000154
273.15	100	0.003798	0.000155
273.15	100	0.003798	0.000155
273.15	10400	0.004226	0.000172
273.15	10500	0.004224	0.000172
273.15	25500	0.004909	0.0002
273.15	25500	0.004905	0.0002
273.15	50500	0.006179	0.000252
273.15	50500	0.006166	0.000252
273.15	75000	0.00757	0.000475
273.15	75500	0.007582	0.000647
273.15	99800	0.009373	0.000978
273.15	100300	0.009375	0.000979
273.15	125600	0.01137	0.00046
273.15	125600	0.01145	0.00047
273.15	125700	0.01139	0.00046
273.15	150300	0.01373	0.00056
273.15	150700	0.01379	0.00056
273.15	176200	0.01653	0.00067
273.15	176400	0.01661	0.00068
273.15	201100	0.0196	0.0008
273.15	201100	0.01951	0.00079
273.15	233500	0.02425	0.00099
273.15	233700	0.02429	0.00099
323.15	100	0.0009797	4.01e-05
323.15	100	0.0009829	4.02e-05
323.15	100	0.0009933	4.06e-05
323.15	100	0.0009884	4.04e-05
323.15	10000	0.001091	4.5e-05
323.15	10100	0.00109	4.5e-05
323.15	25300	0.001246	5.1e-05
323.15	25400	0.001248	5.1e-05
323.15	49500	0.001492	6.1e-05
323.15	49700	0.001493	6.1e-05
323.15	74800	0.001781	7.3e-05
323.15	75000	0.001789	7.3e-05
323.15	99900	0.002075	8.6e-05
323.15	100000	0.002073	8.4e-05
323.15	100400	0.002096	8.7e-05
323.15	100400	0.002093	8.6e-05
323.15	125000	0.002396	9.8e-05
323.15	125400	0.002395	9.8e-05
323.15	150100	0.002737	0.000111
323.15	150500	0.002738	0.000111
323.15	176000	0.003131	0.000128
323.15	176000	0.003131	0.000128
323.15	200300	0.003654	0.000156
323.15	200800	0.003651	0.000388
323.15	210100	0.003837	0.000156
323.15	210100	0.003849	0.000157
323.15	225200	0.004134	0.000271
278.15	100	0.003311	0.000136
278.15	100	0.003305	0.000136
283.15	100	0.002746	0.000114
283.15	100	0.002749	0.000114
288.15	100	0.002363	9.6e-05
288.15	100	0.002368	9.7e-05
293.15	100	0.002054	8.4e-05
293.15	100	0.002047	8.4e-05
293.15	100	0.002077	8.5e-05
293.15	100	0.002079	8.5e-05
298.15	100	0.001781	7.3e-05
298.15	100	0.001782	7.3e-05
298.15	100	0.001786	7.3e-05
298.15	100	0.001787	7.3e-05
298.15	100	0.001779	7.3e-05
298.15	100	0.001767	7.2e-05
298.15	100	0.001782	7.3e-05
298.15	100	0.001774	7.2e-05
298.15	10200	0.00198	8.1e-05
298.15	10200	0.001981	8.1e-05
298.15	25400	0.002267	9.2e-05
298.15	25400	0.002264	9.2e-05
298.15	49900	0.002755	0.000112
298.15	50200	0.002773	0.000113
298.15	74900	0.003317	0.000135
298.15	75100	0.003314	0.000135
298.15	100400	0.003929	0.00016
323.15	225300	0.004131	0.000245
323.15	226700	0.004028	0.000203
323.15	227900	0.004058	0.000276
323.15	248900	0.0046	0.000243
323.15	249400	0.004614	0.000244
323.15	275300	0.005192	0.000211
323.15	275600	0.005209	0.000212
323.15	300600	0.005834	0.000783
323.15	301200	0.005853	0.000824
323.15	325600	0.006509	0.000896
323.15	326200	0.006562	0.000507
323.15	347900	0.007187	0.000562
323.15	349200	0.007207	0.000563
328.15	100	0.0008939	3.66e-05
328.15	100	0.0008974	3.67e-05
333.15	100	0.0008117	3.31e-05
333.15	100	0.0008117	3.31e-05
338.15	100	0.0007379	3.01e-05
338.15	100	0.0007382	3.01e-05
343.15	100	0.0006739	2.76e-05
343.15	100	0.0006739	2.76e-05
343.15	100	0.000671	2.75e-05
343.15	100	0.0006718	2.75e-05
343.15	100	0.000666	2.73e-05
343.15	100	0.0006657	2.73e-05
343.15	10500	0.0007504	3.06e-05
343.15	10500	0.0007498	3.06e-05
298.15	100600	0.003938	0.00016
298.15	125200	0.004612	0.000188
298.15	125400	0.00461	0.000188
298.15	150100	0.005347	0.000218
298.15	150100	0.005347	0.000218
298.15	175000	0.006198	0.000253
298.15	175200	0.006197	0.000253
298.15	197500	0.006965	0.000489
298.15	197800	0.006993	0.000521
298.15	200700	0.00721	0.000375
298.15	201700	0.007297	0.000803
298.15	224400	0.008254	0.000629
298.15	226100	0.00833	0.000567
298.15	256900	0.009931	0.000405
298.15	258400	0.01003	0.00041
298.15	276700	0.01098	0.00045
298.15	277800	0.01104	0.00045
298.15	300600	0.0123	0.0005
298.15	301600	0.01243	0.00051
298.15	325400	0.01399	0.00057
298.15	326500	0.01406	0.00057
298.15	348800	0.01577	0.00064
298.15	351100	0.01595	0.00065
303.15	100	0.001574	6.4e-05
303.15	100	0.001565	6.4e-05
308.15	100	0.001384	5.7e-05
308.15	100	0.001384	5.7e-05
343.15	25500	0.0008438	3.44e-05
343.15	50000	0.001016	4.1e-05
343.15	50000	0.001016	4.1e-05
343.15	76400	0.001229	5e-05
343.15	76400	0.001228	5e-05
343.15	99900	0.001425	5.8e-05
343.15	100500	0.001411	5.8e-05
343.15	100700	0.001419	5.8e-05
343.15	100700	0.001416	5.8e-05
343.15	100900	0.001421	5.8e-05
343.15	125800	0.001666	6.8e-05
343.15	126100	0.00166	6.8e-05
343.15	150000	0.001894	7.7e-05
343.15	150200	0.001899	7.7e-05
343.15	175300	0.002141	8.7e-05
343.15	175600	0.002149	8.7e-05
343.15	200400	0.002397	9.8e-05
343.15	200700	0.002409	9.8e-05
343.15	225200	0.002644	0.000108
343.15	225400	0.002672	0.000109
343.15	249500	0.002924	0.000119
343.15	249800	0.002935	0.000119
343.15	276600	0.003259	0.000133
343.15	277100	0.003277	0.000134
343.15	300300	0.00357	0.000146
343.15	301200	0.003596	0.000147
343.15	325100	0.00391	0.000161
313.15	100	0.001219	5e-05
313.15	100	0.001221	5e-05
318.15	100	0.001081	4.4e-05
318.15	100	0.001078	4.4e-05
343.15	325600	0.003939	0.000162
343.15	350100	0.004306	0.000176
343.15	352100	0.004376	0.000178

System: 2,2,2-trifluoroethanol; phases: Liquid
Fixed: Pressure, kPa = 100
Property: Mass density, kg/m3 (Liquid); method: Vibrating tube method
Temperature, K	Mass density, kg/m3	uncertainty
273.15	1424.26	0.64
278.15	1416.08	0.64
283.15	1407.84	0.64
283.15	1407.85	0.64
288.15	1399.56	0.63
293.15	1391.18	0.63
293.15	1391.19	0.63
298.15	1382.73	0.63
298.15	1382.71	0.63
303.15	1374.17	0.63
313.15	1356.64	0.63
323.15	1338.58	0.63
333.15	1319.81	0.62
338.15	1310.14	0.62
343.15	1300.26	0.62

System: 2,2,2-trifluoroethanol; phases: Liquid
Fixed: Pressure, kPa = 100
Property: Self diffusion coefficient, m2/s (Liquid); method: NMR spin-echo technique
Temperature, K	Self diffusion coefficient, m2/s	uncertainty
253.24	1.331e-10	0.0127
253.24	1.334e-10	0.0127
258.45	1.679e-10	0.0146
258.49	1.678e-10	0.0146
263.37	2.055e-10	0.0168
263.39	2.056e-10	0.0168
273.25	3.066e-10	0.0229
273.8	3.303e-10	0.0243
278.59	3.937e-10	0.0282
278.63	3.872e-10	0.0278
288.53	5.413e-10	0.0374
288.56	5.302e-10	0.0367
298.26	6.91e-10	0.0468
298.32	6.96e-10	0.0471
298.34	7.213e-10	0.0488
298.35	7.064e-10	0.0478
298.36	6.953e-10	0.0471
298.55	6.99e-10	0.0473
308.28	9.348e-10	0.0622
318.17	1.243e-09	0.082
318.17	1.22e-09	0.08
323.4	1.451e-09	0.095
328.35	1.626e-09	0.106
338.44	1.954e-09	0.127
342.8	2.21e-09	0.143

System: 2,2,2-trifluoroethanol; phases: Liquid
Property: Self diffusion coefficient, m2/s (Liquid); method: NMR spin-echo technique
Temperature, K	Pressure, kPa	Self diffusion coefficient, m2/s	uncertainty
272.86	100	3.059e-10	0.0228
272.87	100	3.061e-10	0.0229
272.84	25700	2.476e-10	0.0193
273.25	50000	2.036e-10	0.0167
272.82	79000	1.662e-10	0.0146
273.09	98000	1.457e-10	0.0134
272.99	150000	1.035e-10	0.0112
272.9	200500	7.6e-11	0.0098
272.93	249000	5.7e-11	0.0091
272.91	299000	4.23e-11	0.0087
299.92	100	7.352e-10	0.0496
300.4	100	7.517e-10	0.0507
299.89	25000	6.075e-10	0.0416
299.91	50000	5.109e-10	0.0355
299.91	72500	4.383e-10	0.031
299.93	98000	3.774e-10	0.0272
299.94	149000	2.875e-10	0.0217
299.93	199000	2.138e-10	0.0173
299.98	250000	1.721e-10	0.0149
299.92	300000	1.319e-10	0.0127
299.94	350000	1.088e-10	0.0114
323.5	100	1.388e-09	0.091
323.51	100	1.425e-09	0.093
323.51	23000	1.208e-09	0.08
323.51	50000	1.011e-09	0.067
323.51	74000	8.731e-10	0.0583
323.51	99500	7.587e-10	0.0511
323.52	150000	5.974e-10	0.0409
323.52	198500	4.806e-10	0.0336
323.52	249000	3.896e-10	0.028
323.51	300000	3.119e-10	0.0232
323.53	351000	2.566e-10	0.0198
348.07	100	2.573e-09	0.166
348.07	100	2.571e-09	0.166
348.06	25000	2.106e-09	0.137
348.07	50500	1.787e-09	0.116
348.07	74500	1.571e-09	0.103
348.06	101000	1.351e-09	0.089
348.02	152000	1.064e-09	0.07
348.08	175000	9.549e-10	0.0635
348.08	200000	8.68e-10	0.058
348.08	249500	7.318e-10	0.0494
348.08	299000	6.15e-10	0.042
348.07	348000	5.199e-10	0.0361
348.08	350000	5.157e-10	0.0358
