Measured thermophysical data. Isobaric Vapor-Liquid Equilibria for the Quaternary System Water + Ethanol + Ethylene Glycol + Choline Chloride and the Ternary System Water + Ethanol + Choline Chloride at 101.3 kPa
Source: J. Chem. Eng. Data, 2019, 10.1021/acs.jced.9b00254
Compound 1: ethanol, C2H6O, InChI=1S/C2H6O/c1-2-3/h3H,2H2,1H3, purity 99.8%
Compound 2: choline chloride, C5H14ClNO, InChI=1S/C5H14NO.ClH/c1-6(2,3)4-5-7;/h7H,4-5H2,1-3H3;1H/q+1;/p-1, purity 98%
Compound 3: water, H2O, InChI=1S/H2O/h1H2, purity 99.9%

System: water + ethanol + choline chloride; phases: Liquid, Gas
Fixed: Pressure, kPa = 101.3
Property: Mole fraction of choline chloride (Liquid); method: OTHER
Property: Mole fraction of water (Gas); method: OTHER
Property: Mole fraction of ethanol (Gas); method: OTHER
Temperature, K	Mole fraction of ethanol	Mole fraction of choline chloride	uncertainty	Mole fraction of water	uncertainty	Mole fraction of ethanol	uncertainty
376.18	0.0736	0.3226	0.0063	0.3178	0.0078	0.6822	
365.52	0.1435	0.2865	0.0062	0.2233	0.0055	0.7767	
360.27	0.1606	0.2069	0.0061	0.2607	0.0064	0.7393	
357.7	0.1711	0.148	0.0061	0.3044	0.0075	0.6956	
356.45	0.1801	0.1024	0.006	0.3441	0.0084	0.656	
355.89	0.1866	0.0683	0.006	0.3769	0.0092	0.6231	
355.72	0.193	0.0426	0.006	0.4035	0.0099	0.5965	
355.79	0.1969	0.0196	0.006	0.4315	0.0106	0.5685	
361.37	0.2884	0.2899	0.0062	0.1449	0.0036	0.8551	
358.98	0.3051	0.2442	0.0062	0.1663	0.0041	0.8337	
356.36	0.3305	0.1773	0.0061	0.2029	0.005	0.7971	
371.34	0.0726	0.2595	0.0062	0.3529	0.0086	0.6472	
354.91	0.3487	0.1234	0.006	0.2408	0.0059	0.7592	
354.14	0.3701	0.084	0.006	0.2729	0.0067	0.7271	
353.77	0.3802	0.0504	0.006	0.3134	0.0077	0.6867	
353.51	0.3941	0.0232	0.006	0.3453	0.0085	0.6547	
358.38	0.4544	0.2385	0.0062	0.1148	0.0028	0.8852	
356.91	0.4759	0.2005	0.0061	0.1286	0.0032	0.8714	
355.08	0.5147	0.1442	0.0061	0.1572	0.0039	0.8428	
353.83	0.5395	0.0966	0.006	0.1913	0.0047	0.8087	
353.08	0.5632	0.0592	0.006	0.223	0.0055	0.777	
352.56	0.5838	0.0273	0.006	0.2553	0.0063	0.7447	
365.42	0.0793	0.1835	0.0061	0.4026	0.0099	0.5974	
355.72	0.6617	0.1601	0.0061	0.0874	0.0021	0.9126	
354.8	0.6961	0.131	0.006	0.0911	0.0022	0.9089	
354.2	0.7106	0.1113	0.006	0.0993	0.0024	0.9007	
353.7	0.7245	0.0934	0.006	0.1084	0.0027	0.8916	
353.07	0.7438	0.07	0.006	0.1217	0.003	0.8783	
352.56	0.7598	0.0496	0.006	0.1355	0.0033	0.8645	
352.1	0.7758	0.03	0.006	0.1529	0.0037	0.8471	
353.29	0.8773	0.0754	0.006	0.0333	0.0008	0.9667	
353.15	0.8839	0.0702	0.006	0.0333	0.0008	0.9667	
353.03	0.8879	0.066	0.006	0.0342	0.0008	0.9658	
362.34	0.0839	0.1308	0.006	0.4305	0.0106	0.5695	
352.91	0.892	0.0618	0.006	0.0349	0.0009	0.9651	
352.8	0.8961	0.0576	0.006	0.0356	0.0009	0.9644	
352.71	0.8998	0.0536	0.006	0.0365	0.0009	0.9635	
352.51	0.9071	0.0463	0.006	0.038	0.0009	0.962	
352.23	0.9175	0.0347	0.006	0.0418	0.001	0.9582	
351.96	0.9286	0.0241	0.006	0.0436	0.0011	0.9564	
351.76	0.9355	0.0166	0.006	0.0455	0.0011	0.9545	
360.63	0.0875	0.0911	0.006	0.467	0.0114	0.533	
359.74	0.091	0.0603	0.006	0.491	0.012	0.509	
359.15	0.0943	0.0361	0.006	0.5087	0.012	0.4913	
359.11	0.0964	0.0161	0.006	0.5274	0.0116	0.4726	
368.81	0.1355	0.3264	0.0063	0.2098	0.0051	0.7902	
