Measured thermophysical data. Measurement and Modeling of Isobaric Vapor-Liquid Equilibrium of Water + Glycols
Source: J. Chem. Eng. Data, 2018, 10.1021/acs.jced.7b00945
Compound 1: 1,2-ethanediol, C2H6O2, InChI=1S/C2H6O2/c3-1-2-4/h3-4H,1-2H2, purity 99.5%
Compound 2: diethylene glycol, C4H10O3, InChI=1S/C4H10O3/c5-1-3-7-4-2-6/h5-6H,1-4H2, purity 99%
Compound 3: triethylene glycol, C6H14O4, InChI=1S/C6H14O4/c7-1-3-9-5-6-10-4-2-8/h7-8H,1-6H2, purity 99%
Compound 4: tetraethylene glycol, C8H18O5, InChI=1S/C8H18O5/c9-1-3-11-5-7-13-8-6-12-4-2-10/h9-10H,1-8H2, purity 99%
Compound 5: water, H2O, InChI=1S/H2O/h1H2, purity 99.9%

System: water; phases: Liquid
Fixed: Temperature, K = 303
Fixed: Pressure, kPa = 100
Property: Refractive index (Na D-line) (Liquid); method: Standard Abbe refractometry
Refractive index (Na D-line)	uncertainty
1.33179	0.00032
1.33179	0.00032
1.33179	0.00032
1.33179	0.00032

System: water + 1,2-ethanediol; phases: Liquid, Gas
Property: Boiling temperature at pressure P, K (Liquid); method: Ebulliometric method (Recirculating still)
Pressure, kPa	Mole fraction of water	Boiling temperature at pressure P, K	uncertainty
100	0.999	372.6	2.06
100	0.983	373.35	2.06
100	0.966	374.11	2.06
100	0.958	374.67	2.06
100	0.923	375.61	2.06
100	0.88	377.15	2.06
100	0.829	378.61	2.07
100	0.791	380.45	2.07
100	0.765	380.97	2.07
100	0.722	382.75	2.06
100	0.693	383.75	2.06
100	0.654	386.2	2.06
100	0.57	389.6	2.08
100	0.494	395.15	2.08
100	0.455	398.72	2.08
100	0.413	402.25	2.11
100	0.317	410.95	2.09
70	0.999	362.52	2.04
70	0.962	364.6	2.04
70	0.879	366.79	2.05
70	0.862	367.81	2.04
70	0.804	369.03	2.04
70	0.779	370.15	2.04
70	0.746	371.5	2.05
70	0.743	371.58	2.08
70	0.656	376.19	2.04
70	0.604	378.5	2.04
70	0.544	380.77	2.04
70	0.483	385.07	2.05
70	0.414	389.33	2.06
70	0.353	395.81	2.06
70	0.284	402.27	2.05
50	0.999	353.64	2.03
50	0.966	355.15	2.03
50	0.928	356.65	2.03
50	0.903	357.51	2.03
50	0.89	357.31	2.03
50	0.851	358.54	2.03
50	0.761	361.7	2.03
50	0.715	363.65	2.03
50	0.656	366.27	2.04
50	0.626	366.87	2.04
50	0.616	367.49	2.04
50	0.608	367.9	2.04
50	0.538	371.65	2.03
50	0.486	374.68	2.04
50	0.427	378.67	2.03
50	0.363	384.98	2.04
50	0.291	392.25	2.04

System: water + 1,2-ethanediol; phases: Liquid
Fixed: Temperature, K = 303
Fixed: Pressure, kPa = 100
Property: Refractive index (Na D-line) (Liquid); method: Standard Abbe refractometry
Mass fraction of water	Refractive index (Na D-line)	uncertainty
0.1	1.4196	0.00038
0.2	1.41005	0.00038
0.3	1.4008	0.00038
0.41	1.38994	0.00038
0.5	1.38106	0.00038
0.6	1.37126	0.00038
0.7	1.36074	0.00038
0.8	1.35122	0.00038
0.89	1.34168	0.00037
1	1.33179	0.00032

System: water + diethylene glycol; phases: Liquid, Gas
Property: Boiling temperature at pressure P, K (Liquid); method: Ebulliometric method (Recirculating still)
Pressure, kPa	Mole fraction of water	Boiling temperature at pressure P, K	uncertainty
100	0.998	372.6	2.06
100	0.989	373.2	2.06
100	0.979	373.72	2.06
100	0.961	375.15	2.06
100	0.918	376.19	2.06
100	0.89	376.71	2.04
100	0.856	377.17	2.05
100	0.799	380.14	2.07
100	0.775	381.31	2.07
100	0.759	382.4	2.07
100	0.711	383.93	2.07
100	0.696	383.68	2.06
100	0.658	385.91	2.07
100	0.644	387.39	2.07
100	0.562	393.37	2.09
100	0.489	398.4	2.12
100	0.385	409.6	2.17
100	0.321	419.09	2.18
100	0.246	429.6	2.14
70	0.998	362.52	2.05
70	0.98	363.73	2.04
70	0.951	364.82	2.04
70	0.911	365.91	2.04
70	0.874	368.25	2.04
70	0.874	367.05	2.04
70	0.794	369.95	2.03
70	0.719	372.6	2.04
70	0.683	374.37	2.04
70	0.661	376.34	2.04
70	0.66	375.52	2.04
70	0.614	377.37	2.05
70	0.589	379.09	2.05
70	0.496	385.08	2.06
70	0.356	397.65	2.07
70	0.318	402.77	2.1
70	0.259	413.67	2.1
70	0.19	424.56	2.1
50	0.998	353.64	2.03
50	0.964	355.4	2.03
50	0.933	356.25	2.03
50	0.89	358.15	2.03
50	0.863	359.28	2.03
50	0.793	362.15	2.02
50	0.683	364.95	2.03
50	0.657	366.3	2.03
50	0.627	367.64	2.03
50	0.627	367.64	2.03
50	0.609	368.57	2.03
50	0.511	374.35	2.03
50	0.455	378.72	2.04
50	0.363	387.5	2.04
50	0.305	395.36	2.05
50	0.239	403.18	2.11
50	0.227	405.63	2.11

System: water + diethylene glycol; phases: Liquid
Fixed: Temperature, K = 303
Fixed: Pressure, kPa = 100
Property: Refractive index (Na D-line) (Liquid); method: Standard Abbe refractometry
Mass fraction of water	Refractive index (Na D-line)	uncertainty
0.11	1.43408	0.00043
0.2	1.42406	0.00042
0.3	1.41341	0.00041
0.41	1.40107	0.00042
0.5	1.38922	0.00041
0.6	1.37817	0.0004
0.7	1.36617	0.0004
0.8	1.35413	0.0004
0.9	1.34259	0.00039
1	1.33179	0.00032

System: water + triethylene glycol; phases: Liquid, Gas
Property: Boiling temperature at pressure P, K (Liquid); method: Ebulliometric method (Recirculating still)
Pressure, kPa	Mole fraction of water	Boiling temperature at pressure P, K	uncertainty
100	0.984	373.62	2.05
100	0.969	373.9	2.06
100	0.965	374.47	2.09
100	0.94	375.25	2.06
100	0.924	375.7	2.1
100	0.921	375.88	2.06
100	0.871	377.91	2.06
100	0.849	378.31	2.06
100	0.826	379.18	2.06
100	0.777	381.73	2.07
100	0.746	383.25	2.08
100	0.692	386.87	2.07
100	0.621	390.44	2.07
100	0.6	392.66	2.08
100	0.55	396.85	2.1
100	0.491	401.01	2.11
100	0.405	411.58	2.11
100	0.354	420.64	2.12
70	0.987	364.38	2.04
70	0.974	363.83	2.04
70	0.958	364.67	2.04
70	0.937	365.45	2.04
70	0.918	366.07	2.04
70	0.897	366.65	2.04
70	0.865	367.95	2.04
70	0.823	369.2	2.04
70	0.804	369.85	2.04
70	0.753	371.85	2.04
70	0.71	374.65	2.05
70	0.656	377.39	2.05
70	0.601	381.32	2.05
70	0.533	385.24	2.06
70	0.455	393.15	2.06
70	0.339	410.8	2.08
50	0.974	355.04	2.03
50	0.96	355.65	2.03
50	0.939	356.13	2.03
50	0.927	356.56	2.03
50	0.915	356.91	2.03
50	0.87	358.86	2.03
50	0.801	360.77	2.03
50	0.78	361.79	2.03
50	0.752	363.25	2.03
50	0.716	364.79	2.03
50	0.706	365.69	2.04
50	0.644	368.6	2.03
50	0.543	374.33	2.04
50	0.492	378.79	2.04
50	0.435	387.2	2.13
50	0.43	388.7	2.13
50	0.367	395.52	2.06

System: water + triethylene glycol; phases: Liquid
Fixed: Temperature, K = 303
Fixed: Pressure, kPa = 100
Property: Refractive index (Na D-line) (Liquid); method: Standard Abbe refractometry
Mass fraction of water	Refractive index (Na D-line)	uncertainty
0.1	1.44204	0.00042
0.21	1.43047	0.00042
0.3	1.41992	0.00042
0.41	1.40643	0.00043
0.5	1.39413	0.00042
0.6	1.38175	0.00042
0.7	1.36838	0.00041
0.8	1.35616	0.0004
0.9	1.34378	0.0004
1	1.33179	0.00032

System: water + tetraethylene glycol; phases: Liquid, Gas
Property: Boiling temperature at pressure P, K (Liquid); method: Ebulliometric method (Recirculating still)
Pressure, kPa	Mole fraction of water	Boiling temperature at pressure P, K	uncertainty
100	0.989	373.5	2.06
100	0.956	374.6	2.06
100	0.935	375.45	2.06
100	0.908	376.27	2.06
100	0.875	377.57	2.06
100	0.845	378.79	2.06
100	0.821	379.7	2.06
100	0.796	381.37	2.06
100	0.764	382.9	2.06
100	0.71	385.86	2.06
100	0.648	389.26	2.06
100	0.615	392.23	2.08
100	0.552	397.51	2.06
70	0.988	363.6	2.04
70	0.963	364.38	2.03
70	0.941	365.04	2.04
70	0.906	366.2	2
70	0.884	367.03	2.04
70	0.858	368.22	2.04
70	0.832	369.22	2.04
70	0.792	371.23	2.04
70	0.765	373.48	2.04
70	0.751	373.21	2.04
70	0.683	377.46	2.04
70	0.657	379.56	2.04
70	0.608	381.9	2.04
70	0.589	385.25	2.08
50	0.989	354.9	2.03
50	0.948	356.65	2.02
50	0.919	357.65	2.02
50	0.878	358.64	2.02
50	0.849	360.05	2.03
50	0.811	361.35	2.03
50	0.751	364.26	2.03
50	0.663	368.95	2.03
50	0.631	372.37	2.03
50	0.601	374.86	2.02
50	0.562	376.71	2.03

System: water + tetraethylene glycol; phases: Liquid
Fixed: Temperature, K = 303
Fixed: Pressure, kPa = 100
Property: Refractive index (Na D-line) (Liquid); method: Standard Abbe refractometry
Mass fraction of water	Refractive index (Na D-line)	uncertainty
0.1	1.44579	0.00042
0.21	1.43414	0.00042
0.3	1.42239	0.00043
0.4	1.40949	0.00043
0.5	1.39626	0.00042
0.6	1.38394	0.00043
0.7	1.3693	0.00043
0.79	1.35757	0.00041
0.89	1.34468	0.0004
1	1.33179	0.00032
