Measured thermophysical data. Measurement and Correlation of Liquid Liquid Equilibria for the Ternary Systems of Water + d-Fructose + 1-Butanol, Water + d-Glucose + 1-Butanol, and Water + d-Galactose + 1-Butanol at (288.2, 303.2 and 318.2) K
Source: J. Chem. Eng. Data, 2017, 10.1021/acs.jced.7b00302
Compound 1: D-fructose, C6H12O6, InChI=1S/C6H12O6/c7-1-3(9)5(11)6(12)4(10)2-8/h3,5-9,11-12H,1-2H2/t3-,5-,6-/m1/s1, purity 99.4%
Compound 2: D-glucose, C6H12O6, InChI=1S/C6H12O6/c7-1-3(9)5(11)6(12)4(10)2-8/h1,3-6,8-12H,2H2/t3-,4+,5+,6+/m0/s1, purity 99.8%
Compound 3: (+)-galactose, C6H12O6, InChI=1S/C6H12O6/c7-1-3(9)5(11)6(12)4(10)2-8/h1,3-6,8-12H,2H2/t3-,4+,5+,6-/m0/s1, purity 99%
Compound 4: water, H2O, InChI=1S/H2O/h1H2, purity 99.9%
Compound 5: butan-1-ol, C4H10O, InChI=1S/C4H10O/c1-2-3-4-5/h5H,2-4H2,1H3, purity 99.5%

System: water + D-fructose + butan-1-ol; phases: Liquid mixture 1, Liquid mixture 2
Fixed: Pressure, kPa = 100
Property: Mass fraction of D-fructose (Liquid mixture 1); method: OTHER
Property: Mass fraction of D-fructose (Liquid mixture 2); method: OTHER
Property: Mass fraction of water (Liquid mixture 2); method: OTHER
Temperature, K	Mass fraction of water	Mass fraction of D-fructose	uncertainty	Mass fraction of D-fructose	uncertainty	Mass fraction of water	uncertainty
288.2	0.2033	0		0		0.9223	
288.2	0.1408	0.0088	0.0025	0.3319	0.024	0.6404	
288.2	0.1288	0.0114	0.0023	0.4145	0.0249	0.5645	
303.2	0.1174	0.0144	0.0021	0.4896	0.0251	0.501	
288.2	0.117	0.0125	0.0022	0.4919	0.0258	0.4998	
288.2	0.0899	0.0141	0.0019	0.6103	0.0231	0.388	
303.2	0.0862	0.018	0.0023	0.6677	0.0242	0.3307	
288.2	0.0763	0.0152	0.0019	0.6639	0.0226	0.3341	
303.2	0.1807	0.0051	0.0031	0.126	0.023	0.8123	
303.2	0.167	0.0089	0.0026	0.2366	0.0247	0.7212	
303.2	0.1408	0.0118	0.0021	0.3289	0.0243	0.644	
318.2	0.1506	0.0117	0.0021	0.3343	0.0237	0.6398	
303.2	0.1314	0.0126	0.0021	0.4158	0.0247	0.5628	
303.2	0.1046	0.0154	0.0022	0.5571	0.0236	0.4344	
318.2	0.1077	0.0167	0.0021	0.5538	0.0243	0.439	
303.2	0.0972	0.0166	0.002	0.6124	0.0238	0.3798	
318.2	0.2182	0		0		0.9334	
288.2	0.1797	0.0034	0.0023	0.125	0.024	0.8164	
318.2	0.1841	0.0056	0.0029	0.127	0.024	0.8315	
318.2	0.1695	0.01	0.0027	0.2359	0.0231	0.7304	
318.2	0.1382	0.0142	0.0021	0.4167	0.0245	0.5639	
288.2	0.1036	0.0131	0.0018	0.5518	0.0242	0.4459	
318.2	0.1149	0.0157	0.002	0.485	0.025	0.5028	
318.2	0.1024	0.0176	0.0025	0.6163	0.0236	0.3799	
303.2	0.2067	0		0		0.9294	
318.2	0.0946	0.0187	0.0025	0.6692	0.023	0.3286	
288.2	0.1556	0.0065	0.0024	0.2353	0.0243	0.7265	

System: water + D-glucose + butan-1-ol; phases: Liquid mixture 2, Liquid mixture 1
Fixed: Pressure, kPa = 100
Property: Mass fraction of D-glucose (Liquid mixture 2); method: OTHER
Property: Mass fraction of D-glucose (Liquid mixture 1); method: OTHER
Property: Mass fraction of water (Liquid mixture 1); method: OTHER
Temperature, K	Mass fraction of water	Mass fraction of D-glucose	uncertainty	Mass fraction of D-glucose	uncertainty	Mass fraction of water	uncertainty
288.2	0.8195	0.128	0.022	0.0032	0.0016	0.1823	
318.2	0.4387	0.555	0.0235	0.0096	0.0011	0.1074	
318.2	0.3867	0.6102	0.0226	0.0101	0.001	0.0937	
288.2	0.7164	0.238	0.0239	0.0052	0.0014	0.1636	
318.2	0.3259	0.6684	0.0214	0.0106	0.0011	0.0892	
288.2	0.6482	0.3262	0.0255	0.0065	0.0011	0.1427	
288.2	0.5718	0.4147	0.024	0.0071	0.001	0.1271	
288.2	0.4973	0.4898	0.0235	0.008	0.0011	0.115	
303.2	0.8112	0.1293	0.0245	0.0039	0.0016	0.1769	
303.2	0.7258	0.2386	0.0251	0.0058	0.0012	0.1619	
303.2	0.6445	0.3325	0.0247	0.0064	0.0009	0.1429	
303.2	0.4981	0.493	0.0239	0.0077	0.001	0.1151	
303.2	0.5745	0.4148	0.0242	0.0071	0.001	0.1244	
303.2	0.4396	0.554	0.0234	0.0081	0.001	0.1099	
303.2	0.3822	0.6121	0.0227	0.0085	0.0009	0.0941	
318.2	0.8162	0.1311	0.0259	0.004	0.0018	0.183	
318.2	0.7313	0.2408	0.025	0.006	0.0016	0.1668	
318.2	0.6483	0.3346	0.0233	0.0076	0.0011	0.1481	
318.2	0.5689	0.4152	0.0237	0.0081	0.0009	0.1281	
318.2	0.5044	0.4879	0.0244	0.0086	0.0011	0.1143	

System: water + (+)-galactose + butan-1-ol; phases: Liquid mixture 2, Liquid mixture 1
Fixed: Pressure, kPa = 100
Property: Mass fraction of (+)-galactose (Liquid mixture 2); method: OTHER
Property: Mass fraction of (+)-galactose (Liquid mixture 1); method: OTHER
Property: Mass fraction of water (Liquid mixture 1); method: OTHER
Temperature, K	Mass fraction of water	Mass fraction of (+)-galactose	uncertainty	Mass fraction of (+)-galactose	uncertainty	Mass fraction of water	uncertainty
288.2	0.8217	0.126	0.017	0.0017	0.0011	0.1835	
318.2	0.8322	0.1285	0.0177	0.003	0.0013	0.1868	
318.2	0.7312	0.2343	0.0181	0.0061	0.0011	0.1611	
318.2	0.6377	0.3321	0.0197	0.007	0.001	0.1415	
318.2	0.574	0.4134	0.0219	0.008	0.0011	0.1301	
288.2	0.7162	0.2341	0.0191	0.0036	0.001	0.1648	
288.2	0.6481	0.3258	0.022	0.0045	0.0009	0.1465	
303.2	0.812	0.128	0.018	0.0024	0.0009	0.1838	
303.2	0.7206	0.2351	0.0197	0.0035	0.001	0.163	
303.2	0.6414	0.3309	0.0207	0.0047	0.0009	0.1476	
303.2	0.5762	0.4129	0.0217	0.0054	0.0009	0.127	

System: water + butan-1-ol; phases: Liquid mixture 2, Liquid mixture 1
Fixed: Pressure, kPa = 100
Property: Mass fraction of water (Liquid mixture 2); method: OTHER
Temperature, K	Mass fraction of water	uncertainty
288.2	0.9223	0.0161
303.2	0.9294	0.0161
318.2	0.9334	0.0161

System: water + butan-1-ol; phases: Liquid mixture 1, Liquid mixture 2
Fixed: Pressure, kPa = 100
Property: Mass fraction of water (Liquid mixture 1); method: OTHER
Temperature, K	Mass fraction of water	uncertainty
288.2	0.2033	0.0128
303.2	0.2067	0.0128
318.2	0.2182	0.0129
