Measured thermophysical data. Measurement and Correlation of the Solubility of Florfenicol Form A in Several Pure and Binary Solvents
Source: J. Chem. Eng. Data, 2018, 10.1021/acs.jced.8b00043
Compound 1: florfenicol, C12H14Cl2FNO4S, InChI=1S/C12H14Cl2FNO4S/c1-21(19,20)8-4-2-7(3-5-8)10(17)9(6-15)16-12(18)11(13)14/h2-5,9-11,17H,6H2,1H3,(H,16,18)/t9-,10-/m1/s1, purity 98%
Compound 2: ethanol, C2H6O, InChI=1S/C2H6O/c1-2-3/h3H,2H2,1H3, purity 99.5%
Compound 3: propan-1-ol, C3H8O, InChI=1S/C3H8O/c1-2-3-4/h4H,2-3H2,1H3, purity 99.8%
Compound 4: butan-1-ol, C4H10O, InChI=1S/C4H10O/c1-2-3-4-5/h5H,2-4H2,1H3, purity 99.5%
Compound 5: propan-2-ol, C3H8O, InChI=1S/C3H8O/c1-3(2)4/h3-4H,1-2H3, purity 99.7%
Compound 6: 2-methyl-1-propanol, C4H10O, InChI=1S/C4H10O/c1-4(2)3-5/h4-5H,3H2,1-2H3, purity 99%
Compound 7: 3-methylbutan-1-ol, C5H12O, InChI=1S/C5H12O/c1-5(2)3-4-6/h5-6H,3-4H2,1-2H3, purity 98.5%
Compound 8: 2-ethyl-1-hexanol, C8H18O, InChI=1S/C8H18O/c1-3-5-6-8(4-2)7-9/h8-9H,3-7H2,1-2H3, purity 99.5%
Compound 9: propanoic acid, C3H6O2, InChI=1S/C3H6O2/c1-2-3(4)5/h2H2,1H3,(H,4,5), purity 99.5%
Compound 10: dimethyl sulfoxide, C2H6OS, InChI=1S/C2H6OS/c1-4(2)3/h1-2H3, purity 99.5%

System: florfenicol; phases: Crystal 1, Liquid, Air at 1 atmosphere
Property: Normal melting temperature, K (Crystal 1); method: DTA
Normal melting temperature, K	uncertainty
425.15	1.06

System: florfenicol; phases: Crystal 1, Liquid, Air at 1 atmosphere
Property: Molar enthalpy of transition or fusion, kJ/mol (Crystal 1); method: DSC
Molar enthalpy of transition or fusion, kJ/mol	uncertainty
18.98	1.94

System: florfenicol + ethanol; phases: Liquid, Crystal 1
Fixed: Pressure, kPa = 101.3
Property: Mole fraction of florfenicol (Liquid); method: gravimetric
Temperature, K	Mole fraction of florfenicol	uncertainty
283.15	0.00151	6.1e-05
288.15	0.001963	7.9e-05
293.15	0.002435	9.8e-05
298.15	0.003093	0.000125
303.15	0.003695	0.000149
308.15	0.004612	0.000186
313.15	0.005623	0.000227
318.15	0.007023	0.000283
323.15	0.008417	0.000338

System: florfenicol + propan-1-ol; phases: Liquid, Crystal 1
Fixed: Pressure, kPa = 101.3
Property: Mole fraction of florfenicol (Liquid); method: gravimetric
Temperature, K	Mole fraction of florfenicol	uncertainty
283.15	0.0009742	3.94e-05
288.15	0.001245	5e-05
293.15	0.001653	6.7e-05
298.15	0.002152	8.7e-05
303.15	0.002688	0.000109
308.15	0.003586	0.000145
313.15	0.004366	0.000176
318.15	0.005632	0.000227
323.15	0.007122	0.000287
303.15	0.002687	0.000109

System: florfenicol + butan-1-ol; phases: Liquid, Crystal 1
Fixed: Pressure, kPa = 101.3
Property: Mole fraction of florfenicol (Liquid); method: gravimetric
Temperature, K	Mole fraction of florfenicol	uncertainty
283.15	0.0005123	2.07e-05
288.15	0.0006482	2.61e-05
293.15	0.0008212	3.32e-05
298.15	0.00112	4.5e-05
303.15	0.001398	5.6e-05
308.15	0.001827	7.4e-05
313.15	0.002358	9.5e-05
318.15	0.003016	0.000122
323.15	0.003852	0.000155

System: florfenicol + propan-2-ol; phases: Liquid, Crystal 1
Fixed: Pressure, kPa = 101.3
Property: Mole fraction of florfenicol (Liquid); method: gravimetric
Temperature, K	Mole fraction of florfenicol	uncertainty
283.15	0.0006097	2.46e-05
288.15	0.0007605	3.07e-05
293.15	0.001008	4.1e-05
298.15	0.001333	5.4e-05
303.15	0.001692	6.8e-05
308.15	0.002182	8.8e-05
313.15	0.002778	0.000112
318.15	0.003633	0.000147
323.15	0.004572	0.000184

System: florfenicol + 2-methyl-1-propanol; phases: Liquid, Crystal 1
Fixed: Pressure, kPa = 101.3
Property: Mole fraction of florfenicol (Liquid); method: gravimetric
Temperature, K	Mole fraction of florfenicol	uncertainty
283.15	0.0002932	1.19e-05
288.15	0.0003852	1.56e-05
293.15	0.0004969	2e-05
298.15	0.0006127	2.48e-05
303.15	0.0008192	3.31e-05
308.15	0.001045	4.2e-05
313.15	0.001368	5.5e-05
318.15	0.001703	6.9e-05
323.15	0.002239	9e-05

System: florfenicol + 3-methylbutan-1-ol; phases: Liquid, Crystal 1
Fixed: Pressure, kPa = 101.3
Property: Mole fraction of florfenicol (Liquid); method: gravimetric
Temperature, K	Mole fraction of florfenicol	uncertainty
283.15	0.0004867	1.96e-05
288.15	0.0005862	2.36e-05
293.15	0.0007653	3.09e-05
298.15	0.0009591	3.87e-05
303.15	0.001233	5e-05
308.15	0.001492	6e-05
313.15	0.00191	7.7e-05
318.15	0.00238	9.6e-05
323.15	0.002854	0.000115

System: florfenicol + 2-ethyl-1-hexanol; phases: Liquid, Crystal 1
Fixed: Pressure, kPa = 101.3
Property: Mole fraction of florfenicol (Liquid); method: gravimetric
Temperature, K	Mole fraction of florfenicol	uncertainty
283.15	0.0001833	7.5e-06
288.15	0.0002541	1.03e-05
293.15	0.0003193	1.29e-05
298.15	0.0003826	1.55e-05
303.15	0.000521	2.1e-05
308.15	0.0006353	2.56e-05
313.15	0.0008127	3.28e-05
318.15	0.001026	4.1e-05
323.15	0.001286	5.2e-05

System: florfenicol + propanoic acid; phases: Liquid, Crystal 1
Fixed: Pressure, kPa = 101.3
Property: Mole fraction of florfenicol (Liquid); method: gravimetric
Temperature, K	Mole fraction of florfenicol	uncertainty
283.15	0.0002703	1.09e-05
288.15	0.000347	1.4e-05
293.15	0.0004475	1.81e-05
298.15	0.0005621	2.27e-05
303.15	0.0007303	2.95e-05
308.15	0.0009614	3.88e-05
313.15	0.001226	5e-05
318.15	0.001603	6.5e-05
323.15	0.002105	8.5e-05

System: florfenicol + dimethyl sulfoxide + ethanol; phases: Liquid, Crystal 1
Fixed: Pressure, kPa = 101.3
Property: Mole fraction of florfenicol (Liquid); method: gravimetric
Solvent: Mass fraction of dimethyl sulfoxide	Temperature, K	Mole fraction of florfenicol	uncertainty
0	283.15	0.00151	6.1e-05
0	288.15	0.001963	7.9e-05
0	293.15	0.002435	9.8e-05
0	298.15	0.003093	0.000125
0	303.15	0.003695	0.000149
0	308.15	0.004612	0.000186
0	313.15	0.005623	0.000227
0	318.15	0.007023	0.000283
0	323.15	0.008417	0.000338
0.075	283.15	0.003941	0.000247
0.075	288.15	0.00512	0.000296
0.075	293.15	0.00624	0.000362
0.075	298.15	0.007522	0.000433
0.075	303.15	0.009133	0.000526
0.075	308.15	0.01123	0.00063
0.075	313.15	0.01337	0.00075
0.075	318.15	0.01635	0.0009
0.075	323.15	0.01905	0.00106
0.1	283.15	0.006015	0.00059
0.1	288.15	0.007033	0.000632
0.1	293.15	0.00863	0.000712
0.1	298.15	0.01053	0.00084
0.1	303.15	0.01264	0.00097
0.1	308.15	0.01506	0.00109
0.1	313.15	0.01801	0.00131
0.1	318.15	0.02163	0.00149
0.1	323.15	0.0254	0.00217
0.125	283.15	0.008563	0.000926
0.125	288.15	0.009825	0.00097
0.125	293.15	0.01142	0.0011
0.125	298.15	0.01352	0.00118
0.125	303.15	0.01601	0.00133
0.125	308.15	0.01883	0.00151
0.125	313.15	0.02245	0.00172
0.125	318.15	0.02643	0.00194
0.125	323.15	0.03156	0.00227
0.15	283.15	0.01175	0.00137
0.15	288.15	0.01294	0.0015
0.15	293.15	0.01526	0.0017
0.15	298.15	0.01753	0.00192
0.15	303.15	0.02043	0.00208
0.15	308.15	0.02375	0.00233
0.15	313.15	0.02781	0.00257
0.15	318.15	0.03249	0.00289
0.15	323.15	0.03796	0.00321
0.2	283.15	0.01922	0.00195
0.2	288.15	0.02139	0.00227
0.2	293.15	0.02442	0.00246
0.2	298.15	0.02813	0.00277
0.2	303.15	0.03169	0.00306
0.2	308.15	0.03626	0.00338
0.2	313.15	0.04141	0.00374
0.2	318.15	0.04767	0.00418
0.2	323.15	0.0548	0.0046

System: florfenicol + dimethyl sulfoxide + propan-1-ol; phases: Liquid, Crystal 1
Fixed: Pressure, kPa = 101.3
Property: Mole fraction of florfenicol (Liquid); method: gravimetric
Solvent: Mass fraction of dimethyl sulfoxide	Temperature, K	Mole fraction of florfenicol	uncertainty
0	283.15	0.0009742	3.94e-05
0	288.15	0.001245	5e-05
0	293.15	0.001653	6.7e-05
0	298.15	0.002152	8.7e-05
0	303.15	0.002687	0.000109
0	308.15	0.003586	0.000145
0	313.15	0.004366	0.000176
0	318.15	0.005632	0.000227
0	323.15	0.007122	0.000287
0.075	283.15	0.002584	0.00017
0.075	288.15	0.00321	0.0002
0.075	293.15	0.003953	0.000239
0.075	298.15	0.005141	0.000292
0.075	303.15	0.006232	0.000355
0.075	308.15	0.007493	0.000411
0.075	313.15	0.009245	0.000499
0.075	318.15	0.01147	0.0006
0.075	323.15	0.01386	0.00072
0.1	283.15	0.004236	0.000336
0.1	288.15	0.00512	0.0005
0.1	293.15	0.006046	0.000584
0.1	298.15	0.007126	0.000646
0.1	303.15	0.008754	0.000745
0.1	308.15	0.01027	0.00089
0.1	313.15	0.01216	0.00096
0.1	318.15	0.01475	0.00117
0.1	323.15	0.01756	0.00142
0.125	283.15	0.006106	0.000805
0.125	288.15	0.007003	0.000989
0.125	293.15	0.00838	0.001096
0.125	298.15	0.009965	0.001261
0.125	303.15	0.0117	0.00142
0.125	308.15	0.01402	0.00159
0.125	313.15	0.0161	0.0018
0.125	318.15	0.01987	0.00202
0.125	323.15	0.02362	0.00234
0.15	283.15	0.009348	0.001259
0.15	288.15	0.01144	0.00142
0.15	293.15	0.013	0.00154
0.15	298.15	0.0151	0.00172
0.15	303.15	0.01766	0.00195
0.15	308.15	0.02016	0.00211
0.15	313.15	0.02339	0.00235
0.15	318.15	0.02712	0.00262
0.15	323.15	0.03181	0.00297
0.2	283.15	0.0161	0.00174
0.2	288.15	0.01837	0.00182
0.2	293.15	0.02069	0.00207
0.2	298.15	0.02363	0.0023
0.2	303.15	0.02713	0.00252
0.2	308.15	0.03062	0.00283
0.2	313.15	0.03457	0.00313
0.2	318.15	0.04001	0.00353
0.2	323.15	0.04612	0.0039

System: florfenicol + dimethyl sulfoxide + butan-1-ol; phases: Liquid, Crystal 1
Fixed: Pressure, kPa = 101.3
Property: Mole fraction of florfenicol (Liquid); method: gravimetric
Solvent: Mass fraction of dimethyl sulfoxide	Temperature, K	Mole fraction of florfenicol	uncertainty
0	283.15	0.0005123	2.07e-05
0	288.15	0.0006482	2.61e-05
0	293.15	0.0008212	3.32e-05
0	298.15	0.00112	4.5e-05
0	303.15	0.001398	5.6e-05
0	308.15	0.001827	7.4e-05
0	313.15	0.002358	9.5e-05
0	318.15	0.003016	0.000122
0	323.15	0.003852	0.000155
0.075	283.15	0.002445	0.000171
0.075	288.15	0.002988	0.000198
0.075	293.15	0.003525	0.00023
0.075	298.15	0.004341	0.000276
0.075	303.15	0.005287	0.000326
0.075	308.15	0.006219	0.000386
0.075	313.15	0.007765	0.00047
0.075	318.15	0.009584	0.000563
0.075	323.15	0.01173	0.00069
0.1	283.15	0.003797	0.00041
0.1	288.15	0.004383	0.000488
0.1	293.15	0.005035	0.000526
0.1	298.15	0.00614	0.000623
0.1	303.15	0.00709	0.000708
0.1	308.15	0.008631	0.000815
0.1	313.15	0.01047	0.00093
0.1	318.15	0.01226	0.00107
0.1	323.15	0.01537	0.00136
0.125	283.15	0.005643	0.000776
0.125	288.15	0.00678	0.000921
0.125	293.15	0.007573	0.001035
0.125	298.15	0.009108	0.001172
0.125	303.15	0.01069	0.00134
0.125	308.15	0.01236	0.00149
0.125	313.15	0.01465	0.00163
0.125	318.15	0.01754	0.00194
0.125	323.15	0.02076	0.00209
0.15	283.15	0.008743	0.001056
0.15	288.15	0.01025	0.00111
0.15	293.15	0.01163	0.00126
0.15	298.15	0.01356	0.00139
0.15	303.15	0.01557	0.00155
0.15	308.15	0.01801	0.00171
0.15	313.15	0.02061	0.00192
0.15	318.15	0.02433	0.00214
0.15	323.15	0.02812	0.00248
0.2	283.15	0.01401	0.00138
0.2	288.15	0.01553	0.00146
0.2	293.15	0.01765	0.00163
0.2	298.15	0.02011	0.00179
0.2	303.15	0.02286	0.00198
0.2	308.15	0.0257	0.00219
0.2	313.15	0.02956	0.00249
0.2	318.15	0.03391	0.00275
0.2	323.15	0.03938	0.00313
