Measured thermophysical data. Gaseous Absorption of trans-1-Chloro-3,3,3-trifluoropropene in Three Immidazolium-Based Ionic Liquids
Source: J. Chem. Eng. Data, 2018, 10.1021/acs.jced.8b00110
Compound 1: (E)-1-chloro-3,3,3-trifluoroprop-1-ene, C3H2ClF3, InChI=1S/C3H2ClF3/c4-2-1-3(5,6)7/h1-2H/b2-1+, purity 99.9%
Compound 2: 1-hexyl-3-methylimidazolium bis[(trifluoromethyl)sulfonyl]imide, C12H19F6N3O4S2, InChI=1S/C10H19N2.C2F6NO4S2/c1-3-4-5-6-7-12-9-8-11(2)10-12;3-1(4,5)14(10,11)9-15(12,13)2(6,7)8/h8-10H,3-7H2,1-2H3;/q+1;-1, purity 99%
Compound 3: 1-hexyl-3-methylimidazolium trifluoromethanesulfonate, C11H19F3N2O3S, InChI=1S/C10H19N2.CHF3O3S/c1-3-4-5-6-7-12-9-8-11(2)10-12;2-1(3,4)8(5,6)7/h8-10H,3-7H2,1-2H3;(H,5,6,7)/q+1;/p-1, purity 99%
Compound 4: 1-hexyl-3-methylimidazolium tetrafluoroborate, C10H19BF4N2, InChI=1S/C10H19N2.BF4/c1-3-4-5-6-7-12-9-8-11(2)10-12;2-1(3,4)5/h8-10H,3-7H2,1-2H3;/q+1;-1, purity 99%

System: (E)-1-chloro-3,3,3-trifluoroprop-1-ene + 1-hexyl-3-methylimidazolium bis[(trifluoromethyl)sulfonyl]imide; phases: Liquid, Gas
Property: Mole fraction of (E)-1-chloro-3,3,3-trifluoroprop-1-ene (Liquid); method: Phase equilibration
Temperature, K	Pressure, kPa	Mole fraction of (E)-1-chloro-3,3,3-trifluoroprop-1-ene	uncertainty
303.24	9	0.014	0.001
303.16	20	0.027	0.001
303.15	32	0.045	0.002
303.33	48	0.068	0.003
303.12	64	0.092	0.004
303.23	81	0.113	0.005
313.15	10	0.014	0.001
313.13	22	0.026	0.001
313.15	36	0.042	0.002
313.13	53	0.065	0.003
313.15	71	0.089	0.004
313.13	90	0.109	0.004
323.16	12	0.012	0.001
323.15	25	0.024	0.001
323.15	41	0.04	0.002
323.17	60	0.062	0.003
323.15	81	0.084	0.003
323.15	102	0.104	0.004
333.16	14	0.011	0.001
333.17	29	0.022	0.001
333.16	47	0.037	0.002
333.17	68	0.058	0.002
333.16	92	0.079	0.003
333.18	115	0.098	0.004
343.16	17	0.01	0.001
343.16	33	0.02	0.001
343.16	53	0.034	0.001
343.17	78	0.054	0.002
343.17	104	0.074	0.003
343.15	130	0.092	0.004

System: (E)-1-chloro-3,3,3-trifluoroprop-1-ene + 1-hexyl-3-methylimidazolium bis[(trifluoromethyl)sulfonyl]imide; phases: Liquid, Gas
Fixed: Mole fraction of (E)-1-chloro-3,3,3-trifluoroprop-1-ene = 0.05
Property: Binary diffusion coefficient, m2/s (Liquid); method: phase equilibration
Temperature, K	Binary diffusion coefficient, m2/s	uncertainty
303.2	2.9e-10	0.02
313.1	3.8e-10	0.03
323.2	4.1e-10	0.03
333.2	5.7e-10	0.04
343.2	8.3e-10	0.06

System: (E)-1-chloro-3,3,3-trifluoroprop-1-ene + 1-hexyl-3-methylimidazolium trifluoromethanesulfonate; phases: Liquid, Gas
Property: Mole fraction of (E)-1-chloro-3,3,3-trifluoroprop-1-ene (Liquid); method: Phase equilibration
Temperature, K	Pressure, kPa	Mole fraction of (E)-1-chloro-3,3,3-trifluoroprop-1-ene	uncertainty
303.22	9	0.011	0.001
303.45	22	0.028	0.001
303.15	36	0.047	0.002
303.15	51	0.066	0.003
303.15	66	0.084	0.003
303.15	81	0.103	0.004
313.15	11	0.01	0.001
313.15	25	0.026	0.001
313.17	41	0.044	0.002
313.15	58	0.062	0.003
313.12	75	0.08	0.003
313.13	93	0.099	0.004
323.15	13	0.009	0.001
323.19	29	0.024	0.001
323.18	48	0.042	0.002
323.16	67	0.059	0.002
323.15	85	0.076	0.003
323.15	107	0.093	0.004
333.17	16	0.007	0.001
333.15	34	0.022	0.001
333.18	55	0.038	0.002
333.17	78	0.054	0.002
333.16	99	0.07	0.003
333.15	122	0.088	0.004
343.15	19	0.006	0.001
343.15	39	0.02	0.001
343.15	64	0.035	0.002
343.15	89	0.05	0.002
343.17	113	0.065	0.003
343.15	139	0.081	0.003

System: (E)-1-chloro-3,3,3-trifluoroprop-1-ene + 1-hexyl-3-methylimidazolium trifluoromethanesulfonate; phases: Liquid, Gas
Fixed: Mole fraction of (E)-1-chloro-3,3,3-trifluoroprop-1-ene = 0.05
Property: Binary diffusion coefficient, m2/s (Liquid); method: phase equilibration
Temperature, K	Binary diffusion coefficient, m2/s	uncertainty
303.2	5.2e-10	0.04
313.1	7.8e-10	0.05
323.2	1.04e-09	0.07
333.2	1.69e-09	0.12
343.2	2.62e-09	0.18

System: (E)-1-chloro-3,3,3-trifluoroprop-1-ene + 1-hexyl-3-methylimidazolium tetrafluoroborate; phases: Liquid, Gas
Property: Mole fraction of (E)-1-chloro-3,3,3-trifluoroprop-1-ene (Liquid); method: Phase equilibration
Temperature, K	Pressure, kPa	Mole fraction of (E)-1-chloro-3,3,3-trifluoroprop-1-ene	uncertainty
303.24	7	0.007	0.001
303.07	18	0.018	0.001
303.28	32	0.033	0.001
303.17	50	0.05	0.002
303.35	65	0.065	0.003
303.13	83	0.081	0.003
313.15	8	0.006	0.001
313.12	21	0.017	0.001
313.15	37	0.031	0.001
313.15	57	0.047	0.002
313.13	75	0.062	0.003
313.15	95	0.077	0.003
323.15	9	0.006	0.001
323.15	24	0.016	0.001
323.15	43	0.029	0.001
323.16	66	0.044	0.002
323.15	86	0.058	0.002
323.16	109	0.072	0.003
333.17	11	0.005	0.001
333.16	28	0.015	0.001
333.16	50	0.027	0.001
333.16	75	0.041	0.002
333.23	97	0.054	0.002
333.17	125	0.067	0.003
343.19	13	0.004	0.001
343.15	32	0.013	0.001
343.17	57	0.024	0.001
343.16	86	0.037	0.002
343.18	111	0.05	0.002
343.18	142	0.062	0.003

System: (E)-1-chloro-3,3,3-trifluoroprop-1-ene + 1-hexyl-3-methylimidazolium tetrafluoroborate; phases: Liquid, Gas
Fixed: Mole fraction of (E)-1-chloro-3,3,3-trifluoroprop-1-ene = 0.05
Property: Binary diffusion coefficient, m2/s (Liquid); method: phase equilibration
Temperature, K	Binary diffusion coefficient, m2/s	uncertainty
303.2	3.3e-10	0.02
313.1	4.6e-10	0.03
323.2	6.1e-10	0.04
333.2	9.6e-10	0.07
343.2	1.68e-09	0.12
