Measured thermophysical data. Solubility Measurement and Thermodynamic Model Correlation of 5-Nitrosalicylaldehyde in Different Solvents
Source: J. Chem. Eng. Data, 2019, 10.1021/acs.jced.9b00232
Compound 1: 2-hydroxy-5-nitrobenzaldehyde, C7H5NO4, InChI=1S/C7H5NO4/c9-4-5-3-6(8(11)12)1-2-7(5)10/h1-4,10H, purity 99.6%
Compound 2: methanol, CH4O, InChI=1S/CH4O/c1-2/h2H,1H3, purity 99.7%
Compound 3: ethanol, C2H6O, InChI=1S/C2H6O/c1-2-3/h3H,2H2,1H3, purity 99.5%
Compound 4: propan-1-ol, C3H8O, InChI=1S/C3H8O/c1-2-3-4/h4H,2-3H2,1H3, purity 99.4%
Compound 5: propan-2-ol, C3H8O, InChI=1S/C3H8O/c1-3(2)4/h3-4H,1-2H3, purity 99.5%
Compound 6: butan-1-ol, C4H10O, InChI=1S/C4H10O/c1-2-3-4-5/h5H,2-4H2,1H3, purity 99.5%
Compound 7: acetone, C3H6O, InChI=1S/C3H6O/c1-3(2)4/h1-2H3, purity 99.6%
Compound 8: cyclohexanone, C6H10O, InChI=1S/C6H10O/c7-6-4-2-1-3-5-6/h1-5H2, purity 99.6%
Compound 9: toluene, C7H8, InChI=1S/C7H8/c1-7-5-3-2-4-6-7/h2-6H,1H3, purity 99.5%
Compound 10: ethyl acetate, C4H8O2, InChI=1S/C4H8O2/c1-3-6-4(2)5/h3H2,1-2H3, purity 99.4%
Compound 11: acetonitrile, C2H3N, InChI=1S/C2H3N/c1-2-3/h1H3, purity 99.6%
Compound 12: 1,4-dioxane, C4H8O2, InChI=1S/C4H8O2/c1-2-6-4-3-5-1/h1-4H2, purity 99.6%
Compound 13: water, H2O, InChI=1S/H2O/h1H2, purity 99.8%

System: 2-hydroxy-5-nitrobenzaldehyde + methanol; phases: Liquid, Crystal
Fixed: Pressure, kPa = 101.2
Property: Mole fraction of 2-hydroxy-5-nitrobenzaldehyde (Liquid); method: Chromatography
Temperature, K	Mole fraction of 2-hydroxy-5-nitrobenzaldehyde	uncertainty
273.15	0.004509	0.000424
278.15	0.004773	0.000449
283.15	0.005074	0.000477
288.15	0.005387	0.000507
293.15	0.005728	0.000539
298.15	0.006093	0.000573
303.15	0.006448	0.000606
308.15	0.006834	0.000643
313.15	0.007271	0.000684

System: 2-hydroxy-5-nitrobenzaldehyde + ethanol; phases: Liquid, Crystal
Fixed: Pressure, kPa = 101.2
Property: Mole fraction of 2-hydroxy-5-nitrobenzaldehyde (Liquid); method: Chromatography
Temperature, K	Mole fraction of 2-hydroxy-5-nitrobenzaldehyde	uncertainty
273.15	0.003358	0.000316
278.15	0.003517	0.000331
283.15	0.003738	0.000351
288.15	0.003966	0.000373
293.15	0.004161	0.000391
298.15	0.0044	0.0004
303.15	0.004666	0.000439
308.15	0.004935	0.000464
313.15	0.005178	0.000487

System: 2-hydroxy-5-nitrobenzaldehyde + propan-1-ol; phases: Liquid, Crystal
Fixed: Pressure, kPa = 101.2
Property: Mole fraction of 2-hydroxy-5-nitrobenzaldehyde (Liquid); method: Chromatography
Temperature, K	Mole fraction of 2-hydroxy-5-nitrobenzaldehyde	uncertainty
273.15	0.001588	0.000149
278.15	0.001774	0.000167
283.15	0.001981	0.000186
288.15	0.002238	0.00021
293.15	0.002479	0.000233
298.15	0.002757	0.000259
303.15	0.00308	0.00029
308.15	0.003398	0.00032
313.15	0.003739	0.000352

System: 2-hydroxy-5-nitrobenzaldehyde + propan-2-ol; phases: Liquid, Crystal
Fixed: Pressure, kPa = 101.2
Property: Mole fraction of 2-hydroxy-5-nitrobenzaldehyde (Liquid); method: Chromatography
Temperature, K	Mole fraction of 2-hydroxy-5-nitrobenzaldehyde	uncertainty
273.15	0.002094	0.000197
278.15	0.002251	0.000212
283.15	0.002439	0.000229
288.15	0.002646	0.000249
293.15	0.002869	0.00027
298.15	0.003104	0.000292
303.15	0.003342	0.000314
308.15	0.003605	0.000339
313.15	0.003892	0.000366

System: 2-hydroxy-5-nitrobenzaldehyde + butan-1-ol; phases: Liquid, Crystal
Fixed: Pressure, kPa = 101.2
Property: Mole fraction of 2-hydroxy-5-nitrobenzaldehyde (Liquid); method: Chromatography
Temperature, K	Mole fraction of 2-hydroxy-5-nitrobenzaldehyde	uncertainty
273.15	0.001233	0.000116
278.15	0.001361	0.000128
283.15	0.001519	0.000143
288.15	0.001679	0.000158
293.15	0.001848	0.000174
298.15	0.00203	0.00019
303.15	0.002226	0.000209
308.15	0.00244	0.00023
313.15	0.00266	0.00025

System: 2-hydroxy-5-nitrobenzaldehyde + acetonitrile; phases: Liquid, Crystal
Fixed: Pressure, kPa = 101.2
Property: Mole fraction of 2-hydroxy-5-nitrobenzaldehyde (Liquid); method: Chromatography
Temperature, K	Mole fraction of 2-hydroxy-5-nitrobenzaldehyde	uncertainty
273.15	0.008995	0.000846
278.15	0.009505	0.000894
283.15	0.01006	0.00095
288.15	0.01063	0.001
293.15	0.01124	0.00106
298.15	0.0119	0.0011
303.15	0.01258	0.00118
308.15	0.01328	0.00125
313.15	0.01399	0.00132

System: 2-hydroxy-5-nitrobenzaldehyde + acetone; phases: Liquid, Crystal
Fixed: Pressure, kPa = 101.2
Property: Mole fraction of 2-hydroxy-5-nitrobenzaldehyde (Liquid); method: Chromatography
Temperature, K	Mole fraction of 2-hydroxy-5-nitrobenzaldehyde	uncertainty
273.15	0.02557	0.0024
278.15	0.02747	0.00258
283.15	0.02943	0.00277
288.15	0.03181	0.00299
293.15	0.03426	0.00322
298.15	0.03666	0.00345
303.15	0.03924	0.00369
308.15	0.04185	0.00393
313.15	0.04492	0.00422

System: 2-hydroxy-5-nitrobenzaldehyde + cyclohexanone; phases: Liquid, Crystal
Fixed: Pressure, kPa = 101.2
Property: Mole fraction of 2-hydroxy-5-nitrobenzaldehyde (Liquid); method: Chromatography
Temperature, K	Mole fraction of 2-hydroxy-5-nitrobenzaldehyde	uncertainty
273.15	0.01326	0.00125
278.15	0.01421	0.00134
283.15	0.01527	0.00144
288.15	0.01623	0.00153
293.15	0.01729	0.00163
298.15	0.01836	0.00173
303.15	0.01943	0.00183
308.15	0.02056	0.00193
313.15	0.02173	0.00204

System: 2-hydroxy-5-nitrobenzaldehyde + ethyl acetate; phases: Liquid, Crystal
Fixed: Pressure, kPa = 101.2
Property: Mole fraction of 2-hydroxy-5-nitrobenzaldehyde (Liquid); method: Chromatography
Temperature, K	Mole fraction of 2-hydroxy-5-nitrobenzaldehyde	uncertainty
273.15	0.01843	0.00173
278.15	0.01968	0.00185
283.15	0.02091	0.00197
288.15	0.0223	0.0021
293.15	0.02362	0.00222
298.15	0.02513	0.00236
303.15	0.02675	0.00252
308.15	0.02846	0.00268
313.15	0.03039	0.00286

System: 2-hydroxy-5-nitrobenzaldehyde + 1,4-dioxane; phases: Liquid, Crystal
Fixed: Pressure, kPa = 101.2
Property: Mole fraction of 2-hydroxy-5-nitrobenzaldehyde (Liquid); method: Chromatography
Temperature, K	Mole fraction of 2-hydroxy-5-nitrobenzaldehyde	uncertainty
288.15	0.02707	0.00255
293.15	0.02847	0.00268
298.15	0.02976	0.0028
303.15	0.03134	0.00295
308.15	0.03297	0.0031
313.15	0.03478	0.00327

System: 2-hydroxy-5-nitrobenzaldehyde + toluene; phases: Liquid, Crystal
Fixed: Pressure, kPa = 101.2
Property: Mole fraction of 2-hydroxy-5-nitrobenzaldehyde (Liquid); method: Chromatography
Temperature, K	Mole fraction of 2-hydroxy-5-nitrobenzaldehyde	uncertainty
273.15	0.0118	0.0011
278.15	0.01263	0.00119
283.15	0.01353	0.00127
288.15	0.01452	0.00137
293.15	0.01557	0.00146
298.15	0.01673	0.00157
303.15	0.01793	0.00169
308.15	0.01929	0.00181
313.15	0.02058	0.00194

System: 2-hydroxy-5-nitrobenzaldehyde + water; phases: Liquid, Crystal
Fixed: Pressure, kPa = 101.2
Property: Mole fraction of 2-hydroxy-5-nitrobenzaldehyde (Liquid); method: Chromatography
Temperature, K	Mole fraction of 2-hydroxy-5-nitrobenzaldehyde	uncertainty
273.15	2.857e-05	5.72e-06
278.15	4.038e-05	8.08e-06
283.15	5.343e-05	1.069e-05
288.15	6.657e-05	1.332e-05
293.15	8.068e-05	1.614e-05
298.15	9.498e-05	1.9e-05
303.15	0.0001098	2.2e-05
308.15	0.0001272	2.54e-05
313.15	0.0001454	2.91e-05
