Measured thermophysical data. Liquid Density of 2 Methoxyethyl Acetate, 2 Ethylhexyl Acetate and Diethyl Succinate at Temperatures from 283.15 K to 363.15 K and Pressures up to 100 MPa
Source: J. Chem. Eng. Data, 2015, 10.1021/acs.jced.5b00385
Compound 1: 2-ethylhexyl acetate, C10H20O2, InChI=1S/C10H20O2/c1-4-6-7-10(5-2)8-12-9(3)11/h10H,4-8H2,1-3H3, purity 99%
Compound 2: 2-methoxyethyl ethanoate, C5H10O3, InChI=1S/C5H10O3/c1-5(6)8-4-3-7-2/h3-4H2,1-2H3, purity 99%
Compound 3: diethyl butanedioate, C8H14O4, InChI=1S/C8H14O4/c1-3-11-7(9)5-6-8(10)12-4-2/h3-6H2,1-2H3, purity 99%
Compound 4: 1,1,1,2-tetrafluoroethane, C2H2F4, InChI=1S/C2H2F4/c3-1-2(4,5)6/h1H2, purity 99.9%

System: 2-ethylhexyl acetate; phases: Liquid
Property: Mass density, kg/m3 (Liquid); method: Vibrating tube method
Temperature, K	Pressure, kPa	Mass density, kg/m3	uncertainty
283.46	100	880.38	0.91
283.46	1000	881.05	0.91
283.47	3000	882.48	0.91
283.47	5000	883.9	0.91
283.48	10000	887.37	0.92
283.48	15000	890.63	0.93
283.48	20000	893.87	0.94
283.48	25000	896.91	0.95
283.47	30000	899.95	0.95
283.46	40000	905.65	0.97
283.46	50000	911.06	0.99
283.46	60000	916.18	1
283.46	70000	921.22	1.02
283.45	80000	925.84	1.03
283.45	90000	930.33	1.05
283.45	100000	934.63	1.07
293.46	100	871.89	0.9
293.44	1000	872.61	0.9
293.44	3000	874.12	0.9
293.45	5000	875.6	0.91
293.45	10000	879.24	0.92
293.45	15000	882.73	0.92
293.45	20000	886.08	0.93
293.45	25000	889.32	0.94
293.45	30000	892.46	0.95
293.45	40000	898.43	0.97
293.46	50000	904.07	0.99
293.45	60000	909.42	1
293.45	70000	914.46	1.02
293.45	80000	919.33	1.04
293.46	90000	923.91	1.06
293.45	100000	928.38	1.08
303.41	100	862.94	0.89
303.38	1000	863.7	0.89
303.39	3000	865.32	0.89
303.4	5000	866.89	0.9
303.4	10000	870.7	0.91
303.39	15000	874.36	0.92
303.4	20000	877.88	0.93
303.4	25000	881.31	0.94
303.4	30000	884.55	0.95
303.39	40000	890.82	0.97
303.4	50000	896.67	0.98
303.4	60000	902.22	1
303.4	70000	907.5	1.02
303.4	80000	912.5	1.04
303.4	90000	917.28	1.06
303.41	100000	921.87	1.09
313.34	100	854.53	0.88
313.34	1000	855.28	0.88
313.34	3000	857.04	0.89
313.34	5000	858.73	0.89
313.34	10000	862.77	0.9
313.34	15000	866.66	0.91
313.34	20000	870.34	0.92
313.34	25000	873.92	0.93
313.34	30000	877.34	0.94
313.34	40000	883.88	0.96
313.34	50000	889.98	0.98
313.34	60000	895.7	1
313.34	70000	901.14	1.02
313.34	80000	906.27	1.05
313.35	90000	911.19	1.07
313.34	100000	915.93	1.09
323.15	100	845.74	0.87
323.16	1000	846.56	0.87
323.16	3000	848.36	0.88
323.16	5000	850.14	0.88
323.16	10000	854.42	0.89
323.17	15000	858.49	0.91
323.17	20000	862.39	0.92
323.16	25000	866.13	0.93
323.16	30000	869.71	0.94
323.16	40000	876.47	0.96
323.15	50000	882.8	0.98
323.15	60000	888.76	1
323.15	70000	894.49	1.03
323.15	80000	899.83	1.05
323.15	90000	904.91	1.07
323.15	100000	909.78	1.1
332.99	100	836.98	0.86
333	1000	837.85	0.87
333	3000	839.78	0.87
333	5000	841.66	0.88
333	10000	846.16	0.89
333	15000	850.47	0.9
333	20000	854.55	0.91
333	25000	858.45	0.92
333.01	30000	862.21	0.93
333.01	40000	869.27	0.96
333.01	50000	875.85	0.98
333.01	60000	882.02	1.01
333.01	70000	888.07	1.03
333.01	80000	893.58	1.05
333.01	90000	898.82	1.08
333.01	100000	903.81	1.11
342.95	100	828.32	0.86
342.96	1000	829.27	0.86
342.96	3000	831.31	0.86
342.96	5000	833.3	0.87
342.96	10000	838.06	0.88
342.96	15000	842.59	0.89
342.96	20000	846.9	0.91
342.97	25000	851	0.92
342.97	30000	854.91	0.93
342.97	40000	862.31	0.96
342.97	50000	869.15	0.98
342.97	60000	875.57	1.01
342.97	70000	881.64	1.03
342.97	80000	887.28	1.06
342.97	90000	892.73	1.09
342.97	100000	897.85	1.12
352.78	100	819.64	0.85
352.79	1000	820.65	0.85
352.79	3000	822.83	0.86
352.79	5000	824.93	0.86
352.79	10000	830	0.87
352.79	15000	834.75	0.89
352.79	20000	839.27	0.9
352.79	25000	843.56	0.91
352.79	30000	847.66	0.93
352.79	40000	855.34	0.96
352.79	50000	862.46	0.98
352.79	60000	869.08	1.01
352.79	70000	875.42	1.04
352.8	80000	881.29	1.06
352.79	90000	886.84	1.09
352.79	100000	892.14	1.12
362.64	100	810.91	0.84
362.64	1000	811.97	0.84
362.64	3000	814.28	0.85
362.64	5000	816.51	0.85
362.64	10000	821.85	0.87
362.64	15000	826.87	0.88
362.64	20000	831.61	0.9
362.64	25000	836.09	0.91
362.64	30000	840.38	0.92
362.65	40000	848.4	0.95
362.64	50000	855.78	0.98
362.64	60000	862.65	1.01
362.64	70000	869.14	1.04
362.64	80000	875.25	1.07
362.64	90000	880.97	1.1
362.64	100000	886.45	1.13

System: 2-methoxyethyl ethanoate; phases: Liquid
Property: Mass density, kg/m3 (Liquid); method: Vibrating tube method
Temperature, K	Pressure, kPa	Mass density, kg/m3	uncertainty
283.47	100	1015.98	1.04
283.47	1000	1016.6	1.04
283.47	3000	1018.02	1.04
283.47	5000	1019.43	1.04
283.47	10000	1022.82	1.05
283.48	15000	1026.12	1.05
283.47	20000	1029.33	1.06
283.47	25000	1032.44	1.07
283.47	30000	1035.47	1.07
283.47	40000	1041.29	1.08
283.47	50000	1046.81	1.1
283.47	60000	1052.11	1.12
283.47	70000	1057.33	1.14
283.47	80000	1062.12	1.16
283.48	90000	1066.8	1.19
283.47	100000	1071.34	1.22
293.45	100	1005.18	1.03
293.45	1000	1005.85	1.03
293.45	3000	1007.33	1.03
293.45	5000	1008.8	1.03
293.45	10000	1012.42	1.04
293.45	15000	1015.91	1.04
293.45	20000	1019.32	1.05
293.45	25000	1022.58	1.05
293.45	30000	1025.8	1.06
293.45	40000	1031.92	1.07
293.45	50000	1037.72	1.09
293.45	60000	1043.26	1.1
293.45	70010	1048.51	1.12
293.46	80010	1053.61	1.15
293.45	90000	1058.45	1.17
293.46	100000	1063.15	1.2
303.37	100	993.64	1.02
303.38	1000	994.33	1.02
303.38	3000	995.95	1.02
303.37	5000	997.55	1.02
303.38	10000	1001.38	1.02
303.38	15000	1005.07	1.03
303.38	20000	1008.68	1.03
303.37	25000	1012.15	1.04
303.38	30000	1015.48	1.04
303.38	40000	1021.92	1.06
303.38	50000	1027.99	1.07
303.38	60000	1033.79	1.09
303.38	70000	1039.34	1.11
303.38	80000	1044.62	1.13
303.37	90010	1049.67	1.15
303.38	100000	1054.53	1.19
313.29	100	982.6	1
313.3	1000	983.35	1.01
313.3	3000	985.09	1.01
313.3	5000	986.8	1.01
313.3	10000	990.88	1.01
313.3	15000	994.81	1.02
313.29	20000	998.59	1.02
313.28	25000	1002.26	1.03
313.3	30000	1005.78	1.03
313.3	40000	1012.55	1.04
313.3	50000	1018.92	1.06
313.3	60000	1024.91	1.07
313.3	70000	1030.73	1.09
313.3	80000	1036.18	1.11
313.3	90000	1041.42	1.14
313.3	100000	1046.43	1.17
323.14	100	971.53	0.99
323.14	1000	972.34	0.99
323.14	3000	974.16	1
323.15	5000	975.96	1
323.15	10000	980.29	1
323.15	15000	984.47	1.01
323.15	20000	988.47	1.01
323.15	25000	992.34	1.02
323.16	30000	996.08	1.02
323.16	40000	1003.14	1.03
323.16	50000	1009.8	1.04
323.16	60000	1016.1	1.06
323.15	70000	1022.15	1.08
323.15	80000	1027.84	1.1
323.15	90000	1033.26	1.12
323.15	100000	1038.48	1.15
333.01	100	960.32	0.98
333.01	1000	961.21	0.98
333.01	3000	963.17	0.99
333.02	5000	965.08	0.99
333.02	10000	969.69	0.99
333.02	15000	974.13	1
333.02	20000	978.36	1
333.02	25000	982.46	1.01
333.02	30000	986.35	1.01
333.02	40000	993.79	1.02
333.01	50000	1000.75	1.03
333.01	60000	1007.3	1.05
333.02	70000	1013.7	1.06
333.02	80000	1019.56	1.08
333.02	90000	1025.22	1.11
333.02	100000	1030.6	1.14
342.88	100	948.92	0.97
342.87	1000	949.88	0.97
342.88	3000	951.95	0.98
342.89	5000	953.98	0.98
342.89	10000	958.88	0.98
342.89	15000	963.56	0.99
342.89	20000	968.04	1
342.89	25000	972.33	1
342.9	30000	976.44	1.01
342.9	40000	984.26	1.01
342.9	50000	991.52	1.02
342.9	60000	998.35	1.03
342.9	70000	1005.1	1.05
342.9	80010	1011.23	1.07
342.9	90000	1017.07	1.1
342.9	100000	1022.63	1.13
352.79	100	937.57	0.96
352.79	1000	938.6	0.96
352.79	3000	940.86	0.97
352.79	5000	943.03	0.97
352.77	10000	948.28	0.98
352.77	15000	953.26	0.98
352.77	20000	958	0.99
352.78	25000	962.53	0.99
352.78	30000	966.88	1
352.78	40000	975.07	1.01
352.78	50000	982.69	1.02
352.78	60000	989.8	1.03
352.79	70000	996.7	1.04
352.79	80000	1003.07	1.06
352.79	90000	1009.1	1.08
352.79	100000	1014.88	1.12
362.64	100	926.12	0.95
362.64	1000	927.21	0.95
362.64	3000	929.6	0.95
362.64	5000	931.91	0.96
362.65	10000	937.52	0.97
362.64	15000	942.8	0.97
362.65	20000	947.84	0.98
362.65	25000	952.6	0.99
362.65	30000	957.19	0.99
362.65	40000	965.79	1
362.64	50000	973.78	1.02
362.65	60000	981.22	1.03
362.65	70000	988.32	1.04
362.65	80000	994.92	1.06
362.65	90000	1001.16	1.07
362.65	100000	1007.15	1.11

System: diethyl butanedioate; phases: Liquid
Property: Mass density, kg/m3 (Liquid); method: Vibrating tube method
Temperature, K	Pressure, kPa	Mass density, kg/m3	uncertainty
283.57	100	1049.61	1.08
283.57	1000	1050.21	1.08
283.57	3000	1051.56	1.08
283.57	5000	1052.88	1.08
283.57	10000	1056.11	1.09
283.57	15000	1059.25	1.1
283.58	20000	1062.29	1.1
283.58	25000	1065.25	1.11
283.57	30000	1068.16	1.12
283.57	40000	1073.71	1.14
283.57	50000	1079	1.16
283.57	60000	1084.1	1.18
283.57	70000	1089.01	1.21
283.57	80000	1093.63	1.24
283.57	90010	1098.12	1.27
283.56	100010	1102.48	1.31
293.49	100	1039.78	1.07
293.5	1000	1040.41	1.07
293.5	3000	1041.81	1.07
293.5	5000	1043.2	1.07
293.5	10000	1046.6	1.08
293.5	15000	1049.91	1.08
293.49	20000	1053.11	1.09
293.49	25000	1056.23	1.1
293.5	30000	1059.25	1.11
293.49	40000	1065.07	1.12
293.5	50000	1070.61	1.14
293.49	60000	1075.9	1.16
293.5	70000	1080.89	1.19
293.5	80000	1085.77	1.22
293.51	90000	1090.39	1.25
293.51	100000	1094.9	1.29
303.42	100	1028.98	1.05
303.42	1000	1029.62	1.06
303.43	3000	1031.12	1.06
303.43	5000	1032.59	1.06
303.44	10000	1036.15	1.07
303.43	15000	1039.61	1.07
303.42	20000	1042.98	1.08
303.42	25000	1046.26	1.08
303.43	30000	1049.4	1.09
303.43	40000	1055.5	1.11
303.43	50000	1061.26	1.13
303.42	60000	1066.78	1.15
303.42	70000	1072.05	1.17
303.42	80000	1077.09	1.2
303.43	90000	1081.92	1.23
303.43	100000	1086.58	1.27
313.33	100	1018.75	1.04
313.33	1000	1019.44	1.04
313.33	3000	1021.07	1.05
313.32	5000	1022.61	1.05
313.32	10000	1026.44	1.05
313.31	15000	1030.05	1.06
313.33	20000	1033.63	1.07
313.33	25000	1037.06	1.07
313.32	30000	1040.39	1.08
313.32	40000	1046.78	1.09
313.31	50000	1052.81	1.11
313.33	60000	1058.52	1.13
313.33	70000	1064.01	1.16
313.33	80000	1069.21	1.18
313.33	90000	1074.2	1.21
313.33	100000	1078.99	1.25
323.18	100	1008.44	1.03
323.18	1000	1009.19	1.03
323.18	3000	1010.86	1.03
323.19	5000	1012.5	1.04
323.18	10000	1016.52	1.04
323.18	15000	1020.37	1.05
323.18	20000	1024.08	1.05
323.18	25000	1027.7	1.06
323.19	30000	1031.17	1.07
323.19	40000	1037.8	1.08
323.19	50000	1044.06	1.1
323.19	60000	1050.01	1.12
323.19	70000	1055.67	1.14
323.19	80000	1061.06	1.17
323.19	90000	1066.22	1.19
323.19	100000	1071.19	1.23
333.1	100	998.31	1.02
333.1	1000	999.11	1.02
333.1	3000	1000.91	1.02
333.1	5000	1002.64	1.02
333.11	10000	1006.85	1.03
333.11	15000	1010.94	1.04
333.11	20000	1014.85	1.04
333.11	25000	1018.62	1.05
333.11	30000	1022.27	1.05
333.11	40000	1029.2	1.07
333.11	50000	1035.72	1.08
333.11	60000	1041.91	1.1
333.11	70000	1047.69	1.12
333.11	80000	1053.26	1.15
333.11	90000	1058.57	1.18
333.11	100000	1063.7	1.21
342.97	100	987.87	1.01
342.98	1000	988.73	1.01
342.98	3000	990.63	1.01
342.98	5000	992.45	1.01
342.98	10000	996.91	1.02
342.97	15000	1001.22	1.02
342.97	20000	1005.3	1.03
342.98	25000	1009.24	1.03
342.97	30000	1013.07	1.04
342.97	40000	1020.32	1.05
342.97	50000	1027.1	1.07
342.98	60000	1033.53	1.09
342.97	70000	1039.64	1.11
342.98	80000	1045.43	1.13
342.97	90000	1050.91	1.16
342.97	100000	1056.19	1.2
352.82	100	977.64	1
352.82	1000	978.58	1
352.82	3000	980.59	1
352.82	5000	982.53	1.01
352.82	10000	987.26	1.01
352.82	15000	991.79	1.01
352.83	20000	996.08	1.02
352.83	25000	1000.24	1.02
352.83	30000	1004.25	1.03
352.83	40000	1011.8	1.04
352.83	50000	1018.87	1.06
352.83	60000	1025.54	1.08
352.83	70000	1031.82	1.1
352.83	80000	1037.81	1.12
352.83	90000	1043.47	1.15
352.83	100010	1048.95	1.18
362.66	100	967.3	0.99
362.66	1000	968.28	0.99
362.66	3000	970.41	0.99
362.67	5000	972.48	1
362.67	10000	977.45	1
362.67	15000	982.21	1.01
362.67	20000	986.74	1.01
362.67	25000	991.07	1.02
362.67	30000	995.26	1.02
362.67	40000	1003.16	1.03
362.67	50000	1010.5	1.05
362.66	60000	1017.41	1.06
362.67	70000	1023.98	1.08
362.67	80000	1030.14	1.11
362.67	90000	1036.01	1.14
362.67	100000	1041.65	1.17

System: 1,1,1,2-tetrafluoroethane; phases: Liquid
Property: Mass density, kg/m3 (Liquid); method: Vibrating tube method
Temperature, K	Pressure, kPa	Mass density, kg/m3	uncertainty
283.46	1000	1262.57	0.38
283.46	5000	1279.58	0.4
283.47	10000	1298.12	0.44
283.47	20000	1329.18	0.54
283.47	40000	1377.11	0.84
283.47	60000	1414.44	1.23
283.47	80000	1445.46	1.72
303.38	1000	1188.07	0.37
303.38	5000	1212.13	0.38
303.37	10000	1236.85	0.42
303.37	20000	1275.77	0.5
303.38	40000	1332.36	0.78
303.38	60000	1374.64	1.15
303.38	80000	1408.98	1.68
323.15	3000	1119.19	0.37
323.16	5000	1136.38	0.37
323.16	10000	1170.84	0.4
323.16	20000	1220.65	0.48
323.16	40000	1287.71	0.75
323.16	60000	1335.49	1.09
323.16	80000	1373.39	1.69
342.97	3000	1014.76	0.36
342.97	5000	1045.25	0.36
342.98	10000	1097.42	0.39
342.98	20000	1162.91	0.46
342.98	40000	1242.75	0.73
342.99	60000	1296.65	1.06
342.98	80000	1338.34	1.74
362.68	5000	922.4	0.36
362.68	10000	1013.83	0.4
362.68	20000	1102.6	0.47
362.68	40000	1197.86	0.73
362.68	60000	1258.47	1.05
362.68	80000	1304.15	1.83
