Measured thermophysical data. Solubility of Trimethoprim in Selected Pure Solvents and (Water + Ethanol/2-Propanol) Mixed-Solvent Systems
Source: J. Chem. Eng. Data, 2016, 10.1021/acs.jced.5b00616
Compound 1: 5-[(3,4,5-trimethoxyphenyl)methyl]-2,4-pyrimidinediamine, C14H18N4O3, InChI=1S/C14H18N4O3/c1-19-10-5-8(6-11(20-2)12(10)21-3)4-9-7-17-14(16)18-13(9)15/h5-7H,4H2,1-3H3,(H4,15,16,17,18), purity 99.9%
Compound 2: ethanol, C2H6O, InChI=1S/C2H6O/c1-2-3/h3H,2H2,1H3, purity 99.7%
Compound 3: ethyl acetate, C4H8O2, InChI=1S/C4H8O2/c1-3-6-4(2)5/h3H2,1-2H3, purity 99.5%
Compound 4: acetonitrile, C2H3N, InChI=1S/C2H3N/c1-2-3/h1H3, purity 99.9%
Compound 5: propan-2-ol, C3H8O, InChI=1S/C3H8O/c1-3(2)4/h3-4H,1-2H3, purity 99.7%
Compound 6: water, H2O, InChI=1S/H2O/h1H2

System: ethanol + 5-[(3,4,5-trimethoxyphenyl)methyl]-2,4-pyrimidinediamine; phases: Liquid, Crystal
Fixed: Pressure, kPa = 100
Property: Mole fraction of 5-[(3,4,5-trimethoxyphenyl)methyl]-2,4-pyrimidinediamine (Liquid); method: ultraviolet spectrophotometer
Temperature, K	Mole fraction of 5-[(3,4,5-trimethoxyphenyl)methyl]-2,4-pyrimidinediamine	uncertainty
293.15	0.00070974	2.87e-05
298.45	0.00091973	3.705e-05
303.45	0.00111738	4.497e-05
308.15	0.0013411	5.411e-05
312.95	0.00173243	6.995e-05
318.65	0.0022619	9.156e-05
322.65	0.00304341	0.00012346

System: ethyl acetate + 5-[(3,4,5-trimethoxyphenyl)methyl]-2,4-pyrimidinediamine; phases: Liquid, Crystal
Fixed: Pressure, kPa = 100
Property: Mole fraction of 5-[(3,4,5-trimethoxyphenyl)methyl]-2,4-pyrimidinediamine (Liquid); method: ultraviolet spectrophotometer
Temperature, K	Mole fraction of 5-[(3,4,5-trimethoxyphenyl)methyl]-2,4-pyrimidinediamine	uncertainty
293.15	0.00027627	1.112e-05
298.45	0.00033184	1.334e-05
303.45	0.0003978	1.601e-05
308.15	0.00048134	1.94e-05
312.95	0.00060567	2.442e-05
318.65	0.00077341	3.12e-05
322.65	0.00096573	3.898e-05

System: propan-2-ol + 5-[(3,4,5-trimethoxyphenyl)methyl]-2,4-pyrimidinediamine; phases: Liquid, Crystal
Fixed: Pressure, kPa = 100
Property: Mole fraction of 5-[(3,4,5-trimethoxyphenyl)methyl]-2,4-pyrimidinediamine (Liquid); method: ultraviolet spectrophotometer
Temperature, K	Mole fraction of 5-[(3,4,5-trimethoxyphenyl)methyl]-2,4-pyrimidinediamine	uncertainty
293.15	0.00022656	9.16e-06
298.45	0.00029368	1.193e-05
303.45	0.00043376	1.756e-05
308.15	0.00054346	2.204e-05
312.95	0.00076374	3.099e-05
318.65	0.00106434	4.314e-05
322.65	0.00141064	5.716e-05

System: 5-[(3,4,5-trimethoxyphenyl)methyl]-2,4-pyrimidinediamine + water; phases: Liquid, Crystal
Fixed: Pressure, kPa = 100
Property: Mole fraction of 5-[(3,4,5-trimethoxyphenyl)methyl]-2,4-pyrimidinediamine (Liquid); method: ultraviolet spectrophotometer
Temperature, K	Mole fraction of 5-[(3,4,5-trimethoxyphenyl)methyl]-2,4-pyrimidinediamine	uncertainty
293.15	1.996e-05	1.996e-05
298.45	2.485e-05	2.485e-05
303.45	3.018e-05	3.018e-05
308.15	3.676e-05	3.676e-05
312.95	4.682e-05	4.682e-05
318.65	6.053e-05	6.053e-05
322.65	7.143e-05	7.143e-05

System: acetonitrile + 5-[(3,4,5-trimethoxyphenyl)methyl]-2,4-pyrimidinediamine; phases: Liquid, Crystal
Fixed: Pressure, kPa = 100
Property: Mole fraction of 5-[(3,4,5-trimethoxyphenyl)methyl]-2,4-pyrimidinediamine (Liquid); method: ultraviolet spectrophotometer
Temperature, K	Mole fraction of 5-[(3,4,5-trimethoxyphenyl)methyl]-2,4-pyrimidinediamine	uncertainty
293.15	0.00035038	1.413e-05
298.45	0.0004366	1.758e-05
303.45	0.00053432	2.153e-05
308.15	0.00066419	2.676e-05
312.95	0.00080883	3.258e-05
318.65	0.00102581	4.135e-05
322.65	0.00126618	5.107e-05

System: ethanol + 5-[(3,4,5-trimethoxyphenyl)methyl]-2,4-pyrimidinediamine + water; phases: Liquid, Crystal
Fixed: Pressure, kPa = 100
Property: Mole fraction of 5-[(3,4,5-trimethoxyphenyl)methyl]-2,4-pyrimidinediamine (Liquid); method: ultraviolet spectrophotometer
Temperature, K	Solvent: Mass fraction of ethanol	Mole fraction of 5-[(3,4,5-trimethoxyphenyl)methyl]-2,4-pyrimidinediamine	uncertainty
293.15	0.1	5.39e-05	2.19e-06
298.45	0.1	6.181e-05	2.49e-06
303.45	0.1	8.101e-05	3.27e-06
308.15	0.1	0.00010049	4.05e-06
312.95	0.1	0.00012193	4.91e-06
318.65	0.1	0.00015737	6.38e-06
322.65	0.1	0.00021053	8.93e-06
293.15	0.2	0.00017409	6.99e-06
298.45	0.2	0.00021246	8.54e-06
303.45	0.2	0.00024376	9.8e-06
308.15	0.2	0.00028779	1.159e-05
312.95	0.2	0.00036295	1.46e-05
318.65	0.2	0.00044143	1.782e-05
322.65	0.2	0.0005434	2.337e-05
293.15	0.3	0.00047343	1.898e-05
298.45	0.3	0.00058145	2.337e-05
303.45	0.3	0.00066731	2.684e-05
308.15	0.3	0.00081021	3.271e-05
312.95	0.3	0.0010534	4.244e-05
318.65	0.3	0.00129933	5.235e-05
322.65	0.3	0.00159044	6.468e-05
293.15	0.4	0.00098269	3.995e-05
298.45	0.4	0.00118826	4.779e-05
303.45	0.4	0.00142804	5.742e-05
308.15	0.4	0.00167458	6.739e-05
312.95	0.4	0.00204228	8.221e-05
318.65	0.4	0.00251932	0.00010147
322.65	0.4	0.00310276	0.00012511
293.15	0.5	0.00102766	4.179e-05
298.45	0.5	0.0014101	5.703e-05
303.45	0.5	0.00184048	7.444e-05
308.15	0.5	0.00241201	9.731e-05
312.95	0.5	0.0029441	0.00011862
318.65	0.5	0.00374646	0.000151
322.65	0.5	0.0045878	0.00018497
293.15	0	1.996e-05	8e-07
298.45	0	2.485e-05	1e-06
303.45	0	3.018e-05	1.22e-06
308.15	0	3.676e-05	1.48e-06
312.95	0	4.682e-05	1.89e-06
318.65	0	6.053e-05	2.44e-06
322.65	0	7.143e-05	2.87e-06

System: propan-2-ol + 5-[(3,4,5-trimethoxyphenyl)methyl]-2,4-pyrimidinediamine + water; phases: Liquid, Crystal
Fixed: Pressure, kPa = 100
Property: Mole fraction of 5-[(3,4,5-trimethoxyphenyl)methyl]-2,4-pyrimidinediamine (Liquid); method: ultraviolet spectrophotometer
Temperature, K	Solvent: Mass fraction of propan-2-ol	Mole fraction of 5-[(3,4,5-trimethoxyphenyl)methyl]-2,4-pyrimidinediamine	uncertainty
293.15	0.1	6.522e-05	2.65e-06
298.45	0.1	9.505e-05	3.84e-06
303.45	0.1	0.00011851	4.78e-06
308.15	0.1	0.00014647	5.89e-06
312.95	0.1	0.0001733	6.97e-06
318.65	0.1	0.00022427	9.11e-06
322.65	0.1	0.00029721	1.307e-05
293.15	0.2	0.00027018	1.1e-05
298.45	0.2	0.00032538	1.313e-05
303.45	0.2	0.00043322	1.748e-05
308.15	0.2	0.00052812	2.126e-05
312.95	0.2	0.00063899	2.57e-05
318.65	0.2	0.00077882	3.139e-05
322.65	0.2	0.00095073	3.91e-05
293.15	0.3	0.00032704	1.323e-05
298.45	0.3	0.00048156	1.966e-05
303.45	0.3	0.00071709	2.932e-05
308.15	0.3	0.00105256	4.277e-05
312.95	0.3	0.00139891	5.647e-05
318.65	0.3	0.00179273	7.223e-05
322.65	0.3	0.00215176	8.695e-05
293.15	0.4	0.00054997	2.254e-05
298.45	0.4	0.00087677	3.577e-05
303.45	0.4	0.0012496	5.088e-05
308.15	0.4	0.00176234	7.148e-05
312.95	0.4	0.00231336	9.334e-05
318.65	0.4	0.00293049	0.00011813
322.65	0.4	0.00365479	0.00014706
293.15	0.5	0.00099836	4.08e-05
298.45	0.5	0.0014276	5.798e-05
303.45	0.5	0.00198816	8.04e-05
308.15	0.5	0.00250133	0.00010081
312.95	0.5	0.00304277	0.00012253
318.65	0.5	0.00382346	0.00015403
322.65	0.5	0.00465431	0.00018759
293.15	0	1.996e-05	8e-07
298.45	0	2.485e-05	1e-06
303.45	0	3.018e-05	1.22e-06
308.15	0	3.676e-05	1.48e-06
312.95	0	4.682e-05	1.89e-06
318.65	0	6.053e-05	2.44e-06
322.65	0	7.143e-05	2.87e-06
