Measured thermophysical data. Comparative Study of the Thermophysical Properties of 2-Ethylthiophene and 2-Ethylfuran
Source: J. Chem. Eng. Data, 2018, 10.1021/acs.jced.8b00153
Compound 1: 2-ethylthiophene, C6H8S, InChI=1S/C6H8S/c1-2-6-4-3-5-7-6/h3-5H,2H2,1H3, purity 99%
Compound 2: 2-ethylfuran, C6H8O, InChI=1S/C6H8O/c1-2-6-4-3-5-7-6/h3-5H,2H2,1H3, purity 99.5%

System: 2-ethylthiophene; phases: Liquid
Property: Mass density, kg/m3 (Liquid); method: Vibrating tube method
Temperature, K	Pressure, kPa	Mass density, kg/m3	uncertainty
283.15	100	1003.44	0.54
288.15	100	998.47	0.54
293.15	100	993.45	0.54
298.15	100	988.39	0.54
303.15	100	983.42	0.54
308.15	100	978.38	0.54
313.15	100	973.34	0.54
318.15	100	968.32	0.54
323.15	100	963.21	0.54
328.15	100	958.12	0.54
333.15	100	952.99	0.54
338.15	100	947.86	0.54
283.15	2000	1004.84	0.54
288.15	2000	999.91	0.54
293.15	2000	994.92	0.54
298.15	2000	989.91	0.54
303.15	2000	984.97	0.54
308.15	2000	979.99	0.54
313.15	2000	975	0.54
318.15	2000	970.02	0.54
323.15	2000	964.97	0.54
328.15	2000	959.94	0.54
333.15	2000	954.85	0.54
338.15	2000	949.78	0.54
283.15	5000	1007	0.54
288.15	5000	1002.13	0.54
293.15	5000	997.2	0.54
298.15	5000	992.26	0.54
303.15	5000	987.39	0.54
308.15	5000	982.48	0.54
313.15	5000	977.54	0.54
318.15	5000	972.64	0.54
323.15	5000	967.69	0.54
328.15	5000	962.71	0.54
333.15	5000	957.72	0.55
338.15	5000	952.72	0.55
283.15	7000	1008.42	0.55
288.15	7000	1003.59	0.54
293.15	7000	998.7	0.54
298.15	7000	993.8	0.54
303.15	7000	988.98	0.54
308.15	7000	984.11	0.54
313.15	7000	979.22	0.54
318.15	7000	974.36	0.54
323.15	7000	969.44	0.55
328.15	7000	964.53	0.55
333.15	7000	959.58	0.55
338.15	7000	954.65	0.55
283.15	10000	1010.51	0.55
288.15	10000	1005.73	0.54
293.15	10000	1000.9	0.54
298.15	10000	996.05	0.54
303.15	10000	991.3	0.54
308.15	10000	986.49	0.54
313.15	10000	981.68	0.54
318.15	10000	976.86	0.55
323.15	10000	972.03	0.55
328.15	10000	967.18	0.55
333.15	10000	962.31	0.55
338.15	10000	957.46	0.55
283.15	15000	1013.9	0.55
288.15	15000	1009.2	0.55
293.15	15000	1004.46	0.54
298.15	15000	999.7	0.54
303.15	15000	995.04	0.54
308.15	15000	990.33	0.54
313.15	15000	985.61	0.55
318.15	15000	980.93	0.55
323.15	15000	976.2	0.55
328.15	15000	971.45	0.55
333.15	15000	966.72	0.55
338.15	15000	961.97	0.55
283.15	20000	1017.18	0.55
288.15	20000	1012.57	0.55
293.15	20000	1007.92	0.55
298.15	20000	1003.24	0.54
303.15	20000	998.67	0.54
308.15	20000	994.05	0.54
313.15	20000	989.42	0.55
318.15	20000	984.83	0.55
323.15	20000	980.22	0.55
328.15	20000	975.56	0.55
333.15	20000	970.93	0.55
338.15	20000	966.32	0.55
283.15	25000	1020.37	0.56
288.15	25000	1015.82	0.55
293.15	25000	1011.25	0.55
298.15	25000	1006.67	0.55
303.15	25000	1002.17	0.54
308.15	25000	997.63	0.54
313.15	25000	993.09	0.54
318.15	25000	988.58	0.55
323.15	25000	984.06	0.55
328.15	25000	979.5	0.55
333.15	25000	974.97	0.55
338.15	25000	970.44	0.55
283.15	30000	1023.45	0.56
288.15	30000	1018.97	0.56
293.15	30000	1014.49	0.55
298.15	30000	1009.97	0.55
303.15	30000	1005.54	0.55
308.15	30000	1001.09	0.54
313.15	30000	996.63	0.54
318.15	30000	992.22	0.55
323.15	30000	987.78	0.55
328.15	30000	983.31	0.55
333.15	30000	978.86	0.55
338.15	30000	974.41	0.55
283.15	35000	1026.45	0.56
288.15	35000	1022.04	0.56
293.15	35000	1017.62	0.56
298.15	35000	1013.18	0.55
303.15	35000	1008.81	0.55
308.15	35000	1004.45	0.55
313.15	35000	1000.06	0.54
318.15	35000	995.71	0.54
323.15	35000	991.35	0.55
328.15	35000	986.98	0.55
333.15	35000	982.61	0.55
338.15	35000	978.26	0.55
283.15	40000	1029.36	0.57
288.15	40000	1025.03	0.56
293.15	40000	1020.67	0.56
298.15	40000	1016.3	0.56
303.15	40000	1012	0.55
308.15	40000	1007.68	0.55
313.15	40000	1003.38	0.54
318.15	40000	999.11	0.54
323.15	40000	994.81	0.54
328.15	40000	990.51	0.55
333.15	40000	986.22	0.55
338.15	40000	981.96	0.55
283.15	45000	1032.2	0.57
288.15	45000	1027.9	0.57
293.15	45000	1023.61	0.57
298.15	45000	1019.31	0.56
303.15	45000	1015.07	0.56
308.15	45000	1010.84	0.55
313.15	45000	1006.6	0.55
318.15	45000	1002.39	0.54
323.15	45000	998.17	0.54
328.15	45000	993.94	0.55
333.15	45000	989.73	0.55
338.15	45000	985.53	0.55
283.15	50000	1034.96	0.58
288.15	50000	1030.72	0.58
293.15	50000	1026.49	0.57
298.15	50000	1022.24	0.57
303.15	50000	1018.07	0.56
308.15	50000	1013.88	0.56
313.15	50000	1009.71	0.55
318.15	50000	1005.57	0.55
323.15	50000	1001.41	0.54
328.15	50000	997.24	0.54
333.15	50000	993.09	0.55
338.15	50000	988.98	0.55
283.15	55000	1037.65	0.59
288.15	55000	1033.47	0.58
293.15	55000	1029.29	0.58
298.15	55000	1025.1	0.57
303.15	55000	1020.99	0.57
308.15	55000	1016.86	0.56
313.15	55000	1012.75	0.56
318.15	55000	1008.66	0.55
323.15	55000	1004.56	0.55
328.15	55000	1000.47	0.54
333.15	55000	996.39	0.54
338.15	55000	992.31	0.55
283.15	60000	1040.28	0.6
288.15	60000	1036.14	0.59
293.15	60000	1032.01	0.58
298.15	60000	1027.87	0.58
303.15	60000	1023.81	0.57
308.15	60000	1019.74	0.57
313.15	60000	1015.69	0.56
318.15	60000	1011.66	0.56
323.15	60000	1007.62	0.55
328.15	60000	1003.58	0.55
333.15	60000	999.56	0.54
338.15	60000	995.56	0.55
283.15	65000	1042.84	0.6
288.15	65000	1038.73	0.6
293.15	65000	1034.65	0.59
298.15	65000	1030.59	0.58
303.15	65000	1026.56	0.58
308.15	65000	1022.56	0.57
313.15	65000	1018.54	0.57
318.15	65000	1014.56	0.56
323.15	65000	1010.59	0.56
328.15	65000	1006.6	0.55
333.15	65000	1002.62	0.55
338.15	65000	998.71	0.54

System: 2-ethylthiophene; phases: Liquid
Fixed: Pressure, kPa = 100
Property: Mass density, kg/m3 (Liquid); method: Vibrating tube method
Temperature, K	Mass density, kg/m3	uncertainty
278.15	1008.35	0.54
280.65	1005.86	0.54
283.15	1003.37	0.54
285.65	1000.87	0.54
288.15	998.38	0.54
290.65	995.88	0.54
293.15	993.38	0.54
295.65	990.88	0.54
298.15	988.37	0.54
300.65	985.87	0.54
303.15	983.36	0.54
305.65	980.85	0.54
308.15	978.33	0.54
310.65	975.82	0.54
313.15	973.3	0.54
315.65	970.77	0.54
318.15	968.24	0.54
320.65	965.71	0.54
323.15	963.18	0.54
325.65	960.64	0.54
328.15	958.1	0.54
330.65	955.55	0.54
333.15	953	0.54
335.65	950.44	0.54
338.15	947.89	0.54

System: 2-ethylthiophene; phases: Liquid
Fixed: Pressure, kPa = 100
Fixed: Frequency, MHz = 3
Property: Speed of sound, m/s (Liquid); method: Single path-length method
Temperature, K	Speed of sound, m/s	uncertainty
278.15	1373.23	1.12
280.65	1363.39	1.12
283.15	1354.15	1.12
285.65	1344.69	1.12
288.15	1334.12	1.12
290.65	1324.95	1.12
293.15	1315.31	1.12
295.65	1305.79	1.12
298.15	1295.82	1.12
300.65	1285.41	1.12
303.15	1276.52	1.12
305.65	1266.68	1.12
308.15	1256.84	1.12
310.65	1246.47	1.12
313.15	1237.68	1.12
315.65	1227.74	1.12
318.15	1218.03	1.12
320.65	1208.32	1.12
323.15	1197.98	1.12
325.65	1188.26	1.12
328.15	1179.09	1.12
330.65	1168.66	1.12
333.15	1159.13	1.12
335.65	1149.87	1.12
338.15	1140.32	1.12

System: 2-ethylthiophene; phases: Liquid
Fixed: Pressure, kPa = 100
Property: Refractive index (Na D-line) (Liquid); method: Standard Abbe refractometry
Temperature, K	Refractive index (Na D-line)	uncertainty
283.15	1.518405	0.000369
285.65	1.51699	0.000369
288.15	1.51557	0.000369
290.65	1.51417	0.000369
293.15	1.51272	0.000369
295.65	1.51125	0.000369
298.15	1.50981	0.000369
300.65	1.50841	0.000369
303.15	1.50698	0.000369
305.65	1.50556	0.000369
308.15	1.50413	0.000369
310.65	1.50269	0.000369
313.15	1.50125	0.000369
315.65	1.49981	0.000369
318.15	1.49836	0.000369
320.65	1.49695	0.000369
323.15	1.4955	0.000369
325.65	1.49405	0.000369
328.15	1.49261	0.000369
330.65	1.49116	0.000369
333.15	1.48973	0.000369
335.65	1.48827	0.000369
338.15	1.48684	0.000369

System: 2-ethylthiophene; phases: Liquid, Gas
Property: Surface tension liquid-gas, N/m (Liquid); method: Drop volume
Temperature, K	Surface tension liquid-gas, N/m	uncertainty
278.15	0.03236	0.0003
280.65	0.03211	0.0003
283.15	0.0318	0.0003
285.65	0.03155	0.0003
288.15	0.03124	0.00029
290.65	0.03098	0.00029
293.15	0.03066	0.00029
295.65	0.03044	0.00029
298.15	0.0301	0.00029
300.65	0.02986	0.00029
303.15	0.02954	0.00029
305.65	0.0293	0.00029
308.15	0.02896	0.00029
310.65	0.02873	0.00028
313.15	0.02841	0.00028
315.65	0.02816	0.00028
318.15	0.02784	0.00028
320.65	0.02754	0.00028
323.15	0.02727	0.00028
325.65	0.02693	0.00028
328.15	0.02669	0.00028
330.65	0.02636	0.00028
333.15	0.02603	0.00027
335.65	0.02574	0.00027
338.15	0.02545	0.00027

System: 2-ethylthiophene; phases: Liquid
Fixed: Pressure, kPa = 100
Property: Viscosity, Pa*s (Liquid); method: Capillary tube (Ostwald; Ubbelohde) method
Temperature, K	Viscosity, Pa*s	uncertainty
278.15	0.0009347	8.7e-06
280.65	0.000905	8.5e-06
283.15	0.0008766	8.3e-06
285.65	0.0008498	8.2e-06
288.15	0.0008244	8e-06
290.65	0.0008003	7.9e-06
293.15	0.0007772	7.8e-06
295.65	0.0007554	7.7e-06
298.15	0.0007345	7.6e-06
300.65	0.0007148	7.5e-06
303.15	0.000696	7.4e-06
305.65	0.000678	7.3e-06
308.15	0.0006606	7.2e-06
310.65	0.0006442	7.1e-06
313.15	0.0006282	7e-06
315.65	0.000613	7e-06
318.15	0.0005981	6.9e-06
320.65	0.000584	6.8e-06
323.15	0.0005702	6.7e-06
325.65	0.0005566	6.7e-06
328.15	0.0005437	6.6e-06
330.65	0.0005313	6.6e-06
333.15	0.000519	6.5e-06
335.65	0.0005072	6.5e-06
338.15	0.0004965	6.4e-06

System: 2-ethylthiophene; phases: Liquid
Fixed: Pressure, kPa = 100
Fixed: Frequency, MHz = 2
Property: Relative permittivity at various frequencies (Liquid); method: Parallel plate capacitor
Temperature, K	Relative permittivity at various frequencies	uncertainty
278.15	2.968	0.33
280.65	2.959	0.33
283.15	2.946	0.329
285.65	2.936	0.329
288.15	2.929	0.329
290.65	2.916	0.328
293.15	2.911	0.328
295.65	2.9	0.327
298.15	2.887	0.327
300.65	2.878	0.327
303.15	2.871	0.326
305.65	2.858	0.326
308.15	2.848	0.325
310.65	2.838	0.325
313.15	2.833	0.325
315.65	2.82	0.324
318.15	2.81	0.324
320.65	2.799	0.323
323.15	2.792	0.323
325.65	2.782	0.322
328.15	2.775	0.322
330.65	2.766	0.322
333.15	2.753	0.321
335.65	2.745	0.321
338.15	2.734	0.32

System: 2-ethylthiophene; phases: Liquid, Gas
Property: Vapor or sublimation pressure, kPa (Liquid); method: Ebulliometric method (Recirculating still)
Temperature, K	Vapor or sublimation pressure, kPa	uncertainty
292.41	0.8	0.1
293.45	0.84	0.1
296.81	1.03	0.1
298.04	1.145	0.1
299.11	1.23	0.1
302.95	1.52	0.1
308.07	2.005	0.1
312.28	2.55	0.1
315.55	3.01	0.1
321.73	4.095	0.1
326.03	5.05	0.101
330.78	6.285	0.101
336.67	8.17	0.101
342	10.225	0.101
346.57	12.34	0.102
351.71	15.145	0.102
356.68	18.345	0.103
360.83	21.475	0.104
365.1	24.99	0.105
370.4	30.075	0.107
374.16	34.19	0.109
379.56	40.885	0.111
382.77	45.275	0.114
387.16	51.935	0.118
390.75	57.93	0.121
394.79	65.355	0.126
397.67	71.066	0.13
401.74	79.785	0.136
404.64	86.501	0.141
406.64	91.35	0.145
409.15	97.8	0.15
410.46	101.325	0.153

System: 2-ethylfuran; phases: Liquid
Property: Mass density, kg/m3 (Liquid); method: Vibrating tube method
Temperature, K	Pressure, kPa	Mass density, kg/m3	uncertainty
283.15	100	915.5	0.22
288.15	100	910.08	0.22
293.15	100	904.65	0.22
298.15	100	899.11	0.23
303.15	100	893.58	0.23
308.15	100	888.06	0.23
313.15	100	882.49	0.23
318.15	100	876.88	0.23
323.15	100	871.23	0.23
328.15	100	865.59	0.23
333.15	100	859.9	0.23
338.15	100	854.07	0.23
283.15	2000	917.27	0.23
288.15	2000	911.89	0.23
293.15	2000	906.44	0.23
298.15	2000	901.01	0.23
303.15	2000	895.61	0.23
308.15	2000	890.15	0.23
313.15	2000	884.62	0.23
318.15	2000	879.13	0.23
323.15	2000	873.56	0.23
328.15	2000	867.92	0.23
333.15	2000	862.3	0.23
338.15	2000	856.63	0.24
283.15	5000	919.69	0.23
288.15	5000	914.37	0.23
293.15	5000	909.05	0.23
298.15	5000	903.73	0.23
303.15	5000	898.41	0.23
308.15	5000	893.04	0.23
313.15	5000	887.63	0.24
318.15	5000	882.2	0.24
323.15	5000	876.77	0.24
328.15	5000	871.27	0.24
333.15	5000	865.81	0.24
338.15	5000	860.21	0.24
283.15	7000	921.41	0.23
288.15	7000	916.19	0.23
293.15	7000	910.93	0.23
298.15	7000	905.65	0.24
303.15	7000	900.35	0.24
308.15	7000	895.02	0.24
313.15	7000	889.75	0.24
318.15	7000	884.37	0.24
323.15	7000	878.96	0.24
328.15	7000	873.57	0.24
333.15	7000	868.2	0.25
338.15	7000	862.69	0.25
283.15	10000	923.87	0.23
288.15	10000	918.68	0.24
293.15	10000	913.5	0.24
298.15	10000	908.34	0.24
303.15	10000	903.06	0.24
308.15	10000	897.93	0.24
313.15	10000	892.61	0.25
318.15	10000	887.44	0.25
323.15	10000	882.17	0.25
328.15	10000	876.84	0.25
333.15	10000	871.58	0.25
338.15	10000	866.19	0.26
283.15	15000	927.84	0.24
288.15	15000	922.7	0.24
293.15	15000	917.66	0.24
298.15	15000	912.57	0.25
303.15	15000	907.56	0.25
308.15	15000	902.45	0.25
313.15	15000	897.4	0.25
318.15	15000	892.29	0.26
323.15	15000	887.15	0.26
328.15	15000	882.03	0.26
333.15	15000	876.87	0.26
338.15	15000	871.73	0.27
283.15	20000	931.59	0.24
288.15	20000	926.63	0.25
293.15	20000	921.69	0.25
298.15	20000	916.67	0.25
303.15	20000	911.72	0.26
308.15	20000	906.8	0.26
313.15	20000	901.8	0.26
318.15	20000	896.91	0.27
323.15	20000	891.93	0.27
328.15	20000	886.97	0.27
333.15	20000	881.93	0.28
338.15	20000	876.98	0.28
283.15	25000	935.19	0.25
288.15	25000	930.32	0.25
293.15	25000	925.54	0.26
298.15	25000	920.61	0.26
303.15	25000	915.8	0.26
308.15	25000	910.98	0.27
313.15	25000	906.18	0.27
318.15	25000	901.27	0.27
323.15	25000	896.47	0.28
328.15	25000	891.57	0.28
333.15	25000	886.74	0.29
338.15	25000	881.86	0.29
283.15	30000	938.66	0.25
288.15	30000	933.89	0.26
293.15	30000	929.07	0.26
298.15	30000	924.3	0.27
303.15	30000	919.58	0.27
308.15	30000	914.84	0.27
313.15	30000	910.18	0.28
318.15	30000	905.42	0.28
323.15	30000	900.65	0.29
328.15	30000	895.96	0.29
333.15	30000	891.26	0.3
338.15	30000	886.43	0.3
283.15	35000	942.04	0.26
288.15	35000	937.37	0.26
293.15	35000	932.7	0.27
298.15	35000	928.03	0.27
303.15	35000	923.37	0.28
308.15	35000	918.68	0.28
313.15	35000	914.06	0.29
318.15	35000	909.5	0.29
323.15	35000	904.8	0.3
328.15	35000	900.23	0.3
333.15	35000	895.59	0.31
338.15	35000	890.92	0.31
283.15	40000	945.33	0.26
288.15	40000	940.66	0.27
293.15	40000	936.06	0.27
298.15	40000	931.52	0.28
303.15	40000	927	0.28
308.15	40000	922.47	0.29
313.15	40000	917.85	0.29
318.15	40000	913.4	0.3
323.15	40000	908.8	0.3
328.15	40000	904.35	0.31
333.15	40000	899.79	0.31
338.15	40000	895.2	0.32
283.15	45000	948.5	0.26
288.15	45000	943.92	0.27
293.15	45000	939.48	0.27
298.15	45000	934.92	0.28
303.15	45000	930.47	0.29
308.15	45000	925.95	0.29
313.15	45000	921.58	0.3
318.15	45000	917.1	0.3
323.15	45000	912.67	0.31
328.15	45000	908.24	0.32
333.15	45000	903.78	0.32
338.15	45000	899.36	0.33
283.15	50000	951.53	0.26
288.15	50000	947.13	0.27
293.15	50000	942.66	0.28
298.15	50000	938.29	0.28
303.15	50000	933.84	0.29
308.15	50000	929.45	0.3
313.15	50000	925.04	0.3
318.15	50000	920.67	0.31
323.15	50000	916.35	0.32
328.15	50000	912.04	0.32
333.15	50000	907.66	0.33
338.15	50000	903.34	0.34
283.15	55000	954.61	0.27
288.15	55000	950.18	0.27
293.15	55000	945.78	0.28
298.15	55000	941.41	0.29
303.15	55000	937.1	0.29
308.15	55000	932.76	0.3
313.15	55000	928.5	0.31
318.15	55000	924.18	0.31
323.15	55000	919.97	0.32
328.15	55000	915.63	0.33
333.15	55000	911.34	0.34
338.15	55000	907.07	0.34
283.15	60000	957.6	0.27
288.15	60000	953.28	0.27
293.15	60000	948.91	0.28
298.15	60000	944.69	0.29
303.15	60000	940.35	0.29
308.15	60000	936.18	0.3
313.15	60000	931.93	0.31
318.15	60000	927.71	0.32
323.15	60000	923.48	0.33
328.15	60000	919.32	0.33
333.15	60000	915.07	0.34
338.15	60000	910.92	0.35
283.15	65000	960.38	0.27
288.15	65000	956.1	0.27
293.15	65000	951.86	0.28
298.15	65000	947.7	0.29
303.15	65000	943.48	0.3
308.15	65000	939.24	0.3
313.15	65000	935.06	0.31
318.15	65000	930.91	0.32
323.15	65000	926.81	0.33
328.15	65000	922.64	0.34
333.15	65000	918.6	0.35
338.15	65000	914.41	0.35

System: 2-ethylfuran; phases: Liquid
Fixed: Pressure, kPa = 100
Property: Mass density, kg/m3 (Liquid); method: Vibrating tube method
Temperature, K	Mass density, kg/m3	uncertainty
278.15	920.97	0.51
280.65	918.26	0.51
283.15	915.55	0.51
285.65	912.83	0.51
288.15	910.1	0.51
290.65	907.37	0.51
293.15	904.64	0.51
295.65	901.9	0.51
298.15	899.15	0.51
300.65	896.4	0.51
303.15	893.64	0.51
305.65	890.87	0.51
308.15	888.1	0.51
310.65	885.31	0.51
313.15	882.52	0.51
315.65	879.73	0.51
318.15	876.92	0.51
320.65	874.11	0.51
323.15	871.29	0.51
325.65	868.46	0.51
328.15	865.62	0.51
330.65	862.76	0.51
333.15	859.9	0.51
335.65	857.02	0.51
338.15	854.13	0.51

System: 2-ethylfuran; phases: Liquid
Fixed: Pressure, kPa = 100
Fixed: Frequency, MHz = 3
Property: Speed of sound, m/s (Liquid); method: Single path-length method
Temperature, K	Speed of sound, m/s	uncertainty
278.15	1281.05	0.71
280.65	1270.84	0.71
283.15	1259.43	0.71
285.65	1248.72	0.71
288.15	1238.51	0.71
290.65	1227.58	0.71
293.15	1216.74	0.71
295.65	1205.19	0.71
298.15	1194.88	0.71
300.65	1184.06	0.71
303.15	1172.45	0.71
305.65	1161.84	0.71
308.15	1151.48	0.71
310.65	1140.56	0.71
313.15	1129.2	0.71
315.65	1118.12	0.71
318.15	1107.36	0.71
320.65	1096.53	0.71
323.15	1085.58	0.71
325.65	1074.76	0.71
328.15	1063.82	0.71
330.65	1053.69	0.71
333.15	1042.15	0.71
335.65	1032.11	0.71
338.15	1020.45	0.71

System: 2-ethylfuran; phases: Liquid
Fixed: Pressure, kPa = 100
Property: Refractive index (Na D-line) (Liquid); method: Standard Abbe refractometry
Temperature, K	Refractive index (Na D-line)	uncertainty
283.15	1.445331	0.000326
285.65	1.443898	0.000326
288.15	1.442451	0.000326
290.65	1.441015	0.000326
293.15	1.43956	0.000326
295.65	1.438171	0.000326
298.15	1.436723	0.000326
300.65	1.435305	0.000326
303.15	1.433874	0.000326
305.65	1.432441	0.000326
308.15	1.431001	0.000326
310.65	1.429579	0.000326
313.15	1.428144	0.000326
315.65	1.426712	0.000326
318.15	1.42528	0.000326
320.65	1.42385	0.000326
323.15	1.422415	0.000326
325.65	1.420974	0.000326
328.15	1.419534	0.000326
330.65	1.418099	0.000326
333.15	1.416687	0.000326
335.65	1.415231	0.000326
338.15	1.413795	0.000326

System: 2-ethylfuran; phases: Liquid, Gas
Property: Surface tension liquid-gas, N/m (Liquid); method: Drop volume
Temperature, K	Surface tension liquid-gas, N/m	uncertainty
278.15	0.02722	0.00025
280.65	0.02691	0.00025
283.15	0.02659	0.00025
285.65	0.02631	0.00025
288.15	0.02601	0.00025
290.65	0.02562	0.00025
293.15	0.02532	0.00025
295.65	0.02509	0.00025
298.15	0.02478	0.00025
300.65	0.02443	0.00025
303.15	0.02412	0.00025
305.65	0.02381	0.00025
308.15	0.02351	0.00025
310.65	0.02322	0.00024
313.15	0.02291	0.00024
315.65	0.02266	0.00024
318.15	0.0223	0.00024
320.65	0.02207	0.00024
323.15	0.02177	0.00024
325.65	0.0214	0.00024
328.15	0.02108	0.00024
330.65	0.02087	0.00024
333.15	0.0205	0.00024
335.65	0.02028	0.00024
338.15	0.01995	0.00024

System: 2-ethylfuran; phases: Liquid
Fixed: Pressure, kPa = 100
Property: Viscosity, Pa*s (Liquid); method: Capillary tube (Ostwald; Ubbelohde) method
Temperature, K	Viscosity, Pa*s	uncertainty
278.15	0.0006327	6.5e-06
280.65	0.0006126	6.4e-06
283.15	0.0005934	6.4e-06
285.65	0.0005733	6.3e-06
288.15	0.000556	6.2e-06
290.65	0.0005394	6.2e-06
293.15	0.0005214	6.1e-06
295.65	0.0005061	6.1e-06
298.15	0.0004917	6e-06
300.65	0.0004774	6e-06
303.15	0.0004637	5.9e-06
305.65	0.00045	5.9e-06
308.15	0.0004372	5.9e-06
310.65	0.0004258	5.8e-06
313.15	0.0004149	5.8e-06
315.65	0.0004049	5.8e-06
318.15	0.0003962	5.8e-06
320.65	0.0003885	5.7e-06
323.15	0.0003794	5.7e-06
325.65	0.0003706	5.7e-06
328.15	0.0003619	5.7e-06
330.65	0.0003536	5.6e-06
333.15	0.0003455	5.6e-06
335.65	0.0003372	5.6e-06
338.15	0.00033	5.6e-06

System: 2-ethylfuran; phases: Liquid
Fixed: Pressure, kPa = 100
Fixed: Frequency, MHz = 2
Property: Relative permittivity at various frequencies (Liquid); method: Parallel plate capacitor
Temperature, K	Relative permittivity at various frequencies	uncertainty
278.15	2.837	0.325
280.65	2.823	0.324
283.15	2.813	0.324
285.65	2.798	0.323
288.15	2.784	0.323
290.65	2.766	0.322
293.15	2.756	0.321
295.65	2.739	0.321
298.15	2.725	0.32
300.65	2.709	0.319
303.15	2.699	0.319
305.65	2.682	0.318
308.15	2.668	0.318
310.65	2.657	0.317
313.15	2.643	0.317
315.65	2.626	0.316
318.15	2.611	0.315
320.65	2.601	0.315
323.15	2.583	0.314
325.65	2.573	0.313
328.15	2.559	0.313
330.65	2.544	0.312
333.15	2.527	0.311
335.65	2.516	0.311
338.15	2.503	0.31

System: 2-ethylfuran; phases: Liquid, Gas
Property: Vapor or sublimation pressure, kPa (Liquid); method: Ebulliometric method (Recirculating still)
Temperature, K	Vapor or sublimation pressure, kPa	uncertainty
289.96	4.96	0.1
292.18	5.57	0.1
293.77	6.05	0.101
295.94	6.77	0.101
297.39	7.29	0.101
299.52	8.105	0.101
301.86	9.08	0.101
304.58	10.35	0.101
306.32	11.27	0.101
308.82	12.64	0.101
312.73	15.06	0.102
317.62	18.645	0.102
320.45	20.98	0.102
322.48	22.795	0.103
324.89	25.185	0.103
327.06	27.465	0.104
329.8	30.6	0.104
331.39	32.495	0.105
333.19	34.85	0.105
334.73	36.94	0.106
336.84	39.925	0.107
338.83	42.915	0.107
340.3	45.25	0.108
342.6	49.13	0.109
344.85	53.18	0.11
347.05	57.395	0.112
348.94	61.215	0.113
350.71	64.98	0.115
352.9	69.885	0.116
354.83	74.51	0.118
356.8	79.34	0.12
358.65	84.17	0.122
360.61	89.595	0.124
361.79	92.935	0.125
362.46	94.875	0.126
363.67	98.45	0.127
364.18	100.075	0.128
364.61	101.325	0.127
