Measured thermophysical data. Influence of Different Solvent Properties and Composition for the Solubility of Iopromide
Source: J. Chem. Eng. Data, 2018, 10.1021/acs.jced.8b00416
Compound 1: iopromide, C18H24I3N3O8, InChI=1S/C18H24I3N3O8/c1-24(4-9(28)6-26)18(31)12-13(19)11(17(30)22-3-8(27)5-25)14(20)16(15(12)21)23-10(29)7-32-2/h8-9,25-28H,3-7H2,1-2H3,(H,22,30)(H,23,29), purity 99.6%
Compound 2: methanol, CH4O, InChI=1S/CH4O/c1-2/h2H,1H3, purity 99.6%
Compound 3: ethanol, C2H6O, InChI=1S/C2H6O/c1-2-3/h3H,2H2,1H3, purity 99.5%
Compound 4: propan-2-ol, C3H8O, InChI=1S/C3H8O/c1-3(2)4/h3-4H,1-2H3, purity 99.6%
Compound 5: acetone, C3H6O, InChI=1S/C3H6O/c1-3(2)4/h1-2H3, purity 99.5%
Compound 6: ethyl acetate, C4H8O2, InChI=1S/C4H8O2/c1-3-6-4(2)5/h3H2,1-2H3, purity 99.5%
Compound 7: toluene, C7H8, InChI=1S/C7H8/c1-7-5-3-2-4-6-7/h2-6H,1H3, purity 99.6%
Compound 8: dimethylformamide, C3H7NO, InChI=1S/C3H7NO/c1-4(2)3-5/h3H,1-2H3, purity 99.5%
Compound 9: benzoic acid, C7H6O2, InChI=1S/C7H6O2/c8-7(9)6-4-2-1-3-5-6/h1-5H,(H,8,9), purity 99%

System: iopromide + methanol; phases: Liquid, Crystal
Fixed: Pressure, kPa = 101.1
Property: Mole fraction of iopromide (Liquid); method: Chromatography
Temperature, K	Mole fraction of iopromide	uncertainty
273.15	0.0002363	2.36e-05
278.15	0.0002815	2.82e-05
283.15	0.0003491	3.49e-05
288.15	0.0004188	4.19e-05
293.15	0.0004963	4.96e-05
298.15	0.0005761	5.76e-05
303.15	0.0006663	6.66e-05
308.15	0.00077	7.7e-05
313.15	0.0008803	8.81e-05
318.15	0.000997	9.97e-05

System: iopromide + ethanol; phases: Liquid, Crystal
Fixed: Pressure, kPa = 101.1
Property: Mole fraction of iopromide (Liquid); method: Chromatography
Temperature, K	Mole fraction of iopromide	uncertainty
273.15	0.0001525	1.53e-05
278.15	0.0001782	1.78e-05
283.15	0.0002147	2.15e-05
288.15	0.0002541	2.54e-05
293.15	0.0002955	2.96e-05
298.15	0.000339	3.39e-05
303.15	0.0003837	3.84e-05
308.15	0.0004368	4.37e-05
313.15	0.0004951	4.95e-05
318.15	0.000558	5.58e-05

System: iopromide + propan-2-ol; phases: Liquid, Crystal
Fixed: Pressure, kPa = 101.1
Property: Mole fraction of iopromide (Liquid); method: Chromatography
Temperature, K	Mole fraction of iopromide	uncertainty
273.15	5.1e-05	5.1e-06
278.15	6.23e-05	6.2e-06
283.15	7.52e-05	7.5e-06
288.15	9.01e-05	9e-06
293.15	0.0001079	1.08e-05
298.15	0.0001275	1.28e-05
303.15	0.0001505	1.51e-05
308.15	0.0001765	1.77e-05
313.15	0.0002031	2.03e-05
318.15	0.0002325	2.33e-05

System: iopromide + acetone; phases: Liquid, Crystal
Fixed: Pressure, kPa = 101.1
Property: Mole fraction of iopromide (Liquid); method: Chromatography
Temperature, K	Mole fraction of iopromide	uncertainty
273.15	3.54e-05	3.5e-06
278.15	4.29e-05	4.3e-06
283.15	5.29e-05	5.3e-06
288.15	6.52e-05	6.5e-06
293.15	7.88e-05	7.9e-06
298.15	9.34e-05	9.3e-06
303.15	0.0001097	1.1e-05
308.15	0.0001278	1.28e-05
313.15	0.0001488	1.49e-05
318.15	0.000171	1.71e-05

System: iopromide + ethyl acetate; phases: Liquid, Crystal
Fixed: Pressure, kPa = 101.1
Property: Mole fraction of iopromide (Liquid); method: Chromatography
Temperature, K	Mole fraction of iopromide	uncertainty
273.15	1.36e-05	1.4e-06
278.15	2.01e-05	2e-06
283.15	2.74e-05	2.7e-06
288.15	3.57e-05	3.6e-06
293.15	4.52e-05	4.5e-06
298.15	5.65e-05	5.7e-06
303.15	6.84e-05	6.8e-06
308.15	8.46e-05	8.5e-06
313.15	0.0001006	1.01e-05
318.15	0.0001267	1.27e-05

System: iopromide + toluene; phases: Liquid, Crystal
Fixed: Pressure, kPa = 101.1
Property: Mole fraction of iopromide (Liquid); method: Chromatography
Temperature, K	Mole fraction of iopromide	uncertainty
273.15	9.9e-06	1e-06
278.15	1.08e-05	1.1e-06
283.15	1.19e-05	1.2e-06
288.15	1.31e-05	1.3e-06
293.15	1.43e-05	1.4e-06
298.15	1.56e-05	1.6e-06
303.15	1.69e-05	1.7e-06
308.15	1.83e-05	1.8e-06
313.15	1.97e-05	2e-06
318.15	2.12e-05	2.1e-06

System: iopromide + dimethylformamide; phases: Liquid, Crystal
Fixed: Pressure, kPa = 101.1
Property: Mole fraction of iopromide (Liquid); method: Chromatography
Temperature, K	Mole fraction of iopromide	uncertainty
273.15	0.0036801	0.0003681
278.15	0.0037957	0.0003797
283.15	0.0039368	0.0003938
288.15	0.0040939	0.0004095
293.15	0.0042651	0.0004266
298.15	0.0044649	0.0004466
303.15	0.0046667	0.0004668
308.15	0.0049037	0.0004905
313.15	0.0051744	0.0005176
318.15	0.0054426	0.0005444

System: iopromide + dimethylformamide + ethanol; phases: Liquid, Crystal
Fixed: Pressure, kPa = 101.1
Property: Mole fraction of iopromide (Liquid); method: Chromatography
Solvent: Mass fraction of dimethylformamide	Temperature, K	Mole fraction of iopromide	uncertainty
0.1	273.15	0.0001677	1.68e-05
0.1	278.15	0.0002023	2.02e-05
0.1	283.15	0.0002453	2.45e-05
0.1	288.15	0.0002943	2.94e-05
0.1	293.15	0.0003426	3.43e-05
0.1	298.15	0.0003992	3.99e-05
0.1	303.15	0.0004613	4.61e-05
0.1	308.15	0.0005287	5.29e-05
0.1	313.15	0.0006002	6e-05
0.1	318.15	0.0006762	6.76e-05
0.2	273.15	0.000222	2.22e-05
0.2	278.15	0.0002665	2.67e-05
0.2	283.15	0.0003212	3.22e-05
0.2	288.15	0.0003778	3.78e-05
0.2	293.15	0.0004417	4.42e-05
0.2	298.15	0.0005178	5.18e-05
0.2	303.15	0.0005937	5.94e-05
0.2	308.15	0.0006812	6.82e-05
0.2	313.15	0.0007853	7.86e-05
0.2	318.15	0.0009125	9.14e-05
0.3	273.15	0.0003227	3.24e-05
0.3	278.15	0.0003882	3.89e-05
0.3	283.15	0.0004674	4.68e-05
0.3	288.15	0.0005527	5.54e-05
0.3	293.15	0.00063	6.31e-05
0.3	298.15	0.0007242	7.25e-05
0.3	303.15	0.0008142	8.15e-05
0.3	308.15	0.0009318	9.33e-05
0.3	313.15	0.0010471	0.0001049
0.3	318.15	0.0012062	0.0001208
0.4	273.15	0.0004609	4.62e-05
0.4	278.15	0.000519	5.21e-05
0.4	283.15	0.0005999	6.01e-05
0.4	288.15	0.0006905	6.92e-05
0.4	293.15	0.0008023	8.04e-05
0.4	298.15	0.0009242	9.26e-05
0.4	303.15	0.001048	0.000105
0.4	308.15	0.0011986	0.0001201
0.4	313.15	0.0013484	0.0001351
0.4	318.15	0.0015219	0.0001525
0.5	273.15	0.0006433	6.47e-05
0.5	278.15	0.000703	7.07e-05
0.5	283.15	0.0007959	8e-05
0.5	288.15	0.000901	9.05e-05
0.5	293.15	0.0010344	0.0001038
0.5	298.15	0.0011894	0.0001193
0.5	303.15	0.0013355	0.0001339
0.5	308.15	0.0015004	0.0001504
0.5	313.15	0.0016721	0.0001676
0.5	318.15	0.0018946	0.0001899
0.6	273.15	0.0009166	9.19e-05
0.6	278.15	0.0010026	0.0001005
0.6	283.15	0.0010986	0.0001101
0.6	288.15	0.0012116	0.0001214
0.6	293.15	0.0013462	0.0001348
0.6	298.15	0.0015089	0.0001511
0.6	303.15	0.0016713	0.0001673
0.6	308.15	0.0018488	0.0001851
0.6	313.15	0.0020661	0.0002068
0.6	318.15	0.0023077	0.000231
0.7	273.15	0.0012066	0.0001208
0.7	278.15	0.0012821	0.0001284
0.7	283.15	0.0013863	0.0001388
0.7	288.15	0.0015016	0.0001503
0.7	293.15	0.0016295	0.0001631
0.7	298.15	0.001765	0.0001767
0.7	303.15	0.0019219	0.0001923
0.7	308.15	0.0021058	0.0002107
0.7	313.15	0.0023252	0.0002327
0.7	318.15	0.0025957	0.0002597
0.8	273.15	0.0015601	0.0001561
0.8	278.15	0.0016443	0.0001646
0.8	283.15	0.0017414	0.0001743
0.8	288.15	0.0018859	0.0001887
0.8	293.15	0.0020365	0.0002038
0.8	298.15	0.0022113	0.0002213
0.8	303.15	0.0023959	0.0002397
0.8	308.15	0.0025838	0.0002585
0.8	313.15	0.0028181	0.0002819
0.8	318.15	0.0030865	0.0003088
0.9	273.15	0.0021081	0.000211
0.9	278.15	0.0022079	0.0002209
0.9	283.15	0.0023238	0.0002325
0.9	288.15	0.0024572	0.0002459
0.9	293.15	0.0026114	0.0002613
0.9	298.15	0.0027785	0.000278
0.9	303.15	0.0029562	0.0002958
0.9	308.15	0.0031489	0.000315
0.9	313.15	0.003357	0.0003359
0.9	318.15	0.003641	0.0003643
1	273.15	0.0036801	0.0003681
1	278.15	0.0037957	0.0003797
1	283.15	0.0039368	0.0003938
1	288.15	0.0040939	0.0004095
1	293.15	0.0042651	0.0004266
1	298.15	0.0044649	0.0004466
1	303.15	0.0046667	0.0004668
1	308.15	0.0049037	0.0004905
1	313.15	0.0051744	0.0005176
1	318.15	0.0054426	0.0005444
0	273.15	0.0001525	1.53e-05
0	278.15	0.0001782	1.78e-05
0	283.15	0.0002147	2.15e-05
0	288.15	0.0002541	2.54e-05
0	293.15	0.0002955	2.96e-05
0	298.15	0.000339	3.39e-05
0	303.15	0.0003837	3.84e-05
0	308.15	0.0004368	4.37e-05
0	313.15	0.0004951	4.95e-05
0	318.15	0.000558	5.58e-05

System: benzoic acid + toluene; phases: Liquid, Crystal
Fixed: Pressure, kPa = 101.2
Property: Mole fraction of benzoic acid (Liquid); method: Chromatography
Temperature, K	Mole fraction of benzoic acid	uncertainty
293.15	0.062	0.003
303.15	0.088	0.004
313.15	0.127	0.006
