Measured thermophysical data. Standard Enthalpy of Formation, Thermal Behavior, and Specific Heat Capacity of 2HNIW*HMX Co-crystals
Source: J. Chem. Eng. Data, 2019, 10.1021/acs.jced.8b00454
Compound 1: 2,4,6,8,10,12-hexanitro-2,4,6,8,10,12-hexaazaisowurtzitane, C6H6N12O12, InChI=1S/C6H6N12O12/c19-13(20)7-1-2-8(14(21)22)5(7)6-9(15(23)24)3(11(1)17(27)28)4(10(6)16(25)26)12(2)18(29)30/h1-6H, purity 99.3%
Compound 2: cyclotetramethylene tetranitramine, C4H8N8O8, InChI=1S/C4H8N8O8/c13-9(14)5-1-6(10(15)16)3-8(12(19)20)4-7(2-5)11(17)18/h1-4H2, purity 99.2%
Compound 3: acetonitrile, C2H3N, InChI=1S/C2H3N/c1-2-3/h1H3, purity 99.8%

System: 2,4,6,8,10,12-hexanitro-2,4,6,8,10,12-hexaazaisowurtzitane + cyclotetramethylene tetranitramine; phases: Crystal of intercomponent compound 1
Fixed: Pressure, kPa = 100
Fixed: Mole fraction of 2,4,6,8,10,12-hexanitro-2,4,6,8,10,12-hexaazaisowurtzitane = 0.667
Property: Molar heat capacity at constant pressure, J/K/mol (Crystal of intercomponent compound 1); method: DSC
Temperature, K	Molar heat capacity at constant pressure, J/K/mol	uncertainty
288.15	1088.57	44.22
293.15	1101.94	44.76
298.15	1114.04	45.25
303.15	1124.94	45.7
308.15	1134.71	46.09
313.15	1143.43	46.45
318.15	1151.18	46.76
323.15	1158.02	47.04
328.15	1164.04	47.28
333.15	1169.3	47.5

System: 2,4,6,8,10,12-hexanitro-2,4,6,8,10,12-hexaazaisowurtzitane + acetonitrile; phases: Liquid
Property: Molar enthalpy of solution, kJ/mol (Liquid); method: Calvet calorimetry
Mole fraction of 2,4,6,8,10,12-hexanitro-2,4,6,8,10,12-hexaazaisowurtzitane	Temperature, K	Pressure, kPa	Molar enthalpy of solution, kJ/mol	uncertainty
0	298.15	100	7.336	0.068

System: cyclotetramethylene tetranitramine + 2,4,6,8,10,12-hexanitro-2,4,6,8,10,12-hexaazaisowurtzitane + acetonitrile; phases: Liquid
Property: Molar enthalpy of solution, kJ/mol (Liquid); method: Calvet calorimetry
Mole fraction of cyclotetramethylene tetranitramine	Temperature, K	Pressure, kPa	Mole fraction of 2,4,6,8,10,12-hexanitro-2,4,6,8,10,12-hexaazaisowurtzitane	Molar enthalpy of solution, kJ/mol	uncertainty
0	298.15	100	0	15.99	0.182
