Measured thermophysical data. Measurement and Prediction of Molar Heat Capacities of Liquid Polyoxyethylene Glycol Monoalkyl Ethers (CnEm)
Source: J. Chem. Eng. Data, 2015, 10.1021/acs.jced.5b00051
Compound 1: 2-ethoxyethan-1-ol, C4H10O2, InChI=1S/C4H10O2/c1-2-6-4-3-5/h5H,2-4H2,1H3, purity 99%
Compound 2: 2-propoxyethanol, C5H12O2, InChI=1S/C5H12O2/c1-2-4-7-5-3-6/h6H,2-5H2,1H3, purity 99.4%
Compound 3: 2-butoxyethan-1-ol, C6H14O2, InChI=1S/C6H14O2/c1-2-3-5-8-6-4-7/h7H,2-6H2,1H3, purity 99%
Compound 4: 2-(2-methoxyethoxy)ethanol, C5H12O3, InChI=1S/C5H12O3/c1-7-4-5-8-3-2-6/h6H,2-5H2,1H3, purity 99%
Compound 5: 3,6-dioxa-1-octanol, C6H14O3, InChI=1S/C6H14O3/c1-2-8-5-6-9-4-3-7/h7H,2-6H2,1H3, purity 99%
Compound 6: 2-(2-propoxyethoxy)ethanol, C7H16O3, InChI=1S/C7H16O3/c1-2-4-9-6-7-10-5-3-8/h8H,2-7H2,1H3, purity 99%
Compound 7: 3,6-dioxa-1-decanol, C8H18O3, InChI=1S/C8H18O3/c1-2-3-5-10-7-8-11-6-4-9/h9H,2-8H2,1H3, purity 99%
Compound 8: 2-(2-hexyloxyethoxy)ethanol, C10H22O3, InChI=1S/C10H22O3/c1-2-3-4-5-7-12-9-10-13-8-6-11/h11H,2-10H2,1H3, purity 98%
Compound 9: 2-[2-(2-methoxyethoxy)ethoxy]ethanol, C7H16O4, InChI=1S/C7H16O4/c1-9-4-5-11-7-6-10-3-2-8/h8H,2-7H2,1H3, purity 97%
Compound 10: 2-[2-[2-(octyloxy)ethoxy]ethoxy]ethanol, C14H30O4, InChI=1S/C14H30O4/c1-2-3-4-5-6-7-9-16-11-13-18-14-12-17-10-8-15/h15H,2-14H2,1H3, purity 98.5%
Compound 11: 3,6,9,12-tetraoxatridecanol, C9H20O5, InChI=1S/C9H20O5/c1-11-4-5-13-8-9-14-7-6-12-3-2-10/h10H,2-9H2,1H3, purity 98%

System: 2-ethoxyethan-1-ol; phases: Liquid
Fixed: Pressure, kPa = 101.325
Property: Molar heat capacity at constant pressure, J/K/mol (Liquid); method: Large sample (1 g) DSC
Temperature, K	Molar heat capacity at constant pressure, J/K/mol	uncertainty
275.15	203.3	3.2
277.15	204	3.2
279.15	204.6	3.2
281.15	205.3	3.2
283.15	205.9	3.2
285.15	206.6	3.2
287.15	207.3	3.2
289.15	208	3.2
291.15	208.6	3.2
293.15	209.3	3.2
295.15	210	3.3
297.15	210.7	3.3
298.15	211.1	3.3
299.15	211.4	3.3
301.15	212.1	3.3
303.15	212.8	3.3
305.15	213.6	3.3
307.15	214.3	3.3
309.15	215	3.3
311.15	215.7	3.3
313.15	216.5	3.4
315.15	217.2	3.4
317.15	218	3.4
319.15	218.7	3.4
321.15	219.5	3.4
323.15	220.2	3.4
325.15	221	3.4
327.15	221.8	3.4
329.15	222.6	3.4
331.15	223.3	3.5
333.15	224.1	3.5
335.15	224.9	3.5
337.15	225.7	3.5
339.15	226.5	3.5

System: 2-propoxyethanol; phases: Liquid
Fixed: Pressure, kPa = 101.325
Property: Molar heat capacity at constant pressure, J/K/mol (Liquid); method: Large sample (1 g) DSC
Temperature, K	Molar heat capacity at constant pressure, J/K/mol	uncertainty
275.15	231.6	3.6
277.15	232.4	3.6
279.15	233.3	3.6
281.15	234.1	3.6
283.15	235	3.6
285.15	235.8	3.7
287.15	236.6	3.7
289.15	237.5	3.7
291.15	238.3	3.7
293.15	239.2	3.7
295.15	240.1	3.7
297.15	240.9	3.7
298.15	241.4	3.7
299.15	241.8	3.7
301.15	242.7	3.8
303.15	243.5	3.8
305.15	244.4	3.8
307.15	245.3	3.8
309.15	246.2	3.8
311.15	247.1	3.8
313.15	248	3.8
315.15	248.9	3.9
317.15	249.8	3.9
319.15	250.7	3.9
321.15	251.6	3.9
323.15	252.5	3.9
325.15	253.4	3.9
327.15	254.3	3.9
329.15	255.2	4
331.15	256.1	4
333.15	257.1	4
335.15	258	4
337.15	258.9	4
339.15	259.9	4

System: 2-butoxyethan-1-ol; phases: Liquid
Fixed: Pressure, kPa = 101.325
Property: Molar heat capacity at constant pressure, J/K/mol (Liquid); method: Large sample (1 g) DSC
Temperature, K	Molar heat capacity at constant pressure, J/K/mol	uncertainty
275.15	261.7	4.1
277.15	262.6	4.1
279.15	263.6	4.1
281.15	264.6	4.1
283.15	265.6	4.1
285.15	266.6	4.1
287.15	267.6	4.1
289.15	268.5	4.2
291.15	269.5	4.2
293.15	270.5	4.2
295.15	271.5	4.2
297.15	272.5	4.2
298.15	273	4.2
299.15	273.5	4.2
301.15	274.5	4.3
303.15	275.5	4.3
305.15	276.5	4.3
307.15	277.5	4.3
309.15	278.5	4.3
311.15	279.5	4.3
313.15	280.5	4.3
315.15	281.5	4.4
317.15	282.5	4.4
319.15	283.5	4.4
321.15	284.5	4.4
323.15	285.5	4.4
325.15	286.5	4.4
327.15	287.5	4.5
329.15	288.5	4.5
331.15	289.6	4.5
333.15	290.6	4.5
335.15	291.6	4.5
337.15	292.6	4.5
339.15	293.6	4.5

System: 2-(2-methoxyethoxy)ethanol; phases: Liquid
Fixed: Pressure, kPa = 101.325
Property: Molar heat capacity at constant pressure, J/K/mol (Liquid); method: Large sample (1 g) DSC
Temperature, K	Molar heat capacity at constant pressure, J/K/mol	uncertainty
275.15	261.9	4.1
277.15	262.3	4.1
279.15	262.7	4.1
281.15	263.2	4.1
283.15	263.6	4.1
285.15	264.1	4.1
287.15	264.6	4.1
289.15	265.1	4.1
291.15	265.6	4.1
293.15	266.1	4.1
295.15	266.6	4.1
297.15	267.1	4.1
298.15	267.4	4.1
299.15	267.6	4.1
301.15	268.2	4.2
303.15	268.7	4.2
305.15	269.3	4.2
307.15	269.8	4.2
309.15	270.4	4.2
311.15	271	4.2
313.15	271.6	4.2
315.15	272.2	4.2
317.15	272.8	4.2
319.15	273.4	4.2
321.15	274	4.2
323.15	274.7	4.3
325.15	275.3	4.3
327.15	276	4.3
329.15	276.6	4.3
331.15	277.3	4.3
333.15	278	4.3
335.15	278.7	4.3
337.15	279.4	4.3
339.15	280.1	4.3

System: 3,6-dioxa-1-octanol; phases: Liquid
Fixed: Pressure, kPa = 101.325
Property: Molar heat capacity at constant pressure, J/K/mol (Liquid); method: Large sample (1 g) DSC
Temperature, K	Molar heat capacity at constant pressure, J/K/mol	uncertainty
275.15	296.5	4.6
277.15	296.8	4.6
279.15	297.2	4.6
281.15	297.6	4.6
283.15	298	4.6
285.15	298.5	4.6
287.15	298.9	4.6
289.15	299.4	4.6
291.15	299.9	4.6
293.15	300.4	4.7
295.15	300.9	4.7
297.15	301.4	4.7
298.15	301.7	4.7
299.15	301.9	4.7
301.15	302.5	4.7
303.15	303.1	4.7
305.15	303.7	4.7
307.15	304.3	4.7
309.15	304.9	4.7
311.15	305.5	4.7
313.15	306.2	4.7
315.15	306.9	4.8
317.15	307.5	4.8
319.15	308.2	4.8
321.15	309	4.8
323.15	309.7	4.8
325.15	310.4	4.8
327.15	311.2	4.8
329.15	312	4.8
331.15	312.8	4.8
333.15	313.6	4.9
335.15	314.4	4.9
337.15	315.2	4.9
339.15	316.1	4.9

System: 2-(2-propoxyethoxy)ethanol; phases: Liquid
Fixed: Pressure, kPa = 101.325
Property: Molar heat capacity at constant pressure, J/K/mol (Liquid); method: Large sample (1 g) DSC
Temperature, K	Molar heat capacity at constant pressure, J/K/mol	uncertainty
275.15	321.3	5
277.15	322	5
279.15	322.6	5
281.15	323.3	5
283.15	324	5
285.15	324.7	5
287.15	325.4	5
289.15	326.1	5.1
291.15	326.8	5.1
293.15	327.5	5.1
295.15	328.2	5.1
297.15	329	5.1
298.15	329.4	5.1
299.15	329.7	5.1
301.15	330.5	5.1
303.15	331.3	5.1
305.15	332	5.1
307.15	332.8	5.2
309.15	333.6	5.2
311.15	334.4	5.2
313.15	335.2	5.2
315.15	336	5.2
317.15	336.9	5.2
319.15	337.7	5.2
321.15	338.5	5.2
323.15	339.4	5.3
325.15	340.3	5.3
327.15	341.1	5.3
329.15	342	5.3
331.15	342.9	5.3
333.15	343.8	5.3
335.15	344.7	5.3
337.15	345.6	5.4
339.15	346.5	5.4

System: 3,6-dioxa-1-decanol; phases: Liquid
Fixed: Pressure, kPa = 101.325
Property: Molar heat capacity at constant pressure, J/K/mol (Liquid); method: Large sample (1 g) DSC
Temperature, K	Molar heat capacity at constant pressure, J/K/mol	uncertainty
275.15	351.2	5.4
277.15	351.9	5.5
279.15	352.7	5.5
281.15	353.4	5.5
283.15	354.2	5.5
285.15	354.9	5.5
287.15	355.7	5.5
289.15	356.5	5.5
291.15	357.3	5.5
293.15	358.1	5.5
295.15	359	5.6
297.15	359.8	5.6
298.15	360.2	5.6
299.15	360.6	5.6
301.15	361.5	5.6
303.15	362.4	5.6
305.15	363.3	5.6
307.15	364.2	5.6
309.15	365.1	5.7
311.15	366	5.7
313.15	366.9	5.7
315.15	367.9	5.7
317.15	368.8	5.7
319.15	369.8	5.7
321.15	370.8	5.7
323.15	371.8	5.8
325.15	372.8	5.8
327.15	373.8	5.8
329.15	374.8	5.8
331.15	375.8	5.8
333.15	376.9	5.8
335.15	377.9	5.9
337.15	379	5.9
339.15	380.1	5.9

System: 2-(2-hexyloxyethoxy)ethanol; phases: Liquid
Fixed: Pressure, kPa = 101.325
Property: Molar heat capacity at constant pressure, J/K/mol (Liquid); method: Large sample (1 g) DSC
Temperature, K	Molar heat capacity at constant pressure, J/K/mol	uncertainty
275.15	411.2	6.4
277.15	412	6.4
279.15	412.8	6.4
281.15	413.6	6.4
283.15	414.4	6.4
285.15	415.3	6.4
287.15	416.1	6.4
289.15	417	6.5
291.15	417.9	6.5
293.15	418.7	6.5
295.15	419.6	6.5
297.15	420.5	6.5
298.15	421	6.5
299.15	421.4	6.5
301.15	422.3	6.5
303.15	423.2	6.6
305.15	424.2	6.6
307.15	425.1	6.6
309.15	426	6.6
311.15	427	6.6
313.15	428	6.6
315.15	428.9	6.6
317.15	429.9	6.7
319.15	430.9	6.7
321.15	431.9	6.7
323.15	432.9	6.7
325.15	433.9	6.7
327.15	434.9	6.7
329.15	436	6.8
331.15	437	6.8
333.15	438	6.8
335.15	439.1	6.8
337.15	440.2	6.8
339.15	441.2	6.8

System: 2-[2-(2-methoxyethoxy)ethoxy]ethanol; phases: Liquid
Fixed: Pressure, kPa = 101.325
Property: Molar heat capacity at constant pressure, J/K/mol (Liquid); method: Large sample (1 g) DSC
Temperature, K	Molar heat capacity at constant pressure, J/K/mol	uncertainty
275.15	352.2	5.5
277.15	352.6	5.5
279.15	352.9	5.5
281.15	353.2	5.5
283.15	353.6	5.5
285.15	353.9	5.5
287.15	354.3	5.5
289.15	354.7	5.5
291.15	355.1	5.5
293.15	355.5	5.5
295.15	355.9	5.5
297.15	356.3	5.5
298.15	356.6	5.5
299.15	356.8	5.5
301.15	357.2	5.5
303.15	357.7	5.5
305.15	358.1	5.5
307.15	358.6	5.6
309.15	359.1	5.6
311.15	359.6	5.6
313.15	360.1	5.6
315.15	360.6	5.6
317.15	361.2	5.6
319.15	361.7	5.6
321.15	362.2	5.6
323.15	362.8	5.6
325.15	363.4	5.6
327.15	364	5.6
329.15	364.5	5.6
331.15	365.1	5.7
333.15	365.8	5.7
335.15	366.4	5.7
337.15	367	5.7
339.15	367.6	5.7

System: 2-[2-[2-(octyloxy)ethoxy]ethoxy]ethanol; phases: Liquid
Fixed: Pressure, kPa = 101.325
Property: Molar heat capacity at constant pressure, J/K/mol (Liquid); method: Large sample (1 g) DSC
Temperature, K	Molar heat capacity at constant pressure, J/K/mol	uncertainty
275.15	563.7	8.7
277.15	564.5	8.7
279.15	565.2	8.8
281.15	566	8.8
283.15	566.9	8.8
285.15	567.7	8.8
287.15	568.6	8.8
289.15	569.5	8.8
291.15	570.4	8.8
293.15	571.3	8.9
295.15	572.2	8.9
297.15	573.2	8.9
298.15	573.7	8.9
299.15	574.2	8.9
301.15	575.2	8.9
303.15	576.2	8.9
305.15	577.3	8.9
307.15	578.4	9
309.15	579.5	9
311.15	580.6	9
313.15	581.7	9
315.15	582.9	9
317.15	584.1	9
319.15	585.3	9.1
321.15	586.5	9.1
323.15	587.7	9.1
325.15	589	9.1
327.15	590.3	9.1
329.15	591.6	9.2
331.15	592.9	9.2
333.15	594.3	9.2
335.15	595.6	9.2
337.15	597	9.2
339.15	598.4	9.3

System: 3,6,9,12-tetraoxatridecanol; phases: Liquid
Fixed: Pressure, kPa = 101.325
Property: Molar heat capacity at constant pressure, J/K/mol (Liquid); method: Large sample (1 g) DSC
Temperature, K	Molar heat capacity at constant pressure, J/K/mol	uncertainty
275.15	445.4	6.9
277.15	445.6	6.9
279.15	445.8	6.9
281.15	446	6.9
283.15	446.2	6.9
285.15	446.5	6.9
287.15	446.8	6.9
289.15	447.1	6.9
291.15	447.4	6.9
293.15	447.7	6.9
295.15	448.1	6.9
297.15	448.4	6.9
298.15	448.6	6.9
299.15	448.8	7
301.15	449.2	7
303.15	449.6	7
305.15	450	7
307.15	450.5	7
309.15	451	7
311.15	451.5	7
313.15	452	7
315.15	452.5	7
317.15	453	7
319.15	453.6	7
321.15	454.2	7
323.15	454.8	7
325.15	455.4	7.1
327.15	456	7.1
329.15	456.6	7.1
331.15	457.3	7.1
333.15	458	7.1
335.15	458.7	7.1
337.15	459.4	7.1
339.15	460.1	7.1
