Measured thermophysical data. Heat Capacity and Standard Thermodynamic Functions of NaGdTiO4 and Na2Gd2Ti3O10 over the Range from (6 to 630) K
Source: J. Chem. Eng. Data, 2015, 10.1021/acs.jced.5b00047
Compound 1: sodium gadolinium titanate, GdNaO4Ti, InChI=1S/Gd.Na.4O.Ti/q+3;+1;4*-2;+4, purity 98%
Compound 2: sodium decaoxotrititanatedigadolinate, Gd2Na2O10Ti3, InChI=1S/2Gd.2Na.10O.3Ti/q2*+3;2*+1;10*-2;3*+4, purity 98%

System: sodium gadolinium titanate; phases: Crystal 2
Fixed: Pressure, kPa = 101.325
Property: Molar heat capacity at constant pressure, J/K/mol (Crystal 2); method: Small (less than 1 g) adiabatic calorimetry
Temperature, K	Molar heat capacity at constant pressure, J/K/mol	uncertainty
6.81	1.52	0.05
6.98	1.45	0.04
7.18	1.42	0.04
7.38	1.41	0.04
7.58	1.37	0.04
7.78	1.37	0.04
7.98	1.35	0.04
8.17	1.38	0.04
8.37	1.33	0.04
8.56	1.33	0.04
8.75	1.34	0.04
8.94	1.36	0.04
9.13	1.38	0.04
9.32	1.38	0.04
9.51	1.39	0.04
9.71	1.39	0.04
9.89	1.35	0.04
10.08	1.38	0.04
10.35	1.39	0.04
10.7	1.39	0.04
11.05	1.39	0.04
11.4	1.42	0.04
11.76	1.44	0.04
12.12	1.5	0.04
12.49	1.53	0.04
12.86	1.55	0.04
13.24	1.57	0.04
13.62	1.59	0.04
14	1.61	0.04
14.38	1.64	0.05
14.76	1.7	0.05
15.15	1.74	0.03
15.52	1.81	0.04
15.92	1.9	0.04
16.31	1.95	0.04
16.71	2.05	0.04
17.11	2.17	0.04
17.51	2.24	0.04
17.92	2.36	0.04
18.33	2.5	0.04
18.74	2.67	0.04
19.17	2.76	0.04
19.59	2.86	0.04
20.01	3.095	0.044
20.85	3.434	0.047
22.13	4.02	0.05
23.43	4.694	0.055
24.77	5.427	0.06
26.13	6.26	0.065
27.52	7.2	0.07
28.93	8.195	0.075
30.36	9.286	0.114
31.82	10.43	0.12
33.3	11.59	0.13
34.79	12.79	0.13
36.29	14.04	0.14
37.81	15.37	0.15
39.34	16.74	0.15
40.89	18.06	0.15
42.45	19.5	0.15
44.02	20.95	0.16
45.6	22.45	0.16
47.19	23.92	0.17
48.79	25.45	0.18
50.4	27.01	0.18
52.02	28.57	0.19
53.64	30.04	0.19
55.27	31.51	0.2
56.91	33.04	0.21
58.55	34.55	0.21
60.2	36.04	0.22
61.85	37.52	0.22
63.5	39.02	0.23
65.16	40.72	0.24
66.82	41.92	0.24
68.49	43.51	0.25
70.16	45.1	0.25
72.24	46.9	0.26
74.73	49.06	0.27
77.23	51.29	0.28
79.74	53.31	0.28
80.89	53.93	0.29
83.89	56.4	0.3
86.41	58.39	0.3
88.93	60.35	0.31
91.45	62.32	0.35
93.98	64.24	0.35
96.51	66.14	0.36
99.05	67.93	0.37
101.59	69.81	0.37
104.12	71.6	0.38
106.67	73.34	0.38
109.21	75.05	0.39
111.76	76.8	0.39
114.31	78.47	0.4
116.86	80.11	0.4
119.41	81.69	0.41
121.98	83.34	0.41
124.53	84.9	0.42
127.09	86.43	0.42
129.65	87.87	0.43
132.21	89.41	0.43
134.77	90.9	0.44
137.33	92.37	0.44
139.9	93.76	0.45
142.46	95.16	0.45
145.03	96.47	0.46
147.59	97.84	0.46
150.15	99.2	0.47
152.72	100.5	0.5
157.85	103	0.5
160.41	104.2	0.5
162.98	105.4	0.5
165.54	106.6	0.5
168.11	107.7	0.5
170.67	108.8	0.5
173.24	110	0.5
175.8	111.3	0.5
178.36	112.2	0.5
180.93	113.2	0.5
183.49	114.4	0.5
186.05	115.5	0.5
188.6	116.6	0.5
191.16	117.5	0.5
193.72	118.6	0.5
196.28	119.6	0.5
198.84	120.6	0.5
201.4	121.6	0.5
203.95	122.8	0.5
206.51	123.6	0.6
209.07	124.6	0.6
211.63	125.6	0.6
214.19	126.6	0.6
216.75	127.5	0.6
219.31	128.4	0.6
221.87	129.5	0.6
224.44	130.4	0.6
227	131.3	0.6
229.56	132.6	0.6
234.7	133.9	0.6
237.26	134.7	0.6
239.82	135.7	0.6
242.39	136.5	0.6
244.95	137.4	0.6
247.51	138.2	0.6
250.08	139.1	0.6
252.64	139.8	0.6
255.21	140.7	0.6
257.77	141.4	0.6
260.33	142.2	0.6
262.89	143	0.6
265.45	143.7	0.6
268.01	144.5	0.6
270.57	145.3	0.6
273.12	146	0.6
275.68	146.8	0.6
278.23	147.5	0.6
280.77	148.2	0.6
283.32	149	0.6
285.84	149.8	0.6
288.38	150.5	0.6
290.92	151.2	0.6
294.66	152	0.6
297.49	152.5	0.7
300	153.9	0.7
302.86	154.4	0.7
306.18	155.4	0.7
309.48	156.3	0.7
155.28	101.7	0.5
232.13	133.1	0.6
312.78	157.3	0.7
316.05	158.3	0.7
319.33	159.2	0.7
322.61	160.3	0.7
325.88	161.4	0.7
329.14	162.4	0.7
332.4	163.5	0.7
335.65	164.7	0.7
338.89	166	0.7
342.12	167.3	0.7
345.34	168.7	0.7

System: sodium gadolinium titanate; phases: Crystal 2
Fixed: Pressure, kPa = 101.325
Property: Molar heat capacity at constant pressure, J/K/mol (Crystal 2); method: Small sample (50 mg) DSC
Temperature, K	Molar heat capacity at constant pressure, J/K/mol	uncertainty
320.1	160	4
325.1	161	4
330.1	163	4
335.1	164	4
343.1	168	4
348.1	169	4
351.3	170	4
355.1	172	4
360.1	173	4
365.1	175	4
370.1	176	4
375.1	178	4
380.1	179	4
385.1	180	4
390.1	182	4
395.1	183	5
400.1	184	5
405.1	185	5
410.1	185	5
415.1	186	5
420.1	187	5
425.1	187	5
430.1	188	5
435.1	188	5
440.1	189	5
443.8	189	5
450.1	190	5
455.1	190	5
460.1	190	5
465.1	191	5
470.1	191	5
475.1	192	5
480.1	192	5
485.1	192	5
490.1	192	5
495.1	193	5
500.1	193	5
505.1	193	5
510.1	193	5
515.1	194	5
520.1	194	5
525.1	194	5
530.1	194	5
535.1	195	5
540.1	195	5
545.1	195	5
550.1	195	5
555.1	195	5
560.1	195	5
565.1	196	5
570.1	196	5
575.1	197	5
580.1	197	5
585.1	197	5
590.1	198	5
595.1	198	5
600.1	198	5
605.1	198	5
610.1	199	5
615.1	199	5
620.1	199	5
625.1	199	5
630.1	199	5

System: sodium gadolinium titanate; phases: Crystal 2
Fixed: Pressure, kPa = 101.325
Property: Molar heat capacity at constant pressure, J/K/mol (Crystal 2); method: Small (less than 1 g) adiabatic calorimetry
Temperature, K	Molar heat capacity at constant pressure, J/K/mol	uncertainty
5	1.73	0.05
10	1.37	0.04
15	1.7	0.03
20	3.089	0.044
25	5.59	0.061
30	8.998	0.113
40	17.28	0.14
50	26.62	0.18
60	35.85	0.22
70	44.94	0.25
80	53.63	0.29
90	61.35	0.35
100	68.62	0.37
110	75.62	0.39
120	82.09	0.41
130	88.14	0.43
140	93.8	0.45
150	99.09	0.47
160	104	0.5
170	108.6	0.5
180	112.9	0.5
190	117.1	0.5
200	121	0.5
210	125	0.6
220	128.7	0.6
230	132.3	0.6
240	135.7	0.6
250	139	0.6
260	142.1	0.6
270	145.1	0.6
280	148.1	0.6
290	150.9	0.6
298.15	153.2	0.7
300	153.7	0.7
310	156.5	0.7
320	159.5	0.7
330	162.7	0.7
340	166.2	0.7

System: sodium gadolinium titanate; phases: Crystal 2
Fixed: Pressure, kPa = 101.325
Property: Molar heat capacity at constant pressure, J/K/mol (Crystal 2); method: Small sample (50 mg) DSC
Temperature, K	Molar heat capacity at constant pressure, J/K/mol	uncertainty
350	170	4
360	173	4
370	176	4
380	179	4
390	182	4
400	184	5
410	185	5
420	186	5
430	188	5
440	189	5
450	190	5
460	190	5
470	191	5
480	192	5
490	192	5
500	193	5
510	193	5
520	194	5
530	194	5
540	195	5
550	195	5
560	195	5
570	196	5
580	197	5
590	198	5
600	198	5
610	199	5
620	199	5
630	200	5

System: sodium decaoxotrititanatedigadolinate; phases: Crystal 2
Fixed: Pressure, kPa = 101.325
Property: Molar heat capacity at constant pressure, J/K/mol (Crystal 2); method: Small (less than 1 g) adiabatic calorimetry
Temperature, K	Molar heat capacity at constant pressure, J/K/mol	uncertainty
5.36	2.2	0.06
5.56	2.09	0.06
5.78	1.96	0.06
5.99	1.85	0.05
6.2	1.69	0.05
6.41	1.57	0.05
6.6	1.52	0.05
6.79	1.53	0.05
6.99	1.44	0.04
7.18	1.41	0.04
7.36	1.38	0.04
7.55	1.36	0.04
7.73	1.33	0.04
7.91	1.38	0.04
8.09	1.36	0.04
8.27	1.34	0.04
8.45	1.35	0.04
8.63	1.31	0.04
8.81	1.34	0.04
8.98	1.37	0.04
9.16	1.37	0.04
9.33	1.32	0.04
9.5	1.37	0.04
9.67	1.4	0.04
9.84	1.47	0.04
10.02	1.48	0.04
10.27	1.42	0.04
10.59	1.48	0.04
10.91	1.5	0.04
11.23	1.52	0.04
11.53	1.62	0.05
11.86	1.67	0.05
12.2	1.73	0.05
12.54	1.85	0.05
12.89	1.95	0.05
13.24	2.05	0.05
13.6	2.17	0.06
13.96	2.28	0.06
14.32	2.49	0.06
14.68	2.67	0.07
15.06	2.84	0.05
15.43	2.98	0.05
15.81	3.24	0.05
16.19	3.49	0.05
16.58	3.76	0.06
16.97	4.04	0.06
17.35	4.26	0.06
17.75	4.56	0.06
18.15	4.88	0.06
18.56	5.31	0.07
18.97	5.62	0.07
19.39	5.98	0.07
19.81	6.31	0.08
20.63	7.25	0.083
21.89	8.595	0.094
23.2	10.12	0.1
24.53	11.9	0.12
25.89	13.76	0.13
27.28	15.85	0.14
28.7	18.07	0.15
30.14	20.52	0.18
31.6	22.94	0.19
33.07	25.59	0.21
34.57	28.21	0.22
36.08	30.88	0.24
37.61	33.7	0.25
39.16	36.6	0.27
40.71	39.57	0.23
42.28	42.56	0.24
43.85	45.69	0.26
45.44	48.89	0.27
47.04	52.01	0.28
48.65	55.29	0.29
50.27	58.63	0.31
51.89	61.81	0.32
53.52	65.1	0.33
55.16	68.18	0.34
56.8	71.45	0.35
58.45	74.83	0.37
60.1	78.2	0.38
61.76	81.39	0.39
63.42	84.61	0.41
65.09	87.97	0.42
66.75	91.38	0.43
68.43	94.41	0.45
70.1	97.88	0.46
72.19	101.9	0.5
74.69	106.7	0.5
77.19	111.5	0.5
79.71	116.1	0.5
81.46	119	0.5
84.37	124.7	0.6
86.89	129.3	0.6
89.41	133.8	0.6
91.94	138.2	0.6
94.48	142.6	0.6
97.02	147.1	0.6
99.56	151.4	0.6
102.11	155.8	0.7
104.65	160	0.7
107.21	164.1	0.7
109.76	168.2	0.7
112.32	172.2	0.7
114.88	176.3	0.7
117.44	180.2	0.7
120.01	184.2	0.8
122.59	188.1	0.8
125.16	192	0.8
127.74	195.7	0.8
130.31	199.4	0.8
132.89	203.1	0.8
135.46	206.7	0.8
138.04	210.3	0.8
140.62	213.8	0.9
143.2	217.3	0.9
145.78	220.6	0.9
150.95	227.2	0.9
153.54	230.3	0.9
156.13	233.6	0.9
158.72	236.7	0.9
161.31	239.7	1
163.92	242.6	1
166.51	245.5	1
169.1	248.4	1
171.7	251.3	1
174.29	254	1
176.88	256.9	1
179.48	259.6	1
182.08	262.3	1
184.67	265	1
187.27	267.6	1
189.87	270.2	1.1
192.47	272.6	1.1
195.06	275.2	1.1
197.66	277.9	1.1
200.26	280.4	1.1
202.87	282.7	1.1
205.49	285.4	1.1
208.1	287.7	1.1
210.71	290.1	1.1
213.32	292.4	1.1
215.93	295	1.1
221.16	299.5	1.2
223.77	301.8	1.2
226.39	304	1.2
229.01	306.9	1.2
231.63	308.9	1.2
234.25	310.7	1.2
236.88	312.8	1.2
239.5	315	1.2
242.13	317.4	1.2
244.76	319.6	1.2
247.42	321.8	1.2
250.05	323.8	1.2
252.68	326	1.2
255.31	328	1.3
257.95	330	1.3
260.58	332.2	1.3
263.21	334.1	1.3
265.85	336	1.3
268.48	338.1	1.3
271.12	339.9	1.3
273.75	341.7	1.3
276.38	343.7	1.3
279.02	345.8	1.3
281.65	347.3	1.3
284.28	349.1	1.3
286.9	351.1	1.3
148.37	223.9	0.9
218.54	297.2	1.1
289.55	353.1	1.3

System: sodium decaoxotrititanatedigadolinate; phases: Crystal 2
Fixed: Pressure, kPa = 101.325
Property: Molar heat capacity at constant pressure, J/K/mol (Crystal 2); method: Small sample (50 mg) DSC
Temperature, K	Molar heat capacity at constant pressure, J/K/mol	uncertainty
320.3	375	9
325.3	378	9
330.3	380	9
335.3	383	9
340.3	386	9
345.3	388	10
350.3	391	10
355.3	395	10
360.3	397	10
365.3	400	10
370.3	403	10
375.3	404	10
380.3	406	10
385.3	407	10
390.3	408	10
395.3	409	10
400.3	411	10
405.3	411	10
410.3	412	10
415.3	412	10
420.3	413	10
425.3	414	10
430.3	414	10
435.3	416	10
440.3	416	10
445.3	416	10
450.3	417	10
455.3	417	10
460.3	418	10
465.3	418	10
470.3	419	10
475.3	420	10
480.3	420	10
485.3	422	10
490.3	422	10
495.3	422	10
500.3	421	10
505.3	422	10
510.3	423	10
515.3	423	10
520.3	423	10
525.3	423	10
530.3	423	10
535.3	423	10
540.3	424	10
545.3	425	10
550.3	425	10
555.3	426	10
560.3	426	10
565.3	426	10
570.3	427	10
575.3	428	10
580.3	428	10
585.3	429	11
590.3	429	11
595.3	430	11
600.3	431	11
605.3	432	11
610.3	433	11
615.3	433	11
620.3	434	11
625.3	434	11
630.3	435	11

System: sodium decaoxotrititanatedigadolinate; phases: Crystal 2
Fixed: Pressure, kPa = 101.325
Property: Molar heat capacity at constant pressure, J/K/mol (Crystal 2); method: Small (less than 1 g) adiabatic calorimetry
Temperature, K	Molar heat capacity at constant pressure, J/K/mol	uncertainty
5	2.06	0.06
10	1.39	0.04
15	2.82	0.05
20	6.652	0.079
25	12.57	0.12
30	20.22	0.18
40	38.27	0.23
50	57.92	0.3
60	77.94	0.38
70	97.65	0.46
80	116.6	0.5
90	134.8	0.6
100	152.1	0.7
110	168.6	0.7
120	184.3	0.8
130	199	0.8
140	212.9	0.9
150	225.9	0.9
160	238.1	0.9
170	249.5	1
180	260.2	1
190	270.4	1.1
200	280.1	1.1
210	289.4	1.1
220	298.5	1.2
230	307.3	1.2
240	315.7	1.2
250	323.7	1.2
260	331.5	1.3
270	339.5	1.3
280	346.4	1.3
290	352.7	1.3
298.15	358.3	1.4
300	359.5	1.4
310	367	1.4
320	374.4	1.4
330	380.7	1.4
340	385.5	1.5
350	391.3	1.5

System: sodium decaoxotrititanatedigadolinate; phases: Crystal 2
Fixed: Pressure, kPa = 101.325
Property: Molar heat capacity at constant pressure, J/K/mol (Crystal 2); method: Small sample (50 mg) DSC
Temperature, K	Molar heat capacity at constant pressure, J/K/mol	uncertainty
360	397	10
370	402	10
380	406	10
390	408	10
400	410	10
410	412	10
420	413	10
430	414	10
440	416	10
450	417	10
460	418	10
470	419	10
480	420	10
490	422	10
500	421	10
510	423	10
520	423	10
530	423	10
540	424	10
550	425	10
560	426	10
570	427	10
580	428	10
590	429	11
600	431	11
610	432	11
620	434	11
630	435	11
