Measured thermophysical data. Solubility and Data Correlation of b-Arbutin in Different Monosolvents from 283.15 to 323.15 K
Source: J. Chem. Eng. Data, 2019, 10.1021/acs.jced.9b00703
Compound 1: .beta.-arbutin, C12H16O7, InChI=1S/C12H16O7/c13-5-8-9(15)10(16)11(17)12(19-8)18-7-3-1-6(14)2-4-7/h1-4,8-17H,5H2/t8-,9-,10+,11-,12-/m1/s1, purity 99.5%
Compound 2: methanol, CH4O, InChI=1S/CH4O/c1-2/h2H,1H3, purity 99.5%
Compound 3: ethanol, C2H6O, InChI=1S/C2H6O/c1-2-3/h3H,2H2,1H3, purity 99.7%
Compound 4: propan-1-ol, C3H8O, InChI=1S/C3H8O/c1-2-3-4/h4H,2-3H2,1H3, purity 99%
Compound 5: propan-2-ol, C3H8O, InChI=1S/C3H8O/c1-3(2)4/h3-4H,1-2H3, purity 99.7%
Compound 6: butan-1-ol, C4H10O, InChI=1S/C4H10O/c1-2-3-4-5/h5H,2-4H2,1H3, purity 99.5%
Compound 7: 2-methyl-1-propanol, C4H10O, InChI=1S/C4H10O/c1-4(2)3-5/h4-5H,3H2,1-2H3, purity 99%
Compound 8: 1,2-ethanediol, C2H6O2, InChI=1S/C2H6O2/c3-1-2-4/h3-4H,1-2H2, purity 99.5%
Compound 9: acetone, C3H6O, InChI=1S/C3H6O/c1-3(2)4/h1-2H3, purity 99.5%
Compound 10: butanone, C4H8O, InChI=1S/C4H8O/c1-3-4(2)5/h3H2,1-2H3, purity 99.5%
Compound 11: acetonitrile, C2H3N, InChI=1S/C2H3N/c1-2-3/h1H3, purity 99.9%
Compound 12: methyl ethanoate, C3H6O2, InChI=1S/C3H6O2/c1-3(4)5-2/h1-2H3, purity 99%
Compound 13: ethyl acetate, C4H8O2, InChI=1S/C4H8O2/c1-3-6-4(2)5/h3H2,1-2H3, purity 99.5%

System: .beta.-arbutin; phases: Crystal, Liquid, Air at 1 atmosphere
Property: Triple point temperature, K (Crystal); method: DSC
Triple point temperature, K	uncertainty
475.25	0.87

System: .beta.-arbutin; phases: Crystal, Liquid, Air at 1 atmosphere
Property: Molar enthalpy of transition or fusion, kJ/mol (Crystal); method: DSC
Molar enthalpy of transition or fusion, kJ/mol	uncertainty
44.82	1.59

System: .beta.-arbutin + methanol; phases: Liquid, Crystal
Fixed: Pressure, kPa = 100
Property: Mole fraction of .beta.-arbutin (Liquid); method: gravimetric
Temperature, K	Mole fraction of .beta.-arbutin	uncertainty
283.15	0.0112769	0.0011279
288.15	0.0117309	0.0011734
293.15	0.0122917	0.0012294
298.15	0.0131509	0.0013154
303.15	0.0143434	0.0014347
308.15	0.0159705	0.0015974
313.15	0.0176105	0.0017615
318.15	0.0190943	0.0019099
323.15	0.0220805	0.0022086

System: .beta.-arbutin + ethanol; phases: Liquid, Crystal
Fixed: Pressure, kPa = 100
Property: Mole fraction of .beta.-arbutin (Liquid); method: gravimetric
Temperature, K	Mole fraction of .beta.-arbutin	uncertainty
283.15	0.0026319	0.0002632
288.15	0.0026825	0.0002683
293.15	0.0029045	0.0002905
298.15	0.0030933	0.0003094
303.15	0.0035317	0.0003533
308.15	0.0041908	0.0004192
313.15	0.0047744	0.0004776
318.15	0.0055053	0.0005507
323.15	0.0059034	0.0005905

System: .beta.-arbutin + propan-1-ol; phases: Liquid, Crystal
Fixed: Pressure, kPa = 100
Property: Mole fraction of .beta.-arbutin (Liquid); method: gravimetric
Temperature, K	Mole fraction of .beta.-arbutin	uncertainty
283.15	0.0007637	7.64e-05
288.15	0.0008887	8.89e-05
293.15	0.0010301	0.000103
298.15	0.001146	0.000115
303.15	0.0012844	0.0001285
308.15	0.0015468	0.0001547
313.15	0.0018062	0.0001807
318.15	0.0020702	0.0002071
323.15	0.0022985	0.0002299

System: .beta.-arbutin + propan-2-ol; phases: Liquid, Crystal
Fixed: Pressure, kPa = 100
Property: Mole fraction of .beta.-arbutin (Liquid); method: gravimetric
Temperature, K	Mole fraction of .beta.-arbutin	uncertainty
283.15	0.0007266	7.27e-05
288.15	0.0008583	8.59e-05
293.15	0.0008999	9e-05
298.15	0.0010775	0.0001078
303.15	0.0012466	0.0001247
308.15	0.0015955	0.0001596
313.15	0.0019118	0.0001912
318.15	0.0021643	0.0002165
323.15	0.002608	0.000261

System: .beta.-arbutin + butan-1-ol; phases: Liquid, Crystal
Fixed: Pressure, kPa = 100
Property: Mole fraction of .beta.-arbutin (Liquid); method: gravimetric
Temperature, K	Mole fraction of .beta.-arbutin	uncertainty
283.15	0.0003762	3.76e-05
288.15	0.0004994	5e-05
293.15	0.0005656	5.66e-05
298.15	0.0006992	6.99e-05
303.15	0.0007496	7.5e-05
308.15	0.0010018	0.0001002
313.15	0.0011479	0.0001148
318.15	0.001309	0.000131
323.15	0.0014449	0.0001445

System: .beta.-arbutin + 2-methyl-1-propanol; phases: Liquid, Crystal
Fixed: Pressure, kPa = 100
Property: Mole fraction of .beta.-arbutin (Liquid); method: gravimetric
Temperature, K	Mole fraction of .beta.-arbutin	uncertainty
283.15	0.0002247	2.25e-05
288.15	0.0002791	2.79e-05
293.15	0.000303	3e-05
298.15	0.0003942	3.94e-05
303.15	0.0004535	4.54e-05
308.15	0.0005717	5.72e-05
313.15	0.0006682	6.68e-05
318.15	0.0009106	9.11e-05
323.15	0.0010394	0.000104

System: .beta.-arbutin + 1,2-ethanediol; phases: Liquid, Crystal
Fixed: Pressure, kPa = 100
Property: Mole fraction of .beta.-arbutin (Liquid); method: gravimetric
Temperature, K	Mole fraction of .beta.-arbutin	uncertainty
283.15	0.0471163	0.0047127
288.15	0.0486388	0.004865
293.15	0.0507222	0.0050734
298.15	0.0526871	0.0052699
303.15	0.0549244	0.0054937
308.15	0.0571526	0.0057166
313.15	0.0601349	0.0060149
318.15	0.0631211	0.0063135
323.15	0.066608	0.0066623

System: .beta.-arbutin + acetone; phases: Liquid, Crystal
Fixed: Pressure, kPa = 100
Property: Mole fraction of .beta.-arbutin (Liquid); method: gravimetric
Temperature, K	Mole fraction of .beta.-arbutin	uncertainty
283.15	0.0006862	6.86e-05
288.15	0.0007104	7.11e-05
293.15	0.0007727	7.73e-05
298.15	0.0007987	7.99e-05
303.15	0.0008674	8.68e-05
308.15	0.0010125	0.0001013
313.15	0.0011776	0.0001178
318.15	0.0012692	0.0001269
323.15	0.001428	0.000143

System: .beta.-arbutin + butanone; phases: Liquid, Crystal
Fixed: Pressure, kPa = 100
Property: Mole fraction of .beta.-arbutin (Liquid); method: gravimetric
Temperature, K	Mole fraction of .beta.-arbutin	uncertainty
283.15	0.0001883	1.88e-05
288.15	0.0002125	2.13e-05
293.15	0.0002432	2.43e-05
298.15	0.0002601	2.6e-05
303.15	0.0002968	2.97e-05
308.15	0.0003459	3.46e-05
313.15	0.0004177	4.18e-05
318.15	0.0004504	4.51e-05
323.15	0.0005239	5.24e-05

System: .beta.-arbutin + acetonitrile; phases: Liquid, Crystal
Fixed: Pressure, kPa = 100
Property: Mole fraction of .beta.-arbutin (Liquid); method: gravimetric
Temperature, K	Mole fraction of .beta.-arbutin	uncertainty
283.15	8.17e-05	8.2e-06
288.15	9.3e-05	9e-06
293.15	0.0001238	1.24e-05
298.15	0.0001487	1.49e-05
303.15	0.0001628	1.63e-05
308.15	0.0002107	2.11e-05
313.15	0.0002356	2.36e-05
318.15	0.0003183	3.18e-05
323.15	0.0003619	3.62e-05

System: .beta.-arbutin + methyl ethanoate; phases: Liquid, Crystal
Fixed: Pressure, kPa = 100
Property: Mole fraction of .beta.-arbutin (Liquid); method: gravimetric
Temperature, K	Mole fraction of .beta.-arbutin	uncertainty
283.15	0.0001123	1.12e-05
288.15	0.0001294	1.29e-05
293.15	0.0001396	1.4e-05
298.15	0.000154	1.5e-05
303.15	0.0001846	1.85e-05
308.15	0.0002389	2.39e-05
313.15	0.0002769	2.77e-05
318.15	0.0003525	3.53e-05
323.15	0.0004103	4.1e-05

System: .beta.-arbutin + ethyl acetate; phases: Liquid, Crystal
Fixed: Pressure, kPa = 100
Property: Mole fraction of .beta.-arbutin (Liquid); method: gravimetric
Temperature, K	Mole fraction of .beta.-arbutin	uncertainty
283.15	8.03e-05	8e-06
288.15	8.14e-05	8.1e-06
293.15	8.6e-05	9e-06
298.15	9.09e-05	9.1e-06
303.15	9.62e-05	9.6e-06
308.15	0.0001038	1.04e-05
313.15	0.0001117	1.12e-05
318.15	0.0001241	1.24e-05
323.15	0.0001558	1.56e-05
