Measured thermophysical data. Comparative Dielectric Study and Molecular Interactions of Binary Mixtures of (Cyclohexanone + 1-Alkanols) and (Cyclopentanone or Cyclohexanone + Cyclohexanol or Cyclohexane) at T = 298.15 K
Source: J. Chem. Eng. Data, 2018, 10.1021/acs.jced.8b00755
Compound 1: cyclopentanone, C5H8O, InChI=1S/C5H8O/c6-5-3-1-2-4-5/h1-4H2, purity 99%
Compound 2: cyclohexanone, C6H10O, InChI=1S/C6H10O/c7-6-4-2-1-3-5-6/h1-5H2, purity 99%
Compound 3: cyclohexane, C6H12, InChI=1S/C6H12/c1-2-4-6-5-3-1/h1-6H2, purity 99.9%
Compound 4: cyclohexanol, C6H12O, InChI=1S/C6H12O/c7-6-4-2-1-3-5-6/h6-7H,1-5H2, purity 99%
Compound 5: ethanol, C2H6O, InChI=1S/C2H6O/c1-2-3/h3H,2H2,1H3, purity 99%
Compound 6: butan-1-ol, C4H10O, InChI=1S/C4H10O/c1-2-3-4-5/h5H,2-4H2,1H3, purity 99%
Compound 7: hexan-1-ol, C6H14O, InChI=1S/C6H14O/c1-2-3-4-5-6-7/h7H,2-6H2,1H3, purity 98%
Compound 8: octan-1-ol, C8H18O, InChI=1S/C8H18O/c1-2-3-4-5-6-7-8-9/h9H,2-8H2,1H3, purity 99%
Compound 9: decan-1-ol, C10H22O, InChI=1S/C10H22O/c1-2-3-4-5-6-7-8-9-10-11/h11H,2-10H2,1H3, purity 99%

System: cyclopentanone; phases: Liquid
Property: Relative permittivity at zero frequency (Liquid); method: Coaxial cylinder capacitor
Temperature, K	Pressure, kPa	Relative permittivity at zero frequency	uncertainty
298.15	101.3	13.52	0.63

System: cyclopentanone; phases: Liquid
Property: Refractive index (Na D-line) (Liquid); method: Standard Abbe refractometry
Temperature, K	Pressure, kPa	Refractive index (Na D-line)	uncertainty
298.15	101.3	1.4347	0.0011

System: cyclohexanone; phases: Liquid
Property: Relative permittivity at zero frequency (Liquid); method: Coaxial cylinder capacitor
Temperature, K	Pressure, kPa	Relative permittivity at zero frequency	uncertainty
298.15	101.3	15.81	0.68

System: cyclohexanone; phases: Liquid
Property: Refractive index (Na D-line) (Liquid); method: Standard Abbe refractometry
Temperature, K	Pressure, kPa	Refractive index (Na D-line)	uncertainty
298.15	101.3	1.4485	0.0011

System: cyclohexanone; phases: Liquid
Property: Mass density, kg/m3 (Liquid); method: Vibrating tube method
Temperature, K	Pressure, kPa	Mass density, kg/m3	uncertainty
298.15	101.3	942.47	1.02

System: cyclohexane; phases: Liquid
Fixed: Temperature, K = 298.15
Fixed: Pressure, kPa = 101.3
Property: Relative permittivity at zero frequency (Liquid); method: Coaxial cylinder capacitor
Relative permittivity at zero frequency	uncertainty
2.021	0.288
2.02	0.29

System: cyclohexane; phases: Liquid
Property: Refractive index (Na D-line) (Liquid); method: Standard Abbe refractometry
Temperature, K	Pressure, kPa	Refractive index (Na D-line)	uncertainty
298.15	101.3	1.4235	0.001

System: cyclohexanol; phases: Liquid
Property: Relative permittivity at zero frequency (Liquid); method: Coaxial cylinder capacitor
Temperature, K	Pressure, kPa	Relative permittivity at zero frequency	uncertainty
298.15	101.3	15.71	0.68

System: cyclohexanol; phases: Liquid
Property: Refractive index (Na D-line) (Liquid); method: Standard Abbe refractometry
Temperature, K	Pressure, kPa	Refractive index (Na D-line)	uncertainty
298.15	101.3	1.4646	0.0011

System: ethanol; phases: Liquid
Property: Relative permittivity at zero frequency (Liquid); method: Coaxial cylinder capacitor
Temperature, K	Pressure, kPa	Relative permittivity at zero frequency	uncertainty
298.15	101.3	24.37	0.84

System: ethanol; phases: Liquid
Property: Refractive index (Na D-line) (Liquid); method: Standard Abbe refractometry
Temperature, K	Pressure, kPa	Refractive index (Na D-line)	uncertainty
298.15	101.3	1.3594	0.0011

System: ethanol; phases: Liquid
Property: Mass density, kg/m3 (Liquid); method: Vibrating tube method
Temperature, K	Pressure, kPa	Mass density, kg/m3	uncertainty
298.15	101.3	785.26	1.02

System: butan-1-ol; phases: Liquid
Property: Relative permittivity at zero frequency (Liquid); method: Coaxial cylinder capacitor
Temperature, K	Pressure, kPa	Relative permittivity at zero frequency	uncertainty
298.15	101.3	17.49	0.71

System: butan-1-ol; phases: Liquid
Property: Refractive index (Na D-line) (Liquid); method: Standard Abbe refractometry
Temperature, K	Pressure, kPa	Refractive index (Na D-line)	uncertainty
298.15	101.3	1.3971	0.0011

System: butan-1-ol; phases: Liquid
Property: Mass density, kg/m3 (Liquid); method: Vibrating tube method
Temperature, K	Pressure, kPa	Mass density, kg/m3	uncertainty
298.15	101.3	805.92	1.02

System: hexan-1-ol; phases: Liquid
Property: Relative permittivity at zero frequency (Liquid); method: Coaxial cylinder capacitor
Temperature, K	Pressure, kPa	Relative permittivity at zero frequency	uncertainty
298.15	101.3	13.06	0.62

System: hexan-1-ol; phases: Liquid
Property: Refractive index (Na D-line) (Liquid); method: Standard Abbe refractometry
Temperature, K	Pressure, kPa	Refractive index (Na D-line)	uncertainty
298.15	101.3	1.4161	0.0011

System: hexan-1-ol; phases: Liquid
Property: Mass density, kg/m3 (Liquid); method: Vibrating tube method
Temperature, K	Pressure, kPa	Mass density, kg/m3	uncertainty
298.15	101.3	815.99	1.16

System: octan-1-ol; phases: Liquid
Property: Relative permittivity at zero frequency (Liquid); method: Coaxial cylinder capacitor
Temperature, K	Pressure, kPa	Relative permittivity at zero frequency	uncertainty
298.15	101.3	9.85	0.55

System: octan-1-ol; phases: Liquid
Property: Refractive index (Na D-line) (Liquid); method: Standard Abbe refractometry
Temperature, K	Pressure, kPa	Refractive index (Na D-line)	uncertainty
298.15	101.3	1.4276	0.0011

System: octan-1-ol; phases: Liquid
Property: Mass density, kg/m3 (Liquid); method: Vibrating tube method
Temperature, K	Pressure, kPa	Mass density, kg/m3	uncertainty
298.15	101.3	821.98	1.02

System: decan-1-ol; phases: Liquid
Property: Relative permittivity at zero frequency (Liquid); method: Coaxial cylinder capacitor
Temperature, K	Pressure, kPa	Relative permittivity at zero frequency	uncertainty
298.15	101.3	7.74	0.49

System: decan-1-ol; phases: Liquid
Property: Refractive index (Na D-line) (Liquid); method: Standard Abbe refractometry
Temperature, K	Pressure, kPa	Refractive index (Na D-line)	uncertainty
298.15	101.3	1.4352	0.0011

System: decan-1-ol; phases: Liquid
Property: Mass density, kg/m3 (Liquid); method: Vibrating tube method
Temperature, K	Pressure, kPa	Mass density, kg/m3	uncertainty
298.15	101.3	826.71	1.02

System: cyclohexanone + cyclohexane; phases: Liquid
Fixed: Temperature, K = 298.15
Fixed: Pressure, kPa = 101.3
Property: Relative permittivity at zero frequency (Liquid); method: Coaxial cylinder capacitor
Mole fraction of cyclohexanone	Relative permittivity at zero frequency	uncertainty
0	2.021	0.288
0.02	2.189	0.297
0.04	2.364	0.305
0.05	2.467	0.309
0.06	2.563	0.314
0.08	2.746	0.321
0.1	2.932	0.329

System: cyclohexanone + cyclohexane; phases: Liquid
Fixed: Temperature, K = 298.15
Fixed: Pressure, kPa = 101.3
Property: Refractive index (Na D-line) (Liquid); method: Standard Abbe refractometry
Mole fraction of cyclohexanone	Refractive index (Na D-line)	uncertainty
0	1.4235	0.001
0.02	1.4239	0.001
0.04	1.4243	0.001
0.05	1.4245	0.001
0.06	1.4247	0.001
0.08	1.4251	0.001
0.1	1.4255	0.001

System: cyclohexanone + cyclohexane; phases: Liquid
Fixed: Temperature, K = 298.15
Fixed: Pressure, kPa = 101.3
Property: Relative permittivity at zero frequency (Liquid); method: Coaxial cylinder capacitor
Mole fraction of cyclohexanone	Relative permittivity at zero frequency	uncertainty
0	2.02	0.29
0.1	3	0.33
0.2	4.12	0.38
0.3	5.35	0.42
0.4	6.66	0.46
0.5	8.03	0.5
0.6	9.45	0.54
0.7	10.94	0.57
0.8	12.49	0.61
0.9	14.11	0.65
1	15.81	0.68

System: cyclohexanone + cyclohexane; phases: Liquid
Fixed: Temperature, K = 298.15
Fixed: Pressure, kPa = 101.3
Property: Refractive index (Na D-line) (Liquid); method: Standard Abbe refractometry
Mole fraction of cyclohexanone	Refractive index (Na D-line)	uncertainty
0	1.4235	0.001
0.1	1.4254	0.001
0.2	1.4276	0.001
0.3	1.4298	0.001
0.4	1.4322	0.001
0.5	1.4347	0.001
0.6	1.4372	0.0011
0.7	1.4399	0.0011
0.8	1.4427	0.0011
0.9	1.4456	0.0011
1	1.4485	0.0011

System: cyclohexanol + cyclohexane; phases: Liquid
Fixed: Temperature, K = 298.15
Fixed: Pressure, kPa = 101.3
Property: Relative permittivity at zero frequency (Liquid); method: Coaxial cylinder capacitor
Mole fraction of cyclohexanol	Relative permittivity at zero frequency	uncertainty
0	2.021	0.288
0.02	2.084	0.291
0.04	2.151	0.294
0.05	2.184	0.296
0.06	2.219	0.298
0.08	2.285	0.301
0.1	2.354	0.304

System: cyclohexanol + cyclohexane; phases: Liquid
Fixed: Temperature, K = 298.15
Fixed: Pressure, kPa = 101.3
Property: Refractive index (Na D-line) (Liquid); method: Standard Abbe refractometry
Mole fraction of cyclohexanol	Refractive index (Na D-line)	uncertainty
0	1.4235	0.001
0.02	1.424	0.001
0.04	1.4245	0.001
0.05	1.4247	0.001
0.06	1.425	0.001
0.08	1.4255	0.001
0.1	1.426	0.001

System: cyclohexanone + ethanol; phases: Liquid
Fixed: Temperature, K = 298.15
Fixed: Pressure, kPa = 101.3
Property: Relative permittivity at zero frequency (Liquid); method: Coaxial cylinder capacitor
Mole fraction of ethanol	Relative permittivity at zero frequency	uncertainty
0	15.81	0.68
0.1	15.84	0.68
0.2	15.98	0.68
0.3	16.36	0.69
0.4	16.97	0.7
0.5	17.76	0.72
0.6	18.72	0.74
0.7	19.88	0.76
0.8	21.19	0.78
0.9	22.68	0.81
1	24.37	0.84

System: cyclohexanone + ethanol; phases: Liquid
Fixed: Temperature, K = 298.15
Fixed: Pressure, kPa = 101.3
Property: Refractive index (Na D-line) (Liquid); method: Standard Abbe refractometry
Mole fraction of ethanol	Refractive index (Na D-line)	uncertainty
0	1.4485	0.0011
0.1	1.4449	0.0011
0.2	1.4401	0.0011
0.3	1.4339	0.0011
0.4	1.4268	0.0011
0.5	1.4187	0.0011
0.6	1.4094	0.0011
0.7	1.3988	0.0011
0.8	1.3869	0.0011
0.9	1.3739	0.0011
1	1.3594	0.0011

System: cyclohexanone + ethanol; phases: Liquid
Fixed: Temperature, K = 298.15
Fixed: Pressure, kPa = 101.3
Property: Mass density, kg/m3 (Liquid); method: Vibrating tube method
Mole fraction of ethanol	Mass density, kg/m3	uncertainty
0	942.47	1.02
0.1	938.01	1.03
0.2	930.92	1.04
0.3	921.48	1.04
0.4	910.02	1.05
0.5	896.25	1.07
0.6	879.92	1.08
0.7	860.95	1.1
0.8	839.21	1.12
0.9	814.29	1.16
1	785.26	1.02

System: cyclohexanone + butan-1-ol; phases: Liquid
Fixed: Temperature, K = 298.15
Fixed: Pressure, kPa = 101.3
Property: Relative permittivity at zero frequency (Liquid); method: Coaxial cylinder capacitor
Mole fraction of butan-1-ol	Relative permittivity at zero frequency	uncertainty
0	15.81	0.68
0.1	15.3	0.67
0.2	14.95	0.66
0.3	14.71	0.66
0.4	14.62	0.66
0.5	14.71	0.66
0.6	14.97	0.66
0.7	15.39	0.67
0.8	15.97	0.68
0.9	16.68	0.7
1	17.49	0.71

System: cyclohexanone + butan-1-ol; phases: Liquid
Fixed: Temperature, K = 298.15
Fixed: Pressure, kPa = 101.3
Property: Refractive index (Na D-line) (Liquid); method: Standard Abbe refractometry
Mole fraction of butan-1-ol	Refractive index (Na D-line)	uncertainty
0	1.4485	0.0011
0.1	1.4441	0.0011
0.2	1.4396	0.0011
0.3	1.4347	0.0011
0.4	1.4301	0.0011
0.5	1.4253	0.0011
0.6	1.4204	0.0011
0.7	1.4147	0.0011
0.8	1.4086	0.0011
0.9	1.4035	0.0011
1	1.3971	0.0011

System: cyclohexanone + butan-1-ol; phases: Liquid
Fixed: Temperature, K = 298.15
Fixed: Pressure, kPa = 101.3
Property: Mass density, kg/m3 (Liquid); method: Vibrating tube method
Mole fraction of butan-1-ol	Mass density, kg/m3	uncertainty
0	942.47	1.02
0.1	932.83	1.04
0.2	922.35	1.05
0.3	910.57	1.05
0.4	897.77	1.06
0.5	883.98	1.06
0.6	869.51	1.06
0.7	854.54	1.07
0.8	838.96	1.07
0.9	822.78	1.08
1	805.92	1.02

System: cyclohexanone + hexan-1-ol; phases: Liquid
Fixed: Temperature, K = 298.15
Fixed: Pressure, kPa = 101.3
Property: Relative permittivity at zero frequency (Liquid); method: Coaxial cylinder capacitor
Mole fraction of hexan-1-ol	Relative permittivity at zero frequency	uncertainty
0	15.81	0.68
0.1	14.93	0.66
0.2	14.2	0.65
0.3	13.59	0.63
0.4	13.13	0.62
0.5	12.79	0.62
0.6	12.58	0.61
0.7	12.5	0.61
0.8	12.57	0.61
0.9	12.76	0.62
1	13.06	0.62

System: cyclohexanone + hexan-1-ol; phases: Liquid
Fixed: Temperature, K = 298.15
Fixed: Pressure, kPa = 101.3
Property: Refractive index (Na D-line) (Liquid); method: Standard Abbe refractometry
Mole fraction of hexan-1-ol	Refractive index (Na D-line)	uncertainty
0	1.4485	0.0011
0.1	1.4444	0.0011
0.2	1.4405	0.0011
0.3	1.4367	0.0011
0.4	1.4332	0.0011
0.5	1.4299	0.0011
0.6	1.4267	0.0011
0.7	1.4237	0.0011
0.8	1.4209	0.0011
0.9	1.4184	0.0011
1	1.4161	0.0011

System: cyclohexanone + hexan-1-ol; phases: Liquid
Fixed: Temperature, K = 298.15
Fixed: Pressure, kPa = 101.3
Property: Mass density, kg/m3 (Liquid); method: Vibrating tube method
Mole fraction of hexan-1-ol	Mass density, kg/m3	uncertainty
0	942.47	1.02
0.1	927.39	1.07
0.2	912.83	1.08
0.3	898.77	1.08
0.4	885.19	1.09
0.5	872.11	1.1
0.6	859.53	1.11
0.7	847.55	1.13
0.8	836.36	1.14
0.9	825.91	1.16
1	815.99	1.16

System: cyclohexanone + octan-1-ol; phases: Liquid
Fixed: Temperature, K = 298.15
Fixed: Pressure, kPa = 101.3
Property: Relative permittivity at zero frequency (Liquid); method: Coaxial cylinder capacitor
Mole fraction of octan-1-ol	Relative permittivity at zero frequency	uncertainty
0	15.81	0.68
0.1	14.72	0.66
0.2	13.74	0.64
0.3	12.87	0.62
0.4	12.12	0.6
0.5	11.47	0.59
0.6	10.93	0.57
0.7	10.5	0.6
0.8	10.18	0.55
0.9	9.97	0.55
1	9.85	0.55

System: cyclohexanone + octan-1-ol; phases: Liquid
Fixed: Temperature, K = 298.15
Fixed: Pressure, kPa = 101.3
Property: Refractive index (Na D-line) (Liquid); method: Standard Abbe refractometry
Mole fraction of octan-1-ol	Refractive index (Na D-line)	uncertainty
0	1.4485	0.0011
0.1	1.4456	0.0011
0.2	1.443	0.0011
0.3	1.4403	0.0011
0.4	1.438	0.0011
0.5	1.4358	0.0011
0.6	1.4338	0.0011
0.7	1.4319	0.0011
0.8	1.4303	0.0011
0.9	1.4289	0.0011
1	1.4276	0.0011

System: cyclohexanone + octan-1-ol; phases: Liquid
Fixed: Temperature, K = 298.15
Fixed: Pressure, kPa = 101.3
Property: Mass density, kg/m3 (Liquid); method: Vibrating tube method
Mole fraction of octan-1-ol	Mass density, kg/m3	uncertainty
0	942.47	1.02
0.1	924.71	1.08
0.2	908.6	1.07
0.3	893.85	1.06
0.4	880.35	1.06
0.5	867.97	1.05
0.6	856.69	1.05
0.7	846.41	1.04
0.8	837.29	1.04
0.9	829.11	1.03
1	821.98	1.02

System: cyclohexanone + decan-1-ol; phases: Liquid
Fixed: Temperature, K = 298.15
Fixed: Pressure, kPa = 101.3
Property: Relative permittivity at zero frequency (Liquid); method: Coaxial cylinder capacitor
Mole fraction of decan-1-ol	Relative permittivity at zero frequency	uncertainty
0	15.81	0.68
0.1	14.59	0.66
0.2	13.46	0.63
0.3	12.41	0.61
0.4	11.44	0.59
0.5	10.57	0.56
0.6	9.81	0.55
0.7	9.15	0.53
0.8	8.59	0.51
0.9	8.12	0.5
1	7.74	0.49

System: cyclohexanone + decan-1-ol; phases: Liquid
Fixed: Temperature, K = 298.15
Fixed: Pressure, kPa = 101.3
Property: Refractive index (Na D-line) (Liquid); method: Standard Abbe refractometry
Mole fraction of decan-1-ol	Refractive index (Na D-line)	uncertainty
0	1.4485	0.0011
0.1	1.4458	0.0011
0.2	1.4436	0.0011
0.3	1.4416	0.0011
0.4	1.4399	0.0011
0.5	1.4385	0.0011
0.6	1.4374	0.0011
0.7	1.4364	0.0011
0.8	1.4358	0.0011
0.9	1.4354	0.0011
1	1.4352	0.0011

System: cyclohexanone + decan-1-ol; phases: Liquid
Fixed: Temperature, K = 298.15
Fixed: Pressure, kPa = 101.3
Property: Mass density, kg/m3 (Liquid); method: Vibrating tube method
Mole fraction of decan-1-ol	Mass density, kg/m3	uncertainty
0	942.47	1.02
0.1	922.31	1.09
0.2	904.8	1.07
0.3	889.41	1.06
0.4	875.85	1.05
0.5	863.79	1.05
0.6	853.13	1.04
0.7	843.78	1.04
0.8	836.26	1.03
0.9	830.72	1.03
1	826.71	1.02

System: cyclohexane + cyclopentanone; phases: Liquid
Fixed: Temperature, K = 298.15
Fixed: Pressure, kPa = 101.3
Property: Relative permittivity at zero frequency (Liquid); method: Coaxial cylinder capacitor
Mole fraction of cyclopentanone	Relative permittivity at zero frequency	uncertainty
0	2.02	0.29
0.1	2.78	0.32
0.2	3.61	0.36
0.3	4.51	0.39
0.4	5.51	0.42
0.5	6.6	0.46
0.6	7.78	0.49
0.7	9.06	0.53
0.8	10.45	0.56
0.9	11.94	0.6
1	13.52	0.63

System: cyclohexane + cyclopentanone; phases: Liquid
Fixed: Temperature, K = 298.15
Fixed: Pressure, kPa = 101.3
Property: Refractive index (Na D-line) (Liquid); method: Standard Abbe refractometry
Mole fraction of cyclopentanone	Refractive index (Na D-line)	uncertainty
0	1.4235	0.001
0.1	1.4236	0.001
0.2	1.4239	0.001
0.3	1.4244	0.001
0.4	1.4252	0.001
0.5	1.4262	0.001
0.6	1.4274	0.001
0.7	1.4289	0.0011
0.8	1.4306	0.0011
0.9	1.4325	0.0011
1	1.4347	0.0011

System: cyclohexanone + cyclohexanol; phases: Liquid
Fixed: Temperature, K = 298.15
Fixed: Pressure, kPa = 101.3
Property: Relative permittivity at zero frequency (Liquid); method: Coaxial cylinder capacitor
Mole fraction of cyclohexanol	Relative permittivity at zero frequency	uncertainty
0	15.81	0.68
0.1	15.16	0.67
0.2	14.63	0.66
0.3	14.24	0.65
0.4	13.99	0.64
0.5	13.91	0.64
0.6	13.98	0.64
0.7	14.2	0.6
0.8	14.57	0.65
0.9	15.08	0.67
1	15.71	0.68

System: cyclohexanone + cyclohexanol; phases: Liquid
Fixed: Temperature, K = 298.15
Fixed: Pressure, kPa = 101.3
Property: Refractive index (Na D-line) (Liquid); method: Standard Abbe refractometry
Mole fraction of cyclohexanol	Refractive index (Na D-line)	uncertainty
0	1.4485	0.0011
0.1	1.4498	0.0011
0.2	1.4512	0.0011
0.3	1.4527	0.0011
0.4	1.4542	0.0011
0.5	1.4558	0.0011
0.6	1.4574	0.0011
0.7	1.4591	0.0011
0.8	1.4608	0.0011
0.9	1.4626	0.0011
1	1.4646	0.0011

System: cyclopentanone + cyclohexanol; phases: Liquid
Fixed: Temperature, K = 298.15
Fixed: Pressure, kPa = 101.3
Property: Relative permittivity at zero frequency (Liquid); method: Coaxial cylinder capacitor
Mole fraction of cyclohexanol	Relative permittivity at zero frequency	uncertainty
0	13.52	0.63
0.1	13.1	0.62
0.2	12.78	0.62
0.3	12.55	0.61
0.4	12.42	0.61
0.5	12.43	0.61
0.6	12.61	0.61
0.7	12.99	0.62
0.8	13.59	0.63
0.9	14.48	0.65
1	15.71	0.68

System: cyclopentanone + cyclohexanol; phases: Liquid
Fixed: Temperature, K = 298.15
Fixed: Pressure, kPa = 101.3
Property: Refractive index (Na D-line) (Liquid); method: Standard Abbe refractometry
Mole fraction of cyclohexanol	Refractive index (Na D-line)	uncertainty
0	1.4347	0.0011
0.1	1.4372	0.0011
0.2	1.4397	0.0011
0.3	1.4423	0.0011
0.4	1.445	0.0011
0.5	1.4479	0.0011
0.6	1.4509	0.0011
0.7	1.4541	0.0011
0.8	1.4575	0.0011
0.9	1.461	0.0011
1	1.4646	0.0011
