Measured thermophysical data. Vapor Liquid Equilibrium Data for the Furan-Toluene Binary System between 313.02 and 352.99 K
Source: J. Chem. Eng. Data, 2017, 10.1021/acs.jced.6b00424
Compound 1: furan, C4H4O, InChI=1S/C4H4O/c1-2-4-5-3-1/h1-4H, purity 99%
Compound 2: toluene, C7H8, InChI=1S/C7H8/c1-7-5-3-2-4-6-7/h2-6H,1H3, purity 99.85%

System: furan; phases: Liquid
Property: Refractive index (Na D-line) (Liquid); method: Standard Abbe refractometry
Pressure, kPa	Temperature, K	Refractive index (Na D-line)	uncertainty
101.232	293.15	1.4218	0.0004

System: toluene; phases: Liquid
Property: Refractive index (Na D-line) (Liquid); method: Standard Abbe refractometry
Pressure, kPa	Temperature, K	Refractive index (Na D-line)	uncertainty
100	293.15	1.4966	0.0007

System: toluene + furan; phases: Gas, Liquid
Property: Mole fraction of furan (Gas); method: Chromatography
Temperature, K	Mole fraction of furan	Mole fraction of furan	uncertainty
313.02	0.0381	0.4389	0.035
313.02	0.1147	0.7147	0.0378
313.02	0.2131	0.8329	0.0228
313.02	0.399	0.9221	0.0148
313.02	0.5399	0.9599	0.0071
313.02	0.7037	0.9743	0.0042
313.02	0.7744	0.9844	0.0037
333.02	0.0309	0.3143	0.0347
333.02	0.0491	0.4316	0.044
333.02	0.1455	0.6956	0.0363
333.02	0.2985	0.852	0.0281
333.02	0.3632	0.8851	0.0162
333.02	0.5942	0.9595	0.0082
333.02	0.8156	0.9873	0.0019
333.02	0.8383	0.9872	0.0018
352.99	0.0303	0.2785	0.0282
352.99	0.0651	0.4025	0.0357
352.99	0.1966	0.7069	0.0396
352.99	0.3568	0.8539	0.0238
352.99	0.5489	0.9303	0.0126
352.99	0.7367	0.9729	0.0059
352.99	0.8342	0.9867	0.0029

System: toluene + furan; phases: Gas, Liquid
Property: Vapor or sublimation pressure, kPa (Gas); method: Closed cell (Static) method
Temperature, K	Mole fraction of furan	Vapor or sublimation pressure, kPa	uncertainty
313.02	0.0381	13.04	0.59
313.02	0.1147	22.88	1.61
313.02	0.2131	35.31	2.5
313.02	0.399	57.18	3.68
313.02	0.5399	75.69	4.09
313.02	0.7037	97.56	3.47
313.02	0.7744	106.79	2.87
333.02	0.0309	25.81	0.35
333.02	0.0491	30.3	2.7
333.02	0.1455	50.81	3.42
333.02	0.2985	86.37	6.19
333.02	0.3632	102.86	7.17
333.02	0.5942	162.24	7.17
333.02	0.8156	214.1	11.93
333.02	0.8383	219.48	10.66
352.99	0.0303	51.15	0.94
352.99	0.0651	60.07	2.58
352.99	0.1966	106.52	7.62
352.99	0.3568	172.99	11.63
352.99	0.5489	249.73	13.01
352.99	0.7367	333.19	10.71
352.99	0.8342	375.06	7.49

System: toluene + furan; phases: Liquid, Gas
Fixed: Mole fraction of furan = 0
Property: Henry's Law constant (mole fraction scale), kPa of furan (Liquid); method: Chromatography
Temperature, K	Henry's Law constant (mole fraction scale), kPa of furan	uncertainty
293.15	68	7
298.15	83	8
303.16	100	10
308.19	119	12
313.17	141	14
318.12	167	17
323.09	196	20
