Measured thermophysical data. Measurement and Correlation of the Solubility of Azoxystrobin in Seven Monosolvents and Two Different Binary Mixed Solvents
Source: J. Chem. Eng. Data, 2017, 10.1021/acs.jced.7b00669
Compound 1: azoxystrobin, C22H17N3O5, InChI=1S/C22H17N3O5/c1-27-13-17(22(26)28-2)16-8-4-6-10-19(16)30-21-11-20(24-14-25-21)29-18-9-5-3-7-15(18)12-23/h3-11,13-14H,1-2H3/b17-13+, purity 99.8%
Compound 2: methanol, CH4O, InChI=1S/CH4O/c1-2/h2H,1H3, purity 99.5%
Compound 3: ethanol, C2H6O, InChI=1S/C2H6O/c1-2-3/h3H,2H2,1H3, purity 99.7%
Compound 4: propan-1-ol, C3H8O, InChI=1S/C3H8O/c1-2-3-4/h4H,2-3H2,1H3, purity 99.8%
Compound 5: propan-2-ol, C3H8O, InChI=1S/C3H8O/c1-3(2)4/h3-4H,1-2H3, purity 99.7%
Compound 6: butan-1-ol, C4H10O, InChI=1S/C4H10O/c1-2-3-4-5/h5H,2-4H2,1H3, purity 99.5%
Compound 7: 2-methyl-1-propanol, C4H10O, InChI=1S/C4H10O/c1-4(2)3-5/h4-5H,3H2,1-2H3, purity 99.5%
Compound 8: ethyl acetate, C4H8O2, InChI=1S/C4H8O2/c1-3-6-4(2)5/h3H2,1-2H3, purity 99.5%

System: azoxystrobin; phases: Crystal, Liquid, Air at 1 atmosphere
Property: Normal melting temperature, K (Crystal); method: DTA
Normal melting temperature, K	uncertainty
387.67	1.06

System: azoxystrobin; phases: Crystal, Liquid, Air at 1 atmosphere
Property: Molar enthalpy of transition or fusion, kJ/mol (Crystal); method: DSC
Molar enthalpy of transition or fusion, kJ/mol	uncertainty
32.65	0.73

System: azoxystrobin + methanol; phases: Liquid, Crystal
Fixed: Pressure, kPa = 100
Property: Mole fraction of azoxystrobin (Liquid); method: gravimetric
Temperature, K	Mole fraction of azoxystrobin	uncertainty
288.15	0.001345	0.000162
293.15	0.001648	0.000198
298.15	0.002053	0.000247
303.15	0.002704	0.000326
308.15	0.003682	0.000444
313.15	0.00497	0.0006
318.15	0.006833	0.000825
323.15	0.009599	0.001162
328.15	0.014365	0.001735
298.15	0.002051	0.000247

System: azoxystrobin + ethanol; phases: Liquid, Crystal
Fixed: Pressure, kPa = 100
Property: Mole fraction of azoxystrobin (Liquid); method: gravimetric
Temperature, K	Mole fraction of azoxystrobin	uncertainty
288.15	0.000747	9e-05
293.15	0.000923	0.000111
298.15	0.001184	0.000143
303.15	0.001711	0.000206
308.15	0.002196	0.000265
313.15	0.002961	0.000358
318.15	0.004216	0.000509
323.15	0.005605	0.000677
328.15	0.007857	0.000947

System: azoxystrobin + propan-1-ol; phases: Liquid, Crystal
Fixed: Pressure, kPa = 100
Property: Mole fraction of azoxystrobin (Liquid); method: gravimetric
Temperature, K	Mole fraction of azoxystrobin	uncertainty
288.15	0.000654	7.9e-05
293.15	0.000829	0.0001
298.15	0.00108	0.000131
303.15	0.001621	0.000196
308.15	0.002067	0.000249
313.15	0.002771	0.000335
318.15	0.003874	0.000468
323.15	0.005268	0.000636
328.15	0.007202	0.000868
288.15	0.000688	8.3e-05
293.15	0.000843	0.000102
298.15	0.001031	0.000125
303.15	0.001726	0.000208

System: azoxystrobin + propan-2-ol; phases: Liquid, Crystal
Fixed: Pressure, kPa = 100
Property: Mole fraction of azoxystrobin (Liquid); method: gravimetric
Temperature, K	Mole fraction of azoxystrobin	uncertainty
288.15	0.000339	4.1e-05
293.15	0.000476	5.7e-05
298.15	0.000649	7.9e-05
303.15	0.001016	0.000123
308.15	0.001336	0.000161
313.15	0.001827	0.000221
318.15	0.002602	0.000314
323.15	0.003583	0.000432
328.15	0.004519	0.000544

System: azoxystrobin + butan-1-ol; phases: Liquid, Crystal
Fixed: Pressure, kPa = 100
Property: Mole fraction of azoxystrobin (Liquid); method: gravimetric
Temperature, K	Mole fraction of azoxystrobin	uncertainty
288.15	0.000514	6.2e-05
293.15	0.000733	8.8e-05
298.15	0.000955	0.000116
303.15	0.00149	0.00018
308.15	0.001849	0.000223
313.15	0.002462	0.000297
318.15	0.003396	0.00041
323.15	0.004764	0.000575
328.15	0.006352	0.000765

System: azoxystrobin + 2-methyl-1-propanol; phases: Liquid, Crystal
Fixed: Pressure, kPa = 100
Property: Mole fraction of azoxystrobin (Liquid); method: gravimetric
Temperature, K	Mole fraction of azoxystrobin	uncertainty
288.15	0.000441	5.3e-05
293.15	0.000628	7.6e-05
298.15	0.00084	0.000102
303.15	0.001293	0.000156
308.15	0.001701	0.000205
313.15	0.002309	0.000279
318.15	0.003238	0.000391
323.15	0.004407	0.000531
328.15	0.005707	0.000687

System: azoxystrobin + ethyl acetate; phases: Liquid, Crystal
Fixed: Pressure, kPa = 100
Property: Mole fraction of azoxystrobin (Liquid); method: gravimetric
Temperature, K	Mole fraction of azoxystrobin	uncertainty
288.15	0.024619	0.002958
293.15	0.028262	0.003395
298.15	0.031918	0.00384
303.15	0.041461	0.004986
308.15	0.047326	0.005691
313.15	0.058951	0.007098
318.15	0.075599	0.009092
323.15	0.087949	0.010576
328.15	0.1081	0.013
298.15	0.031861	0.003833
303.15	0.041481	0.004988
328.15	0.108102	0.012999
288.15	0.024551	0.00295

System: azoxystrobin + propan-1-ol + ethyl acetate; phases: Liquid, Crystal
Fixed: Pressure, kPa = 100
Property: Mole fraction of azoxystrobin (Liquid); method: gravimetric
Temperature, K	Solvent: Mole fraction of ethyl acetate	Mole fraction of azoxystrobin	uncertainty
288.15	0	0.000688	8.3e-05
288.15	0.1	0.001572	0.000189
288.15	0.2	0.0031	0.000374
288.15	0.3	0.00534	0.000646
288.15	0.4	0.008317	0.001006
288.15	0.5	0.011228	0.001361
288.15	0.6	0.015479	0.001865
288.15	0.7	0.019258	0.002315
288.15	0.8	0.022566	0.00271
288.15	0.9	0.024983	0.003
288.15	1	0.024619	0.002958
293.15	0	0.000843	0.000101
293.15	0.1	0.002014	0.000243
293.15	0.2	0.003826	0.000462
293.15	0.3	0.006157	0.000745
293.15	0.4	0.009327	0.00113
293.15	0.5	0.013389	0.00162
293.15	0.6	0.016673	0.002009
293.15	0.7	0.020923	0.002517
293.15	0.8	0.024385	0.00293
293.15	0.9	0.026535	0.003188
293.15	1	0.028262	0.003395
298.15	0	0.001031	0.000125
298.15	0.1	0.002345	0.000283
298.15	0.2	0.004619	0.000558
298.15	0.3	0.007514	0.000909
298.15	0.4	0.011127	0.001349
298.15	0.5	0.016107	0.001948
298.15	0.6	0.020236	0.002441
298.15	0.7	0.025116	0.003024
298.15	0.8	0.029123	0.003504
298.15	0.9	0.031794	0.003824
298.15	1	0.031861	0.003833
303.15	0	0.001726	0.000208
303.15	0.1	0.002935	0.000354
303.15	0.2	0.005307	0.000642
303.15	0.3	0.009042	0.001094
303.15	0.4	0.013247	0.001601
303.15	0.5	0.017593	0.002133
303.15	0.6	0.02502	0.00302
303.15	0.7	0.030899	0.003721
303.15	0.8	0.036395	0.004376
303.15	0.9	0.039343	0.004732
303.15	1	0.041481	0.004988
308.15	0	0.002067	0.000249
308.15	0.1	0.004103	0.000496
308.15	0.2	0.007071	0.000856
308.15	0.3	0.011213	0.001357
308.15	0.4	0.015461	0.001866
308.15	0.5	0.01968	0.002392
308.15	0.6	0.028948	0.0035
308.15	0.7	0.037523	0.004523
308.15	0.8	0.041933	0.005047
308.15	0.9	0.047035	0.005658
308.15	1	0.047326	0.005691
313.15	0	0.002771	0.000335
313.15	0.1	0.005522	0.000667
313.15	0.2	0.009702	0.001172
313.15	0.3	0.015233	0.001841
313.15	0.4	0.018495	0.002241
313.15	0.5	0.025833	0.003148
313.15	0.6	0.036107	0.004373
313.15	0.7	0.049398	0.005953
313.15	0.8	0.054396	0.006551
313.15	0.9	0.058513	0.00704
313.15	1	0.058951	0.007098
318.15	0	0.003874	0.000468
318.15	0.1	0.007606	0.000919
318.15	0.2	0.011715	0.001422
318.15	0.3	0.019637	0.002377
318.15	0.4	0.026418	0.003211
318.15	0.5	0.035797	0.004359
318.15	0.6	0.046575	0.005642
318.15	0.7	0.06045	0.007278
318.15	0.8	0.068444	0.008231
318.15	0.9	0.071372	0.008581
318.15	1	0.075599	0.009092
323.15	0	0.005268	0.000636
323.15	0.1	0.010251	0.001238
323.15	0.2	0.018431	0.002232
323.15	0.3	0.026184	0.00318
323.15	0.4	0.037895	0.004614
323.15	0.5	0.052741	0.0064
323.15	0.6	0.065164	0.007863
323.15	0.7	0.073428	0.00885
323.15	0.8	0.080196	0.009651
323.15	0.9	0.083507	0.010049
323.15	1	0.087949	0.010576
328.15	0	0.007202	0.000868
328.15	0.1	0.01357	0.001642
328.15	0.2	0.024286	0.00294
328.15	0.3	0.03907	0.004741
328.15	0.4	0.054663	0.006619
328.15	0.5	0.068559	0.008279
328.15	0.6	0.081644	0.009845
328.15	0.7	0.099334	0.011957
328.15	0.8	0.103573	0.012466
328.15	0.9	0.107896	0.012982
328.15	1	0.108102	0.012999

System: azoxystrobin + methanol + ethyl acetate; phases: Liquid, Crystal
Fixed: Pressure, kPa = 100
Property: Mole fraction of azoxystrobin (Liquid); method: gravimetric
Temperature, K	Solvent: Mole fraction of ethyl acetate	Mole fraction of azoxystrobin	uncertainty
288.15	0	0.001345	0.000162
288.15	0.1	0.003567	0.000429
288.15	0.2	0.006364	0.000768
288.15	0.3	0.010485	0.001266
288.15	0.4	0.014689	0.001775
288.15	0.5	0.019004	0.002293
288.15	0.6	0.021933	0.00264
288.15	0.7	0.025884	0.003111
288.15	0.8	0.02768	0.003327
288.15	0.9	0.026388	0.003173
288.15	1	0.024551	0.00295
293.15	0	0.001648	0.000198
293.15	0.1	0.0042	0.000506
293.15	0.2	0.007726	0.000933
293.15	0.3	0.01205	0.001457
293.15	0.4	0.017759	0.002145
293.15	0.5	0.022319	0.002691
293.15	0.6	0.026086	0.003139
293.15	0.7	0.028708	0.003451
293.15	0.8	0.031105	0.003737
293.15	0.9	0.03103	0.003728
293.15	1	0.028262	0.003395
298.15	0	0.002051	0.000247
298.15	0.1	0.005048	0.000609
298.15	0.2	0.009417	0.001139
298.15	0.3	0.015305	0.001852
298.15	0.4	0.020993	0.002539
298.15	0.5	0.026937	0.003253
298.15	0.6	0.031507	0.003794
298.15	0.7	0.034598	0.004163
298.15	0.8	0.036144	0.004345
298.15	0.9	0.034968	0.004204
298.15	1	0.031861	0.003833
303.15	0	0.002704	0.000326
303.15	0.1	0.006681	0.000806
303.15	0.2	0.012611	0.001527
303.15	0.3	0.019993	0.00242
303.15	0.4	0.028109	0.003401
303.15	0.5	0.034787	0.004199
303.15	0.6	0.039437	0.004753
303.15	0.7	0.043483	0.005232
303.15	0.8	0.043815	0.005272
303.15	0.9	0.042878	0.005158
303.15	1	0.041481	0.004988
308.15	0	0.003682	0.000444
308.15	0.1	0.008594	0.00104
308.15	0.2	0.016871	0.002043
308.15	0.3	0.025978	0.003151
308.15	0.4	0.036398	0.004403
308.15	0.5	0.044175	0.005335
308.15	0.6	0.051191	0.006165
308.15	0.7	0.052659	0.006339
308.15	0.8	0.05525	0.00665
308.15	0.9	0.052391	0.006303
308.15	1	0.047326	0.005691
313.15	0	0.00497	0.0006
313.15	0.1	0.012249	0.001483
313.15	0.2	0.022832	0.002766
313.15	0.3	0.037661	0.00456
313.15	0.4	0.048644	0.005877
313.15	0.5	0.057788	0.006969
313.15	0.6	0.063492	0.007646
313.15	0.7	0.067629	0.008142
313.15	0.8	0.068903	0.008292
313.15	0.9	0.06468	0.007782
313.15	1	0.058951	0.007098
318.15	0	0.006833	0.000825
318.15	0.1	0.01726	0.002092
318.15	0.2	0.030935	0.003751
318.15	0.3	0.048868	0.005915
318.15	0.4	0.063628	0.007686
318.15	0.5	0.072842	0.008785
318.15	0.6	0.08118	0.009776
318.15	0.7	0.084597	0.010179
318.15	0.8	0.085908	0.010336
318.15	0.9	0.079916	0.009617
318.15	1	0.075599	0.009092
323.15	0	0.009599	0.001162
323.15	0.1	0.025591	0.003098
323.15	0.2	0.044557	0.005401
323.15	0.3	0.067322	0.008148
323.15	0.4	0.085104	0.010272
323.15	0.5	0.095065	0.011459
323.15	0.6	0.101575	0.012226
323.15	0.7	0.103476	0.012452
323.15	0.8	0.105212	0.012659
323.15	0.9	0.099801	0.012008
323.15	1	0.087949	0.010576
328.15	0	0.014365	0.001735
328.15	0.1	0.035575	0.004302
328.15	0.2	0.062324	0.007539
328.15	0.3	0.091952	0.011091
328.15	0.4	0.110522	0.01331
328.15	0.5	0.121568	0.014629
328.15	0.6	0.12679	0.01525
328.15	0.7	0.129997	0.015636
328.15	0.8	0.130274	0.015661
328.15	0.9	0.1222	0.014689
328.15	1	0.108102	0.012999
