Measured thermophysical data. Viscosity Measurements of n-Dodecane at Temperatures between 303 K and 693 K and Pressures up to 10 MPa
Source: J. Chem. Eng. Data, 2018, 10.1021/acs.jced.7b00866
Compound 1: dodecane, C12H26, InChI=1S/C12H26/c1-3-5-7-9-11-12-10-8-6-4-2/h3-12H2,1-2H3, purity 99.5%

System: dodecane; phases: Liquid
Property: Viscosity, Pa*s (Liquid); method: Capillary tube (Ostwald; Ubbelohde) method
Temperature, K	Pressure, kPa	Viscosity, Pa*s	uncertainty
298.2	6020	0.0014611	2.6e-05
298.2	8050	0.0014968	3.23e-05
298.2	10020	0.0015329	3.38e-05
304.9	6020	0.0013482	2.76e-05
303.4	8050	0.001365	2.96e-05
303.3	10020	0.0013937	3.01e-05
314.5	5990	0.0011351	2.52e-05
313.4	8000	0.0011623	2.52e-05
313.3	10020	0.0011836	2.52e-05
323.4	6050	0.0009748	2.55e-05
323.1	8010	0.0010068	2.19e-05
323.4	10000	0.0010208	2.29e-05
334.1	6010	0.0008555	2.29e-05
333.3	8030	0.0008787	2.11e-05
333.4	10000	0.0008918	2.2e-05
343.3	5990	0.0007562	1.99e-05
343.2	8070	0.0007787	2e-05
343.3	10010	0.00079	1.98e-05
353.4	6080	0.0006746	2.06e-05
353.6	8020	0.0006919	2.03e-05
353.4	9980	0.000703	1.95e-05
364	6040	0.0006028	1.91e-05
363.7	8020	0.0006209	1.93e-05
363.3	10050	0.0006332	1.92e-05
374	6000	0.0005462	1.89e-05
373.9	8020	0.0005622	1.89e-05
373.1	10070	0.0005743	1.88e-05
383	6010	0.0005011	1.86e-05
383.4	8050	0.0005137	1.86e-05
383.2	10000	0.000523	1.87e-05
393.1	6080	0.0004584	1.86e-05
393.6	8030	0.0004694	1.85e-05
393	10020	0.0004798	1.85e-05
403	6040	0.0004213	1.84e-05
404.1	8020	0.0004304	1.84e-05
403.1	10040	0.0004407	1.83e-05
413.2	6080	0.0003885	1.83e-05
413.7	7990	0.0003987	1.83e-05
412.9	10010	0.0004076	1.83e-05
423	6080	0.0003581	1.83e-05
423.9	8050	0.0003686	1.82e-05
423.4	10000	0.0003765	1.82e-05
433.2	6010	0.0003334	1.82e-05
433.3	8000	0.0003405	1.82e-05
432.9	10020	0.0003504	1.81e-05
443.5	6020	0.0003092	1.81e-05
443.5	8010	0.0003152	1.81e-05
443.2	10050	0.0003257	1.81e-05
453.3	6020	0.0002855	1.8e-05
454	8040	0.0002936	1.81e-05
453.3	9950	0.0003036	1.81e-05
463.4	6040	0.0002664	1.8e-05
464.1	8020	0.0002738	1.81e-05
463.3	10010	0.0002839	1.8e-05
473.4	6040	0.000251	1.8e-05
473.5	8010	0.0002525	1.8e-05
473.3	10050	0.0002657	1.8e-05
483.4	6050	0.0002305	1.8e-05
483.4	8080	0.0002405	1.8e-05
483.4	10000	0.0002489	1.8e-05
493.4	6040	0.000216	1.8e-05
493.4	8010	0.0002247	1.8e-05
493.2	10050	0.0002338	1.8e-05
503.4	6080	0.0002005	1.79e-05
502.7	7960	0.0002075	1.79e-05
503.2	10010	0.0002197	1.8e-05
514.2	6050	0.000186	1.79e-05
513	8040	0.0001945	1.79e-05
513	10000	0.000207	1.79e-05
523.7	5970	0.0001737	1.79e-05
523	8000	0.0001822	1.79e-05
523.7	10040	0.0001949	1.79e-05
533.5	6040	0.0001638	1.79e-05
533.3	8040	0.0001736	1.79e-05
533.5	10070	0.0001825	1.79e-05
542.9	6010	0.0001526	1.79e-05
542.9	8060	0.0001603	1.79e-05
542.9	9950	0.0001682	1.79e-05
552.9	6070	0.0001419	1.79e-05
553.2	8010	0.0001506	1.79e-05
552.9	10020	0.000158	1.79e-05
563	6050	0.0001337	1.79e-05
563	8020	0.0001414	1.79e-05
563	10020	0.0001509	1.79e-05
573	6010	0.000124	1.79e-05
573	8020	0.0001347	1.79e-05
573	10040	0.0001437	1.79e-05
582.8	6000	0.0001159	1.79e-05
582.9	7960	0.0001265	1.79e-05
582.8	10010	0.000132	1.79e-05
593	6020	0.0001104	1.79e-05
592.9	8070	0.00012	1.79e-05
593	10000	0.0001263	1.79e-05
603.1	6010	0.0001048	1.79e-05
602.9	8020	0.0001128	1.79e-05
603.1	10010	0.0001186	1.79e-05
613.1	6040	9.69e-05	1.79e-05
612.9	8020	0.0001058	1.79e-05
613.1	10010	0.0001116	1.79e-05
623.2	6050	9.08e-05	1.78e-05
623	7990	0.0001003	1.79e-05
623.2	10050	0.0001056	1.79e-05
633.5	6020	8.48e-05	1.78e-05
632.8	8040	9.33e-05	1.79e-05
633.5	10010	9.92e-05	1.79e-05
643.4	6020	7.89e-05	1.78e-05
643	8050	8.78e-05	1.78e-05
643.4	10010	9.43e-05	1.78e-05
653.4	6070	7.33e-05	1.78e-05
652.9	8020	8.24e-05	1.78e-05
653.4	10040	8.7e-05	1.78e-05
663.2	6010	6.82e-05	1.78e-05
663.1	8010	7.75e-05	1.78e-05
663.2	10050	8.23e-05	1.78e-05
673.5	6040	6.35e-05	1.78e-05
672.9	8010	7.27e-05	1.78e-05
673.5	9980	7.85e-05	1.78e-05
683.3	6010	5.9e-05	1.78e-05
683.2	8050	6.85e-05	1.78e-05
683.2	10040	7.46e-05	1.78e-05
693.2	6010	5.48e-05	1.78e-05
693.2	8020	6.43e-05	1.78e-05
693.2	10010	7.12e-05	1.78e-05
