Measured thermophysical data. Solubilities, Densities and Refractive Indices in the Aqueous Quaternary System of Lithium Sulfate, Lithium Metaborate, and Lithium Carbonate at 288.15, 298.15, 308.15 K and 0.1 MPa
Source: J. Chem. Eng. Data, 2017, 10.1021/acs.jced.6b00777
Compound 1: lithium metaborate, BLiO2, InChI=1S/BO2.Li/c2-1-3;/q-1;+1, purity 99%
Compound 2: lithium sulfate, Li2O4S, InChI=1S/2Li.H2O4S/c;;1-5(2,3)4/h;;(H2,1,2,3,4)/q2*+1;/p-2, purity 99%
Compound 3: lithium carbonate, CLi2O3, InChI=1S/CH2O3.2Li/c2-1(3)4;;/h(H2,2,3,4);;/q;2*+1/p-2, purity 99%
Compound 4: water, H2O, InChI=1S/H2O/h1H2, purity 99.8%

System: water + lithium sulfate + lithium metaborate; phases: Liquid, Crystal of intercomponent compound 1
Property: Mass fraction of lithium sulfate (Liquid); method: gravimetry and titration
Temperature, K	Mass fraction of lithium metaborate	Pressure, kPa	Mass fraction of lithium sulfate	uncertainty
308.15	0.0348	100	0.2423	0.0013

System: water + lithium sulfate + lithium metaborate; phases: Liquid, Crystal of intercomponent compound 2
Property: Mass fraction of lithium metaborate (Liquid); method: gravimetry and titration
Temperature, K	Mass fraction of lithium sulfate	Pressure, kPa	Mass fraction of lithium metaborate	uncertainty
308.15	0.2423	100	0.0348	0.0012

System: water + lithium sulfate + lithium metaborate; phases: Liquid
Property: Mass density, kg/m3 (Liquid); method: Vibrating tube method
Temperature, K	Mass fraction of lithium metaborate	Mass fraction of lithium sulfate	Pressure, kPa	Mass density, kg/m3	uncertainty
308.15	0.0348	0.2423	100	1256.99	1.08

System: water + lithium sulfate + lithium metaborate; phases: Liquid
Property: Refractive index (Na D-line) (Liquid); method: Standard Abbe refractometry
Temperature, K	Mass fraction of lithium metaborate	Mass fraction of lithium sulfate	Pressure, kPa	Refractive index (Na D-line)	uncertainty
308.15	0.0348	0.2423	100	1.3892	0.002

System: lithium carbonate + water + lithium metaborate; phases: Liquid, Crystal of intercomponent compound 1
Property: Mass fraction of lithium carbonate (Liquid); method: gravimetry and titration
Temperature, K	Mass fraction of lithium metaborate	Pressure, kPa	Mass fraction of lithium carbonate	uncertainty
308.15	0.0595	100	0.00112	0.00112

System: lithium carbonate + water + lithium metaborate; phases: Liquid, Crystal
Property: Mass fraction of lithium metaborate (Liquid); method: gravimetry and titration
Temperature, K	Mass fraction of lithium carbonate	Pressure, kPa	Mass fraction of lithium metaborate	uncertainty
308.15	0.00112	100	0.0595	0.0012

System: lithium carbonate + water + lithium metaborate; phases: Liquid
Property: Mass density, kg/m3 (Liquid); method: Vibrating tube method
Temperature, K	Mass fraction of lithium metaborate	Mass fraction of lithium carbonate	Pressure, kPa	Mass density, kg/m3	uncertainty
308.15	0.0595	0.00112	100	1061.28	1.05

System: lithium carbonate + water + lithium metaborate; phases: Liquid
Property: Refractive index (Na D-line) (Liquid); method: Standard Abbe refractometry
Temperature, K	Mass fraction of lithium metaborate	Mass fraction of lithium carbonate	Pressure, kPa	Refractive index (Na D-line)	uncertainty
308.15	0.0595	0.00112	100	1.3572	0.002

System: lithium carbonate + water + lithium sulfate; phases: Liquid, Crystal
Fixed: Pressure, kPa = 100
Property: Mass fraction of lithium carbonate (Liquid); method: gravimetry and titration
Temperature, K	Mass fraction of lithium sulfate	Mass fraction of lithium carbonate	uncertainty
288.15	0.2594	0.008	0.0072
298.15	0.2579	0.0073	0.00729
308.15	0.2504	0.00074	0.00074

System: lithium carbonate + water + lithium sulfate; phases: Liquid, Crystal of intercomponent compound 1
Fixed: Pressure, kPa = 100
Property: Mass fraction of lithium sulfate (Liquid); method: gravimetry and titration
Temperature, K	Mass fraction of lithium carbonate	Mass fraction of lithium sulfate	uncertainty
288.15	0.008	0.2594	0.0013
298.15	0.0073	0.2579	0.0013
308.15	0.00074	0.2504	0.0013

System: lithium carbonate + water + lithium sulfate; phases: Liquid
Fixed: Pressure, kPa = 100
Property: Mass density, kg/m3 (Liquid); method: Vibrating tube method
Temperature, K	Mass fraction of lithium sulfate	Mass fraction of lithium carbonate	Mass density, kg/m3	uncertainty
288.15	0.2594	0.008	1238.45	1.39
298.15	0.2579	0.0073	1232.44	1.5
308.15	0.2504	0.00074	1222.94	1.07

System: lithium carbonate + water + lithium sulfate; phases: Liquid
Fixed: Pressure, kPa = 100
Property: Refractive index (Na D-line) (Liquid); method: Standard Abbe refractometry
Temperature, K	Mass fraction of lithium sulfate	Mass fraction of lithium carbonate	Refractive index (Na D-line)	uncertainty
288.15	0.2594	0.008	1.3812	0.002
298.15	0.2579	0.0073	1.3759	0.0029
308.15	0.2504	0.00074	1.3812	0.002
