Measured thermophysical data. Solubility Measurement and Correlation for epsilon-2,4,6,8,10,12-Hexanitro-2,4,6,8,10,12-hexaazaisowurtzitane in Different Alkanes/Aromatic Hydrocarbon + Ethyl Acetate Binary Solvents at Temperatures of between 283.15 and 323.15 K
Source: J. Chem. Eng. Data, 2018, 10.1021/acs.jced.8b00353
Compound 1: 2,4,6,8,10,12-hexanitro-2,4,6,8,10,12-hexaazaisowurtzitane, C6H6N12O12, InChI=1S/C6H6N12O12/c19-13(20)7-1-2-8(14(21)22)5(7)6-9(15(23)24)3(11(1)17(27)28)4(10(6)16(25)26)12(2)18(29)30/h1-6H, purity 99.5%
Compound 2: ethyl acetate, C4H8O2, InChI=1S/C4H8O2/c1-3-6-4(2)5/h3H2,1-2H3, purity 99.5%
Compound 3: hexane, C6H14, InChI=1S/C6H14/c1-3-5-6-4-2/h3-6H2,1-2H3, purity 99.5%
Compound 4: heptane, C7H16, InChI=1S/C7H16/c1-3-5-7-6-4-2/h3-7H2,1-2H3, purity 99.5%
Compound 5: octane, C8H18, InChI=1S/C8H18/c1-3-5-7-8-6-4-2/h3-8H2,1-2H3, purity 99.5%
Compound 6: 2,2,4-trimethylpentane, C8H18, InChI=1S/C8H18/c1-7(2)6-8(3,4)5/h7H,6H2,1-5H3, purity 99.5%
Compound 7: cyclohexane, C6H12, InChI=1S/C6H12/c1-2-4-6-5-3-1/h1-6H2, purity 99.5%
Compound 8: toluene, C7H8, InChI=1S/C7H8/c1-7-5-3-2-4-6-7/h2-6H,1H3, purity 99.5%

System: 2,4,6,8,10,12-hexanitro-2,4,6,8,10,12-hexaazaisowurtzitane + hexane + ethyl acetate; phases: Liquid, Crystal
Fixed: Pressure, kPa = 100
Property: Mole fraction of 2,4,6,8,10,12-hexanitro-2,4,6,8,10,12-hexaazaisowurtzitane (Liquid); method: gravimetric
Temperature, K	Solvent: Mole fraction of hexane	Mole fraction of 2,4,6,8,10,12-hexanitro-2,4,6,8,10,12-hexaazaisowurtzitane	uncertainty
283.15	0	0.09928	0.00993
283.15	0.17	0.08798	0.0088
283.15	0.31	0.07092	0.0071
283.15	0.44	0.05639	0.00566
283.15	0.55	0.04656	0.00468
283.15	0.64	0.03474	0.00352
283.15	0.73	0.01823	0.00188
283.15	0.81	0.00732	0.00076
283.15	0.88	0.00207	0.00023
288.15	0	0.09901	0.0099
288.15	0.17	0.08787	0.00879
288.15	0.31	0.06877	0.00689
288.15	0.44	0.05618	0.00564
288.15	0.55	0.04549	0.00458
288.15	0.64	0.03348	0.00339
288.15	0.73	0.01824	0.00187
288.15	0.81	0.00726	0.00076
288.15	0.88	0.00202	0.00022
293.15	0	0.09885	0.00989
293.15	0.17	0.08693	0.0087
293.15	0.31	0.06958	0.00697
293.15	0.44	0.05467	0.00549
293.15	0.55	0.04381	0.00441
293.15	0.64	0.03061	0.00311
293.15	0.73	0.01692	0.00173
293.15	0.81	0.00701	0.00073
293.15	0.88	0.00201	0.00022
298.15	0	0.09851	0.00985
298.15	0.17	0.08674	0.00868
298.15	0.31	0.06642	0.00665
298.15	0.44	0.0532	0.00534
298.15	0.55	0.04296	0.00433
298.15	0.64	0.03083	0.00313
298.15	0.73	0.01687	0.00173
298.15	0.81	0.00683	0.00071
298.15	0.88	0.00186	0.0002
303.15	0	0.09812	0.00981
303.15	0.17	0.08642	0.00865
303.15	0.31	0.06771	0.00678
303.15	0.44	0.05322	0.00534
303.15	0.55	0.04273	0.00431
303.15	0.64	0.028	0.00285
303.15	0.73	0.01559	0.0016
303.15	0.81	0.00673	0.0007
303.15	0.88	0.00183	0.0002
308.15	0	0.09771	0.00977
308.15	0.17	0.08558	0.00856
308.15	0.31	0.06447	0.00646
308.15	0.44	0.05036	0.00506
308.15	0.55	0.04142	0.00417
308.15	0.64	0.02897	0.00294
308.15	0.73	0.01571	0.00161
308.15	0.81	0.00625	0.00065
308.15	0.88	0.0018	0.0002
313.15	0	0.09751	0.00975
313.15	0.17	0.08403	0.00841
313.15	0.31	0.06441	0.00645
313.15	0.44	0.05128	0.00515
313.15	0.55	0.03963	0.004
313.15	0.64	0.02627	0.00268
313.15	0.73	0.01459	0.00149
313.15	0.81	0.00605	0.00063
313.15	0.88	0.00178	0.00019
318.15	0	0.09713	0.00972
318.15	0.17	0.08327	0.00833
318.15	0.31	0.06381	0.00639
318.15	0.44	0.04993	0.00502
318.15	0.55	0.03801	0.00384
318.15	0.64	0.02527	0.00257
318.15	0.73	0.01471	0.0015
318.15	0.81	0.00583	0.00061
318.15	0.88	0.00173	0.00019
323.15	0	0.09693	0.0097
323.15	0.17	0.08257	0.00826
323.15	0.31	0.06341	0.00635
323.15	0.44	0.0483	0.00485
323.15	0.55	0.03837	0.00387
323.15	0.64	0.02576	0.00262
323.15	0.73	0.01454	0.00149
323.15	0.81	0.00564	0.00059
323.15	0.88	0.00169	0.00018

System: 2,4,6,8,10,12-hexanitro-2,4,6,8,10,12-hexaazaisowurtzitane + heptane + ethyl acetate; phases: Liquid, Crystal
Fixed: Pressure, kPa = 100
Property: Mole fraction of 2,4,6,8,10,12-hexanitro-2,4,6,8,10,12-hexaazaisowurtzitane (Liquid); method: gravimetric
Temperature, K	Solvent: Mole fraction of heptane	Mole fraction of 2,4,6,8,10,12-hexanitro-2,4,6,8,10,12-hexaazaisowurtzitane	uncertainty
283.15	0	0.09928	0.00993
283.15	0.15	0.0887	0.00887
283.15	0.28	0.07311	0.00732
283.15	0.4	0.06115	0.00613
283.15	0.51	0.04906	0.00494
283.15	0.61	0.03711	0.00375
283.15	0.7	0.02394	0.00244
283.15	0.78	0.01092	0.00114
283.15	0.86	0.00318	0.00035
288.15	0	0.09901	0.0099
288.15	0.15	0.0882	0.00882
288.15	0.28	0.07261	0.00727
288.15	0.4	0.05953	0.00597
288.15	0.51	0.04705	0.00474
288.15	0.61	0.03594	0.00363
288.15	0.7	0.02219	0.00227
288.15	0.78	0.00902	0.00094
288.15	0.86	0.00296	0.00032
293.15	0	0.09885	0.00989
293.15	0.15	0.08793	0.0088
293.15	0.28	0.07096	0.00711
293.15	0.4	0.05845	0.00586
293.15	0.51	0.04577	0.00462
293.15	0.61	0.03265	0.00332
293.15	0.7	0.01876	0.00193
293.15	0.78	0.00799	0.00083
293.15	0.86	0.00239	0.00026
298.15	0	0.09851	0.00985
298.15	0.15	0.08648	0.00865
298.15	0.28	0.06772	0.00678
298.15	0.4	0.05423	0.00545
298.15	0.51	0.04105	0.00415
298.15	0.61	0.0288	0.00293
298.15	0.7	0.0163	0.00168
298.15	0.78	0.00699	0.00073
298.15	0.86	0.00207	0.00022
303.15	0	0.09812	0.00981
303.15	0.15	0.0861	0.00861
303.15	0.28	0.06516	0.00653
303.15	0.4	0.05075	0.0051
303.15	0.51	0.03816	0.00386
303.15	0.61	0.02648	0.00269
303.15	0.7	0.01441	0.00149
303.15	0.78	0.0062	0.00064
303.15	0.86	0.00188	0.0002
308.15	0	0.09771	0.00977
308.15	0.15	0.08557	0.00856
308.15	0.28	0.06373	0.00639
308.15	0.4	0.04872	0.0049
308.15	0.51	0.03634	0.00368
308.15	0.61	0.02439	0.00248
308.15	0.7	0.01359	0.0014
308.15	0.78	0.00616	0.00064
308.15	0.86	0.00176	0.00019
313.15	0	0.09751	0.00975
313.15	0.15	0.08502	0.00851
313.15	0.28	0.06237	0.00625
313.15	0.4	0.04804	0.00483
313.15	0.51	0.03537	0.00358
313.15	0.61	0.02411	0.00245
313.15	0.7	0.01318	0.00136
313.15	0.78	0.00595	0.00062
313.15	0.86	0.00173	0.00019
318.15	0	0.09713	0.00972
318.15	0.15	0.0843	0.00843
318.15	0.28	0.0617	0.00619
318.15	0.4	0.04703	0.00473
318.15	0.51	0.03482	0.00353
318.15	0.61	0.0235	0.00239
318.15	0.7	0.01333	0.00137
318.15	0.78	0.00597	0.00062
318.15	0.86	0.00176	0.00019
323.15	0	0.09693	0.0097
323.15	0.15	0.08368	0.00837
323.15	0.28	0.06201	0.00622
323.15	0.4	0.04792	0.00482
323.15	0.51	0.03556	0.0036
323.15	0.61	0.02394	0.00244
323.15	0.7	0.01345	0.00138
323.15	0.78	0.00598	0.00062
323.15	0.86	0.00187	0.0002

System: 2,4,6,8,10,12-hexanitro-2,4,6,8,10,12-hexaazaisowurtzitane + octane + ethyl acetate; phases: Liquid, Crystal
Fixed: Pressure, kPa = 100
Property: Mole fraction of 2,4,6,8,10,12-hexanitro-2,4,6,8,10,12-hexaazaisowurtzitane (Liquid); method: gravimetric
Temperature, K	Solvent: Mole fraction of octane	Mole fraction of 2,4,6,8,10,12-hexanitro-2,4,6,8,10,12-hexaazaisowurtzitane	uncertainty
283.15	0	0.09928	0.00993
283.15	0.14	0.08814	0.00882
283.15	0.27	0.07891	0.0079
283.15	0.39	0.05768	0.0058
283.15	0.49	0.04353	0.0044
283.15	0.59	0.03046	0.00309
283.15	0.69	0.01878	0.00191
283.15	0.77	0.00969	0.001
283.15	0.85	0.00292	0.00032
288.15	0	0.09901	0.0099
288.15	0.14	0.08741	0.00874
288.15	0.27	0.07749	0.00776
288.15	0.39	0.05599	0.00563
288.15	0.49	0.0434	0.00439
288.15	0.59	0.02926	0.00298
288.15	0.69	0.0167	0.00171
288.15	0.77	0.00861	0.00089
288.15	0.85	0.00243	0.00027
293.15	0	0.09885	0.00989
293.15	0.14	0.08708	0.00871
293.15	0.27	0.07501	0.00751
293.15	0.39	0.05482	0.00551
293.15	0.49	0.04267	0.00432
293.15	0.59	0.02666	0.00272
293.15	0.69	0.01616	0.00165
293.15	0.77	0.0082	0.00085
293.15	0.85	0.00187	0.00022
298.15	0	0.09851	0.00985
298.15	0.14	0.0856	0.00856
298.15	0.27	0.0726	0.00727
298.15	0.39	0.05402	0.00544
298.15	0.49	0.0394	0.004
298.15	0.59	0.02607	0.00266
298.15	0.69	0.01487	0.00152
298.15	0.77	0.00714	0.00074
298.15	0.85	0.0015	0.00018
303.15	0	0.09812	0.00981
303.15	0.14	0.08434	0.00844
303.15	0.27	0.06982	0.00699
303.15	0.39	0.05375	0.00541
303.15	0.49	0.03738	0.00381
303.15	0.59	0.02495	0.00254
303.15	0.69	0.01366	0.0014
303.15	0.77	0.00684	0.00071
303.15	0.85	0.00143	0.00018
308.15	0	0.09771	0.00977
308.15	0.14	0.08366	0.00837
308.15	0.27	0.06842	0.00685
308.15	0.39	0.05289	0.00532
308.15	0.49	0.03677	0.00374
308.15	0.59	0.02469	0.00251
308.15	0.69	0.01369	0.0014
308.15	0.77	0.00664	0.00069
308.15	0.85	0.00137	0.00017
313.15	0	0.09751	0.00975
313.15	0.14	0.08316	0.00832
313.15	0.27	0.06726	0.00674
313.15	0.39	0.052	0.00523
313.15	0.49	0.03586	0.00365
313.15	0.59	0.02426	0.00247
313.15	0.69	0.01329	0.00137
313.15	0.77	0.00618	0.00064
313.15	0.85	0.00131	0.00016
318.15	0	0.09713	0.00972
318.15	0.14	0.0824	0.00824
318.15	0.27	0.06637	0.00665
318.15	0.39	0.05137	0.00517
318.15	0.49	0.03517	0.00358
318.15	0.59	0.0237	0.00241
318.15	0.69	0.01299	0.00133
318.15	0.77	0.00621	0.00064
318.15	0.85	0.00135	0.00016
323.15	0	0.09693	0.0097
323.15	0.14	0.08139	0.00814
323.15	0.27	0.06714	0.00672
323.15	0.39	0.05137	0.00517
323.15	0.49	0.03579	0.00364
323.15	0.59	0.02373	0.00242
323.15	0.69	0.01306	0.00134
323.15	0.77	0.00623	0.00065
323.15	0.85	0.00144	0.00017

System: 2,4,6,8,10,12-hexanitro-2,4,6,8,10,12-hexaazaisowurtzitane + 2,2,4-trimethylpentane + ethyl acetate; phases: Liquid, Crystal
Fixed: Pressure, kPa = 100
Property: Mole fraction of 2,4,6,8,10,12-hexanitro-2,4,6,8,10,12-hexaazaisowurtzitane (Liquid); method: gravimetric
Temperature, K	Solvent: Mole fraction of 2,2,4-trimethylpentane	Mole fraction of 2,4,6,8,10,12-hexanitro-2,4,6,8,10,12-hexaazaisowurtzitane	uncertainty
283.15	0	0.09928	0.00993
283.15	0.14	0.08795	0.0088
283.15	0.27	0.07559	0.00757
283.15	0.39	0.06052	0.00608
283.15	0.49	0.04657	0.00471
283.15	0.59	0.03105	0.00315
283.15	0.69	0.02196	0.00222
283.15	0.77	0.01077	0.00111
283.15	0.85	0.00469	0.00049
288.15	0	0.09901	0.0099
288.15	0.14	0.08686	0.00869
288.15	0.27	0.07367	0.00738
288.15	0.39	0.05861	0.00589
288.15	0.49	0.0447	0.00453
288.15	0.59	0.03024	0.00307
288.15	0.69	0.0191	0.00195
288.15	0.77	0.00919	0.00095
288.15	0.85	0.00297	0.00032
293.15	0	0.09885	0.00989
293.15	0.14	0.08474	0.00848
293.15	0.27	0.07091	0.0071
293.15	0.39	0.05623	0.00565
293.15	0.49	0.04246	0.0043
293.15	0.59	0.02901	0.00295
293.15	0.69	0.01767	0.0018
293.15	0.77	0.00822	0.00085
293.15	0.85	0.00182	0.00022
298.15	0	0.09851	0.00985
298.15	0.14	0.08345	0.00835
298.15	0.27	0.07	0.00701
298.15	0.39	0.05481	0.00551
298.15	0.49	0.04144	0.00419
298.15	0.59	0.02874	0.00292
298.15	0.69	0.01719	0.00176
298.15	0.77	0.00672	0.00071
298.15	0.85	0.00163	0.00019
303.15	0	0.09812	0.00981
303.15	0.14	0.08247	0.00825
303.15	0.27	0.0692	0.00693
303.15	0.39	0.0525	0.00528
303.15	0.49	0.04001	0.00405
303.15	0.59	0.02812	0.00285
303.15	0.69	0.0163	0.00168
303.15	0.77	0.00566	0.00061
303.15	0.85	0.00146	0.00017
308.15	0	0.09771	0.00977
308.15	0.14	0.08176	0.00818
308.15	0.27	0.06715	0.00672
308.15	0.39	0.05265	0.00529
308.15	0.49	0.03866	0.00392
308.15	0.59	0.02751	0.00279
308.15	0.69	0.01524	0.00157
308.15	0.77	0.00535	0.00057
308.15	0.85	0.0013	0.00015
313.15	0	0.09751	0.00975
313.15	0.14	0.08125	0.00813
313.15	0.27	0.06659	0.00667
313.15	0.39	0.05105	0.00513
313.15	0.49	0.03829	0.00387
313.15	0.59	0.02709	0.00275
313.15	0.69	0.01505	0.00155
313.15	0.77	0.00533	0.00057
313.15	0.85	0.00131	0.00015
318.15	0	0.09713	0.00972
318.15	0.14	0.08044	0.00805
318.15	0.27	0.06608	0.00662
318.15	0.39	0.05075	0.0051
318.15	0.49	0.03815	0.00386
318.15	0.59	0.02688	0.00273
318.15	0.69	0.01494	0.00154
318.15	0.77	0.00547	0.00058
318.15	0.85	0.00143	0.00016
323.15	0	0.09693	0.0097
323.15	0.14	0.07966	0.00797
323.15	0.27	0.06649	0.00666
323.15	0.39	0.05109	0.00513
323.15	0.49	0.03832	0.00388
323.15	0.59	0.02716	0.00276
323.15	0.69	0.0152	0.00157
323.15	0.77	0.0056	0.0006
323.15	0.85	0.00157	0.00017

System: 2,4,6,8,10,12-hexanitro-2,4,6,8,10,12-hexaazaisowurtzitane + cyclohexane + ethyl acetate; phases: Liquid, Crystal
Fixed: Pressure, kPa = 100
Property: Mole fraction of 2,4,6,8,10,12-hexanitro-2,4,6,8,10,12-hexaazaisowurtzitane (Liquid); method: gravimetric
Temperature, K	Solvent: Mole fraction of cyclohexane	Mole fraction of 2,4,6,8,10,12-hexanitro-2,4,6,8,10,12-hexaazaisowurtzitane	uncertainty
283.15	0	0.09928	0.00993
283.15	0.17	0.0862	0.00862
283.15	0.32	0.07263	0.00727
283.15	0.44	0.05853	0.00588
283.15	0.55	0.0443	0.00447
283.15	0.65	0.03074	0.00311
283.15	0.74	0.01909	0.00194
283.15	0.81	0.00909	0.00094
283.15	0.88	0.00307	0.00032
288.15	0	0.09901	0.0099
288.15	0.17	0.08526	0.00853
288.15	0.32	0.07214	0.00722
288.15	0.44	0.05626	0.00565
288.15	0.55	0.04387	0.00442
288.15	0.65	0.02995	0.00303
288.15	0.74	0.0185	0.00188
288.15	0.81	0.0088	0.00091
288.15	0.88	0.00293	0.00031
293.15	0	0.09885	0.00989
293.15	0.17	0.08449	0.00845
293.15	0.32	0.07102	0.00711
293.15	0.44	0.0554	0.00557
293.15	0.55	0.04326	0.00436
293.15	0.65	0.02938	0.00298
293.15	0.74	0.01774	0.00181
293.15	0.81	0.00874	0.0009
293.15	0.88	0.00288	0.00031
298.15	0	0.09851	0.00985
298.15	0.17	0.08381	0.00838
298.15	0.32	0.07051	0.00706
298.15	0.44	0.05456	0.00548
298.15	0.55	0.04295	0.00433
298.15	0.65	0.02922	0.00296
298.15	0.74	0.01741	0.00177
298.15	0.81	0.0085	0.00087
298.15	0.88	0.00266	0.00028
303.15	0	0.09812	0.00981
303.15	0.17	0.08354	0.00836
303.15	0.32	0.07024	0.00703
303.15	0.44	0.05429	0.00546
303.15	0.55	0.04237	0.00427
303.15	0.65	0.02904	0.00294
303.15	0.74	0.01734	0.00177
303.15	0.81	0.00844	0.00087
303.15	0.88	0.00251	0.00027
308.15	0	0.09771	0.00977
308.15	0.17	0.08303	0.00831
308.15	0.32	0.06947	0.00696
308.15	0.44	0.05356	0.00539
308.15	0.55	0.04096	0.00413
308.15	0.65	0.02821	0.00286
308.15	0.74	0.01711	0.00174
308.15	0.81	0.00807	0.00083
308.15	0.88	0.00244	0.00026
313.15	0	0.09751	0.00975
313.15	0.17	0.08273	0.00828
313.15	0.32	0.0689	0.0069
313.15	0.44	0.05291	0.00532
313.15	0.55	0.0394	0.00398
313.15	0.65	0.02658	0.00269
313.15	0.74	0.01654	0.00168
313.15	0.81	0.0077	0.00079
313.15	0.88	0.00237	0.00025
318.15	0	0.09713	0.00972
318.15	0.17	0.08222	0.00823
318.15	0.32	0.06774	0.00678
318.15	0.44	0.05228	0.00526
318.15	0.55	0.03873	0.00391
318.15	0.65	0.02604	0.00264
318.15	0.74	0.01588	0.00162
318.15	0.81	0.00748	0.00077
318.15	0.88	0.0024	0.00026
323.15	0	0.09693	0.0097
323.15	0.17	0.08168	0.00817
323.15	0.32	0.06705	0.00672
323.15	0.44	0.05233	0.00526
323.15	0.55	0.03883	0.00392
323.15	0.65	0.02648	0.00268
323.15	0.74	0.01554	0.00159
323.15	0.81	0.00722	0.00074
323.15	0.88	0.00235	0.00025

System: 2,4,6,8,10,12-hexanitro-2,4,6,8,10,12-hexaazaisowurtzitane + toluene + ethyl acetate; phases: Liquid, Crystal
Fixed: Pressure, kPa = 100
Property: Mole fraction of 2,4,6,8,10,12-hexanitro-2,4,6,8,10,12-hexaazaisowurtzitane (Liquid); method: gravimetric
Temperature, K	Solvent: Mole fraction of toluene	Mole fraction of 2,4,6,8,10,12-hexanitro-2,4,6,8,10,12-hexaazaisowurtzitane	uncertainty
283.15	0	0.09928	0.00993
283.15	0.16	0.08611	0.00861
283.15	0.3	0.07278	0.00729
283.15	0.42	0.05913	0.00594
283.15	0.53	0.0456	0.0046
283.15	0.63	0.0325	0.00329
283.15	0.72	0.0211	0.00214
283.15	0.8	0.01123	0.00115
283.15	0.87	0.00401	0.00042
288.15	0	0.09901	0.0099
288.15	0.16	0.0857	0.00857
288.15	0.3	0.07184	0.00719
288.15	0.42	0.05848	0.00587
288.15	0.53	0.04432	0.00447
288.15	0.63	0.03143	0.00318
288.15	0.72	0.02032	0.00206
288.15	0.8	0.01096	0.00112
288.15	0.87	0.00413	0.00043
293.15	0	0.09885	0.00989
293.15	0.16	0.08499	0.0085
293.15	0.3	0.07075	0.00708
293.15	0.42	0.05712	0.00573
293.15	0.53	0.04408	0.00445
293.15	0.63	0.03094	0.00313
293.15	0.72	0.01974	0.002
293.15	0.8	0.0108	0.0011
293.15	0.87	0.0042	0.00044
298.15	0	0.09851	0.00985
298.15	0.16	0.08438	0.00844
298.15	0.3	0.07041	0.00705
298.15	0.42	0.05673	0.0057
298.15	0.53	0.04381	0.00442
298.15	0.63	0.03067	0.0031
298.15	0.72	0.01956	0.00198
298.15	0.8	0.01075	0.00109
298.15	0.87	0.00432	0.00045
303.15	0	0.09812	0.00981
303.15	0.16	0.08346	0.00835
303.15	0.3	0.06947	0.00696
303.15	0.42	0.05634	0.00566
303.15	0.53	0.04326	0.00437
303.15	0.63	0.03038	0.00307
303.15	0.72	0.01943	0.00197
303.15	0.8	0.01077	0.0011
303.15	0.87	0.00448	0.00046
308.15	0	0.09771	0.00977
308.15	0.16	0.0835	0.00835
308.15	0.3	0.06904	0.00691
308.15	0.42	0.05579	0.0056
308.15	0.53	0.04314	0.00435
308.15	0.63	0.0304	0.00308
308.15	0.72	0.01951	0.00198
308.15	0.8	0.01081	0.0011
308.15	0.87	0.00452	0.00047
313.15	0	0.09751	0.00975
313.15	0.16	0.08343	0.00835
313.15	0.3	0.06902	0.00691
313.15	0.42	0.05564	0.00559
313.15	0.53	0.04327	0.00436
313.15	0.63	0.03059	0.00309
313.15	0.72	0.01969	0.002
313.15	0.8	0.01085	0.0011
313.15	0.87	0.00463	0.00048
318.15	0	0.09713	0.00972
318.15	0.16	0.0834	0.00834
318.15	0.3	0.06901	0.00691
318.15	0.42	0.0557	0.00559
318.15	0.53	0.04347	0.00438
318.15	0.63	0.03072	0.00311
318.15	0.72	0.01983	0.00201
318.15	0.8	0.01096	0.00111
318.15	0.87	0.00473	0.00049
323.15	0	0.09693	0.0097
323.15	0.16	0.08341	0.00834
323.15	0.3	0.06901	0.00691
323.15	0.42	0.05574	0.00559
323.15	0.53	0.04351	0.00439
323.15	0.63	0.03087	0.00312
323.15	0.72	0.02015	0.00204
323.15	0.8	0.01108	0.00113
323.15	0.87	0.00484	0.0005

System: 2,4,6,8,10,12-hexanitro-2,4,6,8,10,12-hexaazaisowurtzitane + ethyl acetate; phases: Liquid, Crystal
Fixed: Pressure, kPa = 100
Property: Mole fraction of 2,4,6,8,10,12-hexanitro-2,4,6,8,10,12-hexaazaisowurtzitane (Liquid); method: gravimetric
Temperature, K	Mole fraction of 2,4,6,8,10,12-hexanitro-2,4,6,8,10,12-hexaazaisowurtzitane	uncertainty
283.15	0.09928	0.00993
288.15	0.09901	0.0099
293.15	0.09885	0.00989
298.15	0.09851	0.00985
303.15	0.09812	0.00981
308.15	0.09771	0.00977
313.15	0.09751	0.00975
318.15	0.09713	0.00972
323.15	0.09693	0.0097
