Measured thermophysical data. Isothermal Vapor-Liquid Equilibria of the Absorption Working Pairs (R1234yf + NMP, R1234yf + DMETrEG) at Temperatures from 293.15 K to 353.15 K
Source: J. Chem. Eng. Data, 2018, 10.1021/acs.jced.7b00821
Compound 1: 2,3,3,3-tetrafluoro-1-propene, C3H2F4, InChI=1S/C3H2F4/c1-2(4)3(5,6)7/h1H2
Compound 2: 2,5,8,11-tetraoxadodecane, C8H18O4, InChI=1S/C8H18O4/c1-9-3-5-11-7-8-12-6-4-10-2/h3-8H2,1-2H3
Compound 3: N-methylpyrrolidone, C5H9NO, InChI=1S/C5H9NO/c1-6-4-2-3-5(6)7/h2-4H2,1H3

System: 2,3,3,3-tetrafluoro-1-propene + N-methylpyrrolidone; phases: Liquid, Gas
Property: Vapor or sublimation pressure, kPa (Liquid); method: Closed cell (Static) method
Temperature, K	Mole fraction of 2,3,3,3-tetrafluoro-1-propene	Vapor or sublimation pressure, kPa	uncertainty
293.15	0.0579	82.5	10.6
293.15	0.1089	140.6	15.2
293.15	0.1542	185.4	19.1
293.15	0.2199	247.8	24.6
293.15	0.3481	316.6	31.2
293.15	0.4917	375.5	36.9
293.15	0.6224	435.4	42.8
293.15	0.774	484.3	47.5
293.15	0.8332	516.1	50.7
303.15	0.054	102.6	13.7
303.15	0.1021	176.5	19.5
303.15	0.1434	234.8	24.3
303.15	0.21	317.8	31.6
303.15	0.3403	409.8	40.4
303.15	0.4693	490.6	48.2
303.15	0.6172	572.9	56.3
303.15	0.7499	637.8	62.6
303.15	0.824	675.2	66.3
313.15	0.0528	124.4	17
313.15	0.0976	214.9	24.4
313.15	0.1325	289.1	30.1
313.15	0.2029	396.4	39.4
313.15	0.3347	518.3	51.1
313.15	0.4557	627.9	61.7
313.15	0.6022	726.9	71.4
313.15	0.7062	802.8	78.8
313.15	0.8175	867.7	85.2
313.15	0.894	924.7	90.8
323.15	0.0485	147.5	21.6
323.15	0.0896	256	29.1
323.15	0.13	348	36.6
323.15	0.1919	482.7	48.3
323.15	0.3073	639.9	63.1
323.15	0.4481	785.9	77.3
323.15	0.5894	907	89.1
323.15	0.6861	1000.7	98.2
323.15	0.8012	1088.4	106.8
323.15	0.8938	1169.2	114.8
333.15	0.046	171.2	24.4
333.15	0.0888	299	34.4
333.15	0.1245	409.9	43.3
333.15	0.1897	576.7	57.9
333.15	0.2921	765.6	75.8
333.15	0.4038	957.4	94.2
333.15	0.5713	1124.4	110.4
333.15	0.6829	1238.3	121.6
333.15	0.7996	1353.5	132.8
333.15	0.8979	1456.3	143
343.15	0.0412	192.8	32.5
343.15	0.0757	341.7	40.1
343.15	0.1169	473.2	50.7
343.15	0.1731	674	68
343.15	0.2744	909.4	90.1
343.15	0.3671	1102.6	108.6
343.15	0.5496	1371.7	134.7
343.15	0.6738	1507.6	148
343.15	0.799	1661	163
343.15	0.8911	1786.7	175.5
353.15	0.0398	219.3	37.7
353.15	0.072	385.8	47
353.15	0.1082	538.6	57.8
353.15	0.171	774.9	79
353.15	0.2473	1039	103.1
353.15	0.3492	1248.9	123
353.15	0.507	1545.1	151.9
353.15	0.6582	1797	176.5
353.15	0.8086	2060.9	202.3
353.15	0.89	2202.6	216.2

System: 2,3,3,3-tetrafluoro-1-propene + 2,5,8,11-tetraoxadodecane; phases: Liquid, Gas
Property: Vapor or sublimation pressure, kPa (Liquid); method: Closed cell (Static) method
Temperature, K	Mole fraction of 2,3,3,3-tetrafluoro-1-propene	Vapor or sublimation pressure, kPa	uncertainty
293.15	0.1099	78.5	7.3
293.15	0.2044	139.7	11.5
293.15	0.3016	198.6	15.9
293.15	0.4079	260	20.6
293.15	0.483	311	24.6
293.15	0.5774	369.5	29.1
293.15	0.686	428.8	33.7
293.15	0.7786	485.9	38.1
293.15	0.8742	536.6	42
303.15	0.1025	99.3	9.2
303.15	0.1936	173.8	14.4
303.15	0.282	247.2	20
303.15	0.3516	311.6	24.8
303.15	0.4715	397	31.4
303.15	0.5593	480.3	37.8
303.15	0.676	556.3	43.6
303.15	0.7689	633.4	49.6
303.15	0.8668	699.7	54.8
313.15	0.0997	121	11.6
313.15	0.1808	213.6	18
313.15	0.2627	306.6	24.8
313.15	0.3468	389.2	30.9
313.15	0.4648	500.1	39.6
313.15	0.5513	606.1	47.7
313.15	0.6278	659	51.7
313.15	0.6633	708.6	55.7
313.15	0.7417	793.2	62.2
313.15	0.8602	891.8	69.8
323.15	0.0925	143.6	14.1
323.15	0.1711	255.4	21.7
323.15	0.2529	370.1	30.1
323.15	0.3243	473.8	37.8
323.15	0.4357	603.9	47.8
323.15	0.5404	747.1	58.9
323.15	0.6015	812.5	63.9
323.15	0.647	883.5	69.4
323.15	0.7133	946.1	74.1
323.15	0.7321	978.3	77.9
323.15	0.8544	1124.8	88.2
333.15	0.0846	166.1	16.7
333.15	0.162	299.5	25.6
333.15	0.2408	436.9	35.7
333.15	0.3125	562.3	45
333.15	0.4076	714.9	56.8
333.15	0.505	898	70.7
333.15	0.6023	1009.4	79.2
333.15	0.6847	1151.6	90.5
333.15	0.7221	1210.1	94.9
333.15	0.8489	1400.3	109.7
343.15	0.0806	190.2	19.5
343.15	0.1537	343.5	29.9
343.15	0.2246	504.9	41.5
343.15	0.2982	652.4	52.4
343.15	0.3852	829.5	66.1
343.15	0.4813	1052.5	83
343.15	0.5413	1120.3	88.2
343.15	0.6664	1396.4	109.7
343.15	0.7135	1459.6	114.4
343.15	0.8472	1719.9	134.8
353.15	0.075	210	22.8
353.15	0.1409	383.9	33.7
353.15	0.2163	574.9	47.6
353.15	0.2776	744.5	59.9
353.15	0.3688	942.7	74.9
353.15	0.4652	1175.2	92.9
353.15	0.5136	1292.9	102.2
353.15	0.6497	1662.5	130.7
353.15	0.6935	1747.6	137
353.15	0.8485	2087.3	163.5
