Measured thermophysical data. Isobaric Vapor-Liquid Equilibrium for Binary System of Tetrahydrofuran + 1,4-Butanediol and gamma-Butyrolactone at 50.0 and 70.0 kPa
Source: J. Chem. Eng. Data, 2017, 10.1021/acs.jced.7b00584
Compound 1: tetrahydrofuran, C4H8O, InChI=1S/C4H8O/c1-2-4-5-3-1/h1-4H2, purity 98.5%
Compound 2: .gamma.-butyrolactone, C4H6O2, InChI=1S/C4H6O2/c5-4-2-1-3-6-4/h1-3H2, purity 98%
Compound 3: 1,4-butanediol, C4H10O2, InChI=1S/C4H10O2/c5-3-1-2-4-6/h5-6H,1-4H2, purity 98.5%

System: tetrahydrofuran; phases: Liquid, Gas
Property: Boiling temperature at pressure P, K (Liquid); method: Ebulliometric method (Recirculating still)
Pressure, kPa	Boiling temperature at pressure P, K	uncertainty
101.3	339.12	0.11

System: tetrahydrofuran; phases: Liquid, Gas
Property: Vapor or sublimation pressure, kPa (Liquid); method: Ebulliometric method (Recirculating still)
Temperature, K	Vapor or sublimation pressure, kPa	uncertainty
318.85	50	1
328.15	70	1

System: .gamma.-butyrolactone; phases: Liquid, Gas
Property: Boiling temperature at pressure P, K (Liquid); method: Ebulliometric method (Recirculating still)
Pressure, kPa	Boiling temperature at pressure P, K	uncertainty
101.3	477.15	0.11

System: .gamma.-butyrolactone; phases: Liquid, Gas
Property: Vapor or sublimation pressure, kPa (Liquid); method: Ebulliometric method (Recirculating still)
Temperature, K	Vapor or sublimation pressure, kPa	uncertainty
450.25	50	1
462.65	70	1

System: 1,4-butanediol; phases: Liquid, Gas
Property: Boiling temperature at pressure P, K (Liquid); method: Ebulliometric method (Recirculating still)
Pressure, kPa	Boiling temperature at pressure P, K	uncertainty
101.3	501.15	0.11

System: 1,4-butanediol; phases: Liquid, Gas
Property: Vapor or sublimation pressure, kPa (Liquid); method: Ebulliometric method (Recirculating still)
Temperature, K	Vapor or sublimation pressure, kPa	uncertainty
479.1	50	1
489.25	70	1

System: tetrahydrofuran + .gamma.-butyrolactone; phases: Liquid, Gas
Property: Boiling temperature at pressure P, K (Liquid); method: Ebulliometric method (Recirculating still)
Mole fraction of tetrahydrofuran	Pressure, kPa	Boiling temperature at pressure P, K	uncertainty
0	50	450.25	0.24
0.008	50	432.65	2.94
0.0131	50	423.04	2.21
0.0231	50	408.75	1.46
0.0492	50	385.81	1.11
0.0721	50	373.12	0.75
0.0944	50	367.65	0.6
0.2152	50	353.75	0.37
0.3034	50	346.72	0.3
0.4715	50	337.05	0.25
0.6281	50	330.76	0.22
0.7159	50	327.45	0.21
0.8741	50	322.23	0.17
0.9318	50	320.65	0.2
1	50	318.85	0.19
0	70	462.65	0.27
0.009	70	449.49	1.93
0.018	70	438.31	1.56
0.0311	70	425.65	1.27
0.05	70	411.47	0.83
0.116	70	389.25	0.74
0.1432	70	384.25	0.56
0.214	70	373.25	0.46
0.339	70	360.21	0.4
0.4901	70	349.39	0.32
0.6153	70	342.25	0.26
0.7378	70	336.86	0.24
0.8399	70	331.06	0.21
0.911	70	330.78	0.21
1	70	328.15	0.21

System: tetrahydrofuran + .gamma.-butyrolactone; phases: Gas, Liquid
Property: Mole fraction of tetrahydrofuran (Gas); method: Chromatography
Mole fraction of tetrahydrofuran	Pressure, kPa	Mole fraction of tetrahydrofuran	uncertainty
0	50	0	
0.008	50	0.405	0.1165
0.0131	50	0.5472	0.1041
0.0231	50	0.7193	0.1008
0.0492	50	0.882	0.1002
0.0721	50	0.9311	0.0689
0.0944	50	0.945	0.055
0.2152	50	0.9738	0.0262
0.3034	50	0.982	0.018
0.4715	50	0.9896	0.0104
0.6281	50	0.9918	0.0082
0.7159	50	0.9941	0.0059
0.8741	50	0.998	0.002
0.9318	50	0.9989	0.0011
1	50	1	
0	70	0	
0.009	70	0.3081	0.1074
0.018	70	0.5032	0.1026
0.0311	70	0.6679	0.1008
0.05	70	0.7951	0.1001
0.116	70	0.9101	0.0899
0.1432	70	0.9269	0.0731
0.214	70	0.9541	0.0459
0.339	70	0.9771	0.0229
0.4901	70	0.9889	0.0111
0.6153	70	0.9932	0.0068
0.7378	70	0.9962	0.0038
0.8399	70	0.998	0.002
0.911	70	0.999	0.001
1	70	1	

System: tetrahydrofuran + 1,4-butanediol; phases: Liquid, Gas
Property: Boiling temperature at pressure P, K (Liquid); method: Ebulliometric method (Recirculating still)
Mole fraction of tetrahydrofuran	Pressure, kPa	Boiling temperature at pressure P, K	uncertainty
0	50	479.1	0.21
0.004	50	465.25	4.56
0.0075	50	454.75	4.13
0.0095	50	449.09	3.7
0.0144	50	436.45	2.73
0.0239	50	420.52	1.92
0.0332	50	410.8	1.05
0.0569	50	395.95	0.74
0.0806	50	386.95	0.5
0.109	50	379.65	0.43
0.2275	50	361.5	0.28
0.3356	50	349.48	0.24
0.4731	50	338.85	0.21
0.5711	50	334.45	0.2
0.8004	50	324.95	0.19
1	50	318.85	0.19
0	70	489.25	0.23
0.0045	70	475.35	4.14
0.0082	70	465.1	3.48
0.0149	70	449.37	2.83
0.0242	70	432.73	1.4
0.0415	70	422.26	1
0.0586	70	409.52	0.73
0.1011	70	393.85	0.45
0.2261	70	373.75	0.35
0.285	70	366.05	0.3
0.3826	70	356.23	0.28
0.4685	70	349.52	0.26
0.5924	70	342.56	0.23
0.6681	70	338.85	0.21
0.7872	70	334.55	0.22
1	70	328.15	0.21

System: tetrahydrofuran + 1,4-butanediol; phases: Gas, Liquid
Property: Mole fraction of tetrahydrofuran (Gas); method: Chromatography
Mole fraction of tetrahydrofuran	Pressure, kPa	Mole fraction of tetrahydrofuran	uncertainty
0	50	0	
0.004	50	0.389	0.1491
0.0075	50	0.589	0.1237
0.0095	50	0.671	0.1088
0.0144	50	0.8051	0.1023
0.0239	50	0.9053	0.0947
0.0332	50	0.9409	0.0591
0.0569	50	0.9728	0.0272
0.0806	50	0.9833	0.0167
0.109	50	0.9891	0.0109
0.2275	50	0.9968	0.0032
0.3356	50	0.9987	0.0013
0.4731	50	0.9995	0.0005
0.5711	50	0.9997	0.0003
0.8004	50	0.9998	0.0002
1	50	1	
0	70	0	
0.0045	70	0.3753	0.1397
0.0082	70	0.5671	0.1119
0.0149	70	0.7582	0.1033
0.0242	70	0.8689	0.1003
0.0415	70	0.9187	0.0813
0.0586	70	0.9534	0.0466
0.1011	70	0.9785	0.0215
0.2261	70	0.9932	0.0068
0.285	70	0.9954	0.0046
0.3826	70	0.9979	0.0021
0.4685	70	0.9986	0.0014
0.5924	70	0.9992	0.0008
0.6681	70	0.9996	0.0004
0.7872	70	0.9997	0.0003
1	70	1	
