Measured thermophysical data. A Temperature-Dependent Thermodynamic Model Derived from Heat Capacity of Metal Chloride Aqueous Solutions
Source: J. Chem. Eng. Data, 2017, 10.1021/acs.jced.7b00483
Compound 1: copper chloride, Cl2Cu, InChI=1S/2ClH.Cu/h2*1H;/q;;+2/p-2
Compound 2: nickel chloride (NiCl2), Cl2Ni, InChI=1S/2ClH.Ni/h2*1H;/q;;+2/p-2
Compound 3: water, H2O, InChI=1S/H2O/h1H2, purity 99.8%

System: water; phases: Liquid
Fixed: Pressure, kPa = 100
Property: Molar heat capacity at constant pressure, J/K/mol (Liquid); method: Flow calorimetry
Temperature, K	Molar heat capacity at constant pressure, J/K/mol	uncertainty
298.15	75.664176	0.16213752
303.15	75.5740996	0.16213752
308.15	75.53806904	0.16213752
313.15	75.50203848	0.16213752
318.15	75.46600792	0.16213752
323.15	75.44799264	0.16213752
328.15	75.44799264	0.16213752
333.15	75.46600792	0.16213752
338.15	75.50203848	0.16213752
343.15	75.5740996	0.16213752
348.15	75.664176	0.16213752
353.15	75.77226768	0.16213752
358.15	75.89837464	0.16213752
363.15	76.0244816	0.16213752

System: copper chloride + water; phases: Liquid
Fixed: Pressure, kPa = 100
Property: Molar heat capacity at constant pressure, J/K/mol (Liquid); method: Flow calorimetry
Temperature, K	Molality, mol/kg of copper chloride	Molar heat capacity at constant pressure, J/K/mol	uncertainty
298.15	0.2971	74.0561569009148	0.745406712641316
298.15	0.5433	73.8187844809678	0.746611150092775
298.15	0.7083	73.5067601239226	0.740327825260816
298.15	1.0184	73.0102588513465	0.744181701790585
298.15	1.4481	72.533720453144	0.734146968149231
298.15	1.8989	72.0508218357208	0.721601554045155
298.15	2.0118	72.2709333838373	0.728893888039924
298.15	2.4242	72.2331624008101	0.732402153620381
298.15	2.954	72.3649134102133	0.740856114833756
298.15	3.4545	72.4743631875697	0.745109971085364
298.15	4.0357	72.694835025178	0.725393934677471
298.15	4.4524	72.7052560182013	0.746515279981531
303.15	0.2971	74.3356844181552	0.764041880457349
303.15	0.5433	74.1442303669056	0.746611150092775
303.15	0.7083	73.8379594141708	0.75981013645189
303.15	1.0184	73.3722931927582	0.744181701790585
303.15	1.4481	72.9322573787107	0.734146968149231
303.15	1.8989	72.4662893971408	0.743468267804099
303.15	2.0118	72.7126872553767	0.728893888039924
303.15	2.4242	72.7366888814241	0.732402153620381
303.15	2.954	72.9145808502513	0.740856114833756
303.15	3.4545	73.0456141654018	0.745109971085364
303.15	4.0357	73.3166012549015	0.751300860915952
303.15	4.4524	73.3717875181848	0.746515279981531
313.15	0.2971	74.8574691170042	0.764041880457349
313.15	0.5433	74.6802588849209	0.76575502573618
313.15	0.7083	74.4224287499031	0.75981013645189
313.15	1.0184	73.9957967807449	0.744181701790585
313.15	1.4481	73.6244530915371	0.755122595810637
313.15	1.8989	73.1878909511859	0.743468267804099
313.15	2.0118	73.5078442241475	0.750981581616892
313.15	2.4242	73.6293040061489	0.755289720921018
313.15	2.954	73.8466256398808	0.740856114833756
313.15	3.4545	74.0639311258852	0.745109971085364
313.15	4.0357	74.4046921569177	0.751300860915952
313.15	4.4524	74.5448829581558	0.746515279981531
323.15	0.2971	75.2860779767729	0.764041880457349
323.15	0.5433	75.1014241490759	0.76575502573618
323.15	0.7083	74.8510395961067	0.75981013645189
323.15	1.0184	74.4785092359604	0.764294720757898
323.15	1.4481	74.1907950383951	0.755122595810637
323.15	1.8989	73.8001589364363	0.743468267804099
323.15	2.0118	74.1262996443026	0.750981581616892
323.15	2.4242	74.3845937270699	0.755289720921018
323.15	2.954	74.5874817547146	0.764754699183232
323.15	3.4545	74.9332260921514	0.769946970121543
323.15	4.0357	75.3114345752646	0.751300860915952
323.15	4.4524	75.4780270581327	0.773176539980872
333.15	0.2971	75.6028758296455	0.764041880457349
333.15	0.5433	75.4077261593703	0.76575502573618
333.15	0.7083	75.1627565751639	0.75981013645189
333.15	1.0184	74.8606565963394	0.764294720757898
333.15	1.4481	74.6103075916233	0.755122595810637
333.15	1.8989	74.2374932116152	0.743468267804099
333.15	2.0118	74.6122289029959	0.750981581616892
333.15	2.4242	74.9567829095858	0.755289720921018
333.15	2.954	75.161047779102	0.764754699183232
333.15	3.4545	75.6286620651644	0.769946970121543
333.15	4.0357	76.0109215837035	0.777207787154433
333.15	4.4524	76.1712198181155	0.773176539980872
343.15	0.2971	75.8451330112539	0.764041880457349
343.15	0.5433	75.5991649158044	0.76575502573618
343.15	0.7083	75.3380973758835	0.75981013645189
343.15	1.0184	75.1020128239471	0.764294720757898
343.15	1.4481	74.903966378883	0.755122595810637
343.15	1.8989	74.5873606317583	0.765334981563044
343.15	2.0118	74.9435443066504	0.750981581616892
343.15	2.4242	75.3687591209973	0.755289720921018
343.15	2.954	75.5195265443442	0.764754699183232
343.15	3.4545	76.1502390449242	0.769946970121543
343.15	4.0357	76.5031531822347	0.777207787154433
343.15	4.4524	76.6244612381043	0.773176539980872
353.15	0.2971	75.9755791859661	0.782677048273382
353.15	0.5433	75.6948842940214	0.76575502573618
353.15	0.7083	75.3380973758835	0.75981013645189
353.15	1.0184	75.2428039567183	0.764294720757898
353.15	1.4481	75.0507957725128	0.755122595810637
353.15	1.8989	74.7404276280709	0.765334981563044
353.15	2.0118	75.1202458552661	0.750981581616892
353.15	2.4242	75.643409928605	0.778177288221655
353.15	2.954	75.71071521914	0.764754699183232
353.15	3.4545	76.5227940304669	0.769946970121543
353.15	4.0357	76.788129370858	0.777207787154433
353.15	4.4524	76.8110900580997	0.773176539980872
363.15	0.2971	76.0501198572303	0.782677048273382
363.15	0.5433	75.675740418378	0.76575502573618
363.15	0.7083	75.2991327535014	0.75981013645189
363.15	1.0184	75.222690937751	0.764294720757898
363.15	1.4481	75.0507957725128	0.755122595810637
363.15	1.8989	74.7841610555888	0.765334981563044
363.15	2.0118	75.1202458552661	0.750981581616892
363.15	2.4242	75.7349601978075	0.778177288221655
363.15	2.954	75.71071521914	0.764754699183232
363.15	3.4545	76.671816024684	0.769946970121543
363.15	4.0357	76.8917570758119	0.777207787154433
363.15	4.4524	76.7844287981004	0.773176539980872

System: nickel chloride (NiCl2) + water; phases: Liquid
Fixed: Pressure, kPa = 100
Property: Molar heat capacity at constant pressure, J/K/mol (Liquid); method: Flow calorimetry
Temperature, K	Molality, mol/kg of nickel chloride (NiCl2)	Molar heat capacity at constant pressure, J/K/mol	uncertainty
298.15	0.1432	74.5273773807781	0.768700847247711
298.15	0.3571	73.6406068540999	0.749141473592064
298.15	0.7035	72.0758756629118	0.737646990355682
298.15	0.9968	70.9221775498452	0.71941346627062
298.15	1.2401	70.6060483247167	0.715878241994521
298.15	1.5304	70.0865572624673	0.714311434929223
298.15	1.8741	69.7438196721006	0.714765853782397
298.15	2.2406	69.4917050542362	0.715027190268669
298.15	2.6084	69.4845365313678	0.713724530308947
298.15	3.6142	69.2688408119018	0.695420416899695
298.15	4.1021	69.4249228157583	0.693735350120456
303.15	0.1432	74.563982183028	0.768700847247711
303.15	0.3571	73.7529780751387	0.749141473592064
303.15	0.7035	72.4058756322814	0.737646990355682
303.15	0.9968	71.2818842829806	0.71941346627062
303.15	1.2401	70.9946679417994	0.715878241994521
303.15	1.5304	70.4857312996336	0.714311434929223
303.15	1.8741	70.1553515273086	0.714765853782397
303.15	2.2406	69.9609416478501	0.715027190268669
303.15	2.6084	69.9910507141677	0.713724530308947
303.15	3.6142	69.8649154549587	0.720256860360399
303.15	4.1021	70.0415764603098	0.71942925197677
313.15	0.1432	74.6371917875278	0.768700847247711
313.15	0.3571	73.9777205172163	0.749141473592064
313.15	0.7035	72.910581467788	0.737646990355682
313.15	0.9968	71.8813955048727	0.739397173667026
313.15	1.2401	71.66963885568	0.736331906051507
313.15	1.5304	71.179033574712	0.735320594780083
313.15	1.8741	70.8917769524177	0.714765853782397
313.15	2.2406	70.7430026372064	0.715027190268669
313.15	2.6084	70.8889622200402	0.713724530308947
313.15	3.6142	70.8832096368475	0.720256860360399
313.15	4.1021	71.1207203382749	0.71942925197677
323.15	0.1432	74.7287037931525	0.768700847247711
323.15	0.3571	74.1650058856143	0.749141473592064
323.15	0.7035	73.4152873032945	0.757058753259779
323.15	0.9968	72.3809881897829	0.739397173667026
323.15	1.2401	72.2218877852186	0.736331906051507
323.15	1.5304	71.7252717308343	0.735320594780083
323.15	1.8741	71.4982449495664	0.736425425109136
323.15	2.2406	71.3909960283874	0.715027190268669
323.15	2.6084	71.6257101222946	0.736747902254397
323.15	3.6142	71.7276487145114	0.720256860360399
323.15	4.1021	72.0200069032459	0.71942925197677
333.15	0.1432	74.8385181999022	0.768700847247711
333.15	0.3571	74.296105643493	0.767870010431866
333.15	0.7035	73.72587550976	0.757058753259779
333.15	0.9968	72.7406949229182	0.739397173667026
333.15	1.2401	72.6309610663584	0.736331906051507
333.15	1.5304	72.1454549278515	0.735320594780083
333.15	1.8741	71.9314363761012	0.736425425109136
333.15	2.2406	71.8825772216971	0.737371789964565
333.15	2.6084	72.2012944209309	0.736747902254397
333.15	3.6142	72.4230691314111	0.745093303821102
333.15	4.1021	72.68804835151	0.745123153833083
343.15	0.1432	74.9666350077768	0.768700847247711
343.15	0.3571	74.4084768645317	0.767870010431866
343.15	0.7035	73.919993138801	0.757058753259779
343.15	0.9968	72.9804994116751	0.739397173667026
343.15	1.2401	72.9173123631562	0.736331906051507
343.15	1.5304	72.4395831657636	0.735320594780083
343.15	1.8741	72.2346703746756	0.736425425109136
343.15	2.2406	72.1954016174397	0.737371789964565
343.15	2.6084	72.6387384878944	0.736747902254397
343.15	3.6142	72.9446344440859	0.745093303821102
343.15	4.1021	73.17623248678	0.745123153833083
353.15	0.1432	75.0947518156514	0.768700847247711
353.15	0.3571	74.483391011891	0.767870010431866
353.15	0.7035	73.9588166646092	0.757058753259779
353.15	0.9968	73.1203853634499	0.739397173667026
353.15	1.2401	73.0604880115551	0.736331906051507
353.15	1.5304	72.5866472847196	0.735320594780083
353.15	1.8741	72.4079469452895	0.736425425109136
353.15	2.2406	72.3741584150068	0.737371789964565
353.15	2.6084	72.8919955792944	0.736747902254397
353.15	3.6142	73.2923446525357	0.745093303821102
353.15	4.1021	73.4845593090558	0.745123153833083
363.15	0.1432	75.241171024651	0.768700847247711
363.15	0.3571	74.5021195487308	0.767870010431866
363.15	0.7035	73.8811696129928	0.757058753259779
363.15	0.9968	73.1203853634499	0.739397173667026
363.15	1.2401	73.0809416756121	0.736331906051507
363.15	1.5304	72.5866472847196	0.735320594780083
363.15	1.8741	72.451266087943	0.736425425109136
363.15	2.2406	72.3965030147027	0.737371789964565
363.15	2.6084	72.9840890670762	0.736747902254397
363.15	3.6142	73.4910362002214	0.745093303821102
363.15	4.1021	73.5616410146247	0.745123153833083
