Measured thermophysical data. Density, Speed of Sound, and Dynamic Viscosity of 1-Butyl-3-methylimidazolium Bis(trifluoromethylsulfonyl)imide/1-Butyl-3-methylimidazolium Hexafluorophosphate and N-Methylaniline Binary Systems from T = 298.15 to 323.15 K at 0.1 MPa
Source: J. Chem. Eng. Data, 2019, 10.1021/acs.jced.8b01095
Compound 1: 1-butyl-3-methylimidazolium bis(trifluoromethylsulfonyl)imide, C10H15F6N3O4S2, InChI=1S/C8H15N2.C2F6NO4S2/c1-3-4-5-10-7-6-9(2)8-10;3-1(4,5)14(10,11)9-15(12,13)2(6,7)8/h6-8H,3-5H2,1-2H3;/q+1;-1, purity 99%
Compound 2: 1-butyl-3-methylimidazolium hexafluorophosphate, C8H15F6N2P, InChI=1S/C8H15N2.F6P/c1-3-4-5-10-7-6-9(2)8-10;1-7(2,3,4,5)6/h6-8H,3-5H2,1-2H3;/q+1;-1, purity 99%
Compound 3: N-methylaniline, C7H9N, InChI=1S/C7H9N/c1-8-7-5-3-2-4-6-7/h2-6,8H,1H3, purity 99%

System: 1-butyl-3-methylimidazolium bis(trifluoromethylsulfonyl)imide; phases: Liquid
Fixed: Pressure, kPa = 100
Property: Molar heat capacity at constant pressure, J/K/mol (Liquid); method: Extra sensitive DSC
Temperature, K	Molar heat capacity at constant pressure, J/K/mol	uncertainty
298.15	567.22	26.3
303.15	569.85	26.42
308.15	572.64	26.55
313.15	575.47	26.68
318.15	578.38	26.82
323.15	581.52	26.96

System: 1-butyl-3-methylimidazolium bis(trifluoromethylsulfonyl)imide; phases: Liquid
Fixed: Pressure, kPa = 100
Property: Mass density, kg/m3 (Liquid); method: Vibrating tube method
Temperature, K	Mass density, kg/m3	uncertainty
298.15	1436.62	1.69
303.15	1431.8	1.69
308.15	1426.98	1.69
313.15	1422.16	1.69
318.15	1417.34	1.69
323.15	1412.52	1.69

System: 1-butyl-3-methylimidazolium bis(trifluoromethylsulfonyl)imide; phases: Liquid
Fixed: Pressure, kPa = 2
Property: Viscosity, Pa*s (Liquid); method: Falling or rolling sphere viscometry
Temperature, K	Viscosity, Pa*s	uncertainty
298.15	0.04924	0.00744
303.15	0.04	0.00654
308.15	0.03302	0.005
313.15	0.02766	0.00391
318.15	0.02347	0.00311
323.15	0.02015	0.00278

System: 1-butyl-3-methylimidazolium bis(trifluoromethylsulfonyl)imide; phases: Liquid
Fixed: Pressure, kPa = 100
Property: Speed of sound, m/s (Liquid); method: Single path-length method
Temperature, K	Speed of sound, m/s	uncertainty
298.15	1227.9	1.1
303.15	1216.8	1.1
308.15	1205.8	1.1
313.15	1195	1.1
318.15	1184.2	1.1
323.15	1173.6	1.1

System: 1-butyl-3-methylimidazolium hexafluorophosphate; phases: Liquid
Fixed: Pressure, kPa = 100
Property: Molar heat capacity at constant pressure, J/K/mol (Liquid); method: Extra sensitive DSC
Temperature, K	Molar heat capacity at constant pressure, J/K/mol	uncertainty
298.15	407.08	18.88
303.15	410.01	19.01
308.15	412.77	19.14
313.15	415.44	19.26
318.15	418.26	19.39
323.15	421.21	19.53

System: 1-butyl-3-methylimidazolium hexafluorophosphate; phases: Liquid
Fixed: Pressure, kPa = 100
Property: Mass density, kg/m3 (Liquid); method: Vibrating tube method
Temperature, K	Mass density, kg/m3	uncertainty
298.15	1367.24	1.12
303.15	1363.08	1.12
308.15	1358.91	1.11
313.15	1354.74	1.11
318.15	1350.58	1.11
323.15	1346.41	1.11

System: 1-butyl-3-methylimidazolium hexafluorophosphate; phases: Liquid
Fixed: Pressure, kPa = 2
Property: Viscosity, Pa*s (Liquid); method: Falling or rolling sphere viscometry
Temperature, K	Viscosity, Pa*s	uncertainty
298.15	0.27286	0.05558
303.15	0.2041	0.04713
308.15	0.1557	0.03343
313.15	0.1209	0.0242
318.15	0.09539	0.01786
323.15	0.07637	0.01525

System: 1-butyl-3-methylimidazolium hexafluorophosphate; phases: Liquid
Fixed: Pressure, kPa = 100
Property: Speed of sound, m/s (Liquid); method: Single path-length method
Temperature, K	Speed of sound, m/s	uncertainty
298.15	1443.7	3.2
303.15	1431.9	3.2
308.15	1420.1	3.2
313.15	1408.5	3.2
318.15	1397.1	3.2
323.15	1385.9	3.2

System: N-methylaniline; phases: Liquid
Fixed: Pressure, kPa = 100
Property: Molar heat capacity at constant pressure, J/K/mol (Liquid); method: Extra sensitive DSC
Temperature, K	Molar heat capacity at constant pressure, J/K/mol	uncertainty
298.15	207.12	9.6
303.15	210.92	9.78
308.15	214.73	9.96
313.15	218.53	10.13
318.15	222.37	10.31
323.15	225.88	10.47

System: N-methylaniline; phases: Liquid
Fixed: Pressure, kPa = 100
Property: Mass density, kg/m3 (Liquid); method: Vibrating tube method
Temperature, K	Mass density, kg/m3	uncertainty
298.15	982.7	1.6
303.15	978.59	1.6
308.15	974.47	1.6
313.15	970.36	1.6
318.15	966.24	1.6
323.15	962.13	1.6

System: N-methylaniline; phases: Liquid
Fixed: Pressure, kPa = 2
Property: Viscosity, Pa*s (Liquid); method: Falling or rolling sphere viscometry
Temperature, K	Viscosity, Pa*s	uncertainty
298.15	0.00194	0.00062
303.15	0.00173	0.00062
308.15	0.00155	0.00061
313.15	0.0014	0.00061
318.15	0.00127	0.00061
323.15	0.00116	0.00061

System: N-methylaniline; phases: Liquid
Fixed: Pressure, kPa = 100
Property: Speed of sound, m/s (Liquid); method: Single path-length method
Temperature, K	Speed of sound, m/s	uncertainty
298.15	1564.5	0.7
303.15	1546.1	0.7
308.15	1528.3	0.7
313.15	1511.5	0.7
318.15	1492.8	0.7
323.15	1476.2	0.7

System: 1-butyl-3-methylimidazolium bis(trifluoromethylsulfonyl)imide + N-methylaniline; phases: Liquid
Fixed: Pressure, kPa = 100
Property: Mass density, kg/m3 (Liquid); method: Vibrating tube method
Temperature, K	Mole fraction of 1-butyl-3-methylimidazolium bis(trifluoromethylsulfonyl)imide	Mass density, kg/m3	uncertainty
298.15	0	982.7	1
298.15	0.0958	1085.92	1.02
298.15	0.2004	1171.17	1.03
298.15	0.3061	1237.44	1.03
298.15	0.4074	1287.31	1.04
298.15	0.4939	1321.9	1.05
298.15	0.5905	1352.65	1.07
298.15	0.6834	1377.01	1.08
298.15	0.7988	1402.4	1.1
298.15	0.8751	1415.81	1.12
298.15	1	1436.62	1.14
303.15	0	978.59	1
303.15	0.0958	1081.63	1.02
303.15	0.2004	1166.89	1.03
303.15	0.3061	1233.05	1.03
303.15	0.4074	1282.85	1.04
303.15	0.4939	1317.38	1.05
303.15	0.5905	1348.07	1.06
303.15	0.6834	1372.38	1.08
303.15	0.7988	1397.7	1.1
303.15	0.8751	1411.09	1.11
303.15	1	1431.8	1.14
308.15	0	974.47	1
308.15	0.0958	1077.34	1.02
308.15	0.2004	1162.61	1.03
308.15	0.3061	1228.67	1.03
308.15	0.4074	1278.4	1.04
308.15	0.4939	1312.87	1.05
308.15	0.5905	1343.49	1.06
308.15	0.6834	1367.74	1.08
308.15	0.7988	1393.02	1.1
308.15	0.8751	1406.37	1.11
308.15	1	1426.98	1.14
313.15	0	970.36	1
313.15	0.0958	1073.05	1.02
313.15	0.2004	1158.33	1.02
313.15	0.3061	1224.28	1.03
313.15	0.4074	1273.93	1.04
313.15	0.4939	1308.35	1.05
313.15	0.5905	1338.91	1.06
313.15	0.6834	1363.11	1.08
313.15	0.7988	1388.31	1.1
313.15	0.8751	1401.64	1.11
313.15	1	1422.16	1.14
318.15	0	966.24	1
318.15	0.0958	1068.75	1.02
318.15	0.2004	1154.04	1.02
318.15	0.3061	1219.9	1.03
318.15	0.4074	1269.47	1.04
318.15	0.4939	1303.83	1.05
318.15	0.5905	1334.33	1.06
318.15	0.6834	1358.47	1.08
318.15	0.7988	1383.61	1.1
318.15	0.8751	1396.92	1.11
318.15	1	1417.34	1.14
323.15	0	962.13	1
323.15	0.0958	1064.46	1.02
323.15	0.2004	1149.76	1.02
323.15	0.3061	1215.52	1.03
323.15	0.4074	1265	1.04
323.15	0.4939	1299.32	1.05
323.15	0.5905	1329.74	1.06
323.15	0.6834	1353.84	1.07
323.15	0.7988	1378.91	1.09
323.15	0.8751	1392.22	1.11
323.15	1	1412.52	1.13

System: 1-butyl-3-methylimidazolium bis(trifluoromethylsulfonyl)imide + N-methylaniline; phases: Liquid
Fixed: Pressure, kPa = 2
Property: Viscosity, Pa*s (Liquid); method: Falling or rolling sphere viscometry
Temperature, K	Mole fraction of 1-butyl-3-methylimidazolium bis(trifluoromethylsulfonyl)imide	Viscosity, Pa*s	uncertainty
298.15	0	0.00194	0.00062
298.15	0.0958	0.00378	0.00113
298.15	0.2004	0.00741	0.00121
298.15	0.3061	0.01089	0.002
298.15	0.4074	0.01538	0.00239
298.15	0.4939	0.01938	0.00267
298.15	0.5905	0.02354	0.00364
298.15	0.6834	0.02871	0.0042
298.15	0.7988	0.03525	0.00559
298.15	0.8751	0.04087	0.00599
298.15	1	0.04924	0.00744
303.15	0	0.00173	0.00062
303.15	0.0958	0.00332	0.00083
303.15	0.2004	0.00634	0.00113
303.15	0.3061	0.0092	0.00149
303.15	0.4074	0.01287	0.0021
303.15	0.4939	0.01631	0.00247
303.15	0.5905	0.01968	0.00298
303.15	0.6834	0.02379	0.00369
303.15	0.7988	0.02903	0.00458
303.15	0.8751	0.03345	0.00538
303.15	1	0.04	0.00654
308.15	0	0.00155	0.00061
308.15	0.0958	0.00293	0.00077
308.15	0.2004	0.00547	0.00099
308.15	0.3061	0.00787	0.00125
308.15	0.4074	0.01091	0.00174
308.15	0.4939	0.01385	0.00205
308.15	0.5905	0.01665	0.00241
308.15	0.6834	0.02	0.00291
308.15	0.7988	0.02427	0.00357
308.15	0.8751	0.02784	0.00415
308.15	1	0.03302	0.005
313.15	0	0.0014	0.00061
313.15	0.0958	0.00261	0.00073
313.15	0.2004	0.00476	0.00089
313.15	0.3061	0.0068	0.00107
313.15	0.4074	0.00936	0.00138
313.15	0.4939	0.01186	0.00174
313.15	0.5905	0.01424	0.00199
313.15	0.6834	0.01704	0.00235
313.15	0.7988	0.02057	0.00285
313.15	0.8751	0.02351	0.00327
313.15	1	0.02766	0.00391
318.15	0	0.00127	0.00061
318.15	0.0958	0.00234	0.0007
318.15	0.2004	0.00417	0.00082
318.15	0.3061	0.00594	0.00095
318.15	0.4074	0.00812	0.00118
318.15	0.4939	0.01024	0.0015
318.15	0.5905	0.0123	0.00169
318.15	0.6834	0.01469	0.00195
318.15	0.7988	0.01764	0.00233
318.15	0.8751	0.02012	0.00263
318.15	1	0.02347	0.00311
323.15	0	0.00116	0.00061
323.15	0.0958	0.00211	0.00065
323.15	0.2004	0.00368	0.00078
323.15	0.3061	0.00523	0.00083
323.15	0.4074	0.0071	0.00104
323.15	0.4939	0.0089	0.00133
323.15	0.5905	0.01072	0.00148
323.15	0.6834	0.01279	0.00179
323.15	0.7988	0.01529	0.00197
323.15	0.8751	0.01741	0.0025
323.15	1	0.02015	0.00278

System: 1-butyl-3-methylimidazolium bis(trifluoromethylsulfonyl)imide + N-methylaniline; phases: Liquid
Fixed: Pressure, kPa = 100
Property: Speed of sound, m/s (Liquid); method: Single path-length method
Temperature, K	Mole fraction of 1-butyl-3-methylimidazolium bis(trifluoromethylsulfonyl)imide	Speed of sound, m/s	uncertainty
298.15	0	1564.5	0.7
298.15	0.0958	1478.4	0.8
298.15	0.2004	1416.5	0.8
298.15	0.3061	1372.1	0.8
298.15	0.4074	1337.5	0.9
298.15	0.4939	1312.1	0.9
298.15	0.5905	1286.8	0.9
298.15	0.6834	1267.9	1
298.15	0.7988	1250.4	1
298.15	0.8751	1241	1.1
298.15	1	1227.9	1.1
303.15	0	1546.1	0.7
303.15	0.0958	1462.9	0.8
303.15	0.2004	1402.2	0.8
303.15	0.3061	1358.7	0.8
303.15	0.4074	1324.7	0.9
303.15	0.4939	1299.7	0.9
303.15	0.5905	1275.1	0.9
303.15	0.6834	1256.5	1
303.15	0.7988	1239.1	1
303.15	0.8751	1229.8	1.1
303.15	1	1216.8	1.1
308.15	0	1528.3	0.7
308.15	0.0958	1447.9	0.8
308.15	0.2004	1388	0.8
308.15	0.3061	1345.4	0.8
308.15	0.4074	1312.1	0.9
308.15	0.4939	1287.6	0.9
308.15	0.5905	1263.3	0.9
308.15	0.6834	1245	1
308.15	0.7988	1228.1	1
308.15	0.8751	1218.9	1.1
308.15	1	1205.8	1.1
313.15	0	1511.5	0.7
313.15	0.0958	1433.7	0.8
313.15	0.2004	1373.8	0.8
313.15	0.3061	1332.5	0.8
313.15	0.4074	1299.9	0.9
313.15	0.4939	1275.7	0.9
313.15	0.5905	1251.8	0.9
313.15	0.6834	1233.8	1
313.15	0.7988	1217.1	1
313.15	0.8751	1208.1	1.1
313.15	1	1195	1.1
318.15	0	1492.8	0.7
318.15	0.0958	1417.6	0.8
318.15	0.2004	1359.9	0.8
318.15	0.3061	1319.4	0.8
318.15	0.4074	1287.4	0.9
318.15	0.4939	1263.6	0.9
318.15	0.5905	1240	0.9
318.15	0.6834	1222.4	1
318.15	0.7988	1206.1	1
318.15	0.8751	1197.1	1.1
318.15	1	1184.2	1.1
323.15	0	1476.2	0.7
323.15	0.0958	1403.2	0.8
323.15	0.2004	1346.5	0.8
323.15	0.3061	1306.7	0.8
323.15	0.4074	1275.5	0.9
323.15	0.4939	1252	0.9
323.15	0.5905	1228.6	0.9
323.15	0.6834	1211.5	1
323.15	0.7988	1195.2	1
323.15	0.8751	1186.4	1.1
323.15	1	1173.6	1.1

System: 1-butyl-3-methylimidazolium hexafluorophosphate + N-methylaniline; phases: Liquid
Fixed: Pressure, kPa = 100
Property: Mass density, kg/m3 (Liquid); method: Vibrating tube method
Temperature, K	Mole fraction of 1-butyl-3-methylimidazolium hexafluorophosphate	Mass density, kg/m3	uncertainty
298.15	0	982.7	1
298.15	0.1076	1064.1	1.02
298.15	0.2146	1128.52	1.02
298.15	0.3053	1174.31	1.02
298.15	0.3985	1214.23	1.03
298.15	0.4805	1243.22	1.04
298.15	0.5766	1272.38	1.05
298.15	0.6793	1299.48	1.06
298.15	0.7871	1325.04	1.08
298.15	0.9009	1348.44	1.1
298.15	1	1367.24	1.12
303.15	0	978.59	1
303.15	0.1076	1060.11	1.02
303.15	0.2146	1124.54	1.02
303.15	0.3053	1170.33	1.02
303.15	0.3985	1210.27	1.03
303.15	0.4805	1239.24	1.04
303.15	0.5766	1268.37	1.05
303.15	0.6793	1295.43	1.06
303.15	0.7871	1320.94	1.08
303.15	0.9009	1344.33	1.1
303.15	1	1363.08	1.12
308.15	0	974.47	1
308.15	0.1076	1056.11	1.02
308.15	0.2146	1120.57	1.02
308.15	0.3053	1166.34	1.02
308.15	0.3985	1206.32	1.03
308.15	0.4805	1235.26	1.04
308.15	0.5766	1264.35	1.05
308.15	0.6793	1291.38	1.06
308.15	0.7871	1316.84	1.07
308.15	0.9009	1340.21	1.09
308.15	1	1358.91	1.11
313.15	0	970.36	1
313.15	0.1076	1052.12	1.02
313.15	0.2146	1116.59	1.02
313.15	0.3053	1162.35	1.02
313.15	0.3985	1202.36	1.03
313.15	0.4805	1231.27	1.04
313.15	0.5766	1260.34	1.05
313.15	0.6793	1287.33	1.06
313.15	0.7871	1312.75	1.07
313.15	0.9009	1336.1	1.09
313.15	1	1354.74	1.11
318.15	0	966.24	1
318.15	0.1076	1048.13	1.01
318.15	0.2146	1112.61	1.02
318.15	0.3053	1158.36	1.02
318.15	0.3985	1198.4	1
318.15	0.4805	1227.29	1.03
318.15	0.5766	1256.33	1.04
318.15	0.6793	1283.28	1.06
318.15	0.7871	1308.65	1.07
318.15	0.9009	1331.99	1.09
318.15	1	1350.58	1.11
323.15	0	962.13	1
323.15	0.1076	1044.13	1.02
323.15	0.2146	1108.64	1.02
323.15	0.3053	1154.38	1.02
323.15	0.3985	1194.44	1.03
323.15	0.4805	1223.3	1.03
323.15	0.5766	1252.31	1.04
323.15	0.6793	1279.23	1.06
323.15	0.7871	1304.56	1.07
323.15	0.9009	1327.88	1.09
323.15	1	1346.41	1.11

System: 1-butyl-3-methylimidazolium hexafluorophosphate + N-methylaniline; phases: Liquid
Fixed: Pressure, kPa = 2
Property: Viscosity, Pa*s (Liquid); method: Falling or rolling sphere viscometry
Temperature, K	Mole fraction of 1-butyl-3-methylimidazolium hexafluorophosphate	Viscosity, Pa*s	uncertainty
298.15	0	0.00194	0.00062
298.15	0.1076	0.00542	0.00191
298.15	0.2146	0.01147	0.00396
298.15	0.3053	0.02249	0.00628
298.15	0.3985	0.03719	0.00966
298.15	0.4805	0.05352	0.01158
298.15	0.5766	0.07145	0.01611
298.15	0.6793	0.09521	0.01937
298.15	0.7871	0.12678	0.03291
298.15	0.9009	0.18723	0.04941
298.15	1	0.27286	0.05719
303.15	0	0.00173	0.00062
303.15	0.1076	0.00431	0.0012
303.15	0.2146	0.00924	0.00209
303.15	0.3053	0.01665	0.0045
303.15	0.3985	0.0272	0.00728
303.15	0.4805	0.03953	0.00997
303.15	0.5766	0.05354	0.01274
303.15	0.6793	0.07421	0.01703
303.15	0.7871	0.09609	0.02265
303.15	0.9009	0.14054	0.03379
303.15	1	0.2041	0.04786
308.15	0	0.00155	0.00061
308.15	0.1076	0.00352	0.00098
308.15	0.2146	0.00754	0.00169
308.15	0.3053	0.01257	0.00323
308.15	0.3985	0.02033	0.00514
308.15	0.4805	0.02979	0.0071
308.15	0.5766	0.04088	0.00909
308.15	0.6793	0.05397	0.01298
308.15	0.7871	0.07245	0.01629
308.15	0.9009	0.10754	0.02418
308.15	1	0.1557	0.03382
313.15	0	0.0014	0.00061
313.15	0.1076	0.00295	0.00084
313.15	0.2146	0.00601	0.00136
313.15	0.3053	0.00966	0.00224
313.15	0.3985	0.01549	0.00374
313.15	0.4805	0.02287	0.00522
313.15	0.5766	0.03176	0.00669
313.15	0.6793	0.04271	0.0083
313.15	0.7871	0.05732	0.01124
313.15	0.9009	0.08373	0.01763
313.15	1	0.1209	0.0244
318.15	0	0.00127	0.00061
318.15	0.1076	0.0025	0.00078
318.15	0.2146	0.005	0.00113
318.15	0.3053	0.00784	0.00165
318.15	0.3985	0.01202	0.00277
318.15	0.4805	0.01773	0.00406
318.15	0.5766	0.02505	0.00515
318.15	0.6793	0.03426	0.00634
318.15	0.7871	0.04602	0.0085
318.15	0.9009	0.06623	0.01311
318.15	1	0.09539	0.01794
323.15	0	0.00116	0.00061
323.15	0.1076	0.00207	0.00066
323.15	0.2146	0.00402	0.00095
323.15	0.3053	0.00632	0.00131
323.15	0.3985	0.00948	0.00194
323.15	0.4805	0.01362	0.00329
323.15	0.5766	0.01975	0.00419
323.15	0.6793	0.02782	0.0052
323.15	0.7871	0.03745	0.00595
323.15	0.9009	0.05314	0.0086
323.15	1	0.07637	0.01527

System: 1-butyl-3-methylimidazolium hexafluorophosphate + N-methylaniline; phases: Liquid
Fixed: Pressure, kPa = 100
Property: Speed of sound, m/s (Liquid); method: Single path-length method
Temperature, K	Mole fraction of 1-butyl-3-methylimidazolium hexafluorophosphate	Speed of sound, m/s	uncertainty
298.15	0	1564.5	3
298.15	0.1076	1558.7	3.1
298.15	0.2146	1549.8	3.1
298.15	0.3053	1538.2	3.1
298.15	0.3985	1516.1	3.1
298.15	0.4805	1497.1	3.1
298.15	0.5766	1481.9	3.1
298.15	0.6793	1468.8	3.1
298.15	0.7871	1457.9	3.1
298.15	0.9009	1447.2	3.1
298.15	1	1443.7	3.2
303.15	0	1546.1	3
303.15	0.1076	1542.2	3.1
303.15	0.2146	1534.3	3.1
303.15	0.3053	1523.4	3.1
303.15	0.3985	1502.3	3.1
303.15	0.4805	1484.1	3.1
303.15	0.5766	1469.4	3.1
303.15	0.6793	1456.7	3.1
303.15	0.7871	1445.9	3.1
303.15	0.9009	1435.4	3.1
303.15	1	1431.9	3.2
308.15	0	1528.3	3
308.15	0.1076	1525.9	3.1
308.15	0.2146	1518.9	3.1
308.15	0.3053	1508.8	3.1
308.15	0.3985	1488.9	3.1
308.15	0.4805	1471.1	3.1
308.15	0.5766	1456.7	3.1
308.15	0.6793	1444.4	3.1
308.15	0.7871	1433.9	3.1
308.15	0.9009	1423.5	3.1
308.15	1	1420.1	3.2
313.15	0	1511.5	3
313.15	0.1076	1506.7	3.1
313.15	0.2146	1500.8	3.1
313.15	0.3053	1492.6	3.1
313.15	0.3985	1475.5	3.1
313.15	0.4805	1458	3.1
313.15	0.5766	1444.2	3.1
313.15	0.6793	1432.3	3.1
313.15	0.7871	1422.2	3.1
313.15	0.9009	1411.9	3.1
313.15	1	1408.5	3.2
318.15	0	1492.8	3
318.15	0.1076	1491.1	3.1
318.15	0.2146	1488.2	3.1
318.15	0.3053	1479.8	3.1
318.15	0.3985	1462.1	3.1
318.15	0.4805	1445.1	3.1
318.15	0.5766	1431.8	3.1
318.15	0.6793	1420.3	3.1
318.15	0.7871	1410.4	3.1
318.15	0.9009	1400.5	3.1
318.15	1	1397.1	3.2
323.15	0	1476.2	3
323.15	0.1076	1473.9	3.1
323.15	0.2146	1471.7	3.1
323.15	0.3053	1466.1	3.1
323.15	0.3985	1448.8	3.1
323.15	0.4805	1432.3	3.1
323.15	0.5766	1419.6	3.1
323.15	0.6793	1408.4	3.1
323.15	0.7871	1398.9	3.1
323.15	0.9009	1389.2	3.1
323.15	1	1385.9	3.2
