Measured thermophysical data. Solutions of Urea and Tetramethylurea in Formamide and Water: A Comparative Analysis of Volume Characteristics and Solute-Solute Interaction Parameters at Temperatures from 288.15 to 328.15 K and Ambient Pressure
Source: J. Chem. Eng. Data, 2019, 10.1021/acs.jced.9b00794
Compound 1: formamide, CH3NO, InChI=1S/CH3NO/c2-1-3/h1H,(H2,2,3), purity 99.5%
Compound 2: urea, CH4N2O, InChI=1S/CH4N2O/c2-1(3)4/h(H4,2,3,4), purity 99.5%
Compound 3: tetramethylurea, C5H12N2O, InChI=1S/C5H12N2O/c1-6(2)5(8)7(3)4/h1-4H3, purity 99.5%
Compound 4: water, H2O, InChI=1S/H2O/h1H2, purity 99.9%

System: formamide; phases: Liquid
Fixed: Pressure, kPa = 100
Property: Mass density, kg/m3 (Liquid); method: Vibrating tube method
Temperature, K	Mass density, kg/m3	uncertainty
288.15	1137.91	0.11
298.15	1129.49	0.11
308.15	1121.04	0.11
318.15	1112.55	0.1
328.15	1104.04	0.1

System: tetramethylurea; phases: Liquid
Fixed: Pressure, kPa = 100
Property: Mass density, kg/m3 (Liquid); method: Vibrating tube method
Temperature, K	Mass density, kg/m3	uncertainty
288.15	971.22	0.06
298.15	962.05	0.06
308.15	952.85	0.07
318.15	943.62	0.07
328.15	934.35	0.08

System: water; phases: Liquid
Fixed: Pressure, kPa = 100
Property: Mass density, kg/m3 (Liquid); method: Vibrating tube method
Temperature, K	Mass density, kg/m3	uncertainty
288.15	999.1	0.04
298.15	997.05	0.04
308.15	994.03	0.05
318.15	990.22	0.05
328.15	985.69	0.05

System: urea + formamide; phases: Liquid
Fixed: Pressure, kPa = 99.6
Property: Mass density, kg/m3 (Liquid); method: Vibrating tube method
Temperature, K	Molality, mol/kg of urea	Mass density, kg/m3	uncertainty
288.15	0.10566	1138.95	0.11
288.15	0.18927	1139.77	0.12
288.15	0.33079	1141.12	0.12
288.15	0.47658	1142.51	0.12
288.15	0.675	1144.34	0.12
288.15	0.75184	1145.05	0.12
288.15	0.84976	1145.93	0.12
288.15	1.07013	1147.9	0.12
288.15	1.29199	1149.82	0.12
288.15	1.33028	1150.15	0.12
288.15	1.42393	1150.95	0.12
288.15	1.55513	1152.06	0.12
288.15	1.68085	1153.09	0.12
288.15	1.71831	1153.4	0.12
288.15	1.82402	1154.26	0.12
288.15	1.99912	1155.67	0.12
298.15	0.10566	1130.54	0.11
298.15	0.18927	1131.36	0.11
298.15	0.33079	1132.72	0.11
298.15	0.47658	1134.11	0.11
298.15	0.675	1135.96	0.11
298.15	0.75184	1136.67	0.11
298.15	0.84976	1137.56	0.11
298.15	1.07013	1139.54	0.11
298.15	1.29199	1141.49	0.12
298.15	1.33028	1141.82	0.12
298.15	1.42393	1142.62	0.12
298.15	1.55513	1143.73	0.12
298.15	1.68085	1144.79	0.12
298.15	1.71831	1145.09	0.12
298.15	1.82402	1145.96	0.12
298.15	1.99912	1147.39	0.12
308.15	0.10566	1122.1	0.11
308.15	0.18927	1122.91	0.11
308.15	0.33079	1124.29	0.11
308.15	0.47658	1125.69	0.11
308.15	0.675	1127.55	0.11
308.15	0.75184	1128.26	0.11
308.15	0.84976	1129.16	0.11
308.15	1.07013	1131.15	0.11
308.15	1.29199	1133.11	0.11
308.15	1.33028	1133.44	0.11
308.15	1.42393	1134.26	0.11
308.15	1.55513	1135.38	0.11
308.15	1.68085	1136.43	0.11
308.15	1.71831	1136.75	0.11
308.15	1.82402	1137.63	0.11
308.15	1.99912	1139.06	0.11
318.15	0.10566	1113.61	0.1
318.15	0.18927	1114.44	0.1
318.15	0.33079	1115.82	0.1
318.15	0.47658	1117.23	0.1
318.15	0.675	1119.11	0.1
318.15	0.75184	1119.83	0.11
318.15	0.84976	1120.74	0.11
318.15	1.07013	1122.75	0.11
318.15	1.29199	1124.72	0.11
318.15	1.33028	1125.05	0.11
318.15	1.42393	1125.87	0.11
318.15	1.55513	1127	0.11
318.15	1.68085	1128.06	0.11
318.15	1.71831	1128.38	0.11
318.15	1.82402	1129.27	0.11
318.15	1.99912	1130.7	0.11
328.15	0.10566	1105.1	0.1
328.15	0.18927	1105.94	0.1
328.15	0.33079	1107.33	0.1
328.15	0.47658	1108.75	0.1
328.15	0.675	1110.64	0.1
328.15	0.75184	1111.37	0.1
328.15	0.84976	1112.28	0.1
328.15	1.07013	1114.3	0.1
328.15	1.29199	1116.29	0.1
328.15	1.33028	1116.63	0.1
328.15	1.42393	1117.45	0.1
328.15	1.55513	1118.59	0.1
328.15	1.68085	1119.66	0.1
328.15	1.71831	1119.98	0.1
328.15	1.82402	1120.87	0.11
328.15	1.99912	1122.32	0.11

System: tetramethylurea + formamide; phases: Liquid
Fixed: Pressure, kPa = 99.6
Property: Mass density, kg/m3 (Liquid); method: Vibrating tube method
Temperature, K	Molality, mol/kg of tetramethylurea	Mass density, kg/m3	uncertainty
288.15	0.11243	1135.52	0.11
288.15	0.16478	1134.44	0.11
288.15	0.25395	1132.64	0.11
288.15	0.47856	1128.28	0.11
288.15	0.65772	1124.99	0.11
288.15	0.88243	1121.07	0.11
288.15	1.0304	1118.61	0.1
288.15	1.07456	1117.89	0.1
288.15	1.21019	1115.73	0.1
288.15	1.38186	1113.1	0.1
288.15	1.54756	1110.65	0.1
288.15	1.63162	1109.44	0.1
288.15	1.81551	1106.85	0.1
288.15	1.8881	1105.87	0.1
288.15	1.99392	1104.44	0.1
288.15	2.1397	1102.52	0.1
298.15	0.11243	1127.11	0.11
298.15	0.16478	1126.02	0.11
298.15	0.25395	1124.22	0.11
298.15	0.47856	1119.86	0.11
298.15	0.65772	1116.57	0.1
298.15	0.88243	1112.65	0.1
298.15	1.0304	1110.18	0.1
298.15	1.07456	1109.46	0.1
298.15	1.21019	1107.3	0.1
298.15	1.38186	1104.66	0.1
298.15	1.54756	1102.21	0.1
298.15	1.63162	1101	0.1
298.15	1.81551	1098.41	0.09
298.15	1.8881	1097.42	0.09
298.15	1.99392	1096	0.09
298.15	2.1397	1094.07	0.09
308.15	0.11243	1118.66	0.1
308.15	0.16478	1117.58	0.1
308.15	0.25395	1115.77	0.1
308.15	0.47856	1111.41	0.1
308.15	0.65772	1108.12	0.1
308.15	0.88243	1104.19	0.1
308.15	1.0304	1101.72	0.1
308.15	1.07456	1101	0.1
308.15	1.21019	1098.84	0.09
308.15	1.38186	1096.2	0.09
308.15	1.54756	1093.75	0.09
308.15	1.63162	1092.54	0.09
308.15	1.81551	1089.95	0.09
308.15	1.8881	1088.96	0.09
308.15	1.99392	1087.53	0.09
308.15	2.1397	1085.6	0.09
318.15	0.11243	1110.17	0.1
318.15	0.16478	1109.09	0.1
318.15	0.25395	1107.28	0.1
318.15	0.47856	1102.92	0.1
318.15	0.65772	1099.62	0.1
318.15	0.88243	1095.68	0.09
318.15	1.0304	1093.21	0.09
318.15	1.07456	1092.5	0.09
318.15	1.21019	1090.33	0.09
318.15	1.38186	1087.69	0.09
318.15	1.54756	1085.23	0.09
318.15	1.63162	1084.02	0.09
318.15	1.81551	1081.43	0.09
318.15	1.8881	1080.44	0.09
318.15	1.99392	1079.01	0.08
318.15	2.1397	1077.08	0.08
328.15	0.11243	1101.66	0.1
328.15	0.16478	1100.58	0.1
328.15	0.25395	1098.78	0.09
328.15	0.47856	1094.41	0.09
328.15	0.65772	1091.11	0.09
328.15	0.88243	1087.18	0.09
328.15	1.0304	1084.7	0.09
328.15	1.07456	1083.98	0.09
328.15	1.21019	1081.82	0.09
328.15	1.38186	1079.18	0.08
328.15	1.54756	1076.72	0.08
328.15	1.63162	1075.5	0.08
328.15	1.81551	1072.92	0.08
328.15	1.8881	1071.92	0.08
328.15	1.99392	1070.49	0.08
328.15	2.1397	1068.56	0.08

System: urea + water; phases: Liquid
Fixed: Pressure, kPa = 99.6
Property: Mass density, kg/m3 (Liquid); method: Vibrating tube method
Temperature, K	Molality, mol/kg of urea	Mass density, kg/m3	uncertainty
288.15	0.09134	1000.61	0.04
288.15	0.21674	1002.67	0.04
288.15	0.35089	1004.84	0.05
288.15	0.51805	1007.5	0.05
288.15	0.66979	1009.88	0.05
288.15	0.81608	1012.14	0.05
288.15	0.97445	1014.54	0.05
288.15	1.19496	1017.83	0.05
288.15	1.32981	1019.8	0.05
288.15	1.48879	1022.09	0.05
288.15	1.60006	1023.67	0.05
288.15	1.70722	1025.18	0.06
288.15	1.8983	1027.81	0.06
288.15	2.03366	1029.63	0.06
298.15	0.09134	998.5	0.04
298.15	0.21674	1000.46	0.04
298.15	0.35089	1002.52	0.04
298.15	0.51805	1005.07	0.05
298.15	0.66979	1007.34	0.05
298.15	0.81608	1009.5	0.05
298.15	0.97445	1011.8	0.05
298.15	1.19496	1014.96	0.05
298.15	1.32981	1016.85	0.05
298.15	1.48879	1019.05	0.05
298.15	1.60006	1020.57	0.05
298.15	1.70722	1022.02	0.05
298.15	1.8983	1024.56	0.06
298.15	2.03366	1026.33	0.06
308.15	0.09134	995.42	0.05
308.15	0.21674	997.32	0.04
308.15	0.35089	999.32	0.04
308.15	0.51805	1001.77	0.04
308.15	0.66979	1003.96	0.05
308.15	0.81608	1006.05	0.05
308.15	0.97445	1008.27	0.05
308.15	1.19496	1011.32	0.05
308.15	1.32981	1013.15	0.05
308.15	1.48879	1015.27	0.05
308.15	1.60006	1016.75	0.05
308.15	1.70722	1018.15	0.05
308.15	1.8983	1020.6	0.05
308.15	2.03366	1022.32	0.05
318.15	0.09134	991.58	0.05
318.15	0.21674	993.41	0.05
318.15	0.35089	995.36	0.05
318.15	0.51805	997.75	0.04
318.15	0.66979	999.88	0.04
318.15	0.81608	1001.91	0.04
318.15	0.97445	1004.08	0.05
318.15	1.19496	1007.05	0.05
318.15	1.32981	1008.83	0.05
318.15	1.48879	1010.91	0.05
318.15	1.60006	1012.35	0.05
318.15	1.70722	1013.72	0.05
318.15	1.8983	1016.12	0.05
318.15	2.03366	1017.8	0.05
328.15	0.09134	987.02	0.05
328.15	0.21674	988.81	0.05
328.15	0.35089	990.71	0.05
328.15	0.51805	993.05	0.05
328.15	0.66979	995.14	0.05
328.15	0.81608	997.13	0.05
328.15	0.97445	999.25	0.04
328.15	1.19496	1002.16	0.04
328.15	1.32981	1003.92	0.05
328.15	1.48879	1005.95	0.05
328.15	1.60006	1007.36	0.05
328.15	1.70722	1008.7	0.05
328.15	1.8983	1011.06	0.05
328.15	2.03366	1012.71	0.05

System: tetramethylurea + water; phases: Liquid
Fixed: Pressure, kPa = 99.6
Property: Mass density, kg/m3 (Liquid); method: Vibrating tube method
Temperature, K	Molality, mol/kg of tetramethylurea	Mass density, kg/m3	uncertainty
288.15	0.09892	999.26	0.04
288.15	0.21654	999.49	0.04
288.15	0.29115	999.66	0.04
288.15	0.38567	999.88	0.04
288.15	0.48223	1000.14	0.04
288.15	0.59383	1000.46	0.04
288.15	0.77053	1001	0.04
288.15	0.97616	1001.7	0.04
288.15	1.10523	1002.15	0.04
288.15	1.23196	1002.62	0.04
288.15	1.38049	1003.16	0.04
288.15	1.51467	1003.66	0.05
288.15	1.6857	1004.28	0.05
288.15	1.86202	1004.92	0.05
288.15	1.97874	1005.33	0.05
298.15	0.09892	997.14	0.04
298.15	0.21654	997.28	0.04
298.15	0.29115	997.38	0.04
298.15	0.38567	997.53	0.04
298.15	0.48223	997.7	0.04
298.15	0.59383	997.91	0.04
298.15	0.77053	998.29	0.04
298.15	0.97616	998.78	0.04
298.15	1.10523	999.1	0.04
298.15	1.23196	999.43	0.04
298.15	1.38049	999.82	0.04
298.15	1.51467	1000.18	0.04
298.15	1.6857	1000.63	0.04
298.15	1.86202	1001.09	0.04
298.15	1.97874	1001.38	0.04
308.15	0.09892	994.06	0.05
308.15	0.21654	994.11	0.05
308.15	0.29115	994.16	0.05
308.15	0.38567	994.24	0.05
308.15	0.48223	994.34	0.05
308.15	0.59383	994.46	0.05
308.15	0.77053	994.69	0.05
308.15	0.97616	995	0.05
308.15	1.10523	995.21	0.05
308.15	1.23196	995.43	0.05
308.15	1.38049	995.68	0.05
308.15	1.51467	995.92	0.05
308.15	1.6857	996.22	0.05
308.15	1.86202	996.53	0.05
308.15	1.97874	996.72	0.05
318.15	0.09892	990.19	0.05
318.15	0.21654	990.17	0.05
318.15	0.29115	990.16	0.05
318.15	0.38567	990.17	0.05
318.15	0.48223	990.2	0.05
318.15	0.59383	990.24	0.05
318.15	0.77053	990.33	0.05
318.15	0.97616	990.48	0.05
318.15	1.10523	990.58	0.05
318.15	1.23196	990.7	0.05
318.15	1.38049	990.83	0.05
318.15	1.51467	990.96	0.05
318.15	1.6857	991.12	0.05
318.15	1.86202	991.29	0.05
318.15	1.97874	991.39	0.05
328.15	0.09892	985.6	0.05
328.15	0.21654	985.51	0.05
328.15	0.29115	985.46	0.05
328.15	0.38567	985.41	0.05
328.15	0.48223	985.37	0.05
328.15	0.59383	985.33	0.05
328.15	0.77053	985.3	0.05
328.15	0.97616	985.3	0.05
328.15	1.10523	985.31	0.05
328.15	1.23196	985.33	0.05
328.15	1.38049	985.36	0.05
328.15	1.51467	985.39	0.05
328.15	1.6857	985.43	0.05
328.15	1.86202	985.47	0.05
328.15	1.97874	985.5	0.05
