Measured thermophysical data. Isobaric Vapor-Liquid Equilibrium of Furfural + gamma-Valerolactone at 30 kPa and Isothermal Liquid-Liquid Equilibrium of Carbon Dioxide + gamma-Valerolactone + Water at 298 K
Source: J. Chem. Eng. Data, 2018, 10.1021/acs.jced.8b00451
Compound 1: 2-furaldehyde, C5H4O2, InChI=1S/C5H4O2/c6-4-5-2-1-3-7-5/h1-4H, purity 99%
Compound 2: .gamma.-valerolactone, C5H8O2, InChI=1S/C5H8O2/c1-4-2-3-5(6)7-4/h4H,2-3H2,1H3, purity 98%
Compound 3: water, H2O, InChI=1S/H2O/h1H2, purity 99.9%
Compound 4: carbon dioxide, CO2, InChI=1S/CO2/c2-1-3, purity 99.99%

System: 2-furaldehyde; phases: Liquid, Gas
Property: Vapor or sublimation pressure, kPa (Liquid); method: Ebulliometric method (Recirculating still)
Temperature, K	Vapor or sublimation pressure, kPa	uncertainty
394.7	30	0.2

System: .gamma.-valerolactone; phases: Liquid, Gas
Property: Vapor or sublimation pressure, kPa (Liquid); method: Ebulliometric method (Recirculating still)
Temperature, K	Vapor or sublimation pressure, kPa	uncertainty
479.4	102.6	0.3
469.3	80	0.2
459.3	61.7	0.2
444.3	40.6	0.2
434	29.9	0.2
434.1	30	0.2

System: 2-furaldehyde + .gamma.-valerolactone; phases: Liquid, Gas
Fixed: Pressure, kPa = 30
Property: Boiling temperature at pressure P, K (Liquid); method: Ebulliometric method (Recirculating still)
Mole fraction of 2-furaldehyde	Boiling temperature at pressure P, K	uncertainty
0	434.1	0.2
0.0236	432.4	0.8
0.0441	431.1	0.8
0.0857	428.4	0.7
0.1423	425.3	0.7
0.1921	422.4	0.7
0.2402	419.9	0.6
0.2828	417.9	0.6
0.333	415.7	0.5
0.3989	412.9	0.5
0.4802	409.8	0.5
0.5675	406.6	0.4
0.6578	403.8	0.4
0.7381	401.4	0.4
0.8121	399.3	0.4
0.8678	397.9	0.3
0.9157	396.7	0.3
0.9621	395.5	0.3
1	394.7	0.2

System: 2-furaldehyde + .gamma.-valerolactone; phases: Gas, Liquid
Fixed: Pressure, kPa = 30
Property: Mole fraction of 2-furaldehyde (Gas); method: Chromatography
Mole fraction of 2-furaldehyde	Mole fraction of 2-furaldehyde	uncertainty
0	0	
0.0236	0.0729	0.0376
0.0441	0.1307	0.0342
0.0857	0.2393	0.0297
0.1423	0.3534	0.0264
0.1921	0.4461	0.0241
0.2402	0.5208	0.0215
0.2828	0.5767	0.0193
0.333	0.6342	0.017
0.3989	0.6898	0.0161
0.4802	0.7615	0.0155
0.5675	0.8258	0.0144
0.6578	0.8775	0.0134
0.7381	0.9097	0.013
0.8121	0.94	0.0129
0.8678	0.9608	0.0127
0.9157	0.9762	0.0126
0.9621	0.9901	0.0099
1	1	

System: carbon dioxide + water; phases: Liquid, Gas
Property: Mole fraction of carbon dioxide (Liquid); method: Chromatography
Temperature, K	Pressure, kPa	Mole fraction of carbon dioxide	uncertainty
299.1	880	0.0055	0.001
299.3	1870	0.0104	0.001
299.2	2760	0.0146	0.001
298.7	4330	0.0212	0.001
298.9	4510	0.0217	0.001

System: carbon dioxide + .gamma.-valerolactone; phases: Liquid, Gas
Property: Mole fraction of carbon dioxide (Liquid); method: Chromatography
Temperature, K	Pressure, kPa	Mole fraction of carbon dioxide	uncertainty
299.6	2140	0.314	0.004
298.5	2990	0.428	0.004
299	3760	0.52	0.01
299.1	4420	0.584	0.005
298.6	4730	0.642	0.012
299	5470	0.741	0.008
297.6	5520	0.779	0.004
298.6	5660	0.784	0.005

System: carbon dioxide + .gamma.-valerolactone + water; phases: Liquid mixture 1, Liquid mixture 2
Property: Mole fraction of carbon dioxide (Liquid mixture 1); method: Chromatography
Property: Mole fraction of .gamma.-valerolactone (Liquid mixture 2); method: Chromatography
Property: Mole fraction of carbon dioxide (Liquid mixture 2); method: Chromatography
Temperature, K	Pressure, kPa	Mole fraction of .gamma.-valerolactone	Mole fraction of carbon dioxide	uncertainty	Mole fraction of .gamma.-valerolactone	uncertainty	Mole fraction of carbon dioxide	uncertainty
298.7	7700	0.0096	0.0275	0.0003	0.036	0.0011	0.9602	
299.1	7500	0.005	0.0271	0.0003	0.0111	0.001	0.9835	
299.2	7500	0.016	0.0269	0.0004	0.1328	0.0013	0.8537	
299.1	7500	0.0196	0.0279	0.0003	0.214	0.0021	0.7538	
299.1	7500	0.0163	0.0281	0.0003	0.1751	0.0041	0.8085	
298.9	8500	0.016	0.0277	0.0005	0.1597	0.007	0.8254	
298.1	7500	0.0101	0.0273	0.0003	0.0385	0.001	0.9499	
298.4	8500	0.0096	0.0268	0.0005	0.035	0.0026	0.9543	
298.7	7500	0.0133	0.0278	0.0005	0.0548	0.0011	0.9351	

System: carbon dioxide + .gamma.-valerolactone + water; phases: Liquid mixture 2, Liquid mixture 1
Fixed: Pressure, kPa = 7500
Property: Mole fraction of .gamma.-valerolactone (Liquid mixture 2); method: Chromatography
Temperature, K	Mole fraction of carbon dioxide	Mole fraction of .gamma.-valerolactone	uncertainty
298.9	0.4898	0.3924	0.003
297.2	0.3459	0.4466	0.0035
