Measured thermophysical data. Solubility Measurement and Correlation of Fosfomycin Sodium in Six Organic Solvents and Different Binary Solvents at Temperatures between 283.15 and 323.15 K
Source: J. Chem. Eng. Data, 2017, 10.1021/acs.jced.7b00638
Compound 1: disodium phosphonomycin, C3H5Na2O4P, InChI=1S/C3H7O4P.2Na/c1-2-3(7-2)8(4,5)6;;/h2-3H,1H3,(H2,4,5,6);;/q;2*+1/p-2/t2-,3+;;/m0../s1, purity 99%
Compound 2: methanol, CH4O, InChI=1S/CH4O/c1-2/h2H,1H3, purity 99.5%
Compound 3: ethanol, C2H6O, InChI=1S/C2H6O/c1-2-3/h3H,2H2,1H3, purity 99.5%
Compound 4: propan-1-ol, C3H8O, InChI=1S/C3H8O/c1-2-3-4/h4H,2-3H2,1H3, purity 99.5%
Compound 5: acetone, C3H6O, InChI=1S/C3H6O/c1-3(2)4/h1-2H3, purity 99.5%
Compound 6: cyclohexane, C6H12, InChI=1S/C6H12/c1-2-4-6-5-3-1/h1-6H2, purity 99.5%
Compound 7: dimethylformamide, C3H7NO, InChI=1S/C3H7NO/c1-4(2)3-5/h3H,1-2H3, purity 99.5%

System: disodium phosphonomycin + methanol; phases: Liquid, Crystal
Fixed: Pressure, kPa = 100
Property: Mole fraction of disodium phosphonomycin (Liquid); method: Titration method
Temperature, K	Mole fraction of disodium phosphonomycin	uncertainty
283.15	0.0177422	0.0017753
288.15	0.0165159	0.0016528
293.15	0.0151615	0.0015175
298.15	0.0137656	0.0013776
303.15	0.0128641	0.0012871
308.15	0.0120913	0.0012099
313.15	0.011052	0.0011059
318.15	0.0104755	0.0010481
323.15	0.0098449	0.000985

System: disodium phosphonomycin + ethanol; phases: Liquid, Crystal
Fixed: Pressure, kPa = 100
Property: Mole fraction of disodium phosphonomycin (Liquid); method: Titration method
Temperature, K	Mole fraction of disodium phosphonomycin	uncertainty
283.15	0.0010895	0.0001092
288.15	0.0009342	9.37e-05
293.15	0.0007693	7.72e-05
298.15	0.0006428	6.44e-05
303.15	0.0005483	5.5e-05
308.15	0.0004633	4.65e-05
313.15	0.0003832	3.84e-05
318.15	0.0003159	3.17e-05
323.15	0.0002662	2.67e-05

System: disodium phosphonomycin + propan-1-ol; phases: Liquid, Crystal
Fixed: Pressure, kPa = 100
Property: Mole fraction of disodium phosphonomycin (Liquid); method: Titration method
Temperature, K	Mole fraction of disodium phosphonomycin	uncertainty
283.15	0.000108	1.09e-05
288.15	8.01e-05	8.1e-06
293.15	6.19e-05	6.2e-06
298.15	4.52e-05	4.6e-06
303.15	3.09e-05	3.1e-06
308.15	1.95e-05	2e-06
313.15	1.34e-05	1.4e-06
318.15	1.04e-05	1e-06
323.15	7.1e-06	7e-07

System: disodium phosphonomycin + acetone; phases: Liquid, Crystal
Fixed: Pressure, kPa = 100
Property: Mole fraction of disodium phosphonomycin (Liquid); method: Titration method
Temperature, K	Mole fraction of disodium phosphonomycin	uncertainty
283.15	0.0001862	1.87e-05
288.15	0.0001599	1.6e-05
293.15	0.0001377	1.38e-05
298.15	0.0001154	1.16e-05
303.15	9.72e-05	9.7e-06
308.15	8.3e-05	8.3e-06
313.15	7.09e-05	7.1e-06
318.15	6.07e-05	6.1e-06
323.15	5.47e-05	5.5e-06

System: disodium phosphonomycin + cyclohexane; phases: Liquid, Crystal
Fixed: Pressure, kPa = 100
Property: Mole fraction of disodium phosphonomycin (Liquid); method: Titration method
Temperature, K	Mole fraction of disodium phosphonomycin	uncertainty
283.15	0.0004034	4.04e-05
288.15	0.000353	3.54e-05
293.15	0.0002996	3e-05
298.15	0.0002522	2.53e-05
303.15	0.0002255	2.26e-05
308.15	0.0001958	1.96e-05
313.15	0.0001751	1.75e-05
318.15	0.0001513	1.52e-05
323.15	0.0001276	1.28e-05

System: disodium phosphonomycin + dimethylformamide; phases: Liquid, Crystal
Fixed: Pressure, kPa = 100
Property: Mole fraction of disodium phosphonomycin (Liquid); method: Titration method
Temperature, K	Mole fraction of disodium phosphonomycin	uncertainty
283.15	0.000606	6.07e-05
288.15	0.0005319	5.33e-05
293.15	0.000481	4.81e-05
298.15	0.0004429	4.43e-05
303.15	0.0003963	3.97e-05
308.15	0.0003582	3.58e-05
313.15	0.0003391	3.39e-05
318.15	0.0003116	3.12e-05
323.15	0.0002912	2.91e-05

System: disodium phosphonomycin + methanol + ethanol; phases: Liquid, Crystal
Fixed: Pressure, kPa = 100
Property: Mole fraction of disodium phosphonomycin (Liquid); method: Titration method
Temperature, K	Solvent: Mole fraction of methanol	Mole fraction of disodium phosphonomycin	uncertainty
283.15	0.14	0.0014714	0.0001534
283.15	0.26	0.0018701	0.0002361
283.15	0.38	0.0027867	0.00043
283.15	0.49	0.0038492	0.0007502
283.15	0.59	0.0055521	0.0009416
283.15	0.68	0.0073684	0.0011126
283.15	0.76	0.0099848	0.0012227
283.15	0.84	0.0120431	0.0013031
283.15	0.91	0.0145801	0.0014948
288.15	0.14	0.0012214	0.0001266
288.15	0.26	0.0015241	0.0001871
288.15	0.38	0.0022134	0.0003311
288.15	0.49	0.0030115	0.0005583
288.15	0.59	0.0042353	0.0007621
288.15	0.68	0.0059512	0.0009057
288.15	0.76	0.0078595	0.0009947
288.15	0.84	0.0099678	0.0011287
288.15	0.92	0.0131094	0.0013528
293.15	0.14	0.0009498	9.76e-05
293.15	0.26	0.0011505	0.0001421
293.15	0.38	0.0017115	0.000264
293.15	0.49	0.0023635	0.0004524
293.15	0.59	0.0033714	0.0006197
293.15	0.68	0.0047821	0.0007426
293.15	0.77	0.0065564	0.0008327
293.15	0.85	0.0085597	0.0010043
293.15	0.92	0.0117865	0.0012317
298.15	0.14	0.0007644	7.81e-05
298.15	0.26	0.0009115	0.0001116
298.15	0.38	0.0013532	0.000206
298.15	0.49	0.0018492	0.0003549
298.15	0.59	0.0026583	0.0004692
298.15	0.68	0.0036421	0.0005898
298.15	0.77	0.0052593	0.0006927
298.15	0.85	0.0069588	0.0008518
298.15	0.92	0.0102015	0.0010843
303.15	0.14	0.0006345	6.45e-05
303.15	0.26	0.0007484	8.78e-05
303.15	0.38	0.0010542	0.0001513
303.15	0.49	0.0014021	0.0002771
303.15	0.59	0.002084	0.0003912
303.15	0.68	0.0029401	0.000488
303.15	0.77	0.0042684	0.0005755
303.15	0.85	0.0057896	0.0007384
303.15	0.92	0.0089028	0.0009687
308.15	0.14	0.0005288	5.37e-05
308.15	0.26	0.0006197	7.34e-05
308.15	0.38	0.0008901	0.000124
308.15	0.49	0.0011412	0.0001908
308.15	0.59	0.0015492	0.0002672
308.15	0.68	0.0021492	0.0003891
308.15	0.77	0.0033687	0.0004665
308.15	0.85	0.0045213	0.0006223
308.15	0.92	0.0077035	0.0008712
313.15	0.14	0.0004215	4.3e-05
313.15	0.26	0.0005231	6e-05
313.15	0.38	0.0006905	9.2e-05
313.15	0.49	0.0008891	0.0001651
313.15	0.59	0.0012908	0.0002331
313.15	0.68	0.0017913	0.0002856
313.15	0.77	0.0025392	0.0003709
313.15	0.85	0.0037935	0.0005722
313.15	0.92	0.0068951	0.0007923
318.15	0.14	0.0003203	3.25e-05
318.15	0.27	0.0003893	4.49e-05
318.15	0.38	0.0005183	7.61e-05
318.15	0.49	0.0007101	0.0001422
318.15	0.59	0.0010489	0.0001842
318.15	0.68	0.0014113	0.0002303
318.15	0.77	0.0020705	0.000324
318.15	0.85	0.003269	0.0005065
318.15	0.92	0.0060034	0.0007146
323.15	0.14	0.0002381	2.42e-05
323.15	0.27	0.0003421	4.05e-05
323.15	0.38	0.0004303	6.34e-05
323.15	0.49	0.0006111	0.0001154
323.15	0.59	0.0008509	0.00016
323.15	0.68	0.0012415	0.0002024
323.15	0.77	0.0017492	0.0002771
323.15	0.85	0.0028431	0.0004679
323.15	0.92	0.0055044	0.0006661
283.15	1	0.0177422	0.0017753
288.15	1	0.0165159	0.0016528
293.15	1	0.0151615	0.0015175
298.15	1	0.0137656	0.0013776
303.15	1	0.0128641	0.0012871
308.15	1	0.0120913	0.0012099
313.15	1	0.011052	0.0011059
318.15	1	0.0104755	0.0010481
323.15	1	0.0098449	0.000985
283.15	0	0.0010895	0.0001092
288.15	0	0.0009342	9.37e-05
293.15	0	0.0007693	7.72e-05
298.15	0	0.0006428	6.44e-05
303.15	0	0.0005483	5.5e-05
308.15	0	0.0004633	4.65e-05
313.15	0	0.0003832	3.84e-05
318.15	0	0.0003159	3.17e-05
323.15	0	0.0002662	2.67e-05

System: disodium phosphonomycin + methanol + acetone; phases: Liquid, Crystal
Fixed: Pressure, kPa = 100
Property: Mole fraction of disodium phosphonomycin (Liquid); method: Titration method
Temperature, K	Solvent: Mole fraction of methanol	Mole fraction of disodium phosphonomycin	uncertainty
283.15	0.14	0.0005795	7.79e-05
283.15	0.26	0.0011482	0.0001715
283.15	0.38	0.0017511	0.0002606
283.15	0.49	0.0023121	0.0003748
283.15	0.59	0.0030154	0.0004743
283.15	0.68	0.0040095	0.0006381
283.15	0.77	0.0057984	0.0008099
283.15	0.85	0.0081843	0.0010601
283.15	0.92	0.01253	0.0013568
288.15	0.14	0.0004631	6.07e-05
288.15	0.26	0.0008921	0.0001317
288.15	0.38	0.0013542	0.0002102
288.15	0.49	0.0018621	0.0003089
288.15	0.59	0.0024095	0.0003889
288.15	0.68	0.0032832	0.0005226
288.15	0.77	0.0046912	0.000667
288.15	0.85	0.0068011	0.0008666
288.15	0.92	0.0100914	0.0011373
293.15	0.14	0.0003585	4.75e-05
293.15	0.26	0.0007186	0.0001063
293.15	0.38	0.0010786	0.0001623
293.15	0.49	0.0014499	0.0002461
293.15	0.59	0.0019301	0.0003226
293.15	0.68	0.0026522	0.0004313
293.15	0.77	0.0038386	0.0005462
293.15	0.85	0.0055355	0.0007892
293.15	0.92	0.0095448	0.0010857
298.15	0.14	0.0002913	3.84e-05
298.15	0.26	0.0005834	8.44e-05
298.15	0.38	0.0008521	0.0001304
298.15	0.49	0.0011802	0.0002047
298.15	0.59	0.0015689	0.0002604
298.15	0.68	0.0021468	0.0003404
298.15	0.77	0.0030514	0.0004406
298.15	0.85	0.0045051	0.0007035
298.15	0.92	0.0085462	0.0009885
303.15	0.14	0.0002512	3.23e-05
303.15	0.26	0.0004776	6.81e-05
303.15	0.38	0.0006978	0.0001098
303.15	0.49	0.0009911	0.0001742
303.15	0.59	0.0013122	0.0002162
303.15	0.68	0.0017915	0.0002836
303.15	0.77	0.0025473	0.0004066
303.15	0.85	0.0041613	0.0006511
303.15	0.92	0.0076438	0.0008964
308.15	0.14	0.000191	2.43e-05
308.15	0.27	0.0003707	5.75e-05
308.15	0.38	0.0005813	9.59e-05
308.15	0.49	0.0008116	0.0001435
308.15	0.59	0.0010886	0.0001968
308.15	0.68	0.0015768	0.0002597
308.15	0.77	0.0022483	0.0003566
308.15	0.85	0.0036512	0.0005734
308.15	0.92	0.0067434	0.0008137
313.15	0.14	0.0001515	1.93e-05
313.15	0.27	0.0003014	4.85e-05
313.15	0.38	0.0004913	8.27e-05
313.15	0.49	0.0006855	0.0001274
313.15	0.59	0.0009531	0.0001734
313.15	0.68	0.0013618	0.0002197
313.15	0.77	0.0019216	0.0003099
313.15	0.85	0.0031813	0.0005023
313.15	0.92	0.0058725	0.0007251
318.15	0.14	0.0001301	1.63e-05
318.15	0.27	0.0002507	3.84e-05
318.15	0.38	0.00039	7.21e-05
318.15	0.49	0.0006013	0.000115
318.15	0.59	0.0008104	0.000152
318.15	0.68	0.0012021	0.0002107
318.15	0.77	0.001783	0.000263
318.15	0.85	0.0026441	0.0004188
318.15	0.92	0.0050903	0.0006626
323.15	0.14	0.000112	1.38e-05
323.15	0.27	0.0002108	3.25e-05
323.15	0.38	0.0003326	6.18e-05
323.15	0.49	0.0005124	0.0001081
323.15	0.59	0.0007415	0.0001321
323.15	0.68	0.0010203	0.0001809
323.15	0.77	0.0015815	0.0002479
323.15	0.85	0.0024385	0.0003641
323.15	0.92	0.0043108	0.0005874
283.15	1	0.0177422	0.0017753
288.15	1	0.0165159	0.0016528
293.15	1	0.0151615	0.0015175
298.15	1	0.0137656	0.0013776
303.15	1	0.0128641	0.0012871
308.15	1	0.0120913	0.0012099
313.15	1	0.011052	0.0011059
318.15	1	0.0104755	0.0010481
323.15	1	0.0098449	0.000985
283.15	0	0.0001862	1.87e-05
288.15	0	0.0001599	1.6e-05
293.15	0	0.0001377	1.38e-05
298.15	0	0.0001154	1.16e-05
303.15	0	9.72e-05	9.7e-06
308.15	0	8.3e-05	8.3e-06
313.15	0	7.09e-05	7.1e-06
318.15	0	6.07e-05	6.1e-06
323.15	0	5.47e-05	5.5e-06
