Measured thermophysical data. Vapor Pressure of Dichlorosilane, Trichlorosilane, and Tetrachlorosilane from 300 K to 420 K
Source: J. Chem. Eng. Data, 2016, 10.1021/acs.jced.6b00142
Compound 1: dichlorosilane, Cl2H2Si, InChI=1S/Cl2H2Si/c1-3-2/h3H2, purity 99.99%
Compound 2: trichlorosilane, Cl3HSi, InChI=1S/Cl3HSi/c1-4(2)3/h4H, purity 99.95%
Compound 3: silicon tetrachloride, Cl4Si, InChI=1S/Cl4Si/c1-5(2,3)4, purity 99.94%

System: dichlorosilane; phases: Liquid, Gas
Property: Vapor or sublimation pressure, kPa (Liquid); method: Diaphragm manometer
Temperature, K	Vapor or sublimation pressure, kPa	uncertainty
300.001	216.5	4.4
319.998	380.4	7.73
330.017	492.2	10
299.994	214.5	4.36
319.983	377.6	7.67
339.992	625.6	12.71
349.989	789	16.03
299.999	214.2	4.35
319.996	377.3	7.67
339.991	625.3	12.7
359.983	981.9	19.95
329.994	485.8	9.87
349.99	784.7	15.94
359.988	978	19.87
369.984	1205	24.48
349.996	785	15.95
369.992	1205	24.48
379.985	1469	29.84
299.999	212.1	4.31
309.992	284.3	5.78
349.992	786.4	15.98
359.992	982.2	19.95
369.992	1209	24.56
379.989	1479	30.04
389.994	1779	36.14
299.993	214.4	4.36
319.993	377.9	7.68
339.998	628.6	12.77
359.991	985.9	20.03
379.99	1477	30
389.991	1784	36.24
299.988	213.33	4.34
339.991	626.4	12.73
379.99	1475.9	29.98
389.99	1780.5	36.17
399.989	2099	42.64
410.004	2534	51.47
299.993	216.53	4.4
319.995	381.43	7.75
339.991	631.6	12.83
359.991	990.3	20.12
379.992	1484	30.15
399.992	2138	43.43
409.984	2559	51.98
419.991	3016	61.26

System: dichlorosilane; phases: Liquid, Gas
Property: Vapor or sublimation pressure, kPa (Liquid); method: Diaphragm manometer
Temperature, K	Vapor or sublimation pressure, kPa	uncertainty
323.006	407.8	8.3
343.007	672.6	13.7
362.99	1052.1	21.4

System: trichlorosilane; phases: Liquid, Gas
Property: Vapor or sublimation pressure, kPa (Liquid); method: Diaphragm manometer
Temperature, K	Vapor or sublimation pressure, kPa	uncertainty
310	121.89	2.48
320	167.53	3.4
329.996	225.35	4.58
340	297.4	6.04
350	385.6	7.83
359.995	492.1	10
369.996	619.6	12.59
379.995	770.2	15.65
380.499	778.2	15.81
384.998	854.6	17.36
390	946	19.22
394.995	1044.2	21.21

System: silicon tetrachloride; phases: Liquid, Gas
Property: Vapor or sublimation pressure, kPa (Liquid); method: Diaphragm manometer
Temperature, K	Vapor or sublimation pressure, kPa	uncertainty
332.991	113.02	2.3
339.996	139.15	2.83
340.001	138.98	2.82
350.015	185.05	3.76
359.999	241.64	4.91
370.001	311.49	6.33
379.998	395.69	8.04
389.995	495.9	10.07
399.996	614	12.47
