Measured thermophysical data. Liquid-Liquid Equilibrium Data for the Systems n-Propyl Acetate or Isopropyl Acetate + n-Propanol or Isopropyl Alcohol + IL at 298.15 and 318.15 K and Atmospheric Pressure
Source: J. Chem. Eng. Data, 2018, 10.1021/acs.jced.8b00776
Compound 1: propyl ethanoate, C5H10O2, InChI=1S/C5H10O2/c1-3-4-7-5(2)6/h3-4H2,1-2H3, purity 98%
Compound 2: propan-1-ol, C3H8O, InChI=1S/C3H8O/c1-2-3-4/h4H,2-3H2,1H3, purity 99%
Compound 3: 1-methylethyl ethanoate, C5H10O2, InChI=1S/C5H10O2/c1-4(2)7-5(3)6/h4H,1-3H3, purity 99%
Compound 4: propan-2-ol, C3H8O, InChI=1S/C3H8O/c1-3(2)4/h3-4H,1-2H3, purity 99.7%
Compound 5: 1-butyl-3-methylimidazolium hydrogen sulfate, C8H16N2O4S, InChI=1S/C8H15N2.H2O4S/c1-3-4-5-10-7-6-9(2)8-10;1-5(2,3)4/h6-8H,3-5H2,1-2H3;(H2,1,2,3,4)/q+1;/p-1, purity 98%

System: propyl ethanoate + propan-1-ol + 1-butyl-3-methylimidazolium hydrogen sulfate; phases: Liquid mixture 1, Liquid mixture 2
Fixed: Pressure, kPa = 101.325
Property: Mole fraction of propan-1-ol (Liquid mixture 1); method: Chromatography
Property: Mole fraction of propan-1-ol (Liquid mixture 2); method: Chromatography
Property: Mole fraction of propyl ethanoate (Liquid mixture 2); method: Chromatography
Temperature, K	Mole fraction of propyl ethanoate	Mole fraction of propan-1-ol	uncertainty	Mole fraction of propan-1-ol	uncertainty	Mole fraction of propyl ethanoate	uncertainty
298.15	0.999	0		0		0.05	
318.15	0.999	0		0		0.028	
318.15	0.937	0.062	0.028	0.018	0.018	0.026	
318.15	0.919	0.079	0.028	0.036	0.024	0.053	
318.15	0.899	0.096	0.026	0.065	0.022	0.118	
318.15	0.882	0.113	0.027	0.09	0.023	0.169	
318.15	0.867	0.124	0.027	0.124	0.024	0.224	
318.15	0.838	0.151	0.027	0.156	0.026	0.262	
318.15	0.793	0.189	0.026	0.201	0.026	0.318	
298.15	0.936	0.063	0.028	0.05	0.031	0.08	
298.15	0.905	0.094	0.028	0.076	0.034	0.113	
298.15	0.869	0.128	0.028	0.108	0.033	0.131	
298.15	0.81	0.185	0.028	0.168	0.035	0.17	
298.15	0.736	0.256	0.027	0.238	0.035	0.221	
298.15	0.667	0.319	0.028	0.307	0.042	0.269	
298.15	0.584	0.391	0.027	0.377	0.059	0.293	
298.15	0.498	0.447	0.027	0.434	0.056	0.315	

System: 1-methylethyl ethanoate + propan-2-ol + 1-butyl-3-methylimidazolium hydrogen sulfate; phases: Liquid mixture 1, Liquid mixture 2
Fixed: Pressure, kPa = 101.325
Property: Mole fraction of 1-methylethyl ethanoate (Liquid mixture 1); method: Chromatography
Property: Mole fraction of 1-methylethyl ethanoate (Liquid mixture 2); method: Chromatography
Property: Mole fraction of propan-2-ol (Liquid mixture 2); method: Chromatography
Temperature, K	Mole fraction of propan-2-ol	Mole fraction of 1-methylethyl ethanoate	uncertainty	Mole fraction of 1-methylethyl ethanoate	uncertainty	Mole fraction of propan-2-ol	uncertainty
298.15	0	0.999	0.001	0.026	0.02	0	
318.15	0	0.999	0.001	0.021	0.02	0	
318.15	0.063	0.936	0.028	0.024	0.02	0.079	
318.15	0.104	0.895	0.028	0.025	0.02	0.123	
318.15	0.156	0.842	0.029	0.035	0.021	0.169	
318.15	0.191	0.806	0.029	0.042	0.02	0.199	
318.15	0.233	0.762	0.029	0.044	0.022	0.229	
318.15	0.298	0.692	0.029	0.084	0.022	0.289	
318.15	0.362	0.626	0.029	0.094	0.021	0.348	
318.15	0.44	0.544	0.029	0.129	0.022	0.419	
298.15	0.048	0.951	0.028	0.031	0.021	0.055	
298.15	0.072	0.927	0.028	0.052	0.022	0.116	
298.15	0.115	0.884	0.029	0.087	0.021	0.189	
298.15	0.215	0.781	0.029	0.108	0.02	0.3	
298.15	0.239	0.756	0.029	0.113	0.021	0.328	
298.15	0.288	0.706	0.029	0.132	0.021	0.373	
298.15	0.352	0.639	0.03	0.14	0.02	0.416	
298.15	0.41	0.568	0.032	0.151	0.021	0.464	

System: propyl ethanoate + 1-butyl-3-methylimidazolium hydrogen sulfate; phases: Liquid mixture 2, Liquid mixture 1
Fixed: Pressure, kPa = 101.325
Property: Mole fraction of propyl ethanoate (Liquid mixture 2); method: Chromatography
Temperature, K	Mole fraction of propyl ethanoate	uncertainty
298.15	0.05	0.02
318.15	0.028	0.02

System: propyl ethanoate + 1-butyl-3-methylimidazolium hydrogen sulfate; phases: Liquid mixture 1, Liquid mixture 2
Fixed: Pressure, kPa = 101.325
Property: Mole fraction of propyl ethanoate (Liquid mixture 1); method: Chromatography
Temperature, K	Mole fraction of propyl ethanoate	uncertainty
298.15	0.999	0.001
318.15	0.999	0.001

System: 1-methylethyl ethanoate + 1-butyl-3-methylimidazolium hydrogen sulfate; phases: Liquid mixture 2, Liquid mixture 1
Fixed: Pressure, kPa = 101.325
Property: Mole fraction of 1-methylethyl ethanoate (Liquid mixture 2); method: Chromatography
Temperature, K	Mole fraction of 1-methylethyl ethanoate	uncertainty
298.15	0.026	0.02
318.15	0.021	0.02

System: 1-methylethyl ethanoate + 1-butyl-3-methylimidazolium hydrogen sulfate; phases: Liquid mixture 1, Liquid mixture 2
Fixed: Pressure, kPa = 101.325
Property: Mole fraction of 1-methylethyl ethanoate (Liquid mixture 1); method: Chromatography
Temperature, K	Mole fraction of 1-methylethyl ethanoate	uncertainty
298.15	0.999	0.001
318.15	0.999	0.001
