Measured thermophysical data. Experimental High-Pressure Isochoric/Isoplethic Equilibrium for the Systems Propane + n-Pentane and Propane + Diethyl Ether
Source: J. Chem. Eng. Data, 2019, 10.1021/acs.jced.9b00249
Compound 1: propane, C3H8, InChI=1S/C3H8/c1-3-2/h3H2,1-2H3, purity 98%
Compound 2: pentane, C5H12, InChI=1S/C5H12/c1-3-5-4-2/h3-5H2,1-2H3, purity 95%
Compound 3: diethyl ether, C4H10O, InChI=1S/C4H10O/c1-3-5-4-2/h3-4H2,1-2H3, purity 99%
Compound 4: dimethyl ether, C2H6O, InChI=1S/C2H6O/c1-3-2/h1-2H3, purity 99%

System: propane; phases: Liquid, Gas
Property: Vapor or sublimation pressure, kPa (Liquid); method: Diaphragm manometer
Temperature, K	Vapor or sublimation pressure, kPa	uncertainty
305.9	1030	820
319.2	1270	820
326.8	2260	820
334.3	2350	820
349.3	3040	820
362.1	3920	830
367.9	4440	830

System: propane; phases: Gas
Property: Mass density, kg/m3 (Gas); method: ISOCHOR
Temperature, K	Pressure, kPa	Mass density, kg/m3	uncertainty
383.7	5980	292	46
397.4	7350	292	44
402.9	7940	292	43
434	12760	292	38

System: pentane; phases: Liquid, Gas
Property: Vapor or sublimation pressure, kPa (Liquid); method: Diaphragm manometer
Temperature, K	Vapor or sublimation pressure, kPa	uncertainty
406.9	1300	820

System: pentane; phases: Liquid
Property: Mass density, kg/m3 (Liquid); method: ISOCHOR
Temperature, K	Pressure, kPa	Mass density, kg/m3	uncertainty
417.1	3060	484	24
428	6070	484	24
436.6	8340	484	24
446.3	10730	484	24
453.2	12730	484	24

System: diethyl ether; phases: Liquid, Gas
Property: Vapor or sublimation pressure, kPa (Liquid); method: Diaphragm manometer
Temperature, K	Vapor or sublimation pressure, kPa	uncertainty
424.3	1790	820
434.3	2150	820
438.9	2390	820

System: diethyl ether; phases: Liquid
Property: Mass density, kg/m3 (Liquid); method: ISOCHOR
Temperature, K	Pressure, kPa	Mass density, kg/m3	uncertainty
442.3	3250	473	24
445.3	3750	473	24
447.8	4200	473	24
450.2	4750	473	24
453.9	5680	473	24
459.4	6890	473	24

System: dimethyl ether; phases: Gas
Property: Mass density, kg/m3 (Gas); method: ISOCHOR
Temperature, K	Pressure, kPa	Mass density, kg/m3	uncertainty
402.8	8580	451	52
411.6	10360	451	56
419.5	12150	451	60
425.4	13670	451	61
429.8	14600	451	67
432.6	15210	451	66
437.2	16200	451	63

System: dimethyl ether; phases: Liquid
Property: Mass density, kg/m3 (Liquid); method: ISOCHOR
Temperature, K	Pressure, kPa	Mass density, kg/m3	uncertainty
382.8	4580	451	24

System: propane + pentane; phases: Liquid
Property: Mass density, kg/m3 (Liquid); method: ISOCHOR
Mole fraction of propane	Temperature, K	Pressure, kPa	Mass density, kg/m3	uncertainty
0.512	320.4	12800	567	26
0.512	326.1	16230	567	26
0.512	332	19720	567	26
0.512	337.7	22920	567	26
0.512	341.2	24970	567	26
0.849	319.6	5320	507	26
0.849	324.9	8620	507	26
0.849	328.6	10330	507	26
0.849	331.8	12010	507	26
0.849	336.2	14280	507	26
0.849	340.8	16310	507	26
0.849	345.3	18250	507	26
0.849	349.2	20380	507	26
0.849	353.6	22340	507	26
0.849	357.2	24290	507	26

System: propane + pentane; phases: Fluid (supercritical or subcritical phases)
Property: Mass density, kg/m3 (Fluid (supercritical or subcritical phases)); method: ISOCHOR
Mole fraction of propane	Temperature, K	Pressure, kPa	Mass density, kg/m3	uncertainty
0.78	406.5	5640	311	147
0.78	416.5	6760	311	28
0.78	428.6	8280	311	28
0.78	437.3	9610	311	22
0.78	447.3	10720	311	22
0.78	456.4	12260	311	22
0.474	419.2	4730	384	26
0.474	428.9	6560	384	26
0.474	439.5	8280	384	24
0.474	449.2	10010	384	24
0.551	404.7	4010	401	36
0.551	410.5	4620	401	36
0.551	418.3	5640	401	110

System: propane + pentane; phases: Liquid, Gas
Property: Vapor or sublimation pressure, kPa (Liquid); method: Diaphragm manometer
Temperature, K	Mole fraction of propane	Vapor or sublimation pressure, kPa	uncertainty
397.7	0.78	4520	1080
409.3	0.474	3610	1120
394.8	0.551	3250	970

System: propane + pentane; phases: Liquid
Property: Mass density, kg/m3 (Liquid); method: ISOCHOR
Mole fraction of propane	Temperature, K	Pressure, kPa	Mass density, kg/m3	uncertainty
0.78	397.7	4520	311	1
0.474	409.3	3610	384	16
0.551	394.8	3250	401	15

System: propane + diethyl ether; phases: Fluid (supercritical or subcritical phases)
Property: Mass density, kg/m3 (Fluid (supercritical or subcritical phases)); method: ISOCHOR
Mole fraction of propane	Temperature, K	Pressure, kPa	Mass density, kg/m3	uncertainty
0.651	370.3	3910	474	24
0.651	379.4	6660	474	24
0.651	387.9	9300	474	24
0.651	397.1	12250	474	24
0.651	407.7	15710	474	24
0.651	419.2	19360	474	24
0.655	401.9	5030	401	24
0.655	405.6	5640	401	24
0.655	412	6760	401	24
0.655	422.6	8790	401	24
0.655	429.6	10210	401	24
0.655	437.5	11740	401	24
0.655	447.6	13670	401	24
0.655	455	15200	401	24
0.651	418.5	5130	311	22
0.651	429.1	6250	311	22
0.651	438.5	7270	311	22
0.651	449	8390	311	22
0.651	458.5	9500	311	22
0.651	467.4	10620	311	22
0.651	470	10930	311	22
0.748	359.2	4110	474	24
0.748	369.5	7470	474	24
0.748	379.4	10830	474	24
0.748	391.1	14590	474	24
0.748	401.1	17840	474	24
0.748	411.4	21600	474	24
0.743	382.7	4110	401	24
0.743	390.1	5340	401	24
0.743	401.1	7670	401	24
0.743	410.7	9710	401	24
0.743	419.7	11640	401	24
0.743	430.4	13770	401	24
0.743	437.5	15300	401	24
0.743	452.4	18650	401	24
0.742	407.5	5130	311	22
0.742	417.7	6250	311	22
0.742	429.1	7570	311	22
0.742	437.8	8590	311	22
0.742	447.3	9710	311	22
0.742	459	11220	311	22
0.742	466.1	12150	311	22

System: propane + diethyl ether; phases: Liquid, Gas
Property: Vapor or sublimation pressure, kPa (Liquid); method: Diaphragm manometer
Temperature, K	Mole fraction of propane	Vapor or sublimation pressure, kPa	uncertainty
362.8	0.651	2080	840
394.9	0.655	4010	950
409.2	0.651	4620	1110
351.8	0.748	2080	840
372	0.743	3100	850
399.9	0.742	4420	1010

System: propane + diethyl ether; phases: Liquid
Property: Mass density, kg/m3 (Liquid); method: ISOCHOR
Mole fraction of propane	Temperature, K	Pressure, kPa	Mass density, kg/m3	uncertainty
0.651	362.8	2080	474	319
0.655	394.9	4010	401	35
0.651	409.2	4620	311	39
0.748	351.8	2080	474	27
0.743	372	3100	401	28
0.742	399.9	4420	311	46
