Measured thermophysical data. Solubility of Methane and Carbon Dioxide in the Aqueous Phase of the Ternary (Methane + Carbon Dioxide + Water) Mixture: Experimental Measurements and Molecular Dynamics Simulations
Source: J. Chem. Eng. Data, 2018, 10.1021/acs.jced.7b00777
Compound 1: methane, CH4, InChI=1S/CH4/h1H4, purity 99.9467%
Compound 2: carbon dioxide, CO2, InChI=1S/CO2/c2-1-3, purity 99.99983%
Compound 3: water, H2O, InChI=1S/H2O/h1H2, purity 99.9%

System: methane + carbon dioxide + water; phases: Liquid, Gas
Property: Mole fraction of methane (Liquid); method: Chromatography
Property: Mole fraction of methane (Gas); method: Chromatography
Property: Mole fraction of carbon dioxide (Gas); method: Chromatography
Temperature, K	Pressure, kPa	Mole fraction of carbon dioxide	Mole fraction of methane	uncertainty	Mole fraction of methane	uncertainty	Mole fraction of carbon dioxide	uncertainty
323.2	10039	0.01824	0.000154	0.0001	0.0738	0.01	0.9262	
323.35	9993	0.00987	0.000822	0.0001	0.5331	0.0108	0.4669	
323.25	10020	0.01029	0.00088	0.0001	0.5327	0.0108	0.4673	
323.25	10016	0.01078	0.000907	0.0001	0.5237	0.0108	0.4763	
323.55	10020	0.01287	0.000725	0.0001	0.4123	0.0106	0.5877	
323.55	10010	0.01353	0.000721	0.0001	0.4153	0.0106	0.5847	
323.55	10000	0.01301	0.00067	0.0001	0.4122	0.0106	0.5878	
323.45	10027	0.01354	0.000713	0.0001	0.4051	0.0106	0.5949	
322.75	10025	0.0092	0.000882	0.0001	0.5765	0.0106	0.4235	
322.95	10011	0.00974	0.000972	0.0001	0.5739	0.0106	0.4261	
323.05	9985	0.00942	0.000897	0.0001	0.5718	0.0106	0.4282	
323.3	10021	0.01845	0.00018	0.0001	0.1121	0.01	0.8879	
322.95	9995	0.00998	0.000969	0.0001	0.5677	0.0107	0.4323	
323.15	10014	0.0061	0.00104	0.0001	0.71018	0.0103	0.2898	
323.15	10034	0.00681	0.00128	0.0001	0.707	0.01031	0.293	
323.15	10023	0.0066	0.001069	0.0001	0.70683	0.01031	0.2932	
323.35	10037	0.00672	0.00113	0.0001	0.70664	0.01031	0.2934	
322.95	10018	0.00375	0.001381	0.0001	0.82195	0.01011	0.1781	
322.85	10008	0.00372	0.001261	0.0001	0.81908	0.01012	0.1809	
322.95	10020	0.00384	0.001262	0.0001	0.80892	0.01013	0.1911	
322.95	10026	0.00394	0.001254	0.0001	0.81404	0.01012	0.186	
323.2	9975	0.0175	0.00019	0.0001	0.1126	0.01	0.8874	
323.15	10010	0.01901	0.000207	0.0001	0.0937	0.01	0.9063	
323.45	9990	0.0159	0.000368	0.0001	0.231	0.0102	0.769	
323.75	10041	0.01628	0.000383	0.0001	0.236	0.0102	0.764	
323.15	10025	0.01605	0.000385	0.0001	0.2443	0.0102	0.7557	
323.3	10015	0.01612	0.000388	0.0001	0.2506	0.0102	0.7494	
323.25	10034	0.00915	0.000775	0.0001	0.541	0.0107	0.459	

System: carbon dioxide + water; phases: Liquid, Gas
Property: Boiling temperature at pressure P, K (Liquid); method: Closed cell (Static) method
Pressure, kPa	Mole fraction of carbon dioxide	Boiling temperature at pressure P, K	uncertainty
10015	0.02086	322.94	0.22

System: methane + water; phases: Liquid, Gas
Property: Boiling temperature at pressure P, K (Liquid); method: Closed cell (Static) method
Mole fraction of methane	Pressure, kPa	Boiling temperature at pressure P, K	uncertainty
0.00149	10020	323	0.2
