Measured thermophysical data. Densities, Dielectric Permittivities, and Dew Points for (Argon + Carbon Dioxide) Mixtures Determined with a Microwave Re-entrant Cavity Resonator
Source: J. Chem. Eng. Data, 2017, 10.1021/acs.jced.6b01043
Compound 1: argon, Ar, InChI=1S/Ar, purity 99.99%
Compound 2: carbon dioxide, CO2, InChI=1S/CO2/c2-1-3, purity 99.99%

System: carbon dioxide + argon; phases: Gas, Liquid
Fixed: Mole fraction of argon = 0.0505
Property: Vapor or sublimation pressure, kPa (Gas); method: re-entrant cavity resonator
Temperature, K	Vapor or sublimation pressure, kPa	uncertainty
291.134	6007.7	465.5
288.008	5547.2	429.8
284.395	5056.5	391.7
280.935	4622.8	358.2
277.242	4194.6	325
277.145	4183.7	324.1
272.696	3711.9	287.6
268.485	3304.9	256.1
263.577	2874.9	222.7
257.544	2406	186.4

System: carbon dioxide + argon; phases: Gas
Fixed: Mole fraction of argon = 0.0505
Property: Relative permittivity at zero frequency (Gas); method: Reentrant cavity resonator
Temperature, K	Pressure, kPa	Relative permittivity at zero frequency	uncertainty
313.3	7027.1	1.09523	0.00059
313.303	6550	1.08408	0.00059
313.299	6028.4	1.07333	0.00058
313.296	5566.4	1.06488	0.00058
313.295	5083	1.05688	0.00057
313.299	4550.7	1.04884	0.00057
313.29	4089.6	1.04247	0.00056
313.262	3592.1	1.03607	0.00056
313.265	3052	1.02963	0.00056
313.262	2602.6	1.02461	0.00055
313.277	7083.6	1.0967	0.00059
283.244	1029.9	1.01008	0.00055
283.24	2006.1	1.0212	0.00055
283.234	4007.7	1.05273	0.00057
283.234	4493.9	1.06407	0.00057
283.24	3973.7	1.05203	0.00057
283.235	2998.2	1.03482	0.00056
283.235	2011.5	1.02127	0.00055
283.229	969.4	1.00945	0.00055
292.669	6086.3	1.10382	0.0006
289.873	5632	1.09119	0.00059
283.443	4710.8	1.06985	0.00058
279.734	4266.1	1.06129	0.00057
271.396	3365.6	1.04566	0.00056
266.153	2919.5	1.03887	0.00056
260.141	2446.9	1.03197	0.00056
255.103	2068.9	1.02661	0.00055
294.268	6419.2	1.11591	0.0006
279.728	4267.8	1.06132	0.00057

System: carbon dioxide + argon; phases: Gas
Fixed: Mole fraction of argon = 0.2491
Property: Relative permittivity at zero frequency (Gas); method: Reentrant cavity resonator
Temperature, K	Pressure, kPa	Relative permittivity at zero frequency	uncertainty
273.211	506.6	1.0045	0.0004
273.2	1001.6	1.0091	0.0004
273.199	2004.3	1.0195	0.0004
273.203	3008.7	1.0314	0.0004
273.204	4029	1.0459	0.0004
273.2	4487	1.0535	0.0004
273.202	454.8	1.004	0.0004
273.201	962.7	1.0088	0.0004
273.201	2014.8	1.0196	0.0004
283.245	1008.9	1.0088	0.0004
283.25	2012.2	1.0186	0.0004
283.24	2993.3	1.0294	0.0004
283.242	2992.8	1.0294	0.0004
283.24	3995.6	1.042	0.0004
283.242	4991.8	1.0568	0.0004
283.235	5983.5	1.0748	0.0004
283.233	6491.3	1.0858	0.0004
283.235	5987	1.0749	0.0004
283.239	4006.4	1.0421	0.0004
283.239	2002	1.0185	0.0004
283.232	492.8	1.0042	0.0004
293.268	1007.1	1.0085	0.0004
293.272	2005.7	1.0177	0.0004
293.273	3006.2	1.0279	0.0004
293.276	3999.6	1.0393	0.0004
293.271	4993.4	1.0523	0.0004
293.277	5994.6	1.0674	0.0004
293.272	6499.2	1.0761	0.0004
293.271	5847.6	1.0651	0.0004
293.273	4006.6	1.0394	0.0004
