Measured thermophysical data. Measurement and Correlation for Solubilities of Adipic Acid, Glutaric Acid and Succinic Acid in Acetic Acid + Cyclohexanone Mixtures
Source: J. Chem. Eng. Data, 2017, 10.1021/acs.jced.6b00800
Compound 1: 1,6-hexanedioic acid, C6H10O4, InChI=1S/C6H10O4/c7-5(8)3-1-2-4-6(9)10/h1-4H2,(H,7,8)(H,9,10), purity 99%
Compound 2: 1,5-pentanedioic acid, C5H8O4, InChI=1S/C5H8O4/c6-4(7)2-1-3-5(8)9/h1-3H2,(H,6,7)(H,8,9), purity 99%
Compound 3: butanedioic acid, C4H6O4, InChI=1S/C4H6O4/c5-3(6)1-2-4(7)8/h1-2H2,(H,5,6)(H,7,8), purity 99%
Compound 4: acetic acid, C2H4O2, InChI=1S/C2H4O2/c1-2(3)4/h1H3,(H,3,4), purity 99%
Compound 5: cyclohexanone, C6H10O, InChI=1S/C6H10O/c7-6-4-2-1-3-5-6/h1-5H2, purity 99.5%

System: acetic acid + cyclohexanone + 1,6-hexanedioic acid; phases: Liquid, Crystal
Fixed: Pressure, kPa = 100
Property: Mole fraction of 1,6-hexanedioic acid (Liquid); method: Titration method
Solvent: Mass fraction of cyclohexanone	Temperature, K	Mole fraction of 1,6-hexanedioic acid	uncertainty
0.9	301.85	0.0202	0.004
0.9	305.35	0.0239	0.0048
0.9	308.85	0.0276	0.0055
0.9	313.35	0.0328	0.0066
0.9	317.45	0.0385	0.0077
0.9	321.85	0.0465	0.0093
0.9	324.75	0.0524	0.0105
0.9	327.65	0.0579	0.0116
0.9	330.05	0.0635	0.0127
0.9	333.55	0.0723	0.0145
0.7	303.95	0.0239	0.0048
0.7	307.05	0.0273	0.0055
0.7	311.55	0.0326	0.0065
0.7	315.35	0.038	0.0076
0.7	318.85	0.044	0.0088
0.7	323.45	0.052	0.0104
0.7	327.55	0.0597	0.0119
0.7	330.15	0.0666	0.0133
0.7	333.55	0.0754	0.0151
0.7	336.95	0.0856	0.0171
0.5	303.25	0.0232	0.0046
0.5	305.15	0.0254	0.0051
0.5	308.35	0.0291	0.0058
0.5	311.05	0.0321	0.0064
0.5	314.85	0.0372	0.0074
0.5	319.85	0.0454	0.0091
0.5	324.15	0.0533	0.0107
0.5	327.25	0.0601	0.012
0.5	331.85	0.0701	0.014
0.5	336.75	0.0842	0.0168
0.3	302.75	0.0233	0.0047
0.3	305.85	0.0262	0.0052
0.3	308.85	0.0291	0.0058
0.3	311.45	0.0321	0.0064
0.3	313.95	0.0356	0.0071
0.3	319.35	0.044	0.0088
0.3	324.45	0.0537	0.0107
0.3	329.05	0.0625	0.0125
0.3	333.15	0.0729	0.0146
0.3	336.25	0.082	0.0164
0.1	301.55	0.022	0.0044
0.1	304.05	0.0243	0.0049
0.1	307.15	0.0272	0.0054
0.1	310.25	0.0306	0.0061
0.1	314.25	0.0357	0.0071
0.1	317.45	0.0405	0.0081
0.1	320.35	0.0455	0.0091
0.1	324.75	0.0533	0.0107
0.1	328.25	0.0606	0.0121
0.1	332.65	0.0704	0.0141
0	301.85	0.023	0.0046
0	305.25	0.0265	0.0053
0	308.85	0.03	0.006
0	311.45	0.0331	0.0066
0	314.65	0.0379	0.0076
0	318.15	0.0426	0.0085
0	321.05	0.0479	0.0096
0	325.65	0.0563	0.0113
0	330.55	0.0663	0.0133
0	334.05	0.076	0.0152

System: acetic acid + cyclohexanone + 1,5-pentanedioic acid; phases: Liquid, Crystal
Fixed: Pressure, kPa = 100
Property: Mole fraction of 1,5-pentanedioic acid (Liquid); method: Titration method
Solvent: Mole fraction of cyclohexanone	Temperature, K	Mole fraction of 1,5-pentanedioic acid	uncertainty
1	303.55	0.2	0.04
1	306.25	0.2213	0.0443
1	309.35	0.245	0.049
1	311.55	0.2611	0.0522
1	314.35	0.2801	0.056
1	317.95	0.3067	0.0613
1	320.65	0.3278	0.0656
1	325.35	0.3678	0.0736
1	329.15	0.4143	0.0829
1	334.05	0.4692	0.0939
0.9	303.55	0.2099	0.042
0.9	306.65	0.2347	0.0469
0.9	309.75	0.2572	0.0514
0.9	312.65	0.2797	0.0559
0.9	315.55	0.3041	0.0608
0.9	318.25	0.3238	0.0648
0.9	321.15	0.3498	0.07
0.9	324.75	0.3799	0.076
0.9	328.35	0.4247	0.085
0.9	332.25	0.4647	0.093
0.7	303.25	0.2051	0.041
0.7	306.75	0.2327	0.0465
0.7	309.45	0.2508	0.0502
0.7	312.65	0.2756	0.0551
0.7	315.85	0.3011	0.0602
0.7	318.45	0.3216	0.0643
0.7	322.25	0.3517	0.0704
0.7	325.95	0.3941	0.0788
0.7	329.15	0.427	0.0854
0.7	333.75	0.4739	0.0948
0.5	302.95	0.2007	0.0401
0.5	306.65	0.2299	0.046
0.5	309.95	0.2532	0.0506
0.5	312.85	0.2773	0.0555
0.5	315.95	0.3012	0.0602
0.5	319.25	0.3272	0.0654
0.5	322.85	0.3552	0.0711
0.5	325.95	0.3911	0.0782
0.5	329.15	0.4208	0.0842
0.5	334.25	0.4721	0.0944
0.3	303.95	0.2085	0.0417
0.3	308.85	0.2438	0.0488
0.3	312.65	0.2736	0.0547
0.3	315.25	0.2933	0.0587
0.3	317.75	0.3118	0.0624
0.3	320.65	0.3347	0.0669
0.3	323.15	0.3553	0.0711
0.3	326.15	0.3884	0.0777
0.3	328.75	0.4133	0.0827
0.3	332.65	0.4505	0.0901
0.1	302.55	0.1965	0.0393
0.1	305.05	0.2168	0.0434
0.1	308.15	0.2395	0.0479
0.1	310.85	0.2588	0.0518
0.1	314.25	0.2826	0.0565
0.1	316.75	0.3011	0.0602
0.1	319.55	0.3242	0.0648
0.1	322.85	0.349	0.0698
0.1	326.95	0.3899	0.078
0.1	330.95	0.4286	0.0857
0	303.45	0.2107	0.0421
0	307.55	0.2413	0.0483
0	312.85	0.2761	0.0552
0	317.35	0.3098	0.062
0	321.15	0.3404	0.0681
0	323.15	0.3555	0.0711
0	325.75	0.3806	0.0761
0	327.45	0.4005	0.0801
0	330.65	0.4299	0.086
0	334.15	0.464	0.0928

System: acetic acid + cyclohexanone + butanedioic acid; phases: Liquid, Crystal
Fixed: Pressure, kPa = 100
Property: Mole fraction of butanedioic acid (Liquid); method: Titration method
Solvent: Mole fraction of cyclohexanone	Temperature, K	Mole fraction of butanedioic acid	uncertainty
1	298.55	0.012	0.0024
1	303.95	0.0144	0.0029
1	309.75	0.0174	0.0035
1	316.05	0.0215	0.0043
1	319.35	0.024	0.0048
1	323.85	0.0279	0.0056
1	328.55	0.0326	0.0065
1	333.75	0.0377	0.0075
1	337.15	0.0422	0.0084
1	340.85	0.0469	0.0094
0.9	300.25	0.015	0.003
0.9	303.75	0.0167	0.0033
0.9	306.35	0.0185	0.0037
0.9	309.95	0.0208	0.0042
0.9	314.45	0.0238	0.0048
0.9	319.05	0.0278	0.0056
0.9	322.95	0.0312	0.0062
0.9	328.85	0.0375	0.0075
0.9	333.75	0.0436	0.0087
0.9	337.35	0.0487	0.0097
0.7	302.45	0.016	0.0032
0.7	305.65	0.0177	0.0035
0.7	308.55	0.0195	0.0039
0.7	312.75	0.0223	0.0045
0.7	316.35	0.0253	0.0051
0.7	320.05	0.0283	0.0057
0.7	324.55	0.0329	0.0066
0.7	327.75	0.0361	0.0072
0.7	331.55	0.0406	0.0081
0.7	334.65	0.0447	0.0089
0.5	305.75	0.0177	0.0035
0.5	308.45	0.0193	0.0039
0.5	311.65	0.0213	0.0043
0.5	315.25	0.024	0.0048
0.5	318.55	0.0267	0.0053
0.5	322.25	0.03	0.006
0.5	324.35	0.0319	0.0064
0.5	327.65	0.0353	0.0071
0.5	330.75	0.039	0.0078
0.5	334.55	0.0435	0.0087
0.3	300.05	0.0146	0.0029
0.3	303.65	0.016	0.0032
0.3	306.65	0.0176	0.0035
0.3	309.65	0.0194	0.0039
0.3	314.35	0.0225	0.0045
0.3	319.45	0.0265	0.0053
0.3	323.55	0.0302	0.006
0.3	328.95	0.0356	0.0071
0.3	332.25	0.0391	0.0078
0.3	335.65	0.0431	0.0086
0.1	300.15	0.0143	0.0029
0.1	302.65	0.0152	0.003
0.1	306.35	0.017	0.0034
0.1	310.45	0.0194	0.0039
0.1	314.45	0.0217	0.0043
0.1	317.95	0.0243	0.0049
0.1	321.85	0.0275	0.0055
0.1	325.95	0.0313	0.0063
0.1	330.65	0.0359	0.0072
0.1	336.55	0.0425	0.0085
0	301.35	0.015	0.003
0	305.65	0.0167	0.0033
0	309.65	0.019	0.0038
0	313.75	0.0214	0.0043
0	317.15	0.0239	0.0048
0	321.15	0.027	0.0054
0	324.95	0.0301	0.006
0	328.95	0.0338	0.0068
0	332.45	0.0375	0.0075
0	335.55	0.041	0.0082

System: acetic acid + 1,6-hexanedioic acid; phases: Liquid, Crystal
Fixed: Pressure, kPa = 100
Property: Mole fraction of 1,6-hexanedioic acid (Liquid); method: Titration method
Temperature, K	Mole fraction of 1,6-hexanedioic acid	uncertainty
301.85	0.023	0.0046
305.25	0.0265	0.0053
308.85	0.03	0.006
311.45	0.0331	0.0066
314.65	0.0379	0.0076
318.15	0.0426	0.0085
321.05	0.0479	0.0096
325.65	0.0563	0.0113
330.55	0.0663	0.0133
334.05	0.076	0.0152

System: cyclohexanone + 1,5-pentanedioic acid; phases: Liquid, Crystal
Fixed: Pressure, kPa = 100
Property: Mole fraction of 1,5-pentanedioic acid (Liquid); method: Titration method
Temperature, K	Mole fraction of 1,5-pentanedioic acid	uncertainty
303.55	0.2	0.04
306.25	0.2213	0.0443
309.35	0.245	0.049
311.55	0.2611	0.0522
314.35	0.2801	0.056
317.95	0.3067	0.0613
320.65	0.3278	0.0656
325.35	0.3678	0.0736
329.15	0.4143	0.0829
334.05	0.4692	0.0939

System: acetic acid + 1,5-pentanedioic acid; phases: Liquid, Crystal
Fixed: Pressure, kPa = 100
Property: Mole fraction of 1,5-pentanedioic acid (Liquid); method: Titration method
Temperature, K	Mole fraction of 1,5-pentanedioic acid	uncertainty
303.45	0.2107	0.0421
307.55	0.2413	0.0483
312.85	0.2761	0.0552
317.35	0.3098	0.062
321.15	0.3404	0.0681
323.15	0.3555	0.0711
325.75	0.3806	0.0761
327.45	0.4005	0.0801
330.65	0.4299	0.086
334.15	0.464	0.0928

System: cyclohexanone + butanedioic acid; phases: Liquid, Crystal
Fixed: Pressure, kPa = 100
Property: Mole fraction of butanedioic acid (Liquid); method: Titration method
Temperature, K	Mole fraction of butanedioic acid	uncertainty
298.55	0.012	0.0024
303.95	0.0144	0.0029
309.75	0.0174	0.0035
316.05	0.0215	0.0043
319.35	0.024	0.0048
323.85	0.0279	0.0056
328.55	0.0326	0.0065
333.75	0.0377	0.0075
337.15	0.0422	0.0084
340.85	0.0469	0.0094

System: acetic acid + butanedioic acid; phases: Liquid, Crystal
Fixed: Pressure, kPa = 100
Property: Mole fraction of butanedioic acid (Liquid); method: Titration method
Temperature, K	Mole fraction of butanedioic acid	uncertainty
301.35	0.015	0.003
305.65	0.0167	0.0033
309.65	0.019	0.0038
313.75	0.0214	0.0043
317.15	0.0239	0.0048
321.15	0.027	0.0054
324.95	0.0301	0.006
328.95	0.0338	0.0068
332.45	0.0375	0.0075
335.55	0.041	0.0082
