Measured thermophysical data. Solubility and Saturation Apparent Volume of Propranolol Hydrochloride in Some Binary Aqueous Cosolvent Mixtures at 298.15 K
Source: J. Chem. Eng. Data, 2015, 10.1021/acs.jced.5b00167
Compound 1: propranolol hydrochloride, C16H22ClNO2, InChI=1S/C16H21NO2.ClH/c1-12(2)17-10-14(18)11-19-16-9-5-7-13-6-3-4-8-15(13)16;/h3-9,12,14,17-18H,10-11H2,1-2H3;1H, purity 99%
Compound 2: 1,4-dioxane, C4H8O2, InChI=1S/C4H8O2/c1-2-6-4-3-5-1/h1-4H2, purity 99.5%
Compound 3: acetonitrile, C2H3N, InChI=1S/C2H3N/c1-2-3/h1H3, purity 99.7%
Compound 4: 1,2-propanediol, C3H8O2, InChI=1S/C3H8O2/c1-3(5)2-4/h3-5H,2H2,1H3, purity 99.5%
Compound 5: methanol, CH4O, InChI=1S/CH4O/c1-2/h2H,1H3, purity 99.7%
Compound 6: water, H2O, InChI=1S/H2O/h1H2

System: 1,4-dioxane + propranolol hydrochloride + water; phases: Liquid, Crystal
Fixed: Pressure, kPa = 73.9
Fixed: Temperature, K = 298.15
Property: Mole fraction of propranolol hydrochloride (Liquid); method: UV spectroscopy
Solvent: Mass fraction of 1,4-dioxane	Mole fraction of propranolol hydrochloride	uncertainty
0	0.02856	0.0008
0.1	0.0314	0.00088
0.2	0.03128	0.00088
0.3	0.02882	0.00081
0.4	0.02766	0.00078
0.5	0.02432	0.00068
0.6	0.02104	0.00059
0.7	0.01701	0.00048
0.8	0.01218	0.00034
0.9	0.006037	0.000173
1	3.628e-05	1.02e-06

System: 1,4-dioxane + propranolol hydrochloride + water; phases: Liquid, Crystal
Fixed: Temperature, K = 298.15
Fixed: Pressure, kPa = 73.9
Property: Mass density, kg/m3 (Liquid); method: Vibrating tube method
Solvent: Mass fraction of 1,4-dioxane	Mass density, kg/m3	uncertainty
0	1014.2	1
0.1	1031.7	1
0.2	1045	1
0.3	1057.9	1
0.4	1067.3	1
0.5	1074.2	1
0.6	1076.7	1
0.7	1074.6	1
0.8	1067.4	1
0.9	1048.5	1
1	1028.4	1

System: acetonitrile + propranolol hydrochloride + water; phases: Liquid, Crystal
Fixed: Pressure, kPa = 73.9
Fixed: Temperature, K = 298.15
Property: Mole fraction of propranolol hydrochloride (Liquid); method: UV spectroscopy
Solvent: Mass fraction of acetonitrile	Mole fraction of propranolol hydrochloride	uncertainty
0	0.01351	0.00038
0.1	0.02542	0.00072
0.2	0.03198	0.0009
0.3	0.03226	0.00091
0.4	0.02995	0.00084
0.5	0.02694	0.00076
0.6	0.02137	0.0006
0.7	0.0167	0.00047
0.8	0.01052	0.0003
0.9	0.004334	0.000126
1	0.0001111	3.1e-06

System: acetonitrile + propranolol hydrochloride + water; phases: Liquid, Crystal
Fixed: Pressure, kPa = 73.9
Fixed: Temperature, K = 298.15
Property: Mass density, kg/m3 (Liquid); method: Vibrating tube method
Solvent: Mass fraction of acetonitrile	Mass density, kg/m3	uncertainty
0	1014.2	1
0.1	1018.4	1
0.2	1025.1	1
0.3	1022.5	1
0.4	1014.3	1
0.5	1001.5	1
0.6	975.5	1
0.7	940.6	1
0.8	889	1.1
0.9	829.1	1.1
1	777.4	1

System: 1,2-propanediol + propranolol hydrochloride + water; phases: Liquid, Crystal
Fixed: Pressure, kPa = 73.9
Fixed: Temperature, K = 298.15
Property: Mole fraction of propranolol hydrochloride (Liquid); method: UV spectroscopy
Solvent: Mass fraction of 1,2-propanediol	Mole fraction of propranolol hydrochloride	uncertainty
0	0.02476	0.0007
0.1	0.01593	0.00045
0.2	0.01227	0.00034
0.3	0.01048	0.00029
0.4	0.0102	0.00029
0.5	0.01001	0.00028
0.6	0.009618	0.00027
0.7	0.008693	0.000244
0.8	0.007421	0.000209
0.9	0.006257	0.000176
1	0.004416	0.000124

System: 1,2-propanediol + propranolol hydrochloride + water; phases: Liquid, Crystal
Fixed: Pressure, kPa = 73.9
Fixed: Temperature, K = 298.15
Property: Mass density, kg/m3 (Liquid); method: Vibrating tube method
Solvent: Mass fraction of 1,2-propanediol	Mass density, kg/m3	uncertainty
0	1014.2	1
0.1	1019.2	1
0.2	1026	1
0.3	1033.5	1
0.4	1040.7	1
0.5	1047.4	1
0.6	1053.2	1
0.7	1055.4	1
0.8	1054.4	1
0.9	1051.4	1
1	1044.4	1

System: methanol + propranolol hydrochloride + water; phases: Liquid, Crystal
Fixed: Pressure, kPa = 73.9
Fixed: Temperature, K = 298.15
Property: Mole fraction of propranolol hydrochloride (Liquid); method: UV spectroscopy
Solvent: Mass fraction of methanol	Mole fraction of propranolol hydrochloride	uncertainty
0	0.01058	0.0003
0.1	0.01029	0.00029
0.2	0.01156	0.00032
0.3	0.01417	0.0004
0.4	0.01659	0.00047
0.5	0.01809	0.00051
0.6	0.0177	0.0005
0.7	0.01724	0.00048
0.8	0.01523	0.00043
0.9	0.01363	0.00038
1	0.01112	0.00031

System: methanol + propranolol hydrochloride + water; phases: Liquid, Crystal
Fixed: Temperature, K = 298.15
Fixed: Pressure, kPa = 73.9
Property: Mass density, kg/m3 (Liquid); method: Vibrating tube method
Solvent: Mass fraction of methanol	Mass density, kg/m3	uncertainty
0	1014.2	1
0.1	1001.5	1
0.2	992.5	1
0.3	986.5	1
0.4	983.4	1
0.5	979.6	1
0.6	972.1	1
0.7	963.5	1
0.8	949.5	1
0.9	916.6	1
1	879.8	1

System: propranolol hydrochloride + water; phases: Liquid, Crystal
Property: Mass density, kg/m3 (Liquid); method: Vibrating tube method
Pressure, kPa	Temperature, K	Mass density, kg/m3	uncertainty
73.9	298.15	1014.2	1

System: 1,4-dioxane + propranolol hydrochloride; phases: Liquid, Crystal
Property: Mass density, kg/m3 (Liquid); method: Vibrating tube method
Pressure, kPa	Temperature, K	Mass density, kg/m3	uncertainty
73.9	298.15	1028.4	1

System: acetonitrile + propranolol hydrochloride; phases: Liquid, Crystal
Property: Mass density, kg/m3 (Liquid); method: Vibrating tube method
Temperature, K	Pressure, kPa	Mass density, kg/m3	uncertainty
298.15	73.9	777.4	1

System: 1,2-propanediol + propranolol hydrochloride; phases: Liquid, Crystal
Property: Mass density, kg/m3 (Liquid); method: Vibrating tube method
Temperature, K	Pressure, kPa	Mass density, kg/m3	uncertainty
298.15	73.9	1044.4	1

System: methanol + propranolol hydrochloride; phases: Liquid, Crystal
Property: Mass density, kg/m3 (Liquid); method: Vibrating tube method
Pressure, kPa	Temperature, K	Mass density, kg/m3	uncertainty
73.9	298.15	879.8	1
