Measured thermophysical data. Solubility of Carbon Dioxide in Poly(oxymethylene) Dimethyl Ethers
Source: J. Chem. Eng. Data, 2017, 10.1021/acs.jced.7b00718
Compound 1: carbon dioxide, CO2, InChI=1S/CO2/c2-1-3, purity 99.99%
Compound 2: 2,4,6-trioxaheptane, C4H10O3, InChI=1S/C4H10O3/c1-5-3-7-4-6-2/h3-4H2,1-2H3, purity 98.6%
Compound 3: 2,4,6,8-tetraoxanonane, C5H12O4, InChI=1S/C5H12O4/c1-6-3-8-5-9-4-7-2/h3-5H2,1-2H3, purity 98.5%
Compound 4: 2,4,6,8,10-pentaoxaundecane, C6H14O5, InChI=1S/C6H14O5/c1-7-3-9-5-11-6-10-4-8-2/h3-6H2,1-2H3, purity 98.6%

System: carbon dioxide + 2,4,6-trioxaheptane; phases: Liquid, Gas
Property: Mole fraction of carbon dioxide (Liquid); method: Titration method
Temperature, K	Pressure, kPa	Mole fraction of carbon dioxide	uncertainty
313.15	607	0.118	0.0083
313.15	888	0.1683	0.0086
313.15	1209	0.2221	0.009
313.15	1584	0.2842	0.0076
313.15	2081	0.3528	0.0114
313.15	2076	0.3528	0.0072
353.15	269	0.0243	0.0048
353.15	635	0.0645	0.0048
353.15	1037	0.1062	0.005
353.15	1432	0.1473	0.006
353.15	1456	0.1505	0.006
353.15	1829	0.1873	0.0076
353.15	2344	0.2354	0.0048
353.15	2853	0.2797	0.0057

System: carbon dioxide + 2,4,6,8-tetraoxanonane; phases: Liquid, Gas
Property: Mole fraction of carbon dioxide (Liquid); method: Titration method
Temperature, K	Pressure, kPa	Mole fraction of carbon dioxide	uncertainty
313.15	411	0.0853	0.0074
313.15	695	0.1379	0.0084
313.15	1014	0.1947	0.0079
313.15	1371	0.2565	0.008
313.15	1818	0.3247	0.0065
313.15	2323	0.3956	0.0065
313.15	3076	0.4898	0.0086
353.15	254	0.0288	0.0045
353.15	682	0.077	0.008
353.15	686	0.0778	0.008
353.15	1102	0.1218	0.0045
353.15	1583	0.172	0.0044
353.15	2082	0.2185	0.0046
353.15	2599	0.2639	0.0055
353.15	3208	0.3161	0.0074
353.15	3838	0.3631	0.0042

System: carbon dioxide + 2,4,6,8,10-pentaoxaundecane; phases: Liquid, Gas
Property: Mole fraction of carbon dioxide (Liquid); method: Titration method
Temperature, K	Pressure, kPa	Mole fraction of carbon dioxide	uncertainty
313.15	452	0.0965	0.0078
313.15	766	0.1573	0.0087
313.15	1110	0.2201	0.007
313.15	1507	0.2835	0.0065
313.15	1978	0.355	0.0083
313.15	2555	0.4313	0.0063
313.15	3424	0.5365	0.0334
353.15	278	0.0331	0.0046
353.15	745	0.0872	0.0045
353.15	1238	0.1403	0.0043
353.15	1758	0.1915	0.0043
353.15	2325	0.2462	0.0042
353.15	2905	0.2949	0.0042
353.15	3559	0.3465	0.006
353.15	4241	0.4088	0.0325
