Measured thermophysical data. Liquid Liquid Equilibrium for the Ternary System Isopropyl Acetate + Ethanol + Water at (293.15, 313.15, and 333.15) K
Source: J. Chem. Eng. Data, 2016, 10.1021/acs.jced.6b00428
Compound 1: 1-methylethyl ethanoate, C5H10O2, InChI=1S/C5H10O2/c1-4(2)7-5(3)6/h4H,1-3H3, purity 99%
Compound 2: ethanol, C2H6O, InChI=1S/C2H6O/c1-2-3/h3H,2H2,1H3, purity 99%
Compound 3: water, H2O, InChI=1S/H2O/h1H2, purity 99.8%

System: 1-methylethyl ethanoate; phases: Liquid
Property: Refractive index (Na D-line) (Liquid); method: Standard Abbe refractometry
Temperature, K	Pressure, kPa	Refractive index (Na D-line)	uncertainty
293.15	101.325	1.3771	0.0024

System: ethanol; phases: Liquid
Property: Refractive index (Na D-line) (Liquid); method: Standard Abbe refractometry
Temperature, K	Pressure, kPa	Refractive index (Na D-line)	uncertainty
298.15	101.325	1.3616	0.0024

System: water; phases: Liquid
Property: Refractive index (Na D-line) (Liquid); method: Standard Abbe refractometry
Temperature, K	Pressure, kPa	Refractive index (Na D-line)	uncertainty
298.15	101.325	1.3328	0.0024

System: ethanol + 1-methylethyl ethanoate + water; phases: Liquid mixture 2, Liquid mixture 1
Fixed: Pressure, kPa = 100
Property: Mole fraction of 1-methylethyl ethanoate (Liquid mixture 2); method: Chromatography
Property: Mole fraction of ethanol (Liquid mixture 1); method: Chromatography
Property: Mole fraction of 1-methylethyl ethanoate (Liquid mixture 1); method: Chromatography
Temperature, K	Mole fraction of ethanol	Mole fraction of 1-methylethyl ethanoate	uncertainty	Mole fraction of ethanol	uncertainty	Mole fraction of 1-methylethyl ethanoate	uncertainty
293.15	0.0211	0.0038	0.002	0.0326	0.0025	0.8572	
293.15	0.1201	0.0153	0.0021	0.2709	0.0028	0.3693	
313.15	0.0376	0.0028	0.002	0.0781	0.0025	0.7934	
313.15	0.054	0.0022	0.002	0.1198	0.0024	0.7334	
313.15	0.0719	0.0056	0.002	0.1592	0.0025	0.6268	
313.15	0.0799	0.0057	0.0021	0.2036	0.0026	0.545	
313.15	0.0874	0.0081	0.0021	0.22	0.0026	0.48	
313.15	0.0915	0.0091	0.002	0.2312	0.0027	0.4488	
313.15	0.0959	0.0087	0.002	0.2416	0.0028	0.4263	
313.15	0.102	0.0108	0.0021	0.25	0.0028	0.4	
313.15	0.1067	0.0137	0.002	0.2638	0.0028	0.3663	
293.15	0.0381	0.0036	0.002	0.0582	0.0024	0.821	
313.15	0.1172	0.0134	0.002	0.2636	0.0027	0.3146	
333.15	0.0579	0.0007	0.0007	0.1517	0.0024	0.6121	
333.15	0.0734	0.0018	0.0018	0.1916	0.0025	0.5171	
333.15	0.0871	0.0057	0.0021	0.2133	0.0026	0.4423	
333.15	0.0924	0.0067	0.002	0.2225	0.0026	0.4083	
333.15	0.0979	0.0078	0.002	0.2308	0.0026	0.3756	
333.15	0.1025	0.0089	0.0021	0.238	0.0026	0.3412	
333.15	0.1081	0.0103	0.0021	0.2424	0.0026	0.3118	
333.15	0.1138	0.0119	0.0021	0.2456	0.0027	0.2857	
333.15	0.1242	0.0152	0.0021	0.2475	0.0027	0.2372	
293.15	0.0597	0.0041	0.002	0.106	0.0024	0.7372	
293.15	0.0775	0.005	0.002	0.15	0.0025	0.65	
293.15	0.0866	0.0068	0.002	0.1789	0.0026	0.6032	
293.15	0.0959	0.0073	0.002	0.2187	0.0027	0.5229	
293.15	0.097	0.008	0.002	0.2222	0.0027	0.4891	
293.15	0.1068	0.0085	0.0021	0.2445	0.0028	0.4586	
293.15	0.1098	0.012	0.0022	0.2518	0.0027	0.4273	
