Measured thermophysical data. Densities and Speeds of Sound of Antibiotic Drug Chloramphenicol with l-Leucine and Glycyl-l-leucine in Aqueous Medium at T = (288.15 318.15) K: A Volumetric, Ultrasonic, and UV Absorption Study
Source: J. Chem. Eng. Data, 2016, 10.1021/acs.jced.6b00168
Compound 1: L-leucine, C6H13NO2, InChI=1S/C6H13NO2/c1-4(2)3-5(7)6(8)9/h4-5H,3,7H2,1-2H3,(H,8,9)/t5-/m0/s1, purity 99%
Compound 2: glycyl-L-leucine, C8H16N2O3, InChI=1S/C8H16N2O3/c1-5(2)3-6(8(12)13)10-7(11)4-9/h5-6H,3-4,9H2,1-2H3,(H,10,11)(H,12,13)/t6-/m0/s1, purity 98%
Compound 3: [R-(R*,R*)]-2,2-dichloro-N-[2-hydroxy-1-(hydroxymethyl)-2-(4-nitrophenyl)ethyl]ethanamide, C11H12Cl2N2O5, InChI=1S/C11H12Cl2N2O5/c12-10(13)11(18)14-8(5-16)9(17)6-1-3-7(4-2-6)15(19)20/h1-4,8-10,16-17H,5H2,(H,14,18)/t8-,9-/m1/s1, purity 97%
Compound 4: water, H2O, InChI=1S/H2O/h1H2, purity 99%

System: water; phases: Liquid
Fixed: Pressure, kPa = 100
Property: Mass density, kg/m3 (Liquid); method: Vibrating tube method
Temperature, K	Mass density, kg/m3	uncertainty
288.15	999.119	0.231
298.15	997.052	0.231
308.15	994.047	0.231
318.15	990.216	0.231

System: water; phases: Liquid
Fixed: Pressure, kPa = 100
Fixed: Frequency, MHz = 3
Property: Speed of sound, m/s (Liquid); method: Sing-around technique in a fixed-path interferometer
Temperature, K	Speed of sound, m/s	uncertainty
288.15	1466.73	1.56
298.15	1495.87	1.57
308.15	1519.5	1.57
318.15	1536.12	1.57

System: [R-(R*,R*)]-2,2-dichloro-N-[2-hydroxy-1-(hydroxymethyl)-2-(4-nitrophenyl)ethyl]ethanamide + L-leucine + water; phases: Liquid
Fixed: Pressure, kPa = 100
Property: Mass density, kg/m3 (Liquid); method: Vibrating tube method
Solvent: Molality, mol/kg of [R-(R*,R*)]-2,2-dichloro-N-[2-hydroxy-1-(hydroxymethyl)-2-(4-nitrophenyl)ethyl]ethanamide	Temperature, K	Molality, mol/kg of L-leucine	Mass density, kg/m3	uncertainty
0	288.15	0	999.119	0.587
0	288.15	0.00991	999.363	0.587
0	288.15	0.02042	999.615	0.587
0	288.15	0.04026	1000.092	0.587
0	288.15	0.06014	1000.598	0.588
0	288.15	0.0802	1001.067	0.589
0	288.15	0.10017	1001.567	0.59
0	288.15	0.12459	1002.135	0.591
0	288.15	0.15022	1002.712	0.591
0	298.15	0	997.052	0.586
0	298.15	0.00991	997.29	0.586
0	298.15	0.02042	997.535	0.586
0	298.15	0.04026	998.005	0.586
0	298.15	0.06014	998.476	0.587
0	298.15	0.0802	998.929	0.587
0	298.15	0.10017	999.402	0.587
0	298.15	0.12459	999.979	0.588
0	298.15	0.15022	1000.556	0.589
0	308.15	0	994.047	0.584
0	308.15	0.00991	994.279	0.584
0	308.15	0.02042	994.535	0.584
0	308.15	0.04026	994.994	0.584
0	308.15	0.06014	995.441	0.584
0	308.15	0.0802	995.893	0.585
0	308.15	0.10017	996.345	0.585
0	308.15	0.12459	996.896	0.585
0	308.15	0.15022	997.446	0.586
0	318.15	0	990.216	0.58
0	318.15	0.00991	990.433	0.581
0	318.15	0.02042	990.663	0.581
0	318.15	0.04026	991.098	0.581
0	318.15	0.06014	991.533	0.581
0	318.15	0.0802	991.972	0.582
0	318.15	0.10017	992.41	0.582
0	318.15	0.12459	992.945	0.582
0	318.15	0.15022	993.506	0.583
0.0005	288.15	0	999.273	0.587
0.0005	288.15	0.01007	999.458	0.587
0.0005	288.15	0.01971	999.681	0.587
0.0005	288.15	0.04149	1000.197	0.588
0.0005	288.15	0.06003	1000.682	0.588
0.0005	288.15	0.08062	1001.143	0.589
0.0005	288.15	0.09922	1001.616	0.59
0.0005	288.15	0.12447	1002.192	0.591
0.0005	288.15	0.14973	1002.772	0.592
0.0005	298.15	0	997.209	0.585
0.0005	298.15	0.01007	997.403	0.586
0.0005	298.15	0.01971	997.61	0.586
0.0005	298.15	0.04149	998.119	0.586
0.0005	298.15	0.06003	998.567	0.586
0.0005	298.15	0.08062	999.032	0.587
0.0005	298.15	0.09922	999.472	0.587
0.0005	298.15	0.12447	1000.066	0.587
0.0005	298.15	0.14973	1000.682	0.588
0.0005	308.15	0	994.205	0.583
0.0005	308.15	0.01007	994.379	0.583
0.0005	308.15	0.01971	994.602	0.584
0.0005	308.15	0.04149	995.101	0.584
0.0005	308.15	0.06003	995.524	0.584
0.0005	308.15	0.08062	995.973	0.584
0.0005	308.15	0.09922	996.385	0.585
0.0005	308.15	0.12447	996.968	0.585
0.0005	308.15	0.14973	997.546	0.586
0.0005	318.15	0	990.372	0.581
0.0005	318.15	0.01007	990.551	0.581
0.0005	318.15	0.01971	990.741	0.581
0.0005	318.15	0.04149	991.218	0.581
0.0005	318.15	0.06003	991.62	0.581
0.0005	318.15	0.08062	992.08	0.582
0.0005	318.15	0.09922	992.473	0.582
0.0005	318.15	0.12447	993.057	0.582
0.0005	318.15	0.14973	993.648	0.583
0.001	288.15	0	999.429	0.587
0.001	288.15	0.01017	999.612	0.587
0.001	288.15	0.02021	999.833	0.587
0.001	288.15	0.03985	1000.284	0.588
0.001	288.15	0.05986	1000.773	0.589
0.001	288.15	0.08035	1001.283	0.589
0.001	288.15	0.09955	1001.735	0.59
0.001	288.15	0.12465	1002.346	0.591
0.001	288.15	0.14942	1002.942	0.592
0.001	298.15	0	997.363	0.586
0.001	298.15	0.01017	997.536	0.586
0.001	298.15	0.02021	997.759	0.586
0.001	298.15	0.03985	998.197	0.586
0.001	298.15	0.05986	998.689	0.586
0.001	298.15	0.08035	999.153	0.587
0.001	298.15	0.09955	999.601	0.587
0.001	298.15	0.12465	1000.196	0.588
0.001	298.15	0.14942	1000.821	0.589
0.001	308.15	0	994.356	0.583
0.001	308.15	0.01017	994.549	0.584
0.001	308.15	0.02021	994.747	0.584
0.001	308.15	0.03985	995.185	0.584
0.001	308.15	0.05986	995.631	0.584
0.001	308.15	0.08035	996.083	0.585
0.001	308.15	0.09955	996.511	0.585
0.001	308.15	0.12465	997.088	0.585
0.001	308.15	0.14942	997.665	0.586
0.001	318.15	0	990.522	0.581
0.001	318.15	0.01017	990.695	0.581
0.001	318.15	0.02021	990.895	0.581
0.001	318.15	0.03985	991.309	0.581
0.001	318.15	0.05986	991.741	0.581
0.001	318.15	0.08035	992.209	0.582
0.001	318.15	0.09955	992.635	0.582
0.001	318.15	0.12465	993.2	0.583
0.001	318.15	0.14942	993.785	0.583
0.002	288.15	0	999.643	0.587
0.002	288.15	0.01045	999.818	0.587
0.002	288.15	0.02017	1000.014	0.587
0.002	288.15	0.04036	1000.486	0.588
0.002	288.15	0.06051	1001.013	0.589
0.002	288.15	0.08038	1001.494	0.59
0.002	288.15	0.10071	1001.976	0.59
0.002	288.15	0.12607	1002.592	0.591
0.002	288.15	0.15125	1003.213	0.592
0.002	298.15	0	997.576	0.586
0.002	298.15	0.01045	997.767	0.586
0.002	298.15	0.02017	997.948	0.586
0.002	298.15	0.04036	998.404	0.586
0.002	298.15	0.06051	998.895	0.587
0.002	298.15	0.08038	999.359	0.587
0.002	298.15	0.10071	999.823	0.587
0.002	298.15	0.12607	1000.417	0.588
0.002	298.15	0.15125	1001.022	0.589
0.002	308.15	0	994.56	0.583
0.002	308.15	0.01045	994.747	0.584
0.002	308.15	0.02017	994.954	0.584
0.002	308.15	0.04036	995.378	0.584
0.002	308.15	0.06051	995.845	0.584
0.002	308.15	0.08038	996.297	0.585
0.002	308.15	0.10071	996.749	0.585
0.002	308.15	0.12607	997.325	0.585
0.002	308.15	0.15125	997.913	0.586
0.002	318.15	0	990.713	0.581
0.002	318.15	0.01045	990.906	0.581
0.002	318.15	0.02017	991.067	0.581
0.002	318.15	0.04036	991.499	0.581
0.002	318.15	0.06051	991.96	0.582
0.002	318.15	0.08038	992.422	0.582
0.002	318.15	0.10071	992.864	0.582
0.002	318.15	0.12607	993.404	0.583
0.002	318.15	0.15125	994.001	0.583
0.004	288.15	0	999.922	0.587
0.004	288.15	0.01039	1000.094	0.587
0.004	288.15	0.02044	1000.29	0.588
0.004	288.15	0.04027	1000.783	0.589
0.004	288.15	0.06032	1001.276	0.589
0.004	288.15	0.08028	1001.778	0.59
0.004	288.15	0.10003	1002.242	0.591
0.004	288.15	0.12525	1002.856	0.592
0.004	288.15	0.15016	1003.432	0.592
0.004	298.15	0	997.847	0.586
0.004	298.15	0.01039	997.993	0.586
0.004	298.15	0.02044	998.199	0.586
0.004	298.15	0.04027	998.675	0.586
0.004	298.15	0.06032	999.152	0.587
0.004	298.15	0.08028	999.638	0.587
0.004	298.15	0.10003	1000.089	0.587
0.004	298.15	0.12525	1000.678	0.588
0.004	298.15	0.15016	1001.235	0.589
0.004	308.15	0	994.831	0.584
0.004	308.15	0.01039	994.985	0.584
0.004	308.15	0.02044	995.191	0.584
0.004	308.15	0.04027	995.654	0.584
0.004	308.15	0.06032	996.118	0.585
0.004	308.15	0.08028	996.591	0.585
0.004	308.15	0.10003	997.028	0.585
0.004	308.15	0.12525	997.603	0.586
0.004	308.15	0.15016	998.142	0.586
0.004	318.15	0	990.992	0.581
0.004	318.15	0.01039	991.161	0.581
0.004	318.15	0.02044	991.341	0.581
0.004	318.15	0.04027	991.775	0.581
0.004	318.15	0.06032	992.229	0.582
0.004	318.15	0.08028	992.664	0.582
0.004	318.15	0.10003	993.12	0.582
0.004	318.15	0.12525	993.68	0.583
0.004	318.15	0.15016	994.207	0.583

System: [R-(R*,R*)]-2,2-dichloro-N-[2-hydroxy-1-(hydroxymethyl)-2-(4-nitrophenyl)ethyl]ethanamide + L-leucine + water; phases: Liquid
Fixed: Pressure, kPa = 100
Fixed: Frequency, MHz = 3
Property: Speed of sound, m/s (Liquid); method: Sing-around technique in a fixed-path interferometer
Solvent: Molality, mol/kg of [R-(R*,R*)]-2,2-dichloro-N-[2-hydroxy-1-(hydroxymethyl)-2-(4-nitrophenyl)ethyl]ethanamide	Temperature, K	Molality, mol/kg of L-leucine	Speed of sound, m/s	uncertainty
0	288.15	0	1466.73	2.06
0	288.15	0.00991	1467.97	2.06
0	288.15	0.02042	1469.28	2.06
0	288.15	0.04026	1471.75	2.06
0	288.15	0.06014	1474.23	2.06
0	288.15	0.0802	1476.73	2.06
0	288.15	0.10017	1479.22	2.06
0	288.15	0.12459	1482.26	2.06
0	288.15	0.15022	1485.46	2.06
0	298.15	0	1495.87	2.07
0	298.15	0.00991	1496.98	2.06
0	298.15	0.02042	1498.16	2.06
0	298.15	0.04026	1500.38	2.06
0	298.15	0.06014	1502.61	2.06
0	298.15	0.0802	1504.86	2.06
0	298.15	0.10017	1507.1	2.06
0	298.15	0.12459	1509.83	2.06
0	298.15	0.15022	1512.7	2.07
0	308.15	0	1519.5	2.07
0	308.15	0.00991	1520.49	2.07
0	308.15	0.02042	1521.55	2.07
0	308.15	0.04026	1523.54	2.07
0	308.15	0.06014	1525.53	2.07
0	308.15	0.0802	1527.54	2.07
0	308.15	0.10017	1529.55	2.07
0	308.15	0.12459	1531.99	2.07
0	308.15	0.15022	1534.56	2.07
0	318.15	0	1536.12	2.06
0	318.15	0.00991	1537.03	2.06
0	318.15	0.02042	1538	2.06
0	318.15	0.04026	1539.83	2.06
0	318.15	0.06014	1541.66	2.06
0	318.15	0.0802	1543.51	2.06
0	318.15	0.10017	1545.35	2.06
0	318.15	0.12459	1547.6	2.06
0	318.15	0.15022	1549.97	2.06
0.0005	288.15	0	1466.86	2.06
0.0005	288.15	0.01007	1468.12	2.06
0.0005	288.15	0.01971	1469.32	2.06
0.0005	288.15	0.04149	1472.03	2.06
0.0005	288.15	0.06003	1474.34	2.06
0.0005	288.15	0.08062	1476.91	2.06
0.0005	288.15	0.09922	1479.23	2.06
0.0005	288.15	0.12447	1482.38	2.06
0.0005	288.15	0.14973	1485.53	2.06
0.0005	298.15	0	1496.01	2.06
0.0005	298.15	0.01007	1497.14	2.06
0.0005	298.15	0.01971	1498.22	2.06
0.0005	298.15	0.04149	1500.66	2.06
0.0005	298.15	0.06003	1502.74	2.06
0.0005	298.15	0.08062	1505.04	2.06
0.0005	298.15	0.09922	1507.13	2.06
0.0005	298.15	0.12447	1509.96	2.06
0.0005	298.15	0.14973	1512.79	2.06
0.0005	308.15	0	1519.61	2.06
0.0005	308.15	0.01007	1520.62	2.06
0.0005	308.15	0.01971	1521.59	2.06
0.0005	308.15	0.04149	1523.77	2.06
0.0005	308.15	0.06003	1525.63	2.06
0.0005	308.15	0.08062	1527.69	2.06
0.0005	308.15	0.09922	1529.56	2.06
0.0005	308.15	0.12447	1532.09	2.06
0.0005	308.15	0.14973	1534.62	2.06
0.0005	318.15	0	1536.25	2.06
0.0005	318.15	0.01007	1537.18	2.06
0.0005	318.15	0.01971	1538.07	2.06
0.0005	318.15	0.04149	1540.07	2.06
0.0005	318.15	0.06003	1541.78	2.06
0.0005	318.15	0.08062	1543.68	2.06
0.0005	318.15	0.09922	1545.4	2.06
0.0005	318.15	0.12447	1547.72	2.06
0.0005	318.15	0.14973	1550.05	2.06
0.001	288.15	0	1466.98	2.06
0.001	288.15	0.01017	1468.26	2.06
0.001	288.15	0.02021	1469.52	2.06
0.001	288.15	0.03985	1471.99	2.06
0.001	288.15	0.05986	1474.5	2.06
0.001	288.15	0.08035	1477.08	2.06
0.001	288.15	0.09955	1479.49	2.06
0.001	288.15	0.12465	1482.65	2.06
0.001	288.15	0.14942	1485.76	2.06
0.001	298.15	0	1496.13	2.06
0.001	298.15	0.01017	1497.27	2.06
0.001	298.15	0.02021	1498.39	2.06
0.001	298.15	0.03985	1500.6	2.06
0.001	298.15	0.05986	1502.84	2.06
0.001	298.15	0.08035	1505.13	2.06
0.001	298.15	0.09955	1507.29	2.06
0.001	298.15	0.12465	1510.1	2.06
0.001	298.15	0.14942	1512.87	2.06
0.001	308.15	0	1519.73	2.06
0.001	308.15	0.01017	1520.75	2.06
0.001	308.15	0.02021	1521.76	2.06
0.001	308.15	0.03985	1523.73	2.06
0.001	308.15	0.05986	1525.73	2.06
0.001	308.15	0.08035	1527.79	2.06
0.001	308.15	0.09955	1529.71	2.06
0.001	308.15	0.12465	1532.23	2.06
0.001	308.15	0.14942	1534.71	2.06
0.001	318.15	0	1536.38	2.06
0.001	318.15	0.01017	1537.32	2.06
0.001	318.15	0.02021	1538.24	2.06
0.001	318.15	0.03985	1540.05	2.06
0.001	318.15	0.05986	1541.9	2.06
0.001	318.15	0.08035	1543.79	2.06
0.001	318.15	0.09955	1545.56	2.06
0.001	318.15	0.12465	1547.87	2.06
0.001	318.15	0.14942	1550.15	2.07
0.002	288.15	0	1467.12	2.06
0.002	288.15	0.01045	1468.44	2.06
0.002	288.15	0.02017	1469.66	2.06
0.002	288.15	0.04036	1472.21	2.06
0.002	288.15	0.06051	1474.75	2.06
0.002	288.15	0.08038	1477.25	2.06
0.002	288.15	0.10071	1479.82	2.06
0.002	288.15	0.12607	1483.01	2.06
0.002	288.15	0.15125	1486.19	2.06
0.002	298.15	0	1496.25	2.06
0.002	298.15	0.01045	1497.42	2.06
0.002	298.15	0.02017	1498.51	2.06
0.002	298.15	0.04036	1500.77	2.06
0.002	298.15	0.06051	1503.03	2.06
0.002	298.15	0.08038	1505.26	2.06
0.002	298.15	0.10071	1507.54	2.06
0.002	298.15	0.12607	1510.38	2.06
0.002	298.15	0.15125	1513.2	2.06
0.002	308.15	0	1519.86	2.06
0.002	308.15	0.01045	1520.91	2.06
0.002	308.15	0.02017	1521.88	2.06
0.002	308.15	0.04036	1523.91	2.06
0.002	308.15	0.06051	1525.93	2.06
0.002	308.15	0.08038	1527.92	2.06
0.002	308.15	0.10071	1529.96	2.06
0.002	308.15	0.12607	1532.5	2.06
0.002	308.15	0.15125	1535.03	2.06
0.002	318.15	0	1536.82	2.06
0.002	318.15	0.01045	1537.78	2.06
0.002	318.15	0.02017	1538.7	2.06
0.002	318.15	0.04036	1540.53	2.06
0.002	318.15	0.06051	1542.38	2.06
0.002	318.15	0.08038	1544.22	2.06
0.002	318.15	0.10071	1546.04	2.06
0.002	318.15	0.12607	1548.36	2.06
0.002	318.15	0.15125	1550.66	2.07
0.004	288.15	0	1467.48	2.06
0.004	288.15	0.01039	1468.8	2.06
0.004	288.15	0.02044	1470.07	2.06
0.004	288.15	0.04027	1472.58	2.06
0.004	288.15	0.06032	1475.12	2.06
0.004	288.15	0.08028	1477.65	2.06
0.004	288.15	0.10003	1480.15	2.06
0.004	288.15	0.12525	1483.35	2.06
0.004	288.15	0.15016	1486.5	2.06
0.004	298.15	0	1496.66	2.06
0.004	298.15	0.01039	1497.82	2.06
0.004	298.15	0.02044	1498.95	2.06
0.004	298.15	0.04027	1501.17	2.06
0.004	298.15	0.06032	1503.42	2.06
0.004	298.15	0.08028	1505.66	2.06
0.004	298.15	0.10003	1507.87	2.06
0.004	298.15	0.12525	1510.7	2.06
0.004	298.15	0.15016	1513.49	2.06
0.004	308.15	0	1520.21	2.06
0.004	308.15	0.01039	1521.25	2.06
0.004	308.15	0.02044	1522.26	2.06
0.004	308.15	0.04027	1524.25	2.06
0.004	308.15	0.06032	1526.26	2.06
0.004	308.15	0.08028	1528.26	2.06
0.004	308.15	0.10003	1530.24	2.06
0.004	308.15	0.12525	1532.77	2.06
0.004	308.15	0.15016	1535.27	2.06
0.004	318.15	0	1536.82	2.06
0.004	318.15	0.01039	1537.84	2.06
0.004	318.15	0.02044	1538.66	2.06
0.004	318.15	0.04027	1540.62	2.06
0.004	318.15	0.06032	1541.96	2.06
0.004	318.15	0.08028	1543.85	2.06
0.004	318.15	0.10003	1545.57	2.06
0.004	318.15	0.12525	1547.86	2.06
0.004	318.15	0.15016	1550.03	2.06

System: [R-(R*,R*)]-2,2-dichloro-N-[2-hydroxy-1-(hydroxymethyl)-2-(4-nitrophenyl)ethyl]ethanamide + glycyl-L-leucine + water; phases: Liquid
Fixed: Pressure, kPa = 100
Property: Mass density, kg/m3 (Liquid); method: Vibrating tube method
Solvent: Molality, mol/kg of [R-(R*,R*)]-2,2-dichloro-N-[2-hydroxy-1-(hydroxymethyl)-2-(4-nitrophenyl)ethyl]ethanamide	Temperature, K	Molality, mol/kg of glycyl-L-leucine	Mass density, kg/m3	uncertainty
0	288.15	0	999.119	0.837
0	288.15	0.01036	999.623	0.837
0	288.15	0.02041	1000.139	0.838
0	288.15	0.04005	1001.13	0.84
0	288.15	0.06009	1002.126	0.842
0	288.15	0.08023	1003.078	0.844
0	288.15	0.09965	1004.024	0.846
0	288.15	0.15021	1006.404	0.85
0	288.15	0.20139	1008.794	0.855
0	298.15	0	997.052	0.835
0	298.15	0.01036	997.544	0.835
0	298.15	0.02041	998.07	0.84
0	298.15	0.04005	999.05	0.84
0	298.15	0.06009	999.995	0.838
0	298.15	0.08023	1000.945	0.84
0	298.15	0.09965	1001.902	0.842
0	298.15	0.15021	1004.282	0.847
0	298.15	0.20139	1006.662	0.852
0	308.15	0	994.047	0.831
0	308.15	0.01036	994.554	0.831
0	308.15	0.02041	995.045	0.832
0	308.15	0.04005	995.995	0.833
0	308.15	0.06009	996.94	0.83
0	308.15	0.08023	997.866	0.835
0	308.15	0.09965	998.802	0.837
0	308.15	0.15021	1001.187	0.84
0	308.15	0.20139	1003.567	0.845
0	318.15	0	990.216	0.826
0	318.15	0.01036	990.713	0.826
0	318.15	0.02041	991.171	0.827
0	318.15	0.04005	992.11	0.83
0	318.15	0.06009	993.02	0.83
0	318.15	0.08023	993.927	0.83
0	318.15	0.09965	994.85	0.83
0	318.15	0.15021	997.236	0.834
0	318.15	0.20139	999.61	0.84
0.0005	288.15	0	999.273	0.837
0.0005	288.15	0.01036	999.769	0.837
0.0005	288.15	0.02032	1000.283	0.838
0.0005	288.15	0.04039	1001.275	0.84
0.0005	288.15	0.06034	1002.231	0.842
0.0005	288.15	0.08022	1003.206	0.844
0.0005	288.15	0.09911	1004.121	0.846
0.0005	288.15	0.14913	1006.466	0.851
0.0005	288.15	0.19989	1008.847	0.855
0.0005	298.15	0	997.209	0.834
0.0005	298.15	0.01036	997.7	0.8
0.0005	298.15	0.02032	998.217	0.835
0.0005	298.15	0.04039	999.211	0.837
0.0005	298.15	0.06034	1000.149	0.838
0.0005	298.15	0.08022	1001.114	0.84
0.0005	298.15	0.09911	1002.015	0.842
0.0005	298.15	0.14913	1004.363	0.846
0.0005	298.15	0.19989	1006.753	0.851
0.0005	308.15	0	994.205	0.831
0.0005	308.15	0.01036	994.697	0.831
0.0005	308.15	0.02032	995.192	0.832
0.0005	308.15	0.04039	996.14	0.83
0.0005	308.15	0.06034	997.091	0.834
0.0005	308.15	0.08022	998.024	0.835
0.0005	308.15	0.09911	998.933	0.836
0.0005	308.15	0.14913	1001.291	0.84
0.0005	308.15	0.19989	1003.639	0.845
0.0005	318.15	0	990.372	0.826
0.0005	318.15	0.01036	990.859	0.827
0.0005	318.15	0.02032	991.313	0.827
0.0005	318.15	0.04039	992.266	0.828
0.0005	318.15	0.06034	993.169	0.829
0.0005	318.15	0.08022	994.064	0.83
0.0005	318.15	0.09911	994.969	0.831
0.0005	318.15	0.14913	997.324	0.834
0.0005	318.15	0.19989	999.672	0.837
0.001	288.15	0	999.429	0.837
0.001	288.15	0.01019	999.913	0.837
0.001	288.15	0.02032	1000.426	0.838
0.001	288.15	0.03986	1001.394	0.84
0.001	288.15	0.05971	1002.376	0.842
0.001	288.15	0.07953	1003.308	0.844
0.001	288.15	0.10031	1004.348	0.846
0.001	288.15	0.14922	1006.622	0.851
0.001	288.15	0.19968	1009.025	0.856
0.001	298.15	0	997.363	0.834
0.001	298.15	0.01019	997.846	0.835
0.001	298.15	0.02032	998.349	0.836
0.001	298.15	0.03986	999.32	0.84
0.001	298.15	0.05971	1000.274	0.838
0.001	298.15	0.07953	1001.21	0.84
0.001	298.15	0.10031	1002.22	0.84
0.001	298.15	0.14922	1004.546	0.847
0.001	298.15	0.19968	1006.886	0.851
0.001	308.15	0	994.356	0.831
0.001	308.15	0.01019	994.834	0.831
0.001	308.15	0.02032	995.332	0.832
0.001	308.15	0.03986	996.272	0.833
0.001	308.15	0.05971	997.205	0.834
0.001	308.15	0.07953	998.118	0.835
0.001	308.15	0.10031	999.155	0.837
0.001	308.15	0.14922	1001.426	0.84
0.001	308.15	0.19968	1003.754	0.845
0.001	318.15	0	990.522	0.826
0.001	318.15	0.01019	990.972	0.827
0.001	318.15	0.02032	991.449	0.827
0.001	318.15	0.03986	992.354	0.828
0.001	318.15	0.05971	993.271	0.829
0.001	318.15	0.07953	994.167	0.831
0.001	318.15	0.10031	995.137	0.832
0.001	318.15	0.14922	997.456	0.835
0.001	318.15	0.19968	999.805	0.837
0.002	288.15	0	999.643	0.837
0.002	288.15	0.01043	1000.122	0.838
0.002	288.15	0.02013	1000.58	0.839
0.002	288.15	0.04061	1001.584	0.841
0.002	288.15	0.05996	1002.553	0.843
0.002	288.15	0.08056	1003.557	0.845
0.002	288.15	0.10002	1004.497	0.847
0.002	288.15	0.14767	1006.72	0.851
0.002	288.15	0.19921	1009.157	0.856
0.002	298.15	0	997.576	0.835
0.002	298.15	0.01043	998.045	0.835
0.002	298.15	0.02013	998.515	0.836
0.002	298.15	0.04061	999.524	0.837
0.002	298.15	0.05996	1000.478	0.839
0.002	298.15	0.08056	1001.453	0.84
0.002	298.15	0.10002	1002.357	0.842
0.002	298.15	0.14767	1004.636	0.847
0.002	298.15	0.19921	1007.004	0.852
0.002	308.15	0	994.56	0.831
0.002	308.15	0.01043	995.028	0.832
0.002	308.15	0.02013	995.504	0.832
0.002	308.15	0.04061	996.498	0.833
0.002	308.15	0.05996	997.416	0.834
0.002	308.15	0.08056	998.37	0.836
0.002	308.15	0.10002	999.314	0.837
0.002	308.15	0.14767	1001.531	0.841
0.002	308.15	0.19921	1003.905	0.845
0.002	318.15	0	990.713	0.826
0.002	318.15	0.01043	991.178	0.827
0.002	318.15	0.02013	991.636	0.827
0.002	318.15	0.04061	992.595	0.829
0.002	318.15	0.05996	993.476	0.83
0.002	318.15	0.08056	994.411	0.831
0.002	318.15	0.10002	995.32	0.832
0.002	318.15	0.14767	997.593	0.835
0.002	318.15	0.19921	999.979	0.838
0.004	288.15	0	999.922	0.837
0.004	288.15	0.00994	1000.371	0.838
0.004	288.15	0.02025	1000.844	0.839
0.004	288.15	0.04021	1001.831	0.841
0.004	288.15	0.05997	1002.818	0.843
0.004	288.15	0.08027	1003.811	0.845
0.004	288.15	0.10009	1004.737	0.847
0.004	288.15	0.14974	1007.048	0.852
0.004	288.15	0.19934	1009.417	0.856
0.004	298.15	0	997.847	0.835
0.004	298.15	0.00994	998.292	0.835
0.004	298.15	0.02025	998.769	0.836
0.004	298.15	0.04021	999.739	0.837
0.004	298.15	0.05997	1000.697	0.839
0.004	298.15	0.08027	1001.664	0.841
0.004	298.15	0.10009	1002.582	0.843
0.004	298.15	0.14974	1004.963	0.848
0.004	298.15	0.19934	1007.26	0.852
0.004	308.15	0	994.831	0.831
0.004	308.15	0.00994	995.276	0.832
0.004	308.15	0.02025	995.743	0.832
0.004	308.15	0.04021	996.711	0.834
0.004	308.15	0.05997	997.649	0.835
0.004	308.15	0.08027	998.592	0.836
0.004	308.15	0.10009	999.549	0.837
0.004	308.15	0.14974	1001.876	0.841
0.004	308.15	0.19934	1004.183	0.846
0.004	318.15	0	990.992	0.827
0.004	318.15	0.00994	991.428	0.827
0.004	318.15	0.02025	991.886	0.828
0.004	318.15	0.04021	992.845	0.829
0.004	318.15	0.05997	993.726	0.83
0.004	318.15	0.08027	994.661	0.831
0.004	318.15	0.10009	995.57	0.832
0.004	318.15	0.14974	997.933	0.835
0.004	318.15	0.19934	1000.249	0.838

System: [R-(R*,R*)]-2,2-dichloro-N-[2-hydroxy-1-(hydroxymethyl)-2-(4-nitrophenyl)ethyl]ethanamide + glycyl-L-leucine + water; phases: Liquid
Fixed: Pressure, kPa = 100
Fixed: Frequency, MHz = 3
Property: Speed of sound, m/s (Liquid); method: Sing-around technique in a fixed-path interferometer
Solvent: Molality, mol/kg of [R-(R*,R*)]-2,2-dichloro-N-[2-hydroxy-1-(hydroxymethyl)-2-(4-nitrophenyl)ethyl]ethanamide	Temperature, K	Molality, mol/kg of glycyl-L-leucine	Speed of sound, m/s	uncertainty
0	288.15	0	1466.73	2.33
0	288.15	0.01036	1468.43	2.33
0	288.15	0.02041	1470.08	2.33
0	288.15	0.04005	1473.3	2.33
0	288.15	0.06009	1476.59	2.34
0	288.15	0.08023	1479.9	2.34
0	288.15	0.09965	1483.09	2.34
0	288.15	0.15021	1491.39	2.34
0	288.15	0.20139	1499.79	2.34
0	298.15	0	1495.87	2.34
0	298.15	0.01036	1497.38	2.34
0	298.15	0.02041	1499.02	2.34
0	298.15	0.04005	1502.01	2.34
0	298.15	0.06009	1505.19	2.34
0	298.15	0.08023	1508.31	2.34
0	298.15	0.09965	1511.32	2.34
0	298.15	0.15021	1519.16	2.34
0	298.15	0.20139	1527.1	2.35
0	308.15	0	1519.5	2.35
0	308.15	0.01036	1521.05	2.34
0	308.15	0.02041	1522.56	2.34
0	308.15	0.04005	1525.5	2.34
0	308.15	0.06009	1528.51	2.34
0	308.15	0.08023	1531.52	2.34
0	308.15	0.09965	1534.43	2.34
0	308.15	0.15021	1542.01	2.34
0	308.15	0.20139	1549.68	2.35
0	318.15	0	1536.12	2.34
0	318.15	0.01036	1537.64	2.34
0	318.15	0.02041	1539.11	2.34
0	318.15	0.04005	1542	2.34
0	318.15	0.06009	1544.94	2.34
0	318.15	0.08023	1547.89	2.34
0	318.15	0.09965	1550.74	2.34
0	318.15	0.15021	1558.16	2.34
0	318.15	0.20139	1565.67	2.34
0.0005	288.15	0	1466.86	2.33
0.0005	288.15	0.01036	1468.56	2.33
0.0005	288.15	0.02032	1470.2	2.33
0.0005	288.15	0.04039	1473.5	2.34
0.0005	288.15	0.06034	1476.78	2.34
0.0005	288.15	0.08022	1480.04	2.34
0.0005	288.15	0.09911	1483.15	2.34
0.0005	288.15	0.14913	1491.37	2.34
0.0005	288.15	0.19989	1499.71	2.34
0.0005	298.15	0	1496.01	2.34
0.0005	298.15	0.01036	1497.64	2.34
0.0005	298.15	0.02032	1499.2	2.34
0.0005	298.15	0.04039	1502.35	2.34
0.0005	298.15	0.06034	1505.49	2.34
0.0005	298.15	0.08022	1508.61	2.34
0.0005	298.15	0.09911	1511.53	2.34
0.0005	298.15	0.14913	1519.4	2.34
0.0005	298.15	0.19989	1527.35	2.34
0.0005	308.15	0	1519.61	2.34
0.0005	308.15	0.01036	1521.16	2.34
0.0005	308.15	0.02032	1522.66	2.34
0.0005	308.15	0.04039	1525.66	2.34
0.0005	308.15	0.06034	1528.65	2.34
0.0005	308.15	0.08022	1531.63	2.34
0.0005	308.15	0.09911	1534.46	2.34
0.0005	308.15	0.14913	1541.96	2.34
0.0005	308.15	0.19989	1549.57	2.34
0.0005	318.15	0	1536.25	2.34
0.0005	318.15	0.01036	1537.77	2.34
0.0005	318.15	0.02032	1539.23	2.34
0.0005	318.15	0.04039	1542.18	2.34
0.0005	318.15	0.06034	1545.1	2.34
0.0005	318.15	0.08022	1548.02	2.34
0.0005	318.15	0.09911	1550.79	2.34
0.0005	318.15	0.14913	1558.13	2.34
0.0005	318.15	0.19989	1565.58	2.34
0.001	288.15	0	1466.98	2.33
0.001	288.15	0.01019	1468.65	2.33
0.001	288.15	0.02032	1470.32	2.33
0.001	288.15	0.03986	1473.53	2.33
0.001	288.15	0.05971	1476.79	2.34
0.001	288.15	0.07953	1480.05	2.34
0.001	288.15	0.10031	1483.47	2.34
0.001	288.15	0.14922	1491.51	2.34
0.001	288.15	0.19968	1499.8	2.34
0.001	298.15	0	1496.13	2.34
0.001	298.15	0.01019	1497.73	2.34
0.001	298.15	0.02032	1499.32	2.34
0.001	298.15	0.03986	1502.39	2.34
0.001	298.15	0.05971	1505.51	2.34
0.001	298.15	0.07953	1508.62	2.34
0.001	298.15	0.10031	1511.89	2.34
0.001	298.15	0.14922	1519.57	2.34
0.001	298.15	0.19968	1527.5	2.34
0.001	308.15	0	1519.73	2.34
0.001	308.15	0.01019	1521.26	2.34
0.001	308.15	0.02032	1522.78	2.34
0.001	308.15	0.03986	1525.7	2.34
0.001	308.15	0.05971	1528.68	2.34
0.001	308.15	0.07953	1531.65	2.34
0.001	308.15	0.10031	1534.76	2.34
0.001	308.15	0.14922	1542.09	2.34
0.001	308.15	0.19968	1549.65	2.34
0.001	318.15	0	1536.38	2.34
0.001	318.15	0.01019	1537.88	2.34
0.001	318.15	0.02032	1539.36	2.34
0.001	318.15	0.03986	1542.23	2.34
0.001	318.15	0.05971	1545.14	2.34
0.001	318.15	0.07953	1548.05	2.34
0.001	318.15	0.10031	1551.1	2.34
0.001	318.15	0.14922	1558.28	2.34
0.001	318.15	0.19968	1565.68	2.34
0.002	288.15	0	1467.12	2.33
0.002	288.15	0.01043	1468.84	2.33
0.002	288.15	0.02013	1470.43	2.33
0.002	288.15	0.04061	1473.8	2.34
0.002	288.15	0.05996	1476.99	2.34
0.002	288.15	0.08056	1480.38	2.34
0.002	288.15	0.10002	1483.58	2.34
0.002	288.15	0.14767	1491.42	2.34
0.002	288.15	0.19921	1499.9	2.34
0.002	298.15	0	1496.25	2.34
0.002	298.15	0.01043	1497.89	2.34
0.002	298.15	0.02013	1499.41	2.34
0.002	298.15	0.04061	1502.63	2.34
0.002	298.15	0.05996	1505.67	2.34
0.002	298.15	0.08056	1508.9	2.34
0.002	298.15	0.10002	1511.96	2.34
0.002	298.15	0.14767	1519.45	2.34
0.002	298.15	0.19921	1527.54	2.34
0.002	308.15	0	1519.86	2.34
0.002	308.15	0.01043	1521.42	2.34
0.002	308.15	0.02013	1522.88	2.34
0.002	308.15	0.04061	1525.95	2.34
0.002	308.15	0.05996	1528.85	2.34
0.002	308.15	0.08056	1531.93	2.34
0.002	308.15	0.10002	1534.85	2.34
0.002	308.15	0.14767	1541.99	2.34
0.002	308.15	0.19921	1549.71	2.34
0.002	318.15	0	1536.51	2.34
0.002	318.15	0.01043	1538.04	2.34
0.002	318.15	0.02013	1539.46	2.34
0.002	318.15	0.04061	1542.47	2.34
0.002	318.15	0.05996	1545.31	2.34
0.002	318.15	0.08056	1548.33	2.34
0.002	318.15	0.10002	1551.19	2.34
0.002	318.15	0.14767	1558.18	2.34
0.002	318.15	0.19921	1565.74	2.34
0.004	288.15	0	1467.48	2.33
0.004	288.15	0.00994	1469.12	2.33
0.004	288.15	0.02025	1470.82	2.33
0.004	288.15	0.04021	1474.11	2.34
0.004	288.15	0.05997	1477.37	2.34
0.004	288.15	0.08027	1480.72	2.34
0.004	288.15	0.10009	1483.99	2.34
0.004	288.15	0.14974	1492.17	2.34
0.004	288.15	0.19934	1500.35	2.34
0.004	298.15	0	1496.66	2.34
0.004	298.15	0.00994	1498.22	2.34
0.004	298.15	0.02025	1499.84	2.34
0.004	298.15	0.04021	1502.98	2.34
0.004	298.15	0.05997	1506.08	2.34
0.004	298.15	0.08027	1509.27	2.34
0.004	298.15	0.10009	1512.38	2.34
0.004	298.15	0.14974	1520.18	2.34
0.004	298.15	0.19934	1527.97	2.34
0.004	308.15	0	1520.21	2.34
0.004	308.15	0.00994	1521.7	2.34
0.004	308.15	0.02025	1523.24	2.34
0.004	308.15	0.04021	1526.24	2.34
0.004	308.15	0.05997	1529.2	2.34
0.004	308.15	0.08027	1532.24	2.34
0.004	308.15	0.10009	1535.21	2.34
0.004	308.15	0.14974	1542.65	2.34
0.004	308.15	0.19934	1550.08	2.34
0.004	318.15	0	1536.82	2.34
0.004	318.15	0.00994	1538.29	2.34
0.004	318.15	0.02025	1539.81	2.34
0.004	318.15	0.04021	1542.76	2.34
0.004	318.15	0.05997	1545.68	2.34
0.004	318.15	0.08027	1548.68	2.34
0.004	318.15	0.10009	1551.61	2.34
0.004	318.15	0.14974	1558.94	2.34
0.004	318.15	0.19934	1566.27	2.34

System: L-leucine + water; phases: Liquid
Fixed: Pressure, kPa = 100
Property: Mass density, kg/m3 (Liquid); method: Vibrating tube method
Temperature, K	Molality, mol/kg of L-leucine	Mass density, kg/m3	uncertainty
288.15	0.00991	999.363	0.231
288.15	0.02042	999.615	0.231
288.15	0.04026	1000.092	0.231
288.15	0.06014	1000.598	0.232
288.15	0.0802	1001.067	0.232
288.15	0.10017	1001.567	0.232
288.15	0.12459	1002.135	0.233
288.15	0.15022	1002.712	0.233
298.15	0.00991	997.29	0.231
298.15	0.02042	997.535	0.231
298.15	0.04026	998.005	0.231
298.15	0.06014	998.476	0.231
298.15	0.0802	998.929	0.231
298.15	0.10017	999.402	0.231
298.15	0.12459	999.979	0.231
298.15	0.15022	1000.556	0.232
308.15	0.00991	994.279	0.231
308.15	0.02042	994.535	0.231
308.15	0.04026	994.994	0.231
308.15	0.06014	995.441	0.231
308.15	0.0802	995.893	0.231
308.15	0.10017	996.345	0.231
308.15	0.12459	996.896	0.231
308.15	0.15022	997.446	0.231
318.15	0.00991	990.433	0.231
318.15	0.02042	990.663	0.231
318.15	0.04026	991.098	0.231
318.15	0.06014	991.533	0.231
318.15	0.0802	991.972	0.231
318.15	0.10017	992.41	0.231
318.15	0.12459	992.945	0.232
318.15	0.15022	993.506	0.232

System: L-leucine + water; phases: Liquid
Fixed: Pressure, kPa = 100
Fixed: Frequency, MHz = 3
Property: Speed of sound, m/s (Liquid); method: Sing-around technique in a fixed-path interferometer
Temperature, K	Molality, mol/kg of L-leucine	Speed of sound, m/s	uncertainty
288.15	0.00991	1467.97	1.57
288.15	0.02042	1469.28	1.57
288.15	0.04026	1471.75	1.57
288.15	0.06014	1474.23	1.57
288.15	0.0802	1476.73	1.57
288.15	0.10017	1479.22	1.57
288.15	0.12459	1482.26	1.57
288.15	0.15022	1485.46	1.57
298.15	0.00991	1496.98	1.57
298.15	0.02042	1498.16	1.57
298.15	0.04026	1500.38	1.57
298.15	0.06014	1502.61	1.57
298.15	0.0802	1504.86	1.57
298.15	0.10017	1507.1	1.57
298.15	0.12459	1509.83	1.57
298.15	0.15022	1512.7	1.57
308.15	0.00991	1520.49	1.57
308.15	0.02042	1521.55	1.57
308.15	0.04026	1523.54	1.57
308.15	0.06014	1525.53	1.57
308.15	0.0802	1527.54	1.57
308.15	0.10017	1529.55	1.57
308.15	0.12459	1531.99	1.57
308.15	0.15022	1534.56	1.57
318.15	0.00991	1537.03	1.57
318.15	0.02042	1538	1.57
318.15	0.04026	1539.83	1.58
318.15	0.06014	1541.66	1.58
318.15	0.0802	1543.51	1.58
318.15	0.10017	1545.35	1.58
318.15	0.12459	1547.6	1.58
318.15	0.15022	1549.97	1.58

System: [R-(R*,R*)]-2,2-dichloro-N-[2-hydroxy-1-(hydroxymethyl)-2-(4-nitrophenyl)ethyl]ethanamide + water; phases: Liquid
Fixed: Pressure, kPa = 100
Property: Mass density, kg/m3 (Liquid); method: Vibrating tube method
Molality, mol/kg of [R-(R*,R*)]-2,2-dichloro-N-[2-hydroxy-1-(hydroxymethyl)-2-(4-nitrophenyl)ethyl]ethanamide	Temperature, K	Mass density, kg/m3	uncertainty
0.0005	288.15	999.273	0.232
0.0005	298.15	997.209	0.235
0.0005	308.15	994.205	0.234
0.0005	318.15	990.372	0.232
0.001	288.15	999.429	0.232
0.001	298.15	997.363	0.232
0.001	308.15	994.356	0.232
0.001	318.15	990.522	0.232
0.002	288.15	999.643	0.232
0.002	298.15	997.576	0.232
0.002	308.15	994.56	0.232
0.002	318.15	990.713	0.232
0.004	288.15	999.922	0.232
0.004	298.15	997.847	0.232
0.004	308.15	994.831	0.232
0.004	318.15	990.992	0.232

System: [R-(R*,R*)]-2,2-dichloro-N-[2-hydroxy-1-(hydroxymethyl)-2-(4-nitrophenyl)ethyl]ethanamide + water; phases: Liquid
Fixed: Pressure, kPa = 100
Fixed: Frequency, MHz = 3
Property: Speed of sound, m/s (Liquid); method: Sing-around technique in a fixed-path interferometer
Molality, mol/kg of [R-(R*,R*)]-2,2-dichloro-N-[2-hydroxy-1-(hydroxymethyl)-2-(4-nitrophenyl)ethyl]ethanamide	Temperature, K	Speed of sound, m/s	uncertainty
0.0005	288.15	1466.86	1.57
0.0005	298.15	1496.01	1.58
0.0005	308.15	1519.61	1.58
0.0005	318.15	1536.25	1.57
0.001	288.15	1466.98	1.57
0.001	298.15	1496.13	1.57
0.001	308.15	1519.73	1.57
0.001	318.15	1536.38	1.58
0.002	288.15	1467.12	1.57
0.002	298.15	1496.25	1.57
0.002	308.15	1519.86	1.57
0.002	318.15	1536.82	1.58
0.004	288.15	1467.48	1.57
0.004	298.15	1496.66	1.57
0.004	308.15	1520.21	1.57
0.004	318.15	1536.82	1.58
0.002	318.15	1536.51	1.58

System: glycyl-L-leucine + water; phases: Liquid
Fixed: Pressure, kPa = 100
Property: Mass density, kg/m3 (Liquid); method: Vibrating tube method
Temperature, K	Molality, mol/kg of glycyl-L-leucine	Mass density, kg/m3	uncertainty
288.15	0.01036	999.623	0.232
288.15	0.02041	1000.139	0.233
288.15	0.04005	1001.13	0.23
288.15	0.06009	1002.126	0.237
288.15	0.08023	1003.078	0.238
288.15	0.09965	1004.024	0.24
288.15	0.15021	1006.404	0.245
288.15	0.20139	1008.794	0.251
298.15	0.01036	997.544	0.232
298.15	0.02041	998.07	0.23
298.15	0.04005	999.05	0.23
298.15	0.06009	999.995	0.235
298.15	0.08023	1000.945	0.237
298.15	0.09965	1001.902	0.239
298.15	0.15021	1004.282	0.244
298.15	0.20139	1006.662	0.249
308.15	0.01036	994.554	0.232
308.15	0.02041	995.045	0.233
308.15	0.04005	995.995	0.234
308.15	0.06009	996.94	0.24
308.15	0.08023	997.866	0.236
308.15	0.09965	998.802	0.238
308.15	0.15021	1001.187	0.241
308.15	0.20139	1003.567	0.246
318.15	0.01036	990.713	0.232
318.15	0.02041	991.171	0.233
318.15	0.04005	992.11	0.23
318.15	0.06009	993.02	0.24
318.15	0.08023	993.927	0.236
318.15	0.09965	994.85	0.24
318.15	0.15021	997.236	0.241
318.15	0.20139	999.61	0.24

System: glycyl-L-leucine + water; phases: Liquid
Fixed: Pressure, kPa = 100
Fixed: Frequency, MHz = 3
Property: Speed of sound, m/s (Liquid); method: Sing-around technique in a fixed-path interferometer
Temperature, K	Molality, mol/kg of glycyl-L-leucine	Speed of sound, m/s	uncertainty
288.15	0.01036	1468.43	1.57
288.15	0.02041	1470.08	1.57
288.15	0.04005	1473.3	1.57
288.15	0.06009	1476.59	1.57
288.15	0.08023	1479.9	1.58
288.15	0.09965	1483.09	1.58
288.15	0.15021	1491.39	1.59
288.15	0.20139	1499.79	1.59
298.15	0.01036	1497.38	1.57
298.15	0.02041	1499.02	1.57
298.15	0.04005	1502.01	1.57
298.15	0.06009	1505.19	1.58
298.15	0.08023	1508.31	1.58
298.15	0.09965	1511.32	1.58
298.15	0.15021	1519.16	1.59
298.15	0.20139	1527.1	1.6
308.15	0.01036	1521.05	1.57
308.15	0.02041	1522.56	1.58
308.15	0.04005	1525.5	1.58
308.15	0.06009	1528.51	1.58
308.15	0.08023	1531.52	1.58
308.15	0.09965	1534.43	1.59
308.15	0.15021	1542.01	1.59
308.15	0.20139	1549.68	1.6
318.15	0.01036	1537.64	1.58
318.15	0.02041	1539.11	1.58
318.15	0.04005	1542	1.58
318.15	0.06009	1544.94	1.58
318.15	0.08023	1547.89	1.59
318.15	0.09965	1550.74	1.59
318.15	0.15021	1558.16	1.6
318.15	0.20139	1565.67	1.6
