Measured thermophysical data. Heat Capacity of R1234ze(E) at Temperatures from 313 to 393 K and Pressures up to 10 MPa
Source: J. Chem. Eng. Data, 2018, 10.1021/acs.jced.7b00713
Compound 1: trans-1,3,3,3-tetrafluoropropene, C3H2F4, InChI=1S/C3H2F4/c4-2-1-3(5,6)7/h1-2H/b2-1+, purity 99.95%

System: trans-1,3,3,3-tetrafluoropropene; phases: Liquid
Property: Molar heat capacity at constant pressure, J/K/mol (Liquid); method: Flow calorimetry
Temperature, K	Pressure, kPa	Molar heat capacity at constant pressure, J/K/mol	uncertainty
313.487	1040	165.36030956	5.0178300832
313.495	1510	164.219893632	4.9037884904
313.508	2010	163.079477704	4.9037884904
313.52	2480	162.3952281472	4.9037884904
313.465	3000	160.798645848	4.7897468976
313.482	3490	159.8863131056	4.7897468976
313.47	3980	158.9739803632	4.7897468976
313.47	4490	157.947606028	4.7897468976
313.48	5010	157.0352732856	4.6757053048
313.492	5490	156.5791069144	4.6757053048
313.491	6010	155.666774172	4.6757053048
313.506	6510	154.526358244	4.6757053048
313.489	6990	153.6140255016	4.561663712
313.488	7470	152.9297759448	4.561663712
313.499	7990	152.3595679808	4.561663712
313.51	8500	151.7893600168	4.561663712
313.518	8990	150.9910688672	4.561663712
313.516	9510	150.6489440888	4.561663712
313.531	10000	149.964694532	4.561663712
323.328	1510	168.8955989368	5.131871676
323.33	2010	167.4130582304	5.0178300832
323.333	2500	165.930517524	5.0178300832
323.321	3010	164.6760600032	4.9037884904
323.278	3520	163.7637272608	4.9037884904
323.279	4030	162.3952281472	4.9037884904
323.287	4530	161.2548122192	4.7897468976
323.29	4990	160.4565210696	4.7897468976
323.309	5490	159.65822992	4.7897468976
323.317	6010	158.6318555848	4.7897468976
323.328	6480	157.8335644352	4.7897468976
323.307	7030	156.9212316928	4.6757053048
323.294	7490	155.8948573576	4.6757053048
323.294	8010	154.7544414296	4.6757053048
323.294	8520	154.1842334656	4.6757053048
323.291	9040	153.0438175376	4.561663712
323.344	9490	152.7016927592	4.561663712
323.363	10010	151.7893600168	4.561663712
333.077	1550	178.1329679536	5.3599548616
333.076	2060	175.624052912	5.2459132688
333.105	2510	173.6853458344	5.2459132688
333.13	3030	172.0887635352	5.131871676
333.106	3500	170.2640980504	5.131871676
333.153	4000	169.0096405296	5.131871676
333.188	4500	167.7551830088	5.0178300832
333.183	4980	166.2726423024	5.0178300832
333.18	5500	164.5620184104	4.9037884904
333.164	6010	163.5356440752	4.9037884904
333.148	6520	162.3952281472	4.9037884904
333.146	7020	161.368853812	4.9037884904
333.133	7490	160.798645848	4.7897468976
333.141	8040	159.3161051416	4.7897468976
333.163	8500	158.7458971776	4.7897468976
333.187	9020	158.0616476208	4.7897468976
333.208	9510	157.377398064	4.6757053048
333.196	10080	155.8948573576	4.6757053048
343.533	2040	185.7737546712	5.5880380472
343.568	2550	183.036756444	5.4739964544
343.575	3000	180.2997582168	5.4739964544
343.588	3540	178.3610511392	5.3599548616
343.601	4040	175.7380945048	5.2459132688
343.61	4540	173.2291794632	5.2459132688
343.623	5040	171.7466387568	5.131871676
343.621	5510	169.6938900864	5.131871676
343.64	6050	168.4394325656	5.0178300832
343.642	6590	166.6147670808	5.0178300832
343.641	7070	165.2462679672	5.0178300832
343.639	7510	163.8777688536	4.9037884904
343.637	8090	162.1671449616	4.9037884904
343.651	8480	160.9126874408	4.7897468976
343.627	9080	160.0003546984	4.7897468976
343.627	9530	159.088021956	4.7897468976
343.619	10070	157.6054812496	4.7897468976
353.552	2550	196.4936643944	5.9301628256
353.584	3040	192.0460422752	5.8161212328
353.553	3510	188.3967113056	5.70207964
353.656	4050	184.5192971504	5.5880380472
353.644	4520	181.4401741448	5.4739964544
353.614	5010	178.3610511392	5.3599548616
353.606	5510	176.5363856544	5.3599548616
353.619	6040	175.1678865408	5.2459132688
353.639	6530	173.6853458344	5.2459132688
353.644	7050	172.5449299064	5.131871676
353.655	7500	171.632597164	5.131871676
353.647	7970	170.7202644216	5.131871676
353.668	8480	170.0360148648	5.131871676
353.681	9030	168.6675157512	5.0178300832
353.68	9510	168.21134938	5.0178300832
353.682	10090	166.9568918592	5.0178300832
363.57	3000	219.53006614	6.6144123824
363.557	3500	207.6697404888	6.272287604
363.563	4000	200.0289537712	6.0442044184
363.605	4510	194.7830405024	5.8161212328
363.62	4990	190.3354183832	5.70207964
363.614	5520	186.458004228	5.5880380472
363.629	6020	182.8086732584	5.4739964544
363.638	6520	180.185716624	5.3599548616
363.639	6990	177.334676804	5.3599548616
363.644	7530	175.053844948	5.2459132688
363.641	8010	173.1151378704	5.2459132688
363.646	8530	171.4045139784	5.131871676
363.654	9050	170.1500564576	5.131871676
363.656	9450	169.0096405296	5.131871676
363.663	9990	167.7551830088	5.0178300832
373.345	3540	259.44462362	7.982911496
373.415	4030	231.7325165696	7.0705787536
373.423	4510	216.9071095056	6.6144123824
373.429	5010	206.415282968	6.272287604
373.445	5540	199.2306626216	6.0442044184
373.474	6020	194.0987909456	5.8161212328
373.485	6530	189.5371272336	5.70207964
373.482	7010	185.6597130784	5.5880380472
373.493	7500	183.036756444	5.4739964544
373.503	8030	179.61550866	5.3599548616
373.515	8510	177.4487183968	5.3599548616
373.557	9050	175.3959697264	5.2459132688
373.571	9430	174.483636984	5.2459132688
373.586	9990	172.6589714992	5.131871676
391.655	4520	525.5036596224	20.7555698896
392.199	5020	310.9914235656	12.7726583936
392.375	5470	257.733999728	8.2109946816
392.456	6010	226.372561708	6.9565371608
392.521	6540	210.0646139376	6.3863291968
392.572	7060	200.5991617352	6.0442044184
392.595	7560	194.5549573168	5.8161212328
392.633	8030	191.01966794	5.70207964
392.673	8510	189.879252012	5.70207964
392.717	9070	188.0545865272	5.70207964
392.767	9520	188.5107528984	5.70207964
392.769	10010	187.4843785632	5.5880380472
392.753	10000	187.028212192	5.5880380472
