Measured thermophysical data. Liquid Liquid Equilibria for the Ternary Systems of Water + Butane-2,3-diol + 2-Methylbutan-1-ol, 2-Ethylbutan-1-ol, and 4-Methylpentan-2-ol at 298.15 and 308.15 K
Source: J. Chem. Eng. Data, 2017, 10.1021/acs.jced.6b00945
Compound 1: 2,3-butanediol, C4H10O2, InChI=1S/C4H10O2/c1-3(5)4(2)6/h3-6H,1-2H3, purity 98%
Compound 2: 2-methyl-1-butanol, C5H12O, InChI=1S/C5H12O/c1-3-5(2)4-6/h5-6H,3-4H2,1-2H3, purity 99%
Compound 3: 2-ethyl-1-butanol, C6H14O, InChI=1S/C6H14O/c1-3-6(4-2)5-7/h6-7H,3-5H2,1-2H3, purity 99%
Compound 4: 4-methyl-2-pentanol, C6H14O, InChI=1S/C6H14O/c1-5(2)4-6(3)7/h5-7H,4H2,1-3H3, purity 99%
Compound 5: water, H2O, InChI=1S/H2O/h1H2, purity 99.8%

System: 2-methyl-1-butanol + 2,3-butanediol + water; phases: Liquid mixture 2, Liquid mixture 1
Fixed: Pressure, kPa = 100
Property: Mole fraction of 2,3-butanediol (Liquid mixture 2); method: Chromatography
Property: Mole fraction of 2-methyl-1-butanol (Liquid mixture 1); method: Chromatography
Property: Mole fraction of 2,3-butanediol (Liquid mixture 1); method: Chromatography
Temperature, K	Mole fraction of 2-methyl-1-butanol	Mole fraction of 2,3-butanediol	uncertainty	Mole fraction of 2-methyl-1-butanol	uncertainty	Mole fraction of 2,3-butanediol	uncertainty
298.15	0.4681	0.0965	0.0022	0.0106	0.0021	0.0565	
308.15	0.6053	0.0269	0.0022	0.0052	0.002	0.0134	
298.15	0.4946	0.087	0.0022	0.009	0.002	0.0493	
298.15	0.5246	0.0762	0.0022	0.008	0.002	0.0423	
298.15	0.5612	0.0593	0.0022	0.0066	0.002	0.0323	
298.15	0.5969	0.0436	0.0022	0.0056	0.002	0.0234	
298.15	0.6315	0.0275	0.0022	0.0049	0.002	0.0144	
298.15	0.6732	0.0077	0.0022	0.0043	0.002	0.004	
308.15	0.424	0.101	0.0022	0.0137	0.0021	0.0619	
308.15	0.4439	0.0938	0.0022	0.0111	0.002	0.055	
298.15	0.6838	0		0.0057	0.002	0	
308.15	0.4709	0.0856	0.0022	0.0139	0.002	0.0448	
308.15	0.4959	0.0764	0.0022	0.0087	0.0022	0.0416	
308.15	0.5342	0.0617	0.0022	0.0069	0.002	0.0317	
308.15	0.567	0.0437	0.0023	0.006	0.002	0.0216	

System: 2-methyl-1-butanol + 2,3-butanediol + water; phases: Liquid mixture 1, Liquid mixture 2
Fixed: Pressure, kPa = 100
Property: Mole fraction of 2,3-butanediol (Liquid mixture 1); method: Chromatography
Temperature, K	Mole fraction of water	Mole fraction of 2,3-butanediol	uncertainty
298.15	0.3387	0.0395	0.0395
298.15	0.4115	0.0822	0.0429
298.15	0.4554	0.0996	0.0408
298.15	0.4637	0.1158	0.0406
298.15	0.493	0.1257	0.0409
298.15	0.5489	0.1355	0.0382
298.15	0.6193	0.1394	0.038
298.15	0.7208	0.1307	0.0382
298.15	0.7705	0.1223	0.0387
298.15	0.824	0.1108	0.0399
298.15	0.8921	0.084	0.0425
298.15	0.9199	0.0673	0.0417
298.15	0.9298	0.0591	0.0423
298.15	0.9375	0.053	0.046
308.15	0.382	0.0438	0.0438
308.15	0.3948	0.0542	0.0458
308.15	0.4241	0.0777	0.0461
308.15	0.4808	0.112	0.0414
308.15	0.5261	0.1211	0.0385
308.15	0.5689	0.1256	0.0381
308.15	0.6298	0.1294	0.038
308.15	0.6858	0.1255	0.0383
308.15	0.7585	0.113	0.0388
308.15	0.8208	0.0984	0.039
308.15	0.8548	0.09	0.0395
308.15	0.8795	0.0846	0.0412
308.15	0.9141	0.0688	0.0404
308.15	0.9435	0.0477	0.0439

System: 2-ethyl-1-butanol + 2,3-butanediol + water; phases: Liquid mixture 2, Liquid mixture 1
Fixed: Pressure, kPa = 100
Property: Mole fraction of 2,3-butanediol (Liquid mixture 2); method: Chromatography
Property: Mole fraction of 2-ethyl-1-butanol (Liquid mixture 1); method: Chromatography
Property: Mole fraction of 2,3-butanediol (Liquid mixture 1); method: Chromatography
Temperature, K	Mole fraction of 2-ethyl-1-butanol	Mole fraction of 2,3-butanediol	uncertainty	Mole fraction of 2-ethyl-1-butanol	uncertainty	Mole fraction of 2,3-butanediol	uncertainty
298.15	0.5615	0.0996	0.0024	0.003	0.002	0.0539	
298.15	0.6471	0.0453	0.0024	0.0022	0.002	0.0264	
298.15	0.6711	0.0296	0.0024	0.002	0.002	0.0176	
298.15	0.7034	0.0085	0.0024	0.0018	0.0018	0.0052	
308.15	0.5262	0.1118	0.0024	0.0036	0.002	0.0596	
308.15	0.5471	0.1001	0.0024	0.0032	0.002	0.0529	
298.15	0.7199	0		0.0019	0.0019	0	
308.15	0.5666	0.0879	0.0025	0.0028	0.002	0.0468	
308.15	0.5891	0.0731	0.0024	0.0026	0.002	0.0393	
308.15	0.606	0.0623	0.0025	0.0024	0.002	0.0332	
308.15	0.6237	0.0494	0.0025	0.0022	0.002	0.0263	
308.15	0.6461	0.0327	0.0025	0.0021	0.002	0.0175	
298.15	0.5851	0.086	0.0024	0.0027	0.002	0.0475	
298.15	0.6026	0.0733	0.0025	0.0025	0.002	0.0409	
298.15	0.6232	0.0598	0.0024	0.0023	0.002	0.0339	

System: 2-ethyl-1-butanol + 2,3-butanediol + water; phases: Liquid mixture 1, Liquid mixture 2
Fixed: Pressure, kPa = 100
Property: Mole fraction of 2,3-butanediol (Liquid mixture 1); method: Chromatography
Temperature, K	Mole fraction of water	Mole fraction of 2,3-butanediol	uncertainty
298.15	0.2862	0.0698	0.0614
298.15	0.2958	0.0599	0.0599
298.15	0.337	0.1147	0.0577
298.15	0.3729	0.1372	0.0608
298.15	0.3831	0.143	0.0519
298.15	0.4279	0.1726	0.0483
298.15	0.4732	0.1865	0.0485
298.15	0.5304	0.1904	0.046
298.15	0.599	0.189	0.0464
298.15	0.7067	0.1695	0.0469
298.15	0.7747	0.1547	0.0475
298.15	0.8009	0.1463	0.0503
298.15	0.8305	0.1371	0.0528
298.15	0.9062	0.0819	0.0569
308.15	0.3147	0.0303	0.0303
308.15	0.3205	0.0465	0.0465
308.15	0.3489	0.1025	0.055
308.15	0.3704	0.1231	0.0576
308.15	0.4036	0.1383	0.0515
308.15	0.4608	0.1591	0.047
308.15	0.5742	0.1763	0.0464
308.15	0.6208	0.1775	0.0461
308.15	0.667	0.1696	0.047
308.15	0.7272	0.1553	0.0473
308.15	0.7751	0.144	0.0479
308.15	0.8347	0.1245	0.0509
308.15	0.862	0.1113	0.0492
308.15	0.8976	0.0861	0.0539

System: 4-methyl-2-pentanol + 2,3-butanediol + water; phases: Liquid mixture 2, Liquid mixture 1
Fixed: Pressure, kPa = 100
Property: Mole fraction of 2,3-butanediol (Liquid mixture 2); method: Chromatography
Property: Mole fraction of 4-methyl-2-pentanol (Liquid mixture 1); method: Chromatography
Property: Mole fraction of 2,3-butanediol (Liquid mixture 1); method: Chromatography
Temperature, K	Mole fraction of 4-methyl-2-pentanol	Mole fraction of 2,3-butanediol	uncertainty	Mole fraction of 4-methyl-2-pentanol	uncertainty	Mole fraction of 2,3-butanediol	uncertainty
298.15	0.5401	0.0965	0.0023	0.0038	0.002	0.0605	
298.15	0.6505	0.0248	0.0025	0.0022	0.002	0.0143	
298.15	0.6647	0.0125	0.0025	0.002	0.002	0.0071	
298.15	0.6772	0.004	0.0024	0.0018	0.0018	0.0023	
308.15	0.455	0.1151	0.0023	0.0073	0.002	0.0741	
308.15	0.4882	0.1041	0.0022	0.0051	0.002	0.0634	
298.15	0.6964	0		0.0031	0.002	0	
308.15	0.5217	0.0918	0.0022	0.0047	0.002	0.0573	
308.15	0.5453	0.0817	0.0023	0.0041	0.002	0.0517	
308.15	0.5694	0.0667	0.0024	0.0035	0.002	0.0399	
308.15	0.6011	0.049	0.0024	0.0031	0.002	0.0279	
308.15	0.6369	0.0259	0.0024	0.0027	0.002	0.0142	
298.15	0.5728	0.08	0.0024	0.0033	0.002	0.0493	
298.15	0.5981	0.0629	0.0025	0.0029	0.002	0.038	
298.15	0.6279	0.0414	0.0025	0.0025	0.002	0.0246	

System: 4-methyl-2-pentanol + 2,3-butanediol + water; phases: Liquid mixture 1, Liquid mixture 2
Fixed: Pressure, kPa = 100
Property: Mole fraction of 2,3-butanediol (Liquid mixture 1); method: Chromatography
Temperature, K	Mole fraction of water	Mole fraction of 2,3-butanediol	uncertainty
298.15	0.3366	0.0695	0.0665
298.15	0.358	0.0935	0.0572
298.15	0.3785	0.1045	0.0574
298.15	0.3947	0.1205	0.0602
298.15	0.4312	0.1341	0.0532
298.15	0.4515	0.1465	0.0522
298.15	0.5389	0.1653	0.0503
298.15	0.6283	0.1638	0.0502
298.15	0.6562	0.1622	0.0502
298.15	0.7272	0.1501	0.0506
298.15	0.782	0.1422	0.0513
298.15	0.8184	0.1344	0.0507
298.15	0.8459	0.1233	0.0521
298.15	0.8608	0.1168	0.0525
308.15	0.3398	0.0437	0.0437
308.15	0.3622	0.0833	0.0564
308.15	0.3804	0.098	0.0548
308.15	0.3987	0.1101	0.0635
308.15	0.4504	0.1295	0.052
308.15	0.477	0.1423	0.052
308.15	0.5742	0.1614	0.0505
308.15	0.6445	0.1658	0.0501
308.15	0.742	0.1505	0.0509
308.15	0.7733	0.1444	0.0513
308.15	0.8058	0.1343	0.0532
308.15	0.8498	0.117	0.0559
308.15	0.8846	0.0995	0.0547
308.15	0.919	0.0715	0.0598

System: 2-methyl-1-butanol + water; phases: Liquid mixture 1, Liquid mixture 2
Property: Mole fraction of 2-methyl-1-butanol (Liquid mixture 1); method: Chromatography
Temperature, K	Pressure, kPa	Mole fraction of 2-methyl-1-butanol	uncertainty
298.15	100	0.0057	0.002

System: 2-methyl-1-butanol + water; phases: Liquid mixture 2, Liquid mixture 1
Property: Mole fraction of 2-methyl-1-butanol (Liquid mixture 2); method: Chromatography
Pressure, kPa	Temperature, K	Mole fraction of 2-methyl-1-butanol	uncertainty
100	298.15	0.6838	0.003

System: 2-ethyl-1-butanol + water; phases: Liquid mixture 1, Liquid mixture 2
Property: Mole fraction of 2-ethyl-1-butanol (Liquid mixture 1); method: Chromatography
Temperature, K	Pressure, kPa	Mole fraction of 2-ethyl-1-butanol	uncertainty
298.15	100	0.0019	0.0019

System: 2-ethyl-1-butanol + water; phases: Liquid mixture 2, Liquid mixture 1
Property: Mole fraction of 2-ethyl-1-butanol (Liquid mixture 2); method: Chromatography
Pressure, kPa	Temperature, K	Mole fraction of 2-ethyl-1-butanol	uncertainty
100	298.15	0.7199	0.0028

System: 4-methyl-2-pentanol + water; phases: Liquid mixture 1, Liquid mixture 2
Property: Mole fraction of 4-methyl-2-pentanol (Liquid mixture 1); method: Chromatography
Temperature, K	Pressure, kPa	Mole fraction of 4-methyl-2-pentanol	uncertainty
298.15	100	0.0031	0.002

System: 4-methyl-2-pentanol + water; phases: Liquid mixture 2, Liquid mixture 1
Property: Mole fraction of 4-methyl-2-pentanol (Liquid mixture 2); method: Chromatography
Pressure, kPa	Temperature, K	Mole fraction of 4-methyl-2-pentanol	uncertainty
100	298.15	0.6964	0.0029
