Measured thermophysical data. Densities and Viscosities of Sugar Alcohols in Vitamin B6 Aqueous Solutions at (293.15 to 323.15) K
Source: J. Chem. Eng. Data, 2015, 10.1021/acs.jced.5b00114
Compound 1: 5-hydroxy-6-methyl-3,4-pyridinedimethanol hydrochloride, C8H12ClNO3, InChI=1S/C8H11NO3.ClH/c1-5-8(12)7(4-11)6(3-10)2-9-5;/h2,10-12H,3-4H2,1H3;1H, purity 99%
Compound 2: meso-1,2,3,4-butanetetrol, C4H10O4, InChI=1S/C4H10O4/c5-1-3(7)4(8)2-6/h3-8H,1-2H2/t3-,4+, purity 99.5%
Compound 3: xylitol, C5H12O5, InChI=1S/C5H12O5/c6-1-3(8)5(10)4(9)2-7/h3-10H,1-2H2/t3-,4+,5+, purity 99%
Compound 4: D-sorbitol, C6H14O6, InChI=1S/C6H14O6/c7-1-3(9)5(11)6(12)4(10)2-8/h3-12H,1-2H2/t3-,4+,5-,6-/m1/s1, purity 99%
Compound 5: 4-O-.alpha.-D-glucopyranosyl-D-glucitol, C12H24O11, InChI=1S/C12H24O11/c13-1-4(16)7(18)11(5(17)2-14)23-12-10(21)9(20)8(19)6(3-15)22-12/h4-21H,1-3H2/t4-,5+,6+,7+,8+,9-,10+,11+,12+/m0/s1, purity 99%
Compound 6: water, H2O, InChI=1S/H2O/h1H2

System: 5-hydroxy-6-methyl-3,4-pyridinedimethanol hydrochloride + meso-1,2,3,4-butanetetrol + water; phases: Liquid
Fixed: Pressure, kPa = 101
Property: Mass density, kg/m3 (Liquid); method: Vibrating tube method
Solvent: Molality, mol/kg of 5-hydroxy-6-methyl-3,4-pyridinedimethanol hydrochloride	Temperature, K	Molality, mol/kg of meso-1,2,3,4-butanetetrol	Mass density, kg/m3	uncertainty
0.1	293.15	0	1004.23	1
0.1	293.15	0.1998	1011.16	1
0.1	293.15	0.4002	1017.85	1
0.1	293.15	0.5966	1024.19	1
0.1	293.15	0.8004	1030.51	1.01
0.1	293.15	0.9996	1036.51	1.01
0.1	303.15	0	1001.57	1
0.1	303.15	0.1998	1008.42	1
0.1	303.15	0.4002	1015.02	1
0.1	303.15	0.5966	1021.26	1
0.1	303.15	0.8004	1027.47	1.01
0.1	303.15	0.9996	1033.32	1.01
0.1	313.15	0	998.04	1
0.1	313.15	0.1998	1004.79	1
0.1	313.15	0.4002	1011.3	1
0.1	313.15	0.5966	1017.45	1
0.1	313.15	0.8004	1023.62	1.01
0.1	313.15	0.9996	1029.41	1.01
0.1	323.15	0	993.81	1
0.1	323.15	0.1998	1000.48	1
0.1	323.15	0.4002	1006.92	1
0.1	323.15	0.5966	1012.99	1
0.1	323.15	0.8004	1019.06	1
0.1	323.15	0.9996	1024.79	1.01
0.1992	293.15	0	1010	1
0.1992	293.15	0.2008	1016.88	1
0.1992	293.15	0.4022	1023.53	1
0.1992	293.15	0.5983	1029.78	1.01
0.1992	293.15	0.7961	1035.86	1.01
0.1992	293.15	0.9978	1041.85	1.01
0.1992	303.15	0	1007.23	1
0.1992	303.15	0.2008	1014.04	1
0.1992	303.15	0.4022	1020.59	1
0.1992	303.15	0.5983	1026.75	1.01
0.1992	303.15	0.7961	1032.71	1.01
0.1992	303.15	0.9978	1038.57	1.01
0.1992	313.15	0	1003.65	1
0.1992	313.15	0.2008	1010.36	1
0.1992	313.15	0.4022	1016.83	1
0.1992	313.15	0.5983	1022.88	1.01
0.1992	313.15	0.7961	1028.78	1.01
0.1992	313.15	0.9978	1034.6	1.01
0.1992	323.15	0	999.27	1
0.1992	323.15	0.2008	1005.92	1
0.1992	323.15	0.4022	1012.33	1
0.1992	323.15	0.5983	1018.35	1
0.1992	323.15	0.7961	1024.2	1.01
0.1992	323.15	0.9978	1029.98	1.01
0.3	293.15	0	1015.67	1
0.3	293.15	0.1999	1022.46	1
0.3	293.15	0.4	1029	1.01
0.3	293.15	0.6	1035.3	1.01
0.3	293.15	0.8	1041.37	1.01
0.3	293.15	1.0001	1047.24	1.01
0.3	303.15	0	1012.81	1
0.3	303.15	0.1999	1019.51	1
0.3	303.15	0.4	1025.96	1.01
0.3	303.15	0.6	1032.16	1.01
0.3	303.15	0.8	1038.12	1.01
0.3	303.15	1.0001	1043.88	1.01
0.3	313.15	0	1009.15	1
0.3	313.15	0.1999	1015.76	1
0.3	313.15	0.4	1022.13	1.01
0.3	313.15	0.6	1028.27	1.01
0.3	313.15	0.8	1034.16	1.01
0.3	313.15	1.0001	1039.86	1.01
0.3	323.15	0	1004.74	1
0.3	323.15	0.1999	1011.29	1
0.3	323.15	0.4	1017.61	1
0.3	323.15	0.6	1023.66	1.01
0.3	323.15	0.8	1029.52	1.01
0.3	323.15	1.0001	1035.16	1.01
0.3999	293.15	0	1021.12	1
0.3999	293.15	0.2	1027.82	1.01
0.3999	293.15	0.4001	1034.28	1.01
0.3999	293.15	0.6	1040.52	1.01
0.3999	293.15	0.8	1046.52	1.01
0.3999	293.15	0.998	1052.27	1.01
0.3999	303.15	0	1018.15	1
0.3999	303.15	0.2	1024.79	1.01
0.3999	303.15	0.4001	1031.17	1.01
0.3999	303.15	0.6	1037.31	1.01
0.3999	303.15	0.8	1043.22	1.01
0.3999	303.15	0.998	1048.86	1.01
0.3999	313.15	0	1014.45	1
0.3999	313.15	0.2	1020.98	1
0.3999	313.15	0.4001	1027.27	1.01
0.3999	313.15	0.6	1033.33	1.01
0.3999	313.15	0.8	1039.18	1.01
0.3999	313.15	0.998	1044.73	1.01
0.3999	323.15	0	1010.01	1
0.3999	323.15	0.2	1016.5	1
0.3999	323.15	0.4001	1022.75	1.01
0.3999	323.15	0.6	1028.75	1.01
0.3999	323.15	0.8	1034.54	1.01
0.3999	323.15	0.998	1040.04	1.01

System: 5-hydroxy-6-methyl-3,4-pyridinedimethanol hydrochloride + meso-1,2,3,4-butanetetrol + water; phases: Liquid
Fixed: Pressure, kPa = 101
Property: Viscosity, Pa*s (Liquid); method: Capillary tube (Ostwald; Ubbelohde) method
Solvent: Molality, mol/kg of 5-hydroxy-6-methyl-3,4-pyridinedimethanol hydrochloride	Temperature, K	Molality, mol/kg of meso-1,2,3,4-butanetetrol	Viscosity, Pa*s	uncertainty
0.1	293.15	0	0.001044	2.2e-05
0.1	293.15	0.1998	0.001111	2.3e-05
0.1	293.15	0.4002	0.001182	2.5e-05
0.1	293.15	0.5966	0.001255	2.6e-05
0.1	293.15	0.8004	0.001335	2.8e-05
0.1	293.15	0.9996	0.001418	3e-05
0.1	303.15	0	0.00083	1.7e-05
0.1	303.15	0.1998	0.000879	1.9e-05
0.1	303.15	0.4002	0.000931	2e-05
0.1	303.15	0.5966	0.000984	2.1e-05
0.1	303.15	0.8004	0.001045	2.2e-05
0.1	303.15	0.9996	0.001102	2.3e-05
0.1	313.15	0	0.000679	1.4e-05
0.1	313.15	0.1998	0.000716	1.5e-05
0.1	313.15	0.4002	0.000756	1.6e-05
0.1	313.15	0.5966	0.000796	1.7e-05
0.1	313.15	0.8004	0.000839	1.8e-05
0.1	313.15	0.9996	0.000884	1.9e-05
0.1	323.15	0	0.000568	1.2e-05
0.1	323.15	0.1998	0.000597	1.3e-05
0.1	323.15	0.4002	0.000627	1.3e-05
0.1	323.15	0.5966	0.000658	1.4e-05
0.1	323.15	0.8004	0.000692	1.5e-05
0.1	323.15	0.9996	0.000726	1.5e-05
0.1992	293.15	0	0.001084	2.3e-05
0.1992	293.15	0.2008	0.001155	2.4e-05
0.1992	293.15	0.4022	0.00123	2.6e-05
0.1992	293.15	0.5983	0.001307	2.7e-05
0.1992	293.15	0.7961	0.001389	2.9e-05
0.1992	293.15	0.9978	0.001477	3.1e-05
0.1992	303.15	0	0.000861	1.8e-05
0.1992	303.15	0.2008	0.000913	1.9e-05
0.1992	303.15	0.4022	0.000968	2e-05
0.1992	303.15	0.5983	0.001024	2.2e-05
0.1992	303.15	0.7961	0.001083	2.3e-05
0.1992	303.15	0.9978	0.001147	2.4e-05
0.1992	313.15	0	0.000703	1.5e-05
0.1992	313.15	0.2008	0.000743	1.6e-05
0.1992	313.15	0.4022	0.000785	1.7e-05
0.1992	313.15	0.5983	0.000828	1.7e-05
0.1992	313.15	0.7961	0.000871	1.8e-05
0.1992	313.15	0.9978	0.000918	1.9e-05
0.1992	323.15	0	0.000587	1.2e-05
0.1992	323.15	0.2008	0.000618	1.3e-05
0.1992	323.15	0.4022	0.00065	1.4e-05
0.1992	323.15	0.5983	0.000683	1.4e-05
0.1992	323.15	0.7961	0.000717	1.5e-05
0.1992	323.15	0.9978	0.000753	1.6e-05
0.3	293.15	0	0.001127	2.4e-05
0.3	293.15	0.1999	0.001201	2.5e-05
0.3	293.15	0.4	0.001279	2.7e-05
0.3	293.15	0.6	0.001362	2.9e-05
0.3	293.15	0.8	0.001449	3e-05
0.3	293.15	1.0001	0.00154	3.2e-05
0.3	303.15	0	0.000893	1.9e-05
0.3	303.15	0.1999	0.000948	2e-05
0.3	303.15	0.4	0.001005	2.1e-05
0.3	303.15	0.6	0.001065	2.2e-05
0.3	303.15	0.8	0.001128	2.4e-05
0.3	303.15	1.0001	0.001193	2.5e-05
0.3	313.15	0	0.000729	1.5e-05
0.3	313.15	0.1999	0.00077	1.6e-05
0.3	313.15	0.4	0.000813	1.7e-05
0.3	313.15	0.6	0.000859	1.8e-05
0.3	313.15	0.8	0.000905	1.9e-05
0.3	313.15	1.0001	0.000955	2e-05
0.3	323.15	0	0.000608	1.3e-05
0.3	323.15	0.1999	0.000641	1.4e-05
0.3	323.15	0.4	0.000674	1.4e-05
0.3	323.15	0.6	0.000708	1.5e-05
0.3	323.15	0.8	0.000744	1.6e-05
0.3	323.15	1.0001	0.000782	1.6e-05
0.3999	293.15	0	0.001169	2.5e-05
0.3999	293.15	0.2	0.001247	2.6e-05
0.3999	293.15	0.4001	0.001329	2.8e-05
0.3999	293.15	0.6	0.001416	3e-05
0.3999	293.15	0.8	0.001508	3.2e-05
0.3999	293.15	0.998	0.001603	3.4e-05
0.3999	303.15	0	0.000926	1.9e-05
0.3999	303.15	0.2	0.000983	2.1e-05
0.3999	303.15	0.4001	0.001043	2.2e-05
0.3999	303.15	0.6	0.001106	2.3e-05
0.3999	303.15	0.8	0.001172	2.5e-05
0.3999	303.15	0.998	0.001241	2.6e-05
0.3999	313.15	0	0.000755	1.6e-05
0.3999	313.15	0.2	0.000798	1.7e-05
0.3999	313.15	0.4001	0.000843	1.8e-05
0.3999	313.15	0.6	0.000891	1.9e-05
0.3999	313.15	0.8	0.00094	2e-05
0.3999	313.15	0.998	0.000991	2.1e-05
0.3999	323.15	0	0.000629	1.3e-05
0.3999	323.15	0.2	0.000663	1.4e-05
0.3999	323.15	0.4001	0.000697	1.5e-05
0.3999	323.15	0.6	0.000734	1.5e-05
0.3999	323.15	0.8	0.000772	1.6e-05
0.3999	323.15	0.998	0.00081	1.7e-05

System: 5-hydroxy-6-methyl-3,4-pyridinedimethanol hydrochloride + xylitol + water; phases: Liquid
Fixed: Pressure, kPa = 101
Property: Mass density, kg/m3 (Liquid); method: Vibrating tube method
Solvent: Molality, mol/kg of 5-hydroxy-6-methyl-3,4-pyridinedimethanol hydrochloride	Temperature, K	Molality, mol/kg of xylitol	Mass density, kg/m3	uncertainty
0.0999	293.15	0	1004.23	1.01
0.0999	293.15	0.2007	1014.07	1.01
0.0999	293.15	0.3958	1023.25	1.01
0.0999	293.15	0.5982	1032.35	1.01
0.0999	293.15	0.7989	1041.02	1.01
0.0999	293.15	1.0028	1049.41	1.01
0.0999	303.15	0	1001.56	1.01
0.0999	303.15	0.2007	1011.24	1.01
0.0999	303.15	0.3958	1020.25	1.01
0.0999	303.15	0.5982	1029.2	1.01
0.0999	303.15	0.7989	1037.74	1.01
0.0999	303.15	1.0028	1045.97	1.01
0.0999	313.15	0	998.03	1.01
0.0999	313.15	0.2007	1007.6	1.01
0.0999	313.15	0.3958	1016.47	1.01
0.0999	313.15	0.5982	1025.29	1.01
0.0999	313.15	0.7989	1033.68	1.01
0.0999	313.15	1.0028	1041.81	1.01
0.0999	323.15	0	993.8	1.01
0.0999	323.15	0.2007	1003.23	1.01
0.0999	323.15	0.3958	1012	1.01
0.0999	323.15	0.5982	1020.73	1.01
0.0999	323.15	0.7989	1029.05	1.01
0.0999	323.15	1.0028	1037.09	1.01
0.2025	293.15	0	1010.19	1.01
0.2025	293.15	0.1999	1019.91	1.01
0.2025	293.15	0.3953	1029.01	1.01
0.2025	293.15	0.5997	1038.12	1.01
0.2025	293.15	0.7965	1046.51	1.01
0.2025	293.15	1.002	1054.94	1.01
0.2025	303.15	0	1007.42	1.01
0.2025	303.15	0.1999	1016.98	1.01
0.2025	303.15	0.3953	1025.92	1.01
0.2025	303.15	0.5997	1034.89	1.01
0.2025	303.15	0.7965	1043.13	1.01
0.2025	303.15	1.002	1051.38	1.01
0.2025	313.15	0	1003.85	1.01
0.2025	313.15	0.1999	1013.26	1.01
0.2025	313.15	0.3953	1022.07	1.01
0.2025	313.15	0.5997	1030.91	1.01
0.2025	313.15	0.7965	1039.03	1.01
0.2025	313.15	1.002	1047.17	1.01
0.2025	323.15	0	999.49	1.01
0.2025	323.15	0.1999	1008.79	1.01
0.2025	323.15	0.3953	1017.51	1.01
0.2025	323.15	0.5997	1026.23	1.01
0.2025	323.15	0.7965	1034.3	1.01
0.2025	323.15	1.002	1042.37	1.01
0.3014	293.15	0	1015.74	1.01
0.3014	293.15	0.2001	1025.4	1.01
0.3014	293.15	0.4	1034.64	1.01
0.3014	293.15	0.5919	1043.11	1.01
0.3014	293.15	0.7948	1051.68	1.01
0.3014	293.15	0.9972	1059.87	1.01
0.3014	303.15	0	1012.88	1.01
0.3014	303.15	0.2001	1022.38	1.01
0.3014	303.15	0.4	1031.46	1.01
0.3014	303.15	0.5919	1039.78	1.01
0.3014	303.15	0.7948	1048.22	1.01
0.3014	303.15	0.9972	1056.27	1.01
0.3014	313.15	0	1009.21	1.01
0.3014	313.15	0.2001	1018.57	1.01
0.3014	313.15	0.4	1027.51	1.01
0.3014	313.15	0.5919	1035.71	1.01
0.3014	313.15	0.7948	1044.06	1.01
0.3014	313.15	0.9972	1052.01	1.01
0.3014	323.15	0	1004.83	1.01
0.3014	323.15	0.2001	1014.07	1.01
0.3014	323.15	0.4	1022.92	1.01
0.3014	323.15	0.5919	1031.04	1.01
0.3014	323.15	0.7948	1039.3	1.01
0.3014	323.15	0.9972	1047.19	1.01
0.4001	293.15	0	1021.16	1.01
0.4001	293.15	0.1995	1030.71	1.01
0.4001	293.15	0.4011	1039.92	1.01
0.4001	293.15	0.5951	1048.41	1.01
0.4001	293.15	0.7992	1056.93	1.01
0.4001	293.15	0.9904	1064.62	1.01
0.4001	303.15	0	1018.19	1.01
0.4001	303.15	0.1995	1027.58	1.01
0.4001	303.15	0.4011	1036.64	1.01
0.4001	303.15	0.5951	1044.98	1.01
0.4001	303.15	0.7992	1053.41	1.01
0.4001	303.15	0.9904	1060.93	1.01
0.4001	313.15	0	1014.46	1.01
0.4001	313.15	0.1995	1023.72	1.01
0.4001	313.15	0.4011	1032.64	1.01
0.4001	313.15	0.5951	1040.87	1.01
0.4001	313.15	0.7992	1049.15	1.01
0.4001	313.15	0.9904	1056.62	1.01
0.4001	323.15	0	1010.02	1.01
0.4001	323.15	0.1995	1019.16	1.01
0.4001	323.15	0.4011	1028	1.01
0.4001	323.15	0.5951	1036.16	1.01
0.4001	323.15	0.7992	1044.37	1.01
0.4001	323.15	0.9904	1051.75	1.01

System: 5-hydroxy-6-methyl-3,4-pyridinedimethanol hydrochloride + xylitol + water; phases: Liquid
Fixed: Pressure, kPa = 101
Property: Viscosity, Pa*s (Liquid); method: Capillary tube (Ostwald; Ubbelohde) method
Solvent: Molality, mol/kg of 5-hydroxy-6-methyl-3,4-pyridinedimethanol hydrochloride	Temperature, K	Molality, mol/kg of xylitol	Viscosity, Pa*s	uncertainty
0.0999	293.15	0	0.001044	2.2e-05
0.0999	293.15	0.2007	0.001126	2.4e-05
0.0999	293.15	0.3958	0.001213	2.6e-05
0.0999	293.15	0.5982	0.001308	2.8e-05
0.0999	293.15	0.7989	0.001411	3e-05
0.0999	293.15	1.0028	0.001523	3.2e-05
0.0999	303.15	0	0.000829	1.8e-05
0.0999	303.15	0.2007	0.00089	1.9e-05
0.0999	303.15	0.3958	0.000954	2e-05
0.0999	303.15	0.5982	0.001024	2.2e-05
0.0999	303.15	0.7989	0.001099	2.3e-05
0.0999	303.15	1.0028	0.00118	2.5e-05
0.0999	313.15	0	0.000678	1.4e-05
0.0999	313.15	0.2007	0.000725	1.5e-05
0.0999	313.15	0.3958	0.000774	1.6e-05
0.0999	313.15	0.5982	0.000827	1.8e-05
0.0999	313.15	0.7989	0.000883	1.9e-05
0.0999	313.15	1.0028	0.000944	2e-05
0.0999	323.15	0	0.000568	1.2e-05
0.0999	323.15	0.2007	0.000604	1.3e-05
0.0999	323.15	0.3958	0.000641	1.4e-05
0.0999	323.15	0.5982	0.000683	1.5e-05
0.0999	323.15	0.7989	0.000726	1.5e-05
0.0999	323.15	1.0028	0.000773	1.6e-05
0.2025	293.15	0	0.001085	2.3e-05
0.2025	293.15	0.1999	0.001172	2.5e-05
0.2025	293.15	0.3953	0.001263	2.7e-05
0.2025	293.15	0.5997	0.001366	2.9e-05
0.2025	293.15	0.7965	0.001473	3.1e-05
0.2025	293.15	1.002	0.001592	3.4e-05
0.2025	303.15	0	0.000862	1.8e-05
0.2025	303.15	0.1999	0.000925	2e-05
0.2025	303.15	0.3953	0.000992	2.1e-05
0.2025	303.15	0.5997	0.001067	2.3e-05
0.2025	303.15	0.7965	0.001145	2.4e-05
0.2025	303.15	1.002	0.001231	2.6e-05
0.2025	313.15	0	0.000704	1.5e-05
0.2025	313.15	0.1999	0.000754	1.6e-05
0.2025	313.15	0.3953	0.000804	1.7e-05
0.2025	313.15	0.5997	0.000861	1.8e-05
0.2025	313.15	0.7965	0.000919	1.9e-05
0.2025	313.15	1.002	0.000983	2.1e-05
0.2025	323.15	0	0.000589	1.3e-05
0.2025	323.15	0.1999	0.000626	1.3e-05
0.2025	323.15	0.3953	0.000665	1.4e-05
0.2025	323.15	0.5997	0.00071	1.5e-05
0.2025	323.15	0.7965	0.000754	1.6e-05
0.2025	323.15	1.002	0.000802	1.7e-05
0.3014	293.15	0	0.001127	2.4e-05
0.3014	293.15	0.2001	0.001218	2.6e-05
0.3014	293.15	0.4	0.001317	2.8e-05
0.3014	293.15	0.5919	0.001418	3e-05
0.3014	293.15	0.7948	0.001532	3.2e-05
0.3014	293.15	0.9972	0.001657	3.5e-05
0.3014	303.15	0	0.000894	1.9e-05
0.3014	303.15	0.2001	0.000961	2e-05
0.3014	303.15	0.4	0.001034	2.2e-05
0.3014	303.15	0.5919	0.001107	2.3e-05
0.3014	303.15	0.7948	0.001189	2.5e-05
0.3014	303.15	0.9972	0.001278	2.7e-05
0.3014	313.15	0	0.000729	1.5e-05
0.3014	313.15	0.2001	0.00078	1.7e-05
0.3014	313.15	0.4	0.000835	1.8e-05
0.3014	313.15	0.5919	0.000891	1.9e-05
0.3014	313.15	0.7948	0.000955	2e-05
0.3014	313.15	0.9972	0.001018	2.2e-05
0.3014	323.15	0	0.000609	1.3e-05
0.3014	323.15	0.2001	0.000649	1.4e-05
0.3014	323.15	0.4	0.000691	1.5e-05
0.3014	323.15	0.5919	0.000735	1.6e-05
0.3014	323.15	0.7948	0.000783	1.7e-05
0.3014	323.15	0.9972	0.000831	1.8e-05
0.4001	293.15	0	0.001172	2.5e-05
0.4001	293.15	0.1995	0.001266	2.7e-05
0.4001	293.15	0.4011	0.00137	2.9e-05
0.4001	293.15	0.5951	0.001478	3.1e-05
0.4001	293.15	0.7992	0.001601	3.4e-05
0.4001	293.15	0.9904	0.001723	3.6e-05
0.4001	303.15	0	0.000926	2e-05
0.4001	303.15	0.1995	0.000996	2.1e-05
0.4001	303.15	0.4011	0.001073	2.3e-05
0.4001	303.15	0.5951	0.001152	2.4e-05
0.4001	303.15	0.7992	0.001241	2.6e-05
0.4001	303.15	0.9904	0.001328	2.8e-05
0.4001	313.15	0	0.000755	1.6e-05
0.4001	313.15	0.1995	0.000808	1.7e-05
0.4001	313.15	0.4011	0.000866	1.8e-05
0.4001	313.15	0.5951	0.000926	2e-05
0.4001	313.15	0.7992	0.000992	2.1e-05
0.4001	313.15	0.9904	0.001059	2.2e-05
0.4001	323.15	0	0.000629	1.3e-05
0.4001	323.15	0.1995	0.000669	1.4e-05
0.4001	323.15	0.4011	0.000717	1.5e-05
0.4001	323.15	0.5951	0.000761	1.6e-05
0.4001	323.15	0.7992	0.000813	1.7e-05
0.4001	323.15	0.9904	0.000864	1.8e-05

System: D-sorbitol + 5-hydroxy-6-methyl-3,4-pyridinedimethanol hydrochloride + water; phases: Liquid
Fixed: Pressure, kPa = 101
Property: Mass density, kg/m3 (Liquid); method: Vibrating tube method
Solvent: Molality, mol/kg of 5-hydroxy-6-methyl-3,4-pyridinedimethanol hydrochloride	Temperature, K	Molality, mol/kg of D-sorbitol	Mass density, kg/m3	uncertainty
0.1	293.15	0	1004.23	1.01
0.1	293.15	0.1999	1016.61	1.01
0.1	293.15	0.3946	1028.04	1.01
0.1	293.15	0.5929	1039.13	1.01
0.1	293.15	0.7959	1049.89	1.01
0.1	293.15	0.9992	1060.09	1.01
0.1	303.15	0	1001.57	1.01
0.1	303.15	0.1999	1013.77	1.01
0.1	303.15	0.3946	1025.05	1.01
0.1	303.15	0.5929	1035.95	1.01
0.1	303.15	0.7959	1046.51	1.01
0.1	303.15	0.9992	1056.53	1.01
0.1	313.15	0	998.04	1.01
0.1	313.15	0.1999	1010.07	1.01
0.1	313.15	0.3946	1021.21	1.01
0.1	313.15	0.5929	1031.99	1.01
0.1	313.15	0.7959	1042.45	1.01
0.1	313.15	0.9992	1052.43	1.01
0.1	323.15	0	993.81	1.01
0.1	323.15	0.1999	1005.69	1.01
0.1	323.15	0.3946	1016.68	1.01
0.1	323.15	0.5929	1027.35	1.01
0.1	323.15	0.7959	1037.71	1.01
0.1	323.15	0.9992	1047.52	1.01
0.2016	293.15	0	1010.1	1.01
0.2016	293.15	0.2	1022.37	1.01
0.2016	293.15	0.3993	1034	1.01
0.2016	293.15	0.5984	1045.06	1.01
0.2016	293.15	0.8018	1055.79	1.01
0.2016	293.15	0.9986	1065.65	1.01
0.2016	303.15	0	1007.34	1.01
0.2016	303.15	0.2	1019.45	1.01
0.2016	303.15	0.3993	1030.9	1.01
0.2016	303.15	0.5984	1041.77	1.01
0.2016	303.15	0.8018	1052.33	1.01
0.2016	303.15	0.9986	1062.04	1.01
0.2016	313.15	0	1003.75	1.01
0.2016	313.15	0.2	1015.71	1.01
0.2016	313.15	0.3993	1027	1.01
0.2016	313.15	0.5984	1037.74	1.01
0.2016	313.15	0.8018	1048.2	1.01
0.2016	313.15	0.9986	1057.76	1.01
0.2016	323.15	0	999.43	1.01
0.2016	323.15	0.2	1011.26	1.01
0.2016	323.15	0.3993	1022.45	1.01
0.2016	323.15	0.5984	1033.09	1.01
0.2016	323.15	0.8018	1043.4	1.01
0.2016	323.15	0.9986	1052.9	1.01
0.3	293.15	0	1015.67	1.01
0.3	293.15	0.2	1027.84	1.01
0.3	293.15	0.4	1039.42	1.01
0.3	293.15	0.5937	1050.11	1.01
0.3	293.15	0.7895	1060.37	1.01
0.3	293.15	0.9902	1070.41	1.01
0.3	303.15	0	1012.81	1.01
0.3	303.15	0.2	1024.82	1.01
0.3	303.15	0.4	1036.24	1.01
0.3	303.15	0.5937	1046.75	1.01
0.3	303.15	0.7895	1056.84	1.01
0.3	303.15	0.9902	1066.74	1.01
0.3	313.15	0	1009.15	1.01
0.3	313.15	0.2	1021.02	1.01
0.3	313.15	0.4	1032.29	1.01
0.3	313.15	0.5937	1042.7	1.01
0.3	313.15	0.7895	1052.66	1.01
0.3	313.15	0.9902	1062.48	1.01
0.3	323.15	0	1004.74	1.01
0.3	323.15	0.2	1016.5	1.01
0.3	323.15	0.4	1027.67	1.01
0.3	323.15	0.5937	1037.95	1.01
0.3	323.15	0.7895	1047.89	1.01
0.3	323.15	0.9902	1057.58	1.01
0.3999	293.15	0	1021.11	1.01
0.3999	293.15	0.1999	1033.17	1.01
0.3999	293.15	0.4001	1044.65	1.01
0.3999	293.15	0.5973	1055.4	1.01
0.3999	293.15	0.8001	1065.89	1.01
0.3999	293.15	0.9927	1075.38	1.01
0.3999	303.15	0	1018.15	1.01
0.3999	303.15	0.1999	1030.08	1.01
0.3999	303.15	0.4001	1041.41	1.01
0.3999	303.15	0.5973	1052.03	1.01
0.3999	303.15	0.8001	1062.38	1.01
0.3999	303.15	0.9927	1071.72	1.01
0.3999	313.15	0	1014.45	1.01
0.3999	313.15	0.1999	1026.2	1.01
0.3999	313.15	0.4001	1037.38	1.01
0.3999	313.15	0.5973	1047.85	1.01
0.3999	313.15	0.8001	1058.12	1.01
0.3999	313.15	0.9927	1067.36	1.01
0.3999	323.15	0	1010.01	1.01
0.3999	323.15	0.1999	1021.67	1.01
0.3999	323.15	0.4001	1032.77	1.01
0.3999	323.15	0.5973	1043.13	1.01
0.3999	323.15	0.8001	1053.27	1.01
0.3999	323.15	0.9927	1062.46	1.01

System: D-sorbitol + 5-hydroxy-6-methyl-3,4-pyridinedimethanol hydrochloride + water; phases: Liquid
Fixed: Pressure, kPa = 101
Property: Viscosity, Pa*s (Liquid); method: Capillary tube (Ostwald; Ubbelohde) method
Solvent: Molality, mol/kg of 5-hydroxy-6-methyl-3,4-pyridinedimethanol hydrochloride	Temperature, K	Molality, mol/kg of D-sorbitol	Viscosity, Pa*s	uncertainty
0.1	293.15	0	0.001044	2.2e-05
0.1	293.15	0.1999	0.001148	2.4e-05
0.1	293.15	0.3946	0.001259	2.7e-05
0.1	293.15	0.5929	0.001383	2.9e-05
0.1	293.15	0.7959	0.001524	3.2e-05
0.1	293.15	0.9992	0.001672	3.5e-05
0.1	303.15	0	0.00083	1.8e-05
0.1	303.15	0.1999	0.000907	1.9e-05
0.1	303.15	0.3946	0.000988	2.1e-05
0.1	303.15	0.5929	0.00108	2.3e-05
0.1	303.15	0.7959	0.00118	2.5e-05
0.1	303.15	0.9992	0.001288	2.7e-05
0.1	313.15	0	0.000679	1.4e-05
0.1	313.15	0.1999	0.000738	1.6e-05
0.1	313.15	0.3946	0.0008	1.7e-05
0.1	313.15	0.5929	0.000869	1.8e-05
0.1	313.15	0.7959	0.000944	2e-05
0.1	313.15	0.9992	0.001024	2.2e-05
0.1	323.15	0	0.000568	1.2e-05
0.1	323.15	0.1999	0.000614	1.3e-05
0.1	323.15	0.3946	0.000663	1.4e-05
0.1	323.15	0.5929	0.000715	1.5e-05
0.1	323.15	0.7959	0.000775	1.6e-05
0.1	323.15	0.9992	0.000835	1.8e-05
0.2016	293.15	0	0.001085	2.3e-05
0.2016	293.15	0.2	0.001194	2.5e-05
0.2016	293.15	0.3993	0.001315	2.8e-05
0.2016	293.15	0.5984	0.001448	3.1e-05
0.2016	293.15	0.8018	0.001596	3.4e-05
0.2016	293.15	0.9986	0.001754	3.7e-05
0.2016	303.15	0	0.000861	1.8e-05
0.2016	303.15	0.2	0.000942	2e-05
0.2016	303.15	0.3993	0.001031	2.2e-05
0.2016	303.15	0.5984	0.001127	2.4e-05
0.2016	303.15	0.8018	0.001234	2.6e-05
0.2016	303.15	0.9986	0.001349	2.8e-05
0.2016	313.15	0	0.000704	1.5e-05
0.2016	313.15	0.2	0.000765	1.6e-05
0.2016	313.15	0.3993	0.000833	1.8e-05
0.2016	313.15	0.5984	0.000906	1.9e-05
0.2016	313.15	0.8018	0.000986	2.1e-05
0.2016	313.15	0.9986	0.001069	2.3e-05
0.2016	323.15	0	0.000587	1.2e-05
0.2016	323.15	0.2	0.000636	1.4e-05
0.2016	323.15	0.3993	0.000688	1.5e-05
0.2016	323.15	0.5984	0.000744	1.6e-05
0.2016	323.15	0.8018	0.000806	1.7e-05
0.2016	323.15	0.9986	0.00087	1.8e-05
0.3	293.15	0	0.001127	2.4e-05
0.3	293.15	0.2	0.001243	2.6e-05
0.3	293.15	0.4	0.00137	2.9e-05
0.3	293.15	0.5937	0.001507	3.2e-05
0.3	293.15	0.7895	0.001658	3.5e-05
0.3	293.15	0.9902	0.001827	3.8e-05
0.3	303.15	0	0.000894	1.9e-05
0.3	303.15	0.2	0.00098	2.1e-05
0.3	303.15	0.4	0.001073	2.3e-05
0.3	303.15	0.5937	0.001172	2.5e-05
0.3	303.15	0.7895	0.001281	2.7e-05
0.3	303.15	0.9902	0.001401	3e-05
0.3	313.15	0	0.000729	1.5e-05
0.3	313.15	0.2	0.000795	1.7e-05
0.3	313.15	0.4	0.000866	1.8e-05
0.3	313.15	0.5937	0.000939	2e-05
0.3	313.15	0.7895	0.001022	2.2e-05
0.3	313.15	0.9902	0.001112	2.3e-05
0.3	323.15	0	0.000608	1.3e-05
0.3	323.15	0.2	0.00066	1.4e-05
0.3	323.15	0.4	0.000714	1.5e-05
0.3	323.15	0.5937	0.00077	1.6e-05
0.3	323.15	0.7895	0.000835	1.8e-05
0.3	323.15	0.9902	0.000903	1.9e-05
0.3999	293.15	0	0.001169	2.5e-05
0.3999	293.15	0.1999	0.001291	2.7e-05
0.3999	293.15	0.4001	0.001426	3e-05
0.3999	293.15	0.5973	0.001573	3.3e-05
0.3999	293.15	0.8001	0.001735	3.7e-05
0.3999	293.15	0.9927	0.001911	4e-05
0.3999	303.15	0	0.000926	2e-05
0.3999	303.15	0.1999	0.001017	2.2e-05
0.3999	303.15	0.4001	0.001115	2.4e-05
0.3999	303.15	0.5973	0.001222	2.6e-05
0.3999	303.15	0.8001	0.001337	2.8e-05
0.3999	303.15	0.9927	0.001464	3.1e-05
0.3999	313.15	0	0.000755	1.6e-05
0.3999	313.15	0.1999	0.000824	1.7e-05
0.3999	313.15	0.4001	0.000898	1.9e-05
0.3999	313.15	0.5973	0.000978	2.1e-05
0.3999	313.15	0.8001	0.001064	2.2e-05
0.3999	313.15	0.9927	0.001157	2.4e-05
0.3999	323.15	0	0.000629	1.3e-05
0.3999	323.15	0.1999	0.000683	1.5e-05
0.3999	323.15	0.4001	0.00074	1.6e-05
0.3999	323.15	0.5973	0.000803	1.7e-05
0.3999	323.15	0.8001	0.000868	1.8e-05
0.3999	323.15	0.9927	0.000941	2e-05

System: 5-hydroxy-6-methyl-3,4-pyridinedimethanol hydrochloride + 4-O-.alpha.-D-glucopyranosyl-D-glucitol + water; phases: Liquid
Fixed: Pressure, kPa = 101
Property: Mass density, kg/m3 (Liquid); method: Vibrating tube method
Solvent: Molality, mol/kg of 5-hydroxy-6-methyl-3,4-pyridinedimethanol hydrochloride	Temperature, K	Molality, mol/kg of 4-O-.alpha.-D-glucopyranosyl-D-glucitol	Mass density, kg/m3	uncertainty
0.1008	293.15	0	1004.28	1.01
0.1008	293.15	0.2002	1028.86	1.01
0.1008	293.15	0.4	1051.34	1.01
0.1008	293.15	0.5998	1071.99	1.01
0.1008	293.15	0.7999	1090.89	1.02
0.1008	293.15	1	1108.43	1.02
0.1008	303.15	0	1001.61	1.01
0.1008	303.15	0.2002	1025.9	1.01
0.1008	303.15	0.4	1048.15	1.01
0.1008	303.15	0.5998	1068.53	1.01
0.1008	303.15	0.7999	1087.25	1.02
0.1008	303.15	1	1104.6	1.02
0.1008	313.15	0	998.1	1.01
0.1008	313.15	0.2002	1022.14	1.01
0.1008	313.15	0.4	1044.15	1.01
0.1008	313.15	0.5998	1064.4	1.01
0.1008	313.15	0.7999	1082.98	1.02
0.1008	313.15	1	1100.26	1.02
0.1008	323.15	0	993.86	1.01
0.1008	323.15	0.2002	1017.67	1.01
0.1008	323.15	0.4	1039.49	1.01
0.1008	323.15	0.5998	1059.52	1.01
0.1008	323.15	0.7999	1078	1.01
0.1008	323.15	1	1094.99	1.02
0.2016	293.15	0	1010.09	1.01
0.2016	293.15	0.1999	1034.52	1.01
0.2016	293.15	0.4	1056.77	1.01
0.2016	293.15	0.5943	1076.76	1.01
0.2016	293.15	0.8009	1096.11	1.02
0.2016	293.15	0.9994	1113.26	1.02
0.2016	303.15	0	1007.34	1.01
0.2016	303.15	0.1999	1031.47	1.01
0.2016	303.15	0.4	1053.55	1.01
0.2016	303.15	0.5943	1073.26	1.01
0.2016	303.15	0.8009	1092.39	1.02
0.2016	303.15	0.9994	1109.49	1.02
0.2016	313.15	0	1003.74	1.01
0.2016	313.15	0.1999	1027.63	1.01
0.2016	313.15	0.4	1049.46	1.01
0.2016	313.15	0.5943	1069.03	1.01
0.2016	313.15	0.8009	1088.04	1.02
0.2016	313.15	0.9994	1104.92	1.02
0.2016	323.15	0	999.43	1.01
0.2016	323.15	0.1999	1023.11	1.01
0.2016	323.15	0.4	1044.8	1.01
0.2016	323.15	0.5943	1064.15	1.01
0.2016	323.15	0.8009	1083.16	1.02
0.2016	323.15	0.9994	1099.91	1.02
0.3	293.15	0	1015.66	1.01
0.3	293.15	0.2	1039.87	1.01
0.3	293.15	0.3997	1062.01	1.01
0.3	293.15	0.6006	1082.27	1.01
0.3	293.15	0.8	1100.93	1.02
0.3	293.15	0.9947	1117.68	1.02
0.3	303.15	0	1012.81	1.01
0.3	303.15	0.2	1036.73	1.01
0.3	303.15	0.3997	1058.63	1.01
0.3	303.15	0.6006	1078.77	1.01
0.3	303.15	0.8	1097.17	1.02
0.3	303.15	0.9947	1113.7	1.02
0.3	313.15	0	1009.15	1.01
0.3	313.15	0.2	1032.87	1.01
0.3	313.15	0.3997	1054.6	1.01
0.3	313.15	0.6006	1074.56	1.01
0.3	313.15	0.8	1092.75	1.02
0.3	313.15	0.9947	1109.18	1.02
0.3	323.15	0	1004.74	1.01
0.3	323.15	0.2	1028.3	1.01
0.3	323.15	0.3997	1049.87	1.01
0.3	323.15	0.6006	1069.65	1.01
0.3	323.15	0.8	1087.84	1.02
0.3	323.15	0.9947	1104.12	1.02
0.3999	293.15	0	1021.12	1.01
0.3999	293.15	0.1999	1045.16	1.01
0.3999	293.15	0.4	1067.18	1.01
0.3999	293.15	0.597	1086.98	1.02
0.3999	293.15	0.7954	1105.39	1.02
0.3999	293.15	1.0003	1122.91	1.02
0.3999	303.15	0	1018.15	1.01
0.3999	303.15	0.1999	1041.95	1.01
0.3999	303.15	0.4	1063.72	1.01
0.3999	303.15	0.597	1083.37	1.02
0.3999	303.15	0.7954	1101.57	1.02
0.3999	303.15	1.0003	1118.78	1.02
0.3999	313.15	0	1014.45	1.01
0.3999	313.15	0.1999	1038.02	1.01
0.3999	313.15	0.4	1059.55	1.01
0.3999	313.15	0.597	1079.01	1.01
0.3999	313.15	0.7954	1097.11	1.02
0.3999	313.15	1.0003	1114.19	1.02
0.3999	323.15	0	1010.01	1.01
0.3999	323.15	0.1999	1033.43	1.01
0.3999	323.15	0.4	1054.85	1.01
0.3999	323.15	0.597	1074.17	1.01
0.3999	323.15	0.7954	1092.14	1.02
0.3999	323.15	1.0003	1109.16	1.02

System: 5-hydroxy-6-methyl-3,4-pyridinedimethanol hydrochloride + 4-O-.alpha.-D-glucopyranosyl-D-glucitol + water; phases: Liquid
Fixed: Pressure, kPa = 101
Property: Viscosity, Pa*s (Liquid); method: Capillary tube (Ostwald; Ubbelohde) method
Solvent: Molality, mol/kg of 5-hydroxy-6-methyl-3,4-pyridinedimethanol hydrochloride	Temperature, K	Molality, mol/kg of 4-O-.alpha.-D-glucopyranosyl-D-glucitol	Viscosity, Pa*s	uncertainty
0.1008	293.15	0	0.001044	2.2e-05
0.1008	293.15	0.2002	0.00126	2.7e-05
0.1008	293.15	0.4	0.001532	3.2e-05
0.1008	293.15	0.5998	0.001898	4e-05
0.1008	293.15	0.7999	0.002255	4.7e-05
0.1008	293.15	1	0.00276	5.8e-05
0.1008	303.15	0	0.00083	1.8e-05
0.1008	303.15	0.2002	0.000989	2.1e-05
0.1008	303.15	0.4	0.001184	2.5e-05
0.1008	303.15	0.5998	0.001422	3e-05
0.1008	303.15	0.7999	0.001705	3.6e-05
0.1008	303.15	1	0.00206	4.3e-05
0.1008	313.15	0	0.000679	1.4e-05
0.1008	313.15	0.2002	0.000801	1.7e-05
0.1008	313.15	0.4	0.000946	2e-05
0.1008	313.15	0.5998	0.001124	2.4e-05
0.1008	313.15	0.7999	0.001333	2.8e-05
0.1008	313.15	1	0.001594	3.4e-05
0.1008	323.15	0	0.000568	1.2e-05
0.1008	323.15	0.2002	0.000663	1.4e-05
0.1008	323.15	0.4	0.000778	1.6e-05
0.1008	323.15	0.5998	0.000912	1.9e-05
0.1008	323.15	0.7999	0.001069	2.3e-05
0.1008	323.15	1	0.001267	2.7e-05
0.2016	293.15	0	0.001085	2.3e-05
0.2016	293.15	0.1999	0.001314	2.8e-05
0.2016	293.15	0.4	0.001595	3.4e-05
0.2016	293.15	0.5943	0.001936	4.1e-05
0.2016	293.15	0.8009	0.002379	5e-05
0.2016	293.15	0.9994	0.002898	6.1e-05
0.2016	303.15	0	0.000861	1.8e-05
0.2016	303.15	0.1999	0.001035	2.2e-05
0.2016	303.15	0.4	0.001235	2.6e-05
0.2016	303.15	0.5943	0.001477	3.1e-05
0.2016	303.15	0.8009	0.001792	3.8e-05
0.2016	303.15	0.9994	0.002158	4.5e-05
0.2016	313.15	0	0.000703	1.5e-05
0.2016	313.15	0.1999	0.000832	1.8e-05
0.2016	313.15	0.4	0.000986	2.1e-05
0.2016	313.15	0.5943	0.001165	2.5e-05
0.2016	313.15	0.8009	0.001396	2.9e-05
0.2016	313.15	0.9994	0.001665	3.5e-05
0.2016	323.15	0	0.000587	1.2e-05
0.2016	323.15	0.1999	0.000689	1.5e-05
0.2016	323.15	0.4	0.000809	1.7e-05
0.2016	323.15	0.5943	0.000942	2e-05
0.2016	323.15	0.8009	0.001117	2.4e-05
0.2016	323.15	0.9994	0.001317	2.8e-05
0.3	293.15	0	0.001127	2.4e-05
0.3	293.15	0.2	0.001368	2.9e-05
0.3	293.15	0.3997	0.001668	3.5e-05
0.3	293.15	0.6006	0.002041	4.3e-05
0.3	293.15	0.8	0.002488	5.2e-05
0.3	293.15	0.9947	0.003041	6.4e-05
0.3	303.15	0	0.000893	1.9e-05
0.3	303.15	0.2	0.00107	2.3e-05
0.3	303.15	0.3997	0.00129	2.7e-05
0.3	303.15	0.6006	0.001554	3.3e-05
0.3	303.15	0.8	0.001873	3.9e-05
0.3	303.15	0.9947	0.002255	4.7e-05
0.3	313.15	0	0.000729	1.5e-05
0.3	313.15	0.2	0.000863	1.8e-05
0.3	313.15	0.3997	0.001029	2.2e-05
0.3	313.15	0.6006	0.001222	2.6e-05
0.3	313.15	0.8	0.001461	3.1e-05
0.3	313.15	0.9947	0.001735	3.7e-05
0.3	323.15	0	0.000608	1.3e-05
0.3	323.15	0.2	0.000712	1.5e-05
0.3	323.15	0.3997	0.00084	1.8e-05
0.3	323.15	0.6006	0.000988	2.1e-05
0.3	323.15	0.8	0.001168	2.5e-05
0.3	323.15	0.9947	0.001373	2.9e-05
0.3999	293.15	0	0.001169	2.5e-05
0.3999	293.15	0.1999	0.001424	3e-05
0.3999	293.15	0.4	0.001741	3.7e-05
0.3999	293.15	0.597	0.002124	4.5e-05
0.3999	293.15	0.7954	0.002611	5.5e-05
0.3999	293.15	1.0003	0.003216	6.8e-05
0.3999	303.15	0	0.000926	2e-05
0.3999	303.15	0.1999	0.001114	2.4e-05
0.3999	303.15	0.4	0.001344	2.8e-05
0.3999	303.15	0.597	0.00162	3.4e-05
0.3999	303.15	0.7954	0.001959	4.1e-05
0.3999	303.15	1.0003	0.002382	5e-05
0.3999	313.15	0	0.000755	1.6e-05
0.3999	313.15	0.1999	0.000898	1.9e-05
0.3999	313.15	0.4	0.001069	2.3e-05
0.3999	313.15	0.597	0.001277	2.7e-05
0.3999	313.15	0.7954	0.001521	3.2e-05
0.3999	313.15	1.0003	0.001829	3.9e-05
0.3999	323.15	0	0.000629	1.3e-05
0.3999	323.15	0.1999	0.00074	1.6e-05
0.3999	323.15	0.4	0.000873	1.8e-05
0.3999	323.15	0.597	0.001032	2.2e-05
0.3999	323.15	0.7954	0.001214	2.6e-05
0.3999	323.15	1.0003	0.001448	3.1e-05

System: 5-hydroxy-6-methyl-3,4-pyridinedimethanol hydrochloride + water; phases: Liquid
Fixed: Pressure, kPa = 101
Property: Mass density, kg/m3 (Liquid); method: Vibrating tube method
Molality, mol/kg of 5-hydroxy-6-methyl-3,4-pyridinedimethanol hydrochloride	Temperature, K	Mass density, kg/m3	uncertainty
0.1	293.15	1004.23	1
0.1	303.15	1001.57	1
0.1	313.15	998.04	1
0.1	323.15	993.81	1
0.1992	293.15	1010	1
0.1992	303.15	1007.23	1
0.1992	313.15	1003.65	1
0.1992	323.15	999.27	1
0.3	293.15	1015.67	1
0.3	303.15	1012.81	1
0.3	313.15	1009.15	1
0.3	323.15	1004.74	1
0.3999	293.15	1021.12	1
0.3999	303.15	1018.15	1
0.3999	313.15	1014.45	1
0.3999	323.15	1010.01	1
0.0999	293.15	1004.23	1.01
0.0999	303.15	1001.56	1.01
0.0999	313.15	998.03	1.01
0.0999	323.15	993.8	1.01
0.2025	293.15	1010.19	1.01
0.2025	303.15	1007.42	1.01
0.2025	313.15	1003.85	1.01
0.2025	323.15	999.49	1.01
0.3014	293.15	1015.74	1.01
0.3014	303.15	1012.88	1.01
0.3014	313.15	1009.21	1.01
0.3014	323.15	1004.83	1.01
0.4001	293.15	1021.16	1.01
0.4001	303.15	1018.19	1.01
0.4001	313.15	1014.46	1.01
0.4001	323.15	1010.02	1.01
0.2016	293.15	1010.1	1.01
0.2016	303.15	1007.34	1.01
0.2016	313.15	1003.75	1.01
0.2016	323.15	999.43	1.01
0.3999	293.15	1021.11	1.01
0.1008	293.15	1004.28	1.01
0.1008	303.15	1001.61	1.01
0.1008	313.15	998.1	1.01
0.1008	323.15	993.86	1.01
0.2016	293.15	1010.09	1.01
0.2016	313.15	1003.74	1.01
0.3	293.15	1015.66	1.01

System: 5-hydroxy-6-methyl-3,4-pyridinedimethanol hydrochloride + water; phases: Liquid
Fixed: Pressure, kPa = 101
Property: Viscosity, Pa*s (Liquid); method: Capillary tube (Ostwald; Ubbelohde) method
Molality, mol/kg of 5-hydroxy-6-methyl-3,4-pyridinedimethanol hydrochloride	Temperature, K	Viscosity, Pa*s	uncertainty
0.1	293.15	0.001044	2.2e-05
0.1	303.15	0.00083	1.7e-05
0.1	313.15	0.000679	1.4e-05
0.1	323.15	0.000568	1.2e-05
0.1992	293.15	0.001084	2.3e-05
0.1992	303.15	0.000861	1.8e-05
0.1992	313.15	0.000703	1.5e-05
0.1992	323.15	0.000587	1.2e-05
0.3	293.15	0.001127	2.4e-05
0.3	303.15	0.000893	1.9e-05
0.3	313.15	0.000729	1.5e-05
0.3	323.15	0.000608	1.3e-05
0.3999	293.15	0.001169	2.5e-05
0.3999	303.15	0.000926	1.9e-05
0.3999	313.15	0.000755	1.6e-05
0.3999	323.15	0.000629	1.3e-05
0.0999	293.15	0.001044	2.2e-05
0.0999	303.15	0.000829	1.8e-05
0.0999	313.15	0.000678	1.4e-05
0.0999	323.15	0.000568	1.2e-05
0.2025	293.15	0.001085	2.3e-05
0.2025	303.15	0.000862	1.8e-05
0.2025	313.15	0.000704	1.5e-05
0.2025	323.15	0.000589	1.3e-05
0.3014	293.15	0.001127	2.4e-05
0.3014	303.15	0.000894	1.9e-05
0.3014	313.15	0.000729	1.5e-05
0.3014	323.15	0.000609	1.3e-05
0.4001	293.15	0.001172	2.5e-05
0.4001	303.15	0.000926	2e-05
0.4001	313.15	0.000755	1.6e-05
0.4001	323.15	0.000629	1.3e-05
0.2016	293.15	0.001085	2.3e-05
0.2016	303.15	0.000861	1.8e-05
0.2016	313.15	0.000704	1.5e-05
0.2016	323.15	0.000587	1.2e-05
0.3	303.15	0.000894	1.9e-05
0.1008	293.15	0.001044	2.2e-05
0.1008	303.15	0.00083	1.8e-05
0.1008	313.15	0.000679	1.4e-05
0.1008	323.15	0.000568	1.2e-05
0.2016	313.15	0.000703	1.5e-05
