Measured thermophysical data. Measurements and Modeling of VLE Data for Butyl Acetate with 2-Propanol or 2-Butanol. Binary Systems at 0.15 and 0.6 MPa
Source: J. Chem. Eng. Data, 2017, 10.1021/acs.jced.7b00141
Compound 1: butan-2-ol, C4H10O, InChI=1S/C4H10O/c1-3-4(2)5/h4-5H,3H2,1-2H3, purity 99.5%
Compound 2: propan-2-ol, C3H8O, InChI=1S/C3H8O/c1-3(2)4/h3-4H,1-2H3, purity 99.8%
Compound 3: butyl ethanoate, C6H12O2, InChI=1S/C6H12O2/c1-3-4-5-8-6(2)7/h3-5H2,1-2H3, purity 99.5%

System: butan-2-ol; phases: Liquid
Property: Mass density, kg/m3 (Liquid); method: Vibrating tube method
Temperature, K	Pressure, kPa	Mass density, kg/m3	uncertainty
298.15	100	802.5	0.2

System: butan-2-ol; phases: Liquid, Gas
Property: Vapor or sublimation pressure, kPa (Liquid); method: Ebulliometric method (Recirculating still)
Temperature, K	Vapor or sublimation pressure, kPa	uncertainty
383.84	150	7
431.73	600	7

System: propan-2-ol; phases: Liquid
Property: Mass density, kg/m3 (Liquid); method: Vibrating tube method
Temperature, K	Pressure, kPa	Mass density, kg/m3	uncertainty
298.15	100	781.3	0.2

System: propan-2-ol; phases: Liquid, Gas
Property: Vapor or sublimation pressure, kPa (Liquid); method: Ebulliometric method (Recirculating still)
Temperature, K	Vapor or sublimation pressure, kPa	uncertainty
365.78	150	7
409.88	600	7

System: butyl ethanoate; phases: Liquid, Gas
Property: Vapor or sublimation pressure, kPa (Liquid); method: Ebulliometric method (Recirculating still)
Temperature, K	Vapor or sublimation pressure, kPa	uncertainty
328.98	8.5	2
335.89	12.5	2
346.66	17	2
351.77	21	2
355.56	25	2
362.02	30	2
363.7	34	2
367.03	37	2
369.76	41.5	2.3
372.26	45.5	2.3
376.35	51.5	2.3
379.26	56	2
379.96	56.5	2.2
383	60.5	2.3
385.97	66.5	2.8
387.78	74.5	2.6
389.14	76.5	2.7
391.24	79.5	2.2
393.08	82	3
393.22	86.5	2.7
395.97	92	3
398.2	97.5	2.6
407.93	127	3
414.72	155	4
423.56	195	4
427.54	217	4
428.55	220	4
435.4	260	5
437.8	275	5
440.65	297	5
440.81	295	6
447.05	342	6
451.67	377	6
452.25	382	6
455.22	407	6
456.75	420	7
460.69	457	7
463.25	480	7
464.05	492	7
469.05	542	8
473.7	592	8
475.55	615	9
477.25	637	9
477.55	641	9
479.95	670	9
481.7	692	9
483.15	712	10
485.75	747	10
488.85	790	10
489.95	807	10
492.48	842	11
495.15	885	12
496.95	915	12
498.95	947	12
500.35	970	12
501.65	990	12
501.95	997	12
502.15	998	12
502.45	1005	12
502.85	1012	12
505.05	1050	13
507.35	1092	13
508.25	1107	13
509.73	1135	14
512.35	1187	14
514.25	1225	14
516.35	1267	14
518.35	1307	15
520.65	1357	15
522.45	1395	16
524.75	1447	16
525.85	1472	16
527.15	1501	16
528.65	1537	17
530.35	1577	17
531.45	1602	16

System: butyl ethanoate; phases: Liquid
Property: Mass density, kg/m3 (Liquid); method: Vibrating tube method
Temperature, K	Pressure, kPa	Mass density, kg/m3	uncertainty
298.15	100	876.5	0.2

System: butyl ethanoate; phases: Liquid, Gas
Property: Vapor or sublimation pressure, kPa (Liquid); method: Ebulliometric method (Recirculating still)
Temperature, K	Vapor or sublimation pressure, kPa	uncertainty
413.3	150	6
474.55	600	6

System: butyl ethanoate + propan-2-ol; phases: Liquid
Fixed: Temperature, K = 298.15
Fixed: Pressure, kPa = 100
Property: Mass density, kg/m3 (Liquid); method: Vibrating tube method
Mole fraction of butyl ethanoate	Mass density, kg/m3	uncertainty
0	781.3	0.2
0.0385	786.8	0.2
0.0995	794.8	0.2
0.1656	803.2	0.2
0.2024	807.5	0.2
0.3568	824.3	0.2
0.301	818.5	0.2
0.3489	823.5	0.2
0.4058	829.2	0.2
0.4596	834.3	0.2
0.5485	842.3	0.2
0.6017	846.8	0.2
0.6534	851	0.2
0.7058	855.2	0.2
0.7462	858.3	0.2
0.8033	862.6	0.2
0.8568	866.5	0.2
0.9003	869.6	0.2
0.9484	872.9	0.2
1	876.5	0.2

System: butyl ethanoate + propan-2-ol; phases: Liquid, Gas
Property: Boiling temperature at pressure P, K (Liquid); method: Ebulliometric method (Recirculating still)
Mole fraction of butyl ethanoate	Pressure, kPa	Boiling temperature at pressure P, K	uncertainty
0	150	365.78	0.75
0.014	150	366.03	0.79
0.02	150	366.3	0.79
0.05	150	366.9	0.78
0.087	150	367.59	0.79
0.112	150	368.26	0.81
0.137	150	368.99	0.78
0.17	150	369.39	0.77
0.2	150	369.94	0.78
0.227	150	370.42	0.78
0.253	150	370.87	0.79
0.285	150	371.48	0.79
0.31	150	372.05	0.79
0.338	150	372.6	0.79
0.366	150	373.02	0.78
0.398	150	373.55	0.79
0.431	150	374.05	0.8
0.459	150	374.79	0.82
0.495	150	375.85	0.82
0.533	150	376.78	0.84
0.55	150	377.94	0.84
0.574	150	378.34	0.85
0.595	150	379.48	0.95
0.683	150	382.83	0.88
0.707	150	384.24	0.92
0.786	150	387.83	0.95
0.858	150	392.22	1.19
0.916	150	399.44	1.49
0.951	150	403.89	1.66
0.973	150	407.86	2.08
0.981	150	409.45	2.02
1	150	413.3	0.8
0	600	409.88	0.78
0.015	600	410.31	0.81
0.04	600	410.79	0.84
0.069	600	411.93	0.89
0.101	600	413.32	0.86
0.151	600	414.77	0.84
0.175	600	415.61	0.85
0.201	600	416.38	0.84
0.236	600	417.35	0.87
0.255	600	418.58	0.87
0.276	600	419.03	0.86
0.308	600	420.23	0.88
0.326	600	420.78	0.88
0.359	600	422.05	0.91
0.379	600	423.12	0.9
0.405	600	423.93	0.9
0.488	600	427.31	0.92
0.52	600	429.04	0.97
0.577	600	432.02	0.98
0.665	600	436.86	0.99
0.717	600	439.62	1.14
0.777	600	445.51	1.22
0.827	600	449.36	1.18
0.854	600	451.89	1.51
0.916	600	460.24	1.63
0.976	600	468.77	1.86
0.984	600	471.24	1.83
0.991	600	472.76	1.73
1	600	474.55	0.86

System: butyl ethanoate + propan-2-ol; phases: Gas, Liquid
Property: Mole fraction of butyl ethanoate (Gas); method: Chromatography
Mole fraction of butyl ethanoate	Pressure, kPa	Mole fraction of butyl ethanoate	uncertainty
0	150	0	
0.014	150	0.004	0.004
0.02	150	0.009	0.009
0.05	150	0.024	0.011
0.087	150	0.037	0.011
0.112	150	0.046	0.011
0.137	150	0.057	0.011
0.17	150	0.066	0.011
0.2	150	0.077	0.011
0.227	150	0.084	0.01
0.253	150	0.093	0.01
0.285	150	0.1	0.01
0.31	150	0.11	0.011
0.338	150	0.119	0.011
0.366	150	0.128	0.011
0.398	150	0.143	0.011
0.431	150	0.158	0.011
0.459	150	0.168	0.011
0.495	150	0.188	0.011
0.533	150	0.202	0.011
0.55	150	0.213	0.011
0.574	150	0.227	0.012
0.595	150	0.24	0.012
0.683	150	0.293	0.012
0.707	150	0.314	0.013
0.786	150	0.378	0.014
0.858	150	0.461	0.021
0.916	150	0.614	0.03
0.951	150	0.724	0.04
0.973	150	0.837	0.057
0.981	150	0.883	0.054
1	150	1	
0	600	0	
0.015	600	0.005	0.005
0.04	600	0.014	0.011
0.069	600	0.026	0.011
0.101	600	0.037	0.011
0.151	600	0.053	0.011
0.175	600	0.061	0.011
0.201	600	0.071	0.011
0.236	600	0.081	0.011
0.255	600	0.091	0.011
0.276	600	0.098	0.011
0.308	600	0.11	0.011
0.326	600	0.119	0.011
0.359	600	0.132	0.011
0.379	600	0.143	0.011
0.405	600	0.154	0.011
0.488	600	0.196	0.012
0.52	600	0.222	0.012
0.577	600	0.25	0.012
0.665	600	0.321	0.013
0.717	600	0.362	0.015
0.777	600	0.439	0.016
0.827	600	0.498	0.017
0.854	600	0.539	0.027
0.916	600	0.708	0.031
0.976	600	0.893	0.035
0.984	600	0.933	0.035
0.991	600	0.964	0.032
1	600	1	

System: butyl ethanoate + butan-2-ol; phases: Liquid
Fixed: Temperature, K = 298.15
Fixed: Pressure, kPa = 100
Property: Mass density, kg/m3 (Liquid); method: Vibrating tube method
Mole fraction of butyl ethanoate	Mass density, kg/m3	uncertainty
0	802.5	0.2
0.0512	806.8	0.2
0.0599	807.6	0.2
0.0937	810.4	0.2
0.1434	814.5	0.2
0.1503	815.1	0.2
0.2012	819.2	0.2
0.2506	823.1	0.2
0.3018	827.1	0.2
0.3502	830.8	0.2
0.3539	831	0.2
0.4003	834.5	0.2
0.4573	838.8	0.2
0.5028	842.1	0.2
0.5547	845.9	0.2
0.6073	849.6	0.2
0.6607	853.4	0.2
0.7048	856.5	0.2
0.7639	860.5	0.2
0.8074	863.5	0.2
0.8524	866.5	0.2
0.8996	869.7	0.2
0.9453	872.8	0.2
1	876.5	0.2

System: butyl ethanoate + butan-2-ol; phases: Liquid, Gas
Property: Boiling temperature at pressure P, K (Liquid); method: Ebulliometric method (Recirculating still)
Mole fraction of butyl ethanoate	Pressure, kPa	Boiling temperature at pressure P, K	uncertainty
0	150	383.84	0.76
0.005	150	383.98	0.77
0.024	150	384.04	0.78
0.041	150	384.27	0.77
0.087	150	384.89	0.78
0.122	150	385.46	0.79
0.149	150	385.93	0.79
0.201	150	386.87	0.79
0.229	150	387.45	0.8
0.267	150	388.2	0.8
0.296	150	388.7	0.79
0.327	150	389.24	0.8
0.358	150	389.82	0.8
0.399	150	390.5	0.79
0.422	150	390.76	0.8
0.44	150	391.19	0.79
0.478	150	391.67	0.79
0.51	150	392.02	0.8
0.531	150	392.35	0.82
0.543	150	392.75	0.82
0.556	150	392.99	0.83
0.591	150	393.84	0.83
0.61	150	394.32	0.83
0.628	150	394.8	0.84
0.657	150	395.7	0.85
0.699	150	397.08	0.87
0.73	150	398.38	0.88
0.765	150	399.56	0.87
0.795	150	400.72	0.88
0.833	150	402.14	0.91
0.869	150	403.99	0.95
0.898	150	405.51	1.04
0.924	150	407.68	1.11
0.948	150	409.36	1.09
0.967	150	410.69	1.09
1	150	413.3	0.8
0	600	431.73	0.8
0.024	600	432.43	0.85
0.042	600	433.02	0.85
0.076	600	433.88	0.84
0.104	600	434.54	0.85
0.145	600	435.83	0.86
0.172	600	436.58	0.85
0.195	600	437.22	0.87
0.226	600	438.26	0.87
0.261	600	439.28	0.86
0.288	600	439.95	0.87
0.314	600	440.96	0.89
0.345	600	441.95	0.89
0.365	600	442.73	0.89
0.397	600	443.75	0.88
0.436	600	444.97	0.89
0.453	600	445.75	0.89
0.479	600	446.53	0.89
0.509	600	447.56	0.91
0.543	600	448.91	0.92
0.563	600	449.73	0.91
0.59	600	450.63	0.92
0.619	600	451.92	0.93
0.646	600	452.95	0.94
0.675	600	454.25	0.95
0.703	600	455.48	0.97
0.732	600	456.99	0.98
0.763	600	458.5	0.98
0.79	600	459.85	0.99
0.824	600	461.61	1
0.854	600	463.23	1.05
0.878	600	464.95	1.09
0.9	600	466.33	1.07
0.923	600	467.85	1.11
0.944	600	469.45	1.16
0.97	600	471.55	1.25
0.988	600	473.05	1.18
1	600	474.55	0.86

System: butyl ethanoate + butan-2-ol; phases: Gas, Liquid
Property: Mole fraction of butyl ethanoate (Gas); method: Chromatography
Mole fraction of butyl ethanoate	Pressure, kPa	Mole fraction of butyl ethanoate	uncertainty
0	150	0	
0.005	150	0.004	0.004
0.024	150	0.016	0.012
0.041	150	0.028	0.012
0.087	150	0.059	0.012
0.122	150	0.076	0.011
0.149	150	0.09	0.011
0.201	150	0.119	0.012
0.229	150	0.139	0.012
0.267	150	0.16	0.012
0.296	150	0.181	0.012
0.327	150	0.2	0.012
0.358	150	0.215	0.011
0.399	150	0.238	0.012
0.422	150	0.252	0.012
0.44	150	0.261	0.012
0.478	150	0.283	0.012
0.51	150	0.301	0.012
0.531	150	0.312	0.012
0.543	150	0.319	0.012
0.556	150	0.327	0.013
0.591	150	0.356	0.013
0.61	150	0.373	0.013
0.628	150	0.387	0.013
0.657	150	0.411	0.014
0.699	150	0.455	0.015
0.73	150	0.491	0.016
0.765	150	0.532	0.017
0.795	150	0.573	0.017
0.833	150	0.621	0.018
0.869	150	0.684	0.019
0.898	150	0.727	0.023
0.924	150	0.798	0.028
0.948	150	0.857	0.029
0.967	150	0.91	0.028
1	150	1	
0	600	0	
0.024	600	0.011	0.011
0.042	600	0.022	0.011
0.076	600	0.037	0.011
0.104	600	0.05	0.011
0.145	600	0.072	0.011
0.172	600	0.086	0.011
0.195	600	0.1	0.012
0.226	600	0.119	0.012
0.261	600	0.137	0.011
0.288	600	0.149	0.012
0.314	600	0.169	0.012
0.345	600	0.189	0.012
0.365	600	0.205	0.012
0.397	600	0.226	0.012
0.436	600	0.249	0.012
0.453	600	0.266	0.012
0.479	600	0.283	0.013
0.509	600	0.308	0.013
0.543	600	0.337	0.013
0.563	600	0.354	0.013
0.59	600	0.375	0.014
0.619	600	0.404	0.014
0.646	600	0.429	0.014
0.675	600	0.458	0.015
0.703	600	0.489	0.016
0.732	600	0.525	0.017
0.763	600	0.564	0.017
0.79	600	0.599	0.017
0.824	600	0.643	0.017
0.854	600	0.688	0.02
0.878	600	0.735	0.022
0.9	600	0.775	0.021
0.923	600	0.816	0.022
0.944	600	0.863	0.025
0.97	600	0.924	0.026
0.988	600	0.969	0.026
1	600	1	
