Measured thermophysical data. Vapor-Liquid Equilibrium Data for the Carbon Dioxide (CO2) + 1,1,1,3,3-Pentafluorobutane (R365mfc) System at Temperatures from 283.15 to 337.15 K
Source: J. Chem. Eng. Data, 2018, 10.1021/acs.jced.8b00683
Compound 1: carbon dioxide, CO2, InChI=1S/CO2/c2-1-3
Compound 2: 1,1,1,3,3-pentafluorobutane, C4H5F5, InChI=1S/C4H5F5/c1-3(5,6)2-4(7,8)9/h2H2,1H3

System: carbon dioxide + 1,1,1,3,3-pentafluorobutane; phases: Liquid, Gas
Property: Mole fraction of carbon dioxide (Liquid); method: Chromatography
Temperature, K	Pressure, kPa	Mole fraction of carbon dioxide	uncertainty
283.19	706.7	0.22	0.01
283.19	1535.5	0.439	0.02
283.19	2229	0.61	0.02
283.19	2860.5	0.75	0.02
283.19	3252.4	0.82	0.01
283.19	3403.8	0.853	0.009
283.19	3672.6	0.898	0.007
283.19	3984	0.946	0.004
283.19	4293.9	0.984	0.001
293.23	744.2	0.19	0.01
293.23	1574.5	0.38	0.02
293.23	2177.4	0.5	0.02
293.23	2830.1	0.62	0.02
293.23	3541.9	0.75	0.01
293.23	4249.7	0.853	0.01
293.23	4945.4	0.944	0.004
293.23	5175.3	0.962	0.003
303.32	726.3	0.146	0.009
303.32	1147.8	0.23	0.01
303.32	1841.1	0.37	0.02
303.32	2495.8	0.48	0.02
303.32	3373.9	0.61	0.02
303.32	3920.6	0.69	0.02
303.32	4845.8	0.812	0.01
303.32	5482.5	0.883	0.007
303.32	5652.2	0.901	0.006
303.32	6313.9	0.957	0.003
317.7	702.1	0.112	0.007
317.7	1537.7	0.25	0.01
317.7	2335.8	0.37	0.02
317.7	3471.8	0.51	0.02
317.7	4695.5	0.66	0.02
317.7	5774.4	0.77	0.01
317.7	6516.5	0.83	0.01
317.7	7050.4	0.885	0.007
317.7	7481.1	0.911	0.006
317.7	7899.9	0.939	0.004
337.81	660.2	0.062	0.004
337.81	1175.4	0.136	0.008
337.81	2182.8	0.26	0.01
337.81	2891.5	0.34	0.02
337.81	3490	0.41	0.02
337.81	3953	0.46	0.02
337.81	4828.2	0.54	0.02
337.81	5624.8	0.61	0.02
337.81	6198.9	0.66	0.02
337.81	7002	0.71	0.01
337.81	7851.6	0.78	0.01
337.81	8580	0.84	0.01
337.81	9094.5	0.878	0.007

System: carbon dioxide + 1,1,1,3,3-pentafluorobutane; phases: Gas, Liquid
Property: Mole fraction of carbon dioxide (Gas); method: Chromatography
Temperature, K	Mole fraction of carbon dioxide	Mole fraction of carbon dioxide	uncertainty
283.19	0.22	0.966	0.002
283.19	0.439	0.985	0.002
283.19	0.61	0.9915	0.0008
283.19	0.75	0.9934	0.0006
283.19	0.82	0.9953	0.0005
283.19	0.853	0.9958	0.0004
283.19	0.898	0.9967	0.0003
283.19	0.946	0.9972	0.0005
283.19	0.984	0.9991	0.0001
293.23	0.19	0.949	0.003
293.23	0.38	0.976	0.003
293.23	0.5	0.983	0.001
293.23	0.62	0.9868	0.0011
293.23	0.75	0.9912	0.0007
293.23	0.853	0.9922	0.0006
293.23	0.944	0.9948	0.0006
293.23	0.962	0.9967	0.0005
303.32	0.146	0.916	0.007
303.32	0.23	0.947	0.005
303.32	0.37	0.968	0.003
303.32	0.48	0.975	0.002
303.32	0.61	0.979	0.002
303.32	0.69	0.984	0.001
303.32	0.812	0.987	0.001
303.32	0.883	0.99	0.01
303.32	0.901	0.989	0.001
303.32	0.957	0.992	0.001
317.7	0.112	0.846	0.01
317.7	0.25	0.929	0.007
317.7	0.37	0.953	0.004
317.7	0.51	0.966	0.002
317.7	0.66	0.971	0.003
317.7	0.77	0.976	0.002
317.7	0.83	0.975	0.004
317.7	0.885	0.979	0.007
317.7	0.911	0.979	0.001
317.7	0.939	0.978	0.002
337.81	0.062	0.65	0.02
337.81	0.136	0.81	0.01
337.81	0.26	0.895	0.009
337.81	0.34	0.916	0.007
337.81	0.41	0.928	0.007
337.81	0.46	0.935	0.005
337.81	0.54	0.943	0.004
337.81	0.61	0.944	0.005
337.81	0.66	0.946	0.006
337.81	0.71	0.948	0.004
337.81	0.78	0.945	0.008
337.81	0.84	0.945	0.004
337.81	0.878	0.935	0.004
