Measured thermophysical data. Measuring Activity Coefficient at Infinite Dilution of Hydrocarbons in Ionic Liquids and Evaluation of Other Thermodynamic Properties using Gas Chromatography
Source: J. Chem. Eng. Data, 2019, 10.1021/acs.jced.9b00170
Compound 1: hexane, C6H14, InChI=1S/C6H14/c1-3-5-6-4-2/h3-6H2,1-2H3, purity 97%
Compound 2: heptane, C7H16, InChI=1S/C7H16/c1-3-5-7-6-4-2/h3-7H2,1-2H3, purity 99%
Compound 3: octane, C8H18, InChI=1S/C8H18/c1-3-5-7-8-6-4-2/h3-8H2,1-2H3, purity 99%
Compound 4: nonane, C9H20, InChI=1S/C9H20/c1-3-5-7-9-8-6-4-2/h3-9H2,1-2H3, purity 99%
Compound 5: decane, C10H22, InChI=1S/C10H22/c1-3-5-7-9-10-8-6-4-2/h3-10H2,1-2H3, purity 99.5%
Compound 6: methylcyclopentane, C6H12, InChI=1S/C6H12/c1-6-4-2-3-5-6/h6H,2-5H2,1H3, purity 97%
Compound 7: methylcyclohexane, C7H14, InChI=1S/C7H14/c1-7-5-3-2-4-6-7/h7H,2-6H2,1H3, purity 99%
Compound 8: toluene, C7H8, InChI=1S/C7H8/c1-7-5-3-2-4-6-7/h2-6H,1H3, purity 99.8%
Compound 9: 1,2-dimethylbenzene, C8H10, InChI=1S/C8H10/c1-7-5-3-4-6-8(7)2/h3-6H,1-2H3, purity 98%
Compound 10: 1-butyl-3-methylimidazolium tetrafluoroborate, C8H15BF4N2, InChI=1S/C8H15N2.BF4/c1-3-4-5-10-7-6-9(2)8-10;2-1(3,4)5/h6-8H,3-5H2,1-2H3;/q+1;-1, purity 98%
Compound 11: 1-butyl-1-methylpyrrolidinium bis[(trifluoromethyl)sulfonyl]imide, C11H20F6N2O4S2, InChI=1S/C9H20N.C2F6NO4S2/c1-3-4-7-10(2)8-5-6-9-10;3-1(4,5)14(10,11)9-15(12,13)2(6,7)8/h3-9H2,1-2H3;/q+1;-1, purity 98%
Compound 12: 1-butyl-4-methylpyridinium tetrafluoroborate, C10H16BF4N, InChI=1S/C10H16N.BF4/c1-3-4-7-11-8-5-10(2)6-9-11;2-1(3,4)5/h5-6,8-9H,3-4,7H2,1-2H3;/q+1;-1, purity 97%

System: hexane + 1-butyl-4-methylpyridinium tetrafluoroborate; phases: Liquid
Fixed: Mole fraction of hexane = 0
Fixed: Pressure, kPa = 101.325
Property: Activity coefficient of hexane (Liquid); method: Chromatography
Temperature, K	Activity coefficient of hexane	uncertainty
313.1	59.78	2.79
333.1	52.4	2.44
353.1	49.03	2.29

System: heptane + 1-butyl-4-methylpyridinium tetrafluoroborate; phases: Liquid
Fixed: Mole fraction of heptane = 0
Fixed: Pressure, kPa = 101.325
Property: Activity coefficient of heptane (Liquid); method: Chromatography
Temperature, K	Activity coefficient of heptane	uncertainty
313.1	84.77	3.97
333.1	73.7	3.45
353.1	67.36	3.15

System: octane + 1-butyl-4-methylpyridinium tetrafluoroborate; phases: Liquid
Fixed: Mole fraction of octane = 0
Fixed: Pressure, kPa = 101.325
Property: Activity coefficient of octane (Liquid); method: Chromatography
Temperature, K	Activity coefficient of octane	uncertainty
313.1	130.17	6.12
333.1	107.19	5.03
353.1	99.8	4.68

System: nonane + 1-butyl-4-methylpyridinium tetrafluoroborate; phases: Liquid
Fixed: Mole fraction of nonane = 0
Fixed: Pressure, kPa = 101.325
Property: Activity coefficient of nonane (Liquid); method: Chromatography
Temperature, K	Activity coefficient of nonane	uncertainty
313.1	181.85	8.58
333.1	152.92	7.21
353.1	130.62	6.15

System: decane + 1-butyl-4-methylpyridinium tetrafluoroborate; phases: Liquid
Fixed: Mole fraction of decane = 0
Fixed: Pressure, kPa = 101.325
Property: Activity coefficient of decane (Liquid); method: Chromatography
Temperature, K	Activity coefficient of decane	uncertainty
313.1	305.59	14.49
333.1	233.87	11.06
353.1	223.27	10.56

System: methylcyclopentane + 1-butyl-4-methylpyridinium tetrafluoroborate; phases: Liquid
Fixed: Mole fraction of methylcyclopentane = 0
Fixed: Pressure, kPa = 101.325
Property: Activity coefficient of methylcyclopentane (Liquid); method: Chromatography
Temperature, K	Activity coefficient of methylcyclopentane	uncertainty
313.1	31.31	1.45
333.1	26.39	1.22
353.1	25.82	1.2

System: methylcyclohexane + 1-butyl-4-methylpyridinium tetrafluoroborate; phases: Liquid
Fixed: Mole fraction of methylcyclohexane = 0
Fixed: Pressure, kPa = 101.325
Property: Activity coefficient of methylcyclohexane (Liquid); method: Chromatography
Temperature, K	Activity coefficient of methylcyclohexane	uncertainty
313.1	41.5	1.93
333.1	34.8	1.62
353.1	33.12	1.54

System: toluene + 1-butyl-4-methylpyridinium tetrafluoroborate; phases: Liquid
Fixed: Mole fraction of toluene = 0
Fixed: Pressure, kPa = 101.325
Property: Activity coefficient of toluene (Liquid); method: Chromatography
Temperature, K	Activity coefficient of toluene	uncertainty
313.1	2.66	0.12
333.1	2.69	0.12
353.1	2.73	0.12

System: 1,2-dimethylbenzene + 1-butyl-4-methylpyridinium tetrafluoroborate; phases: Liquid
Fixed: Mole fraction of 1,2-dimethylbenzene = 0
Fixed: Pressure, kPa = 101.325
Property: Activity coefficient of 1,2-dimethylbenzene (Liquid); method: Chromatography
Temperature, K	Activity coefficient of 1,2-dimethylbenzene	uncertainty
313.1	4.48	0.2
333.1	4.55	0.21
353.1	4.59	0.21

System: hexane + 1-butyl-1-methylpyrrolidinium bis[(trifluoromethyl)sulfonyl]imide; phases: Liquid
Fixed: Mole fraction of hexane = 0
Fixed: Pressure, kPa = 101.325
Property: Activity coefficient of hexane (Liquid); method: Chromatography
Temperature, K	Activity coefficient of hexane	uncertainty
313.1	12.59	0.58
333.1	10.17	0.47
353.1	9.5	0.44

System: heptane + 1-butyl-1-methylpyrrolidinium bis[(trifluoromethyl)sulfonyl]imide; phases: Liquid
Fixed: Mole fraction of heptane = 0
Fixed: Pressure, kPa = 101.325
Property: Activity coefficient of heptane (Liquid); method: Chromatography
Temperature, K	Activity coefficient of heptane	uncertainty
313.1	17.04	0.79
333.1	15.33	0.71
353.1	13.56	0.62

System: octane + 1-butyl-1-methylpyrrolidinium bis[(trifluoromethyl)sulfonyl]imide; phases: Liquid
Fixed: Mole fraction of octane = 0
Fixed: Pressure, kPa = 101.325
Property: Activity coefficient of octane (Liquid); method: Chromatography
Temperature, K	Activity coefficient of octane	uncertainty
313.1	23.73	1.1
333.1	20.83	0.96
353.1	19.1	0.88

System: nonane + 1-butyl-1-methylpyrrolidinium bis[(trifluoromethyl)sulfonyl]imide; phases: Liquid
Fixed: Mole fraction of nonane = 0
Fixed: Pressure, kPa = 101.325
Property: Activity coefficient of nonane (Liquid); method: Chromatography
Temperature, K	Activity coefficient of nonane	uncertainty
313.1	33.07	1.54
333.1	29.17	1.35
353.1	26.76	1.24

System: decane + 1-butyl-1-methylpyrrolidinium bis[(trifluoromethyl)sulfonyl]imide; phases: Liquid
Fixed: Mole fraction of decane = 0
Fixed: Pressure, kPa = 101.325
Property: Activity coefficient of decane (Liquid); method: Chromatography
Temperature, K	Activity coefficient of decane	uncertainty
313.1	50.07	2.33
333.1	45.26	2.11
353.1	40.65	1.89

System: methylcyclopentane + 1-butyl-1-methylpyrrolidinium bis[(trifluoromethyl)sulfonyl]imide; phases: Liquid
Fixed: Mole fraction of methylcyclopentane = 0
Fixed: Pressure, kPa = 101.325
Property: Activity coefficient of methylcyclopentane (Liquid); method: Chromatography
Temperature, K	Activity coefficient of methylcyclopentane	uncertainty
313.1	10.28	0.47
333.1	9.08	0.42
353.1	8.11	0.37

System: methylcyclohexane + 1-butyl-1-methylpyrrolidinium bis[(trifluoromethyl)sulfonyl]imide; phases: Liquid
Fixed: Mole fraction of methylcyclohexane = 0
Fixed: Pressure, kPa = 101.325
Property: Activity coefficient of methylcyclohexane (Liquid); method: Chromatography
Temperature, K	Activity coefficient of methylcyclohexane	uncertainty
313.1	8.53	0.39
333.1	7.52	0.34
353.1	6.76	0.31

System: toluene + 1-butyl-1-methylpyrrolidinium bis[(trifluoromethyl)sulfonyl]imide; phases: Liquid
Fixed: Mole fraction of toluene = 0
Fixed: Pressure, kPa = 101.325
Property: Activity coefficient of toluene (Liquid); method: Chromatography
Temperature, K	Activity coefficient of toluene	uncertainty
313.1	1.22	0.04
333.1	1.29	0.04
353.1	1.37	0.05

System: 1,2-dimethylbenzene + 1-butyl-1-methylpyrrolidinium bis[(trifluoromethyl)sulfonyl]imide; phases: Liquid
Fixed: Mole fraction of 1,2-dimethylbenzene = 0
Fixed: Pressure, kPa = 101.325
Property: Activity coefficient of 1,2-dimethylbenzene (Liquid); method: Chromatography
Temperature, K	Activity coefficient of 1,2-dimethylbenzene	uncertainty
313.1	1.57	0.06
333.1	1.59	0.06
353.1	1.61	0.06

System: hexane + 1-butyl-3-methylimidazolium tetrafluoroborate; phases: Liquid
Fixed: Mole fraction of hexane = 0
Fixed: Pressure, kPa = 101.325
Property: Activity coefficient of hexane (Liquid); method: Chromatography
Temperature, K	Activity coefficient of hexane	uncertainty
313.1	56.73	2.65
333.1	47.83	2.23
353.1	45.25	2.11

System: heptane + 1-butyl-3-methylimidazolium tetrafluoroborate; phases: Liquid
Fixed: Mole fraction of heptane = 0
Fixed: Pressure, kPa = 101.325
Property: Activity coefficient of heptane (Liquid); method: Chromatography
Temperature, K	Activity coefficient of heptane	uncertainty
313.1	78.7	3.69
333.1	69	3.23
353.1	62.17	2.9

System: octane + 1-butyl-3-methylimidazolium tetrafluoroborate; phases: Liquid
Fixed: Mole fraction of octane = 0
Fixed: Pressure, kPa = 101.325
Property: Activity coefficient of octane (Liquid); method: Chromatography
Temperature, K	Activity coefficient of octane	uncertainty
313.1	92.19	4.32
333.1	83.66	3.92
353.1	72.37	3.39

System: decane + 1-butyl-3-methylimidazolium tetrafluoroborate; phases: Liquid
Fixed: Mole fraction of decane = 0
Fixed: Pressure, kPa = 101.325
Property: Activity coefficient of decane (Liquid); method: Chromatography
Temperature, K	Activity coefficient of decane	uncertainty
313.1	177.14	8.36
333.1	144.41	6.8
353.1	125.11	5.88

System: methylcyclopentane + 1-butyl-3-methylimidazolium tetrafluoroborate; phases: Liquid
Fixed: Mole fraction of methylcyclopentane = 0
Fixed: Pressure, kPa = 101.325
Property: Activity coefficient of methylcyclopentane (Liquid); method: Chromatography
Temperature, K	Activity coefficient of methylcyclopentane	uncertainty
313.1	35.65	1.66
333.1	30.59	1.42
353.1	28.84	1.34

System: methylcyclohexane + 1-butyl-3-methylimidazolium tetrafluoroborate; phases: Liquid
Fixed: Mole fraction of methylcyclohexane = 0
Fixed: Pressure, kPa = 101.325
Property: Activity coefficient of methylcyclohexane (Liquid); method: Chromatography
Temperature, K	Activity coefficient of methylcyclohexane	uncertainty
313.1	45.71	2.13
333.1	40.5	1.88
353.1	35.53	1.65

System: toluene + 1-butyl-3-methylimidazolium tetrafluoroborate; phases: Liquid
Fixed: Mole fraction of toluene = 0
Fixed: Pressure, kPa = 101.325
Property: Activity coefficient of toluene (Liquid); method: Chromatography
Temperature, K	Activity coefficient of toluene	uncertainty
313.1	3.28	0.15
333.1	3.33	0.15
353.1	3.4	0.15

System: 1,2-dimethylbenzene + 1-butyl-3-methylimidazolium tetrafluoroborate; phases: Liquid
Fixed: Mole fraction of 1,2-dimethylbenzene = 0
Fixed: Pressure, kPa = 101.325
Property: Activity coefficient of 1,2-dimethylbenzene (Liquid); method: Chromatography
Temperature, K	Activity coefficient of 1,2-dimethylbenzene	uncertainty
313.1	4.55	0.21
333.1	4.51	0.21
353.1	4.49	0.2
