Measured thermophysical data. Densities and Viscosities of Ternary System n-Dodecane (1) + Bicyclohexyl (2) + n-Butanol (3) and Corresponding Binaries at T = (293.15 to 333.15) K
Source: J. Chem. Eng. Data, 2018, 10.1021/acs.jced.8b00438
Compound 1: dodecane, C12H26, InChI=1S/C12H26/c1-3-5-7-9-11-12-10-8-6-4-2/h3-12H2,1-2H3, purity 99%
Compound 2: 1,1'-bicyclohexyl, C12H22, InChI=1S/C12H22/c1-3-7-11(8-4-1)12-9-5-2-6-10-12/h11-12H,1-10H2, purity 99%
Compound 3: butan-1-ol, C4H10O, InChI=1S/C4H10O/c1-2-3-4-5/h5H,2-4H2,1H3, purity 99%

System: dodecane; phases: Liquid
Fixed: Pressure, kPa = 100
Property: Mass density, kg/m3 (Liquid); method: Vibrating tube method
Temperature, K	Mass density, kg/m3	uncertainty
293.15	748.83	0.76
298.15	745.22	0.76
303.15	741.59	0.75
308.15	737.95	0.75
313.15	734.31	0.75
318.15	730.66	0.74
323.15	727	0.74
328.15	723.33	0.74
333.15	719.65	0.73

System: dodecane; phases: Liquid
Fixed: Pressure, kPa = 100
Property: Viscosity, Pa*s (Liquid); method: Falling or rolling sphere viscometry
Temperature, K	Viscosity, Pa*s	uncertainty
293.15	0.001491	3.2e-05
298.15	0.001366	2.9e-05
303.15	0.001257	2.7e-05
308.15	0.001154	2.5e-05
313.15	0.001076	2.3e-05
318.15	0.001003	2.1e-05
323.15	0.000936	2e-05
328.15	0.000877	1.9e-05
333.15	0.000823	1.8e-05

System: 1,1'-bicyclohexyl; phases: Liquid
Fixed: Pressure, kPa = 100
Property: Mass density, kg/m3 (Liquid); method: Vibrating tube method
Temperature, K	Mass density, kg/m3	uncertainty
293.15	886.05	0.89
298.15	882.44	0.89
303.15	878.84	0.88
308.15	875.25	0.88
313.15	871.66	0.88
318.15	868.08	0.87
323.15	864.5	0.87
328.15	860.93	0.87
333.15	857.35	0.86

System: 1,1'-bicyclohexyl; phases: Liquid
Fixed: Pressure, kPa = 100
Property: Viscosity, Pa*s (Liquid); method: Falling or rolling sphere viscometry
Temperature, K	Viscosity, Pa*s	uncertainty
293.15	0.004003	8.5e-05
298.15	0.00353	7.5e-05
303.15	0.003137	6.7e-05
308.15	0.00281	6e-05
313.15	0.002532	5.4e-05
318.15	0.002296	4.9e-05
323.15	0.002092	4.5e-05
328.15	0.001915	4.1e-05
333.15	0.001762	3.8e-05

System: butan-1-ol; phases: Liquid
Fixed: Pressure, kPa = 100
Property: Mass density, kg/m3 (Liquid); method: Vibrating tube method
Temperature, K	Mass density, kg/m3	uncertainty
293.15	809.5	0.82
298.15	805.7	0.81
303.15	801.87	0.81
308.15	798	0.81
313.15	794.1	0.8
318.15	790.15	0.8
323.15	786.16	0.8
328.15	782.12	0.79
333.15	778.01	0.79

System: butan-1-ol; phases: Liquid
Fixed: Pressure, kPa = 100
Property: Viscosity, Pa*s (Liquid); method: Falling or rolling sphere viscometry
Temperature, K	Viscosity, Pa*s	uncertainty
293.15	0.002941	6.3e-05
298.15	0.00258	5.5e-05
303.15	0.002274	4.8e-05
308.15	0.002012	4.3e-05
313.15	0.001787	3.8e-05
318.15	0.001593	3.4e-05
323.15	0.001426	3e-05
328.15	0.00128	2.7e-05
333.15	0.001152	2.5e-05

System: dodecane + 1,1'-bicyclohexyl; phases: Liquid
Fixed: Pressure, kPa = 100
Property: Mass density, kg/m3 (Liquid); method: Vibrating tube method
Temperature, K	Mole fraction of dodecane	Mass density, kg/m3	uncertainty
293.15	0	886.05	0.89
293.15	0.1055	869.17	0.88
293.15	0.2016	854.56	0.86
293.15	0.3019	839.7	0.85
293.15	0.398	825.91	0.83
293.15	0.5006	811.71	0.82
293.15	0.5953	798.95	0.81
293.15	0.6911	786.49	0.8
293.15	0.7985	772.97	0.78
293.15	0.8888	761.97	0.77
293.15	1	748.83	0.76
298.15	0	882.44	0.89
298.15	0.1055	865.58	0.87
298.15	0.2016	850.98	0.86
298.15	0.3019	836.11	0.84
298.15	0.398	822.33	0.83
298.15	0.5006	808.14	0.82
298.15	0.5953	795.38	0.8
298.15	0.6911	782.91	0.79
298.15	0.7985	769.38	0.78
298.15	0.8888	758.37	0.77
298.15	1	745.22	0.76
303.15	0	878.84	0.88
303.15	0.1055	861.99	0.87
303.15	0.2016	847.4	0.86
303.15	0.3019	832.52	0.84
303.15	0.398	818.74	0.83
303.15	0.5006	804.55	0.81
303.15	0.5953	791.78	0.8
303.15	0.6911	779.31	0.79
303.15	0.7985	765.77	0.78
303.15	0.8888	754.75	0.77
303.15	1	741.59	0.75
308.15	0	875.25	0.88
308.15	0.1055	858.41	0.87
308.15	0.2016	843.81	0.85
308.15	0.3019	828.94	0.84
308.15	0.398	815.15	0.82
308.15	0.5006	800.96	0.81
308.15	0.5953	788.19	0.8
308.15	0.6911	775.71	0.79
308.15	0.7985	762.15	0.77
308.15	0.8888	751.13	0.76
308.15	1	737.95	0.75
313.15	0	871.66	0.88
313.15	0.1055	854.82	0.86
313.15	0.2016	840.23	0.85
313.15	0.3019	825.35	0.83
313.15	0.398	811.56	0.82
313.15	0.5006	797.36	0.81
313.15	0.5953	784.58	0.79
313.15	0.6911	772.09	0.78
313.15	0.7985	758.53	0.77
313.15	0.8888	747.5	0.76
313.15	1	734.31	0.75
318.15	0	868.08	0.87
318.15	0.1055	851.24	0.86
318.15	0.2016	836.64	0.85
318.15	0.3019	821.76	0.83
318.15	0.398	807.96	0.82
318.15	0.5006	793.76	0.8
318.15	0.5953	780.98	0.79
318.15	0.6911	768.48	0.78
318.15	0.7985	754.91	0.77
318.15	0.8888	743.86	0.76
318.15	1	730.66	0.74
323.15	0	864.5	0.87
323.15	0.1055	847.66	0.86
323.15	0.2016	833.06	0.84
323.15	0.3019	818.17	0.83
323.15	0.398	804.36	0.81
323.15	0.5006	790.16	0.8
323.15	0.5953	777.36	0.79
323.15	0.6911	764.85	0.78
323.15	0.7985	751.27	0.76
323.15	0.8888	740.21	0.75
323.15	1	727	0.74
328.15	0	860.93	0.87
328.15	0.1055	844.08	0.85
328.15	0.2016	829.47	0.84
328.15	0.3019	814.58	0.82
328.15	0.398	800.76	0.81
328.15	0.5006	786.54	0.8
328.15	0.5953	773.74	0.78
328.15	0.6911	761.22	0.77
328.15	0.7985	747.63	0.76
328.15	0.8888	736.56	0.75
328.15	1	723.33	0.74
333.15	0	857.35	0.86
333.15	0.1055	840.5	0.85
333.15	0.2016	825.89	0.83
333.15	0.3019	810.98	0.82
333.15	0.398	797.16	0.81
333.15	0.5006	782.93	0.79
333.15	0.5953	770.11	0.78
333.15	0.6911	757.59	0.77
333.15	0.7985	743.98	0.76
333.15	0.8888	732.9	0.75
333.15	1	719.65	0.73

System: dodecane + 1,1'-bicyclohexyl; phases: Liquid
Fixed: Pressure, kPa = 100
Property: Viscosity, Pa*s (Liquid); method: Falling or rolling sphere viscometry
Temperature, K	Mole fraction of dodecane	Viscosity, Pa*s	uncertainty
293.15	0	0.004003	8.5e-05
293.15	0.1055	0.003406	7.3e-05
293.15	0.2016	0.003	6.4e-05
293.15	0.3019	0.002637	5.6e-05
293.15	0.398	0.002369	5e-05
293.15	0.5006	0.002166	4.6e-05
293.15	0.5953	0.001998	4.3e-05
293.15	0.6911	0.001839	3.9e-05
293.15	0.7985	0.001697	3.6e-05
293.15	0.8888	0.00162	3.4e-05
293.15	1	0.001491	3.2e-05
298.15	0	0.00353	7.5e-05
298.15	0.1055	0.003025	6.4e-05
298.15	0.2016	0.002681	5.7e-05
298.15	0.3019	0.002366	5e-05
298.15	0.398	0.002136	4.5e-05
298.15	0.5006	0.001955	4.2e-05
298.15	0.5953	0.001811	3.9e-05
298.15	0.6911	0.001672	3.6e-05
298.15	0.7985	0.001548	3.3e-05
298.15	0.8888	0.001466	3.1e-05
298.15	1	0.001366	2.9e-05
303.15	0	0.003137	6.7e-05
303.15	0.1055	0.002706	5.8e-05
303.15	0.2016	0.002411	5.1e-05
303.15	0.3019	0.002138	4.6e-05
303.15	0.398	0.001938	4.1e-05
303.15	0.5006	0.001777	3.8e-05
303.15	0.5953	0.001652	3.5e-05
303.15	0.6911	0.001529	3.3e-05
303.15	0.7985	0.001417	3e-05
303.15	0.8888	0.001331	2.8e-05
303.15	1	0.001257	2.7e-05
308.15	0	0.00281	6e-05
308.15	0.1055	0.002438	5.2e-05
308.15	0.2016	0.002182	4.6e-05
308.15	0.3019	0.001943	4.1e-05
308.15	0.398	0.001766	3.8e-05
308.15	0.5006	0.001624	3.5e-05
308.15	0.5953	0.001513	3.2e-05
308.15	0.6911	0.001405	3e-05
308.15	0.7985	0.001305	2.8e-05
308.15	0.8888	0.001223	2.6e-05
308.15	1	0.001154	2.5e-05
313.15	0	0.002532	5.4e-05
313.15	0.1055	0.002209	4.7e-05
313.15	0.2016	0.001985	4.2e-05
313.15	0.3019	0.001776	3.8e-05
313.15	0.398	0.001618	3.4e-05
313.15	0.5006	0.001492	3.2e-05
313.15	0.5953	0.001393	3e-05
313.15	0.6911	0.001298	2.8e-05
313.15	0.7985	0.001206	2.6e-05
313.15	0.8888	0.001131	2.4e-05
313.15	1	0.001076	2.3e-05
318.15	0	0.002296	4.9e-05
318.15	0.1055	0.002012	4.3e-05
318.15	0.2016	0.001815	3.9e-05
318.15	0.3019	0.001629	3.5e-05
318.15	0.398	0.001489	3.2e-05
318.15	0.5006	0.001377	2.9e-05
318.15	0.5953	0.001288	2.7e-05
318.15	0.6911	0.001203	2.6e-05
318.15	0.7985	0.001119	2.4e-05
318.15	0.8888	0.00105	2.2e-05
318.15	1	0.001003	2.1e-05
323.15	0	0.002092	4.5e-05
323.15	0.1055	0.001842	3.9e-05
323.15	0.2016	0.001667	3.6e-05
323.15	0.3019	0.001501	3.2e-05
323.15	0.398	0.001376	2.9e-05
323.15	0.5006	0.001275	2.7e-05
323.15	0.5953	0.001195	2.5e-05
323.15	0.6911	0.001119	2.4e-05
323.15	0.7985	0.001041	2.2e-05
323.15	0.8888	0.000978	2.1e-05
323.15	1	0.000936	2e-05
328.15	0	0.001915	4.1e-05
328.15	0.1055	0.001693	3.6e-05
328.15	0.2016	0.001536	3.3e-05
328.15	0.3019	0.001389	3e-05
328.15	0.398	0.001276	2.7e-05
328.15	0.5006	0.001184	2.5e-05
328.15	0.5953	0.001112	2.4e-05
328.15	0.6911	0.001043	2.2e-05
328.15	0.7985	0.000973	2.1e-05
328.15	0.8888	0.000914	1.9e-05
328.15	1	0.000877	1.9e-05
333.15	0	0.001762	3.8e-05
333.15	0.1055	0.001563	3.3e-05
333.15	0.2016	0.001423	3e-05
333.15	0.3019	0.001288	2.7e-05
333.15	0.398	0.001186	2.5e-05
333.15	0.5006	0.001104	2.4e-05
333.15	0.5953	0.001039	2.2e-05
333.15	0.6911	0.000976	2.1e-05
333.15	0.7985	0.00091	1.9e-05
333.15	0.8888	0.000856	1.8e-05
333.15	1	0.000823	1.8e-05

System: dodecane + butan-1-ol; phases: Liquid
Fixed: Pressure, kPa = 100
Property: Mass density, kg/m3 (Liquid); method: Vibrating tube method
Temperature, K	Mole fraction of dodecane	Mass density, kg/m3	uncertainty
293.15	0	809.5	0.82
293.15	0.1045	794.67	0.81
293.15	0.2008	784.43	0.79
293.15	0.3002	776.26	0.79
293.15	0.3985	769.8	0.78
293.15	0.4995	764.28	0.77
293.15	0.5978	759.94	0.77
293.15	0.7012	755.99	0.77
293.15	0.7671	754.1	0.76
293.15	0.8773	751.22	0.76
293.15	1	748.83	0.76
298.15	0	805.7	0.81
298.15	0.1045	790.86	0.8
298.15	0.2008	780.62	0.79
298.15	0.3002	772.45	0.78
298.15	0.3985	765.97	0.78
298.15	0.4995	760.49	0.77
298.15	0.5978	756.17	0.77
298.15	0.7012	752.24	0.76
298.15	0.7671	750.38	0.76
298.15	0.8773	747.52	0.76
298.15	1	745.22	0.76
303.15	0	801.87	0.81
303.15	0.1045	787.01	0.8
303.15	0.2008	776.76	0.79
303.15	0.3002	768.59	0.78
303.15	0.3985	762.12	0.77
303.15	0.4995	756.67	0.77
303.15	0.5978	752.37	0.76
303.15	0.7012	748.47	0.76
303.15	0.7671	746.62	0.76
303.15	0.8773	743.81	0.75
303.15	1	741.59	0.75
308.15	0	798	0.81
308.15	0.1045	783.13	0.79
308.15	0.2008	772.86	0.78
308.15	0.3002	764.7	0.78
308.15	0.3985	758.24	0.77
308.15	0.4995	752.82	0.76
308.15	0.5978	748.54	0.76
308.15	0.7012	744.67	0.76
308.15	0.7671	742.85	0.75
308.15	0.8773	740.07	0.75
308.15	1	737.95	0.75
313.15	0	794.1	0.8
313.15	0.1045	779.2	0.79
313.15	0.2008	768.93	0.78
313.15	0.3002	760.78	0.77
313.15	0.3985	754.33	0.77
313.15	0.4995	748.93	0.76
313.15	0.5978	744.69	0.76
313.15	0.7012	740.88	0.75
313.15	0.7671	739.06	0.75
313.15	0.8773	736.32	0.75
313.15	1	734.31	0.75
318.15	0	790.15	0.8
318.15	0.1045	775.23	0.79
318.15	0.2008	764.95	0.78
318.15	0.3002	756.81	0.77
318.15	0.3985	750.39	0.76
318.15	0.4995	745.02	0.76
318.15	0.5978	740.81	0.75
318.15	0.7012	737.02	0.75
318.15	0.7671	735.24	0.75
318.15	0.8773	732.55	0.74
318.15	1	730.66	0.74
323.15	0	786.16	0.8
323.15	0.1045	771.21	0.78
323.15	0.2008	760.93	0.77
323.15	0.3002	752.8	0.76
323.15	0.3985	746.41	0.76
323.15	0.4995	741.07	0.75
323.15	0.5978	736.9	0.75
323.15	0.7012	733.15	0.74
323.15	0.7671	731.4	0.74
323.15	0.8773	728.77	0.74
323.15	1	727	0.74
328.15	0	782.12	0.79
328.15	0.1045	767.14	0.78
328.15	0.2008	756.86	0.77
328.15	0.3002	748.75	0.76
328.15	0.3985	742.38	0.75
328.15	0.4995	737.08	0.75
328.15	0.5978	732.96	0.74
328.15	0.7012	729.25	0.74
328.15	0.7671	727.53	0.74
328.15	0.8773	724.96	0.74
328.15	1	723.33	0.74
333.15	0	778.01	0.79
333.15	0.1045	763.01	0.78
333.15	0.2008	752.73	0.76
333.15	0.3002	744.64	0.76
333.15	0.3985	738.31	0.75
333.15	0.4995	733.06	0.75
333.15	0.5978	728.98	0.74
333.15	0.7012	725.32	0.74
333.15	0.7671	723.64	0.74
333.15	0.8773	721.13	0.73
333.15	1	719.65	0.73

System: dodecane + butan-1-ol; phases: Liquid
Fixed: Pressure, kPa = 100
Property: Viscosity, Pa*s (Liquid); method: Falling or rolling sphere viscometry
Temperature, K	Mole fraction of dodecane	Viscosity, Pa*s	uncertainty
293.15	0	0.002941	6.3e-05
293.15	0.1045	0.002478	5.3e-05
293.15	0.2008	0.002167	4.6e-05
293.15	0.3002	0.001935	4.1e-05
293.15	0.3985	0.001772	3.8e-05
293.15	0.4995	0.00164	3.5e-05
293.15	0.5978	0.001561	3.3e-05
293.15	0.7012	0.001494	3.2e-05
293.15	0.7671	0.001476	3.1e-05
293.15	0.8773	0.001458	3.1e-05
293.15	1	0.001491	3.2e-05
298.15	0	0.00258	5.5e-05
298.15	0.1045	0.002183	4.7e-05
298.15	0.2008	0.001919	4.1e-05
298.15	0.3002	0.001722	3.7e-05
298.15	0.3985	0.001588	3.4e-05
298.15	0.4995	0.001477	3.1e-05
298.15	0.5978	0.001414	3e-05
298.15	0.7012	0.001359	2.9e-05
298.15	0.7671	0.001345	2.9e-05
298.15	0.8773	0.001331	2.8e-05
298.15	1	0.001366	2.9e-05
303.15	0	0.002274	4.8e-05
303.15	0.1045	0.001934	4.1e-05
303.15	0.2008	0.001709	3.6e-05
303.15	0.3002	0.001543	3.3e-05
303.15	0.3985	0.00143	3e-05
303.15	0.4995	0.001338	2.8e-05
303.15	0.5978	0.001287	2.7e-05
303.15	0.7012	0.001242	2.6e-05
303.15	0.7671	0.001231	2.6e-05
303.15	0.8773	0.00122	2.6e-05
303.15	1	0.001257	2.7e-05
308.15	0	0.002012	4.3e-05
308.15	0.1045	0.001721	3.7e-05
308.15	0.2008	0.001529	3.3e-05
308.15	0.3002	0.001388	3e-05
308.15	0.3985	0.001295	2.8e-05
308.15	0.4995	0.001218	2.6e-05
308.15	0.5978	0.001177	2.5e-05
308.15	0.7012	0.001141	2.4e-05
308.15	0.7671	0.001132	2.4e-05
308.15	0.8773	0.001124	2.4e-05
308.15	1	0.001154	2.5e-05
313.15	0	0.001787	3.8e-05
313.15	0.1045	0.001537	3.3e-05
313.15	0.2008	0.001373	2.9e-05
313.15	0.3002	0.001254	2.7e-05
313.15	0.3985	0.001177	2.5e-05
313.15	0.4995	0.001114	2.4e-05
313.15	0.5978	0.001082	2.3e-05
313.15	0.7012	0.001051	2.2e-05
313.15	0.7671	0.001045	2.2e-05
313.15	0.8773	0.00104	2.2e-05
313.15	1	0.001076	2.3e-05
318.15	0	0.001593	3.4e-05
318.15	0.1045	0.001379	2.9e-05
318.15	0.2008	0.001239	2.6e-05
318.15	0.3002	0.001138	2.4e-05
318.15	0.3985	0.001075	2.3e-05
318.15	0.4995	0.001022	2.2e-05
318.15	0.5978	0.000997	2.1e-05
318.15	0.7012	0.000972	2.1e-05
318.15	0.7671	0.000968	2.1e-05
318.15	0.8773	0.000964	2.1e-05
318.15	1	0.001003	2.1e-05
323.15	0	0.001426	3e-05
323.15	0.1045	0.001241	2.6e-05
323.15	0.2008	0.001122	2.4e-05
323.15	0.3002	0.001038	2.2e-05
323.15	0.3985	0.000985	2.1e-05
323.15	0.4995	0.000942	2e-05
323.15	0.5978	0.000923	2e-05
323.15	0.7012	0.000902	1.9e-05
323.15	0.7671	0.0009	1.9e-05
323.15	0.8773	0.000899	1.9e-05
323.15	1	0.000936	2e-05
328.15	0	0.00128	2.7e-05
328.15	0.1045	0.001121	2.4e-05
328.15	0.2008	0.00102	2.2e-05
328.15	0.3002	0.000949	2e-05
328.15	0.3985	0.000906	1.9e-05
328.15	0.4995	0.000871	1.9e-05
328.15	0.5978	0.000856	1.8e-05
328.15	0.7012	0.00084	1.8e-05
328.15	0.7671	0.000839	1.8e-05
328.15	0.8773	0.000839	1.8e-05
328.15	1	0.000877	1.9e-05
333.15	0	0.001152	2.5e-05
333.15	0.1045	0.001017	2.2e-05
333.15	0.2008	0.000931	2e-05
333.15	0.3002	0.000871	1.9e-05
333.15	0.3985	0.000837	1.8e-05
333.15	0.4995	0.000808	1.7e-05
333.15	0.5978	0.000797	1.7e-05
333.15	0.7012	0.000784	1.7e-05
333.15	0.7671	0.000785	1.7e-05
333.15	0.8773	0.000785	1.7e-05
333.15	1	0.000823	1.8e-05

System: 1,1'-bicyclohexyl + butan-1-ol; phases: Liquid
Fixed: Pressure, kPa = 100
Property: Mass density, kg/m3 (Liquid); method: Vibrating tube method
Temperature, K	Mole fraction of 1,1'-bicyclohexyl	Mass density, kg/m3	uncertainty
293.15	0	809.5	0.82
293.15	0.1007	823.66	0.83
293.15	0.2009	835.23	0.84
293.15	0.3021	845.04	0.85
293.15	0.4007	853.19	0.86
293.15	0.5038	860.51	0.87
293.15	0.5992	866.48	0.87
293.15	0.7006	872.11	0.88
293.15	0.7983	877.03	0.88
293.15	0.8835	880.86	0.89
293.15	1	886.05	0.89
298.15	0	805.7	0.81
298.15	0.1007	819.86	0.83
298.15	0.2009	831.42	0.84
298.15	0.3021	841.24	0.85
298.15	0.4007	849.39	0.86
298.15	0.5038	856.73	0.86
298.15	0.5992	862.71	0.87
298.15	0.7006	868.37	0.87
298.15	0.7983	873.33	0.88
298.15	0.8835	877.19	0.88
298.15	1	882.44	0.89
303.15	0	801.87	0.81
303.15	0.1007	816.02	0.83
303.15	0.2009	827.58	0.84
303.15	0.3021	837.4	0.85
303.15	0.4007	845.56	0.85
303.15	0.5038	852.92	0.86
303.15	0.5992	858.93	0.87
303.15	0.7006	864.61	0.87
303.15	0.7983	869.6	0.88
303.15	0.8835	873.49	0.88
303.15	1	878.84	0.88
308.15	0	798	0.81
308.15	0.1007	812.14	0.82
308.15	0.2009	823.71	0.83
308.15	0.3021	833.53	0.84
308.15	0.4007	841.7	0.85
308.15	0.5038	849.08	0.86
308.15	0.5992	855.12	0.86
308.15	0.7006	860.84	0.87
308.15	0.7983	865.87	0.87
308.15	0.8835	869.8	0.88
308.15	1	875.25	0.88
313.15	0	794.1	0.8
313.15	0.1007	808.22	0.82
313.15	0.2009	819.81	0.83
313.15	0.3021	829.63	0.84
313.15	0.4007	837.81	0.85
313.15	0.5038	845.22	0.85
313.15	0.5992	851.3	0.86
313.15	0.7006	857.05	0.86
313.15	0.7983	862.13	0.87
313.15	0.8835	866.09	0.87
313.15	1	871.66	0.88
318.15	0	790.15	0.8
318.15	0.1007	804.27	0.81
318.15	0.2009	815.86	0.82
318.15	0.3021	825.69	0.83
318.15	0.4007	833.9	0.84
318.15	0.5038	841.34	0.85
318.15	0.5992	847.45	0.85
318.15	0.7006	853.25	0.86
318.15	0.7983	858.37	0.86
318.15	0.8835	862.38	0.87
318.15	1	868.08	0.87
323.15	0	786.16	0.8
323.15	0.1007	800.27	0.81
323.15	0.2009	811.87	0.82
323.15	0.3021	821.71	0.83
323.15	0.4007	829.95	0.84
323.15	0.5038	837.43	0.84
323.15	0.5992	843.58	0.85
323.15	0.7006	849.43	0.86
323.15	0.7983	854.6	0.86
323.15	0.8835	858.66	0.86
323.15	1	864.5	0.87
328.15	0	782.12	0.79
328.15	0.1007	796.21	0.81
328.15	0.2009	807.82	0.82
328.15	0.3021	817.69	0.83
328.15	0.4007	825.97	0.83
328.15	0.5038	833.49	0.84
328.15	0.5992	839.69	0.85
328.15	0.7006	845.59	0.85
328.15	0.7983	850.82	0.86
328.15	0.8835	854.93	0.86
328.15	1	860.93	0.87
333.15	0	778.01	0.79
333.15	0.1007	792.1	0.8
333.15	0.2009	803.73	0.81
333.15	0.3021	813.63	0.82
333.15	0.4007	821.94	0.83
333.15	0.5038	829.52	0.84
333.15	0.5992	835.77	0.84
333.15	0.7006	841.73	0.85
333.15	0.7983	847.02	0.85
333.15	0.8835	851.2	0.86
333.15	1	857.35	0.86

System: 1,1'-bicyclohexyl + butan-1-ol; phases: Liquid
Fixed: Pressure, kPa = 100
Property: Viscosity, Pa*s (Liquid); method: Falling or rolling sphere viscometry
Temperature, K	Mole fraction of 1,1'-bicyclohexyl	Viscosity, Pa*s	uncertainty
293.15	0	0.002941	6.3e-05
293.15	0.1007	0.002853	6.1e-05
293.15	0.2009	0.002878	6.1e-05
293.15	0.3021	0.002902	6.2e-05
293.15	0.4007	0.002957	6.3e-05
293.15	0.5038	0.003002	6.4e-05
293.15	0.5992	0.003096	6.6e-05
293.15	0.7006	0.003227	6.9e-05
293.15	0.7983	0.003418	7.3e-05
293.15	0.8835	0.003575	7.6e-05
293.15	1	0.004003	8.5e-05
298.15	0	0.00258	5.5e-05
298.15	0.1007	0.002507	5.3e-05
298.15	0.2009	0.002527	5.4e-05
298.15	0.3021	0.002548	5.4e-05
298.15	0.4007	0.002603	5.6e-05
298.15	0.5038	0.002648	5.6e-05
298.15	0.5992	0.002734	5.8e-05
298.15	0.7006	0.002851	6.1e-05
298.15	0.7983	0.00302	6.4e-05
298.15	0.8835	0.003158	6.7e-05
298.15	1	0.00353	7.5e-05
303.15	0	0.002274	4.8e-05
303.15	0.1007	0.002214	4.7e-05
303.15	0.2009	0.002232	4.8e-05
303.15	0.3021	0.002254	4.8e-05
303.15	0.4007	0.002306	4.9e-05
303.15	0.5038	0.002353	5e-05
303.15	0.5992	0.002431	5.2e-05
303.15	0.7006	0.002539	5.4e-05
303.15	0.7983	0.002689	5.7e-05
303.15	0.8835	0.002807	6e-05
303.15	1	0.003137	6.7e-05
308.15	0	0.002012	4.3e-05
308.15	0.1007	0.001963	4.2e-05
308.15	0.2009	0.001982	4.2e-05
308.15	0.3021	0.002006	4.3e-05
308.15	0.4007	0.002054	4.4e-05
308.15	0.5038	0.002102	4.5e-05
308.15	0.5992	0.002179	4.6e-05
308.15	0.7006	0.002273	4.8e-05
308.15	0.7983	0.002411	5.1e-05
308.15	0.8835	0.002513	5.4e-05
308.15	1	0.00281	6e-05
313.15	0	0.001787	3.8e-05
313.15	0.1007	0.001749	3.7e-05
313.15	0.2009	0.001767	3.8e-05
313.15	0.3021	0.001793	3.8e-05
313.15	0.4007	0.00184	3.9e-05
313.15	0.5038	0.001881	4e-05
313.15	0.5992	0.001957	4.2e-05
313.15	0.7006	0.002048	4.4e-05
313.15	0.7983	0.00217	4.6e-05
313.15	0.8835	0.002262	4.8e-05
313.15	1	0.002532	5.4e-05
318.15	0	0.001593	3.4e-05
318.15	0.1007	0.001563	3.3e-05
318.15	0.2009	0.001582	3.4e-05
318.15	0.3021	0.00161	3.4e-05
318.15	0.4007	0.001656	3.5e-05
318.15	0.5038	0.001704	3.6e-05
318.15	0.5992	0.001769	3.8e-05
318.15	0.7006	0.001853	4e-05
318.15	0.7983	0.001966	4.2e-05
318.15	0.8835	0.002047	4.4e-05
318.15	1	0.002296	4.9e-05
323.15	0	0.001426	3e-05
323.15	0.1007	0.001402	3e-05
323.15	0.2009	0.001423	3e-05
323.15	0.3021	0.001452	3.1e-05
323.15	0.4007	0.001498	3.2e-05
323.15	0.5038	0.001545	3.3e-05
323.15	0.5992	0.001608	3.4e-05
323.15	0.7006	0.001685	3.6e-05
323.15	0.7983	0.001789	3.8e-05
323.15	0.8835	0.001863	4e-05
323.15	1	0.002092	4.5e-05
328.15	0	0.00128	2.7e-05
328.15	0.1007	0.001263	2.7e-05
328.15	0.2009	0.001285	2.7e-05
328.15	0.3021	0.001315	2.8e-05
328.15	0.4007	0.00136	2.9e-05
328.15	0.5038	0.001407	3e-05
328.15	0.5992	0.001466	3.1e-05
328.15	0.7006	0.00154	3.3e-05
328.15	0.7983	0.001635	3.5e-05
328.15	0.8835	0.001702	3.6e-05
328.15	1	0.001915	4.1e-05
333.15	0	0.001152	2.5e-05
333.15	0.1007	0.001141	2.4e-05
333.15	0.2009	0.001164	2.5e-05
333.15	0.3021	0.001196	2.6e-05
333.15	0.4007	0.00124	2.6e-05
333.15	0.5038	0.001286	2.7e-05
333.15	0.5992	0.001342	2.9e-05
333.15	0.7006	0.001411	3e-05
333.15	0.7983	0.001499	3.2e-05
333.15	0.8835	0.001562	3.3e-05
333.15	1	0.001762	3.8e-05

System: dodecane + 1,1'-bicyclohexyl + butan-1-ol; phases: Liquid
Fixed: Pressure, kPa = 100
Property: Mass density, kg/m3 (Liquid); method: Vibrating tube method
Temperature, K	Mole fraction of dodecane	Mole fraction of 1,1'-bicyclohexyl	Mass density, kg/m3	uncertainty
293.15	0.1006	0.1008	809.01	0.82
293.15	0.0994	0.2035	821.17	0.83
293.15	0.1004	0.3012	830.76	0.84
293.15	0.1006	0.3994	839.11	0.85
293.15	0.0981	0.4975	846.8	0.85
293.15	0.1017	0.5919	852.72	0.86
293.15	0.0994	0.6969	859.35	0.87
293.15	0.1015	0.7989	864.65	0.87
293.15	0.1995	0.0997	797.9	0.81
293.15	0.1975	0.2011	809.64	0.82
293.15	0.1995	0.3007	819.39	0.83
293.15	0.1995	0.3998	827.89	0.84
293.15	0.2011	0.5007	835.48	0.84
293.15	0.2049	0.5946	841.6	0.85
293.15	0.2001	0.6973	848.62	0.86
293.15	0.2996	0.1015	789.35	0.8
293.15	0.2977	0.2017	800.4	0.81
293.15	0.3003	0.3001	809.73	0.82
293.15	0.299	0.3983	818.34	0.83
293.15	0.3024	0.4986	825.86	0.83
293.15	0.2994	0.6024	833.46	0.84
293.15	0.4001	0.104	782.22	0.79
293.15	0.3952	0.1998	792.73	0.8
293.15	0.3845	0.3069	803.65	0.81
293.15	0.3975	0.4008	810.74	0.82
293.15	0.399	0.5	818.32	0.83
293.15	0.4994	0.0997	775.81	0.79
293.15	0.4851	0.2024	787.19	0.8
293.15	0.498	0.3027	795.72	0.8
293.15	0.4955	0.3963	803.75	0.81
293.15	0.602	0.1007	770.85	0.78
293.15	0.6011	0.2009	780.81	0.79
293.15	0.5881	0.3075	791.1	0.8
293.15	0.6975	0.1003	766.86	0.78
293.15	0.6847	0.2021	777.13	0.79
293.15	0.7962	0.1016	763.58	0.77
298.15	0.1006	0.1008	805.2	0.82
298.15	0.0994	0.2035	817.37	0.83
298.15	0.1004	0.3012	826.97	0.84
298.15	0.1006	0.3994	835.34	0.84
298.15	0.0981	0.4975	843.03	0.85
298.15	0.1017	0.5919	848.98	0.86
298.15	0.0994	0.6969	855.64	0.86
298.15	0.1015	0.7989	860.99	0.87
298.15	0.1995	0.0997	794.09	0.8
298.15	0.1975	0.2011	805.85	0.82
298.15	0.1995	0.3007	815.62	0.82
298.15	0.1995	0.3998	824.14	0.83
298.15	0.2011	0.5007	831.76	0.84
298.15	0.2049	0.5946	837.91	0.85
298.15	0.2001	0.6973	844.96	0.85
298.15	0.2996	0.1015	785.54	0.8
298.15	0.2977	0.2017	796.62	0.81
298.15	0.3003	0.3001	805.98	0.82
298.15	0.299	0.3983	814.62	0.82
298.15	0.3024	0.4986	822.17	0.83
298.15	0.2994	0.6024	829.8	0.84
298.15	0.4001	0.104	778.44	0.79
298.15	0.3952	0.1998	788.98	0.8
298.15	0.3845	0.3069	799.93	0.81
298.15	0.3975	0.4008	807.05	0.82
298.15	0.399	0.5	814.66	0.82
298.15	0.4994	0.0997	772.06	0.78
298.15	0.4851	0.2024	783.46	0.79
298.15	0.498	0.3027	792.03	0.8
298.15	0.4955	0.3963	800.08	0.81
298.15	0.602	0.1007	767.12	0.78
298.15	0.6011	0.2009	777.11	0.79
298.15	0.5881	0.3075	787.44	0.8
298.15	0.6975	0.1003	763.16	0.77
298.15	0.6847	0.2021	773.46	0.78
298.15	0.7962	0.1016	759.89	0.77
303.15	0.1006	0.1008	801.35	0.81
303.15	0.0994	0.2035	813.53	0.82
303.15	0.1004	0.3012	823.14	0.83
303.15	0.1006	0.3994	831.53	0.84
303.15	0.0981	0.4975	839.24	0.85
303.15	0.1017	0.5919	845.22	0.85
303.15	0.0994	0.6969	851.93	0.86
303.15	0.1015	0.7989	857.31	0.86
303.15	0.1995	0.0997	790.25	0.8
303.15	0.1975	0.2011	802.02	0.81
303.15	0.1995	0.3007	811.81	0.82
303.15	0.1995	0.3998	820.36	0.83
303.15	0.2011	0.5007	828.01	0.84
303.15	0.2049	0.5946	834.2	0.84
303.15	0.2001	0.6973	841.27	0.85
303.15	0.2996	0.1015	781.7	0.79
303.15	0.2977	0.2017	792.81	0.8
303.15	0.3003	0.3001	802.2	0.81
303.15	0.299	0.3983	810.87	0.82
303.15	0.3024	0.4986	818.46	0.83
303.15	0.2994	0.6024	826.12	0.83
303.15	0.4001	0.104	774.63	0.79
303.15	0.3952	0.1998	785.19	0.8
303.15	0.3845	0.3069	796.18	0.81
303.15	0.3975	0.4008	803.34	0.81
303.15	0.399	0.5	810.98	0.82
303.15	0.4994	0.0997	768.26	0.78
303.15	0.4851	0.2024	779.7	0.79
303.15	0.498	0.3027	788.31	0.8
303.15	0.4955	0.3963	796.39	0.81
303.15	0.602	0.1007	763.36	0.77
303.15	0.6011	0.2009	773.39	0.78
303.15	0.5881	0.3075	783.75	0.79
303.15	0.6975	0.1003	759.42	0.77
303.15	0.6847	0.2021	769.77	0.78
303.15	0.7962	0.1016	756.19	0.77
308.15	0.1006	0.1008	797.47	0.81
308.15	0.0994	0.2035	809.66	0.82
308.15	0.1004	0.3012	819.29	0.83
308.15	0.1006	0.3994	827.7	0.84
308.15	0.0981	0.4975	835.44	0.84
308.15	0.1017	0.5919	841.45	0.85
308.15	0.0994	0.6969	848.17	0.86
308.15	0.1015	0.7989	853.62	0.86
308.15	0.1995	0.0997	786.37	0.8
308.15	0.1975	0.2011	798.16	0.81
308.15	0.1995	0.3007	807.98	0.82
308.15	0.1995	0.3998	816.56	0.83
308.15	0.2011	0.5007	824.25	0.83
308.15	0.2049	0.5946	830.48	0.84
308.15	0.2001	0.6973	837.59	0.85
308.15	0.2996	0.1015	777.83	0.79
308.15	0.2977	0.2017	789	0.8
308.15	0.3003	0.3001	798.4	0.81
308.15	0.299	0.3983	807.11	0.82
308.15	0.3024	0.4986	814.73	0.82
308.15	0.2994	0.6024	822.44	0.83
308.15	0.4001	0.104	770.79	0.78
308.15	0.3952	0.1998	781.38	0.79
308.15	0.3845	0.3069	792.4	0.8
308.15	0.3975	0.4008	799.61	0.81
308.15	0.399	0.5	807.3	0.82
308.15	0.4994	0.0997	764.45	0.78
308.15	0.4851	0.2024	775.92	0.79
308.15	0.498	0.3027	784.58	0.79
308.15	0.4955	0.3963	792.7	0.8
308.15	0.602	0.1007	759.57	0.77
308.15	0.6011	0.2009	769.65	0.78
308.15	0.5881	0.3075	780.06	0.79
308.15	0.6975	0.1003	755.67	0.77
308.15	0.6847	0.2021	766.06	0.78
308.15	0.7962	0.1016	752.47	0.76
313.15	0.1006	0.1008	793.55	0.81
313.15	0.0994	0.2035	805.75	0.82
313.15	0.1004	0.3012	815.4	0.83
313.15	0.1006	0.3994	823.84	0.83
313.15	0.0981	0.4975	831.61	0.84
313.15	0.1017	0.5919	837.66	0.85
313.15	0.0994	0.6969	844.43	0.85
313.15	0.1015	0.7989	849.93	0.86
313.15	0.1995	0.0997	782.45	0.79
313.15	0.1975	0.2011	794.27	0.81
313.15	0.1995	0.3007	804.12	0.81
313.15	0.1995	0.3998	812.74	0.82
313.15	0.2011	0.5007	820.46	0.83
313.15	0.2049	0.5946	826.73	0.84
313.15	0.2001	0.6973	833.89	0.84
313.15	0.2996	0.1015	773.93	0.79
313.15	0.2977	0.2017	785.11	0.8
313.15	0.3003	0.3001	794.57	0.8
313.15	0.299	0.3983	803.32	0.81
313.15	0.3024	0.4986	810.99	0.82
313.15	0.2994	0.6024	818.74	0.83
313.15	0.4001	0.104	766.91	0.78
313.15	0.3952	0.1998	777.55	0.79
313.15	0.3845	0.3069	788.61	0.8
313.15	0.3975	0.4008	795.86	0.81
313.15	0.399	0.5	803.6	0.81
313.15	0.4994	0.0997	760.61	0.77
313.15	0.4851	0.2024	772.12	0.78
313.15	0.498	0.3027	780.82	0.79
313.15	0.4955	0.3963	788.99	0.8
313.15	0.602	0.1007	755.76	0.77
313.15	0.6011	0.2009	765.89	0.78
313.15	0.5881	0.3075	776.34	0.79
313.15	0.6975	0.1003	751.9	0.76
313.15	0.6847	0.2021	762.33	0.77
313.15	0.7962	0.1016	748.73	0.76
318.15	0.1006	0.1008	789.58	0.8
318.15	0.0994	0.2035	801.8	0.81
318.15	0.1004	0.3012	811.5	0.82
318.15	0.1006	0.3994	819.96	0.83
318.15	0.0981	0.4975	827.76	0.84
318.15	0.1017	0.5919	833.86	0.84
318.15	0.0994	0.6969	840.65	0.85
318.15	0.1015	0.7989	846.22	0.85
318.15	0.1995	0.0997	778.5	0.79
318.15	0.1975	0.2011	790.35	0.8
318.15	0.1995	0.3007	800.23	0.81
318.15	0.1995	0.3998	808.9	0.82
318.15	0.2011	0.5007	816.66	0.83
318.15	0.2049	0.5946	822.97	0.83
318.15	0.2001	0.6973	830.19	0.84
318.15	0.2996	0.1015	769.99	0.78
318.15	0.2977	0.2017	781.22	0.79
318.15	0.3003	0.3001	790.71	0.8
318.15	0.299	0.3983	799.51	0.81
318.15	0.3024	0.4986	807.22	0.82
318.15	0.2994	0.6024	815.03	0.82
318.15	0.4001	0.104	763	0.77
318.15	0.3952	0.1998	773.68	0.78
318.15	0.3845	0.3069	784.81	0.79
318.15	0.3975	0.4008	792.09	0.8
318.15	0.399	0.5	799.9	0.81
318.15	0.4994	0.0997	756.74	0.77
318.15	0.4851	0.2024	768.29	0.78
318.15	0.498	0.3027	777.04	0.79
318.15	0.4955	0.3963	785.27	0.79
318.15	0.602	0.1007	751.93	0.76
318.15	0.6011	0.2009	762.1	0.77
318.15	0.5881	0.3075	772.61	0.78
318.15	0.6975	0.1003	748.1	0.76
318.15	0.6847	0.2021	758.58	0.77
318.15	0.7962	0.1016	744.99	0.76
323.15	0.1006	0.1008	785.58	0.8
323.15	0.0994	0.2035	797.82	0.81
323.15	0.1004	0.3012	807.53	0.82
323.15	0.1006	0.3994	816.04	0.83
323.15	0.0981	0.4975	823.89	0.83
323.15	0.1017	0.5919	830.03	0.84
323.15	0.0994	0.6969	836.87	0.84
323.15	0.1015	0.7989	842.52	0.85
323.15	0.1995	0.0997	774.5	0.79
323.15	0.1975	0.2011	786.38	0.8
323.15	0.1995	0.3007	796.31	0.81
323.15	0.1995	0.3998	805.01	0.81
323.15	0.2011	0.5007	812.83	0.82
323.15	0.2049	0.5946	819.2	0.83
323.15	0.2001	0.6973	826.46	0.83
323.15	0.2996	0.1015	766.02	0.78
323.15	0.2977	0.2017	777.29	0.79
323.15	0.3003	0.3001	786.83	0.8
323.15	0.299	0.3983	795.67	0.81
323.15	0.3024	0.4986	803.45	0.81
323.15	0.2994	0.6024	811.32	0.82
323.15	0.4001	0.104	759.07	0.77
323.15	0.3952	0.1998	769.79	0.78
323.15	0.3845	0.3069	780.94	0.79
323.15	0.3975	0.4008	788.3	0.8
323.15	0.399	0.5	796.18	0.81
323.15	0.4994	0.0997	752.84	0.76
323.15	0.4851	0.2024	764.44	0.78
323.15	0.498	0.3027	773.25	0.78
323.15	0.4955	0.3963	781.53	0.79
323.15	0.602	0.1007	748.08	0.76
323.15	0.6011	0.2009	758.3	0.77
323.15	0.5881	0.3075	768.86	0.78
323.15	0.6975	0.1003	744.28	0.76
323.15	0.6847	0.2021	754.83	0.77
323.15	0.7962	0.1016	741.23	0.75
328.15	0.1006	0.1008	781.52	0.79
328.15	0.0994	0.2035	793.79	0.81
328.15	0.1004	0.3012	803.53	0.81
328.15	0.1006	0.3994	812.09	0.82
328.15	0.0981	0.4975	819.99	0.83
328.15	0.1017	0.5919	826.18	0.83
328.15	0.0994	0.6969	833.09	0.84
328.15	0.1015	0.7989	838.8	0.85
328.15	0.1995	0.0997	770.46	0.78
328.15	0.1975	0.2011	782.38	0.79
328.15	0.1995	0.3007	792.36	0.8
328.15	0.1995	0.3998	801.11	0.81
328.15	0.2011	0.5007	808.99	0.82
328.15	0.2049	0.5946	815.41	0.82
328.15	0.2001	0.6973	822.73	0.83
328.15	0.2996	0.1015	762.01	0.77
328.15	0.2977	0.2017	773.33	0.78
328.15	0.3003	0.3001	782.92	0.79
328.15	0.299	0.3983	791.81	0.8
328.15	0.3024	0.4986	799.65	0.81
328.15	0.2994	0.6024	807.6	0.82
328.15	0.4001	0.104	755.1	0.77
328.15	0.3952	0.1998	765.87	0.78
328.15	0.3845	0.3069	777.07	0.79
328.15	0.3975	0.4008	784.49	0.79
328.15	0.399	0.5	792.45	0.8
328.15	0.4994	0.0997	748.9	0.76
328.15	0.4851	0.2024	760.55	0.77
328.15	0.498	0.3027	769.43	0.78
328.15	0.4955	0.3963	777.78	0.79
328.15	0.602	0.1007	744.19	0.76
328.15	0.6011	0.2009	754.47	0.77
328.15	0.5881	0.3075	765.11	0.78
328.15	0.6975	0.1003	740.44	0.75
328.15	0.6847	0.2021	751.07	0.76
328.15	0.7962	0.1016	737.45	0.75
333.15	0.1006	0.1008	777.41	0.79
333.15	0.0994	0.2035	789.71	0.8
333.15	0.1004	0.3012	799.5	0.81
333.15	0.1006	0.3994	808.11	0.82
333.15	0.0981	0.4975	816.06	0.83
333.15	0.1017	0.5919	822.31	0.83
333.15	0.0994	0.6969	829.27	0.84
333.15	0.1015	0.7989	835.08	0.84
333.15	0.1995	0.0997	766.37	0.78
333.15	0.1975	0.2011	778.34	0.79
333.15	0.1995	0.3007	788.37	0.8
333.15	0.1995	0.3998	797.17	0.81
333.15	0.2011	0.5007	805.11	0.81
333.15	0.2049	0.5946	811.59	0.82
333.15	0.2001	0.6973	819	0.83
333.15	0.2996	0.1015	757.95	0.77
333.15	0.2977	0.2017	769.32	0.78
333.15	0.3003	0.3001	778.98	0.79
333.15	0.299	0.3983	787.93	0.8
333.15	0.3024	0.4986	795.83	0.81
333.15	0.2994	0.6024	803.85	0.81
333.15	0.4001	0.104	751.09	0.76
333.15	0.3952	0.1998	761.91	0.77
333.15	0.3845	0.3069	773.18	0.78
333.15	0.3975	0.4008	780.66	0.79
333.15	0.399	0.5	788.7	0.8
333.15	0.4994	0.0997	744.94	0.76
333.15	0.4851	0.2024	756.64	0.77
333.15	0.498	0.3027	765.59	0.78
333.15	0.4955	0.3963	774.01	0.78
333.15	0.602	0.1007	740.27	0.75
333.15	0.6011	0.2009	750.62	0.76
333.15	0.5881	0.3075	761.33	0.77
333.15	0.6975	0.1003	736.58	0.75
333.15	0.6847	0.2021	747.26	0.76
333.15	0.7962	0.1016	733.65	0.75

System: dodecane + 1,1'-bicyclohexyl + butan-1-ol; phases: Liquid
Fixed: Pressure, kPa = 100
Property: Viscosity, Pa*s (Liquid); method: Falling or rolling sphere viscometry
Temperature, K	Mole fraction of dodecane	Mole fraction of 1,1'-bicyclohexyl	Viscosity, Pa*s	uncertainty
293.15	0.1006	0.1008	0.002445	5.2e-05
293.15	0.0994	0.2035	0.002498	5.3e-05
293.15	0.1004	0.3012	0.002524	5.4e-05
293.15	0.1006	0.3994	0.002576	5.5e-05
293.15	0.0981	0.4975	0.002652	5.7e-05
293.15	0.1017	0.5919	0.002754	5.9e-05
293.15	0.0994	0.6969	0.002923	6.2e-05
293.15	0.1015	0.7989	0.003121	6.7e-05
293.15	0.1995	0.0997	0.002175	4.6e-05
293.15	0.1975	0.2011	0.002204	4.7e-05
293.15	0.1995	0.3007	0.002251	4.8e-05
293.15	0.1995	0.3998	0.002323	5e-05
293.15	0.2011	0.5007	0.00241	5.1e-05
293.15	0.2049	0.5946	0.002545	5.4e-05
293.15	0.2001	0.6973	0.002723	5.8e-05
293.15	0.2996	0.1015	0.001963	4.2e-05
293.15	0.2977	0.2017	0.002008	4.3e-05
293.15	0.3003	0.3001	0.002061	4.4e-05
293.15	0.299	0.3983	0.002141	4.6e-05
293.15	0.3024	0.4986	0.002262	4.8e-05
293.15	0.2994	0.6024	0.002432	5.2e-05
293.15	0.4001	0.104	0.001799	3.8e-05
293.15	0.3952	0.1998	0.00187	4e-05
293.15	0.3845	0.3069	0.001958	4.2e-05
293.15	0.3975	0.4008	0.002046	4.4e-05
293.15	0.399	0.5	0.002182	4.6e-05
293.15	0.4994	0.0997	0.001686	3.6e-05
293.15	0.4851	0.2024	0.00178	3.8e-05
293.15	0.498	0.3027	0.001877	4e-05
293.15	0.4955	0.3963	0.001989	4.2e-05
293.15	0.602	0.1007	0.001622	3.5e-05
293.15	0.6011	0.2009	0.001697	3.6e-05
293.15	0.5881	0.3075	0.001835	3.9e-05
293.15	0.6975	0.1003	0.001576	3.4e-05
293.15	0.6847	0.2021	0.001675	3.6e-05
293.15	0.7962	0.1016	0.001562	3.3e-05
298.15	0.1006	0.1008	0.00216	4.6e-05
298.15	0.0994	0.2035	0.002208	4.7e-05
298.15	0.1004	0.3012	0.002234	4.8e-05
298.15	0.1006	0.3994	0.002285	4.9e-05
298.15	0.0981	0.4975	0.002359	5e-05
298.15	0.1017	0.5919	0.002452	5.2e-05
298.15	0.0994	0.6969	0.002597	5.5e-05
298.15	0.1015	0.7989	0.00277	5.9e-05
298.15	0.1995	0.0997	0.00193	4.1e-05
298.15	0.1975	0.2011	0.00196	4.2e-05
298.15	0.1995	0.3007	0.002008	4.3e-05
298.15	0.1995	0.3998	0.002076	4.4e-05
298.15	0.2011	0.5007	0.002156	4.6e-05
298.15	0.2049	0.5946	0.002275	4.8e-05
298.15	0.2001	0.6973	0.002435	5.2e-05
298.15	0.2996	0.1015	0.001754	3.7e-05
298.15	0.2977	0.2017	0.001797	3.8e-05
298.15	0.3003	0.3001	0.00185	3.9e-05
298.15	0.299	0.3983	0.001924	4.1e-05
298.15	0.3024	0.4986	0.002034	4.3e-05
298.15	0.2994	0.6024	0.002184	4.7e-05
298.15	0.4001	0.104	0.001616	3.4e-05
298.15	0.3952	0.1998	0.001684	3.6e-05
298.15	0.3845	0.3069	0.001764	3.8e-05
298.15	0.3975	0.4008	0.00185	3.9e-05
298.15	0.399	0.5	0.001967	4.2e-05
298.15	0.4994	0.0997	0.001523	3.2e-05
298.15	0.4851	0.2024	0.00161	3.4e-05
298.15	0.498	0.3027	0.001698	3.6e-05
298.15	0.4955	0.3963	0.001798	3.8e-05
298.15	0.602	0.1007	0.001471	3.1e-05
298.15	0.6011	0.2009	0.00154	3.3e-05
298.15	0.5881	0.3075	0.001659	3.5e-05
298.15	0.6975	0.1003	0.001434	3.1e-05
298.15	0.6847	0.2021	0.001522	3.2e-05
298.15	0.7962	0.1016	0.001423	3e-05
303.15	0.1006	0.1008	0.001918	4.1e-05
303.15	0.0994	0.2035	0.001963	4.2e-05
303.15	0.1004	0.3012	0.001991	4.2e-05
303.15	0.1006	0.3994	0.00204	4.3e-05
303.15	0.0981	0.4975	0.002111	4.5e-05
303.15	0.1017	0.5919	0.002197	4.7e-05
303.15	0.0994	0.6969	0.002326	5e-05
303.15	0.1015	0.7989	0.002477	5.3e-05
303.15	0.1995	0.0997	0.001723	3.7e-05
303.15	0.1975	0.2011	0.001754	3.7e-05
303.15	0.1995	0.3007	0.001801	3.8e-05
303.15	0.1995	0.3998	0.001866	4e-05
303.15	0.2011	0.5007	0.00194	4.1e-05
303.15	0.2049	0.5946	0.002047	4.4e-05
303.15	0.2001	0.6973	0.00219	4.7e-05
303.15	0.2996	0.1015	0.001575	3.4e-05
303.15	0.2977	0.2017	0.001619	3.4e-05
303.15	0.3003	0.3001	0.001671	3.6e-05
303.15	0.299	0.3983	0.001739	3.7e-05
303.15	0.3024	0.4986	0.001839	3.9e-05
303.15	0.2994	0.6024	0.001972	4.2e-05
303.15	0.4001	0.104	0.001461	3.1e-05
303.15	0.3952	0.1998	0.001533	3.3e-05
303.15	0.3845	0.3069	0.0016	3.4e-05
303.15	0.3975	0.4008	0.001678	3.6e-05
303.15	0.399	0.5	0.001784	3.8e-05
303.15	0.4994	0.0997	0.001384	2.9e-05
303.15	0.4851	0.2024	0.001464	3.1e-05
303.15	0.498	0.3027	0.001545	3.3e-05
303.15	0.4955	0.3963	0.001635	3.5e-05
303.15	0.602	0.1007	0.001342	2.9e-05
303.15	0.6011	0.2009	0.001405	3e-05
303.15	0.5881	0.3075	0.001509	3.2e-05
303.15	0.6975	0.1003	0.001311	2.8e-05
303.15	0.6847	0.2021	0.001391	3e-05
303.15	0.7962	0.1016	0.001303	2.8e-05
308.15	0.1006	0.1008	0.001711	3.6e-05
308.15	0.0994	0.2035	0.001754	3.7e-05
308.15	0.1004	0.3012	0.001784	3.8e-05
308.15	0.1006	0.3994	0.001832	3.9e-05
308.15	0.0981	0.4975	0.0019	4.1e-05
308.15	0.1017	0.5919	0.00198	4.2e-05
308.15	0.0994	0.6969	0.002094	4.5e-05
308.15	0.1015	0.7989	0.002236	4.8e-05
308.15	0.1995	0.0997	0.001545	3.3e-05
308.15	0.1975	0.2011	0.001578	3.4e-05
308.15	0.1995	0.3007	0.001625	3.5e-05
308.15	0.1995	0.3998	0.001687	3.6e-05
308.15	0.2011	0.5007	0.001757	3.7e-05
308.15	0.2049	0.5946	0.001853	3.9e-05
308.15	0.2001	0.6973	0.001981	4.2e-05
308.15	0.2996	0.1015	0.001422	3e-05
308.15	0.2977	0.2017	0.001465	3.1e-05
308.15	0.3003	0.3001	0.001516	3.2e-05
308.15	0.299	0.3983	0.00158	3.4e-05
308.15	0.3024	0.4986	0.001671	3.6e-05
308.15	0.2994	0.6024	0.001791	3.8e-05
308.15	0.4001	0.104	0.001327	2.8e-05
308.15	0.3952	0.1998	0.001388	3e-05
308.15	0.3845	0.3069	0.001457	3.1e-05
308.15	0.3975	0.4008	0.00153	3.3e-05
308.15	0.399	0.5	0.001625	3.5e-05
308.15	0.4994	0.0997	0.001263	2.7e-05
308.15	0.4851	0.2024	0.001337	2.8e-05
308.15	0.498	0.3027	0.001412	3e-05
308.15	0.4955	0.3963	0.001493	3.2e-05
308.15	0.602	0.1007	0.00123	2.6e-05
308.15	0.6011	0.2009	0.001286	2.7e-05
308.15	0.5881	0.3075	0.001382	2.9e-05
308.15	0.6975	0.1003	0.001203	2.6e-05
308.15	0.6847	0.2021	0.001276	2.7e-05
308.15	0.7962	0.1016	0.001198	2.5e-05
313.15	0.1006	0.1008	0.001533	3.3e-05
313.15	0.0994	0.2035	0.001575	3.4e-05
313.15	0.1004	0.3012	0.001607	3.4e-05
313.15	0.1006	0.3994	0.001654	3.5e-05
313.15	0.0981	0.4975	0.001718	3.7e-05
313.15	0.1017	0.5919	0.001792	3.8e-05
313.15	0.0994	0.6969	0.001896	4e-05
313.15	0.1015	0.7989	0.002017	4.3e-05
313.15	0.1995	0.0997	0.001392	3e-05
313.15	0.1975	0.2011	0.001426	3e-05
313.15	0.1995	0.3007	0.001473	3.1e-05
313.15	0.1995	0.3998	0.001532	3.3e-05
313.15	0.2011	0.5007	0.001597	3.4e-05
313.15	0.2049	0.5946	0.001686	3.6e-05
313.15	0.2001	0.6973	0.001801	3.8e-05
313.15	0.2996	0.1015	0.00129	2.7e-05
313.15	0.2977	0.2017	0.001333	2.8e-05
313.15	0.3003	0.3001	0.001382	2.9e-05
313.15	0.299	0.3983	0.001441	3.1e-05
313.15	0.3024	0.4986	0.001525	3.2e-05
313.15	0.2994	0.6024	0.001634	3.5e-05
313.15	0.4001	0.104	0.00121	2.6e-05
313.15	0.3952	0.1998	0.001268	2.7e-05
313.15	0.3845	0.3069	0.001332	2.8e-05
313.15	0.3975	0.4008	0.0014	3e-05
313.15	0.399	0.5	0.001487	3.2e-05
313.15	0.4994	0.0997	0.001157	2.5e-05
313.15	0.4851	0.2024	0.001226	2.6e-05
313.15	0.498	0.3027	0.001296	2.8e-05
313.15	0.4955	0.3963	0.00137	2.9e-05
313.15	0.602	0.1007	0.001131	2.4e-05
313.15	0.6011	0.2009	0.001184	2.5e-05
313.15	0.5881	0.3075	0.001271	2.7e-05
313.15	0.6975	0.1003	0.001109	2.4e-05
313.15	0.6847	0.2021	0.001176	2.5e-05
313.15	0.7962	0.1016	0.001107	2.4e-05
318.15	0.1006	0.1008	0.001379	2.9e-05
318.15	0.0994	0.2035	0.00142	3e-05
318.15	0.1004	0.3012	0.001453	3.1e-05
318.15	0.1006	0.3994	0.001499	3.2e-05
318.15	0.0981	0.4975	0.00156	3.3e-05
318.15	0.1017	0.5919	0.00163	3.5e-05
318.15	0.0994	0.6969	0.001725	3.7e-05
318.15	0.1015	0.7989	0.001834	3.9e-05
318.15	0.1995	0.0997	0.00126	2.7e-05
318.15	0.1975	0.2011	0.001294	2.8e-05
318.15	0.1995	0.3007	0.00134	2.9e-05
318.15	0.1995	0.3998	0.001397	3e-05
318.15	0.2011	0.5007	0.001458	3.1e-05
318.15	0.2049	0.5946	0.001539	3.3e-05
318.15	0.2001	0.6973	0.001645	3.5e-05
318.15	0.2996	0.1015	0.001175	2.5e-05
318.15	0.2977	0.2017	0.001217	2.6e-05
318.15	0.3003	0.3001	0.001265	2.7e-05
318.15	0.299	0.3983	0.00132	2.8e-05
318.15	0.3024	0.4986	0.001397	3e-05
318.15	0.2994	0.6024	0.001498	3.2e-05
318.15	0.4001	0.104	0.001108	2.4e-05
318.15	0.3952	0.1998	0.001164	2.5e-05
318.15	0.3845	0.3069	0.001224	2.6e-05
318.15	0.3975	0.4008	0.001287	2.7e-05
318.15	0.399	0.5	0.001367	2.9e-05
318.15	0.4994	0.0997	0.001064	2.3e-05
318.15	0.4851	0.2024	0.001129	2.4e-05
318.15	0.498	0.3027	0.001194	2.5e-05
318.15	0.4955	0.3963	0.001261	2.7e-05
318.15	0.602	0.1007	0.001044	2.2e-05
318.15	0.6011	0.2009	0.001094	2.3e-05
318.15	0.5881	0.3075	0.001173	2.5e-05
318.15	0.6975	0.1003	0.001026	2.2e-05
318.15	0.6847	0.2021	0.001088	2.3e-05
318.15	0.7962	0.1016	0.001026	2.2e-05
323.15	0.1006	0.1008	0.001245	2.7e-05
323.15	0.0994	0.2035	0.001286	2.7e-05
323.15	0.1004	0.3012	0.001319	2.8e-05
323.15	0.1006	0.3994	0.001365	2.9e-05
323.15	0.0981	0.4975	0.001423	3e-05
323.15	0.1017	0.5919	0.001489	3.2e-05
323.15	0.0994	0.6969	0.001575	3.4e-05
323.15	0.1015	0.7989	0.001676	3.6e-05
323.15	0.1995	0.0997	0.001145	2.4e-05
323.15	0.1975	0.2011	0.001179	2.5e-05
323.15	0.1995	0.3007	0.001225	2.6e-05
323.15	0.1995	0.3998	0.001279	2.7e-05
323.15	0.2011	0.5007	0.001337	2.8e-05
323.15	0.2049	0.5946	0.001412	3e-05
323.15	0.2001	0.6973	0.001509	3.2e-05
323.15	0.2996	0.1015	0.001074	2.3e-05
323.15	0.2977	0.2017	0.001116	2.4e-05
323.15	0.3003	0.3001	0.001162	2.5e-05
323.15	0.299	0.3983	0.001214	2.6e-05
323.15	0.3024	0.4986	0.001285	2.7e-05
323.15	0.2994	0.6024	0.001378	2.9e-05
323.15	0.4001	0.104	0.001019	2.2e-05
323.15	0.3952	0.1998	0.001071	2.3e-05
323.15	0.3845	0.3069	0.001128	2.4e-05
323.15	0.3975	0.4008	0.001187	2.5e-05
323.15	0.399	0.5	0.001261	2.7e-05
323.15	0.4994	0.0997	0.000983	2.1e-05
323.15	0.4851	0.2024	0.001043	2.2e-05
323.15	0.498	0.3027	0.001103	2.3e-05
323.15	0.4955	0.3963	0.001166	2.5e-05
323.15	0.602	0.1007	0.000967	2.1e-05
323.15	0.6011	0.2009	0.001013	2.2e-05
323.15	0.5881	0.3075	0.001087	2.3e-05
323.15	0.6975	0.1003	0.000952	2e-05
323.15	0.6847	0.2021	0.00101	2.2e-05
323.15	0.7962	0.1016	0.000954	2e-05
328.15	0.1006	0.1008	0.001129	2.4e-05
328.15	0.0994	0.2035	0.00117	2.5e-05
328.15	0.1004	0.3012	0.001203	2.6e-05
328.15	0.1006	0.3994	0.001247	2.7e-05
328.15	0.0981	0.4975	0.001303	2.8e-05
328.15	0.1017	0.5919	0.001366	2.9e-05
328.15	0.0994	0.6969	0.001445	3.1e-05
328.15	0.1015	0.7989	0.001537	3.3e-05
328.15	0.1995	0.0997	0.001045	2.2e-05
328.15	0.1975	0.2011	0.001079	2.3e-05
328.15	0.1995	0.3007	0.001124	2.4e-05
328.15	0.1995	0.3998	0.001175	2.5e-05
328.15	0.2011	0.5007	0.00123	2.6e-05
328.15	0.2049	0.5946	0.001299	2.8e-05
328.15	0.2001	0.6973	0.00139	3e-05
328.15	0.2996	0.1015	0.000986	2.1e-05
328.15	0.2977	0.2017	0.001027	2.2e-05
328.15	0.3003	0.3001	0.001071	2.3e-05
328.15	0.299	0.3983	0.00112	2.4e-05
328.15	0.3024	0.4986	0.001186	2.5e-05
328.15	0.2994	0.6024	0.001273	2.7e-05
328.15	0.4001	0.104	0.00094	2e-05
328.15	0.3952	0.1998	0.00099	2.1e-05
328.15	0.3845	0.3069	0.001043	2.2e-05
328.15	0.3975	0.4008	0.001098	2.3e-05
328.15	0.399	0.5	0.001168	2.5e-05
328.15	0.4994	0.0997	0.00091	1.9e-05
328.15	0.4851	0.2024	0.000966	2.1e-05
328.15	0.498	0.3027	0.001023	2.2e-05
328.15	0.4955	0.3963	0.001082	2.3e-05
328.15	0.602	0.1007	0.000898	1.9e-05
328.15	0.6011	0.2009	0.000942	2e-05
328.15	0.5881	0.3075	0.00101	2.2e-05
328.15	0.6975	0.1003	0.000886	1.9e-05
328.15	0.6847	0.2021	0.00094	2e-05
328.15	0.7962	0.1016	0.00089	1.9e-05
333.15	0.1006	0.1008	0.001027	2.2e-05
333.15	0.0994	0.2035	0.001067	2.3e-05
333.15	0.1004	0.3012	0.001101	2.3e-05
333.15	0.1006	0.3994	0.001144	2.4e-05
333.15	0.0981	0.4975	0.001197	2.6e-05
333.15	0.1017	0.5919	0.001256	2.7e-05
333.15	0.0994	0.6969	0.00133	2.8e-05
333.15	0.1015	0.7989	0.001417	3e-05
333.15	0.1995	0.0997	0.000956	2e-05
333.15	0.1975	0.2011	0.00099	2.1e-05
333.15	0.1995	0.3007	0.001034	2.2e-05
333.15	0.1995	0.3998	0.001084	2.3e-05
333.15	0.2011	0.5007	0.001136	2.4e-05
333.15	0.2049	0.5946	0.0012	2.6e-05
333.15	0.2001	0.6973	0.001285	2.7e-05
333.15	0.2996	0.1015	0.000908	1.9e-05
333.15	0.2977	0.2017	0.000947	2e-05
333.15	0.3003	0.3001	0.00099	2.1e-05
333.15	0.299	0.3983	0.001036	2.2e-05
333.15	0.3024	0.4986	0.001099	2.3e-05
333.15	0.2994	0.6024	0.001179	2.5e-05
333.15	0.4001	0.104	0.00087	1.9e-05
333.15	0.3952	0.1998	0.000918	2e-05
333.15	0.3845	0.3069	0.000967	2.1e-05
333.15	0.3975	0.4008	0.001019	2.2e-05
333.15	0.399	0.5	0.001084	2.3e-05
333.15	0.4994	0.0997	0.000845	1.8e-05
333.15	0.4851	0.2024	0.000899	1.9e-05
333.15	0.498	0.3027	0.000952	2e-05
333.15	0.4955	0.3963	0.001007	2.1e-05
333.15	0.602	0.1007	0.000837	1.8e-05
333.15	0.6011	0.2009	0.000879	1.9e-05
333.15	0.5881	0.3075	0.000942	2e-05
333.15	0.6975	0.1003	0.000828	1.8e-05
333.15	0.6847	0.2021	0.000878	1.9e-05
333.15	0.7962	0.1016	0.000832	1.8e-05
