Measured thermophysical data. Thermodynamic Functions for the Solubility of 3-Nitrobenzonitrile in 12 Organic Solvents from T/K = (278.15 to 318.15)
Source: J. Chem. Eng. Data, 2017, 10.1021/acs.jced.7b00615
Compound 1: 3-nitrobenzonitrile, C7H4N2O2, InChI=1S/C7H4N2O2/c8-5-6-2-1-3-7(4-6)9(10)11/h1-4H, purity 97%
Compound 2: methanol, CH4O, InChI=1S/CH4O/c1-2/h2H,1H3, purity 99.5%
Compound 3: ethanol, C2H6O, InChI=1S/C2H6O/c1-2-3/h3H,2H2,1H3, purity 99.3%
Compound 4: propan-1-ol, C3H8O, InChI=1S/C3H8O/c1-2-3-4/h4H,2-3H2,1H3, purity 99.5%
Compound 5: propan-2-ol, C3H8O, InChI=1S/C3H8O/c1-3(2)4/h3-4H,1-2H3, purity 99.3%
Compound 6: butan-1-ol, C4H10O, InChI=1S/C4H10O/c1-2-3-4-5/h5H,2-4H2,1H3, purity 99.4%
Compound 7: 2-methyl-1-propanol, C4H10O, InChI=1S/C4H10O/c1-4(2)3-5/h4-5H,3H2,1-2H3, purity 99.5%
Compound 8: acetone, C3H6O, InChI=1S/C3H6O/c1-3(2)4/h1-2H3, purity 99.4%
Compound 9: ethyl acetate, C4H8O2, InChI=1S/C4H8O2/c1-3-6-4(2)5/h3H2,1-2H3, purity 99.5%
Compound 10: acetonitrile, C2H3N, InChI=1S/C2H3N/c1-2-3/h1H3, purity 99.3%
Compound 11: toluene, C7H8, InChI=1S/C7H8/c1-7-5-3-2-4-6-7/h2-6H,1H3, purity 99.4%
Compound 12: cyclohexane, C6H12, InChI=1S/C6H12/c1-2-4-6-5-3-1/h1-6H2, purity 99.5%
Compound 13: acetic acid, C2H4O2, InChI=1S/C2H4O2/c1-2(3)4/h1H3,(H,3,4), purity 99.5%

System: 3-nitrobenzonitrile + methanol; phases: Liquid, Crystal
Fixed: Pressure, kPa = 101.1
Property: Mole fraction of 3-nitrobenzonitrile (Liquid); method: Chromatography
Temperature, K	Mole fraction of 3-nitrobenzonitrile	uncertainty
278.15	0.0041	0.000198
283.15	0.00501	0.000242
288.15	0.006219	0.0003
293.15	0.007598	0.000366
298.15	0.009258	0.000446
303.15	0.01116	0.00054
308.15	0.01341	0.00065
313.15	0.01621	0.00078
318.15	0.01949	0.00094

System: 3-nitrobenzonitrile + ethanol; phases: Liquid, Crystal
Fixed: Pressure, kPa = 101.1
Property: Mole fraction of 3-nitrobenzonitrile (Liquid); method: Chromatography
Temperature, K	Mole fraction of 3-nitrobenzonitrile	uncertainty
278.15	0.003116	0.00015
283.15	0.003804	0.000183
288.15	0.004734	0.000228
293.15	0.00582	0.000281
298.15	0.007146	0.000345
303.15	0.008726	0.000421
308.15	0.01061	0.00051
313.15	0.01304	0.00063
318.15	0.01587	0.00076

System: 3-nitrobenzonitrile + propan-1-ol; phases: Liquid, Crystal
Fixed: Pressure, kPa = 101.1
Property: Mole fraction of 3-nitrobenzonitrile (Liquid); method: Chromatography
Temperature, K	Mole fraction of 3-nitrobenzonitrile	uncertainty
278.15	0.002497	0.000121
283.15	0.003077	0.000148
288.15	0.003803	0.000183
293.15	0.004749	0.000229
298.15	0.005917	0.000285
303.15	0.007295	0.000352
308.15	0.008974	0.000433
313.15	0.01111	0.00054
318.15	0.01351	0.00065

System: 3-nitrobenzonitrile + propan-2-ol; phases: Liquid, Crystal
Fixed: Pressure, kPa = 101.1
Property: Mole fraction of 3-nitrobenzonitrile (Liquid); method: Chromatography
Temperature, K	Mole fraction of 3-nitrobenzonitrile	uncertainty
278.15	0.001696	8.2e-05
283.15	0.002155	0.000104
288.15	0.002741	0.000132
293.15	0.003499	0.000169
298.15	0.004462	0.000215
303.15	0.005649	0.000273
308.15	0.007109	0.000343
313.15	0.009054	0.000437
318.15	0.01143	0.00055

System: 3-nitrobenzonitrile + butan-1-ol; phases: Liquid, Crystal
Fixed: Pressure, kPa = 101.1
Property: Mole fraction of 3-nitrobenzonitrile (Liquid); method: Chromatography
Temperature, K	Mole fraction of 3-nitrobenzonitrile	uncertainty
278.15	0.00233	0.000112
283.15	0.002863	0.000138
288.15	0.003489	0.000168
293.15	0.004279	0.000206
298.15	0.005382	0.00026
303.15	0.006831	0.00033
308.15	0.008477	0.000409
313.15	0.01037	0.0005
318.15	0.01293	0.00062

System: 3-nitrobenzonitrile + 2-methyl-1-propanol; phases: Liquid, Crystal
Fixed: Pressure, kPa = 101.1
Property: Mole fraction of 3-nitrobenzonitrile (Liquid); method: Chromatography
Temperature, K	Mole fraction of 3-nitrobenzonitrile	uncertainty
278.15	0.001616	7.8e-05
283.15	0.002066	0.0001
288.15	0.00265	0.000128
293.15	0.0033	0.000159
298.15	0.004093	0.000197
303.15	0.00504	0.000243
308.15	0.006235	0.000301
313.15	0.007726	0.000373
318.15	0.009589	0.000462

System: 3-nitrobenzonitrile + ethyl acetate; phases: Liquid, Crystal
Fixed: Pressure, kPa = 101.1
Property: Mole fraction of 3-nitrobenzonitrile (Liquid); method: Chromatography
Temperature, K	Mole fraction of 3-nitrobenzonitrile	uncertainty
278.15	0.03528	0.0017
283.15	0.044	0.00212
288.15	0.05652	0.00273
293.15	0.07055	0.0034
298.15	0.08758	0.00423
303.15	0.1086	0.0052
308.15	0.1347	0.0065
313.15	0.1661	0.008
318.15	0.2027	0.0098

System: 3-nitrobenzonitrile + acetonitrile; phases: Liquid, Crystal
Fixed: Pressure, kPa = 101.1
Property: Mole fraction of 3-nitrobenzonitrile (Liquid); method: Chromatography
Temperature, K	Mole fraction of 3-nitrobenzonitrile	uncertainty
278.15	0.04732	0.00228
283.15	0.05651	0.00272
288.15	0.06818	0.00329
293.15	0.08143	0.00392
298.15	0.09726	0.00469
303.15	0.1164	0.0056
308.15	0.1382	0.0067
313.15	0.1635	0.0079
318.15	0.1964	0.0095

System: 3-nitrobenzonitrile + toluene; phases: Liquid, Crystal
Fixed: Pressure, kPa = 101.1
Property: Mole fraction of 3-nitrobenzonitrile (Liquid); method: Chromatography
Temperature, K	Mole fraction of 3-nitrobenzonitrile	uncertainty
278.15	0.02588	0.00125
283.15	0.03043	0.00147
288.15	0.03738	0.0018
293.15	0.04576	0.00221
298.15	0.05571	0.00269
303.15	0.06703	0.00323
308.15	0.08129	0.00392
313.15	0.09817	0.00473
318.15	0.1187	0.0057

System: 3-nitrobenzonitrile + acetone; phases: Liquid, Crystal
Fixed: Pressure, kPa = 101.1
Property: Mole fraction of 3-nitrobenzonitrile (Liquid); method: Chromatography
Temperature, K	Mole fraction of 3-nitrobenzonitrile	uncertainty
278.15	0.07889	0.0038
283.15	0.09054	0.00436
288.15	0.106	0.0051
293.15	0.1232	0.0059
298.15	0.1425	0.0069
303.15	0.1641	0.0079
308.15	0.1871	0.009
313.15	0.2133	0.0103
318.15	0.2416	0.0116

System: 3-nitrobenzonitrile + cyclohexane; phases: Liquid, Crystal
Fixed: Pressure, kPa = 101.1
Property: Mole fraction of 3-nitrobenzonitrile (Liquid); method: Chromatography
Temperature, K	Mole fraction of 3-nitrobenzonitrile	uncertainty
283.15	0.0003655	1.77e-05
288.15	0.0004722	2.28e-05
293.15	0.000599	2.89e-05
298.15	0.0007677	3.71e-05
303.15	0.0009699	4.68e-05
308.15	0.001215	5.9e-05
313.15	0.001532	7.4e-05
318.15	0.001931	9.3e-05

System: 3-nitrobenzonitrile + acetic acid; phases: Liquid, Crystal
Fixed: Pressure, kPa = 101.1
Property: Mole fraction of 3-nitrobenzonitrile (Liquid); method: Chromatography
Temperature, K	Mole fraction of 3-nitrobenzonitrile	uncertainty
293.15	0.03544	0.00171
298.15	0.04002	0.00193
303.15	0.04593	0.00221
308.15	0.05251	0.00253
313.15	0.06078	0.00293
318.15	0.07132	0.00343
