Measured thermophysical data. Solubility Determination and Correlation of Glibenclamide in 11 Monosolvents and (Acetone + Acetonitrile) Binary Solvents from 283.15 K to 323.15 K
Source: J. Chem. Eng. Data, 2019, 10.1021/acs.jced.8b00717
Compound 1: glibenclamide, C23H28ClN3O5S, InChI=1S/C23H28ClN3O5S/c1-32-21-12-9-17(24)15-20(21)22(28)25-14-13-16-7-10-19(11-8-16)33(30,31)27-23(29)26-18-5-3-2-4-6-18/h7-12,15,18H,2-6,13-14H2,1H3,(H,25,28)(H2,26,27,29), purity 99%
Compound 2: methanol, CH4O, InChI=1S/CH4O/c1-2/h2H,1H3, purity 99.5%
Compound 3: ethanol, C2H6O, InChI=1S/C2H6O/c1-2-3/h3H,2H2,1H3, purity 99.5%
Compound 4: propan-1-ol, C3H8O, InChI=1S/C3H8O/c1-2-3-4/h4H,2-3H2,1H3, purity 99.5%
Compound 5: propan-2-ol, C3H8O, InChI=1S/C3H8O/c1-3(2)4/h3-4H,1-2H3, purity 99.5%
Compound 6: butan-1-ol, C4H10O, InChI=1S/C4H10O/c1-2-3-4-5/h5H,2-4H2,1H3, purity 99.5%
Compound 7: butan-2-ol, C4H10O, InChI=1S/C4H10O/c1-3-4(2)5/h4-5H,3H2,1-2H3, purity 99.5%
Compound 8: acetone, C3H6O, InChI=1S/C3H6O/c1-3(2)4/h1-2H3, purity 99.5%
Compound 9: acetonitrile, C2H3N, InChI=1S/C2H3N/c1-2-3/h1H3, purity 99.5%
Compound 10: methyl ethanoate, C3H6O2, InChI=1S/C3H6O2/c1-3(4)5-2/h1-2H3, purity 99.5%
Compound 11: ethyl acetate, C4H8O2, InChI=1S/C4H8O2/c1-3-6-4(2)5/h3H2,1-2H3, purity 99.5%
Compound 12: 4-methylpentan-2-one, C6H12O, InChI=1S/C6H12O/c1-5(2)4-6(3)7/h5H,4H2,1-3H3, purity 99.5%
Compound 13: butanedioic acid, C4H6O4, InChI=1S/C4H6O4/c5-3(6)1-2-4(7)8/h1-2H2,(H,5,6)(H,7,8), purity 99.5%
Compound 14: water, H2O, InChI=1S/H2O/h1H2, purity 99.8%

System: glibenclamide; phases: Crystal 1, Liquid, Air at 1 atmosphere
Property: Normal melting temperature, K (Crystal 1); method: DTA
Normal melting temperature, K	uncertainty
446.98	0.61

System: glibenclamide; phases: Crystal 1, Liquid, Air at 1 atmosphere
Property: Molar enthalpy of transition or fusion, kJ/mol (Crystal 1); method: DSC
Molar enthalpy of transition or fusion, kJ/mol	uncertainty
40.256	2.16

System: glibenclamide + methanol; phases: Liquid, Crystal 1
Fixed: Pressure, kPa = 100
Property: Mole fraction of glibenclamide (Liquid); method: gravimetric
Temperature, K	Mole fraction of glibenclamide	uncertainty
283.15	0.00012379	4.954e-05
288.15	0.00016469	6.59e-05
293.15	0.00020986	8.398e-05
298.15	0.00028379	0.00011355
303.15	0.00035515	0.00014212
308.15	0.00048798	0.00019531
313.15	0.00069545	0.00027841
318.15	0.00104967	0.00042013
323.15	0.00143187	0.00057296

System: glibenclamide + ethanol; phases: Liquid, Crystal 1
Fixed: Pressure, kPa = 100
Property: Mole fraction of glibenclamide (Liquid); method: gravimetric
Temperature, K	Mole fraction of glibenclamide	uncertainty
283.15	0.00010814	4.329e-05
288.15	0.00015036	6.017e-05
293.15	0.00018784	7.516e-05
298.15	0.00024923	9.973e-05
303.15	0.00031628	0.00012656
308.15	0.00041232	0.00016502
313.15	0.00059058	0.00023641
318.15	0.00086454	0.00034601
323.15	0.00116327	0.00046547

System: glibenclamide + propan-1-ol; phases: Liquid, Crystal 1
Fixed: Pressure, kPa = 100
Property: Mole fraction of glibenclamide (Liquid); method: gravimetric
Temperature, K	Mole fraction of glibenclamide	uncertainty
283.15	0.00010037	4.016e-05
288.15	0.00012508	5.005e-05
293.15	0.00016271	6.512e-05
298.15	0.00022548	9.023e-05
303.15	0.0002864	0.0001146
308.15	0.00038139	0.00015264
313.15	0.00053752	0.00021512
318.15	0.00072949	0.00029194
323.15	0.00098346	0.00039352

System: glibenclamide + propan-2-ol; phases: Liquid, Crystal 1
Fixed: Pressure, kPa = 100
Property: Mole fraction of glibenclamide (Liquid); method: gravimetric
Temperature, K	Mole fraction of glibenclamide	uncertainty
283.15	7.554e-05	3.022e-05
288.15	8.894e-05	3.559e-05
293.15	0.00012566	5.029e-05
298.15	0.00016195	6.48e-05
303.15	0.00020701	8.283e-05
308.15	0.00027086	0.00010841
313.15	0.00040059	0.00016039
318.15	0.00061918	0.00024791
323.15	0.00093431	0.00037394

System: glibenclamide + butan-1-ol; phases: Liquid, Crystal 1
Fixed: Pressure, kPa = 100
Property: Mole fraction of glibenclamide (Liquid); method: gravimetric
Temperature, K	Mole fraction of glibenclamide	uncertainty
283.15	0.00018649	7.461e-05
288.15	0.00022311	8.925e-05
293.15	0.00024169	9.669e-05
298.15	0.00028449	0.00011381
303.15	0.00033369	0.00013352
308.15	0.00044547	0.0001783
313.15	0.00064647	0.00025877
318.15	0.00092213	0.00036913
323.15	0.00135343	0.00054165

System: glibenclamide + butan-2-ol; phases: Liquid, Crystal 1
Fixed: Pressure, kPa = 100
Property: Mole fraction of glibenclamide (Liquid); method: gravimetric
Temperature, K	Mole fraction of glibenclamide	uncertainty
283.15	6.347e-05	2.54e-05
288.15	7.969e-05	3.189e-05
293.15	0.00010387	4.157e-05
298.15	0.0001412	5.65e-05
303.15	0.00018433	7.376e-05
308.15	0.00024801	9.927e-05
313.15	0.0003649	0.0001461
318.15	0.00056794	0.00022742
323.15	0.00088678	0.00035495

System: glibenclamide + acetone; phases: Liquid, Crystal 1
Fixed: Pressure, kPa = 100
Property: Mole fraction of glibenclamide (Liquid); method: gravimetric
Temperature, K	Mole fraction of glibenclamide	uncertainty
283.15	0.0004713	0.00018856
288.15	0.00056771	0.00022713
293.15	0.00069022	0.00027617
298.15	0.00089399	0.00035769
303.15	0.00108875	0.0004356
308.15	0.00133549	0.00053435
313.15	0.00171152	0.00068481
318.15	0.00214026	0.0008563
323.15	0.00260782	0.00104331

System: glibenclamide + acetonitrile; phases: Liquid, Crystal 1
Fixed: Pressure, kPa = 100
Property: Mole fraction of glibenclamide (Liquid); method: gravimetric
Temperature, K	Mole fraction of glibenclamide	uncertainty
283.15	5.252e-05	2.102e-05
288.15	7.152e-05	2.862e-05
293.15	9.854e-05	3.943e-05
298.15	0.00013101	5.242e-05
303.15	0.00016293	6.52e-05
308.15	0.00022493	9.003e-05
313.15	0.00031635	0.0001266
318.15	0.00041812	0.00016732
323.15	0.00055819	0.00022335
298.15	0.00013601	5.44e-05

System: glibenclamide + 4-methylpentan-2-one; phases: Liquid, Crystal 1
Fixed: Pressure, kPa = 100
Property: Mole fraction of glibenclamide (Liquid); method: gravimetric
Temperature, K	Mole fraction of glibenclamide	uncertainty
283.15	0.00019814	7.927e-05
288.15	0.00022734	9.095e-05
293.15	0.00027619	0.0001105
298.15	0.00033618	0.00013451
303.15	0.00042597	0.00017043
308.15	0.0005286	0.00021149
313.15	0.00065473	0.00026195
318.15	0.00078919	0.00031572
323.15	0.00090823	0.00036333

System: glibenclamide + methyl ethanoate; phases: Liquid, Crystal 1
Fixed: Pressure, kPa = 100
Property: Mole fraction of glibenclamide (Liquid); method: gravimetric
Temperature, K	Mole fraction of glibenclamide	uncertainty
283.15	0.00012669	5.07e-05
288.15	0.00016372	6.551e-05
293.15	0.00020169	8.069e-05
298.15	0.00024646	9.86e-05
303.15	0.00029612	0.00011848
308.15	0.00037214	0.00014891
313.15	0.00049231	0.00019699
318.15	0.00062884	0.0002516
323.15	0.00076865	0.00030752

System: glibenclamide + ethyl acetate; phases: Liquid, Crystal 1
Fixed: Pressure, kPa = 100
Property: Mole fraction of glibenclamide (Liquid); method: gravimetric
Temperature, K	Mole fraction of glibenclamide	uncertainty
283.15	9.006e-05	3.605e-05
288.15	0.0001205	4.822e-05
293.15	0.00015021	6.01e-05
298.15	0.00018051	7.222e-05
303.15	0.00022627	9.054e-05
308.15	0.00028979	0.00011596
313.15	0.00037532	0.00015018
318.15	0.00048556	0.00019429
323.15	0.000627	0.00025087

System: glibenclamide + acetone + acetonitrile; phases: Liquid, Crystal 1
Fixed: Pressure, kPa = 100
Property: Mole fraction of glibenclamide (Liquid); method: gravimetric
Temperature, K	Solvent: Mole fraction of acetone	Mole fraction of glibenclamide	uncertainty
283.15	0	5.252e-05	2.102e-05
283.15	0.1	6.173e-05	2.471e-05
283.15	0.2	9.01e-05	3.606e-05
283.15	0.3	0.00011266	4.509e-05
283.15	0.4	0.00015861	6.346e-05
283.15	0.5	0.00020448	8.181e-05
283.15	0.6	0.00024016	9.609e-05
283.15	0.7	0.00029611	0.00011848
283.15	0.8	0.00035757	0.00014305
283.15	0.9	0.00041652	0.00016664
283.15	1	0.0004713	0.00018856
288.15	0	7.152e-05	2.862e-05
288.15	0.1	8.814e-05	3.527e-05
288.15	0.2	0.00011837	4.737e-05
288.15	0.3	0.00016022	6.411e-05
288.15	0.4	0.00019376	7.752e-05
288.15	0.5	0.00024169	9.67e-05
288.15	0.6	0.00029602	0.00011844
288.15	0.7	0.00036444	0.00014581
288.15	0.8	0.00041911	0.00016768
288.15	0.9	0.0004894	0.00019579
288.15	1	0.00056771	0.00022713
293.15	0	9.854e-05	3.943e-05
293.15	0.1	0.00011867	4.749e-05
293.15	0.2	0.00015661	6.268e-05
293.15	0.3	0.00020055	8.026e-05
293.15	0.4	0.00024554	9.826e-05
293.15	0.5	0.00030473	0.00012194
293.15	0.6	0.00036397	0.00014563
293.15	0.7	0.00044105	0.00017646
293.15	0.8	0.00052834	0.00021139
293.15	0.9	0.0005881	0.0002353
293.15	1	0.00069022	0.00027617
298.15	0	0.00013101	5.242e-05
298.15	0.1	0.00016311	6.527e-05
298.15	0.2	0.00021831	8.736e-05
298.15	0.3	0.00028241	0.00011302
298.15	0.4	0.00034533	0.00013819
298.15	0.5	0.00040956	0.00016388
298.15	0.6	0.00047544	0.00019024
298.15	0.7	0.00055712	0.00022292
298.15	0.8	0.00066024	0.00026417
298.15	0.9	0.00075522	0.00030217
298.15	1	0.00089399	0.00035769
303.15	0	0.00016293	6.52e-05
303.15	0.1	0.00021399	8.564e-05
303.15	0.2	0.00028702	0.00011486
303.15	0.3	0.00037534	0.0001502
303.15	0.4	0.00044751	0.00017907
303.15	0.5	0.00052339	0.00020943
303.15	0.6	0.00060411	0.00024173
303.15	0.7	0.0007095	0.00028389
303.15	0.8	0.0008251	0.00033013
303.15	0.9	0.00092793	0.00037126
303.15	1	0.00108875	0.0004356
308.15	0	0.00022493	9.003e-05
308.15	0.1	0.00029861	0.00011951
308.15	0.2	0.0003864	0.00015463
308.15	0.3	0.00049361	0.00019752
308.15	0.4	0.00058098	0.00023248
308.15	0.5	0.00068206	0.00027294
308.15	0.6	0.00078297	0.00031331
308.15	0.7	0.00089781	0.00035926
308.15	0.8	0.00103657	0.00041476
308.15	0.9	0.00114463	0.00045799
308.15	1	0.00133549	0.00053435
313.15	0	0.00031635	0.0001266
313.15	0.1	0.00040618	0.00016255
313.15	0.2	0.00052128	0.0002086
313.15	0.3	0.00063596	0.00025448
313.15	0.4	0.00075886	0.00030366
313.15	0.5	0.00091021	0.00036422
313.15	0.6	0.00103595	0.00041453
313.15	0.7	0.00118533	0.0004743
313.15	0.8	0.00133442	0.00053394
313.15	0.9	0.00147557	0.0005904
313.15	1	0.00171152	0.00068481
318.15	0	0.00041812	0.00016732
318.15	0.1	0.00054054	0.00021631
318.15	0.2	0.00068978	0.00027602
318.15	0.3	0.00084487	0.00033805
318.15	0.4	0.00099462	0.00039798
318.15	0.5	0.00117298	0.00046935
318.15	0.6	0.00133698	0.00053497
318.15	0.7	0.00151182	0.00060491
318.15	0.8	0.00169489	0.00067815
318.15	0.9	0.0018489	0.00073976
318.15	1	0.00214026	0.0008563
323.15	0	0.00055819	0.00022335
323.15	0.1	0.00071936	0.00028784
323.15	0.2	0.00090347	0.00036148
323.15	0.3	0.00105106	0.00042053
323.15	0.4	0.00126046	0.00050431
323.15	0.5	0.00150256	0.00060117
323.15	0.6	0.00170748	0.00068316
323.15	0.7	0.00190427	0.00076189
323.15	0.8	0.0021214	0.00084874
323.15	0.9	0.00230931	0.00092395
323.15	1	0.00260782	0.00104331

System: glibenclamide + acetone + acetonitrile; phases: Liquid, Crystal 1
Fixed: Temperature, K = 298.15
Fixed: Pressure, kPa = 100
Property: Mole fraction of glibenclamide (Liquid); method: UV spectroscopy
Solvent: Mole fraction of acetone	Mole fraction of glibenclamide	uncertainty
0	0.00013601	5.44e-05
0.1	0.00016947	6.779e-05
0.2	0.0002253	9.012e-05
0.3	0.00029622	0.00011849
0.4	0.00035045	0.00014018
0.5	0.00041573	0.00016629
0.6	0.00048518	0.00019407
0.7	0.00056124	0.0002245

System: butanedioic acid + ethanol + water; phases: Liquid, Crystal 1
Fixed: Temperature, K = 303.15
Fixed: Pressure, kPa = 100
Property: Mole fraction of butanedioic acid (Liquid); method: gravimetric
Solvent: Mole fraction of ethanol	Mole fraction of butanedioic acid	uncertainty
0.0831	0.0187	0.0075
0.2591	0.0279	0.0112
0.3523	0.0338	0.0135
0.5504	0.0485	0.0194
0.6556	0.0567	0.0227
