Measured thermophysical data. Measurement and Correlation for the Solid Solubility of Antioxidants of EDTA Disodium Salt Dihydrate, EDTA Calcium Disodium Salt Hydrate, and l-Cysteine Hydrochloride in Supercritical Carbon Dioxide
Source: J. Chem. Eng. Data, 2016, 10.1021/acs.jced.5b00589
Compound 1: disodium N,N'-1,2-ethanediylbis(N-(carboxymethyl)glycinate) dihydrate, C10H18N2Na2O10, InChI=1S/C10H16N2O8.2Na.2H2O/c13-7(14)3-11(4-8(15)16)1-2-12(5-9(17)18)6-10(19)20;;;;/h1-6H2,(H,13,14)(H,15,16)(H,17,18)(H,19,20);;;2*1H2/q;2*+1;;/p-2, purity 99%
Compound 2: calcium disodium 2,2',2'',2'''-(ethane-1,2-diylbis(azanetriyl))tetraacetate monohydrate, C10H14CaN2Na2O9, InChI=1S/C10H16N2O8.Ca.2Na.H2O/c13-7(14)3-11(4-8(15)16)1-2-12(5-9(17)18)6-10(19)20;;;;/h1-6H2,(H,13,14)(H,15,16)(H,17,18)(H,19,20);;;;1H2/q;+2;2*+1;/p-4, purity 97%
Compound 3: (R)-cysteine hydrochloride, C3H8ClNO2S, InChI=1S/C3H7NO2S.ClH/c4-2(1-7)3(5)6;/h2,7H,1,4H2,(H,5,6);1H/t2-;/m0./s1, purity 98%
Compound 4: carbon dioxide, CO2, InChI=1S/CO2/c2-1-3, purity 99.5%

System: carbon dioxide + disodium N,N'-1,2-ethanediylbis(N-(carboxymethyl)glycinate) dihydrate; phases: Fluid (supercritical or subcritical phases), Crystal
Property: Mole fraction of disodium N,N'-1,2-ethanediylbis(N-(carboxymethyl)glycinate) dihydrate (Fluid (supercritical or subcritical phases)); method: UV spectroscopy
Temperature, K	Pressure, kPa	Mole fraction of disodium N,N'-1,2-ethanediylbis(N-(carboxymethyl)glycinate) dihydrate	uncertainty
308.15	10000	1.99e-06	1.4e-07
308.15	12000	2.59e-06	1.4e-07
308.15	14000	3.05e-06	1.4e-07
308.15	16000	3.4e-06	1.3e-07
308.15	18000	3.58e-06	1.3e-07
308.15	20000	3.69e-06	1.3e-07
308.15	22000	3.8e-06	1.3e-07
313.15	10000	1.51e-06	1.6e-07
313.15	12000	2.42e-06	1.5e-07
313.15	14000	3.19e-06	1.4e-07
313.15	16000	3.66e-06	1.4e-07
313.15	18000	4.01e-06	1.4e-07
313.15	20000	4.32e-06	1.4e-07
313.15	22000	4.63e-06	1.3e-07
318.15	10000	1.12e-06	1.8e-07
318.15	12000	2.31e-06	1.7e-07
318.15	14000	3.36e-06	1.6e-07
318.15	16000	4.02e-06	1.4e-07
318.15	18000	4.45e-06	1.4e-07
318.15	20000	4.9e-06	1.4e-07
318.15	22000	5.17e-06	1.3e-07

System: carbon dioxide + calcium disodium 2,2',2'',2'''-(ethane-1,2-diylbis(azanetriyl))tetraacetate monohydrate; phases: Fluid (supercritical or subcritical phases), Crystal
Property: Mole fraction of calcium disodium 2,2',2'',2'''-(ethane-1,2-diylbis(azanetriyl))tetraacetate monohydrate (Fluid (supercritical or subcritical phases)); method: UV spectroscopy
Temperature, K	Pressure, kPa	Mole fraction of calcium disodium 2,2',2'',2'''-(ethane-1,2-diylbis(azanetriyl))tetraacetate monohydrate	uncertainty
308.15	12000	5.9e-07	4.5e-08
308.15	14000	6.46e-07	4.5e-08
308.15	16000	7.42e-07	4.6e-08
308.15	18000	8.64e-07	4.6e-08
308.15	20000	9.09e-07	4.5e-08
308.15	22000	1.01e-06	5e-08
308.15	24000	1.11e-06	5e-08
313.15	12000	5.57e-07	4.6e-08
313.15	14000	6.61e-07	4.7e-08
313.15	16000	8.1e-07	4.7e-08
313.15	18000	9.2e-07	4.6e-08
313.15	20000	9.83e-07	4.6e-08
313.15	22000	1.08e-06	5e-08
313.15	24000	1.2e-06	5e-08
318.15	12000	4.81e-07	4.9e-08
318.15	14000	6.74e-07	4.8e-08
318.15	16000	8.35e-07	4.7e-08
318.15	18000	9.66e-07	4.8e-08
318.15	20000	1.16e-06	5e-08
318.15	22000	1.24e-06	5e-08
318.15	24000	1.29e-06	5e-08

System: (R)-cysteine hydrochloride + carbon dioxide; phases: Fluid (supercritical or subcritical phases), Crystal
Property: Mole fraction of (R)-cysteine hydrochloride (Fluid (supercritical or subcritical phases)); method: UV spectroscopy
Temperature, K	Pressure, kPa	Mole fraction of (R)-cysteine hydrochloride	uncertainty
308.15	12000	7.59e-07	1.2e-07
308.15	14000	1.05e-06	1.2e-07
308.15	16000	1.41e-06	1.2e-07
308.15	18000	1.73e-06	1.3e-07
308.15	20000	1.95e-06	1.3e-07
308.15	22000	2.27e-06	1.3e-07
308.15	24000	2.62e-06	1.3e-07
313.15	12000	1.14e-06	1.3e-07
313.15	14000	1.58e-06	1.3e-07
313.15	16000	2.12e-06	1.3e-07
313.15	18000	2.68e-06	1.3e-07
313.15	20000	3.12e-06	1.3e-07
313.15	22000	3.56e-06	1.4e-07
313.15	24000	4.02e-06	1.4e-07
318.15	12000	1.06e-06	1.5e-07
318.15	14000	2e-06	1.5e-07
318.15	16000	2.9e-06	1.5e-07
318.15	18000	3.68e-06	1.5e-07
318.15	20000	4.54e-06	1.5e-07
318.15	22000	5.21e-06	1.4e-07
318.15	24000	5.61e-06	1.4e-07
