Measured thermophysical data. Measurement and Correlation of Solubility of Gatifloxacin in 12 Pure Solvents from 273.15 K to 318.15 K
Source: J. Chem. Eng. Data, 2019, 10.1021/acs.jced.8b00902
Compound 1: gatifloxacin, C19H22FN3O4, InChI=1S/C19H22FN3O4/c1-10-8-22(6-5-21-10)16-14(20)7-12-15(18(16)27-2)23(11-3-4-11)9-13(17(12)24)19(25)26/h7,9-11,21H,3-6,8H2,1-2H3,(H,25,26), purity 99.7%
Compound 2: methanol, CH4O, InChI=1S/CH4O/c1-2/h2H,1H3, purity 99.5%
Compound 3: propan-1-ol, C3H8O, InChI=1S/C3H8O/c1-2-3-4/h4H,2-3H2,1H3, purity 99.6%
Compound 4: ethanol, C2H6O, InChI=1S/C2H6O/c1-2-3/h3H,2H2,1H3, purity 99.5%
Compound 5: butan-1-ol, C4H10O, InChI=1S/C4H10O/c1-2-3-4-5/h5H,2-4H2,1H3, purity 99.5%
Compound 6: propan-2-ol, C3H8O, InChI=1S/C3H8O/c1-3(2)4/h3-4H,1-2H3, purity 99.4%
Compound 7: acetone, C3H6O, InChI=1S/C3H6O/c1-3(2)4/h1-2H3, purity 99.6%
Compound 8: butanone, C4H8O, InChI=1S/C4H8O/c1-3-4(2)5/h3H2,1-2H3, purity 99.4%
Compound 9: acetonitrile, C2H3N, InChI=1S/C2H3N/c1-2-3/h1H3, purity 99.5%
Compound 10: ethyl acetate, C4H8O2, InChI=1S/C4H8O2/c1-3-6-4(2)5/h3H2,1-2H3, purity 99.5%
Compound 11: 1,4-dioxane, C4H8O2, InChI=1S/C4H8O2/c1-2-6-4-3-5-1/h1-4H2, purity 99.6%
Compound 12: toluene, C7H8, InChI=1S/C7H8/c1-7-5-3-2-4-6-7/h2-6H,1H3, purity 99.5%
Compound 13: dimethylformamide, C3H7NO, InChI=1S/C3H7NO/c1-4(2)3-5/h3H,1-2H3, purity 99.6%

System: gatifloxacin + methanol; phases: Liquid, Crystal
Fixed: Pressure, kPa = 101.1
Property: Mole fraction of gatifloxacin (Liquid); method: Chromatography
Temperature, K	Mole fraction of gatifloxacin	uncertainty
273.15	0.00019	8e-06
278.15	0.000232	1e-05
283.15	0.000294	1.3e-05
288.15	0.00036	1.6e-05
293.15	0.000438	1.9e-05
298.15	0.000531	2.3e-05
303.15	0.000637	2.8e-05
308.15	0.000752	3.3e-05
313.15	0.000902	4e-05
318.15	0.001071	4.7e-05

System: gatifloxacin + ethanol; phases: Liquid, Crystal
Fixed: Pressure, kPa = 101.1
Property: Mole fraction of gatifloxacin (Liquid); method: Chromatography
Temperature, K	Mole fraction of gatifloxacin	uncertainty
273.15	0.000261	1.2e-05
278.15	0.000326	1.4e-05
283.15	0.000403	1.8e-05
288.15	0.000489	2.2e-05
293.15	0.000585	2.6e-05
298.15	0.000698	3.1e-05
303.15	0.000829	3.7e-05
308.15	0.000984	4.3e-05
313.15	0.001158	5.1e-05
318.15	0.001362	6e-05

System: gatifloxacin + propan-1-ol; phases: Liquid, Crystal
Fixed: Pressure, kPa = 101.1
Property: Mole fraction of gatifloxacin (Liquid); method: Chromatography
Temperature, K	Mole fraction of gatifloxacin	uncertainty
273.15	0.000364	1.6e-05
278.15	0.000445	2e-05
283.15	0.000545	2.4e-05
288.15	0.000655	2.9e-05
293.15	0.000778	3.4e-05
298.15	0.000922	4.1e-05
303.15	0.001086	4.8e-05
308.15	0.001273	5.6e-05
313.15	0.001487	6.6e-05
318.15	0.001732	7.6e-05

System: gatifloxacin + propan-2-ol; phases: Liquid, Crystal
Fixed: Pressure, kPa = 101.1
Property: Mole fraction of gatifloxacin (Liquid); method: Chromatography
Temperature, K	Mole fraction of gatifloxacin	uncertainty
273.15	0.000123	5e-06
278.15	0.000158	7e-06
283.15	0.000204	9e-06
288.15	0.000254	1.1e-05
293.15	0.000322	1.4e-05
298.15	0.000401	1.8e-05
303.15	0.000498	2.2e-05
308.15	0.000613	2.7e-05
313.15	0.000751	3.3e-05
318.15	0.000912	4e-05

System: gatifloxacin + butan-1-ol; phases: Liquid, Crystal
Fixed: Pressure, kPa = 101.1
Property: Mole fraction of gatifloxacin (Liquid); method: Chromatography
Temperature, K	Mole fraction of gatifloxacin	uncertainty
273.15	0.001054	4.7e-05
278.15	0.001216	5.4e-05
283.15	0.001434	6.3e-05
288.15	0.001686	7.4e-05
293.15	0.001948	8.6e-05
298.15	0.002246	9.9e-05
303.15	0.002604	0.000115
308.15	0.002988	0.000132
313.15	0.003441	0.000152
318.15	0.003952	0.000174

System: gatifloxacin + acetone; phases: Liquid, Crystal
Fixed: Pressure, kPa = 101.1
Property: Mole fraction of gatifloxacin (Liquid); method: Chromatography
Temperature, K	Mole fraction of gatifloxacin	uncertainty
273.15	0.00081	3.6e-05
278.15	0.000942	4.2e-05
283.15	0.001113	4.9e-05
288.15	0.001302	5.8e-05
293.15	0.001523	6.7e-05
298.15	0.001766	7.8e-05
303.15	0.002036	9e-05
308.15	0.002346	0.000104
313.15	0.002697	0.000119
318.15	0.003093	0.000136

System: gatifloxacin + butanone; phases: Liquid, Crystal
Fixed: Pressure, kPa = 101.1
Property: Mole fraction of gatifloxacin (Liquid); method: Chromatography
Temperature, K	Mole fraction of gatifloxacin	uncertainty
273.15	0.001576	7e-05
278.15	0.001863	8.2e-05
283.15	0.002186	9.7e-05
288.15	0.002567	0.000113
293.15	0.003002	0.000133
298.15	0.003488	0.000154
303.15	0.004048	0.000179
308.15	0.004678	0.000207
313.15	0.00539	0.000238
318.15	0.006197	0.000273

System: gatifloxacin + acetonitrile; phases: Liquid, Crystal
Fixed: Pressure, kPa = 101.1
Property: Mole fraction of gatifloxacin (Liquid); method: Chromatography
Temperature, K	Mole fraction of gatifloxacin	uncertainty
273.15	0.001302	5.7e-05
278.15	0.001498	6.6e-05
283.15	0.001768	7.8e-05
288.15	0.002081	9.2e-05
293.15	0.002435	0.000108
298.15	0.002811	0.000124
303.15	0.003222	0.000142
308.15	0.003696	0.000163
313.15	0.004241	0.000187
318.15	0.004855	0.000214

System: gatifloxacin + ethyl acetate; phases: Liquid, Crystal
Fixed: Pressure, kPa = 101.1
Property: Mole fraction of gatifloxacin (Liquid); method: Chromatography
Temperature, K	Mole fraction of gatifloxacin	uncertainty
273.15	0.003227	0.000143
278.15	0.003779	0.000167
283.15	0.004396	0.000194
288.15	0.005092	0.000225
293.15	0.005883	0.00026
298.15	0.006789	0.0003
303.15	0.007781	0.000343
308.15	0.008934	0.000394
313.15	0.01021	0.00045
318.15	0.01165	0.00051

System: gatifloxacin + 1,4-dioxane; phases: Liquid, Crystal
Fixed: Pressure, kPa = 101.1
Property: Mole fraction of gatifloxacin (Liquid); method: Chromatography
Temperature, K	Mole fraction of gatifloxacin	uncertainty
288.15	0.000952	4.2e-05
293.15	0.001111	4.9e-05
298.15	0.001288	5.7e-05
303.15	0.001492	6.6e-05
308.15	0.001717	7.6e-05
313.15	0.001983	8.8e-05
318.15	0.002283	0.000101

System: gatifloxacin + toluene; phases: Liquid, Crystal
Fixed: Pressure, kPa = 101.1
Property: Mole fraction of gatifloxacin (Liquid); method: Chromatography
Temperature, K	Mole fraction of gatifloxacin	uncertainty
273.15	5.9e-05	3e-06
278.15	8.1e-05	4e-06
283.15	0.000109	5e-06
288.15	0.000146	7e-06
293.15	0.000199	9e-06
298.15	0.000261	1.2e-05
303.15	0.000344	1.5e-05
308.15	0.000446	2e-05
313.15	0.000577	2.6e-05
318.15	0.000742	3.3e-05

System: gatifloxacin + dimethylformamide; phases: Liquid, Crystal
Fixed: Pressure, kPa = 101.1
Property: Mole fraction of gatifloxacin (Liquid); method: Chromatography
Temperature, K	Mole fraction of gatifloxacin	uncertainty
273.15	0.002586	0.000114
278.15	0.003051	0.000135
283.15	0.003587	0.000158
288.15	0.004175	0.000184
293.15	0.004864	0.000215
298.15	0.005657	0.00025
303.15	0.006525	0.000288
308.15	0.007515	0.000332
313.15	0.008639	0.000381
318.15	0.009891	0.000436
