Measured thermophysical data. Excess Properties for the Binary System of Poly(ethylene glycol) 200 + 1,2-Ethanediamine at T = (303.15 to 323.15) K and the System s Spectroscopic Studies
Source: J. Chem. Eng. Data, 2016, 10.1021/acs.jced.5b00804
Compound 1: ethane-1,2-diamine, C2H8N2, InChI=1S/C2H8N2/c3-1-2-4/h1-4H2, purity 99%

System: ethane-1,2-diamine; phases: Liquid
Fixed: Pressure, kPa = 101.325
Property: Mass density, kg/m3 (Liquid); method: Pycnometric method
Temperature, K	Mass density, kg/m3	uncertainty
303.15	890.3	1.8
308.15	885.9	1.8
313.15	881.7	1.8
318.15	876.9	1.8
323.15	871.3	1.8

System: ethane-1,2-diamine; phases: Liquid
Fixed: Pressure, kPa = 101.325
Property: Viscosity, Pa*s (Liquid); method: Capillary tube (Ostwald; Ubbelohde) method
Temperature, K	Viscosity, Pa*s	uncertainty
303.15	0.00126	2e-05
308.15	0.00118	2e-05
313.15	0.00103	1e-05
318.15	0.000938	1.1e-05
323.15	0.000905	1.1e-05
