Measured thermophysical data. Solid-Liquid Equilibrium of Quinary Aqueous Solution Composed of Lithium, Potassium, Rubidium, Magnesium, and Borate at 323.15 K
Source: J. Chem. Eng. Data, 2019, 10.1021/acs.jced.9b00700
Compound 1: lithium borate, B4Li2O7, InChI=1S/B4O7.2Li/c5-3-7-1-8-4(6,11-3)10-2-9-3;;/q-2;2*+1, purity 99%
Compound 2: potassium tetraborate, B4K2O7, InChI=1S/B4O7.2K/c5-1-7-3-9-2(6)10-4(8-1)11-3;;/q-2;2*+1, purity 99%
Compound 3: magnesium tetraborate, B4MgO7, InChI=1S/B4O7.Mg/c5-1-7-3-9-2(6)10-4(8-1)11-3;/q-2;+2, purity 99%
Compound 4: water, H2O, InChI=1S/H2O/h1H2, purity 99.9%

System: potassium tetraborate + magnesium tetraborate + water; phases: Liquid, Crystal of intercomponent compound 1
Property: Mass fraction of magnesium tetraborate (Liquid); method: Titration method
Temperature, K	Mass fraction of potassium tetraborate	Pressure, kPa	Mass fraction of magnesium tetraborate	uncertainty
323.15	0.2316	100	0.0724	0.0007

System: potassium tetraborate + magnesium tetraborate + water; phases: Liquid, Crystal of intercomponent compound 2
Property: Mass fraction of magnesium tetraborate (Liquid); method: Titration method
Temperature, K	Mass fraction of potassium tetraborate	Pressure, kPa	Mass fraction of magnesium tetraborate	uncertainty
323.15	0.2316	100	0.0724	0.0007

System: lithium borate + magnesium tetraborate + water; phases: Liquid, Crystal of intercomponent compound 2
Property: Mass fraction of magnesium tetraborate (Liquid); method: Titration method
Temperature, K	Mass fraction of lithium borate	Pressure, kPa	Mass fraction of magnesium tetraborate	uncertainty
323.15	0.0453	100	0.0023	0.0001

System: lithium borate + magnesium tetraborate + water; phases: Liquid, Crystal of intercomponent compound 1
Property: Mass fraction of magnesium tetraborate (Liquid); method: Titration method
Temperature, K	Mass fraction of lithium borate	Pressure, kPa	Mass fraction of magnesium tetraborate	uncertainty
323.15	0.0453	100	0.0023	0.0001
