Measured thermophysical data. Densities and Viscosities of Corn Oil + n-Alkanes Blends from (288.15 to 343.15) K at 0.1 MPa
Source: J. Chem. Eng. Data, 2017, 10.1021/acs.jced.7b00121
Compound 1: heptane, C7H16, InChI=1S/C7H16/c1-3-5-7-6-4-2/h3-7H2,1-2H3, purity 99%
Compound 2: octane, C8H18, InChI=1S/C8H18/c1-3-5-7-8-6-4-2/h3-8H2,1-2H3, purity 99.1%
Compound 3: nonane, C9H20, InChI=1S/C9H20/c1-3-5-7-9-8-6-4-2/h3-9H2,1-2H3, purity 99.6%
Compound 4: decane, C10H22, InChI=1S/C10H22/c1-3-5-7-9-10-8-6-4-2/h3-10H2,1-2H3, purity 99.7%

System: heptane; phases: Liquid
Fixed: Pressure, kPa = 101.325
Property: Mass density, kg/m3 (Liquid); method: Vibrating tube method
Temperature, K	Mass density, kg/m3	uncertainty
288.15	688.13	1.39
293.15	683.93	1.39
298.15	679.71	1.38
303.15	675.47	1.37
308.15	671.2	1.4
313.15	666.89	1.35
318.15	662.55	1.35
323.15	658.19	1.34
328.15	653.79	1.33
333.15	649.33	1.32
338.15	644.84	1.31
343.15	640.29	1.3

System: heptane; phases: Liquid
Fixed: Pressure, kPa = 101.325
Property: Viscosity, Pa*s (Liquid); method: Falling or rolling sphere viscometry
Temperature, K	Viscosity, Pa*s	uncertainty
288.15	0.000432	4.3e-05
293.15	0.000412	4.1e-05
298.15	0.000393	3.9e-05
303.15	0.000377	3.8e-05
308.15	0.000362	3.6e-05
313.15	0.000348	3.5e-05
318.15	0.000335	3.4e-05
323.15	0.000324	3.3e-05
328.15	0.000312	3.1e-05
333.15	0.000302	3e-05
338.15	0.000293	2.9e-05
343.15	0.000284	2.9e-05

System: octane; phases: Liquid
Fixed: Pressure, kPa = 101.325
Property: Mass density, kg/m3 (Liquid); method: Vibrating tube method
Temperature, K	Mass density, kg/m3	uncertainty
288.15	706.54	1.43
293.15	702.53	1.42
298.15	698.51	1.41
303.15	694.48	1.4
308.15	690.42	1.4
313.15	686.34	1.39
318.15	682.24	1.38
323.15	678.11	1.37
328.15	673.95	1.36
333.15	669.77	1.36
338.15	665.55	1.35
343.15	661.28	1.34

System: octane; phases: Liquid
Fixed: Pressure, kPa = 101.325
Property: Viscosity, Pa*s (Liquid); method: Falling or rolling sphere viscometry
Temperature, K	Viscosity, Pa*s	uncertainty
288.15	0.000585	5.9e-05
293.15	0.000552	5.5e-05
298.15	0.000523	5.2e-05
303.15	0.000496	5e-05
308.15	0.000473	4.7e-05
313.15	0.00045	4.5e-05
318.15	0.000431	4.3e-05
323.15	0.000412	4.1e-05
328.15	0.000395	4e-05
333.15	0.000379	3.8e-05
338.15	0.000365	3.7e-05
343.15	0.000352	3.5e-05

System: nonane; phases: Liquid
Fixed: Pressure, kPa = 101.325
Property: Mass density, kg/m3 (Liquid); method: Vibrating tube method
Temperature, K	Mass density, kg/m3	uncertainty
288.15	721.64	1.45
293.15	717.78	1.44
298.15	713.91	1.44
303.15	710.03	1.43
308.15	706.12	1.42
313.15	702.2	1.41
318.15	698.26	1.4
323.15	694.3	1.4
328.15	690.33	1.39
333.15	686.34	1.38
338.15	682.31	1.37
343.15	678.26	1.37

System: nonane; phases: Liquid
Fixed: Pressure, kPa = 101.325
Property: Viscosity, Pa*s (Liquid); method: Falling or rolling sphere viscometry
Temperature, K	Viscosity, Pa*s	uncertainty
288.15	0.000763	7.7e-05
293.15	0.000713	7.2e-05
298.15	0.000669	6.7e-05
303.15	0.00063	6.3e-05
308.15	0.000594	6e-05
313.15	0.000564	5.7e-05
318.15	0.000535	5.4e-05
323.15	0.000509	5.1e-05
328.15	0.000485	4.9e-05
333.15	0.000462	4.6e-05
338.15	0.000443	4.4e-05
343.15	0.000425	4.3e-05

System: decane; phases: Liquid
Fixed: Pressure, kPa = 101.325
Property: Mass density, kg/m3 (Liquid); method: Vibrating tube method
Temperature, K	Mass density, kg/m3	uncertainty
288.15	733.57	1.47
293.15	729.81	1.47
298.15	726.05	1.46
303.15	722.28	1.45
308.15	718.49	1.44
313.15	714.69	1.44
318.15	710.88	1.43
323.15	707.06	1.42
328.15	703.21	1.41
333.15	699.36	1.41
338.15	695.48	1.4
343.15	691.59	1.39

System: decane; phases: Liquid
Fixed: Pressure, kPa = 101.325
Property: Viscosity, Pa*s (Liquid); method: Falling or rolling sphere viscometry
Temperature, K	Viscosity, Pa*s	uncertainty
288.15	0.000987	9.9e-05
293.15	0.000915	9.2e-05
298.15	0.000852	8.5e-05
303.15	0.000797	8e-05
308.15	0.000747	7.5e-05
313.15	0.000703	7e-05
318.15	0.000663	6.6e-05
323.15	0.000627	6.3e-05
328.15	0.000593	5.9e-05
333.15	0.000563	5.6e-05
338.15	0.000536	5.4e-05
343.15	0.000512	5.1e-05
