Measured thermophysical data. Dependence of Refractive Index on Concentration and Temperature in Electrolyte Solution, Polar Solution, Nonpolar Solution, and Protein Solution
Source: J. Chem. Eng. Data, 2015, 10.1021/acs.jced.5b00018
Compound 1: .alpha.-D-glucose, C6H12O6, InChI=1S/C6H12O6/c7-1-2-3(8)4(9)5(10)6(11)12-2/h2-11H,1H2/t2-,3-,4+,5-,6+/m1/s1, purity 99%
Compound 2: sodium chloride, ClNa, InChI=1S/ClH.Na/h1H;/q;+1/p-1, purity 99.5%
Compound 3: potassium chloride, ClK, InChI=1S/ClH.K/h1H;/q;+1/p-1, purity 99.5%
Compound 4: calcium chloride, CaCl2, InChI=1S/Ca.2ClH/h;2*1H/q+2;;/p-2, purity 99.5%
Compound 5: water, H2O, InChI=1S/H2O/h1H2, purity 99.5%
Compound 6: ethyl acetate, C4H8O2, InChI=1S/C4H8O2/c1-3-6-4(2)5/h3H2,1-2H3, purity 99%

System: water; phases: Liquid
Fixed: Pressure, kPa = 100
Property: Refractive index (Na D-line) (Liquid); method: Standard Abbe refractometry
Temperature, K	Refractive index (Na D-line)	uncertainty
293.15	1.3335	0.0007
298.15	1.333	0.0007
303.15	1.3323	0.0007
308.15	1.332	0.0007
313.15	1.3316	0.0007
318.15	1.3312	0.0007

System: .alpha.-D-glucose + water; phases: Liquid
Fixed: Pressure, kPa = 100
Property: Refractive index (Na D-line) (Liquid); method: Standard Abbe refractometry
Temperature, K	Mass fraction of .alpha.-D-glucose	Refractive index (Na D-line)	uncertainty
293.15	0.01	1.336	0.0007
293.15	0.05	1.3412	0.0007
293.15	0.1	1.3481	0.0007
293.15	0.15	1.3553	0.0007
293.15	0.2	1.3623	0.0007
293.15	0.3	1.3775	0.0007
293.15	0.4	1.3947	0.0007
293.15	0.5	1.4119	0.0007
298.15	0.01	1.3355	0.0007
298.15	0.05	1.3406	0.0007
298.15	0.1	1.3475	0.0007
298.15	0.15	1.3548	0.0007
298.15	0.2	1.3617	0.0007
298.15	0.3	1.3768	0.0007
298.15	0.4	1.3939	0.0007
298.15	0.5	1.4106	0.0007
303.15	0.01	1.3349	0.0007
303.15	0.05	1.3401	0.0007
303.15	0.1	1.3469	0.0007
303.15	0.15	1.3542	0.0007
303.15	0.2	1.361	0.0007
303.15	0.3	1.3763	0.0007
303.15	0.4	1.3932	0.0007
303.15	0.5	1.41	0.0007
308.15	0.01	1.3345	0.0007
308.15	0.05	1.3395	0.0007
308.15	0.1	1.3463	0.0007
308.15	0.15	1.3535	0.0007
308.15	0.2	1.3604	0.0007
308.15	0.3	1.3757	0.0007
308.15	0.4	1.3925	0.0007
308.15	0.5	1.4098	0.0007
313.15	0.01	1.3337	0.0007
313.15	0.05	1.3388	0.0007
313.15	0.1	1.3455	0.0007
313.15	0.15	1.3527	0.0007
313.15	0.2	1.3596	0.0007
313.15	0.3	1.3747	0.0007
313.15	0.4	1.3919	0.0007
313.15	0.5	1.4086	0.0007
318.15	0.01	1.3329	0.0007
318.15	0.05	1.3379	0.0007
318.15	0.1	1.3447	0.0007
318.15	0.15	1.3519	0.0007
318.15	0.2	1.3588	0.0007
318.15	0.3	1.3739	0.0007
318.15	0.4	1.3907	0.0007
318.15	0.5	1.4073	0.0007
293.15	0	1.3335	0.0007
298.15	0	1.333	0.0007
303.15	0	1.3323	0.0007
308.15	0	1.332	0.0007
313.15	0	1.3316	0.0007
318.15	0	1.3312	0.0007

System: sodium chloride + water; phases: Liquid
Fixed: Pressure, kPa = 100
Property: Refractive index (Na D-line) (Liquid); method: Standard Abbe refractometry
Temperature, K	Mass fraction of sodium chloride	Refractive index (Na D-line)	uncertainty
293.15	0.01	1.3365	0.0007
293.15	0.05	1.3434	0.0007
293.15	0.1	1.3521	0.0007
293.15	0.15	1.361	0.0007
293.15	0.2	1.3702	0.0007
293.15	0.25	1.3795	0.0007
298.15	0.01	1.3359	0.0007
298.15	0.05	1.3428	0.0007
298.15	0.1	1.3514	0.0007
298.15	0.15	1.3604	0.0007
298.15	0.2	1.3692	0.0007
298.15	0.25	1.3788	0.0007
303.15	0.01	1.3354	0.0007
303.15	0.05	1.3422	0.0007
303.15	0.1	1.3508	0.0007
303.15	0.15	1.3596	0.0007
303.15	0.2	1.3683	0.0007
303.15	0.25	1.378	0.0007
308.15	0.01	1.3346	0.0007
308.15	0.05	1.3414	0.0007
308.15	0.1	1.3502	0.0007
308.15	0.15	1.359	0.0007
308.15	0.2	1.3678	0.0007
308.15	0.25	1.3773	0.0007
313.15	0.01	1.3339	0.0007
313.15	0.05	1.3407	0.0007
313.15	0.1	1.3495	0.0007
313.15	0.15	1.358	0.0007
313.15	0.2	1.367	0.0007
313.15	0.25	1.3767	0.0007
318.15	0.01	1.3333	0.0007
318.15	0.05	1.3398	0.0007
318.15	0.1	1.3485	0.0007
318.15	0.15	1.3572	0.0007
318.15	0.2	1.3661	0.0007
318.15	0.25	1.3757	0.0007
293.15	0	1.3335	0.0007
298.15	0	1.333	0.0007
303.15	0	1.3323	0.0007
308.15	0	1.332	0.0007
313.15	0	1.3316	0.0007
318.15	0	1.3312	0.0007

System: potassium chloride + water; phases: Liquid
Fixed: Pressure, kPa = 100
Property: Refractive index (Na D-line) (Liquid); method: Standard Abbe refractometry
Temperature, K	Mass fraction of potassium chloride	Refractive index (Na D-line)	uncertainty
293.15	0.01	1.3349	0.0007
293.15	0.05	1.3405	0.0007
293.15	0.1	1.3486	0.0007
293.15	0.15	1.3577	0.0007
298.15	0.01	1.3345	0.0007
298.15	0.05	1.3401	0.0007
298.15	0.1	1.348	0.0007
298.15	0.15	1.3571	0.0007
303.15	0.01	1.334	0.0007
303.15	0.05	1.3396	0.0007
303.15	0.1	1.3476	0.0007
303.15	0.15	1.3566	0.0007
308.15	0.01	1.3335	0.0007
308.15	0.05	1.339	0.0007
308.15	0.1	1.347	0.0007
308.15	0.15	1.356	0.0007
313.15	0.01	1.333	0.0007
313.15	0.05	1.3384	0.0007
313.15	0.1	1.3464	0.0007
313.15	0.15	1.3554	0.0007
318.15	0.01	1.332	0.0007
318.15	0.05	1.3379	0.0007
318.15	0.1	1.346	0.0007
318.15	0.15	1.355	0.0007
293.15	0	1.3335	0.0007
298.15	0	1.333	0.0007
303.15	0	1.3323	0.0007
308.15	0	1.332	0.0007
313.15	0	1.3316	0.0007
318.15	0	1.3312	0.0007

System: water + calcium chloride; phases: Liquid
Fixed: Pressure, kPa = 100
Property: Refractive index (Na D-line) (Liquid); method: Standard Abbe refractometry
Temperature, K	Mass fraction of calcium chloride	Refractive index (Na D-line)	uncertainty
293.15	0.01	1.3356	0.0007
293.15	0.05	1.3442	0.0007
293.15	0.1	1.3568	0.0007
293.15	0.15	1.3689	0.0007
293.15	0.2	1.3818	0.0007
293.15	0.25	1.3945	0.0007
298.15	0.01	1.3353	0.0007
298.15	0.05	1.3437	0.0007
298.15	0.1	1.3561	0.0007
298.15	0.15	1.3686	0.0007
298.15	0.2	1.3814	0.0007
298.15	0.25	1.3943	0.0007
303.15	0.01	1.3349	0.0007
303.15	0.05	1.3431	0.0007
303.15	0.1	1.3555	0.0007
303.15	0.15	1.368	0.0007
303.15	0.2	1.3807	0.0007
303.15	0.25	1.394	0.0007
308.15	0.01	1.3344	0.0007
308.15	0.05	1.3426	0.0007
308.15	0.1	1.3551	0.0007
308.15	0.15	1.3671	0.0007
308.15	0.2	1.3802	0.0007
308.15	0.25	1.3933	0.0007
313.15	0.01	1.3339	0.0007
313.15	0.05	1.342	0.0007
313.15	0.1	1.3546	0.0007
313.15	0.15	1.3667	0.0007
313.15	0.2	1.3795	0.0007
313.15	0.25	1.3926	0.0007
318.15	0.01	1.3331	0.0007
318.15	0.05	1.3414	0.0007
318.15	0.1	1.3539	0.0007
318.15	0.15	1.3662	0.0007
318.15	0.2	1.3789	0.0007
318.15	0.25	1.392	0.0007
293.15	0	1.3335	0.0007
298.15	0	1.333	0.0007
303.15	0	1.3323	0.0007
308.15	0	1.332	0.0007
313.15	0	1.3316	0.0007
318.15	0	1.3312	0.0007

System: ethyl acetate + water; phases: Liquid
Fixed: Pressure, kPa = 100
Property: Refractive index (Na D-line) (Liquid); method: Standard Abbe refractometry
Temperature, K	Mass fraction of ethyl acetate	Refractive index (Na D-line)	uncertainty
293.15	0.009	1.3341	0.0007
293.15	0.027	1.3352	0.0007
293.15	0.045	1.3368	0.0007
293.15	0.064	1.3384	0.0007
293.15	0.082	1.3391	0.0007
298.15	0.009	1.3335	0.0007
298.15	0.027	1.3348	0.0007
298.15	0.045	1.3364	0.0007
298.15	0.064	1.338	0.0007
298.15	0.082	1.3388	0.0007
303.15	0.009	1.3331	0.0007
303.15	0.027	1.3342	0.0007
303.15	0.045	1.3358	0.0007
303.15	0.064	1.3377	0.0007
303.15	0.082	1.3383	0.0007
308.15	0.009	1.3327	0.0007
308.15	0.027	1.3337	0.0007
308.15	0.045	1.3353	0.0007
308.15	0.064	1.3368	0.0007
308.15	0.082	1.3378	0.0007
313.15	0.009	1.3321	0.0007
313.15	0.027	1.3332	0.0007
313.15	0.045	1.3346	0.0007
313.15	0.064	1.3358	0.0007
313.15	0.082	1.3373	0.0007
318.15	0.009	1.3317	0.0007
318.15	0.027	1.3326	0.0007
318.15	0.045	1.3342	0.0007
318.15	0.064	1.3352	0.0007
318.15	0.082	1.3365	0.0007
293.15	0	1.3335	0.0007
298.15	0	1.333	0.0007
303.15	0	1.3323	0.0007
308.15	0	1.332	0.0007
313.15	0	1.3316	0.0007
318.15	0	1.3312	0.0007
