Measured thermophysical data. Solid-Liquid Equilibria for the Glycine-Alcohol-NaCl-H2O System
Source: J. Chem. Eng. Data, 2017, 10.1021/acs.jced.7b00549
Compound 1: 2-aminoacetic acid, C2H5NO2, InChI=1S/C2H5NO2/c3-1-2(4)5/h1,3H2,(H,4,5)
Compound 2: propan-1-ol, C3H8O, InChI=1S/C3H8O/c1-2-3-4/h4H,2-3H2,1H3
Compound 3: ethanol, C2H6O, InChI=1S/C2H6O/c1-2-3/h3H,2H2,1H3
Compound 4: water, H2O, InChI=1S/H2O/h1H2, purity 99.9%

System: 2-aminoacetic acid + ethanol + water; phases: Liquid, Crystal
Fixed: Pressure, kPa = 101.325
Property: Molality, mol/kg of 2-aminoacetic acid (Liquid); method: titration
Temperature, K	Molality, mol/kg of ethanol	Molality, mol/kg of 2-aminoacetic acid	uncertainty
283.15	0.5	2.1153	0.2003
283.15	1	1.8544	0.2003
283.15	1.5	1.6603	0.2002
283.15	3	1.3337	0.2002
283.15	4	1.0683	0.2002
283.15	5	0.9132	0.2002
283.15	6.17	0.7514	0.2001
283.15	7.43	0.4736	0.2
283.15	8.77	0.5932	0.2001
283.15	12.93	0.4004	0.2
283.15	19.07	0.3941	0.2
283.15	31.03	0.2139	0.2
293.15	0.5	2.5985	0.2003
293.15	1	2.3993	0.2004
293.15	1.5	2.1103	0.2003
293.15	3	1.7915	0.2002
293.15	4	1.5246	0.2002
293.15	5	1.3698	0.2002
293.15	6.17	1.0878	0.2002
293.15	7.43	0.7999	0.2002
293.15	8.77	0.7948	0.2001
293.15	12.93	0.5867	0.2
293.15	19.07	0.5034	0.2
293.15	31.03	0.2169	0.2
303.15	0.5	3.0665	0.2005
303.15	1	2.9619	0.2006
303.15	1.5	2.7178	0.2005
303.15	3	2.1927	0.2003
303.15	4	1.9997	0.2002
303.15	5	1.8264	0.2003
303.15	6.17	1.5237	0.2002
303.15	7.43	1.3106	0.2003
303.15	8.77	1.1536	0.2001
303.15	12.93	0.7333	0.2001
303.15	19.07	0.5698	0.2
303.15	31.03	0.3618	0.2
313.15	0.5	3.8354	0.2006
313.15	1	3.8214	0.2008
313.15	1.5	3.3476	0.2005
313.15	3	2.805	0.2005
313.15	4	2.4225	0.2004
313.15	5	2.3388	0.2003
313.15	6.17	1.9554	0.2004
313.15	7.43	1.9017	0.2004
313.15	8.77	1.4876	0.2002
313.15	12.93	1.0964	0.2001
313.15	19.07	0.7883	0.2001
313.15	31.03	0.425	0.2
323.15	0.5	4.4582	0.2008
323.15	1	4.5076	0.2007
323.15	1.5	3.8725	0.2008
323.15	3	3.507	0.2008
323.15	4	3.0879	0.2007
323.15	5	2.8734	0.2005
323.15	6.17	2.7159	0.2006
323.15	7.43	2.5182	0.2005
323.15	8.77	1.9752	0.2004
323.15	12.93	1.4605	0.2002
323.15	19.07	1.0139	0.2001
323.15	31.03	0.5076	0.2
333.15	0.5	5.4064	0.2012
333.15	1	5.2182	0.2008
333.15	1.5	4.9298	0.2015
333.15	3	4.4719	0.201
333.15	4	3.9972	0.2011
333.15	5	3.6335	0.2008
333.15	6.17	3.4568	0.2006
333.15	7.43	3.1891	0.2005
333.15	8.77	2.6244	0.2007
333.15	12.93	1.9027	0.2004
333.15	19.07	1.3824	0.2002
333.15	31.03	0.5426	0.2

System: 2-aminoacetic acid + propan-1-ol + water; phases: Liquid, Crystal
Fixed: Pressure, kPa = 101.325
Property: Molality, mol/kg of 2-aminoacetic acid (Liquid); method: titration
Temperature, K	Molality, mol/kg of propan-1-ol	Molality, mol/kg of 2-aminoacetic acid	uncertainty
283.15	0.498	1.9871	0.2003
283.15	1	1.9044	0.2004
283.15	1.499	1.6079	0.2003
283.15	3.499	1.0696	0.2002
283.15	3.999	0.9488	0.2002
283.15	4.494	0.981	0.2002
283.15	4.998	0.8568	0.2002
283.15	5.497	0.8419	0.2002
283.15	5.997	0.8297	0.2002
293.15	0.498	2.5288	0.2005
293.15	1	2.4278	0.2004
293.15	1.499	2.1274	0.2003
293.15	2.001	1.8271	0.2004
293.15	2.5	1.5663	0.2003
293.15	3.499	1.5575	0.2002
293.15	3.999	1.4438	0.2002
293.15	4.494	1.3691	0.2002
293.15	4.998	1.3125	0.2002
293.15	5.497	1.2517	0.2002
293.15	5.997	1.2491	0.2002
303.15	0.498	3.2871	0.2006
303.15	1	3.0197	0.2005
303.15	1.499	2.6926	0.2004
303.15	2.001	2.4287	0.2004
303.15	2.5	2.1804	0.2005
303.15	3.499	1.9922	0.2004
303.15	3.999	1.8866	0.2004
303.15	4.494	1.7939	0.2003
303.15	4.998	1.7688	0.2004
303.15	5.497	1.6859	0.2004
303.15	5.997	1.6562	0.2003
313.15	0.498	3.9155	0.2006
313.15	1	3.6216	0.2006
313.15	1.499	3.3197	0.2006
313.15	2.001	3.0062	0.2006
313.15	2.5	2.8395	0.2007
313.15	3.499	2.6929	0.2006
313.15	3.999	2.5819	0.2007
313.15	4.494	2.4695	0.2006
313.15	4.998	2.5369	0.2006
313.15	5.497	2.4176	0.2006
313.15	5.997	2.3634	0.2006
323.15	0.498	4.6422	0.2007
323.15	1	4.4034	0.2007
323.15	1.499	4.0806	0.2006
323.15	2.001	3.8395	0.2008
323.15	2.5	3.7157	0.2007
323.15	3.499	3.4822	0.2008
323.15	3.999	3.4121	0.2008
323.15	4.494	3.2838	0.2009
323.15	5.997	3.1837	0.2008
333.15	0.498	5.3241	0.2008
333.15	1	5.0775	0.2007
333.15	1.499	4.6679	0.2007
333.15	2.001	4.5617	0.2007
333.15	2.5	4.3372	0.2007
333.15	3.499	4.3564	0.2009
333.15	3.999	4.2756	0.201
333.15	4.494	4.1994	0.2011
333.15	5.997	4.0331	0.2009
