Measured thermophysical data. Isothermal Vapor-Liquid Equilibrium Data for the Binary Systems Consisting of 1,1,2,3,3,3-Hexafluoro-1-propene and Either Methylcyclohexane, Cyclohexane, n-Hexane, 2-Methyltetrahydrofuran, or 2,2,3,3,4,4,4-Heptafluoro-1-butanol
Source: J. Chem. Eng. Data, 2019, 10.1021/acs.jced.9b00441
Compound 1: 2-methyltetrahydrofuran, C5H10O, InChI=1S/C5H10O/c1-5-3-2-4-6-5/h5H,2-4H2,1H3, purity 99%
Compound 2: hexane, C6H14, InChI=1S/C6H14/c1-3-5-6-4-2/h3-6H2,1-2H3, purity 99%
Compound 3: 2,2,3,3,4,4,4-heptafluorobutanol, C4H3F7O, InChI=1S/C4H3F7O/c5-2(6,1-12)3(7,8)4(9,10)11/h12H,1H2, purity 98.5%
Compound 4: methylcyclohexane, C7H14, InChI=1S/C7H14/c1-7-5-3-2-4-6-7/h7H,2-6H2,1H3, purity 99.5%
Compound 5: cyclohexane, C6H12, InChI=1S/C6H12/c1-2-4-6-5-3-1/h1-6H2, purity 99.5%
Compound 6: hexafluoropropene, C3F6, InChI=1S/C3F6/c4-1(2(5)6)3(7,8)9, purity 99.9%

System: 2-methyltetrahydrofuran; phases: Liquid
Property: Mass density, kg/m3 (Liquid); method: Vibrating tube method
Temperature, K	Pressure, kPa	Mass density, kg/m3	uncertainty
293.15	101.325	855	1

System: 2-methyltetrahydrofuran; phases: Liquid
Property: Refractive index (Na D-line) (Liquid); method: Standard Abbe refractometry
Temperature, K	Pressure, kPa	Refractive index (Na D-line)	uncertainty
294.15	101.325	1.405	0.001

System: hexane; phases: Liquid
Property: Mass density, kg/m3 (Liquid); method: Vibrating tube method
Temperature, K	Pressure, kPa	Mass density, kg/m3	uncertainty
298.15	101.325	654	1

System: hexane; phases: Liquid
Property: Refractive index (Na D-line) (Liquid); method: Standard Abbe refractometry
Temperature, K	Pressure, kPa	Refractive index (Na D-line)	uncertainty
298.15	101.325	1.375	0.001

System: 2,2,3,3,4,4,4-heptafluorobutanol; phases: Liquid
Property: Mass density, kg/m3 (Liquid); method: Vibrating tube method
Temperature, K	Pressure, kPa	Mass density, kg/m3	uncertainty
293.15	101.325	1580	2

System: 2,2,3,3,4,4,4-heptafluorobutanol; phases: Liquid
Property: Refractive index (Na D-line) (Liquid); method: Standard Abbe refractometry
Temperature, K	Pressure, kPa	Refractive index (Na D-line)	uncertainty
293.15	101.325	1.264	0.001

System: methylcyclohexane; phases: Liquid
Property: Mass density, kg/m3 (Liquid); method: Vibrating tube method
Temperature, K	Pressure, kPa	Mass density, kg/m3	uncertainty
293.15	101.325	769	1

System: methylcyclohexane; phases: Liquid
Property: Refractive index (Na D-line) (Liquid); method: Standard Abbe refractometry
Temperature, K	Pressure, kPa	Refractive index (Na D-line)	uncertainty
293.15	101.325	1.423	0.001

System: cyclohexane; phases: Liquid
Property: Mass density, kg/m3 (Liquid); method: Vibrating tube method
Temperature, K	Pressure, kPa	Mass density, kg/m3	uncertainty
298.15	101.325	775	1

System: cyclohexane; phases: Liquid
Property: Refractive index (Na D-line) (Liquid); method: Standard Abbe refractometry
Temperature, K	Pressure, kPa	Refractive index (Na D-line)	uncertainty
293.15	101.325	1.423	0.001

System: hexafluoropropene; phases: Liquid, Gas
Property: Vapor or sublimation pressure, kPa (Liquid); method: Closed cell (Static) method
Temperature, K	Vapor or sublimation pressure, kPa	uncertainty
302.94	838	7
312.91	1094	7
322.94	1407	8
332.94	1783	8
342.92	2225	8

System: hexafluoropropene + methylcyclohexane; phases: Liquid, Gas
Fixed: Temperature, K = 313.15
Property: Vapor or sublimation pressure, kPa (Liquid); method: Closed cell (Static) method
Mole fraction of hexafluoropropene	Vapor or sublimation pressure, kPa	uncertainty
0.199	667	9
0.342	784	9
0.437	828	9
0.642	886	9
0.688	903	9
0.874	972	9
0.925	1013	9

System: hexafluoropropene + methylcyclohexane; phases: Gas, Liquid
Fixed: Temperature, K = 313.15
Property: Mole fraction of hexafluoropropene (Gas); method: Chromatography
Mole fraction of hexafluoropropene	Mole fraction of hexafluoropropene	uncertainty
0.199	0.974	0.0025
0.342	0.9778	0.0014
0.437	0.98	0.0013
0.642	0.9779	0.0013
0.688	0.9791	0.0013
0.874	0.9878	0.0013
0.925	0.9917	0.0009

System: hexafluoropropene + cyclohexane; phases: Liquid, Gas
Fixed: Temperature, K = 313.15
Property: Vapor or sublimation pressure, kPa (Liquid); method: Closed cell (Static) method
Mole fraction of hexafluoropropene	Vapor or sublimation pressure, kPa	uncertainty
0.081	464	12
0.164	673	18
0.224	750	14
0.499	855	9
0.739	910	8
0.858	971	9
0.933	1037	9

System: hexafluoropropene + cyclohexane; phases: Gas, Liquid
Fixed: Temperature, K = 313.15
Property: Mole fraction of hexafluoropropene (Gas); method: Chromatography
Mole fraction of hexafluoropropene	Mole fraction of hexafluoropropene	uncertainty
0.081	0.9249	0.004
0.164	0.9461	0.0033
0.224	0.9537	0.0028
0.499	0.9586	0.0023
0.739	0.9645	0.002
0.858	0.9759	0.0016
0.933	0.9849	0.0011

System: hexafluoropropene + hexane; phases: Liquid, Gas
Fixed: Temperature, K = 313.15
Property: Vapor or sublimation pressure, kPa (Liquid); method: Closed cell (Static) method
Mole fraction of hexafluoropropene	Vapor or sublimation pressure, kPa	uncertainty
0.167	457	13
0.269	588	14
0.278	604	15
0.404	711	11
0.763	902	10
0.845	956	10
0.915	1012	9
0.941	1034	8

System: hexafluoropropene + hexane; phases: Gas, Liquid
Fixed: Temperature, K = 313.15
Property: Mole fraction of hexafluoropropene (Gas); method: Chromatography
Mole fraction of hexafluoropropene	Mole fraction of hexafluoropropene	uncertainty
0.167	0.9163	0.0047
0.269	0.9351	0.0038
0.278	0.9368	0.0037
0.404	0.9424	0.0033
0.763	0.9637	0.002
0.845	0.9721	0.0023
0.915	0.9813	0.0014
0.941	0.9836	0.0011

System: hexafluoropropene + 2,2,3,3,4,4,4-heptafluorobutanol; phases: Liquid, Gas
Fixed: Temperature, K = 313.15
Property: Vapor or sublimation pressure, kPa (Liquid); method: Closed cell (Static) method
Mole fraction of hexafluoropropene	Vapor or sublimation pressure, kPa	uncertainty
0.233	488	15
0.481	805	16
0.663	922	11
0.847	1010	9
0.914	1038	9
0.91	1039	9
0.959	1071	8
0.233	488	15

System: hexafluoropropene + 2,2,3,3,4,4,4-heptafluorobutanol; phases: Gas, Liquid
Fixed: Temperature, K = 313.15
Property: Mole fraction of hexafluoropropene (Gas); method: Chromatography
Mole fraction of hexafluoropropene	Mole fraction of hexafluoropropene	uncertainty
0.233	0.985	0.001
0.481	0.9912	0.0008
0.663	0.9928	0.0007
0.847	0.9952	0.0006
0.914	0.9956	0.0006
0.91	0.9954	0.0006
0.959	0.9962	0.0006
0.233	0.985	0.001

System: hexafluoropropene + 2-methyltetrahydrofuran; phases: Liquid, Gas
Fixed: Temperature, K = 313.15
Property: Vapor or sublimation pressure, kPa (Liquid); method: Closed cell (Static) method
Mole fraction of hexafluoropropene	Vapor or sublimation pressure, kPa	uncertainty
0.157	401	13
0.223	499	15
0.547	761	12
0.776	887	10
0.977	1075	8

System: hexafluoropropene + 2-methyltetrahydrofuran; phases: Gas, Liquid
Fixed: Temperature, K = 313.15
Property: Mole fraction of hexafluoropropene (Gas); method: Chromatography
Mole fraction of hexafluoropropene	Mole fraction of hexafluoropropene	uncertainty
0.157	0.9456	0.003
0.223	0.9536	0.0028
0.547	0.9731	0.0016
0.776	0.9787	0.0014
0.977	0.996	0.0006
