Measured thermophysical data. Determination of Dichlorodifluoromethane's Diffusion Coefficients in Hydrogen, Helium, Nitrogen, and Air by Reversed-Flow Inverse Gas Chromatography
Source: J. Chem. Eng. Data, 2019, 10.1021/acs.jced.8b01229
Compound 1: dichlorodifluoromethane, CCl2F2, InChI=1S/CCl2F2/c2-1(3,4)5, purity 99.8%
Compound 2: oxygen, O2, InChI=1S/O2/c1-2, purity 99.999%
Compound 3: helium, He, InChI=1S/He, purity 99.9996%
Compound 4: hydrogen, H2, InChI=1S/H2/h1H, purity 99.999%
Compound 5: nitrogen, N2, InChI=1S/N2/c1-2, purity 99.999%

System: dichlorodifluoromethane + hydrogen; phases: Gas
Fixed: Pressure, kPa = 101.3
Fixed: Mole fraction of dichlorodifluoromethane = 0
Property: Binary diffusion coefficient, m2/s (Gas); method: reversed-flow inverse gas chromatography
Temperature, K	Binary diffusion coefficient, m2/s	uncertainty
312.6	3.65e-05	400
317.3	3.73e-05	400
322.1	3.83e-05	400
326.9	3.93e-05	400
332.2	4.05e-05	400
336.4	4.11e-05	400
341.3	4.19e-05	600
345.9	4.28e-05	400
350.8	4.35e-05	600

System: dichlorodifluoromethane + helium; phases: Gas
Fixed: Pressure, kPa = 101.3
Fixed: Mole fraction of dichlorodifluoromethane = 0
Property: Binary diffusion coefficient, m2/s (Gas); method: reversed-flow inverse gas chromatography
Temperature, K	Binary diffusion coefficient, m2/s	uncertainty
312.6	3.07e-05	200
317.3	3.14e-05	300
322.1	3.23e-05	300
326.9	3.3e-05	300
332.2	3.37e-05	400
336.4	3.45e-05	400
341.3	3.53e-05	400
345.9	3.6e-05	300
350.8	3.69e-05	400

System: dichlorodifluoromethane + nitrogen; phases: Gas
Fixed: Pressure, kPa = 101.3
Fixed: Mole fraction of dichlorodifluoromethane = 0
Property: Binary diffusion coefficient, m2/s (Gas); method: reversed-flow inverse gas chromatography
Temperature, K	Binary diffusion coefficient, m2/s	uncertainty
312.6	8.4e-06	100
317.3	8.6e-06	100
322.1	8.9e-06	100
326.9	9.2e-06	100
332.2	9.3e-06	100
336.4	9.6e-06	100
341.3	9.8e-06	100
345.9	1.01e-05	100
350.8	1.03e-05	100

System: dichlorodifluoromethane + nitrogen + oxygen; phases: Gas
Fixed: Pressure, kPa = 101.3
Fixed: Mole fraction of dichlorodifluoromethane = 0
Fixed: Mole fraction of nitrogen = 0.8
Property: Binary diffusion coefficient, m2/s (Gas); method: reversed-flow inverse gas chromatography
Temperature, K	Binary diffusion coefficient, m2/s	uncertainty
312.6	8.3e-06	100
317.3	8.5e-06	100
322.1	8.7e-06	100
326.9	9e-06	100
332.2	9.2e-06	100
336.4	9.5e-06	100
341.3	9.7e-06	100
345.9	9.9e-06	100
350.8	1.02e-05	100
