Measured thermophysical data. Phase Equilibria in the Quaternary Systems KCl K2B4O7 K2SO4 H2O and MgCl2 MgB4O7 MgSO4 H2O at 273 K
Source: J. Chem. Eng. Data, 2017, 10.1021/acs.jced.6b00926
Compound 1: potassium chloride, ClK, InChI=1S/ClH.K/h1H;/q;+1/p-1, purity 99.5%
Compound 2: magnesium chloride, Cl2Mg, InChI=1S/2ClH.Mg/h2*1H;/q;;+2/p-2, purity 98%
Compound 3: potassium tetraborate, B4K2O7, InChI=1S/B4O7.2K/c5-1-7-3-9-2(6)10-4(8-1)11-3;;/q-2;2*+1, purity 99.5%
Compound 4: magnesium tetraborate, B4MgO7, InChI=1S/B4O7.Mg/c5-1-7-3-9-2(6)10-4(8-1)11-3;/q-2;+2, purity 98%
Compound 5: potassium sulfate, K2O4S, InChI=1S/2K.H2O4S/c;;1-5(2,3)4/h;;(H2,1,2,3,4)/q2*+1;/p-2, purity 99%
Compound 6: magnesium sulfate, MgO4S, InChI=1S/Mg.H2O4S/c;1-5(2,3)4/h;(H2,1,2,3,4)/q+2;/p-2, purity 99%
Compound 7: water, H2O, InChI=1S/H2O/h1H2, purity 99.8%

System: potassium tetraborate + potassium chloride + water; phases: Liquid
Property: Mass density, kg/m3 (Liquid); method: Pycnometric method
Mass fraction of potassium tetraborate	Mass fraction of potassium chloride	Temperature, K	Pressure, kPa	Mass density, kg/m3	uncertainty
0.0207	0.2132	273	94.77	1166	20

System: potassium tetraborate + potassium chloride + water; phases: Liquid, Crystal of intercomponent compound 1
Property: Mass fraction of potassium chloride (Liquid); method: Titration method
Mass fraction of potassium tetraborate	Temperature, K	Pressure, kPa	Mass fraction of potassium chloride	uncertainty
0.0207	273	94.77	0.2132	0.006

System: potassium tetraborate + potassium chloride + water; phases: Liquid, Crystal
Property: Mass fraction of potassium chloride (Liquid); method: Titration method
Mass fraction of potassium tetraborate	Temperature, K	Pressure, kPa	Mass fraction of potassium chloride	uncertainty
0.0207	273	94.77	0.2132	0.006

System: potassium tetraborate + water + potassium sulfate; phases: Liquid
Property: Mass density, kg/m3 (Liquid); method: Pycnometric method
Mass fraction of potassium sulfate	Mass fraction of potassium tetraborate	Temperature, K	Pressure, kPa	Mass density, kg/m3	uncertainty
0.0541	0.0627	273	94.77	1064	20

System: potassium tetraborate + water + potassium sulfate; phases: Liquid, Crystal
Property: Mass fraction of potassium tetraborate (Liquid); method: Titration method
Mass fraction of potassium sulfate	Temperature, K	Pressure, kPa	Mass fraction of potassium tetraborate	uncertainty
0.0541	273	94.77	0.0627	0.01

System: potassium tetraborate + water + potassium sulfate; phases: Liquid, Crystal of intercomponent compound 1
Property: Mass fraction of potassium tetraborate (Liquid); method: Titration method
Mass fraction of potassium sulfate	Temperature, K	Pressure, kPa	Mass fraction of potassium tetraborate	uncertainty
0.0541	273	94.77	0.0627	0.01

System: potassium chloride + water + potassium sulfate; phases: Liquid
Property: Mass density, kg/m3 (Liquid); method: Pycnometric method
Mass fraction of potassium sulfate	Mass fraction of potassium chloride	Temperature, K	Pressure, kPa	Mass density, kg/m3	uncertainty
0.0095	0.2162	273	94.77	1159	20

System: potassium chloride + water + potassium sulfate; phases: Liquid, Crystal
Property: Mass fraction of potassium chloride (Liquid); method: Titration method
Mass fraction of potassium sulfate	Temperature, K	Pressure, kPa	Mass fraction of potassium chloride	uncertainty
0.0095	273	94.77	0.2162	0.006

System: potassium chloride + water + potassium sulfate; phases: Liquid, Crystal
Property: Mass fraction of potassium chloride (Liquid); method: Titration method
Mass fraction of potassium sulfate	Temperature, K	Pressure, kPa	Mass fraction of potassium chloride	uncertainty
0.0095	273	94.77	0.2162	0.006

System: magnesium sulfate + water + magnesium tetraborate; phases: Liquid
Property: Mass density, kg/m3 (Liquid); method: Pycnometric method
Mass fraction of magnesium tetraborate	Mass fraction of magnesium sulfate	Temperature, K	Pressure, kPa	Mass density, kg/m3	uncertainty
0.0075	0.2092	273	94.77	1221	20

System: magnesium sulfate + water + magnesium tetraborate; phases: Liquid, Crystal of intercomponent compound 1
Property: Mass fraction of magnesium sulfate (Liquid); method: Titration method
Mass fraction of magnesium tetraborate	Temperature, K	Pressure, kPa	Mass fraction of magnesium sulfate	uncertainty
0.0075	273	94.77	0.2092	0.01

System: magnesium sulfate + water + magnesium tetraborate; phases: Liquid, Crystal of intercomponent compound 2
Property: Mass fraction of magnesium sulfate (Liquid); method: Titration method
Mass fraction of magnesium tetraborate	Temperature, K	Pressure, kPa	Mass fraction of magnesium sulfate	uncertainty
0.0075	273	94.77	0.2092	0.01

System: magnesium sulfate + water + magnesium chloride; phases: Liquid
Property: Mass density, kg/m3 (Liquid); method: Pycnometric method
Mass fraction of magnesium chloride	Mass fraction of magnesium sulfate	Temperature, K	Pressure, kPa	Mass density, kg/m3	uncertainty
0.3355	0.015	273	94.77	1279	20

System: magnesium sulfate + water + magnesium chloride; phases: Liquid, Crystal of intercomponent compound 1
Property: Mass fraction of magnesium sulfate (Liquid); method: Titration method
Mass fraction of magnesium chloride	Temperature, K	Pressure, kPa	Mass fraction of magnesium sulfate	uncertainty
0.3355	273	94.77	0.015	0.01

System: magnesium sulfate + water + magnesium chloride; phases: Liquid, Crystal of intercomponent compound 2
Property: Mass fraction of magnesium sulfate (Liquid); method: Titration method
Mass fraction of magnesium chloride	Temperature, K	Pressure, kPa	Mass fraction of magnesium sulfate	uncertainty
0.3355	273	94.77	0.015	0.01

System: water + magnesium chloride + magnesium tetraborate; phases: Liquid
Property: Mass density, kg/m3 (Liquid); method: Pycnometric method
Mass fraction of magnesium chloride	Mass fraction of magnesium tetraborate	Temperature, K	Pressure, kPa	Mass density, kg/m3	uncertainty
0.3381	0.0159	273	94.77	1325	20

System: water + magnesium chloride + magnesium tetraborate; phases: Liquid, Crystal of intercomponent compound 1
Property: Mass fraction of magnesium tetraborate (Liquid); method: Titration method
Mass fraction of magnesium chloride	Temperature, K	Pressure, kPa	Mass fraction of magnesium tetraborate	uncertainty
0.3381	273	94.77	0.0159	0.01

System: water + magnesium chloride + magnesium tetraborate; phases: Liquid, Crystal of intercomponent compound 2
Property: Mass fraction of magnesium tetraborate (Liquid); method: Titration method
Mass fraction of magnesium chloride	Temperature, K	Pressure, kPa	Mass fraction of magnesium tetraborate	uncertainty
0.3381	273	94.77	0.0159	0.01
