Measured thermophysical data. Measurement and Correlation of Solubilities of 5,5'-Dinitramino-3,3'-bi[1,2,4-triazolate] Carbohydrazide Salt (CBNT) in Various Pure Solvents and a Binary Mixture (Dimethyl Sulfoxide + Water) from 298.15 to 343.15 K
Source: J. Chem. Eng. Data, 2019, 10.1021/acs.jced.9b00275
Compound 1: 5,5'-dinitramino-3,3'-bi(1,2,4-triazolate) carbohydrazide salt, C5H10N14O5, InChI=1S/C4H4N10O4.CH6N4O/c15-13(16)11-3-5-1(7-9-3)2-6-4(10-8-2)12-14(17)18;2-4-1(6)5-3/h(H2,5,7,9,11)(H2,6,8,10,12);2-3H2,(H2,4,5,6)
Compound 2: ethanol, C2H6O, InChI=1S/C2H6O/c1-2-3/h3H,2H2,1H3, purity 99.5%
Compound 3: 1,2-ethanediol, C2H6O2, InChI=1S/C2H6O2/c3-1-2-4/h3-4H,1-2H2, purity 99.5%
Compound 4: acetone, C3H6O, InChI=1S/C3H6O/c1-3(2)4/h1-2H3, purity 99%
Compound 5: dimethylformamide, C3H7NO, InChI=1S/C3H7NO/c1-4(2)3-5/h3H,1-2H3, purity 99.5%
Compound 6: N-methylpyrrolidone, C5H9NO, InChI=1S/C5H9NO/c1-6-4-2-3-5(6)7/h2-4H2,1H3, purity 99.5%
Compound 7: dimethyl sulfoxide, C2H6OS, InChI=1S/C2H6OS/c1-4(2)3/h1-2H3, purity 99.5%
Compound 8: water, H2O, InChI=1S/H2O/h1H2, purity 99.9%
Compound 9: methanol, CH4O, InChI=1S/CH4O/c1-2/h2H,1H3, purity 99.5%
Compound 10: propan-2-ol, C3H8O, InChI=1S/C3H8O/c1-3(2)4/h3-4H,1-2H3, purity 99.5%
Compound 11: ethyl acetate, C4H8O2, InChI=1S/C4H8O2/c1-3-6-4(2)5/h3H2,1-2H3, purity 99.5%
Compound 12: 1,2-dichloroethane, C2H4Cl2, InChI=1S/C2H4Cl2/c3-1-2-4/h1-2H2, purity 99.5%

System: 5,5'-dinitramino-3,3'-bi(1,2,4-triazolate) carbohydrazide salt + water; phases: Liquid, Crystal
Fixed: Pressure, kPa = 100
Property: Mole fraction of 5,5'-dinitramino-3,3'-bi(1,2,4-triazolate) carbohydrazide salt (Liquid); method: gravimetric
Temperature, K	Mole fraction of 5,5'-dinitramino-3,3'-bi(1,2,4-triazolate) carbohydrazide salt	uncertainty
298.15	2.77e-05	8.3e-06
303.15	3.07e-05	9.2e-06
308.15	3.29e-05	9.9e-06
313.15	3.55e-05	1.07e-05
318.15	4.05e-05	1.22e-05
323.15	5.09e-05	1.53e-05
328.15	6.59e-05	1.98e-05
333.15	8.5e-05	2.55e-05
338.15	0.0001085	3.26e-05
343.15	0.0001434	4.3e-05

System: 5,5'-dinitramino-3,3'-bi(1,2,4-triazolate) carbohydrazide salt + dimethylformamide; phases: Liquid, Crystal
Fixed: Pressure, kPa = 100
Property: Mole fraction of 5,5'-dinitramino-3,3'-bi(1,2,4-triazolate) carbohydrazide salt (Liquid); method: gravimetric
Temperature, K	Mole fraction of 5,5'-dinitramino-3,3'-bi(1,2,4-triazolate) carbohydrazide salt	uncertainty
298.15	0.0004382	0.0001315
303.15	0.0005178	0.0001554
308.15	0.0006389	0.0001917
313.15	0.000775	0.0002325
318.15	0.0009885	0.0002966
323.15	0.0012114	0.0003635
328.15	0.0014428	0.0004329
333.15	0.001827	0.0005482
338.15	0.0022184	0.0006656
343.15	0.0026219	0.0007866

System: 5,5'-dinitramino-3,3'-bi(1,2,4-triazolate) carbohydrazide salt + ethanol; phases: Liquid, Crystal
Fixed: Pressure, kPa = 100
Property: Mole fraction of 5,5'-dinitramino-3,3'-bi(1,2,4-triazolate) carbohydrazide salt (Liquid); method: gravimetric
Temperature, K	Mole fraction of 5,5'-dinitramino-3,3'-bi(1,2,4-triazolate) carbohydrazide salt	uncertainty
298.15	5.7e-05	1.71e-05
303.15	0.0001011	3.03e-05
308.15	0.0001566	4.7e-05
313.15	0.000213	6.39e-05
318.15	0.000264	7.92e-05
323.15	0.0003202	9.61e-05
328.15	0.0003792	0.0001138
333.15	0.0004347	0.0001304
338.15	0.0005023	0.0001507
343.15	0.0005713	0.0001714

System: 5,5'-dinitramino-3,3'-bi(1,2,4-triazolate) carbohydrazide salt + N-methylpyrrolidone; phases: Liquid, Crystal
Fixed: Pressure, kPa = 100
Property: Mole fraction of 5,5'-dinitramino-3,3'-bi(1,2,4-triazolate) carbohydrazide salt (Liquid); method: gravimetric
Temperature, K	Mole fraction of 5,5'-dinitramino-3,3'-bi(1,2,4-triazolate) carbohydrazide salt	uncertainty
298.15	0.0001203	3.61e-05
303.15	0.0001907	5.72e-05
308.15	0.000299	8.97e-05
313.15	0.0004449	0.0001335
318.15	0.0007136	0.0002142
323.15	0.0010872	0.0003263
328.15	0.0016393	0.000492
333.15	0.0025679	0.0007706
338.15	0.0036404	0.0010925
343.15	0.0053343	0.0016007

System: 5,5'-dinitramino-3,3'-bi(1,2,4-triazolate) carbohydrazide salt + 1,2-ethanediol; phases: Liquid, Crystal
Fixed: Pressure, kPa = 100
Property: Mole fraction of 5,5'-dinitramino-3,3'-bi(1,2,4-triazolate) carbohydrazide salt (Liquid); method: gravimetric
Temperature, K	Mole fraction of 5,5'-dinitramino-3,3'-bi(1,2,4-triazolate) carbohydrazide salt	uncertainty
298.15	2.95e-05	8.9e-06
303.15	7.23e-05	2.17e-05
308.15	0.0001226	3.68e-05
313.15	0.0002251	6.76e-05
318.15	0.0003344	0.0001003
323.15	0.0004541	0.0001363
328.15	0.0005906	0.0001772
333.15	0.0007405	0.0002222
338.15	0.0009142	0.0002743
343.15	0.0010955	0.0003287

System: 5,5'-dinitramino-3,3'-bi(1,2,4-triazolate) carbohydrazide salt + dimethyl sulfoxide; phases: Liquid, Crystal
Fixed: Pressure, kPa = 100
Property: Mole fraction of 5,5'-dinitramino-3,3'-bi(1,2,4-triazolate) carbohydrazide salt (Liquid); method: gravimetric
Temperature, K	Mole fraction of 5,5'-dinitramino-3,3'-bi(1,2,4-triazolate) carbohydrazide salt	uncertainty
298.15	0.0477837	0.0143355
303.15	0.0495134	0.0148545
308.15	0.0523733	0.0157129
313.15	0.0617715	0.018533
318.15	0.0725483	0.0217666
323.15	0.0880311	0.026412
328.15	0.105141	0.0315457
333.15	0.1282923	0.0384917
338.15	0.1536735	0.0461064
343.15	0.182555	0.0547709

System: 5,5'-dinitramino-3,3'-bi(1,2,4-triazolate) carbohydrazide salt + acetone; phases: Liquid, Crystal
Fixed: Pressure, kPa = 100
Property: Mole fraction of 5,5'-dinitramino-3,3'-bi(1,2,4-triazolate) carbohydrazide salt (Liquid); method: gravimetric
Temperature, K	Mole fraction of 5,5'-dinitramino-3,3'-bi(1,2,4-triazolate) carbohydrazide salt	uncertainty
298.15	0.0001065	3.2e-05
303.15	0.0001465	4.4e-05
308.15	0.0002248	6.75e-05
313.15	0.0003373	0.0001012
318.15	0.0004829	0.0001449
323.15	0.0006854	0.0002057
328.15	0.0009157	0.0002748

System: 5,5'-dinitramino-3,3'-bi(1,2,4-triazolate) carbohydrazide salt + water + dimethyl sulfoxide; phases: Liquid, Crystal
Fixed: Pressure, kPa = 100
Property: Mole fraction of 5,5'-dinitramino-3,3'-bi(1,2,4-triazolate) carbohydrazide salt (Liquid); method: gravimetric
Temperature, K	Solvent: Mole fraction of water	Mole fraction of 5,5'-dinitramino-3,3'-bi(1,2,4-triazolate) carbohydrazide salt	uncertainty
298.15	0	0.0477837	0.0143355
303.15	0	0.0495134	0.0148545
308.15	0	0.0523733	0.0157129
313.15	0	0.0617715	0.018533
318.15	0	0.0725483	0.0217666
323.15	0	0.0880311	0.026412
328.15	0	0.105141	0.0315457
333.15	0	0.1282923	0.0384917
338.15	0	0.1536735	0.0461064
343.15	0	0.182555	0.0547709
298.15	0.172	0.0296641	0.0088995
303.15	0.172	0.031825	0.0095479
308.15	0.172	0.0342945	0.0102889
313.15	0.172	0.0396544	0.011897
318.15	0.172	0.0439559	0.0131877
323.15	0.172	0.0525588	0.0157692
328.15	0.172	0.062882	0.0188665
333.15	0.172	0.075786	0.022738
338.15	0.172	0.0904117	0.0271264
343.15	0.172	0.110198	0.0330635
298.15	0.3048	0.02056	0.0061683
303.15	0.3048	0.0220493	0.006615
308.15	0.3048	0.02352	0.0070563
313.15	0.3048	0.0252832	0.0075852
318.15	0.3048	0.02718	0.0081545
323.15	0.3048	0.0316771	0.0095039
328.15	0.3048	0.03689	0.0110679
333.15	0.3048	0.043622	0.0130878
338.15	0.3048	0.05207	0.0156227
343.15	0.3048	0.0635088	0.0190552
298.15	0.4105	0.0118105	0.0035432
303.15	0.4105	0.0125297	0.003759
308.15	0.4105	0.0132592	0.0039779
313.15	0.4105	0.0138334	0.0041502
318.15	0.4105	0.0148703	0.0044613
323.15	0.4105	0.0171273	0.0051385
328.15	0.4105	0.0197457	0.0059242
333.15	0.4105	0.023054	0.0069168
338.15	0.4105	0.0274841	0.0082461
343.15	0.4105	0.0333531	0.0100078
298.15	0.4966	0.0059566	0.0017873
303.15	0.4966	0.0062479	0.0018744
308.15	0.4966	0.0066125	0.0019838
313.15	0.4966	0.0069664	0.00209
318.15	0.4966	0.0076284	0.0022887
323.15	0.4966	0.0087992	0.00264
328.15	0.4966	0.010212	0.0030638
333.15	0.4966	0.0118584	0.0035578
338.15	0.4966	0.0141059	0.0042322
343.15	0.4966	0.0170318	0.005112
298.15	0.7246	0.0006004	0.0001814
303.15	0.7246	0.0006088	0.0001826
308.15	0.7246	0.0006218	0.0001865
313.15	0.7246	0.0006728	0.0002018
318.15	0.7246	0.0007112	0.0002134
323.15	0.7246	0.0008604	0.0002582
328.15	0.7246	0.0010788	0.0003237
333.15	0.7246	0.0012791	0.0003838
338.15	0.7246	0.0015233	0.000457
343.15	0.7246	0.0018289	0.0005528
298.15	0.8555	0.0001717	5.16e-05
303.15	0.8555	0.0001748	5.24e-05
308.15	0.8555	0.0001806	5.42e-05
313.15	0.8555	0.0001891	5.67e-05
318.15	0.8555	0.0002019	6.06e-05
323.15	0.8555	0.0002298	6.89e-05
328.15	0.8555	0.0002846	8.54e-05
333.15	0.8555	0.0003417	0.0001025
338.15	0.8555	0.000412	0.0001236
343.15	0.8555	0.0005022	0.0001509
298.15	1	2.77e-05	8.3e-06
303.15	1	3.07e-05	9.2e-06
308.15	1	3.29e-05	9.9e-06
313.15	1	3.55e-05	1.07e-05
318.15	1	4.05e-05	1.22e-05
323.15	1	5.09e-05	1.53e-05
328.15	1	6.59e-05	1.98e-05
333.15	1	8.5e-05	2.55e-05
338.15	1	0.0001085	3.26e-05
343.15	1	0.0001434	4.3e-05

System: 5,5'-dinitramino-3,3'-bi(1,2,4-triazolate) carbohydrazide salt + methanol; phases: Liquid, Crystal
Fixed: Pressure, kPa = 100
Property: Mole fraction of 5,5'-dinitramino-3,3'-bi(1,2,4-triazolate) carbohydrazide salt (Liquid); method: gravimetric
Temperature, K	Mole fraction of 5,5'-dinitramino-3,3'-bi(1,2,4-triazolate) carbohydrazide salt	uncertainty
298.15	0.000169	5.07e-05
303.15	0.0002201	6.6e-05
308.15	0.0002801	8.4e-05
313.15	0.0003364	0.0001009
318.15	0.000399	0.0001197
323.15	0.0004584	0.0001375
328.15	0.000522	0.0001566
333.15	0.000578	0.0001734
338.15	0.0006368	0.000191
343.15	0.0006872	0.0002062

System: 5,5'-dinitramino-3,3'-bi(1,2,4-triazolate) carbohydrazide salt + propan-2-ol; phases: Liquid, Crystal
Fixed: Pressure, kPa = 100
Property: Mole fraction of 5,5'-dinitramino-3,3'-bi(1,2,4-triazolate) carbohydrazide salt (Liquid); method: gravimetric
Temperature, K	Mole fraction of 5,5'-dinitramino-3,3'-bi(1,2,4-triazolate) carbohydrazide salt	uncertainty
298.15	4.66e-05	1.4e-05
303.15	5.04e-05	1.51e-05
308.15	5.4e-05	1.62e-05
313.15	6.55e-05	1.97e-05
318.15	7.66e-05	2.3e-05
323.15	9.62e-05	2.89e-05
328.15	0.0001156	3.47e-05
333.15	0.0001425	4.28e-05
338.15	0.0001694	5.08e-05
343.15	0.0002044	6.13e-05

System: 5,5'-dinitramino-3,3'-bi(1,2,4-triazolate) carbohydrazide salt + ethyl acetate; phases: Liquid, Crystal
Fixed: Pressure, kPa = 100
Property: Mole fraction of 5,5'-dinitramino-3,3'-bi(1,2,4-triazolate) carbohydrazide salt (Liquid); method: gravimetric
Temperature, K	Mole fraction of 5,5'-dinitramino-3,3'-bi(1,2,4-triazolate) carbohydrazide salt	uncertainty
298.15	2.96e-05	8.9e-06
303.15	3.23e-05	9.7e-06
308.15	3.54e-05	1.06e-05
313.15	3.96e-05	1.19e-05
318.15	4.95e-05	1.49e-05
323.15	5.46e-05	1.64e-05
328.15	6.95e-05	2.09e-05
333.15	8.26e-05	2.48e-05
338.15	0.0001066	3.2e-05
343.15	0.0001294	3.88e-05

System: 5,5'-dinitramino-3,3'-bi(1,2,4-triazolate) carbohydrazide salt + 1,2-dichloroethane; phases: Liquid, Crystal
Fixed: Pressure, kPa = 100
Property: Mole fraction of 5,5'-dinitramino-3,3'-bi(1,2,4-triazolate) carbohydrazide salt (Liquid); method: gravimetric
Temperature, K	Mole fraction of 5,5'-dinitramino-3,3'-bi(1,2,4-triazolate) carbohydrazide salt	uncertainty
298.15	1.8e-05	5.4e-06
303.15	1.91e-05	5.7e-06
308.15	2.16e-05	6.5e-06
313.15	2.41e-05	7.2e-06
318.15	2.78e-05	8.3e-06
323.15	3.46e-05	1.04e-05
328.15	4.3e-05	1.29e-05
333.15	5.23e-05	1.57e-05
338.15	6.43e-05	1.93e-05
343.15	7.9e-05	2.37e-05
