Measured thermophysical data. Solubility and Spectral Studies for SO2 in Binary System of Tri-ethylene Glycol + Dimethyl Sulfoxide at T = (298.15, 303.15, and 308.15) K and p = 123.15 kPa
Source: J. Chem. Eng. Data, 2016, 10.1021/acs.jced.5b00981
Compound 1: triethylene glycol, C6H14O4, InChI=1S/C6H14O4/c7-1-3-9-5-6-10-4-2-8/h7-8H,1-6H2, purity 99.3%
Compound 2: dimethyl sulfoxide, C2H6OS, InChI=1S/C2H6OS/c1-4(2)3/h1-2H3, purity 99%
Compound 3: sulfur dioxide, O2S, InChI=1S/O2S/c1-3-2

System: dimethyl sulfoxide + triethylene glycol + sulfur dioxide; phases: Gas, Liquid
Property: Partial pressure, kPa of sulfur dioxide (Gas); method: testo 350 flue gas analyzer
Temperature, K	Molality, mol/kg of sulfur dioxide	Solvent: Mass fraction of triethylene glycol	Partial pressure, kPa of sulfur dioxide	uncertainty
298.15	0.00079	1	0.0058	0.00059
298.15	0.00121	1	0.0094	0.00096
298.15	0.00156	1	0.0149	0.0015
298.15	0.00219	1	0.0211	0.0022
298.15	0.004	1	0.042	0.0043
298.15	0.00456	1	0.0496	0.0051
298.15	0.0052	1	0.061	0.0063
298.15	0.00568	1	0.0687	0.007
298.15	0.00657	1	0.073	0.0074
298.15	0.00732	1	0.0826	0.0084
298.15	0.0083	1	0.0936	0.0095
298.15	0.00935	1	0.106	0.011
298.15	0.01128	1	0.131	0.013
298.15	0.00146	0.8	0.0073	0.00075
298.15	0.00255	0.8	0.0154	0.0016
298.15	0.00351	0.8	0.0252	0.0026
298.15	0.00459	0.8	0.0342	0.0035
298.15	0.0073	0.8	0.0524	0.0053
298.15	0.00822	0.8	0.0609	0.0062
298.15	0.00975	0.8	0.0696	0.0071
298.15	0.01119	0.8	0.0803	0.0082
298.15	0.01271	0.8	0.0909	0.0092
298.15	0.01441	0.8	0.103	0.01
298.15	0.0162	0.8	0.112	0.011
298.15	0.01879	0.8	0.133	0.014
298.15	0.00134	0.7	0.00554	0.00057
298.15	0.00339	0.7	0.0176	0.0018
298.15	0.00858	0.7	0.047	0.0048
298.15	0.01049	0.7	0.057	0.0058
298.15	0.01174	0.7	0.064	0.0065
298.15	0.01318	0.7	0.0716	0.0073
298.15	0.01479	0.7	0.0782	0.0079
298.15	0.01658	0.7	0.0886	0.009
298.15	0.01658	0.7	0.0886	0.009
298.15	0.01829	0.7	0.099	0.0101
298.15	0.02142	0.7	0.112	0.011
298.15	0.02357	0.7	0.121	0.012
298.15	0.02608	0.7	0.136	0.014
298.15	0.00252	0.6	0.0114	0.0012
298.15	0.0039	0.6	0.0176	0.0018
298.15	0.00612	0.6	0.0276	0.0028
298.15	0.00793	0.6	0.0346	0.0035
298.15	0.00999	0.6	0.0435	0.0044
303.15	0.00088	1	0.00618	0.00064
303.15	0.00142	1	0.0145	0.0015
303.15	0.0022	1	0.0243	0.0025
303.15	0.00282	1	0.0333	0.0034
303.15	0.00395	1	0.0502	0.0051
303.15	0.00507	1	0.0668	0.0068
303.15	0.00647	1	0.0874	0.0089
303.15	0.00788	1	0.106	0.011
303.15	0.00914	1	0.122	0.012
303.15	0.00976	1	0.131	0.013
303.15	0.00247	0.8	0.0143	0.0015
303.15	0.00371	0.8	0.025	0.0026
303.15	0.00469	0.8	0.038	0.0039
303.15	0.00574	0.8	0.0482	0.0049
303.15	0.00732	0.8	0.0621	0.0063
303.15	0.00889	0.8	0.0738	0.0075
303.15	0.01051	0.8	0.0884	0.009
303.15	0.0115	0.8	0.0984	0.01
303.15	0.01284	0.8	0.112	0.011
303.15	0.0141	0.8	0.125	0.013
303.15	0.00139	0.7	0.00805	0.00082
303.15	0.00228	0.7	0.0149	0.0015
303.15	0.00342	0.7	0.0236	0.0024
303.15	0.00524	0.7	0.0363	0.0037
303.15	0.00653	0.7	0.0453	0.0046
303.15	0.00776	0.7	0.055	0.0056
303.15	0.00962	0.7	0.0669	0.0068
303.15	0.0116	0.7	0.0801	0.0082
303.15	0.01313	0.7	0.0926	0.0094
303.15	0.0152	0.7	0.105	0.011
303.15	0.01709	0.7	0.116	0.012
303.15	0.0188	0.7	0.128	0.013
303.15	0.00189	0.6	0.00866	0.00088
303.15	0.00469	0.6	0.0228	0.0023
303.15	0.00613	0.6	0.031	0.0032
303.15	0.00856	0.6	0.0432	0.0044
303.15	0.01118	0.6	0.0579	0.0059
303.15	0.01415	0.6	0.0716	0.0073
303.15	0.01722	0.6	0.0859	0.0087
303.15	0.01947	0.6	0.0977	0.0099
308.15	0.00038	1	0.0052	0.00053
308.15	0.00117	1	0.0172	0.0018
308.15	0.00179	1	0.0291	0.003
308.15	0.0027	1	0.0433	0.0044
308.15	0.00338	1	0.0547	0.0056
308.15	0.00449	1	0.0689	0.007
308.15	0.00534	1	0.0852	0.0087
308.15	0.00589	1	0.0995	0.0101
308.15	0.0069	1	0.111	0.011
308.15	0.00796	1	0.13	0.013
308.15	0.00141	0.8	0.0159	0.0016
308.15	0.00243	0.8	0.0274	0.0028
308.15	0.00365	0.8	0.039	0.004
308.15	0.00535	0.8	0.0544	0.0055
308.15	0.0072	0.8	0.0733	0.0075
308.15	0.00815	0.8	0.086	0.0088
308.15	0.00983	0.8	0.104	0.011
308.15	0.01172	0.8	0.12	0.012
308.15	0.01262	0.8	0.131	0.013
308.15	0.00202	0.7	0.0184	0.0019
308.15	0.00341	0.7	0.0297	0.003
308.15	0.00456	0.7	0.0407	0.0041
308.15	0.00454	0.7	0.0407	0.0041
308.15	0.00607	0.7	0.0534	0.0054
308.15	0.00939	0.7	0.08	0.0081
308.15	0.01111	0.7	0.0948	0.0096
308.15	0.01264	0.7	0.109	0.011
308.15	0.01563	0.7	0.133	0.014
308.15	0.00315	0.6	0.0271	0.0027
308.15	0.00439	0.6	0.0351	0.0036
308.15	0.00562	0.6	0.0409	0.0042
308.15	0.00666	0.6	0.051	0.0052
308.15	0.00808	0.6	0.0586	0.0059
308.15	0.01005	0.6	0.0713	0.0072
308.15	0.01177	0.6	0.0801	0.0081

System: triethylene glycol + sulfur dioxide; phases: Gas, Liquid
Property: Partial pressure, kPa of sulfur dioxide (Gas); method: testo 350 flue gas analyzer
Temperature, K	Molality, mol/kg of sulfur dioxide	Partial pressure, kPa of sulfur dioxide	uncertainty
298.15	0.00079	0.0058	0.00059
298.15	0.00121	0.0094	0.00096
298.15	0.00156	0.0149	0.0015
298.15	0.00219	0.0211	0.0022
298.15	0.004	0.042	0.0043
298.15	0.00456	0.0496	0.0051
298.15	0.0052	0.061	0.0063
298.15	0.00568	0.0687	0.007
298.15	0.00657	0.073	0.0074
298.15	0.00732	0.0826	0.0084
298.15	0.0083	0.0936	0.0095
298.15	0.00935	0.106	0.011
298.15	0.01128	0.131	0.013
303.15	0.00088	0.00618	0.00064
303.15	0.00142	0.0145	0.0015
303.15	0.0022	0.0243	0.0025
303.15	0.00282	0.0333	0.0034
303.15	0.00395	0.0502	0.0051
303.15	0.00507	0.0668	0.0068
303.15	0.00647	0.0874	0.0089
303.15	0.00788	0.106	0.011
303.15	0.00914	0.122	0.012
303.15	0.00976	0.131	0.013
308.15	0.00038	0.0052	0.00053
308.15	0.00117	0.0172	0.0018
308.15	0.00179	0.0291	0.003
308.15	0.0027	0.0433	0.0044
308.15	0.00338	0.0547	0.0056
308.15	0.00449	0.0689	0.007
308.15	0.00534	0.0852	0.0087
308.15	0.00589	0.0995	0.0101
308.15	0.0069	0.111	0.011
308.15	0.00796	0.13	0.013
