Measured thermophysical data. Synergistic Extraction of Hydroquinone from Aqueous Solution with Solvent Mixture of 2-Pentanone and n-Pentanol: Liquid-Liquid Equilibria and Data Correlation
Source: J. Chem. Eng. Data, 2018, 10.1021/acs.jced.8b00660
Compound 1: pentan-1-ol, C5H12O, InChI=1S/C5H12O/c1-2-3-4-5-6/h6H,2-5H2,1H3, purity 99%
Compound 2: water, H2O, InChI=1S/H2O/h1H2, purity 99.9%

System: pentan-1-ol + water; phases: Liquid mixture 1, Liquid mixture 2
Property: Mass fraction of pentan-1-ol (Liquid mixture 1); method: Chromatography
Temperature, K	Pressure, kPa	Mass fraction of pentan-1-ol	uncertainty
298.2	101	0.0208	0.0042

System: pentan-1-ol + water; phases: Liquid mixture 2, Liquid mixture 1
Property: Mass fraction of water (Liquid mixture 2); method: Chromatography
Temperature, K	Pressure, kPa	Mass fraction of water	uncertainty
298.2	101	0.1075	0.0043
