Measured thermophysical data. Solubility Measurement and Phase Equilibrium Modeling of 2-Aminobenzamide in 15 Pure Solvents
Source: J. Chem. Eng. Data, 2019, 10.1021/acs.jced.9b00350
Compound 1: anthranilamide, C7H8N2O, InChI=1S/C7H8N2O/c8-6-4-2-1-3-5(6)7(9)10/h1-4H,8H2,(H2,9,10), purity 98%
Compound 2: 4-iodoaniline, C6H6IN, InChI=1S/C6H6IN/c7-5-1-3-6(8)4-2-5/h1-4H,8H2, purity 98%
Compound 3: methanol, CH4O, InChI=1S/CH4O/c1-2/h2H,1H3, purity 99.5%
Compound 4: ethanol, C2H6O, InChI=1S/C2H6O/c1-2-3/h3H,2H2,1H3, purity 99.7%
Compound 5: acetone, C3H6O, InChI=1S/C3H6O/c1-3(2)4/h1-2H3, purity 99.5%
Compound 6: ethyl acetate, C4H8O2, InChI=1S/C4H8O2/c1-3-6-4(2)5/h3H2,1-2H3, purity 99.5%
Compound 7: 3-methylbutan-1-ol, C5H12O, InChI=1S/C5H12O/c1-5(2)3-4-6/h5-6H,3-4H2,1-2H3, purity 98.5%
Compound 8: 2-methyl-1-propanol, C4H10O, InChI=1S/C4H10O/c1-4(2)3-5/h4-5H,3H2,1-2H3, purity 99.5%
Compound 9: hexan-1-ol, C6H14O, InChI=1S/C6H14O/c1-2-3-4-5-6-7/h7H,2-6H2,1H3, purity 99%
Compound 10: acetonitrile, C2H3N, InChI=1S/C2H3N/c1-2-3/h1H3, purity 99.5%
Compound 11: propan-1-ol, C3H8O, InChI=1S/C3H8O/c1-2-3-4/h4H,2-3H2,1H3, purity 99.5%
Compound 12: butan-1-ol, C4H10O, InChI=1S/C4H10O/c1-2-3-4-5/h5H,2-4H2,1H3, purity 99%
Compound 13: tetrahydrofuran, C4H8O, InChI=1S/C4H8O/c1-2-4-5-3-1/h1-4H2, purity 99%
Compound 14: propan-2-ol, C3H8O, InChI=1S/C3H8O/c1-3(2)4/h3-4H,1-2H3, purity 99.9%
Compound 15: octan-1-ol, C8H18O, InChI=1S/C8H18O/c1-2-3-4-5-6-7-8-9/h9H,2-8H2,1H3, purity 99%
Compound 16: methyl ethanoate, C3H6O2, InChI=1S/C3H6O2/c1-3(4)5-2/h1-2H3, purity 99.5%
Compound 17: pentan-1-ol, C5H12O, InChI=1S/C5H12O/c1-2-3-4-5-6/h6H,2-5H2,1H3, purity 99.5%

System: anthranilamide; phases: Crystal, Liquid, Air at 1 atmosphere
Property: Triple point temperature, K (Crystal); method: DSC
Triple point temperature, K	uncertainty
383.65	0.93

System: anthranilamide; phases: Crystal, Liquid, Air at 1 atmosphere
Property: Molar enthalpy of transition or fusion, kJ/mol (Crystal); method: DSC
Molar enthalpy of transition or fusion, kJ/mol	uncertainty
21.9	0.7

System: 4-iodoaniline + methanol; phases: Liquid, Crystal
Fixed: Pressure, kPa = 100
Property: Mole fraction of 4-iodoaniline (Liquid); method: gravimetric
Temperature, K	Mole fraction of 4-iodoaniline	uncertainty
277.65	0.0923	0.0185
282.55	0.1117	0.0223
287.7	0.1266	0.0253
292.05	0.1534	0.0307
297.95	0.1958	0.0392
303.35	0.2677	0.0536
305.15	0.2869	0.0574
311.55	0.3974	0.0795
319.25	0.4849	0.097

System: anthranilamide + methanol; phases: Liquid, Crystal
Fixed: Pressure, kPa = 100
Property: Mole fraction of anthranilamide (Liquid); method: gravimetric
Temperature, K	Mole fraction of anthranilamide	uncertainty
273.15	0.05	0.00251
279.15	0.06041	0.00303
284.15	0.06841	0.00343
289.15	0.07977	0.004
293.35	0.09046	0.00454
298.95	0.1065	0.0053
303.35	0.1231	0.0062
308.65	0.1484	0.0074
313.15	0.1702	0.0085
317.15	0.1896	0.0095
324.15	0.2291	0.0115

System: anthranilamide + ethanol; phases: Liquid, Crystal
Fixed: Pressure, kPa = 100
Property: Mole fraction of anthranilamide (Liquid); method: gravimetric
Temperature, K	Mole fraction of anthranilamide	uncertainty
273.15	0.03025	0.00152
279.15	0.03557	0.00178
284.15	0.04003	0.00201
289.15	0.04767	0.00239
293.35	0.05539	0.00278
298.95	0.06478	0.00325
303.35	0.07422	0.00372
308.65	0.0895	0.00449
313.15	0.1051	0.0053
317.15	0.1168	0.0059
324.15	0.1432	0.0072

System: anthranilamide + propan-1-ol; phases: Liquid, Crystal
Fixed: Pressure, kPa = 100
Property: Mole fraction of anthranilamide (Liquid); method: gravimetric
Temperature, K	Mole fraction of anthranilamide	uncertainty
273.15	0.01926	0.00097
279.15	0.02325	0.00117
284.15	0.02696	0.00135
289.15	0.03143	0.00158
293.35	0.03634	0.00182
298.95	0.04345	0.00218
303.35	0.05132	0.00258
308.65	0.06259	0.00314
313.15	0.07278	0.00365
317.15	0.08418	0.00422
324.15	0.1053	0.0053

System: anthranilamide + propan-2-ol; phases: Liquid, Crystal
Fixed: Pressure, kPa = 100
Property: Mole fraction of anthranilamide (Liquid); method: gravimetric
Temperature, K	Mole fraction of anthranilamide	uncertainty
273.15	0.01452	0.00073
279.15	0.01821	0.00091
284.15	0.02156	0.00108
289.15	0.0253	0.00127
293.35	0.02974	0.00149
298.95	0.0355	0.00178
303.35	0.04203	0.00211
308.65	0.05049	0.00253
313.15	0.05931	0.00297
317.15	0.06759	0.00339
324.15	0.08438	0.00423

System: anthranilamide + butan-1-ol; phases: Liquid, Crystal
Fixed: Pressure, kPa = 100
Property: Mole fraction of anthranilamide (Liquid); method: gravimetric
Temperature, K	Mole fraction of anthranilamide	uncertainty
273.15	0.01619	0.00081
279.15	0.01985	0.001
284.15	0.02317	0.00116
289.15	0.02683	0.00135
293.35	0.03116	0.00156
298.95	0.03618	0.00181
303.35	0.04228	0.00212
308.65	0.04921	0.00247
313.15	0.05792	0.0029
317.15	0.06503	0.00326
324.15	0.07883	0.00395

System: anthranilamide + 2-methyl-1-propanol; phases: Liquid, Crystal
Fixed: Pressure, kPa = 100
Property: Mole fraction of anthranilamide (Liquid); method: gravimetric
Temperature, K	Mole fraction of anthranilamide	uncertainty
273.15	0.01008	0.00051
279.15	0.01301	0.00065
284.15	0.01529	0.00077
289.15	0.01765	0.00089
293.35	0.02108	0.00106
298.95	0.02608	0.00131
303.35	0.03007	0.00151
308.65	0.03691	0.00185
313.15	0.04405	0.00221
317.15	0.0504	0.00253
324.15	0.06288	0.00315

System: anthranilamide + pentan-1-ol; phases: Liquid, Crystal
Fixed: Pressure, kPa = 100
Property: Mole fraction of anthranilamide (Liquid); method: gravimetric
Temperature, K	Mole fraction of anthranilamide	uncertainty
273.15	0.01524	0.00076
279.15	0.0183	0.00092
284.15	0.02067	0.00104
289.15	0.02434	0.00122
293.35	0.02761	0.00138
298.95	0.03259	0.00163
303.35	0.03792	0.0019
308.65	0.04405	0.00221
313.15	0.05142	0.00258
317.15	0.05787	0.0029
324.15	0.07035	0.00353

System: anthranilamide + acetone; phases: Liquid, Crystal
Fixed: Pressure, kPa = 100
Property: Mole fraction of anthranilamide (Liquid); method: gravimetric
Temperature, K	Mole fraction of anthranilamide	uncertainty
273.15	0.1642	0.0082
279.15	0.1814	0.0091
284.15	0.1934	0.0097
289.15	0.2078	0.0104
293.35	0.2227	0.0112
298.95	0.243	0.0122
303.35	0.2653	0.0133
308.65	0.2919	0.0146
313.15	0.313	0.0157
317.15	0.3408	0.0171
324.15	0.3863	0.0193

System: anthranilamide + ethyl acetate; phases: Liquid, Crystal
Fixed: Pressure, kPa = 100
Property: Mole fraction of anthranilamide (Liquid); method: gravimetric
Temperature, K	Mole fraction of anthranilamide	uncertainty
273.15	0.053	0.00266
279.15	0.06078	0.00304
284.15	0.0684	0.00343
289.15	0.07776	0.0039
293.35	0.08555	0.00429
298.95	0.09765	0.00489
303.35	0.1078	0.0054
308.65	0.1233	0.0062
313.15	0.1344	0.0067
317.15	0.1536	0.0077
324.15	0.1691	0.0085

System: anthranilamide + acetonitrile; phases: Liquid, Crystal
Fixed: Pressure, kPa = 100
Property: Mole fraction of anthranilamide (Liquid); method: gravimetric
Temperature, K	Mole fraction of anthranilamide	uncertainty
273.15	0.01002	0.00051
279.15	0.01388	0.0007
284.15	0.01945	0.00098
289.15	0.02666	0.00135
293.35	0.03714	0.00188
298.95	0.05311	0.00267
303.35	0.06596	0.00332
308.65	0.0871	0.00438
313.15	0.111	0.0056
317.15	0.1514	0.0076
324.15	0.1828	0.0092

System: anthranilamide + tetrahydrofuran; phases: Liquid, Crystal
Fixed: Pressure, kPa = 100
Property: Mole fraction of anthranilamide (Liquid); method: gravimetric
Temperature, K	Mole fraction of anthranilamide	uncertainty
273.15	0.2263	0.0113
279.15	0.2369	0.0119
284.15	0.2451	0.0123
289.15	0.2547	0.0127
293.35	0.2631	0.0132
298.95	0.275	0.0138
303.35	0.2839	0.0142
308.65	0.2964	0.0148
313.15	0.3097	0.0155
317.15	0.3255	0.0163
324.15	0.3389	0.017

System: anthranilamide + 3-methylbutan-1-ol; phases: Liquid, Crystal
Fixed: Pressure, kPa = 100
Property: Mole fraction of anthranilamide (Liquid); method: gravimetric
Temperature, K	Mole fraction of anthranilamide	uncertainty
273.15	0.01172	0.00059
279.15	0.01405	0.0007
284.15	0.01516	0.00076
289.15	0.01813	0.00091
293.35	0.02168	0.00109
298.95	0.02735	0.00137
303.35	0.03116	0.00156
308.65	0.03906	0.00196
313.15	0.04578	0.0023
317.15	0.05497	0.00276
324.15	0.06468	0.00324

System: anthranilamide + hexan-1-ol; phases: Liquid, Crystal
Fixed: Pressure, kPa = 100
Property: Mole fraction of anthranilamide (Liquid); method: gravimetric
Temperature, K	Mole fraction of anthranilamide	uncertainty
273.15	0.0141	0.00071
279.15	0.01661	0.00083
284.15	0.01738	0.00087
289.15	0.02163	0.00109
293.35	0.02457	0.00123
298.95	0.02974	0.00149
303.35	0.03403	0.00171
308.65	0.04066	0.00204
313.15	0.04683	0.00235
317.15	0.05567	0.00279
324.15	0.06409	0.00321

System: anthranilamide + octan-1-ol; phases: Liquid, Crystal
Fixed: Pressure, kPa = 100
Property: Mole fraction of anthranilamide (Liquid); method: gravimetric
Temperature, K	Mole fraction of anthranilamide	uncertainty
273.15	0.01432	0.00072
279.15	0.01586	0.00079
284.15	0.01759	0.00088
289.15	0.0206	0.00103
293.35	0.02349	0.00118
298.95	0.02751	0.00138
303.35	0.03161	0.00159
308.65	0.03765	0.00189
313.15	0.04336	0.00218
317.15	0.05051	0.00253
324.15	0.0582	0.00291

System: anthranilamide + methyl ethanoate; phases: Liquid, Crystal
Fixed: Pressure, kPa = 100
Property: Mole fraction of anthranilamide (Liquid); method: gravimetric
Temperature, K	Mole fraction of anthranilamide	uncertainty
273.15	0.06441	0.00323
279.15	0.07228	0.00362
284.15	0.0797	0.00399
289.15	0.08921	0.00447
293.35	0.1002	0.005
298.95	0.1139	0.0057
303.35	0.1274	0.0064
308.65	0.1444	0.0072
313.15	0.1634	0.0082
317.15	0.1862	0.0093
324.15	0.2085	0.0104
