Measured thermophysical data. Potentiometric Investigation of the Thermodynamic Properties of Mixed Electrolyte Systems at 298.2 K: CsF + CsBr + H2O and CsF + CsNO3 + H2O
Source: J. Chem. Eng. Data, 2018, 10.1021/acs.jced.8b00383
Compound 1: cesium fluoride (CsF), CsF, InChI=1S/Cs.FH/h;1H/q+1;/p-1, purity 99%
Compound 2: cesium bromide, BrCs, InChI=1S/BrH.Cs/h1H;/q;+1/p-1, purity 99%
Compound 3: water, H2O, InChI=1S/H2O/h1H2, purity 99.8%
Compound 4: cesium nitrate, CsNO3, InChI=1S/Cs.NO3/c;2-1(3)4/q+1;-1, purity 99%

System: cesium fluoride (CsF) + cesium bromide + water; phases: Liquid
Fixed: Temperature, K = 298.2
Fixed: Pressure, kPa = 100
Property: Mean ionic activity coefficient of cesium fluoride (CsF) (Liquid); method: Calculated from EMF cell potential
Molality, mol/kg of cesium fluoride (CsF)	Molality, mol/kg of cesium bromide	Mean ionic activity coefficient of cesium fluoride (CsF)	uncertainty
0.002	0	0.952	0.027
0.0041	0	0.934	0.027
0.0062	0	0.921	0.027
0.0105	0	0.901	0.027
0.0149	0	0.886	0.028
0.0194	0	0.874	0.028
0.0308	0	0.851	0.028
0.04	0	0.836	0.028
0.0602	0	0.813	0.028
0.1206	0	0.773	0.028
0.1993	0	0.746	0.029
0.3	0	0.728	0.029
0.3997	0	0.718	0.029
0.4995	0	0.713	0.029
0.5992	0	0.711	0.029
0.6998	0	0.711	0.029
0.0102	0.0071	0.895	0.027
0.0294	0.0206	0.852	0.028
0.0603	0.0422	0.814	0.028
0.1205	0.0844	0.769	0.028
0.1998	0.1399	0.735	0.029
0.3	0.21	0.71	0.029
0.3996	0.2797	0.691	0.029
0.4999	0.3499	0.68	0.029
0.6	0.42	0.67	0.029
0.7001	0.4901	0.662	0.029
0.01	0.004	0.888	0.028
0.0305	0.0122	0.839	0.028
0.0594	0.0238	0.801	0.028
0.1197	0.0479	0.754	0.028
0.1997	0.0799	0.717	0.029
0.3002	0.1201	0.686	0.029
0.4	0.16	0.666	0.029
0.4998	0.1999	0.65	0.029
0.6	0.24	0.637	0.029
0.6998	0.2799	0.626	0.029
0.01	0.001	0.882	0.028
0.0293	0.0029	0.833	0.028
0.0603	0.006	0.791	0.028
0.1198	0.012	0.744	0.029
0.1997	0.02	0.702	0.029
0.2997	0.03	0.671	0.029
0.3998	0.04	0.649	0.029
0.5004	0.05	0.63	0.029
0.6001	0.06	0.613	0.03
0.7001	0.07	0.601	0.03

System: cesium fluoride (CsF) + cesium bromide + water; phases: Liquid
Fixed: Temperature, K = 298.2
Fixed: Pressure, kPa = 100
Property: Mean ionic activity coefficient of cesium bromide (Liquid); method: Calculated from EMF cell potential
Molality, mol/kg of cesium fluoride (CsF)	Molality, mol/kg of cesium bromide	Mean ionic activity coefficient of cesium bromide	uncertainty
0.0102	0.0071	0.898	0.027
0.0294	0.0206	0.842	0.028
0.0603	0.0422	0.793	0.028
0.1205	0.0844	0.738	0.029
0.1998	0.1399	0.693	0.029
0.3	0.21	0.654	0.029
0.3996	0.2797	0.626	0.029
0.4999	0.3499	0.603	0.03
0.6	0.42	0.583	0.03
0.7001	0.4901	0.565	0.03
0.01	0.004	0.898	0.027
0.0305	0.0122	0.838	0.028
0.0594	0.0238	0.792	0.028
0.1197	0.0479	0.735	0.029
0.1997	0.0799	0.689	0.029
0.3002	0.1201	0.649	0.029
0.4	0.16	0.621	0.03
0.4998	0.1999	0.598	0.03
0.6	0.24	0.578	0.03
0.6998	0.2799	0.562	0.03
0.01	0.001	0.897	0.027
0.0293	0.0029	0.839	0.028
0.0603	0.006	0.788	0.028
0.1198	0.012	0.731	0.029
0.1997	0.02	0.685	0.029
0.2997	0.03	0.646	0.029
0.3998	0.04	0.617	0.03
0.5004	0.05	0.595	0.03
0.6001	0.06	0.577	0.03
0.7001	0.07	0.562	0.03

System: cesium fluoride (CsF) + cesium nitrate + water; phases: Liquid
Fixed: Temperature, K = 298.2
Fixed: Pressure, kPa = 100
Property: Mean ionic activity coefficient of cesium fluoride (CsF) (Liquid); method: Calculated from EMF cell potential
Molality, mol/kg of cesium fluoride (CsF)	Molality, mol/kg of cesium nitrate	Mean ionic activity coefficient of cesium fluoride (CsF)	uncertainty
0.0016	0	0.957	0.027
0.0031	0	0.941	0.027
0.005	0	0.928	0.027
0.0106	0	0.901	0.027
0.0145	0	0.887	0.028
0.0204	0	0.872	0.028
0.0302	0	0.852	0.028
0.0401	0	0.836	0.028
0.0599	0	0.814	0.028
0.1193	0	0.774	0.028
0.2002	0	0.746	0.029
0.2999	0	0.728	0.029
0.3998	0	0.718	0.029
0.5002	0	0.713	0.029
0.6	0	0.711	0.029
0.7	0	0.711	0.029
0.007	0.003	0.896	0.027
0.0213	0.0091	0.853	0.028
0.042	0.018	0.816	0.028
0.0852	0.0365	0.772	0.028
0.1399	0.06	0.736	0.029
0.2099	0.09	0.699	0.029
0.2801	0.12	0.669	0.029
0.35	0.15	0.647	0.029
0.4199	0.18	0.629	0.029
0.4901	0.21	0.614	0.03
0.004	0.006	0.894	0.027
0.012	0.0179	0.852	0.028
0.0241	0.0361	0.814	0.028
0.0479	0.0719	0.769	0.028
0.08	0.12	0.721	0.029
0.1199	0.1798	0.675	0.029
0.16	0.2401	0.641	0.029
0.2	0.3	0.609	0.03
0.24	0.3599	0.584	0.03
0.28	0.42	0.563	0.03
0.001	0.0088	0.892	0.027
0.003	0.0271	0.851	0.028
0.006	0.0539	0.809	0.028
0.012	0.1079	0.761	0.028
0.02	0.18	0.704	0.029
0.03	0.2702	0.65	0.029
0.04	0.3598	0.609	0.03
0.05	0.4498	0.576	0.03
0.06	0.5401	0.547	0.03
0.07	0.6301	0.524	0.03

System: cesium fluoride (CsF) + cesium nitrate + water; phases: Liquid
Fixed: Temperature, K = 298.2
Fixed: Pressure, kPa = 100
Property: Mean ionic activity coefficient of cesium nitrate (Liquid); method: Calculated from EMF cell potential
Molality, mol/kg of cesium fluoride (CsF)	Molality, mol/kg of cesium nitrate	Mean ionic activity coefficient of cesium nitrate	uncertainty
0.007	0.003	0.897	0.027
0.0213	0.0091	0.836	0.028
0.042	0.018	0.786	0.028
0.0852	0.0365	0.723	0.029
0.1399	0.06	0.67	0.029
0.2099	0.09	0.619	0.03
0.2801	0.12	0.576	0.03
0.35	0.15	0.538	0.03
0.4199	0.18	0.502	0.03
0.4901	0.21	0.467	0.031
0.004	0.006	0.896	0.027
0.012	0.0179	0.834	0.028
0.0241	0.0361	0.78	0.028
0.0479	0.0719	0.715	0.029
0.08	0.12	0.658	0.029
0.1199	0.1798	0.604	0.03
0.16	0.2401	0.561	0.03
0.2	0.3	0.523	0.03
0.24	0.3599	0.488	0.031
0.28	0.42	0.455	0.031
0.001	0.0088	0.896	0.027
0.003	0.0271	0.83	0.028
0.006	0.0539	0.775	0.028
0.012	0.1079	0.707	0.029
0.02	0.18	0.648	0.029
0.03	0.2702	0.595	0.03
0.04	0.3598	0.554	0.03
0.05	0.4498	0.52	0.03
0.06	0.5401	0.491	0.031
0.07	0.6301	0.464	0.031

System: cesium fluoride (CsF) + water; phases: Liquid
Fixed: Temperature, K = 298.2
Fixed: Pressure, kPa = 100
Property: Mean ionic activity coefficient of cesium fluoride (CsF) (Liquid); method: Calculated from EMF cell potential
Molality, mol/kg of cesium fluoride (CsF)	Mean ionic activity coefficient of cesium fluoride (CsF)	uncertainty
0.002	0.952	0.027
0.0041	0.934	0.027
0.0062	0.921	0.027
0.0105	0.901	0.027
0.0149	0.886	0.028
0.0194	0.874	0.028
0.0308	0.851	0.028
0.04	0.836	0.028
0.0602	0.813	0.028
0.1206	0.773	0.028
0.1993	0.746	0.029
0.3	0.728	0.029
0.3997	0.718	0.029
0.4995	0.713	0.029
0.5992	0.711	0.029
0.6998	0.711	0.029
0.0016	0.957	0.027
0.0031	0.941	0.027
0.005	0.928	0.027
0.0106	0.901	0.027
0.0145	0.887	0.028
0.0204	0.872	0.028
0.0302	0.852	0.028
0.0401	0.836	0.028
0.0599	0.814	0.028
0.1193	0.774	0.028
0.2002	0.746	0.029
0.2999	0.728	0.029
0.3998	0.718	0.029
0.5002	0.713	0.029
0.6	0.711	0.029
0.7	0.711	0.029
