Measured thermophysical data. Determination and Correlation of Solubilities of 1,3,5-Trifluoro-2,4,6-triiodobenzene in Different Solvents from 289.25 to 332.15 K
Source: J. Chem. Eng. Data, 2019, 10.1021/acs.jced.9b00381
Compound 1: 1,3,5-trifluoro-2,4,6-triiodobenzene, C6F3I3, InChI=1S/C6F3I3/c7-1-4(10)2(8)6(12)3(9)5(1)11, purity 97%
Compound 2: methanol, CH4O, InChI=1S/CH4O/c1-2/h2H,1H3, purity 99%
Compound 3: ethanol, C2H6O, InChI=1S/C2H6O/c1-2-3/h3H,2H2,1H3, purity 99%
Compound 4: acetone, C3H6O, InChI=1S/C3H6O/c1-3(2)4/h1-2H3, purity 99%
Compound 5: toluene, C7H8, InChI=1S/C7H8/c1-7-5-3-2-4-6-7/h2-6H,1H3, purity 99%
Compound 6: ethyl acetate, C4H8O2, InChI=1S/C4H8O2/c1-3-6-4(2)5/h3H2,1-2H3, purity 99%
Compound 7: acetonitrile, C2H3N, InChI=1S/C2H3N/c1-2-3/h1H3, purity 99%
Compound 8: tetrahydrofuran, C4H8O, InChI=1S/C4H8O/c1-2-4-5-3-1/h1-4H2, purity 99%
Compound 9: propan-1-ol, C3H8O, InChI=1S/C3H8O/c1-2-3-4/h4H,2-3H2,1H3, purity 99%
Compound 10: propan-2-ol, C3H8O, InChI=1S/C3H8O/c1-3(2)4/h3-4H,1-2H3, purity 99%
Compound 11: hexane, C6H14, InChI=1S/C6H14/c1-3-5-6-4-2/h3-6H2,1-2H3, purity 99%
Compound 12: 1,4-dioxane, C4H8O2, InChI=1S/C4H8O2/c1-2-6-4-3-5-1/h1-4H2, purity 99%
Compound 13: 1,2-dichloroethane, C2H4Cl2, InChI=1S/C2H4Cl2/c3-1-2-4/h1-2H2, purity 99%

System: 1,3,5-trifluoro-2,4,6-triiodobenzene; phases: Crystal, Liquid, Air at 1 atmosphere
Property: Triple point temperature, K (Crystal); method: DSC
Triple point temperature, K	uncertainty
424.01	1

System: 1,3,5-trifluoro-2,4,6-triiodobenzene; phases: Crystal, Liquid, Air at 1 atmosphere
Property: Molar enthalpy of transition or fusion, kJ/mol (Crystal); method: DSC
Molar enthalpy of transition or fusion, kJ/mol	uncertainty
13.5	0.44

System: 1,3,5-trifluoro-2,4,6-triiodobenzene + methanol; phases: Liquid, Crystal
Fixed: Pressure, kPa = 100
Property: Mole fraction of 1,3,5-trifluoro-2,4,6-triiodobenzene (Liquid); method: Titration method
Temperature, K	Mole fraction of 1,3,5-trifluoro-2,4,6-triiodobenzene	uncertainty
290.15	2.235e-05	6.71e-06
295.15	3.709e-05	1.113e-05
299.15	5.15e-05	1.546e-05
302.15	6.577e-05	1.974e-05
305.15	8.123e-05	2.437e-05
308.15	9.606e-05	2.882e-05
311.15	0.00010997	3.299e-05
314.15	0.00012079	3.624e-05
317.15	0.00013084	3.925e-05
320.15	0.00013979	4.194e-05
325.15	0.00014972	4.492e-05
330.15	0.00015437	4.631e-05

System: 1,3,5-trifluoro-2,4,6-triiodobenzene + ethanol; phases: Liquid, Crystal
Fixed: Pressure, kPa = 100
Property: Mole fraction of 1,3,5-trifluoro-2,4,6-triiodobenzene (Liquid); method: Titration method
Temperature, K	Mole fraction of 1,3,5-trifluoro-2,4,6-triiodobenzene	uncertainty
290.15	0.0005695	0.0001709
295.15	0.0007346	0.0002204
299.15	0.0008741	0.0002623
302.15	0.0009621	0.0002887
305.15	0.0010765	0.000323
308.15	0.001193	0.0003579
311.15	0.0012837	0.0003851
314.15	0.0013758	0.0004128
317.15	0.0014869	0.0004461
320.15	0.0015985	0.0004796
325.15	0.0017427	0.0005228
330.15	0.0019254	0.0005776

System: 1,3,5-trifluoro-2,4,6-triiodobenzene + acetone; phases: Liquid, Crystal
Fixed: Pressure, kPa = 100
Property: Mole fraction of 1,3,5-trifluoro-2,4,6-triiodobenzene (Liquid); method: Titration method
Temperature, K	Mole fraction of 1,3,5-trifluoro-2,4,6-triiodobenzene	uncertainty
290.15	2.019e-05	6.06e-06
295.15	3.223e-05	9.67e-06
299.15	4.546e-05	1.364e-05
302.15	5.885e-05	1.766e-05
305.15	7.476e-05	2.243e-05
308.15	9.006e-05	2.702e-05
311.15	0.00010744	3.224e-05
314.15	0.00012691	3.808e-05
317.15	0.00014429	4.329e-05
320.15	0.00016167	4.85e-05
325.15	0.0001823	5.469e-05
330.15	0.0002017	6.051e-05

System: 1,3,5-trifluoro-2,4,6-triiodobenzene + toluene; phases: Liquid, Crystal
Fixed: Pressure, kPa = 100
Property: Mole fraction of 1,3,5-trifluoro-2,4,6-triiodobenzene (Liquid); method: Titration method
Temperature, K	Mole fraction of 1,3,5-trifluoro-2,4,6-triiodobenzene	uncertainty
290.15	0.00016912	5.075e-05
295.15	0.00021697	6.51e-05
299.15	0.00026098	7.83e-05
302.15	0.00029377	8.814e-05
305.15	0.00032928	9.879e-05
308.15	0.00036798	0.0001104
311.15	0.00040394	0.00012119
314.15	0.00044445	0.00013334
317.15	0.00047905	0.00014372
320.15	0.00051453	0.00015437
325.15	0.00057303	0.00017192
330.15	0.00062288	0.00018687

System: 1,3,5-trifluoro-2,4,6-triiodobenzene + ethyl acetate; phases: Liquid, Crystal
Fixed: Pressure, kPa = 100
Property: Mole fraction of 1,3,5-trifluoro-2,4,6-triiodobenzene (Liquid); method: Titration method
Temperature, K	Mole fraction of 1,3,5-trifluoro-2,4,6-triiodobenzene	uncertainty
290.15	0.000485	0.0001455
295.15	0.0006213	0.0001864
299.15	0.0007561	0.0002269
302.15	0.0008603	0.0002581
305.15	0.000976	0.0002928
308.15	0.0010654	0.0003196
311.15	0.001181	0.0003543
314.15	0.0012793	0.0003838
317.15	0.0013604	0.0004081
320.15	0.0014477	0.0004343
325.15	0.0015534	0.000466
330.15	0.0016725	0.0005018

System: 1,3,5-trifluoro-2,4,6-triiodobenzene + 1,4-dioxane; phases: Liquid, Crystal
Fixed: Pressure, kPa = 100
Property: Mole fraction of 1,3,5-trifluoro-2,4,6-triiodobenzene (Liquid); method: Titration method
Temperature, K	Mole fraction of 1,3,5-trifluoro-2,4,6-triiodobenzene	uncertainty
290.15	0.00027989	8.398e-05
295.15	0.00033418	0.00010026
299.15	0.00038705	0.00011612
302.15	0.00041266	0.00012381
305.15	0.00045619	0.00013687
308.15	0.00050642	0.00015194
311.15	0.00055267	0.00016581
314.15	0.00059277	0.00017784
317.15	0.00064138	0.00019243
320.15	0.00069705	0.00020913
325.15	0.00077342	0.00023204
330.15	0.00087976	0.00026394

System: 1,3,5-trifluoro-2,4,6-triiodobenzene + 1,2-dichloroethane; phases: Liquid, Crystal
Fixed: Pressure, kPa = 100
Property: Mole fraction of 1,3,5-trifluoro-2,4,6-triiodobenzene (Liquid); method: Titration method
Temperature, K	Mole fraction of 1,3,5-trifluoro-2,4,6-triiodobenzene	uncertainty
290.15	2.328e-05	6.99e-06
295.15	4.218e-05	1.266e-05
299.15	6.126e-05	1.839e-05
302.15	8.167e-05	2.451e-05
305.15	0.00010637	3.192e-05
308.15	0.00013135	3.941e-05
311.15	0.00015292	4.588e-05
314.15	0.00018055	5.417e-05
317.15	0.00020704	6.212e-05
320.15	0.00022392	6.718e-05
325.15	0.00024182	7.255e-05
330.15	0.00026315	7.895e-05

System: 1,3,5-trifluoro-2,4,6-triiodobenzene + acetonitrile; phases: Liquid, Crystal
Fixed: Pressure, kPa = 100
Property: Mole fraction of 1,3,5-trifluoro-2,4,6-triiodobenzene (Liquid); method: Titration method
Temperature, K	Mole fraction of 1,3,5-trifluoro-2,4,6-triiodobenzene	uncertainty
290.35	0.003819	0.001146
295.85	0.004155	0.001247
301.55	0.00469	0.001407
306.95	0.00536	0.001608
310.15	0.005682	0.001705
316.95	0.00636	0.001908
321.55	0.007221	0.002166
327.35	0.008416	0.002525
332.15	0.009173	0.002752

System: 1,3,5-trifluoro-2,4,6-triiodobenzene + tetrahydrofuran; phases: Liquid, Crystal
Fixed: Pressure, kPa = 100
Property: Mole fraction of 1,3,5-trifluoro-2,4,6-triiodobenzene (Liquid); method: Titration method
Temperature, K	Mole fraction of 1,3,5-trifluoro-2,4,6-triiodobenzene	uncertainty
290.25	0.004784	0.001435
295.45	0.004971	0.001491
299.85	0.005112	0.001534
305.15	0.005344	0.001603
310.25	0.005547	0.001664
315.35	0.00578	0.001734
320.15	0.006008	0.001802
326.15	0.006297	0.001889
330.35	0.006476	0.001943

System: 1,3,5-trifluoro-2,4,6-triiodobenzene + propan-1-ol; phases: Liquid, Crystal
Fixed: Pressure, kPa = 100
Property: Mole fraction of 1,3,5-trifluoro-2,4,6-triiodobenzene (Liquid); method: Titration method
Temperature, K	Mole fraction of 1,3,5-trifluoro-2,4,6-triiodobenzene	uncertainty
291.25	0.002157	0.000647
296.35	0.002737	0.000821
301.35	0.003245	0.000974
306.35	0.003656	0.001097
311.65	0.004173	0.001252
316.55	0.004822	0.001447
321.55	0.00531	0.001593
326.45	0.005851	0.001755
331.45	0.006426	0.001928

System: 1,3,5-trifluoro-2,4,6-triiodobenzene + propan-2-ol; phases: Liquid, Crystal
Fixed: Pressure, kPa = 100
Property: Mole fraction of 1,3,5-trifluoro-2,4,6-triiodobenzene (Liquid); method: Titration method
Temperature, K	Mole fraction of 1,3,5-trifluoro-2,4,6-triiodobenzene	uncertainty
291.25	0.002144	0.000643
296.35	0.002914	0.000874
301.45	0.003691	0.001107
306.45	0.004322	0.001297
311.45	0.005234	0.00157
316.55	0.005977	0.001793
321.45	0.006807	0.002042
326.85	0.007445	0.002234
331.55	0.00802	0.002406

System: 1,3,5-trifluoro-2,4,6-triiodobenzene + hexane; phases: Liquid, Crystal
Fixed: Pressure, kPa = 100
Property: Mole fraction of 1,3,5-trifluoro-2,4,6-triiodobenzene (Liquid); method: Titration method
Temperature, K	Mole fraction of 1,3,5-trifluoro-2,4,6-triiodobenzene	uncertainty
289.25	0.005904	0.001771
293.55	0.006425	0.001928
298.85	0.007322	0.002197
303.85	0.008177	0.002453
308.95	0.009085	0.002726
313.75	0.01015	0.00305
318.55	0.01162	0.00349
324.25	0.01341	0.00402
329.35	0.01493	0.00448
