Measured thermophysical data. Isobaric Vapor-Liquid Equilibrium for the Binary Systems of Sec-butyl Acetate and Ethanol, 1-Propanol, or 2-Propanol at 101.3 kPa
Source: J. Chem. Eng. Data, 2017, 10.1021/acs.jced.7b00445
Compound 1: 1-methylpropyl ethanoate, C6H12O2, InChI=1S/C6H12O2/c1-4-5(2)8-6(3)7/h5H,4H2,1-3H3
Compound 2: ethanol, C2H6O, InChI=1S/C2H6O/c1-2-3/h3H,2H2,1H3
Compound 3: propan-1-ol, C3H8O, InChI=1S/C3H8O/c1-2-3-4/h4H,2-3H2,1H3
Compound 4: propan-2-ol, C3H8O, InChI=1S/C3H8O/c1-3(2)4/h3-4H,1-2H3

System: 1-methylpropyl ethanoate; phases: Liquid
Property: Mass density, kg/m3 (Liquid); method: Pycnometric method
Temperature, K	Pressure, kPa	Mass density, kg/m3	uncertainty
298.15	101.325	867	2

System: 1-methylpropyl ethanoate; phases: Liquid
Property: Refractive index (Na D-line) (Liquid); method: Standard Abbe refractometry
Temperature, K	Pressure, kPa	Refractive index (Na D-line)	uncertainty
298.15	101.325	1.3872	0.0004

System: 1-methylpropyl ethanoate; phases: Liquid, Gas
Property: Boiling temperature at pressure P, K (Liquid); method: Ebulliometric method (Recirculating still)
Pressure, kPa	Boiling temperature at pressure P, K	uncertainty
101.3	385.12	0.16

System: ethanol; phases: Liquid
Property: Mass density, kg/m3 (Liquid); method: Pycnometric method
Temperature, K	Pressure, kPa	Mass density, kg/m3	uncertainty
298.15	101.325	786	2

System: ethanol; phases: Liquid
Property: Refractive index (Na D-line) (Liquid); method: Standard Abbe refractometry
Temperature, K	Pressure, kPa	Refractive index (Na D-line)	uncertainty
298.15	101.325	1.3596	0.0004

System: ethanol; phases: Liquid, Gas
Property: Boiling temperature at pressure P, K (Liquid); method: Ebulliometric method (Recirculating still)
Pressure, kPa	Boiling temperature at pressure P, K	uncertainty
101.3	351.42	0.16

System: propan-1-ol; phases: Liquid
Property: Mass density, kg/m3 (Liquid); method: Pycnometric method
Temperature, K	Pressure, kPa	Mass density, kg/m3	uncertainty
298.15	101.325	802	2

System: propan-1-ol; phases: Liquid
Property: Refractive index (Na D-line) (Liquid); method: Standard Abbe refractometry
Temperature, K	Pressure, kPa	Refractive index (Na D-line)	uncertainty
298.15	101.325	1.3842	0.0004

System: propan-1-ol; phases: Liquid, Gas
Property: Boiling temperature at pressure P, K (Liquid); method: Ebulliometric method (Recirculating still)
Pressure, kPa	Boiling temperature at pressure P, K	uncertainty
101.3	370.32	0.16

System: propan-2-ol; phases: Liquid
Property: Mass density, kg/m3 (Liquid); method: Pycnometric method
Temperature, K	Pressure, kPa	Mass density, kg/m3	uncertainty
298.15	101.325	782	2

System: propan-2-ol; phases: Liquid
Property: Refractive index (Na D-line) (Liquid); method: Standard Abbe refractometry
Temperature, K	Pressure, kPa	Refractive index (Na D-line)	uncertainty
298.15	101.325	1.3757	0.0004

System: propan-2-ol; phases: Liquid, Gas
Property: Boiling temperature at pressure P, K (Liquid); method: Ebulliometric method (Recirculating still)
Pressure, kPa	Boiling temperature at pressure P, K	uncertainty
101.3	355.51	0.16

System: ethanol + 1-methylpropyl ethanoate; phases: Liquid, Gas
Fixed: Pressure, kPa = 101.3
Property: Boiling temperature at pressure P, K (Liquid); method: Ebulliometric method (Recirculating still)
Mole fraction of ethanol	Boiling temperature at pressure P, K	uncertainty
0.093	372.48	0.25
0.153	367.15	0.23
0.205	363.92	0.2
0.259	361.43	0.19
0.296	360.13	0.18
0.352	358.57	0.18
0.405	357.34	0.18
0.435	356.79	0.18
0.48	356.03	0.18
0.549	355.01	0.18
0.596	354.41	0.18
0.642	353.88	0.18
0.735	352.95	0.17
0.772	352.66	0.17
0.851	352.09	0.17
0.906	351.74	0.17
0.96	351.53	0.17

System: ethanol + 1-methylpropyl ethanoate; phases: Gas, Liquid
Fixed: Pressure, kPa = 101.3
Property: Mole fraction of ethanol (Gas); method: Chromatography
Mole fraction of ethanol	Mole fraction of ethanol	uncertainty
0.093	0.38	0.006
0.153	0.507	0.006
0.205	0.574	0.005
0.259	0.622	0.004
0.296	0.652	0.004
0.352	0.683	0.004
0.405	0.712	0.003
0.435	0.724	0.003
0.48	0.74	0.003
0.549	0.763	0.003
0.596	0.785	0.003
0.642	0.798	0.003
0.735	0.837	0.003
0.772	0.854	0.003
0.851	0.892	0.003
0.906	0.926	0.003
0.96	0.965	0.003

System: propan-1-ol + 1-methylpropyl ethanoate; phases: Liquid, Gas
Fixed: Pressure, kPa = 101.3
Property: Boiling temperature at pressure P, K (Liquid); method: Ebulliometric method (Recirculating still)
Mole fraction of propan-1-ol	Boiling temperature at pressure P, K	uncertainty
0.092	381.74	0.19
0.223	377.38	0.18
0.325	375.05	0.18
0.405	373.59	0.18
0.487	372.5	0.18
0.584	371.59	0.17
0.629	371.13	0.17
0.666	370.87	0.17
0.704	370.63	0.17
0.719	370.57	0.17
0.766	370.34	0.17
0.802	370.21	0.17
0.843	370.09	0.17
0.885	370.03	0.17
0.92	370.03	0.17
0.956	370.08	0.17
0.992	370.19	0.17

System: propan-1-ol + 1-methylpropyl ethanoate; phases: Gas, Liquid
Fixed: Pressure, kPa = 101.3
Property: Mole fraction of propan-1-ol (Gas); method: Chromatography
Mole fraction of propan-1-ol	Mole fraction of propan-1-ol	uncertainty
0.092	0.189	0.004
0.223	0.377	0.005
0.325	0.487	0.005
0.405	0.559	0.005
0.487	0.619	0.004
0.584	0.677	0.004
0.629	0.712	0.004
0.666	0.735	0.003
0.704	0.759	0.003
0.719	0.772	0.003
0.766	0.8	0.003
0.802	0.825	0.003
0.843	0.858	0.003
0.885	0.888	0.003
0.92	0.918	0.003
0.956	0.953	0.003
0.992	0.989	0.003

System: propan-2-ol + 1-methylpropyl ethanoate; phases: Liquid, Gas
Fixed: Pressure, kPa = 101.3
Property: Boiling temperature at pressure P, K (Liquid); method: Ebulliometric method (Recirculating still)
Mole fraction of propan-2-ol	Boiling temperature at pressure P, K	uncertainty
0.107	375.88	0.2
0.235	369.73	0.2
0.31	366.83	0.19
0.401	364.29	0.18
0.474	362.59	0.18
0.529	361.46	0.18
0.582	360.49	0.18
0.628	359.76	0.18
0.662	359.04	0.18
0.717	358.23	0.18
0.747	357.84	0.18
0.776	357.47	0.18
0.81	357.04	0.18
0.845	356.64	0.17
0.879	356.26	0.17
0.911	355.93	0.17
0.942	355.61	0.17

System: propan-2-ol + 1-methylpropyl ethanoate; phases: Gas, Liquid
Fixed: Pressure, kPa = 101.3
Property: Mole fraction of propan-2-ol (Gas); method: Chromatography
Mole fraction of propan-2-ol	Mole fraction of propan-2-ol	uncertainty
0.107	0.321	0.005
0.235	0.517	0.005
0.31	0.598	0.004
0.401	0.668	0.004
0.474	0.716	0.003
0.529	0.753	0.003
0.582	0.776	0.003
0.628	0.802	0.003
0.662	0.817	0.003
0.717	0.844	0.003
0.747	0.859	0.003
0.776	0.874	0.003
0.81	0.891	0.002
0.845	0.909	0.002
0.879	0.927	0.002
0.911	0.944	0.002
0.942	0.962	0.002
