Measured thermophysical data. Solubilities of Three Flavonoids in Different Natural Deep Eutectic Solvents at T = (288.15 to 328.15) K
Source: J. Chem. Eng. Data, 2016, 10.1021/acs.jced.6b00552
Compound 1: 3-(4-hydroxyphenyl)-1-(2,4,6-trihydroxyphenyl)propan-1-one, C15H14O5, InChI=1S/C15H14O5/c16-10-4-1-9(2-5-10)3-6-12(18)15-13(19)7-11(17)8-14(15)20/h1-2,4-5,7-8,16-17,19-20H,3,6H2, purity 95%
Compound 2: phlorizin, C21H24O10, InChI=1S/C21H24O10/c22-9-16-18(27)19(28)20(29)21(31-16)30-15-8-12(24)7-14(26)17(15)13(25)6-3-10-1-4-11(23)5-2-10/h1-2,4-5,7-8,16,18-24,26-29H,3,6,9H2/t16-,18-,19+,20-,21?/m1/s1, purity 95%
Compound 3: naringin dihydrochalcone, C27H34O14, InChI=1S/C27H34O14/c1-11-20(33)22(35)24(37)26(38-11)41-25-23(36)21(34)18(10-28)40-27(25)39-14-8-16(31)19(17(32)9-14)15(30)7-4-12-2-5-13(29)6-3-12/h2-3,5-6,8-9,11,18,20-29,31-37H,4,7,10H2,1H3/t11-,18+,20-,21+,22+,23-,24+,25+,26-,27+/m0/s1, purity 90%
Compound 4: choline chloride, C5H14ClNO, InChI=1S/C5H14NO.ClH/c1-6(2,3)4-5-7;/h7H,4-5H2,1-3H3;1H/q+1;/p-1, purity 99%
Compound 5: citric acid, C6H8O7, InChI=1S/C6H8O7/c7-3(8)1-6(13,5(11)12)2-4(9)10/h13H,1-2H2,(H,7,8)(H,9,10)(H,11,12), purity 99.5%
Compound 6: D-glucose, C6H12O6, InChI=1S/C6H12O6/c7-1-3(9)5(11)6(12)4(10)2-8/h1,3-6,8-12H,2H2/t3-,4+,5+,6+/m0/s1, purity 99.5%
Compound 7: D-sucrose, C12H22O11, InChI=1S/C12H22O11/c13-1-4-6(16)8(18)9(19)11(21-4)23-12(3-15)10(20)7(17)5(2-14)22-12/h4-11,13-20H,1-3H2/t4-,5-,6-,7-,8+,9-,10+,11-,12+/m1/s1, purity 99.5%
Compound 8: water, H2O, InChI=1S/H2O/h1H2, purity 99.8%
Compound 9: 1,2-diphenylethanedione, C14H10O2, InChI=1S/C14H10O2/c15-13(11-7-3-1-4-8-11)14(16)12-9-5-2-6-10-12/h1-10H, purity 98%
Compound 10: methyl ethanoate, C3H6O2, InChI=1S/C3H6O2/c1-3(4)5-2/h1-2H3, purity 99%
Compound 11: acetonitrile, C2H3N, InChI=1S/C2H3N/c1-2-3/h1H3, purity 99%

System: 3-(4-hydroxyphenyl)-1-(2,4,6-trihydroxyphenyl)propan-1-one; phases: Crystal, Liquid, Air at 1 atmosphere
Property: Triple point temperature, K (Crystal); method: DSC
Triple point temperature, K	uncertainty
542.96	1.22

System: 3-(4-hydroxyphenyl)-1-(2,4,6-trihydroxyphenyl)propan-1-one; phases: Crystal, Liquid, Air at 1 atmosphere
Property: Molar enthalpy of transition or fusion, kJ/mol (Crystal); method: DSC
Molar enthalpy of transition or fusion, kJ/mol	uncertainty
56.44	3.55

System: phlorizin; phases: Crystal, Liquid, Air at 1 atmosphere
Property: Triple point temperature, K (Crystal); method: DSC
Triple point temperature, K	uncertainty
376.32	1.22

System: phlorizin; phases: Crystal, Liquid, Air at 1 atmosphere
Property: Molar enthalpy of transition or fusion, kJ/mol (Crystal); method: DSC
Molar enthalpy of transition or fusion, kJ/mol	uncertainty
50.93	3.21

System: naringin dihydrochalcone; phases: Crystal, Liquid, Air at 1 atmosphere
Property: Triple point temperature, K (Crystal); method: DSC
Triple point temperature, K	uncertainty
432.22	1.22

System: naringin dihydrochalcone; phases: Crystal, Liquid, Air at 1 atmosphere
Property: Molar enthalpy of transition or fusion, kJ/mol (Crystal); method: DSC
Molar enthalpy of transition or fusion, kJ/mol	uncertainty
29.63	1.88

System: D-glucose + citric acid + water; phases: Liquid
Fixed: Amount ratio of solute to solvent of citric acid = 0.0833
Fixed: Amount ratio of solute to solvent of D-glucose = 0.0833
Fixed: Pressure, kPa = 100
Property: Mass density, kg/m3 (Liquid); method: Vibrating tube method
Temperature, K	Mass density, kg/m3	uncertainty
293.15	1310.782	2.628
298.15	1307.512	2.622
303.15	1304.176	2.615
308.15	1300.794	2.608
313.15	1297.384	2.601
318.15	1293.928	2.594
323.15	1290.439	2.587

System: D-glucose + citric acid + water; phases: Liquid
Fixed: Amount ratio of solute to solvent of citric acid = 0.0833
Fixed: Amount ratio of solute to solvent of D-glucose = 0.0833
Fixed: Pressure, kPa = 100
Property: Viscosity, Pa*s (Liquid); method: Concentric cylinders viscometry
Temperature, K	Viscosity, Pa*s	uncertainty
293.15	0.045461	0.000484
298.15	0.034646	0.000369
303.15	0.027063	0.000289
308.15	0.021593	0.00023
313.15	0.017538	0.000187
318.15	0.014457	0.000154
323.15	0.012087	0.000129

System: choline chloride + citric acid + water; phases: Liquid
Fixed: Amount ratio of solute to solvent of choline chloride = 0.0909
Fixed: Amount ratio of solute to solvent of citric acid = 0.0909
Fixed: Pressure, kPa = 100
Property: Mass density, kg/m3 (Liquid); method: Vibrating tube method
Temperature, K	Mass density, kg/m3	uncertainty
293.15	1200.75	2.408
298.15	1197.773	2.402
303.15	1194.75	2.396
308.15	1191.71	2.39
313.15	1188.624	2.384
318.15	1185.531	2.378
323.15	1182.4	2.371

System: choline chloride + citric acid + water; phases: Liquid
Fixed: Amount ratio of solute to solvent of choline chloride = 0.0909
Fixed: Amount ratio of solute to solvent of citric acid = 0.0909
Fixed: Pressure, kPa = 100
Property: Viscosity, Pa*s (Liquid); method: Concentric cylinders viscometry
Temperature, K	Viscosity, Pa*s	uncertainty
293.15	0.015842	0.000172
298.15	0.013209	0.000144
303.15	0.011133	0.000121
308.15	0.009497	0.000103
313.15	0.008162	8.9e-05
318.15	0.007074	7.7e-05
323.15	0.006174	6.8e-05

System: D-glucose + choline chloride + water; phases: Liquid
Fixed: Amount ratio of solute to solvent of choline chloride = 0.0909
Fixed: Amount ratio of solute to solvent of D-glucose = 0.0909
Fixed: Pressure, kPa = 100
Property: Mass density, kg/m3 (Liquid); method: Vibrating tube method
Temperature, K	Mass density, kg/m3	uncertainty
293.15	1185.368	2.377
298.15	1182.98	2.372
303.15	1180.528	2.367
308.15	1178.039	2.362
313.15	1175.504	2.357
318.15	1172.924	2.352
323.15	1170.3	2.347

System: D-glucose + choline chloride + water; phases: Liquid
Fixed: Amount ratio of solute to solvent of choline chloride = 0.0909
Fixed: Amount ratio of solute to solvent of D-glucose = 0.0909
Fixed: Pressure, kPa = 100
Property: Viscosity, Pa*s (Liquid); method: Concentric cylinders viscometry
Temperature, K	Viscosity, Pa*s	uncertainty
293.15	0.015943	0.000173
298.15	0.013172	0.000143
303.15	0.01099	0.00012
308.15	0.009287	0.000101
313.15	0.007922	8.6e-05
318.15	0.006813	7.5e-05
323.15	0.005902	6.5e-05

System: D-sucrose + choline chloride + water; phases: Liquid
Fixed: Amount ratio of solute to solvent of choline chloride = 0.1
Fixed: Amount ratio of solute to solvent of D-sucrose = 0.1
Fixed: Pressure, kPa = 100
Property: Mass density, kg/m3 (Liquid); method: Vibrating tube method
Temperature, K	Mass density, kg/m3	uncertainty
293.15	1272.692	2.555
298.15	1270.121	2.55
303.15	1267.464	2.544
308.15	1264.743	2.539
313.15	1261.978	2.533
318.15	1259.207	2.527
323.15	1256.42	2.522

System: D-sucrose + choline chloride + water; phases: Liquid
Fixed: Amount ratio of solute to solvent of choline chloride = 0.1
Fixed: Amount ratio of solute to solvent of D-sucrose = 0.1
Fixed: Pressure, kPa = 100
Property: Viscosity, Pa*s (Liquid); method: Concentric cylinders viscometry
Temperature, K	Viscosity, Pa*s	uncertainty
293.15	0.15399	0.002682
298.15	0.112048	0.001624
303.15	0.083305	0.00102
308.15	0.063355	0.000688
313.15	0.049133	0.000532
318.15	0.038732	0.00042
323.15	0.031018	0.000336

System: methyl ethanoate + 1,2-diphenylethanedione; phases: Liquid, Crystal
Property: Mole fraction of 1,2-diphenylethanedione (Liquid); method: Chromatography
Temperature, K	Pressure, kPa	Mole fraction of 1,2-diphenylethanedione	uncertainty
298.15	100	0.148	0.009

System: acetonitrile + 1,2-diphenylethanedione; phases: Liquid, Crystal
Property: Mole fraction of 1,2-diphenylethanedione (Liquid); method: Chromatography
Temperature, K	Pressure, kPa	Mole fraction of 1,2-diphenylethanedione	uncertainty
298.15	100	0.0614	0.0037
