Measured thermophysical data. Determination and Correlation for the Solubilities of Succinic Acid in Cyclohexanol + Cyclohexanone + Cyclohexane Solvent Mixtures
Source: J. Chem. Eng. Data, 2018, 10.1021/acs.jced.7b00956
Compound 1: butanedioic acid, C4H6O4, InChI=1S/C4H6O4/c5-3(6)1-2-4(7)8/h1-2H2,(H,5,6)(H,7,8), purity 99.5%
Compound 2: cyclohexanol, C6H12O, InChI=1S/C6H12O/c7-6-4-2-1-3-5-6/h6-7H,1-5H2, purity 98%
Compound 3: cyclohexanone, C6H10O, InChI=1S/C6H10O/c7-6-4-2-1-3-5-6/h1-5H2, purity 99.5%
Compound 4: cyclohexane, C6H12, InChI=1S/C6H12/c1-2-4-6-5-3-1/h1-6H2, purity 99.7%

System: butanedioic acid + cyclohexanone + cyclohexanol; phases: Liquid, Crystal
Fixed: Pressure, kPa = 101.3
Property: Mass ratio of solute to solvent of butanedioic acid (Liquid); method: visual
Temperature, K	Solvent: Mass fraction of cyclohexanone	Mass ratio of solute to solvent of butanedioic acid	uncertainty
307.35	0	0.04323	0.00349
310.35	0	0.04771	0.00385
313.35	0	0.05252	0.00423
317.75	0	0.05971	0.00481
321.65	0	0.06723	0.00541
325.55	0	0.075	0.006
329.85	0	0.08417	0.00677
335.05	0	0.09667	0.00777
340.35	0	0.11003	0.00884
346.15	0	0.12556	0.01008
306.75	0.2	0.05605	0.00452
309.65	0.2	0.06013	0.00484
314.05	0.2	0.06645	0.00534
317.95	0.2	0.0727	0.0058
322.95	0.2	0.081	0.007
327.65	0.2	0.08983	0.00721
333.25	0.2	0.10063	0.00808
338.35	0.2	0.11247	0.00903
343.45	0.2	0.12467	0.01
349.45	0.2	0.13979	0.01121
304.25	0.4	0.05622	0.00452
308.35	0.4	0.06133	0.00492
311.95	0.4	0.06654	0.00535
317.35	0.4	0.07379	0.00592
322.45	0.4	0.08138	0.00653
327.15	0.4	0.08899	0.00714
332.65	0.4	0.09826	0.00788
337.25	0.4	0.10776	0.00865
342.25	0.4	0.11829	0.00949
346.65	0.4	0.12904	0.01036
308.85	0.6	0.05677	0.0046
312.35	0.6	0.06081	0.0049
317.95	0.6	0.06689	0.00538
322.95	0.6	0.07371	0.00595
328.55	0.6	0.08189	0.00659
333.45	0.6	0.09017	0.00727
338.05	0.6	0.09885	0.00797
342.95	0.6	0.1089	0.0088
347.25	0.6	0.119	0.01
351.35	0.6	0.12922	0.0104
308.95	0.8	0.04331	0.00349
313.85	0.8	0.04769	0.00384
318.95	0.8	0.05288	0.00426
324.95	0.8	0.05989	0.00483
329.95	0.8	0.06717	0.00541
335.45	0.8	0.07636	0.00615
340.85	0.8	0.0859	0.0069
346.15	0.8	0.09612	0.00773
350.35	0.8	0.10663	0.00858
354.65	0.8	0.11756	0.00945
306.55	1	0.02293	0.00185
312.55	1	0.02705	0.00218
317.45	1	0.03101	0.0025
321.45	1	0.03509	0.00283
326.85	1	0.041	0.003
332.05	1	0.0471	0.0038
336.3	1	0.05352	0.00431
341.85	1	0.06215	0.005
346.15	1	0.07044	0.00567
351.25	1	0.08064	0.00648

System: butanedioic acid + cyclohexane + cyclohexanol; phases: Liquid, Crystal
Fixed: Pressure, kPa = 101.3
Property: Mass ratio of solute to solvent of butanedioic acid (Liquid); method: visual
Temperature, K	Solvent: Mass fraction of cyclohexane	Mass ratio of solute to solvent of butanedioic acid	uncertainty
305.95	0.2	0.02884	0.00234
310.25	0.2	0.0333	0.0027
314.05	0.2	0.03789	0.00307
319.35	0.2	0.04404	0.00356
323.95	0.2	0.05025	0.00407
328.25	0.2	0.05672	0.00459
332.75	0.2	0.06365	0.00513
337.35	0.2	0.0703	0.00566
341.35	0.2	0.07644	0.00619
303.05	0.4	0.01704	0.00141
307.25	0.4	0.01954	0.00162
311.05	0.4	0.02202	0.00183
314.75	0.4	0.02528	0.0021
319.85	0.4	0.0295	0.00244
324.95	0.4	0.0337	0.00279
329.55	0.4	0.03799	0.00315
333.35	0.4	0.04228	0.00351
337.55	0.4	0.04687	0.00385
342.15	0.4	0.05179	0.00427
300.15	0.6	0.00891	0.00078
303.65	0.6	0.00985	0.00084
306.45	0.6	0.0108	0.00093
310.45	0.6	0.01241	0.00106
314.85	0.6	0.01408	0.0012
319.05	0.6	0.01575	0.00135
324.65	0.6	0.01807	0.00155
329.85	0.6	0.02056	0.00176
335.05	0.6	0.02339	0.00201
340.25	0.6	0.02624	0.00228
303.95	0.8	0.00356	0.00031
309.65	0.8	0.00422	0.00038
314.5	0.8	0.00478	0.00043
319.15	0.8	0.00537	0.00048
323.45	0.8	0.00602	0.00054
328.05	0.8	0.00668	0.0006
332.4	0.8	0.00732	0.00065
336.05	0.8	0.0079	0.00071
339.95	0.8	0.00848	0.00077
343.75	0.8	0.00912	0.00081
307.35	0	0.04323	0.00349
310.35	0	0.04771	0.00385
313.35	0	0.05252	0.00423
317.75	0	0.05971	0.00481
321.65	0	0.06723	0.00541
325.55	0	0.075	0.006
329.85	0	0.08417	0.00677
335.05	0	0.09667	0.00777
340.35	0	0.11003	0.00884
346.15	0	0.12556	0.01008

System: butanedioic acid + cyclohexane + cyclohexanone; phases: Liquid, Crystal
Fixed: Pressure, kPa = 101.3
Property: Mass ratio of solute to solvent of butanedioic acid (Liquid); method: visual
Temperature, K	Solvent: Mass fraction of cyclohexane	Mass ratio of solute to solvent of butanedioic acid	uncertainty
297.65	0.2	0.008286	0.000675
302.65	0.2	0.009694	0.000789
307.15	0.2	0.01114	0.000914
311.45	0.2	0.012601	0.001035
316.15	0.2	0.014402	0.001185
319.85	0.2	0.016204	0.001333
324.45	0.2	0.018729	0.001522
328.9	0.2	0.021273	0.001745
332.75	0.2	0.023844	0.001947
336.35	0.2	0.026527	0.00224
298.15	0.4	0.003708	0.000352
302.75	0.4	0.00429	0.000382
306.85	0.4	0.004911	0.000437
310.55	0.4	0.005524	0.000492
314.95	0.4	0.006298	0.00056
318.85	0.4	0.007105	0.000632
323.4	0.4	0.008031	0.000725
326.65	0.4	0.008962	0.000794
330.95	0.4	0.010361	0.000929
336.65	0.4	0.012182	0.001094
300.65	0.6	0.001308	0.000156
305.25	0.6	0.001519	0.00018
309.45	0.6	0.001739	0.000174
312.95	0.6	0.001963	0.000197
317.35	0.6	0.002262	0.000225
321.35	0.6	0.002567	0.000254
324.55	0.6	0.002873	0.000275
328.45	0.6	0.003257	0.000312
332.55	0.6	0.003675	0.000352
336.75	0.6	0.004208	0.000435
308.85	0.8	0.000291	3.7e-05
313.05	0.8	0.000343	4.3e-05
316.95	0.8	0.000397	4.9e-05
320.35	0.8	0.000454	5.6e-05
323.55	0.8	0.000519	6.3e-05
326.55	0.8	0.000576	7e-05
329.35	0.8	0.000633	7.3e-05
331.55	0.8	0.000693	8.1e-05
334.05	0.8	0.000759	8.5e-05
337.05	0.8	0.000837	9.5e-05
306.55	0	0.02293	0.00185
312.55	0	0.02705	0.00218
317.45	0	0.03101	0.0025
321.45	0	0.03509	0.00283
326.85	0	0.041	0.003
332.05	0	0.0471	0.0038
336.3	0	0.05352	0.00431
341.85	0	0.06215	0.005
346.15	0	0.07044	0.00567
351.25	0	0.08064	0.00648

System: butanedioic acid + cyclohexanol; phases: Liquid, Crystal
Fixed: Pressure, kPa = 101.3
Property: Mass ratio of solute to solvent of butanedioic acid (Liquid); method: visual
Temperature, K	Mass ratio of solute to solvent of butanedioic acid	uncertainty
307.35	0.04323	0.00349
310.35	0.04771	0.00385
313.35	0.05252	0.00423
317.75	0.05971	0.00481
321.65	0.06723	0.00541
325.55	0.075	0.006
329.85	0.08417	0.00677
335.05	0.09667	0.00777
340.35	0.11003	0.00884
346.15	0.12556	0.01008

System: butanedioic acid + cyclohexanone; phases: Liquid, Crystal
Fixed: Pressure, kPa = 101.3
Property: Mass ratio of solute to solvent of butanedioic acid (Liquid); method: visual
Temperature, K	Mass ratio of solute to solvent of butanedioic acid	uncertainty
306.55	0.02293	0.00185
312.55	0.02705	0.00218
317.45	0.03101	0.0025
321.45	0.03509	0.00283
326.85	0.041	0.003
332.05	0.0471	0.0038
336.3	0.05352	0.00431
341.85	0.06215	0.005
346.15	0.07044	0.00567
351.25	0.08064	0.00648
