Measured thermophysical data. Phase Equilibria in Systems of Morpholine, Acetonitrile, and n-Alkanes
Source: J. Chem. Eng. Data, 2015, 10.1021/acs.jced.5b00175
Compound 1: acetonitrile, C2H3N, InChI=1S/C2H3N/c1-2-3/h1H3, purity 99.9%
Compound 2: heptane, C7H16, InChI=1S/C7H16/c1-3-5-7-6-4-2/h3-7H2,1-2H3, purity 99%
Compound 3: hexane, C6H14, InChI=1S/C6H14/c1-3-5-6-4-2/h3-6H2,1-2H3, purity 99%
Compound 4: octane, C8H18, InChI=1S/C8H18/c1-3-5-7-8-6-4-2/h3-8H2,1-2H3, purity 99%
Compound 5: tetrahydro-1,4-oxazine, C4H9NO, InChI=1S/C4H9NO/c1-3-6-4-2-5-1/h5H,1-4H2, purity 99%

System: acetonitrile + tetrahydro-1,4-oxazine; phases: Gas, Liquid
Fixed: Pressure, kPa = 10
Property: Boiling temperature at pressure P, K (Gas); method: Ebulliometric method (Recirculating still)
Mole fraction of tetrahydro-1,4-oxazine	Boiling temperature at pressure P, K	uncertainty
0.066	295.35	0.41
0.302	300.15	0.43
0.498	304.35	0.45
0.711	312.05	0.48
0.809	318.15	0.5
0.847	321.55	0.51
0.8664	322.75	0.52
0.9119	327.05	0.54
0.951	332.25	0.56
0.961	333.95	0.56
0.9621	334.15	0.56
0.9698	335.05	0.57
0.9699	335.85	0.57
0.973	336.15	0.57

System: acetonitrile + tetrahydro-1,4-oxazine; phases: Gas, Liquid
Fixed: Pressure, kPa = 10
Property: Mole fraction of tetrahydro-1,4-oxazine (Gas); method: Chromatography
Mole fraction of tetrahydro-1,4-oxazine	Mole fraction of tetrahydro-1,4-oxazine	uncertainty
0.066	0.0005	0.0001
0.302	0.025	0.001
0.498	0.117	0.002
0.711	0.236	0.003
0.809	0.364	0.005
0.847	0.445	0.006
0.8664	0.48	0.01
0.9119	0.595	0.006
0.951	0.7957	0.0036
0.961	0.856	0.003
0.9621	0.851	0.003
0.9698	0.907	0.002
0.9699	0.92	0.002
0.973	0.945	0.001

System: acetonitrile + hexane + tetrahydro-1,4-oxazine; phases: Liquid mixture 1, Liquid mixture 2
Fixed: Temperature, K = 298.15
Fixed: Pressure, kPa = 10
Property: Mole fraction of acetonitrile (Liquid mixture 1); method: Titration method
Mole fraction of hexane	Mole fraction of acetonitrile	uncertainty
0.926	0.06	0.01
0.887	0.07	0.01
0.83	0.077	0.01

System: acetonitrile + hexane + tetrahydro-1,4-oxazine; phases: Liquid mixture 2, Liquid mixture 1
Fixed: Temperature, K = 298.15
Fixed: Pressure, kPa = 10
Property: Mole fraction of hexane (Liquid mixture 2); method: Titration method
Mole fraction of acetonitrile	Mole fraction of hexane	uncertainty
0.909	0.05	0.01
0.761	0.07	0.01
0.63	0.096	0.01

System: acetonitrile + tetrahydro-1,4-oxazine + heptane; phases: Liquid mixture 2, Liquid mixture 1
Fixed: Temperature, K = 298.15
Fixed: Pressure, kPa = 10
Property: Mole fraction of heptane (Liquid mixture 2); method: Titration method
Mole fraction of acetonitrile	Mole fraction of heptane	uncertainty
0.818	0.091	0.02
0.911	0.041	0.02
0.65	0.09	0.02
0.418	0.132	0.02

System: acetonitrile + tetrahydro-1,4-oxazine + heptane; phases: Liquid mixture 1, Liquid mixture 2
Fixed: Temperature, K = 298.15
Fixed: Pressure, kPa = 10
Property: Mole fraction of acetonitrile (Liquid mixture 1); method: Titration method
Mole fraction of heptane	Mole fraction of acetonitrile	uncertainty
0.85	0.12	0.08
0.86	0.12	0.08
0.82	0.09	0.08
0.7	0.11	0.08

System: acetonitrile + tetrahydro-1,4-oxazine + octane; phases: Liquid mixture 2, Liquid mixture 1
Fixed: Temperature, K = 298.15
Fixed: Pressure, kPa = 10
Property: Mole fraction of octane (Liquid mixture 2); method: Titration method
Mole fraction of acetonitrile	Mole fraction of octane	uncertainty
0.908	0.0261	0.01
0.49	0.084	0.01
0.73	0.0451	0.0102

System: acetonitrile + tetrahydro-1,4-oxazine + octane; phases: Liquid mixture 1, Liquid mixture 2
Fixed: Temperature, K = 298.15
Fixed: Pressure, kPa = 10
Property: Mole fraction of acetonitrile (Liquid mixture 1); method: Titration method
Mole fraction of octane	Mole fraction of acetonitrile	uncertainty
0.918	0.082	0.01
0.7	0.097	0.01
0.784	0.091	0.01
