Measured thermophysical data. Solubility Determination and Correlation for Pyridoxal 5-Phosphate Monohydrate in Different Binary Solvents from 278.15 K to 318.15 K
Source: J. Chem. Eng. Data, 2018, 10.1021/acs.jced.8b00309
Compound 1: pyridoxal 5-phosphate, C8H10NO6P, InChI=1S/C8H10NO6P/c1-5-8(11)7(3-10)6(2-9-5)4-15-16(12,13)14/h2-3,11H,4H2,1H3,(H2,12,13,14), purity 98%
Compound 2: pyridoxal 5-phosphate hydrate, C8H12NO7P, InChI=1S/C8H10NO6P.H2O/c1-5-8(11)7(3-10)6(2-9-5)4-15-16(12,13)14;/h2-3,11H,4H2,1H3,(H2,12,13,14);1H2, purity 98%
Compound 3: methanol, CH4O, InChI=1S/CH4O/c1-2/h2H,1H3, purity 99.5%
Compound 4: ethanol, C2H6O, InChI=1S/C2H6O/c1-2-3/h3H,2H2,1H3, purity 99.7%
Compound 5: propan-2-ol, C3H8O, InChI=1S/C3H8O/c1-3(2)4/h3-4H,1-2H3, purity 99.5%
Compound 6: acetone, C3H6O, InChI=1S/C3H6O/c1-3(2)4/h1-2H3, purity 99.4%
Compound 7: water, H2O, InChI=1S/H2O/h1H2, purity 99.9%

System: pyridoxal 5-phosphate hydrate; phases: Crystal, Liquid, Air at 1 atmosphere
Property: Normal melting temperature, K (Crystal); method: DTA
Normal melting temperature, K	uncertainty
421.71	0.5

System: pyridoxal 5-phosphate hydrate; phases: Crystal
Property: Mass density, kg/m3 (Crystal); method: Pycnometric method
Temperature, K	Pressure, kPa	Mass density, kg/m3	uncertainty
293	101.325	1536	5

System: pyridoxal 5-phosphate + methanol + water; phases: Liquid, Crystal of intercomponent compound 1
Fixed: Pressure, kPa = 101.1
Property: Mole fraction of pyridoxal 5-phosphate (Liquid); method: Titration method
Temperature, K	Solvent: Mole fraction of water	Mole fraction of pyridoxal 5-phosphate	uncertainty
278.15	0	4.5e-06	3.6e-06
283.15	0	5.92e-06	4.74e-06
288.15	0	8.99e-06	7.19e-06
293.15	0	1.332e-05	1.066e-05
298.15	0	1.827e-05	1.462e-05
303.15	0	2.39e-05	1.912e-05
308.15	0	3.181e-05	2.545e-05
313.15	0	4.172e-05	3.338e-05
318.15	0	5.383e-05	4.306e-05
278.15	0.2	1.938e-05	1.55e-05
283.15	0.2	2.579e-05	2.063e-05
288.15	0.2	3.488e-05	2.79e-05
293.15	0.2	4.425e-05	3.54e-05
298.15	0.2	5.416e-05	4.333e-05
303.15	0.2	6.53e-05	5.224e-05
308.15	0.2	8.198e-05	6.558e-05
313.15	0.2	0.00010394	8.315e-05
318.15	0.2	0.000121	9.68e-05
278.15	0.4	2.78e-05	2.224e-05
283.15	0.4	3.891e-05	3.113e-05
288.15	0.4	5.188e-05	4.15e-05
293.15	0.4	6.656e-05	5.325e-05
298.15	0.4	8.551e-05	6.841e-05
303.15	0.4	0.00011094	8.875e-05
308.15	0.4	0.00014602	0.00011682
313.15	0.4	0.00020199	0.00016159
318.15	0.4	0.00025498	0.00020399
278.15	0.6	4.083e-05	3.266e-05
283.15	0.6	5.748e-05	4.598e-05
288.15	0.6	7.775e-05	6.22e-05
293.15	0.6	0.00010526	8.421e-05
298.15	0.6	0.00014395	0.00011516
303.15	0.6	0.0002335	0.0001868
308.15	0.6	0.00036708	0.00029367
313.15	0.6	0.00055702	0.00044562
318.15	0.6	0.00091027	0.00072822
278.15	0.8	0.00012495	9.996e-05
283.15	0.8	0.0001482	0.00011856
288.15	0.8	0.00018482	0.00014786
293.15	0.8	0.00024726	0.00019781
298.15	0.8	0.00033174	0.00026539
303.15	0.8	0.00043203	0.00034563
308.15	0.8	0.000554	0.0004432
313.15	0.8	0.0007177	0.00057416
318.15	0.8	0.00097944	0.00078356
278.15	1	0.00021563	0.0001725
283.15	1	0.00024724	0.00019779
288.15	1	0.00028384	0.00022707
293.15	1	0.00033264	0.00026611
298.15	1	0.00038814	0.00031051
303.15	1	0.00046546	0.00037237
308.15	1	0.00055798	0.00044639
313.15	1	0.00065961	0.00052769
318.15	1	0.00080284	0.00064227

System: pyridoxal 5-phosphate + ethanol + water; phases: Liquid, Crystal of intercomponent compound 1
Fixed: Pressure, kPa = 101.1
Property: Mole fraction of pyridoxal 5-phosphate (Liquid); method: Titration method
Temperature, K	Solvent: Mole fraction of water	Mole fraction of pyridoxal 5-phosphate	uncertainty
278.15	0	2.81e-06	2.25e-06
283.15	0	3.12e-06	2.5e-06
288.15	0	3.5e-06	2.8e-06
293.15	0	3.95e-06	3.16e-06
298.15	0	4.18e-06	3.34e-06
303.15	0	4.86e-06	3.89e-06
308.15	0	6e-06	4.8e-06
313.15	0	7.22e-06	5.78e-06
318.15	0	8.59e-06	6.87e-06
278.15	0.2	6.91e-06	5.53e-06
283.15	0.2	7.86e-06	6.29e-06
288.15	0.2	9.43e-06	7.54e-06
293.15	0.2	1.169e-05	9.35e-06
298.15	0.2	1.402e-05	1.122e-05
303.15	0.2	1.71e-05	1.368e-05
308.15	0.2	2.087e-05	1.67e-05
313.15	0.2	2.344e-05	1.875e-05
318.15	0.2	2.91e-05	2.328e-05
278.15	0.4	1.194e-05	9.55e-06
283.15	0.4	1.785e-05	1.428e-05
288.15	0.4	2.508e-05	2.006e-05
293.15	0.4	3.381e-05	2.705e-05
298.15	0.4	4.387e-05	3.51e-05
303.15	0.4	5.537e-05	4.43e-05
308.15	0.4	6.875e-05	5.5e-05
313.15	0.4	7.749e-05	6.199e-05
318.15	0.4	8.905e-05	7.124e-05
278.15	0.6	2.923e-05	2.338e-05
283.15	0.6	4.233e-05	3.386e-05
288.15	0.6	5.744e-05	4.595e-05
293.15	0.6	7.573e-05	6.058e-05
298.15	0.6	9.567e-05	7.654e-05
303.15	0.6	0.00011805	9.444e-05
308.15	0.6	0.0001728	0.00013824
313.15	0.6	0.00024568	0.00019655
318.15	0.6	0.00031229	0.00024983
278.15	0.8	3.521e-05	2.817e-05
283.15	0.8	5.488e-05	4.391e-05
288.15	0.8	0.0001075	8.6e-05
293.15	0.8	0.0001608	0.00012864
298.15	0.8	0.00021814	0.00017451
303.15	0.8	0.00029512	0.0002361
308.15	0.8	0.00038975	0.0003118
313.15	0.8	0.00051315	0.00041052
318.15	0.8	0.00061723	0.00049379
278.15	1	0.00021563	0.0001725
283.15	1	0.00024724	0.00019779
288.15	1	0.00028384	0.00022707
293.15	1	0.00033264	0.00026611
298.15	1	0.00038814	0.00031051
303.15	1	0.00046546	0.00037237
308.15	1	0.00055798	0.00044639
313.15	1	0.00065961	0.00052769
318.15	1	0.00080284	0.00064227

System: pyridoxal 5-phosphate + propan-2-ol + water; phases: Liquid, Crystal of intercomponent compound 1
Fixed: Pressure, kPa = 101.1
Property: Mole fraction of pyridoxal 5-phosphate (Liquid); method: Titration method
Temperature, K	Solvent: Mole fraction of water	Mole fraction of pyridoxal 5-phosphate	uncertainty
278.15	0	2.35e-06	1.88e-06
283.15	0	2.45e-06	1.96e-06
288.15	0	2.77e-06	2.22e-06
293.15	0	3.2e-06	2.56e-06
298.15	0	3.73e-06	2.98e-06
303.15	0	4.59e-06	3.67e-06
308.15	0	5.66e-06	4.53e-06
313.15	0	7.04e-06	5.63e-06
318.15	0	9.17e-06	7.34e-06
278.15	0.2	4.72e-06	3.78e-06
283.15	0.2	5.03e-06	4.02e-06
288.15	0.2	5.66e-06	4.53e-06
293.15	0.2	6.92e-06	5.54e-06
298.15	0.2	8.49e-06	6.79e-06
303.15	0.2	1.038e-05	8.3e-06
308.15	0.2	1.289e-05	1.031e-05
313.15	0.2	1.572e-05	1.258e-05
318.15	0.2	2.075e-05	1.66e-05
278.15	0.4	1.26e-05	1.008e-05
283.15	0.4	1.511e-05	1.209e-05
288.15	0.4	1.814e-05	1.451e-05
293.15	0.4	2.191e-05	1.753e-05
298.15	0.4	2.62e-05	2.096e-05
303.15	0.4	3.073e-05	2.458e-05
308.15	0.4	3.577e-05	2.862e-05
313.15	0.4	4.131e-05	3.305e-05
318.15	0.4	4.786e-05	3.829e-05
278.15	0.6	2.531e-05	2.025e-05
283.15	0.6	3.514e-05	2.811e-05
288.15	0.6	4.59e-05	3.672e-05
293.15	0.6	5.742e-05	4.594e-05
298.15	0.6	7.008e-05	5.606e-05
303.15	0.6	8.386e-05	6.709e-05
308.15	0.6	9.878e-05	7.903e-05
313.15	0.6	0.00011634	9.307e-05
318.15	0.6	0.00012861	0.00010289
278.15	0.8	4.808e-05	3.847e-05
283.15	0.8	6.73e-05	5.384e-05
288.15	0.8	9.124e-05	7.299e-05
293.15	0.8	0.00012177	9.742e-05
298.15	0.8	0.00016078	0.00012863
303.15	0.8	0.00020638	0.00016511
308.15	0.8	0.00026421	0.00021137
313.15	0.8	0.00033031	0.00026425
318.15	0.8	0.00040806	0.00032645
278.15	1	0.00021563	0.0001725
283.15	1	0.00024724	0.00019779
288.15	1	0.00028384	0.00022707
293.15	1	0.00033264	0.00026611
298.15	1	0.00038814	0.00031051
303.15	1	0.00046546	0.00037237
308.15	1	0.00055798	0.00044639
313.15	1	0.00065961	0.00052769
318.15	1	0.00080284	0.00064227

System: pyridoxal 5-phosphate + acetone + water; phases: Liquid, Crystal of intercomponent compound 1
Fixed: Pressure, kPa = 101.1
Property: Mole fraction of pyridoxal 5-phosphate (Liquid); method: Titration method
Temperature, K	Solvent: Mole fraction of water	Mole fraction of pyridoxal 5-phosphate	uncertainty
278.15	0	4.8e-07	3.8e-07
283.15	0	6.8e-07	5.4e-07
288.15	0	8.7e-07	7e-07
293.15	0	1.26e-06	1.01e-06
298.15	0	1.74e-06	1.39e-06
303.15	0	2.42e-06	1.94e-06
308.15	0	3.19e-06	2.55e-06
313.15	0	4.06e-06	3.25e-06
318.15	0	5.02e-06	4.02e-06
278.15	0.2	1.89e-06	1.51e-06
283.15	0.2	2.08e-06	1.66e-06
288.15	0.2	2.33e-06	1.86e-06
293.15	0.2	2.7e-06	2.16e-06
298.15	0.2	3.08e-06	2.46e-06
303.15	0.2	3.52e-06	2.82e-06
308.15	0.2	3.96e-06	3.17e-06
313.15	0.2	4.4e-06	3.52e-06
318.15	0.2	5.09e-06	4.07e-06
278.15	0.4	3.84e-06	3.07e-06
283.15	0.4	4.4e-06	3.52e-06
288.15	0.4	5.16e-06	4.13e-06
293.15	0.4	6.1e-06	4.88e-06
298.15	0.4	7.29e-06	5.83e-06
303.15	0.4	8.68e-06	6.94e-06
308.15	0.4	1.05e-05	8.4e-06
313.15	0.4	1.233e-05	9.86e-06
318.15	0.4	1.503e-05	1.202e-05
278.15	0.6	1.094e-05	8.75e-06
283.15	0.6	1.616e-05	1.293e-05
288.15	0.6	2.181e-05	1.745e-05
293.15	0.6	2.791e-05	2.233e-05
298.15	0.6	3.451e-05	2.761e-05
303.15	0.6	4.105e-05	3.284e-05
308.15	0.6	4.84e-05	3.872e-05
313.15	0.6	5.6e-05	4.48e-05
318.15	0.6	6.015e-05	4.812e-05
278.15	0.8	2.663e-05	2.131e-05
283.15	0.8	3.379e-05	2.703e-05
288.15	0.8	4.636e-05	3.709e-05
293.15	0.8	6.4e-05	5.12e-05
298.15	0.8	8.736e-05	6.989e-05
303.15	0.8	0.00011638	9.311e-05
308.15	0.8	0.00015166	0.00012133
313.15	0.8	0.00019184	0.00015348
318.15	0.8	0.00025623	0.00020499
278.15	1	0.0002156	0.0001725
283.15	1	0.00024724	0.00019779
288.15	1	0.00028384	0.00022707
293.15	1	0.0003326	0.0002661
298.15	1	0.00038814	0.00031051
303.15	1	0.0004654	0.0003723
308.15	1	0.00055798	0.00044639
313.15	1	0.0006596	0.0005277
318.15	1	0.00080284	0.00064227

System: pyridoxal 5-phosphate + methanol; phases: Liquid, Crystal of intercomponent compound 1
Fixed: Pressure, kPa = 101.1
Property: Mole fraction of pyridoxal 5-phosphate (Liquid); method: Titration method
Temperature, K	Mole fraction of pyridoxal 5-phosphate	uncertainty
278.15	4.5e-06	3.6e-06
283.15	5.92e-06	4.74e-06
288.15	8.99e-06	7.19e-06
293.15	1.332e-05	1.066e-05
298.15	1.827e-05	1.462e-05
303.15	2.39e-05	1.912e-05
308.15	3.181e-05	2.545e-05
313.15	4.172e-05	3.338e-05
318.15	5.383e-05	4.306e-05

System: pyridoxal 5-phosphate + water; phases: Liquid, Crystal of intercomponent compound 1
Fixed: Pressure, kPa = 101.1
Property: Mole fraction of pyridoxal 5-phosphate (Liquid); method: Titration method
Temperature, K	Mole fraction of pyridoxal 5-phosphate	uncertainty
278.15	0.00021563	0.0001725
283.15	0.00024724	0.00019779
288.15	0.00028384	0.00022707
293.15	0.00033264	0.00026611
298.15	0.00038814	0.00031051
303.15	0.00046546	0.00037237
308.15	0.00055798	0.00044639
313.15	0.00065961	0.00052769
318.15	0.00080284	0.00064227
278.15	0.0002156	0.0001725
293.15	0.0003326	0.0002661
303.15	0.0004654	0.0003723
313.15	0.0006596	0.0005277

System: pyridoxal 5-phosphate + ethanol; phases: Liquid, Crystal of intercomponent compound 1
Fixed: Pressure, kPa = 101.1
Property: Mole fraction of pyridoxal 5-phosphate (Liquid); method: Titration method
Temperature, K	Mole fraction of pyridoxal 5-phosphate	uncertainty
278.15	2.81e-06	2.25e-06
283.15	3.12e-06	2.5e-06
288.15	3.5e-06	2.8e-06
293.15	3.95e-06	3.16e-06
298.15	4.18e-06	3.34e-06
303.15	4.86e-06	3.89e-06
308.15	6e-06	4.8e-06
313.15	7.22e-06	5.78e-06
318.15	8.59e-06	6.87e-06

System: pyridoxal 5-phosphate + propan-2-ol; phases: Liquid, Crystal of intercomponent compound 1
Fixed: Pressure, kPa = 101.1
Property: Mole fraction of pyridoxal 5-phosphate (Liquid); method: Titration method
Temperature, K	Mole fraction of pyridoxal 5-phosphate	uncertainty
278.15	2.35e-06	1.88e-06
283.15	2.45e-06	1.96e-06
288.15	2.77e-06	2.22e-06
293.15	3.2e-06	2.56e-06
298.15	3.73e-06	2.98e-06
303.15	4.59e-06	3.67e-06
308.15	5.66e-06	4.53e-06
313.15	7.04e-06	5.63e-06
318.15	9.17e-06	7.34e-06

System: pyridoxal 5-phosphate + acetone; phases: Liquid, Crystal of intercomponent compound 1
Fixed: Pressure, kPa = 101.1
Property: Mole fraction of pyridoxal 5-phosphate (Liquid); method: Titration method
Temperature, K	Mole fraction of pyridoxal 5-phosphate	uncertainty
278.15	4.8e-07	3.8e-07
283.15	6.8e-07	5.4e-07
288.15	8.7e-07	7e-07
293.15	1.26e-06	1.01e-06
298.15	1.74e-06	1.39e-06
303.15	2.42e-06	1.94e-06
308.15	3.19e-06	2.55e-06
313.15	4.06e-06	3.25e-06
318.15	5.02e-06	4.02e-06
