Measured thermophysical data. Proposal for a Viscous Test Mixture Densities, Viscosities, and Vapor Liquid Equilibrium Data of the Binary Mixture 2-Methyl-2-butanol + 2-Methyl-1-propanol
Source: J. Chem. Eng. Data, 2016, 10.1021/acs.jced.5b00537
Compound 1: 2-methylbutan-2-ol, C5H12O, InChI=1S/C5H12O/c1-4-5(2,3)6/h6H,4H2,1-3H3, purity 99.9%
Compound 2: 2-methyl-1-propanol, C4H10O, InChI=1S/C4H10O/c1-4(2)3-5/h4-5H,3H2,1-2H3, purity 99.9%

System: 2-methylbutan-2-ol; phases: Liquid
Property: Mass density, kg/m3 (Liquid); method: Vibrating tube method
Temperature, K	Pressure, kPa	Mass density, kg/m3	uncertainty
298.15	101.325	804.28	0.62

System: 2-methylbutan-2-ol; phases: Liquid, Gas
Property: Vapor or sublimation pressure, kPa (Liquid); method: Ebulliometric method (Recirculating still)
Temperature, K	Vapor or sublimation pressure, kPa	uncertainty
296.61	1.992	0.7
297.94	2.19	0.7
299.29	2.388	0.7
300.33	2.589	0.7
301.46	2.791	0.7
302.54	2.999	0.7
310.7	4.984	0.7
311.35	5.181	0.7
311.98	5.383	0.701
312.29	5.49	0.701
313.76	5.991	0.701
315.13	6.487	0.701
316.4	6.987	0.701
317.37	7.387	0.701
322.63	9.978	0.7
323.15	10.181	0.702
323.49	10.376	0.702
323.84	10.578	0.702
324.14	10.778	0.702
324.51	10.975	0.702
325.37	11.575	0.702
326.73	12.376	0.702
327.62	12.967	0.705
327.81	13.173	0.705
329.05	13.97	0.702
330.38	14.963	0.703
336.11	19.94	0.701
337.58	21.446	0.705
338.97	22.94	0.705
340.32	24.437	0.706
341.59	25.919	0.707
341.57	25.935	0.707
342.39	26.938	0.707
348.11	34.908	0.71
351.17	39.891	0.701
353.93	44.883	0.717
356.46	49.882	0.721
361.02	59.916	0.733
372.63	93.144	0.748
373.16	94.889	0.754
373.6	96.537	0.767
374.05	98.013	0.755
374.53	99.81	0.753
374.93	101.041	1.33
376.03	104.986	1.334
377.33	109.949	1.336
378.63	115.017	1.338
379.87	120.006	1.341
381.05	124.963	1.343
296.7	1.99	0.7
322.92	10	0.7
336.26	19.99	0.7
351.33	39.95	0.7
373.29	95.01	0.77

System: 2-methylbutan-2-ol; phases: Liquid
Fixed: Pressure, kPa = 101
Property: Mass density, kg/m3 (Liquid); method: Vibrating tube method
Temperature, K	Mass density, kg/m3	uncertainty
293.15	808.77	0.24
303.15	799.74	0.24
313.15	790.35	0.24
323.15	780.66	0.24
333.15	770.4	0.24
343.15	759.8	0.25
353.15	749.13	0.3
363.15	738.77	0.3

System: 2-methylbutan-2-ol; phases: Liquid
Fixed: Pressure, kPa = 101
Property: Viscosity, Pa*s (Liquid); method: Cone and plate viscometry
Temperature, K	Viscosity, Pa*s	uncertainty
293.15	0.004596	0.000147
303.15	0.002983	0.000144
313.15	0.002078	0.000142
323.15	0.001494	0.000141
333.15	0.001093	0.000141

System: 2-methyl-1-propanol; phases: Liquid
Property: Mass density, kg/m3 (Liquid); method: Vibrating tube method
Temperature, K	Pressure, kPa	Mass density, kg/m3	uncertainty
298.15	101.325	797.83	0.62

System: 2-methyl-1-propanol; phases: Liquid, Gas
Property: Vapor or sublimation pressure, kPa (Liquid); method: Ebulliometric method (Recirculating still)
Temperature, K	Vapor or sublimation pressure, kPa	uncertainty
296.87	1.391	0.7
298.77	1.593	0.7
300.53	1.796	0.7
302.12	1.995	0.7
302.3	2	0.7
309.88	3.289	0.7
311.74	3.692	0.7
313.42	4.095	0.7
314.93	4.489	0.7
316.71	4.991	0.7
316.78	4.995	0.7
322.51	6.986	0.7
323.97	7.587	0.701
325.33	8.182	0.701
326.61	8.784	0.701
327.82	9.384	0.701
329.02	9.989	0.701
336.03	14.473	0.702
337.45	15.565	0.702
338.83	16.665	0.702
340.11	17.762	0.702
342.37	19.952	0.7
342.52	19.989	0.7
357.52	39.936	0.705
362.71	49.874	0.711
367.13	59.851	0.715
370.94	69.828	0.719
374.36	79.821	0.724
377.44	89.763	0.727
302.29	2	0.7
329.01	9.99	0.7
342.51	19.99	0.7
357.51	39.95	0.71
378.97	94.99	0.73

System: 2-methyl-1-propanol; phases: Liquid
Fixed: Pressure, kPa = 101
Property: Mass density, kg/m3 (Liquid); method: Vibrating tube method
Temperature, K	Mass density, kg/m3	uncertainty
293.15	801.75	0.24
303.15	794.16	0.24
313.15	786.27	0.24
323.15	778.28	0.24
333.15	769.74	0.24
343.15	760.83	0.24
353.15	751.67	0.3
363.15	741.9	0.3

System: 2-methyl-1-propanol; phases: Liquid
Fixed: Pressure, kPa = 101
Property: Viscosity, Pa*s (Liquid); method: Cone and plate viscometry
Temperature, K	Viscosity, Pa*s	uncertainty
293.15	0.004315	0.000145
303.15	0.003089	0.000143
313.15	0.002261	0.000142
323.15	0.001701	0.000141
333.15	0.00129	0.000141

System: 2-methylbutan-2-ol + 2-methyl-1-propanol; phases: Liquid, Gas
Property: Vapor or sublimation pressure, kPa (Liquid); method: Ebulliometric method (Recirculating still)
Temperature, K	Mole fraction of 2-methylbutan-2-ol	Vapor or sublimation pressure, kPa	uncertainty
302.29	0	2	0.7
329.01	0	9.99	0.7
342.51	0	19.99	0.71
357.51	0	39.95	0.74
378.97	0	94.99	0.82
328.87	0.002	9.98	0.73
342.33	0.021	19.99	0.74
302.14	0.025	2	0.7
328.87	0.027	9.99	0.7
357.41	0.027	39.97	0.87
328.8	0.028	9.98	0.7
342.23	0.034	19.98	0.84
357.31	0.035	39.98	3.01
378.91	0.04	95	0.82
378.91	0.044	94.98	0.82
378.77	0.083	94.96	0.82
328.7	0.086	9.98	0.71
378.65	0.094	95.02	0.82
357.05	0.095	39.98	0.74
341.93	0.108	19.98	0.71
328.28	0.143	9.99	0.71
378.32	0.148	94.98	0.82
378.24	0.149	94.96	0.82
301.55	0.174	2	0.7
341.63	0.177	19.99	0.71
356.69	0.177	39.98	0.74
328.07	0.198	9.99	0.71
327.88	0.229	9.99	0.71
301.06	0.291	2	0.7
341.06	0.292	19.99	0.72
356.1	0.294	39.98	0.73
327.3	0.33	9.99	0.7
377.26	0.363	94.96	0.82
340.55	0.38	19.99	0.71
355.59	0.38	39.98	0.74
300.76	0.386	2	0.7
326.92	0.39	9.99	0.7
376.74	0.451	94.95	0.82
339.93	0.461	19.99	0.72
300.25	0.463	2	0.7
355	0.464	39.98	0.74
326.07	0.495	9.99	0.7
326.08	0.495	9.99	0.7
339.59	0.51	19.99	0.71
299.99	0.511	2.01	0.7
354.76	0.515	39.98	0.74
376.29	0.538	95.01	0.82
325.7	0.552	9.99	0.71
325.72	0.553	9.99	0.71
339.26	0.576	19.99	0.71
299.53	0.577	2	0.7
354.23	0.579	39.98	0.74
325.4	0.602	9.99	0.74
325.38	0.603	9.99	0.74
325.3	0.607	9.99	0.74
325.3	0.607	9.99	0.74
325.28	0.613	9.99	0.74
325.27	0.614	9.99	0.74
375.8	0.614	94.97	0.82
375.54	0.646	94.98	0.82
325.05	0.653	9.99	0.71
374.96	0.702	94.88	0.82
324.66	0.704	9.99	0.71
374.66	0.752	94.95	0.82
324.29	0.756	9.99	0.7
374.69	0.765	94.87	0.82
298.3	0.766	2	0.7
337.95	0.768	19.99	0.71
353.07	0.769	39.96	0.74
323.88	0.818	9.99	0.7
352.22	0.851	40	0.75
337.07	0.852	19.96	0.71
374.05	0.859	94.95	0.82
323.59	0.865	9.99	0.71
323.49	0.877	9.99	0.71
351.73	0.912	39.98	0.75
373.63	0.912	94.92	0.82
323.26	0.921	9.99	0.71
351.67	0.923	40	1.3
336.62	0.968	19.99	0.74
297.11	0.97	2	0.7
296.7	1	1.99	0.7
336.26	1	19.99	0.71
351.33	1	39.95	0.74
322.92	1	10	0.7
373.29	1	95.01	0.82

System: 2-methylbutan-2-ol + 2-methyl-1-propanol; phases: Gas, Liquid
Property: Mole fraction of 2-methylbutan-2-ol (Gas); method: Chromatography
Temperature, K	Mole fraction of 2-methylbutan-2-ol	Mole fraction of 2-methylbutan-2-ol	uncertainty
302.29	0	0	
329.01	0	0	
342.51	0	0	
357.51	0	0	
378.97	0	0	
328.87	0.002	0.002	0.002
342.33	0.021	0.026	0.005
302.14	0.025	0.03	0.005
328.87	0.027	0.032	0.005
357.41	0.027	0.032	0.005
328.8	0.028	0.033	0.005
342.23	0.034	0.041	0.005
357.31	0.035	0.041	0.005
378.91	0.04	0.046	0.005
378.91	0.044	0.051	0.005
378.77	0.083	0.095	0.005
328.7	0.086	0.103	0.005
378.65	0.094	0.107	0.005
357.05	0.095	0.111	0.005
341.93	0.108	0.129	0.005
328.28	0.143	0.171	0.005
378.32	0.148	0.167	0.005
378.24	0.149	0.17	0.005
301.55	0.174	0.212	0.005
341.63	0.177	0.212	0.004
356.69	0.177	0.208	0.004
328.07	0.198	0.235	0.005
327.88	0.229	0.274	0.004
301.06	0.291	0.358	0.004
341.06	0.292	0.347	0.004
356.1	0.294	0.345	0.004
327.3	0.33	0.396	0.005
377.26	0.363	0.408	0.005
340.55	0.38	0.447	0.005
355.59	0.38	0.438	0.005
300.76	0.386	0.464	0.005
326.92	0.39	0.463	0.005
376.74	0.451	0.501	0.005
339.93	0.461	0.539	0.005
300.25	0.463	0.563	0.005
355	0.464	0.531	0.005
326.07	0.495	0.585	0.005
326.08	0.495	0.577	0.005
339.59	0.51	0.59	0.005
299.99	0.511	0.613	0.004
354.76	0.515	0.581	0.005
376.29	0.538	0.59	0.005
325.7	0.552	0.638	0.004
325.72	0.553	0.637	0.004
339.26	0.576	0.655	0.004
299.53	0.577	0.678	0.004
354.23	0.579	0.648	0.004
325.4	0.602	0.694	0.004
325.38	0.603	0.69	0.004
325.3	0.607	0.692	0.004
325.3	0.607	0.693	0.004
325.28	0.613	0.698	0.004
325.27	0.614	0.696	0.004
375.8	0.614	0.663	0.004
375.54	0.646	0.697	0.004
325.05	0.653	0.741	0.004
374.96	0.702	0.749	0.004
324.66	0.704	0.782	0.003
374.66	0.752	0.797	0.003
324.29	0.756	0.816	0.004
374.69	0.765	0.807	0.004
298.3	0.766	0.846	0.004
337.95	0.768	0.829	0.004
353.07	0.769	0.82	0.004
323.88	0.818	0.871	0.004
352.22	0.851	0.89	0.004
337.07	0.852	0.894	0.004
374.05	0.859	0.889	0.004
323.59	0.865	0.912	0.004
323.49	0.877	0.918	0.004
351.73	0.912	0.937	0.004
373.63	0.912	0.931	0.004
323.26	0.921	0.948	0.004
351.67	0.923	0.944	0.004
336.62	0.968	0.979	0.004
297.11	0.97	0.982	0.004
296.7	1	1	
336.26	1	1	
351.33	1	1	
322.92	1	1	
373.29	1	1	

System: 2-methylbutan-2-ol + 2-methyl-1-propanol; phases: Liquid
Fixed: Pressure, kPa = 100
Property: Mass density, kg/m3 (Liquid); method: Vibrating tube method
Temperature, K	Mole fraction of 2-methylbutan-2-ol	Mass density, kg/m3	uncertainty
293.15	0	801.75	0.61
293.15	0.101	803.58	0.61
293.15	0.2	805.09	0.61
293.15	0.301	806.61	0.61
293.15	0.4	807.99	0.61
293.15	0.5	809.31	0.61
293.15	0.599	810.29	0.61
293.15	0.7	810.83	0.61
293.15	0.8	810.82	0.61
293.15	0.9	810.12	0.61
293.15	1	808.77	0.61
303.15	0	794.16	0.61
303.15	0.101	795.96	0.61
303.15	0.2	797.22	0.61
303.15	0.301	798.63	0.61
303.15	0.4	799.87	0.61
303.15	0.5	800.87	0.61
303.15	0.599	801.55	0.61
303.15	0.7	801.84	0.62
303.15	0.8	801.61	0.62
303.15	0.9	800.89	0.62
303.15	1	799.74	0.62
313.15	0	786.27	0.61
313.15	0.101	788	0.61
313.15	0.2	789.04	0.61
313.15	0.301	790.24	0.61
313.15	0.4	791.21	0.62
313.15	0.5	791.89	0.62
313.15	0.599	792.32	0.62
313.15	0.7	792.36	0.62
313.15	0.8	792.06	0.62
313.15	0.9	791.35	0.62
313.15	1	790.35	0.62
323.15	0	778.28	0.62
323.15	0.101	779.8	0.62
323.15	0.2	780.62	0.62
323.15	0.301	781.62	0.62
323.15	0.4	782.29	0.62
323.15	0.5	782.77	0.62
323.15	0.599	782.89	0.62
323.15	0.7	782.77	0.62
323.15	0.8	782.3	0.62
323.15	0.9	781.58	0.62
323.15	1	780.66	0.62
333.15	0	769.74	0.62
333.15	0.101	771.08	0.62
333.15	0.2	771.75	0.62
333.15	0.301	772.36	0.62
333.15	0.4	772.81	0.62
333.15	0.5	772.96	0.62
333.15	0.599	772.93	0.62
333.15	0.7	772.58	0.62
333.15	0.8	772.09	0.62
333.15	0.9	771.38	0.62
333.15	1	770.4	0.62
343.15	0	760.83	0.62
343.15	0.101	762.05	0.62
343.15	0.2	762.45	0.62
343.15	0.301	762.79	0.62
343.15	0.4	762.98	0.62
343.15	0.5	762.91	0.62
343.15	0.599	762.66	0.62
343.15	0.7	762.18	0.62
343.15	0.8	761.63	0.62
343.15	0.9	760.84	0.62
343.15	1	759.8	0.62
353.15	0	751.67	1.01
353.15	1	749.13	1.01
363.15	0	741.9	1.01
363.15	1	738.77	1.01

System: 2-methylbutan-2-ol + 2-methyl-1-propanol; phases: Liquid
Fixed: Pressure, kPa = 100
Property: Viscosity, Pa*s (Liquid); method: Cone and plate viscometry
Temperature, K	Mole fraction of 2-methylbutan-2-ol	Viscosity, Pa*s	uncertainty
293.15	0	0.004315	0.000202
293.15	0.101	0.004697	0.000202
293.15	0.2	0.005166	0.000202
293.15	0.301	0.005487	0.000203
293.15	0.4	0.005819	0.000203
293.15	0.5	0.006094	0.000203
293.15	0.599	0.006075	0.000203
293.15	0.7	0.005951	0.000203
293.15	0.8	0.005518	0.000203
293.15	0.9	0.005081	0.000202
293.15	1	0.004596	0.000202
303.15	0	0.003089	0.000201
303.15	0.101	0.003244	0.000201
303.15	0.2	0.003387	0.000201
303.15	0.301	0.003616	0.000201
303.15	0.4	0.003726	0.000202
303.15	0.5	0.003775	0.000202
303.15	0.599	0.003715	0.000202
303.15	0.7	0.003597	0.000202
303.15	0.8	0.003386	0.000201
303.15	0.9	0.003187	0.000201
303.15	1	0.002983	0.000201
313.15	0	0.002261	0.000201
313.15	0.101	0.002392	0.000201
313.15	0.2	0.002445	0.000201
313.15	0.301	0.002526	0.000201
313.15	0.4	0.002552	0.000201
313.15	0.5	0.002539	0.000201
313.15	0.599	0.00246	0.000201
313.15	0.7	0.002365	0.000201
313.15	0.8	0.002287	0.000201
313.15	0.9	0.002204	0.000201
313.15	1	0.002078	0.000201
323.15	0	0.001701	0.0002
323.15	0.101	0.001749	0.0002
323.15	0.2	0.001776	0.0002
323.15	0.301	0.0018	0.0002
323.15	0.4	0.001792	0.0002
323.15	0.5	0.001756	0.0002
323.15	0.599	0.001721	0.0002
323.15	0.7	0.001664	0.0002
323.15	0.8	0.001606	0.0002
323.15	0.9	0.001549	0.0002
323.15	1	0.001494	0.0002
333.15	0	0.00129	0.0002
333.15	0.101	0.00131	0.0002
333.15	0.2	0.001315	0.0002
333.15	0.301	0.001329	0.0002
333.15	0.4	0.001316	0.0002
333.15	0.5	0.001277	0.0002
333.15	0.599	0.001243	0.0002
333.15	0.7	0.001206	0.0002
333.15	0.8	0.001164	0.0002
333.15	0.9	0.001128	0.0002
333.15	1	0.001093	0.0002
