Measured thermophysical data. Experimental Measurements of the {CO2 (1) + Acetone (2) + Ivermectin (3)} System at High Pressure
Source: J. Chem. Eng. Data, 2019, 10.1021/acs.jced.9b00072
Compound 1: Ivermectin B1a, C48H74O14, InChI=1S/C48H74O14/c1-11-25(2)43-28(5)17-18-47(62-43)23-34-20-33(61-47)16-15-27(4)42(26(3)13-12-14-32-24-55-45-40(49)29(6)19-35(46(51)58-34)48(32,45)52)59-39-22-37(54-10)44(31(8)57-39)60-38-21-36(53-9)41(50)30(7)56-38/h12-15,19,25-26,28,30-31,33-45,49-50,52H,11,16-18,20-24H2,1-10H3/b13-12+,27-15+,32-14+/t25-,26-,28-,30-,31-,33+,34-,35-,36-,37-,38-,39-,40+,41-,42-,43+,44-,45+,47+,48+/m0/s1, purity 95%
Compound 2: acetone, C3H6O, InChI=1S/C3H6O/c1-3(2)4/h1-2H3, purity 99.5%
Compound 3: carbon dioxide, CO2, InChI=1S/CO2/c2-1-3, purity 99.9%

System: carbon dioxide + acetone + Ivermectin B1a; phases: Liquid, Gas
Property: Vapor or sublimation pressure, kPa (Liquid); method: Closed cell (Static) method
Molality, mol/kg of Ivermectin B1a	Temperature, K	Mole fraction of carbon dioxide	Vapor or sublimation pressure, kPa	uncertainty
0.029	303.15	0.34	2040	208
0.029	303.15	0.45	2370	242
0.029	303.15	0.55	2930	299
0.029	303.15	0.68	3890	401
0.029	303.15	0.78	4660	478
0.029	313.15	0.34	2440	248
0.029	313.15	0.45	2930	300
0.029	313.15	0.55	3570	368
0.029	313.15	0.68	4860	495
0.029	313.15	0.78	5710	582
0.029	323.15	0.34	2910	295
0.029	323.15	0.45	3590	367
0.029	323.15	0.55	4610	470
0.029	323.15	0.68	5710	580
0.029	323.15	0.78	6840	696
0.029	333.15	0.34	3380	342
0.029	333.15	0.45	4350	443
0.029	333.15	0.55	5280	534
0.029	333.15	0.68	6810	692
0.029	333.15	0.78	8140	826
0.043	303.15	0.39	1950	200
0.043	303.15	0.45	2550	264
0.043	303.15	0.54	3000	309
0.043	303.15	0.65	3780	388
0.043	303.15	0.74	4230	436
0.043	313.15	0.39	2350	240
0.043	313.15	0.45	3070	313
0.043	313.15	0.54	3720	379
0.043	313.15	0.65	4560	464
0.043	313.15	0.74	5270	538
0.043	323.15	0.39	2810	286
0.043	323.15	0.45	3660	372
0.043	323.15	0.54	4400	448
0.043	323.15	0.65	5440	553
0.043	323.15	0.74	6350	646
0.043	333.15	0.39	3270	332
0.043	333.15	0.45	4260	431
0.043	333.15	0.54	5270	535
0.043	333.15	0.65	6390	648
0.043	333.15	0.74	7530	763
0.058	303.15	0.34	1870	192
0.058	303.15	0.45	2440	249
0.058	303.15	0.55	3090	317
0.058	313.15	0.34	2300	235
0.058	313.15	0.45	2970	304
0.058	313.15	0.55	3770	385
0.058	323.15	0.34	2780	284
0.058	323.15	0.45	3630	371
0.058	323.15	0.55	4530	463
0.058	333.15	0.34	3340	340
0.058	333.15	0.45	4440	453
0.058	333.15	0.55	5570	568

System: carbon dioxide + acetone + Ivermectin B1a; phases: Liquid, Gas
Property: Vapor or sublimation pressure, kPa (Liquid); method: Closed cell (Static) method
Molality, mol/kg of Ivermectin B1a	Temperature, K	Mole fraction of carbon dioxide	Vapor or sublimation pressure, kPa	uncertainty
0.029	303.15	0.88	5400	553
0.029	313.15	0.88	6550	668
0.029	323.15	0.88	7900	800
0.029	333.15	0.88	9060	915
0.043	303.15	0.83	5150	528
0.043	303.15	0.88	5760	590
0.043	313.15	0.83	6240	635
0.043	313.15	0.88	6970	710
0.043	323.15	0.83	7350	747
0.043	323.15	0.88	8340	845
0.043	333.15	0.83	8750	888
0.043	333.15	0.88	9450	953
0.058	303.15	0.65	4050	415
0.058	303.15	0.76	5080	521
0.058	303.15	0.84	5430	561
0.058	313.15	0.65	4900	499
0.058	313.15	0.76	6050	614
0.058	313.15	0.84	6830	693
0.058	323.15	0.65	5730	584
0.058	323.15	0.76	7090	716
0.058	323.15	0.84	7710	777
0.058	333.15	0.65	6690	677
0.058	333.15	0.76	7940	799
0.058	333.15	0.84	8650	871
