Measured thermophysical data. Thermodynamic Properties and Phase Equilibria in the Water Tri-n-butyl Phosphate System
Source: J. Chem. Eng. Data, 2016, 10.1021/acs.jced.6b00582
Compound 1: tributyl phosphate, C12H27O4P, InChI=1S/C12H27O4P/c1-4-7-10-14-17(13,15-11-8-5-2)16-12-9-6-3/h4-12H2,1-3H3
Compound 2: water, H2O, InChI=1S/H2O/h1H2, purity 99.8%

System: tributyl phosphate + water; phases: Liquid
Fixed: Pressure, kPa = 100
Property: Mass density, kg/m3 (Liquid); method: Vibrating tube method
Temperature, K	Mole fraction of tributyl phosphate	Mass density, kg/m3	uncertainty
288.15	0.5196	984.5	0.5
288.15	0.5954	983.6	0.5
288.15	0.694	982.8	0.5
288.15	0.7419	982.4	0.5
288.15	0.7901	982.1	0.5
288.15	0.8413	981.9	0.5
288.15	0.888	981.7	0.5
288.15	0.9843	981.3	0.5
298.15	0.5196	975.5	0.5
298.15	0.5954	974.7	0.5
298.15	0.694	974	0.5
298.15	0.7419	973.7	0.5
298.15	0.7901	973.4	0.5
298.15	0.8413	973.2	0.5
298.15	0.888	973	0.5
298.15	0.9843	972.7	0.5
323.15	0.5196	953	0.5
323.15	0.5954	952.4	0.5
323.15	0.694	951.9	0.5
323.15	0.7419	951.7	0.5
323.15	0.7901	951.6	0.5
323.15	0.8413	951.5	0.5
323.15	0.888	951.5	0.5
323.15	0.9843	951.3	0.5
