Measured thermophysical data. Syntheses and Properties of Methoxy and Nitrile Functionalized Imidazolium Tris(pentafluoroethyl)trifluorophosphate Ionic Liquids
Source: J. Chem. Eng. Data, 2018, 10.1021/acs.jced.7b00281
Compound 1: 3-methyl-1-pentylimidazolium trifluorotris(perfluoroethyl)phosphate, C15H17F18N2P, InChI=1S/C9H17N2.C6F18P/c1-3-4-5-6-11-8-7-10(2)9-11;7-1(8,9)4(16,17)25(22,23,24,5(18,19)2(10,11)12)6(20,21)3(13,14)15/h7-9H,3-6H2,1-2H3;/q+1;-1
Compound 2: 1-(4-cyanobutyl)-3-methylimidazolium trifluorotris(perfluoroethyl)phosphate, C15H14F18N3P, InChI=1S/C9H14N3.C6F18P/c1-11-7-8-12(9-11)6-4-2-3-5-10;7-1(8,9)4(16,17)25(22,23,24,5(18,19)2(10,11)12)6(20,21)3(13,14)15/h7-9H,2-4,6H2,1H3;/q+1;-1
Compound 3: 1-(4-methoxybutyl)-3-methylimidazolium trifluorotris(perfluoroethyl)phosphate, C15H17F18N2OP, InChI=1S/C9H17N2O.C6F18P/c1-10-6-7-11(9-10)5-3-4-8-12-2;7-1(8,9)4(16,17)25(22,23,24,5(18,19)2(10,11)12)6(20,21)3(13,14)15/h6-7,9H,3-5,8H2,1-2H3;/q+1;-1

System: 3-methyl-1-pentylimidazolium trifluorotris(perfluoroethyl)phosphate; phases: Liquid
Property: Mass density, kg/m3 (Liquid); method: Pycnometric method
Temperature, K	Pressure, kPa	Mass density, kg/m3	uncertainty
308.15	101.325	1591	16

System: 3-methyl-1-pentylimidazolium trifluorotris(perfluoroethyl)phosphate; phases: Liquid
Fixed: Pressure, kPa = 101.325
Property: Viscosity, Pa*s (Liquid); method: Concentric cylinders viscometry
Temperature, K	Viscosity, Pa*s	uncertainty
298.15	0.1328	0.0269
303.15	0.0847	0.0171
308.15	0.0712	0.0144
313.15	0.0507	0.0102
318.15	0.0437	0.0088

System: 1-(4-cyanobutyl)-3-methylimidazolium trifluorotris(perfluoroethyl)phosphate; phases: Crystal, Liquid, Air at 1 atmosphere
Property: Triple point temperature, K (Crystal); method: VISOBS
Triple point temperature, K	uncertainty
305.15	2.03

System: 1-(4-cyanobutyl)-3-methylimidazolium trifluorotris(perfluoroethyl)phosphate; phases: Liquid
Property: Mass density, kg/m3 (Liquid); method: Pycnometric method
Temperature, K	Pressure, kPa	Mass density, kg/m3	uncertainty
308.15	101.325	1644	16

System: 1-(4-cyanobutyl)-3-methylimidazolium trifluorotris(perfluoroethyl)phosphate; phases: Liquid
Fixed: Pressure, kPa = 101.325
Property: Viscosity, Pa*s (Liquid); method: Concentric cylinders viscometry
Temperature, K	Viscosity, Pa*s	uncertainty
308.15	0.2307	0.0468
313.15	0.1434	0.0291
318.15	0.0739	0.0152

System: 1-(4-methoxybutyl)-3-methylimidazolium trifluorotris(perfluoroethyl)phosphate; phases: Liquid
Property: Mass density, kg/m3 (Liquid); method: Pycnometric method
Temperature, K	Pressure, kPa	Mass density, kg/m3	uncertainty
308.15	101.325	1626	16

System: 1-(4-methoxybutyl)-3-methylimidazolium trifluorotris(perfluoroethyl)phosphate; phases: Liquid
Fixed: Pressure, kPa = 101.325
Property: Viscosity, Pa*s (Liquid); method: Concentric cylinders viscometry
Temperature, K	Viscosity, Pa*s	uncertainty
298.15	0.1226	0.0248
303.15	0.1035	0.0209
308.15	0.0932	0.0188
313.15	0.0611	0.0124
318.15	0.0371	0.0075
