Measured thermophysical data. Solubility and Thermodynamic Modeling of Dimethyl Terephthalate in Pure Solvents and the Evaluation of the Mixing Properties of the Solutions
Source: J. Chem. Eng. Data, 2019, 10.1021/acs.jced.9b00658
Compound 1: dimethyl 1,4-benzenedicarboxylate, C10H10O4, InChI=1S/C10H10O4/c1-13-9(11)7-3-5-8(6-4-7)10(12)14-2/h3-6H,1-2H3, purity 99.3%
Compound 2: methanol, CH4O, InChI=1S/CH4O/c1-2/h2H,1H3, purity 99.5%
Compound 3: ethanol, C2H6O, InChI=1S/C2H6O/c1-2-3/h3H,2H2,1H3, purity 99.5%
Compound 4: propan-1-ol, C3H8O, InChI=1S/C3H8O/c1-2-3-4/h4H,2-3H2,1H3, purity 99.5%
Compound 5: propan-2-ol, C3H8O, InChI=1S/C3H8O/c1-3(2)4/h3-4H,1-2H3, purity 99.5%
Compound 6: butan-1-ol, C4H10O, InChI=1S/C4H10O/c1-2-3-4-5/h5H,2-4H2,1H3, purity 99.5%
Compound 7: 2-methyl-1-propanol, C4H10O, InChI=1S/C4H10O/c1-4(2)3-5/h4-5H,3H2,1-2H3, purity 99.5%
Compound 8: ethyl acetate, C4H8O2, InChI=1S/C4H8O2/c1-3-6-4(2)5/h3H2,1-2H3, purity 99.5%
Compound 9: 1-methylethyl ethanoate, C5H10O2, InChI=1S/C5H10O2/c1-4(2)7-5(3)6/h4H,1-3H3, purity 99.5%
Compound 10: propyl ethanoate, C5H10O2, InChI=1S/C5H10O2/c1-3-4-7-5(2)6/h3-4H2,1-2H3, purity 99.5%
Compound 11: butyl ethanoate, C6H12O2, InChI=1S/C6H12O2/c1-3-4-5-8-6(2)7/h3-5H2,1-2H3, purity 99.5%
Compound 12: pentyl ethanoate, C7H14O2, InChI=1S/C7H14O2/c1-3-4-5-6-9-7(2)8/h3-6H2,1-2H3, purity 99.5%
Compound 13: methyl propanoate, C4H8O2, InChI=1S/C4H8O2/c1-3-4(5)6-2/h3H2,1-2H3, purity 99.5%
Compound 14: acetone, C3H6O, InChI=1S/C3H6O/c1-3(2)4/h1-2H3, purity 99.5%
Compound 15: butanone, C4H8O, InChI=1S/C4H8O/c1-3-4(2)5/h3H2,1-2H3, purity 99.5%
Compound 16: cyclohexanone, C6H10O, InChI=1S/C6H10O/c7-6-4-2-1-3-5-6/h1-5H2, purity 99.5%
Compound 17: acetonitrile, C2H3N, InChI=1S/C2H3N/c1-2-3/h1H3, purity 99.5%
Compound 18: trichloromethane, CHCl3, InChI=1S/CHCl3/c2-1(3)4/h1H, purity 99.5%

System: dimethyl 1,4-benzenedicarboxylate; phases: Crystal, Liquid, Air at 1 atmosphere
Property: Triple point temperature, K (Crystal); method: DSC
Triple point temperature, K	uncertainty
413.88	1

System: dimethyl 1,4-benzenedicarboxylate; phases: Crystal, Liquid, Air at 1 atmosphere
Property: Molar enthalpy of transition or fusion, kJ/mol (Crystal); method: DSC
Molar enthalpy of transition or fusion, kJ/mol	uncertainty
28.15668	4.077864

System: dimethyl 1,4-benzenedicarboxylate + methanol; phases: Liquid, Crystal
Fixed: Pressure, kPa = 101.3
Property: Solid-liquid equilibrium temperature, K (Liquid); method: VISOBS
Mole fraction of dimethyl 1,4-benzenedicarboxylate	Solid-liquid equilibrium temperature, K	uncertainty
0.0007832	283.15	2.03
0.0010027	288.1	2.32
0.0012615	293.11	2.19
0.0016478	298.19	2.12
0.0021457	303.15	2.23
0.0027174	308.1	2.21
0.0034979	313.03	2.23
0.004449	317.95	2.25
0.0056993	323.01	2.52

System: dimethyl 1,4-benzenedicarboxylate + ethanol; phases: Liquid, Crystal
Fixed: Pressure, kPa = 101.3
Property: Solid-liquid equilibrium temperature, K (Liquid); method: VISOBS
Mole fraction of dimethyl 1,4-benzenedicarboxylate	Solid-liquid equilibrium temperature, K	uncertainty
0.0009778	283.36	1.95
0.0012465	287.94	2.03
0.001673	293.3	2.19
0.0021231	298.14	2.17
0.0027429	303.07	2.15
0.003567	308.2	2.19
0.004582	313.13	2.18
0.0059039	318.13	2.21
0.0075988	323.22	2.5

System: dimethyl 1,4-benzenedicarboxylate + propan-1-ol; phases: Liquid, Crystal
Fixed: Pressure, kPa = 101.3
Property: Solid-liquid equilibrium temperature, K (Liquid); method: VISOBS
Mole fraction of dimethyl 1,4-benzenedicarboxylate	Solid-liquid equilibrium temperature, K	uncertainty
0.0007031	283.14	1.86
0.0009239	288.03	1.86
0.0012975	293.35	1.88
0.0017391	298.04	2.04
0.0022419	302.97	2.09
0.0029484	308	2.15
0.0037878	312.95	2.16
0.0049178	317.98	2.16
0.0063846	323.08	2.44

System: dimethyl 1,4-benzenedicarboxylate + propan-2-ol; phases: Liquid, Crystal
Fixed: Pressure, kPa = 101.3
Property: Solid-liquid equilibrium temperature, K (Liquid); method: VISOBS
Mole fraction of dimethyl 1,4-benzenedicarboxylate	Solid-liquid equilibrium temperature, K	uncertainty
0.00089	283.32	1.68
0.00122	288.3	1.99
0.00159	293.19	1.96
0.00217	298.5	1.96
0.00288	303.25	1.91
0.00387	308.15	1.97
0.00509	312.97	2.03
0.00675	318.15	2.1
0.00882	323.17	2.37

System: dimethyl 1,4-benzenedicarboxylate + butan-1-ol; phases: Liquid, Crystal
Fixed: Pressure, kPa = 101.3
Property: Solid-liquid equilibrium temperature, K (Liquid); method: VISOBS
Mole fraction of dimethyl 1,4-benzenedicarboxylate	Solid-liquid equilibrium temperature, K	uncertainty
0.0011269	283.14	1.68
0.0015628	288.33	1.97
0.0020928	293.63	2.03
0.002774	298.57	2.01
0.0036372	303.38	2
0.0047743	308.15	2.04
0.0062458	313.1	2.09
0.0081218	318	2.09
0.0106013	322.98	2.36

System: dimethyl 1,4-benzenedicarboxylate + ethyl acetate; phases: Liquid, Crystal
Fixed: Pressure, kPa = 101.3
Property: Solid-liquid equilibrium temperature, K (Liquid); method: VISOBS
Mole fraction of dimethyl 1,4-benzenedicarboxylate	Solid-liquid equilibrium temperature, K	uncertainty
0.0115693	283.08	2.15
0.0146436	288.12	2.62
0.0176599	293.15	2.83
0.0212835	298.09	2.88
0.0253776	302.93	2.91
0.0303842	307.92	3.07
0.0357763	312.84	3.17
0.0421026	317.77	3.15
0.0500399	322.97	3.43

System: dimethyl 1,4-benzenedicarboxylate + 1-methylethyl ethanoate; phases: Liquid, Crystal
Fixed: Pressure, kPa = 101.3
Property: Solid-liquid equilibrium temperature, K (Liquid); method: VISOBS
Mole fraction of dimethyl 1,4-benzenedicarboxylate	Solid-liquid equilibrium temperature, K	uncertainty
0.0104379	283.22	2.58
0.0126007	288.14	2.87
0.015097	293.15	2.94
0.0180585	298.14	2.96
0.021573	303.16	2.99
0.0256481	308.07	3.01
0.0304911	313.03	3.05
0.0363103	318.14	3.07
0.0433901	323.34	3.34

System: dimethyl 1,4-benzenedicarboxylate + propyl ethanoate; phases: Liquid, Crystal
Fixed: Pressure, kPa = 101.3
Property: Solid-liquid equilibrium temperature, K (Liquid); method: VISOBS
Mole fraction of dimethyl 1,4-benzenedicarboxylate	Solid-liquid equilibrium temperature, K	uncertainty
0.0119369	283.02	2.62
0.0145069	288.22	2.89
0.0174112	293.25	2.93
0.0208484	298.28	2.96
0.0248271	303.15	2.96
0.0295907	308.1	2.75
0.0363898	313.24	3.17
0.04161	318.05	3.23
0.0496778	323.15	3.3

System: dimethyl 1,4-benzenedicarboxylate + butyl ethanoate; phases: Liquid, Crystal
Fixed: Pressure, kPa = 101.3
Property: Solid-liquid equilibrium temperature, K (Liquid); method: VISOBS
Mole fraction of dimethyl 1,4-benzenedicarboxylate	Solid-liquid equilibrium temperature, K	uncertainty
0.0114405	283.26	2.44
0.0139598	288.15	2.74
0.0168318	293.1	2.88
0.0201816	298.13	2.8
0.0245029	303.08	2.74
0.0297463	308.1	2.89
0.0354329	313.05	2.97
0.04225	317.99	3.02
0.0502005	323.03	3.34

System: dimethyl 1,4-benzenedicarboxylate + pentyl ethanoate; phases: Liquid, Crystal
Fixed: Pressure, kPa = 101.3
Property: Solid-liquid equilibrium temperature, K (Liquid); method: VISOBS
Mole fraction of dimethyl 1,4-benzenedicarboxylate	Solid-liquid equilibrium temperature, K	uncertainty
0.0110643	283.12	2.43
0.0135866	288.16	2.68
0.0166472	293.34	2.68
0.020377	298.34	2.75
0.0245445	303.25	2.8
0.0294865	308.07	2.9
0.0352285	313.12	2.88
0.0424561	318.04	2.86
0.0507847	322.96	3.17

System: dimethyl 1,4-benzenedicarboxylate + methyl propanoate; phases: Liquid, Crystal
Fixed: Pressure, kPa = 101.3
Property: Solid-liquid equilibrium temperature, K (Liquid); method: VISOBS
Mole fraction of dimethyl 1,4-benzenedicarboxylate	Solid-liquid equilibrium temperature, K	uncertainty
0.0134514	283.13	2.73
0.0161662	288.24	2.84
0.0195624	293.2	2.89
0.0233577	298.19	2.95
0.0279978	303.24	2.92
0.0336456	308.29	2.96
0.0399758	313.16	3.11
0.0470719	318.17	3.21
0.0553176	323.12	3.47

System: dimethyl 1,4-benzenedicarboxylate + acetone; phases: Liquid, Crystal
Fixed: Pressure, kPa = 101.3
Property: Solid-liquid equilibrium temperature, K (Liquid); method: VISOBS
Mole fraction of dimethyl 1,4-benzenedicarboxylate	Solid-liquid equilibrium temperature, K	uncertainty
0.0085005	283.2	2.38
0.0104729	288.19	2.63
0.0127896	293.15	2.63
0.0156966	298.15	2.67
0.0191333	303.17	2.72
0.0232346	308.12	2.84
0.0278487	313.14	2.86
0.033579	318.1	2.95
0.0400443	323.23	3.33

System: dimethyl 1,4-benzenedicarboxylate + butanone; phases: Liquid, Crystal
Fixed: Pressure, kPa = 101.3
Property: Solid-liquid equilibrium temperature, K (Liquid); method: VISOBS
Mole fraction of dimethyl 1,4-benzenedicarboxylate	Solid-liquid equilibrium temperature, K	uncertainty
0.0102283	283.15	2.32
0.0126336	288.07	2.58
0.015412	292.91	2.67
0.0188962	298.15	2.78
0.0228544	303.15	2.83
0.0274762	308.08	2.87
0.0330338	313.11	2.83
0.0401957	318.31	2.96
0.0475353	323.14	3.29

System: dimethyl 1,4-benzenedicarboxylate + cyclohexanone; phases: Liquid, Crystal
Fixed: Pressure, kPa = 101.3
Property: Solid-liquid equilibrium temperature, K (Liquid); method: VISOBS
Mole fraction of dimethyl 1,4-benzenedicarboxylate	Solid-liquid equilibrium temperature, K	uncertainty
0.0117153	283.2	2.17
0.0147635	288.21	2.53
0.0180637	293.16	2.58
0.02232	298.18	2.63
0.0272041	303.14	2.64
0.033415	308.17	2.69
0.0405969	313.14	2.77
0.0490284	318.1	2.89
0.0588397	323.23	3.24

System: dimethyl 1,4-benzenedicarboxylate + acetonitrile; phases: Liquid, Crystal
Fixed: Pressure, kPa = 101.3
Property: Solid-liquid equilibrium temperature, K (Liquid); method: VISOBS
Mole fraction of dimethyl 1,4-benzenedicarboxylate	Solid-liquid equilibrium temperature, K	uncertainty
0.0045349	283.18	2.15
0.0057351	288.2	2.37
0.0072252	293.25	2.41
0.0090691	298.33	2.4
0.0118798	304.51	2.64
0.0138941	308.17	2.49
0.017123	313.14	2.59
0.0210493	318.15	2.63
0.0258434	323.23	2.92

System: dimethyl 1,4-benzenedicarboxylate + trichloromethane; phases: Liquid, Crystal
Fixed: Pressure, kPa = 101.3
Property: Solid-liquid equilibrium temperature, K (Liquid); method: VISOBS
Mole fraction of dimethyl 1,4-benzenedicarboxylate	Solid-liquid equilibrium temperature, K	uncertainty
0.0676296	283.04	5.33
0.0742366	288.15	5.6
0.0814058	293.27	5.68
0.0889264	298.24	5.75
0.0969347	303.15	5.81
0.1055911	308.08	5.88
0.1149615	313.04	5.95
0.1250998	318.03	6.02
0.1361086	323.07	6.31

System: dimethyl 1,4-benzenedicarboxylate + 2-methyl-1-propanol; phases: Liquid, Crystal
Fixed: Pressure, kPa = 101.3
Property: Solid-liquid equilibrium temperature, K (Liquid); method: VISOBS
Mole fraction of dimethyl 1,4-benzenedicarboxylate	Solid-liquid equilibrium temperature, K	uncertainty
0.000907	283.3	1.48
0.0013197	288.25	1.71
0.0018618	293.33	1.89
0.0024867	298.28	1.95
0.0033147	303.15	2.05
0.0042725	307.9	2
0.0056661	312.78	2.03
0.0074112	317.7	1.92
0.0102709	323.1	2.19
