Measured thermophysical data. Relative Permittivity and Apparent Dipole Moments of  Nitromethane, Nitroethane, 1-Nitropropane and 2-  Nitropropane in Several Nonpolar Solvents.
Source: J. Chem. Eng. Data, 2015, 10.1021/acs.jced.5b00369
Compound 1: cyclohexane, C6H12, InChI=1S/C6H12/c1-2-4-6-5-3-1/h1-6H2, purity 99.99%
Compound 2: tetrachloromethane, CCl4, InChI=1S/CCl4/c2-1(3,4)5, purity 99.99%
Compound 3: 1,4-dimethylbenzene, C8H10, InChI=1S/C8H10/c1-7-3-5-8(2)6-4-7/h3-6H,1-2H3, purity 99.99%
Compound 4: 2,3-dimethylbutane, C6H14, InChI=1S/C6H14/c1-5(2)6(3)4/h5-6H,1-4H3, purity 99.98%
Compound 5: nitromethane, CH3NO2, InChI=1S/CH3NO2/c1-2(3)4/h1H3, purity 99.96%
Compound 6: nitroethane, C2H5NO2, InChI=1S/C2H5NO2/c1-2-3(4)5/h2H2,1H3, purity 99.96%
Compound 7: 1-nitropropane, C3H7NO2, InChI=1S/C3H7NO2/c1-2-3-4(5)6/h2-3H2,1H3, purity 99.98%
Compound 8: 2-nitropropane, C3H7NO2, InChI=1S/C3H7NO2/c1-3(2)4(5)6/h3H,1-2H3, purity 99.99%
Compound 9: benzene, C6H6, InChI=1S/C6H6/c1-2-4-6-5-3-1/h1-6H, purity 99.99%

System: benzene + nitromethane; phases: Liquid
Fixed: Pressure, kPa = 101
Property: Relative permittivity at zero frequency (Liquid); method: two-terminal dielectric cell
Temperature, K	Mole fraction of nitromethane	Relative permittivity at zero frequency	uncertainty
318.15	0.000437	2.19342	0.00092
298.15	0.000817	2.28834	0.0011
318.15	0.0008868	2.19856	0.00092
298.15	0.001228	2.294	0.00055
318.15	0.001333	2.20368	0.00046
298.15	0.001638	2.29956	0.00055
318.15	0.001778	2.20876	0.00046
298.15	0.002045	2.30518	0.00055
318.15	0.002219	2.21383	0.00046
298.15	0.00245	2.31071	0.00055
318.15	0.002658	2.2188	0.00046
298.15	0.003332	2.32281	0.00055
298.15	0.003559	2.32593	0.00055
318.15	0.003857	2.23245	0.00046
298.15	0.004459	2.33824	0.00055
318.15	0.004835	2.24352	0.00046
298.15	0.005656	2.35464	0.00029
318.15	0.006131	2.25821	0.00025
298.15	0.006833	2.37085	0.00029
298.15	0.007322	2.37753	0.00029
318.15	0.007631	2.27516	0.00024
298.15	0.007982	2.38639	0.00029
318.15	0.009325	2.29411	0.00024
318.15	0.01132	2.31664	0.00025
298.15	0.01242	2.44757	0.00029
318.15	0.013051	2.33622	0.00025
318.15	0.014904	2.35704	0.00025
298.15	0.01595	2.49623	0.00029
318.15	0.016282	2.37368	0.00025
298.15	0.02031	2.55663	0.0003
318.15	0.02047	2.42114	0.00025
298.15	0.02465	2.61628	0.0003
318.15	0.025195	2.47484	0.00025
318.15	0.030052	2.53001	0.00026
298.15	0.0332	2.7354	0.0003
318.15	0.034501	2.58032	0.00026
318.15	0.042727	2.67386	0.00026
298.15	0.04458	2.89495	0.00031
318.15	0.054165	2.80502	0.00027
298.15	0.05494	3.03914	0.00031
298.15	0.06641	3.20367	0.00033
318.15	0.066831	2.9527	0.00028
318.15	0.078158	3.08644	0.00029
298.15	0.08012	3.40373	0.00034
318.15	0.091714	3.24999	0.00024

System: tetrachloromethane + nitromethane; phases: Liquid
Fixed: Pressure, kPa = 101
Property: Relative permittivity at zero frequency (Liquid); method: two-terminal dielectric cell
Temperature, K	Mole fraction of nitromethane	Relative permittivity at zero frequency	uncertainty
318.15	0.000162	2.23812	0.00098
318.15	0.000418	2.24125	0.001
318.15	0.0008265	2.24641	0.00101
298.15	0.00098	2.24081	0.00103
318.15	0.001238	2.25158	0.0005
298.15	0.001471	2.24714	0.00051
318.15	0.001648	2.25667	0.0005
298.15	0.001979	2.25361	0.00051
318.15	0.002055	2.26176	0.0005
298.15	0.002444	2.25959	0.00051
318.15	0.00246	2.26679	0.0005
298.15	0.002927	2.26574	0.00051
318.15	0.003263	2.2768	0.0005
318.15	0.003558	2.28051	0.0005
298.15	0.003884	2.27791	0.00051
298.15	0.004245	2.28249	0.00051
318.15	0.004468	2.29186	0.0005
298.15	0.00484	2.29002	0.00051
318.15	0.005663	2.30678	0.00026
298.15	0.005797	2.30213	0.00026
298.15	0.006743	2.31404	0.00026
318.15	0.007033	2.3239	0.00026
298.15	0.007679	2.32583	0.00026
318.15	0.007748	2.33263	0.00026
298.15	0.008374	2.33457	0.00026
318.15	0.009707	2.35737	0.00027
298.15	0.01041	2.35982	0.00026
318.15	0.0113	2.37756	0.00026
298.15	0.01242	2.38483	0.00026
298.15	0.01439	2.40939	0.00026
318.15	0.01572	2.4327	0.00026
298.15	0.01577	2.42642	0.00026
298.15	0.01737	2.44616	0.00026
298.15	0.01871	2.46233	0.00026
318.15	0.02009	2.48822	0.00026
298.15	0.02204	2.50367	0.00026
318.15	0.02486	2.54795	0.00026
298.15	0.02674	2.56122	0.00026
318.15	0.02873	2.59732	0.00027
318.15	0.03299	2.65111	0.00027
298.15	0.03418	2.65322	0.00026
318.15	0.0414	2.75865	0.00027
298.15	0.04333	2.76524	0.00026
318.15	0.04472	2.80151	0.00027
298.15	0.0523	2.87591	0.00026
298.15	0.0523	2.87591	0.00026
318.15	0.054	2.91886	0.00027
298.15	0.0567	2.92988	0.00026
298.15	0.0567	2.92988	0.00026
318.15	0.06623	3.07885	0.00027
318.15	0.07426	3.18574	0.00027
318.15	0.08027	3.26614	0.00027

System: nitroethane + cyclohexane; phases: Liquid
Fixed: Pressure, kPa = 101
Fixed: Temperature, K = 298.15
Property: Relative permittivity at zero frequency (Liquid); method: two-terminal dielectric cell
Mole fraction of nitroethane	Relative permittivity at zero frequency	uncertainty
0.003987	2.0631	0.00046
0.008153	2.11122	0.00025
0.01622	2.20858	0.00024
0.02416	2.2932	0.00023
0.03312	2.3893	0.00024
0.0371	2.43784	0.00024
0.04487	2.5254	0.00024
0.05252	2.6119	0.00024
0.06004	2.69759	0.00024
0.06369	2.73934	0.00024

System: tetrachloromethane + nitroethane; phases: Liquid
Fixed: Pressure, kPa = 101
Fixed: Temperature, K = 298.15
Property: Relative permittivity at zero frequency (Liquid); method: two-terminal dielectric cell
Mole fraction of nitroethane	Relative permittivity at zero frequency	uncertainty
0.003529	2.27902	0.00056
0.00724	2.3313	0.00029
0.01443	2.4321	0.00029
0.02153	2.53048	0.00029
0.02851	2.62767	0.00029
0.0311	2.6639	0.00029
0.03397	2.7038	0.00029
0.04093	2.80121	0.00029
0.04779	2.89785	0.00029
0.05456	2.9938	0.00029

System: nitroethane + 1,4-dimethylbenzene; phases: Liquid
Fixed: Pressure, kPa = 101
Fixed: Temperature, K = 298.15
Property: Relative permittivity at zero frequency (Liquid); method: two-terminal dielectric cell
Mole fraction of nitroethane	Relative permittivity at zero frequency	uncertainty
0.001685	2.2782	0.00043
0.009202	2.35917	0.00023
0.01833	2.45822	0.00023
0.02729	2.55599	0.00023
0.03608	2.65295	0.00023
0.04032	2.69936	0.00024
0.05043	2.81296	0.00024
0.05899	2.91009	0.00024
0.0674	3.00647	0.00024
0.07566	3.10223	0.00025

System: 1-nitropropane + cyclohexane; phases: Liquid
Fixed: Pressure, kPa = 101
Fixed: Temperature, K = 298.15
Property: Relative permittivity at zero frequency (Liquid); method: two-cell dielectric cell
Mole fraction of 1-nitropropane	Relative permittivity at zero frequency	uncertainty
0.003184	2.05488	0.00049
0.006527	2.09539	0.00025
0.01302	2.1734	0.00025
0.01942	2.24959	0.00025
0.02574	2.3244	0.00024
0.02693	2.33815	0.00024
0.02818	2.3525	0.00025
0.03015	2.37603	0.00025
0.03648	2.4508	0.00025
0.04272	2.52479	0.00025
0.04887	2.59808	0.00025
0.05327	2.64994	0.00025
0.05626	2.68544	0.00025
0.0594	2.72327	0.00026
0.06549	2.79734	0.00026
0.07152	2.87045	0.00026
0.07893	2.96124	0.00026

System: tetrachloromethane + 1-nitropropane; phases: Liquid
Fixed: Pressure, kPa = 101
Fixed: Temperature, K = 298.15
Property: Relative permittivity at zero frequency (Liquid); method: two-cell dielectric cell
Mole fraction of 1-nitropropane	Relative permittivity at zero frequency	uncertainty
0.002869	2.27091	0.00059
0.005861	2.3147	0.0003
0.01167	2.39918	0.0003
0.01742	2.48214	0.0003
0.0231	2.56405	0.0003
0.0253	2.59588	0.0003
0.02987	2.66163	0.0003
0.03553	2.74365	0.0003
0.04122	2.82491	0.0003
0.04993	2.95383	0.00031
0.05263	2.99295	0.00031
0.05816	3.07483	0.00031
0.06363	3.15625	0.00031

System: 1,4-dimethylbenzene + 1-nitropropane; phases: Liquid
Fixed: Pressure, kPa = 101
Fixed: Temperature, K = 298.15
Property: Relative permittivity at zero frequency (Liquid); method: two-cell dielectric cell
Mole fraction of 1-nitropropane	Relative permittivity at zero frequency	uncertainty
0.005128	2.31627	0.00024
0.007441	2.34224	0.00024
0.01482	2.4248	0.00024
0.0221	2.50652	0.00024
0.02927	2.58754	0.00024
0.03246	2.62349	0.00024
0.03388	2.63942	0.00024
0.03604	2.66416	0.00024
0.03819	2.68861	0.00024
0.04527	2.77022	0.00024
0.05226	2.85114	0.00025
0.05913	2.93159	0.00025

System: 2-nitropropane + cyclohexane; phases: Liquid
Fixed: Pressure, kPa = 101
Fixed: Temperature, K = 298.15
Property: Relative permittivity at zero frequency (Liquid); method: two-terminal dielectric cell
Mole fraction of 2-nitropropane	Relative permittivity at zero frequency	uncertainty
0.001188	2.0322	0.00051
0.003139	2.0568	0.00051
0.006442	2.09876	0.00027
0.009592	2.13855	0.00027
0.01286	2.18001	0.00027
0.01918	2.26067	0.00027
0.02225	2.29974	0.00026
0.0266	2.35434	0.00027
0.031	2.41041	0.00027
0.03475	2.45922	0.00027
0.04093	2.54037	0.00028
0.04703	2.62139	0.00028
0.05035	2.66577	0.00028
0.05259	2.69578	0.00028
0.05527	2.7322	0.00028
0.05838	2.77444	0.00028
0.06441	2.857	0.00029
0.07038	2.93937	0.00029

System: tetrachloromethane + 2-nitropropane; phases: Liquid
Fixed: Pressure, kPa = 101
Fixed: Temperature, K = 298.15
Property: Relative permittivity at zero frequency (Liquid); method: two-terminal dielectric cell
Mole fraction of 2-nitropropane	Relative permittivity at zero frequency	uncertainty
0.001006	2.24531	0.00061
0.002745	2.27181	0.00061
0.00569	2.31696	0.00032
0.01141	2.40482	0.00032
0.01707	2.49201	0.00032
0.02266	2.57869	0.00032
0.02488	2.61322	0.00032
0.02599	2.62967	0.00032
0.02803	2.6614	0.00032
0.03078	2.70432	0.00032
0.03634	2.79196	0.00033
0.04183	2.87937	0.00033
0.04726	2.9666	0.00033

System: 2-nitropropane + 1,4-dimethylbenzene; phases: Liquid
Fixed: Pressure, kPa = 101
Fixed: Temperature, K = 298.15
Property: Relative permittivity at zero frequency (Liquid); method: two-terminal dielectric cell
Mole fraction of 2-nitropropane	Relative permittivity at zero frequency	uncertainty
0.005471	2.32313	0.00025
0.007307	2.34454	0.00025
0.01457	2.42922	0.00025
0.02174	2.51328	0.00025
0.02879	2.59677	0.00025
0.03194	2.63439	0.00025
0.03336	2.65058	0.00025
0.03555	2.67711	0.00025
0.04256	2.76165	0.00026
0.04948	2.84581	0.00026
0.05628	2.92956	0.00026
0.06235	3.00461	0.00026

System: 2,3-dimethylbutane + 2-nitropropane; phases: Liquid
Fixed: Pressure, kPa = 101
Fixed: Temperature, K = 298.15
Property: Relative permittivity at zero frequency (Liquid); method: two-terminal dielectric cell
Mole fraction of 2-nitropropane	Relative permittivity at zero frequency	uncertainty
0.003786	1.92648	0.00041
0.007756	1.96704	0.00022
0.01545	2.04621	0.00022
0.02302	2.12477	0.00022
0.03047	2.20279	0.00022
0.03298	2.22897	0.00022
0.03446	2.24427	0.00023
0.03679	2.26913	0.00023
0.04419	2.34842	0.00023
0.0515	2.42769	0.00023
0.05867	2.50669	0.00024
0.06479	2.5748	0.00024
0.06604	2.58924	0.00024
0.06819	2.61329	0.00024
0.07183	2.65458	0.00024
0.07889	2.73569	0.00024
0.08584	2.81657	0.00025
0.09268	2.89729	0.00025
