Measured thermophysical data. Liquid Liquid Equilibria for Octan-2-one + Dihydroxybenzene + Water at Different Temperatures: Experimental Data and Thermodynamic Modeling
Source: J. Chem. Eng. Data, 2019, 10.1021/acs.jced.9b00506
Compound 1: 1,2-benzenediol, C6H6O2, InChI=1S/C6H6O2/c7-5-3-1-2-4-6(5)8/h1-4,7-8H
Compound 2: 1,3-benzenediol, C6H6O2, InChI=1S/C6H6O2/c7-5-2-1-3-6(8)4-5/h1-4,7-8H
Compound 3: 1,4-benzenediol, C6H6O2, InChI=1S/C6H6O2/c7-5-1-2-6(8)4-3-5/h1-4,7-8H
Compound 4: 2-octanone, C8H16O, InChI=1S/C8H16O/c1-3-4-5-6-7-8(2)9/h3-7H2,1-2H3
Compound 5: water, H2O, InChI=1S/H2O/h1H2, purity 99.8%

System: 2-octanone + 1,2-benzenediol + water; phases: Liquid mixture 1, Liquid mixture 2
Fixed: Pressure, kPa = 101.3
Property: Mass fraction of 2-octanone (Liquid mixture 1); method: Chromatography
Property: Mass fraction of 2-octanone (Liquid mixture 2); method: Chromatography
Property: Mass fraction of 1,2-benzenediol (Liquid mixture 2); method: Chromatography
Temperature, K	Mass fraction of 1,2-benzenediol	Mass fraction of 2-octanone	uncertainty	Mass fraction of 2-octanone	uncertainty	Mass fraction of 1,2-benzenediol	uncertainty
298.15	0	0.9891	0.0098	0.0013	0.0006	0	
298.15	0.0228	0.9649	0.0143	0.0008	0.0006	0.0003	
298.15	0.0391	0.9473	0.0143	0.0011	0.0006	0.0011	
298.15	0.0764	0.9078	0.0156	0.0013	0.0006	0.004	
298.15	0.1116	0.8575	0.0159	0.0016	0.0006	0.0077	
298.15	0.1753	0.781	0.0157	0.0017	0.0006	0.0181	
298.15	0.231	0.7096	0.0161	0.002	0.0006	0.0346	
298.15	0.2952	0.6269	0.0165	0.0021	0.0006	0.0633	
298.15	0.3387	0.5665	0.0169	0.0027	0.0006	0.0924	
298.15	0.3742	0.519	0.0179	0.0034	0.0006	0.1353	
298.15	0.4138	0.4547	0.019	0.0039	0.0006	0.1993	
318.15	0	0.9882	0.0098	0.0012	0.0006	0	
318.15	0.0213	0.9662	0.0142	0.0008	0.0006	0.0005	
318.15	0.0406	0.9455	0.0143	0.0012	0.0006	0.002	
318.15	0.0767	0.9071	0.0154	0.0013	0.0006	0.0068	
318.15	0.126	0.8427	0.0159	0.0017	0.0006	0.017	
318.15	0.1711	0.7845	0.0163	0.0018	0.0006	0.0317	
318.15	0.2157	0.7242	0.0165	0.0021	0.0006	0.0459	
318.15	0.2708	0.6505	0.0166	0.0022	0.0006	0.0684	
318.15	0.3143	0.59	0.0166	0.0028	0.0006	0.0987	
318.15	0.3589	0.5338	0.0162	0.0035	0.0006	0.1386	
318.15	0.412	0.4655	0.0168	0.004	0.0006	0.2073	
338.15	0	0.9872	0.0098	0.0011	0.0006	0	
338.15	0.019	0.9684	0.0141	0.0008	0.0006	0.0019	
338.15	0.0319	0.9539	0.0146	0.0012	0.0006	0.0045	
338.15	0.0569	0.9264	0.0159	0.0014	0.0006	0.0102	
338.15	0.0979	0.8701	0.016	0.0017	0.0006	0.0182	
338.15	0.1556	0.7994	0.0159	0.0018	0.0006	0.0352	
338.15	0.2072	0.7319	0.0163	0.0022	0.0006	0.0595	
338.15	0.2669	0.6536	0.0166	0.0023	0.0006	0.0882	
338.15	0.3123	0.5909	0.0162	0.0029	0.0006	0.1342	
338.15	0.3685	0.5232	0.0162	0.0036	0.0006	0.1853	
338.15	0.4121	0.4643	0.0168	0.0042	0.0006	0.2527	

System: 2-octanone + 1,3-benzenediol + water; phases: Liquid mixture 1, Liquid mixture 2
Fixed: Pressure, kPa = 101.3
Property: Mass fraction of 2-octanone (Liquid mixture 1); method: Chromatography
Property: Mass fraction of 2-octanone (Liquid mixture 2); method: Chromatography
Property: Mass fraction of 1,3-benzenediol (Liquid mixture 2); method: Chromatography
Temperature, K	Mass fraction of 1,3-benzenediol	Mass fraction of 2-octanone	uncertainty	Mass fraction of 2-octanone	uncertainty	Mass fraction of 1,3-benzenediol	uncertainty
298.2	0	0.9891	0.0098	0.0013	0.0006	0	
298.2	0.0309	0.9571	0.0146	0.001	0.0006	0.0008	
298.2	0.057	0.926	0.0156	0.0013	0.0006	0.003	
298.2	0.0994	0.8725	0.0156	0.0015	0.0006	0.0079	
298.2	0.1443	0.8177	0.0157	0.0016	0.0006	0.0164	
298.2	0.221	0.722	0.0158	0.0019	0.0006	0.0309	
298.2	0.2756	0.6537	0.0167	0.0021	0.0006	0.0542	
298.2	0.3594	0.5353	0.0176	0.0028	0.0006	0.0949	
298.2	0.4074	0.4607	0.0189	0.0034	0.0006	0.1321	
298.2	0.4365	0.4099	0.0199	0.0037	0.0006	0.1718	
318.2	0	0.9882	0.0098	0.0012	0.0006	0	
318.2	0.0298	0.9561	0.0149	0.0007	0.0006	0.002	
318.2	0.0543	0.9257	0.0156	0.0009	0.0006	0.0054	
318.2	0.0842	0.8886	0.0165	0.0011	0.0006	0.0103	
318.2	0.1421	0.8076	0.0159	0.0016	0.0006	0.0212	
318.2	0.2033	0.7385	0.0154	0.002	0.0006	0.0452	
318.2	0.2642	0.6606	0.0162	0.0024	0.0006	0.0756	
318.2	0.3319	0.5731	0.0166	0.0027	0.0006	0.1119	
318.2	0.3816	0.5053	0.0189	0.003	0.0006	0.1578	
318.2	0.411	0.4427	0.0233	0.0033	0.0006	0.2016	
338.2	0	0.9872	0.0098	0.0011	0.0006	0	
338.2	0.0288	0.9568	0.0148	0.0008	0.0006	0.0033	
338.2	0.0515	0.929	0.0157	0.0011	0.0006	0.0089	
338.2	0.0857	0.8856	0.0157	0.0013	0.0006	0.0168	
338.2	0.1269	0.8347	0.0153	0.0019	0.0006	0.0353	
338.2	0.186	0.7662	0.0157	0.0022	0.0006	0.0646	
338.2	0.243	0.6905	0.0167	0.0026	0.0006	0.0989	
338.2	0.2955	0.6172	0.0171	0.0028	0.0006	0.1291	
338.2	0.3423	0.5512	0.0177	0.0033	0.0006	0.162	
338.2	0.371	0.5055	0.0188	0.0046	0.0006	0.2047	

System: 2-octanone + 1,4-benzenediol + water; phases: Liquid mixture 2, Liquid mixture 1
Fixed: Pressure, kPa = 101.3
Property: Mass fraction of 2-octanone (Liquid mixture 2); method: Chromatography
Property: Mass fraction of 2-octanone (Liquid mixture 1); method: Chromatography
Property: Mass fraction of 1,4-benzenediol (Liquid mixture 1); method: Chromatography
Temperature, K	Mass fraction of 1,4-benzenediol	Mass fraction of 2-octanone	uncertainty	Mass fraction of 2-octanone	uncertainty	Mass fraction of 1,4-benzenediol	uncertainty
298.2	0	0.0013	0.0006	0.9891	0.0098	0	
298.2	0.0966	0.0026	0.0006	0.6705	0.0169	0.2693	
298.2	0.1224	0.0033	0.0006	0.6368	0.021	0.2873	
318.2	0	0.0012	0.0006	0.9882	0.0098	0	
318.2	0.0006	0.0008	0.0006	0.9826	0.0143	0.0091	
318.2	0.0019	0.001	0.0006	0.9729	0.014	0.0166	
318.2	0.0056	0.0014	0.0007	0.9537	0.0155	0.0339	
318.2	0.0117	0.0017	0.0006	0.9158	0.0155	0.0635	
318.2	0.027	0.0021	0.0006	0.8723	0.0151	0.1002	
318.2	0.0424	0.0024	0.0006	0.8152	0.0152	0.1493	
318.2	0.058	0.0026	0.0006	0.7878	0.015	0.172	
298.2	0.0004	0.0008	0.0006	0.9763	0.0144	0.0132	
318.2	0.072	0.0027	0.0006	0.7456	0.0159	0.209	
318.2	0.1028	0.0031	0.0006	0.6907	0.0166	0.2486	
318.2	0.1406	0.0035	0.0006	0.663	0.015	0.2703	
338.2	0	0.0011	0.0006	0.9872	0.0098	0	
338.2	0.0007	0.0009	0.0006	0.9827	0.0142	0.0086	
338.2	0.0026	0.0011	0.0006	0.9724	0.0137	0.0171	
338.2	0.0053	0.0012	0.0007	0.9598	0.0159	0.0277	
338.2	0.0125	0.0016	0.0006	0.9253	0.0152	0.054	
338.2	0.0339	0.0018	0.0006	0.8746	0.0148	0.0993	
338.2	0.0509	0.0022	0.0006	0.8234	0.0148	0.1448	
298.2	0.0013	0.0011	0.0006	0.9653	0.0143	0.0224	
338.2	0.0754	0.0024	0.0006	0.7849	0.0155	0.1789	
338.2	0.0933	0.0028	0.0006	0.7492	0.0166	0.2055	
338.2	0.1142	0.0032	0.0006	0.6932	0.0162	0.2466	
338.2	0.1525	0.0033	0.0006	0.6547	0.0155	0.2788	
298.2	0.0037	0.0012	0.0007	0.9441	0.0144	0.0421	
298.2	0.0086	0.0016	0.0006	0.9197	0.016	0.0649	
298.2	0.0174	0.0016	0.0006	0.8678	0.0163	0.102	
298.2	0.0323	0.0019	0.0006	0.7997	0.0153	0.1556	
298.2	0.0486	0.0021	0.0006	0.7578	0.0149	0.195	
298.2	0.0761	0.0023	0.0006	0.7052	0.0153	0.2389	

System: 2-octanone + water; phases: Liquid mixture 1, Liquid mixture 2
Fixed: Pressure, kPa = 101.3
Property: Mass fraction of 2-octanone (Liquid mixture 1); method: Chromatography
Temperature, K	Mass fraction of 2-octanone	uncertainty
298.15	0.9891	0.0098
318.15	0.9882	0.0098
338.15	0.9872	0.0098
298.2	0.9891	0.0098
318.2	0.9882	0.0098
338.2	0.9872	0.0098

System: 2-octanone + water; phases: Liquid mixture 2, Liquid mixture 1
Fixed: Pressure, kPa = 101.3
Property: Mass fraction of 2-octanone (Liquid mixture 2); method: Chromatography
Temperature, K	Mass fraction of 2-octanone	uncertainty
298.15	0.0013	0.0006
318.15	0.0012	0.0006
338.15	0.0011	0.0006
298.2	0.0013	0.0006
318.2	0.0012	0.0006
338.2	0.0011	0.0006
