Measured thermophysical data. Density, Refractive Index, and Sound Velocity for the Binary Mixtures of Tri-n-Butyl Phosphate and n-Butanol between 303.15 K and 323.15 K
Source: J. Chem. Eng. Data, 2016, 10.1021/acs.jced.5b00343
Compound 1: tributyl phosphate, C12H27O4P, InChI=1S/C12H27O4P/c1-4-7-10-14-17(13,15-11-8-5-2)16-12-9-6-3/h4-12H2,1-3H3, purity 99%
Compound 2: butan-1-ol, C4H10O, InChI=1S/C4H10O/c1-2-3-4-5/h5H,2-4H2,1H3, purity 99%

System: tributyl phosphate; phases: Liquid
Fixed: Pressure, kPa = 101
Property: Mass density, kg/m3 (Liquid); method: Vibrating tube method
Temperature, K	Mass density, kg/m3	uncertainty
303.15	968.39	0.3
308.15	964.11	0.3
313.15	959.82	0.3
318.15	955.54	0.3
323.15	951.26	0.3

System: tributyl phosphate; phases: Liquid
Fixed: Pressure, kPa = 101
Property: Refractive index (Na D-line) (Liquid); method: Standard Abbe refractometry
Temperature, K	Refractive index (Na D-line)	uncertainty
303.15	1.421	0.0004
308.15	1.419	0.0004
313.15	1.4171	0.0004
318.15	1.4146	0.0004
323.15	1.4131	0.0004

System: tributyl phosphate; phases: Liquid
Fixed: Pressure, kPa = 101
Fixed: Frequency, MHz = 1.5
Property: Speed of sound, m/s (Liquid); method: Sing-around technique in a fixed-path interferometer
Temperature, K	Speed of sound, m/s	uncertainty
303.15	1247.4	1.5
308.15	1230.5	1.5
313.15	1213.8	1.5
318.15	1197.3	1.5
323.15	1181.4	1.5

System: butan-1-ol; phases: Liquid
Fixed: Pressure, kPa = 101
Property: Mass density, kg/m3 (Liquid); method: Vibrating tube method
Temperature, K	Mass density, kg/m3	uncertainty
303.15	802.01	0.15
308.15	798.14	0.15
313.15	794.22	0.15
318.15	790.28	0.15
323.15	786.29	0.16

System: butan-1-ol; phases: Liquid
Fixed: Pressure, kPa = 101
Property: Refractive index (Na D-line) (Liquid); method: Standard Abbe refractometry
Temperature, K	Refractive index (Na D-line)	uncertainty
303.15	1.3948	0.0004
308.15	1.3927	0.0004
313.15	1.3907	0.0004
318.15	1.3875	0.0004
323.15	1.3848	0.0004

System: butan-1-ol; phases: Liquid
Fixed: Pressure, kPa = 101
Fixed: Frequency, MHz = 1.5
Property: Speed of sound, m/s (Liquid); method: Sing-around technique in a fixed-path interferometer
Temperature, K	Speed of sound, m/s	uncertainty
303.15	1222.7	1.5
308.15	1206.3	1.5
313.15	1189.4	1.5
318.15	1172.8	1.5
323.15	1156.7	1.5

System: butan-1-ol + tributyl phosphate; phases: Liquid
Fixed: Pressure, kPa = 101
Property: Mass density, kg/m3 (Liquid); method: Vibrating tube method
Temperature, K	Mole fraction of tributyl phosphate	Mass density, kg/m3	uncertainty
303.15	0	802.01	0.15
303.15	0.05	823.73	0.14
303.15	0.1002	841.91	0.14
303.15	0.1503	857.35	0.14
303.15	0.202	871.07	0.14
303.15	0.2502	882.23	0.14
303.15	0.3006	892.53	0.15
303.15	0.3502	901.62	0.15
303.15	0.4	909.79	0.16
303.15	0.4502	917.29	0.16
303.15	0.5002	924.06	0.17
303.15	0.5506	930.31	0.17
303.15	0.6005	935.99	0.18
303.15	0.6502	941.16	0.19
303.15	0.7002	945.95	0.2
303.15	0.7493	950.33	0.21
303.15	0.8001	954.47	0.23
303.15	0.8507	958.35	0.24
303.15	0.9009	961.93	0.26
303.15	0.9504	965.28	0.28
303.15	1	968.39	0.3
308.15	0	798.14	0.15
308.15	0.05	819.76	0.14
308.15	0.1002	837.88	0.14
308.15	0.1503	853.27	0.14
308.15	0.202	866.94	0.14
308.15	0.2502	878.06	0.14
308.15	0.3006	888.34	0.15
308.15	0.3502	897.41	0.15
308.15	0.4	905.56	0.16
308.15	0.4502	913.05	0.16
308.15	0.5002	919.82	0.17
308.15	0.5506	926.07	0.18
308.15	0.6005	931.73	0.18
308.15	0.6502	936.9	0.19
308.15	0.7002	941.68	0.2
308.15	0.7493	946.06	0.21
308.15	0.8001	950.2	0.23
308.15	0.8507	954.07	0.24
308.15	0.9009	957.64	0.26
308.15	0.9504	960.99	0.28
308.15	1	964.11	0.3
313.15	0	794.22	0.15
313.15	0.05	815.77	0.15
313.15	0.1002	833.82	0.14
313.15	0.1503	849.17	0.14
313.15	0.202	862.78	0.14
313.15	0.2502	873.88	0.15
313.15	0.3006	884.13	0.15
313.15	0.3502	893.19	0.15
313.15	0.4	901.34	0.16
313.15	0.4502	908.81	0.17
313.15	0.5002	915.56	0.17
313.15	0.5506	921.81	0.18
313.15	0.6005	927.47	0.18
313.15	0.6502	932.63	0.19
313.15	0.7002	937.41	0.2
313.15	0.7493	941.78	0.22
313.15	0.8001	945.93	0.23
313.15	0.8507	949.79	0.24
313.15	0.9009	953.36	0.26
313.15	0.9504	956.69	0.28
313.15	1	959.82	0.3
318.15	0	790.28	0.15
318.15	0.05	811.74	0.15
318.15	0.1002	829.73	0.14
318.15	0.1503	845.04	0.14
318.15	0.202	858.61	0.15
318.15	0.2502	869.68	0.15
318.15	0.3006	879.91	0.15
318.15	0.3502	888.95	0.16
318.15	0.4	897.08	0.16
318.15	0.4502	904.55	0.17
318.15	0.5002	911.3	0.17
318.15	0.5506	917.55	0.18
318.15	0.6005	923.2	0.18
318.15	0.6502	928.36	0.19
318.15	0.7002	933.13	0.2
318.15	0.7493	937.49	0.22
318.15	0.8001	941.65	0.23
318.15	0.8507	945.5	0.24
318.15	0.9009	949.06	0.26
318.15	0.9504	952.39	0.28
318.15	1	955.54	0.3
323.15	0	786.29	0.16
323.15	0.05	807.68	0.15
323.15	0.1002	825.61	0.15
323.15	0.1503	840.88	0.15
323.15	0.202	854.41	0.15
323.15	0.2502	865.45	0.15
323.15	0.3006	875.67	0.15
323.15	0.3502	884.7	0.16
323.15	0.4	892.83	0.16
323.15	0.4502	900.29	0.17
323.15	0.5002	907.03	0.18
323.15	0.5506	913.28	0.18
323.15	0.6005	918.93	0.19
323.15	0.6502	924.09	0.19
323.15	0.7002	928.85	0.21
323.15	0.7493	933.2	0.22
323.15	0.8001	937.36	0.23
323.15	0.8507	941.22	0.25
323.15	0.9009	944.78	0.26
323.15	0.9504	948.1	0.28
323.15	1	951.26	0.3

System: butan-1-ol + tributyl phosphate; phases: Liquid
Fixed: Pressure, kPa = 101
Property: Refractive index (Na D-line) (Liquid); method: Standard Abbe refractometry
Temperature, K	Mole fraction of tributyl phosphate	Refractive index (Na D-line)	uncertainty
303.15	0	1.3948	0.0004
303.15	0.05	1.3978	0.0004
303.15	0.1002	1.4007	0.0004
303.15	0.1503	1.4029	0.0004
303.15	0.202	1.4048	0.0004
303.15	0.2502	1.4063	0.0004
303.15	0.3006	1.4078	0.0004
303.15	0.3502	1.4092	0.0004
303.15	0.4	1.4102	0.0004
303.15	0.4502	1.4115	0.0004
303.15	0.5002	1.4125	0.0004
303.15	0.5506	1.4133	0.0004
303.15	0.6005	1.4142	0.0004
303.15	0.6502	1.4151	0.0004
303.15	0.7002	1.416	0.0004
303.15	0.7493	1.4168	0.0004
303.15	0.8001	1.4176	0.0004
303.15	0.8507	1.4183	0.0004
303.15	0.9009	1.4192	0.0004
303.15	0.9504	1.4201	0.0004
303.15	1	1.421	0.0004
308.15	0	1.3927	0.0004
308.15	0.05	1.3958	0.0004
308.15	0.1002	1.3989	0.0004
308.15	0.1503	1.4012	0.0004
308.15	0.202	1.4031	0.0004
308.15	0.2502	1.4045	0.0004
308.15	0.3006	1.4061	0.0004
308.15	0.3502	1.4074	0.0004
308.15	0.4	1.4084	0.0004
308.15	0.4502	1.4097	0.0004
308.15	0.5002	1.4107	0.0004
308.15	0.5506	1.4117	0.0004
308.15	0.6005	1.4125	0.0004
308.15	0.6502	1.4134	0.0004
308.15	0.7002	1.4143	0.0004
308.15	0.7493	1.415	0.0004
308.15	0.8001	1.4158	0.0004
308.15	0.8507	1.4165	0.0004
308.15	0.9009	1.4174	0.0004
308.15	0.9504	1.4182	0.0004
308.15	1	1.419	0.0004
313.15	0	1.3907	0.0004
313.15	0.05	1.394	0.0004
313.15	0.1002	1.3972	0.0004
313.15	0.1503	1.3996	0.0004
313.15	0.202	1.4015	0.0004
313.15	0.2502	1.4029	0.0004
313.15	0.3006	1.4045	0.0004
313.15	0.3502	1.4058	0.0004
313.15	0.4	1.4069	0.0004
313.15	0.4502	1.408	0.0004
313.15	0.5002	1.409	0.0004
313.15	0.5506	1.41	0.0004
313.15	0.6005	1.4109	0.0004
313.15	0.6502	1.4117	0.0004
313.15	0.7002	1.4125	0.0004
313.15	0.7493	1.4133	0.0004
313.15	0.8001	1.414	0.0004
313.15	0.8507	1.4148	0.0004
313.15	0.9009	1.4154	0.0004
313.15	0.9504	1.4162	0.0004
313.15	1	1.4171	0.0004
318.15	0	1.3875	0.0004
318.15	0.05	1.391	0.0004
318.15	0.1002	1.3944	0.0004
318.15	0.1503	1.3969	0.0004
318.15	0.202	1.3988	0.0004
318.15	0.2502	1.4004	0.0004
318.15	0.3006	1.4019	0.0004
318.15	0.3502	1.4032	0.0004
318.15	0.4	1.4044	0.0004
318.15	0.4502	1.4054	0.0004
318.15	0.5002	1.4065	0.0004
318.15	0.5506	1.4075	0.0004
318.15	0.6005	1.4085	0.0004
318.15	0.6502	1.4093	0.0004
318.15	0.7002	1.4101	0.0004
318.15	0.7493	1.4109	0.0004
318.15	0.8001	1.4117	0.0004
318.15	0.8507	1.4124	0.0004
318.15	0.9009	1.413	0.0004
318.15	0.9504	1.4138	0.0004
318.15	1	1.4146	0.0004
323.15	0	1.3848	0.0004
323.15	0.05	1.3887	0.0004
323.15	0.1002	1.3921	0.0004
323.15	0.1503	1.3948	0.0004
323.15	0.202	1.3968	0.0004
323.15	0.2502	1.3984	0.0004
323.15	0.3006	1.3999	0.0004
323.15	0.3502	1.4014	0.0004
323.15	0.4	1.4025	0.0004
323.15	0.4502	1.4036	0.0004
323.15	0.5002	1.4047	0.0004
323.15	0.5506	1.4058	0.0004
323.15	0.6005	1.4068	0.0004
323.15	0.6502	1.4077	0.0004
323.15	0.7002	1.4085	0.0004
323.15	0.7493	1.4093	0.0004
323.15	0.8001	1.4101	0.0004
323.15	0.8507	1.4109	0.0004
323.15	0.9009	1.4116	0.0004
323.15	0.9504	1.4123	0.0004
323.15	1	1.4131	0.0004

System: butan-1-ol + tributyl phosphate; phases: Liquid
Fixed: Pressure, kPa = 101
Fixed: Frequency, MHz = 1.5
Property: Speed of sound, m/s (Liquid); method: Sing-around technique in a fixed-path interferometer
Temperature, K	Mole fraction of tributyl phosphate	Speed of sound, m/s	uncertainty
303.15	0	1222.7	1.5
303.15	0.05	1223	1.5
303.15	0.1002	1223.3	1.5
303.15	0.1503	1223.6	1.5
303.15	0.202	1223.8	1.5
303.15	0.2502	1224.3	1.5
303.15	0.3006	1225.3	1.5
303.15	0.3502	1226.4	1.5
303.15	0.4	1227.6	1.5
303.15	0.4502	1229	1.5
303.15	0.5002	1230.6	1.5
303.15	0.5506	1232.3	1.5
303.15	0.6005	1234	1.5
303.15	0.6502	1235.7	1.5
303.15	0.7002	1237.3	1.5
303.15	0.7493	1238.9	1.5
303.15	0.8001	1240.4	1.5
303.15	0.8507	1241.9	1.5
303.15	0.9009	1243.5	1.5
303.15	0.9504	1245.1	1.5
303.15	1	1247.4	1.5
308.15	0	1206.3	1.5
308.15	0.05	1206.5	1.5
308.15	0.1002	1206.7	1.5
308.15	0.1503	1206.9	1.5
308.15	0.202	1207.1	1.5
308.15	0.2502	1207.5	1.5
308.15	0.3006	1208.5	1.5
308.15	0.3502	1209.6	1.5
308.15	0.4	1210.8	1.5
308.15	0.4502	1212.2	1.5
308.15	0.5002	1213.7	1.5
308.15	0.5506	1215.4	1.5
308.15	0.6005	1217.1	1.5
308.15	0.6502	1218.9	1.5
308.15	0.7002	1220.5	1.5
308.15	0.7493	1222	1.5
308.15	0.8001	1223.5	1.5
308.15	0.8507	1225.1	1.5
308.15	0.9009	1226.6	1.5
308.15	0.9504	1228.3	1.5
308.15	1	1230.5	1.5
313.15	0	1189.4	1.5
313.15	0.05	1189.6	1.5
313.15	0.1002	1189.8	1.5
313.15	0.1503	1189.9	1.5
313.15	0.202	1190.1	1.5
313.15	0.2502	1190.4	1.5
313.15	0.3006	1191.5	1.5
313.15	0.3502	1192.6	1.5
313.15	0.4	1193.8	1.5
313.15	0.4502	1195.2	1.5
313.15	0.5002	1196.7	1.5
313.15	0.5506	1198.5	1.5
313.15	0.6005	1200.3	1.5
313.15	0.6502	1202	1.5
313.15	0.7002	1203.6	1.5
313.15	0.7493	1205.2	1.5
313.15	0.8001	1206.8	1.5
313.15	0.8507	1208.3	1.5
313.15	0.9009	1210	1.5
313.15	0.9504	1211.6	1.5
313.15	1	1213.8	1.5
318.15	0	1172.8	1.5
318.15	0.05	1172.9	1.5
318.15	0.1002	1173.1	1.5
318.15	0.1503	1173.2	1.5
318.15	0.202	1173.3	1.5
318.15	0.2502	1173.6	1.5
318.15	0.3006	1174.6	1.5
318.15	0.3502	1175.6	1.5
318.15	0.4	1177	1.5
318.15	0.4502	1178.4	1.5
318.15	0.5002	1180	1.5
318.15	0.5506	1181.8	1.5
318.15	0.6005	1183.5	1.5
318.15	0.6502	1185.4	1.5
318.15	0.7002	1187	1.5
318.15	0.7493	1188.6	1.5
318.15	0.8001	1190.2	1.5
318.15	0.8507	1191.7	1.5
318.15	0.9009	1193.4	1.5
318.15	0.9504	1195.1	1.5
318.15	1	1197.3	1.5
323.15	0	1156.7	1.5
323.15	0.05	1156.8	1.5
323.15	0.1002	1156.9	1.5
323.15	0.1503	1157	1.5
323.15	0.202	1157.1	1.5
323.15	0.2502	1157.4	1.5
323.15	0.3006	1158.2	1.5
323.15	0.3502	1159.4	1.5
323.15	0.4	1160.7	1.5
323.15	0.4502	1162.2	1.5
323.15	0.5002	1163.8	1.5
323.15	0.5506	1165.5	1.5
323.15	0.6005	1167.4	1.5
323.15	0.6502	1169.2	1.5
323.15	0.7002	1170.9	1.5
323.15	0.7493	1172.5	1.5
323.15	0.8001	1174.2	1.5
323.15	0.8507	1175.7	1.5
323.15	0.9009	1177.4	1.5
323.15	0.9504	1179.2	1.5
323.15	1	1181.4	1.5
