Measured thermophysical data. Solubility Measurement and Thermodynamic Properties of Levetiracetam in Pure and Mixed Solvents
Source: J. Chem. Eng. Data, 2018, 10.1021/acs.jced.8b00720
Compound 1: (S)-2-(2-oxopyrrolidin-1-yl)butanamide, C8H14N2O2, InChI=1S/C8H14N2O2/c1-2-6(8(9)12)10-5-3-4-7(10)11/h6H,2-5H2,1H3,(H2,9,12)/t6-/m0/s1, purity 99.6%
Compound 2: methanol, CH4O, InChI=1S/CH4O/c1-2/h2H,1H3, purity 99.7%
Compound 3: propan-1-ol, C3H8O, InChI=1S/C3H8O/c1-2-3-4/h4H,2-3H2,1H3, purity 99.4%
Compound 4: propan-2-ol, C3H8O, InChI=1S/C3H8O/c1-3(2)4/h3-4H,1-2H3, purity 99.5%
Compound 5: ethanol, C2H6O, InChI=1S/C2H6O/c1-2-3/h3H,2H2,1H3, purity 99.5%
Compound 6: toluene, C7H8, InChI=1S/C7H8/c1-7-5-3-2-4-6-7/h2-6H,1H3, purity 99.6%
Compound 7: ethyl acetate, C4H8O2, InChI=1S/C4H8O2/c1-3-6-4(2)5/h3H2,1-2H3, purity 99.5%
Compound 8: acetonitrile, C2H3N, InChI=1S/C2H3N/c1-2-3/h1H3, purity 99.4%
Compound 9: 1,4-dioxane, C4H8O2, InChI=1S/C4H8O2/c1-2-6-4-3-5-1/h1-4H2, purity 99.6%
Compound 10: cyclohexane, C6H12, InChI=1S/C6H12/c1-2-4-6-5-3-1/h1-6H2, purity 99.6%
Compound 11: acetone, C3H6O, InChI=1S/C3H6O/c1-3(2)4/h1-2H3, purity 99.5%

System: (S)-2-(2-oxopyrrolidin-1-yl)butanamide; phases: Crystal, Liquid, Air at 1 atmosphere
Property: Triple point temperature, K (Crystal); method: DSC
Triple point temperature, K	uncertainty
389.85	1.24

System: (S)-2-(2-oxopyrrolidin-1-yl)butanamide; phases: Crystal, Liquid, Air at 1 atmosphere
Property: Molar enthalpy of transition or fusion, kJ/mol (Crystal); method: DSC
Molar enthalpy of transition or fusion, kJ/mol	uncertainty
29.57	1.03

System: (S)-2-(2-oxopyrrolidin-1-yl)butanamide + methanol; phases: Liquid, Crystal
Fixed: Pressure, kPa = 101.2
Property: Mole fraction of (S)-2-(2-oxopyrrolidin-1-yl)butanamide (Liquid); method: Chromatography
Temperature, K	Mole fraction of (S)-2-(2-oxopyrrolidin-1-yl)butanamide	uncertainty
283.15	0.08142	0.00211
288.15	0.09735	0.00252
293.15	0.1153	0.003
298.15	0.1356	0.0035
303.15	0.1578	0.0041
308.15	0.1824	0.0047
313.15	0.2094	0.0054
318.15	0.2388	0.0062
323.15	0.2702	0.007

System: (S)-2-(2-oxopyrrolidin-1-yl)butanamide + ethanol; phases: Liquid, Crystal
Fixed: Pressure, kPa = 101.2
Property: Mole fraction of (S)-2-(2-oxopyrrolidin-1-yl)butanamide (Liquid); method: Chromatography
Temperature, K	Mole fraction of (S)-2-(2-oxopyrrolidin-1-yl)butanamide	uncertainty
283.15	0.03836	0.00099
288.15	0.04593	0.00119
293.15	0.0546	0.00142
298.15	0.0643	0.00167
303.15	0.07583	0.00197
308.15	0.08849	0.00229
313.15	0.1031	0.0027
318.15	0.1197	0.0031
323.15	0.1383	0.0036

System: (S)-2-(2-oxopyrrolidin-1-yl)butanamide + propan-1-ol; phases: Liquid, Crystal
Fixed: Pressure, kPa = 101.2
Property: Mole fraction of (S)-2-(2-oxopyrrolidin-1-yl)butanamide (Liquid); method: Chromatography
Temperature, K	Mole fraction of (S)-2-(2-oxopyrrolidin-1-yl)butanamide	uncertainty
283.15	0.01671	0.00043
288.15	0.02067	0.00054
293.15	0.02522	0.00065
298.15	0.03026	0.00078
303.15	0.03625	0.00094
308.15	0.04344	0.00113
313.15	0.05196	0.00135
318.15	0.06142	0.00159
323.15	0.07291	0.00189

System: (S)-2-(2-oxopyrrolidin-1-yl)butanamide + propan-2-ol; phases: Liquid, Crystal
Fixed: Pressure, kPa = 101.2
Property: Mole fraction of (S)-2-(2-oxopyrrolidin-1-yl)butanamide (Liquid); method: Chromatography
Temperature, K	Mole fraction of (S)-2-(2-oxopyrrolidin-1-yl)butanamide	uncertainty
283.15	0.01148	0.0003
288.15	0.0147	0.00038
293.15	0.01853	0.00048
298.15	0.02292	0.00059
303.15	0.02863	0.00074
308.15	0.03542	0.00092
313.15	0.04353	0.00113
318.15	0.05369	0.00139
323.15	0.06631	0.00172

System: (S)-2-(2-oxopyrrolidin-1-yl)butanamide + acetone; phases: Liquid, Crystal
Fixed: Pressure, kPa = 101.2
Property: Mole fraction of (S)-2-(2-oxopyrrolidin-1-yl)butanamide (Liquid); method: Chromatography
Temperature, K	Mole fraction of (S)-2-(2-oxopyrrolidin-1-yl)butanamide	uncertainty
283.15	0.006978	0.000181
288.15	0.00887	0.00023
293.15	0.01114	0.00029
298.15	0.01403	0.00036
303.15	0.01748	0.00045
308.15	0.02171	0.00056
313.15	0.02677	0.00069
318.15	0.03299	0.00086
323.15	0.04046	0.00105

System: (S)-2-(2-oxopyrrolidin-1-yl)butanamide + 1,4-dioxane; phases: Liquid, Crystal
Fixed: Pressure, kPa = 101.2
Property: Mole fraction of (S)-2-(2-oxopyrrolidin-1-yl)butanamide (Liquid); method: Chromatography
Temperature, K	Mole fraction of (S)-2-(2-oxopyrrolidin-1-yl)butanamide	uncertainty
288.15	0.007179	0.000186
293.15	0.009024	0.000234
298.15	0.01116	0.00029
303.15	0.01403	0.00036
308.15	0.0173	0.00045
313.15	0.02136	0.00055
318.15	0.02629	0.00068
323.15	0.03221	0.00084

System: (S)-2-(2-oxopyrrolidin-1-yl)butanamide + acetonitrile; phases: Liquid, Crystal
Fixed: Pressure, kPa = 101.2
Property: Mole fraction of (S)-2-(2-oxopyrrolidin-1-yl)butanamide (Liquid); method: Chromatography
Temperature, K	Mole fraction of (S)-2-(2-oxopyrrolidin-1-yl)butanamide	uncertainty
283.15	0.009088	0.000236
288.15	0.01128	0.00029
293.15	0.01372	0.00036
298.15	0.01677	0.00043
303.15	0.02032	0.00053
308.15	0.02446	0.00063
313.15	0.0292	0.00076
318.15	0.03495	0.00091
323.15	0.04165	0.00108

System: (S)-2-(2-oxopyrrolidin-1-yl)butanamide + ethyl acetate; phases: Liquid, Crystal
Fixed: Pressure, kPa = 101.2
Property: Mole fraction of (S)-2-(2-oxopyrrolidin-1-yl)butanamide (Liquid); method: Chromatography
Temperature, K	Mole fraction of (S)-2-(2-oxopyrrolidin-1-yl)butanamide	uncertainty
283.15	0.004242	0.00011
288.15	0.005392	0.00014
293.15	0.006762	0.000175
298.15	0.008475	0.00022
303.15	0.01044	0.00027
308.15	0.01287	0.00033
313.15	0.01584	0.00041
318.15	0.01939	0.0005
323.15	0.02362	0.00061

System: (S)-2-(2-oxopyrrolidin-1-yl)butanamide + toluene; phases: Liquid, Crystal
Fixed: Pressure, kPa = 101.2
Property: Mole fraction of (S)-2-(2-oxopyrrolidin-1-yl)butanamide (Liquid); method: Chromatography
Temperature, K	Mole fraction of (S)-2-(2-oxopyrrolidin-1-yl)butanamide	uncertainty
283.15	0.001221	3.2e-05
288.15	0.001669	4.3e-05
293.15	0.002204	5.7e-05
298.15	0.002995	7.8e-05
303.15	0.003934	0.000102
308.15	0.005243	0.000136
313.15	0.006991	0.000182
318.15	0.009467	0.000246
323.15	0.01293	0.00034

System: (S)-2-(2-oxopyrrolidin-1-yl)butanamide + cyclohexane; phases: Liquid, Crystal
Fixed: Pressure, kPa = 101.2
Property: Mole fraction of (S)-2-(2-oxopyrrolidin-1-yl)butanamide (Liquid); method: Chromatography
Temperature, K	Mole fraction of (S)-2-(2-oxopyrrolidin-1-yl)butanamide	uncertainty
283.15	1.371e-05	3.6e-07
288.15	1.916e-05	5e-07
293.15	2.613e-05	6.8e-07
298.15	3.638e-05	9.5e-07
303.15	4.907e-05	1.28e-06
308.15	6.614e-05	1.72e-06
313.15	8.948e-05	2.33e-06
318.15	0.0001202	3.1e-06
323.15	0.0001595	4.1e-06

System: (S)-2-(2-oxopyrrolidin-1-yl)butanamide + ethanol + ethyl acetate; phases: Liquid, Crystal
Fixed: Pressure, kPa = 101.1
Property: Mole fraction of (S)-2-(2-oxopyrrolidin-1-yl)butanamide (Liquid); method: Chromatography
Temperature, K	Solvent: Mass fraction of ethanol	Mole fraction of (S)-2-(2-oxopyrrolidin-1-yl)butanamide	uncertainty
283.15	1	0.03836	0.00099
288.15	1	0.04593	0.00119
293.15	1	0.0546	0.00142
298.15	1	0.0643	0.00167
303.15	1	0.07583	0.00197
308.15	1	0.08849	0.00229
313.15	1	0.1031	0.0027
318.15	1	0.1197	0.0031
323.15	1	0.1383	0.0036
283.15	0.8	0.02944	0.00091
288.15	0.8	0.03593	0.0011
293.15	0.8	0.04262	0.00129
298.15	0.8	0.05108	0.00155
303.15	0.8	0.06007	0.0018
308.15	0.8	0.07089	0.00211
313.15	0.8	0.08321	0.00245
318.15	0.8	0.09738	0.00285
323.15	0.8	0.1127	0.0033
283.15	0.6	0.02158	0.00103
288.15	0.6	0.02661	0.00127
293.15	0.6	0.03219	0.00148
298.15	0.6	0.0377	0.00172
303.15	0.6	0.04568	0.00202
308.15	0.6	0.05399	0.00236
313.15	0.6	0.06404	0.00276
318.15	0.6	0.07579	0.00318
323.15	0.6	0.08902	0.00363
283.15	0.4	0.015	0.00086
288.15	0.4	0.0182	0.00103
293.15	0.4	0.02215	0.00124
298.15	0.4	0.02745	0.00143
303.15	0.4	0.03284	0.00172
308.15	0.4	0.03915	0.00202
313.15	0.4	0.0464	0.00235
318.15	0.4	0.05569	0.00276
323.15	0.4	0.06605	0.00321
283.15	0.2	0.008852	0.000396
288.15	0.2	0.01141	0.00049
293.15	0.2	0.0139	0.00059
298.15	0.2	0.01702	0.00072
303.15	0.2	0.02079	0.00086
308.15	0.2	0.02489	0.00102
313.15	0.2	0.03033	0.00121
318.15	0.2	0.03656	0.00144
323.15	0.2	0.04384	0.00171
283.15	0	0.004242	0.00011
288.15	0	0.005392	0.00014
293.15	0	0.006762	0.000175
298.15	0	0.008475	0.00022
303.15	0	0.01044	0.00027
308.15	0	0.01287	0.00033
313.15	0	0.01584	0.00041
318.15	0	0.01939	0.0005
323.15	0	0.02362	0.00061
