Measured thermophysical data. Solubility and Data Correlation of Isoniazid in Different Pure and Binary Mixed Solvent Systems from 283.15 K to 323.15 K
Source: J. Chem. Eng. Data, 2018, 10.1021/acs.jced.8b00785
Compound 1: isonicotinic acid hydrazide, C6H7N3O, InChI=1S/C6H7N3O/c7-9-6(10)5-1-3-8-4-2-5/h1-4H,7H2,(H,9,10), purity 99%
Compound 2: methanol, CH4O, InChI=1S/CH4O/c1-2/h2H,1H3, purity 99.5%
Compound 3: ethanol, C2H6O, InChI=1S/C2H6O/c1-2-3/h3H,2H2,1H3, purity 99.5%
Compound 4: propan-1-ol, C3H8O, InChI=1S/C3H8O/c1-2-3-4/h4H,2-3H2,1H3, purity 99.5%
Compound 5: dimethylformamide, C3H7NO, InChI=1S/C3H7NO/c1-4(2)3-5/h3H,1-2H3, purity 99.5%
Compound 6: ethyl acetate, C4H8O2, InChI=1S/C4H8O2/c1-3-6-4(2)5/h3H2,1-2H3, purity 99.5%
Compound 7: acetonitrile, C2H3N, InChI=1S/C2H3N/c1-2-3/h1H3, purity 99.5%
Compound 8: water, H2O, InChI=1S/H2O/h1H2, purity 99.9%
Compound 9: propan-2-ol, C3H8O, InChI=1S/C3H8O/c1-3(2)4/h3-4H,1-2H3, purity 99.5%
Compound 10: 3,7-dihydro-1,3-dimethyl-1H-purine-2,6-dione, C7H8N4O2, InChI=1S/C7H8N4O2/c1-10-5-4(8-3-9-5)6(12)11(2)7(10)13/h3H,1-2H3,(H,8,9), purity 99%

System: isonicotinic acid hydrazide; phases: Crystal, Liquid, Air at 1 atmosphere
Property: Triple point temperature, K (Crystal); method: DSC
Triple point temperature, K	uncertainty
446.04	0.87

System: isonicotinic acid hydrazide; phases: Crystal, Liquid, Air at 1 atmosphere
Property: Molar enthalpy of transition or fusion, kJ/mol (Crystal); method: DSC
Molar enthalpy of transition or fusion, kJ/mol	uncertainty
28.13	1.52

System: isonicotinic acid hydrazide + water; phases: Liquid, Crystal
Fixed: Pressure, kPa = 100
Property: Mole fraction of isonicotinic acid hydrazide (Liquid); method: gravimetric
Temperature, K	Mole fraction of isonicotinic acid hydrazide	uncertainty
283.15	0.010582	0.000428
288.15	0.013397	0.000539
293.15	0.015923	0.000641
298.15	0.019794	0.000797
303.15	0.024012	0.000967
308.15	0.029615	0.001192
313.15	0.035416	0.001424
318.15	0.042142	0.001696
323.15	0.051677	0.002079

System: isonicotinic acid hydrazide + methanol; phases: Liquid, Crystal
Fixed: Pressure, kPa = 100
Property: Mole fraction of isonicotinic acid hydrazide (Liquid); method: gravimetric
Temperature, K	Mole fraction of isonicotinic acid hydrazide	uncertainty
283.15	0.005741	0.000231
288.15	0.006702	0.000269
293.15	0.007966	0.00032
298.15	0.009609	0.000386
303.15	0.011175	0.000449
308.15	0.013142	0.000528
313.15	0.015139	0.000608
318.15	0.01792	0.00072
323.15	0.021118	0.000848

System: isonicotinic acid hydrazide + ethanol; phases: Liquid, Crystal
Fixed: Pressure, kPa = 100
Property: Mole fraction of isonicotinic acid hydrazide (Liquid); method: gravimetric
Temperature, K	Mole fraction of isonicotinic acid hydrazide	uncertainty
283.15	0.002665	0.000107
288.15	0.003177	0.000128
293.15	0.003838	0.000154
298.15	0.004647	0.000187
303.15	0.005494	0.000221
308.15	0.00646	0.00026
313.15	0.007538	0.000303
318.15	0.008705	0.00035
323.15	0.009964	0.0004

System: isonicotinic acid hydrazide + propan-1-ol; phases: Liquid, Crystal
Fixed: Pressure, kPa = 100
Property: Mole fraction of isonicotinic acid hydrazide (Liquid); method: gravimetric
Temperature, K	Mole fraction of isonicotinic acid hydrazide	uncertainty
283.15	0.002191	8.8e-05
288.15	0.002636	0.000106
293.15	0.003292	0.000133
298.15	0.004189	0.000169
303.15	0.004953	0.000199
308.15	0.005901	0.000237
313.15	0.007052	0.000284
318.15	0.008403	0.000338
323.15	0.009833	0.000395

System: isonicotinic acid hydrazide + propan-2-ol; phases: Liquid, Crystal
Fixed: Pressure, kPa = 100
Property: Mole fraction of isonicotinic acid hydrazide (Liquid); method: gravimetric
Temperature, K	Mole fraction of isonicotinic acid hydrazide	uncertainty
283.15	0.002102	8.5e-05
288.15	0.002534	0.000102
293.15	0.003145	0.000127
298.15	0.003727	0.00015
303.15	0.004533	0.000183
308.15	0.005578	0.000224
313.15	0.006513	0.000262
318.15	0.008044	0.000324
323.15	0.009491	0.000381

System: isonicotinic acid hydrazide + dimethylformamide; phases: Liquid, Crystal
Fixed: Pressure, kPa = 100
Property: Mole fraction of isonicotinic acid hydrazide (Liquid); method: gravimetric
Temperature, K	Mole fraction of isonicotinic acid hydrazide	uncertainty
283.15	0.022998	0.000925
288.15	0.027019	0.001085
293.15	0.031015	0.001245
298.15	0.034962	0.001404
303.15	0.04118	0.001653
308.15	0.045849	0.001839
313.15	0.051141	0.002051
318.15	0.056705	0.002276
323.15	0.06491	0.002605

System: isonicotinic acid hydrazide + ethyl acetate; phases: Liquid, Crystal
Fixed: Pressure, kPa = 100
Property: Mole fraction of isonicotinic acid hydrazide (Liquid); method: gravimetric
Temperature, K	Mole fraction of isonicotinic acid hydrazide	uncertainty
283.15	0.000976	3.9e-05
288.15	0.001198	4.8e-05
293.15	0.00136	5.5e-05
298.15	0.001602	6.4e-05
303.15	0.001946	7.8e-05
308.15	0.002342	9.4e-05
313.15	0.002788	0.000112
318.15	0.003306	0.000133
323.15	0.003736	0.00015

System: isonicotinic acid hydrazide + acetonitrile; phases: Liquid, Crystal
Fixed: Pressure, kPa = 100
Property: Mole fraction of isonicotinic acid hydrazide (Liquid); method: gravimetric
Temperature, K	Mole fraction of isonicotinic acid hydrazide	uncertainty
283.15	0.000725	2.9e-05
288.15	0.000912	3.7e-05
293.15	0.00109	4.4e-05
298.15	0.001409	5.7e-05
303.15	0.00169	6.8e-05
308.15	0.002004	8.1e-05
313.15	0.002406	9.7e-05
318.15	0.002881	0.000116
323.15	0.003308	0.000133

System: isonicotinic acid hydrazide + methanol + water; phases: Liquid, Crystal
Fixed: Pressure, kPa = 100
Property: Mole fraction of isonicotinic acid hydrazide (Liquid); method: gravimetric
Temperature, K	Solvent: Mole fraction of methanol	Mole fraction of isonicotinic acid hydrazide	uncertainty
283.15	0	0.010582	0.000428
283.15	0.1	0.011164	0.00045
283.15	0.2	0.012479	0.000504
283.15	0.3	0.014295	0.000578
283.15	0.4	0.015115	0.000609
283.15	0.5	0.01455	0.000588
283.15	0.6	0.013247	0.000538
283.15	0.7	0.011007	0.000448
283.15	0.8	0.008816	0.000357
283.15	0.9	0.007068	0.000284
283.15	1	0.005741	0.000231
288.15	0	0.013397	0.000539
288.15	0.1	0.013986	0.000563
288.15	0.2	0.015415	0.000622
288.15	0.3	0.017388	0.000701
288.15	0.4	0.017806	0.000716
288.15	0.5	0.017211	0.000695
288.15	0.6	0.015473	0.000627
288.15	0.7	0.013143	0.000534
288.15	0.8	0.010434	0.000422
288.15	0.9	0.008313	0.000335
288.15	1	0.006702	0.000269
293.15	0	0.015923	0.000641
293.15	0.1	0.016988	0.000685
293.15	0.2	0.019266	0.000778
293.15	0.3	0.021316	0.000859
293.15	0.4	0.021809	0.000878
293.15	0.5	0.020694	0.000837
293.15	0.6	0.018394	0.000747
293.15	0.7	0.01547	0.000628
293.15	0.8	0.012481	0.000505
293.15	0.9	0.009922	0.0004
293.15	1	0.007966	0.00032
298.15	0	0.019794	0.000797
298.15	0.1	0.021585	0.00087
298.15	0.2	0.024147	0.000973
298.15	0.3	0.02601	0.001047
298.15	0.4	0.026292	0.001057
298.15	0.5	0.024815	0.001003
298.15	0.6	0.022001	0.000893
298.15	0.7	0.018662	0.000757
298.15	0.8	0.015206	0.000615
298.15	0.9	0.011903	0.000479
298.15	1	0.009609	0.000386
303.15	0	0.024012	0.000967
303.15	0.1	0.026411	0.001064
303.15	0.2	0.029313	0.001181
303.15	0.3	0.030962	0.001246
303.15	0.4	0.030771	0.001238
303.15	0.5	0.028592	0.001157
303.15	0.6	0.025441	0.001031
303.15	0.7	0.021523	0.000873
303.15	0.8	0.017582	0.000711
303.15	0.9	0.013922	0.000561
303.15	1	0.011175	0.000449
308.15	0	0.029615	0.001192
308.15	0.1	0.032903	0.001324
308.15	0.2	0.035889	0.001445
308.15	0.3	0.037424	0.001506
308.15	0.4	0.036671	0.001476
308.15	0.5	0.033992	0.00138
308.15	0.6	0.029035	0.001179
308.15	0.7	0.025726	0.001041
308.15	0.8	0.020902	0.000845
308.15	0.9	0.016573	0.000667
308.15	1	0.013142	0.000528
313.15	0	0.035416	0.001424
313.15	0.1	0.039049	0.001571
313.15	0.2	0.042797	0.001722
313.15	0.3	0.045094	0.001812
313.15	0.4	0.043236	0.00174
313.15	0.5	0.040307	0.00163
313.15	0.6	0.035638	0.001446
313.15	0.7	0.030291	0.001228
313.15	0.8	0.024426	0.000988
313.15	0.9	0.018703	0.000753
313.15	1	0.015139	0.000608
318.15	0	0.042142	0.001696
318.15	0.1	0.047447	0.00191
318.15	0.2	0.051094	0.002056
318.15	0.3	0.05193	0.002087
318.15	0.4	0.049969	0.002012
318.15	0.5	0.046198	0.00187
318.15	0.6	0.04083	0.001656
318.15	0.7	0.034576	0.001401
318.15	0.8	0.028674	0.001159
318.15	0.9	0.022811	0.000919
318.15	1	0.01792	0.00072
323.15	0	0.051677	0.002079
323.15	0.1	0.057443	0.002309
323.15	0.2	0.061632	0.002476
323.15	0.3	0.062098	0.002495
323.15	0.4	0.060048	0.002417
323.15	0.5	0.054428	0.002209
323.15	0.6	0.047088	0.001911
323.15	0.7	0.040692	0.001646
323.15	0.8	0.034122	0.001378
323.15	0.9	0.026984	0.001087
323.15	1	0.021118	0.000848

System: isonicotinic acid hydrazide + ethanol + water; phases: Liquid, Crystal
Fixed: Pressure, kPa = 100
Property: Mole fraction of isonicotinic acid hydrazide (Liquid); method: gravimetric
Temperature, K	Solvent: Mole fraction of ethanol	Mole fraction of isonicotinic acid hydrazide	uncertainty
283.15	0	0.010582	0.000638
283.15	0.1	0.014155	0.000853
283.15	0.2	0.018663	0.001126
283.15	0.3	0.020717	0.001248
283.15	0.4	0.019877	0.001198
283.15	0.5	0.017157	0.001042
283.15	0.6	0.014173	0.000863
283.15	0.7	0.010376	0.000633
283.15	0.8	0.006837	0.000416
283.15	0.9	0.004295	0.000259
283.15	1	0.002665	0.00016
288.15	0	0.013397	0.000806
288.15	0.1	0.01723	0.001038
288.15	0.2	0.022423	0.001351
288.15	0.3	0.024468	0.001471
288.15	0.4	0.023442	0.001412
288.15	0.5	0.020281	0.001231
288.15	0.6	0.016557	0.001008
288.15	0.7	0.012102	0.000738
288.15	0.8	0.008284	0.000503
288.15	0.9	0.005198	0.000314
288.15	1	0.003177	0.000191
293.15	0	0.015923	0.000958
293.15	0.1	0.021043	0.001268
293.15	0.2	0.02684	0.001616
293.15	0.3	0.028428	0.001709
293.15	0.4	0.026693	0.001608
293.15	0.5	0.023221	0.001411
293.15	0.6	0.01844	0.001125
293.15	0.7	0.013669	0.000833
293.15	0.8	0.009412	0.000571
293.15	0.9	0.005995	0.000362
293.15	1	0.003838	0.000231
298.15	0	0.019794	0.001191
298.15	0.1	0.026235	0.001581
298.15	0.2	0.032229	0.00194
298.15	0.3	0.033445	0.002011
298.15	0.4	0.031102	0.001875
298.15	0.5	0.02683	0.001631
298.15	0.6	0.021465	0.001309
298.15	0.7	0.015982	0.000973
298.15	0.8	0.011079	0.000672
298.15	0.9	0.007289	0.00044
298.15	1	0.004647	0.000279
303.15	0	0.024012	0.001445
303.15	0.1	0.032667	0.001967
303.15	0.2	0.038659	0.002326
303.15	0.3	0.039656	0.002384
303.15	0.4	0.036491	0.0022
303.15	0.5	0.031413	0.00191
303.15	0.6	0.025078	0.001528
303.15	0.7	0.018809	0.001144
303.15	0.8	0.013252	0.000803
303.15	0.9	0.008787	0.00053
303.15	1	0.005494	0.00033
308.15	0	0.029615	0.001782
308.15	0.1	0.039859	0.002398
308.15	0.2	0.045209	0.002719
308.15	0.3	0.046031	0.002767
308.15	0.4	0.042213	0.002545
308.15	0.5	0.036174	0.002199
308.15	0.6	0.028973	0.001765
308.15	0.7	0.021621	0.001315
308.15	0.8	0.015609	0.000945
308.15	0.9	0.010284	0.00062
308.15	1	0.00646	0.000388
313.15	0	0.035416	0.00213
313.15	0.1	0.046005	0.002769
313.15	0.2	0.05358	0.003222
313.15	0.3	0.053004	0.003187
313.15	0.4	0.048836	0.002944
313.15	0.5	0.041717	0.00254
313.15	0.6	0.032604	0.001988
313.15	0.7	0.025043	0.001521
313.15	0.8	0.017914	0.001085
313.15	0.9	0.011938	0.00072
313.15	1	0.007538	0.000453
318.15	0	0.042142	0.002535
318.15	0.1	0.057395	0.003454
318.15	0.2	0.062684	0.003768
318.15	0.3	0.061314	0.003686
318.15	0.4	0.055931	0.003373
318.15	0.5	0.047395	0.002882
318.15	0.6	0.03815	0.002324
318.15	0.7	0.028404	0.001728
318.15	0.8	0.020393	0.001234
318.15	0.9	0.014213	0.000857
318.15	1	0.008705	0.000523
323.15	0	0.051677	0.003108
323.15	0.1	0.066785	0.004012
323.15	0.2	0.070916	0.00426
323.15	0.3	0.069824	0.004196
323.15	0.4	0.06354	0.003832
323.15	0.5	0.052598	0.003201
323.15	0.6	0.043031	0.002615
323.15	0.7	0.03298	0.002004
323.15	0.8	0.023534	0.001425
323.15	0.9	0.016656	0.001004
323.15	1	0.009964	0.000599

System: isonicotinic acid hydrazide + propan-2-ol + water; phases: Liquid, Crystal
Fixed: Pressure, kPa = 100
Property: Mole fraction of isonicotinic acid hydrazide (Liquid); method: gravimetric
Temperature, K	Solvent: Mole fraction of propan-2-ol	Mole fraction of isonicotinic acid hydrazide	uncertainty
283.15	0	0.010582	0.00106
283.15	0.1	0.017095	0.001713
283.15	0.2	0.021169	0.002121
283.15	0.3	0.02158	0.00216
283.15	0.4	0.020234	0.002027
283.15	0.5	0.017522	0.001762
283.15	0.6	0.013634	0.001372
283.15	0.7	0.010256	0.001031
283.15	0.8	0.00695	0.000698
283.15	0.9	0.004265	0.000428
283.15	1	0.002102	0.00021
288.15	0	0.013397	0.001341
288.15	0.1	0.020835	0.002087
288.15	0.2	0.025553	0.002558
288.15	0.3	0.025426	0.002545
288.15	0.4	0.023231	0.002327
288.15	0.5	0.020384	0.002048
288.15	0.6	0.015947	0.001604
288.15	0.7	0.01198	0.001205
288.15	0.8	0.007937	0.000797
288.15	0.9	0.005134	0.000515
288.15	1	0.002534	0.000254
293.15	0	0.015923	0.001594
293.15	0.1	0.025806	0.002584
293.15	0.2	0.03061	0.003064
293.15	0.3	0.029837	0.002986
293.15	0.4	0.026968	0.002702
293.15	0.5	0.023145	0.002327
293.15	0.6	0.01775	0.001787
293.15	0.7	0.013403	0.001347
293.15	0.8	0.009338	0.000937
293.15	0.9	0.005982	0.000599
293.15	1	0.003145	0.000315
298.15	0	0.019794	0.001981
298.15	0.1	0.031199	0.003125
298.15	0.2	0.035757	0.003579
298.15	0.3	0.034443	0.003448
298.15	0.4	0.030823	0.003088
298.15	0.5	0.02689	0.002703
298.15	0.6	0.020514	0.002066
298.15	0.7	0.015233	0.001531
298.15	0.8	0.010916	0.001096
298.15	0.9	0.006984	0.0007
298.15	1	0.003727	0.000373
303.15	0	0.024012	0.002404
303.15	0.1	0.039621	0.003967
303.15	0.2	0.043757	0.004379
303.15	0.3	0.041029	0.004107
303.15	0.4	0.036429	0.003651
303.15	0.5	0.031211	0.003138
303.15	0.6	0.024041	0.00242
303.15	0.7	0.018255	0.001834
303.15	0.8	0.012874	0.001292
303.15	0.9	0.008531	0.000855
303.15	1	0.004533	0.000454
308.15	0	0.029615	0.002964
308.15	0.1	0.04601	0.004606
308.15	0.2	0.049572	0.004961
308.15	0.3	0.046957	0.0047
308.15	0.4	0.041462	0.004155
308.15	0.5	0.035763	0.003595
308.15	0.6	0.027487	0.002766
308.15	0.7	0.020903	0.0021
308.15	0.8	0.014778	0.001483
308.15	0.9	0.010218	0.001024
308.15	1	0.005578	0.000558
313.15	0	0.035416	0.003545
313.15	0.1	0.055054	0.005511
313.15	0.2	0.05866	0.00587
313.15	0.3	0.054548	0.00546
313.15	0.4	0.047682	0.004779
313.15	0.5	0.040416	0.004064
313.15	0.6	0.031418	0.003162
313.15	0.7	0.023296	0.002341
313.15	0.8	0.017289	0.001734
313.15	0.9	0.011653	0.001167
313.15	1	0.006513	0.000652
318.15	0	0.042142	0.004218
318.15	0.1	0.063302	0.006336
318.15	0.2	0.066408	0.006645
318.15	0.3	0.061543	0.00616
318.15	0.4	0.054178	0.005429
318.15	0.5	0.046571	0.004683
318.15	0.6	0.035509	0.003574
318.15	0.7	0.027039	0.002715
318.15	0.8	0.02003	0.002009
318.15	0.9	0.013605	0.001363
318.15	1	0.008044	0.000805
323.15	0	0.051677	0.005172
323.15	0.1	0.07382	0.007385
323.15	0.2	0.075996	0.007603
323.15	0.3	0.070031	0.00701
323.15	0.4	0.062109	0.006224
323.15	0.5	0.05228	0.00526
323.15	0.6	0.039848	0.004011
323.15	0.7	0.030593	0.003071
323.15	0.8	0.023043	0.00231
323.15	0.9	0.015935	0.001596
323.15	1	0.009491	0.00095

System: 3,7-dihydro-1,3-dimethyl-1H-purine-2,6-dione + methanol; phases: Liquid, Crystal
Fixed: Pressure, kPa = 100
Property: Mole fraction of 3,7-dihydro-1,3-dimethyl-1H-purine-2,6-dione (Liquid); method: gravimetric
Temperature, K	Mole fraction of 3,7-dihydro-1,3-dimethyl-1H-purine-2,6-dione	uncertainty
298.16	0.001309	5.3e-05
308.16	0.002037	8.2e-05
318.13	0.002826	0.000113

System: 3,7-dihydro-1,3-dimethyl-1H-purine-2,6-dione + ethanol; phases: Liquid, Crystal
Fixed: Pressure, kPa = 100
Property: Mole fraction of 3,7-dihydro-1,3-dimethyl-1H-purine-2,6-dione (Liquid); method: gravimetric
Temperature, K	Mole fraction of 3,7-dihydro-1,3-dimethyl-1H-purine-2,6-dione	uncertainty
297.95	0.001084	4.4e-05
308.01	0.001649	6.6e-05
318.11	0.002425	9.7e-05
