Measured thermophysical data. Liquid-Liquid Extraction of Butanol from Heptane + Butanol Mixture by Ionic Liquids
Source: J. Chem. Eng. Data, 2017, 10.1021/acs.jced.7b00635
Compound 1: heptane, C7H16, InChI=1S/C7H16/c1-3-5-7-6-4-2/h3-7H2,1-2H3, purity 99%
Compound 2: butan-1-ol, C4H10O, InChI=1S/C4H10O/c1-2-3-4-5/h5H,2-4H2,1H3, purity 99.8%
Compound 3: 1-hexyl-3-methylimidazolium tetrafluoroborate, C10H19BF4N2, InChI=1S/C10H19N2.BF4/c1-3-4-5-6-7-12-9-8-11(2)10-12;2-1(3,4)5/h8-10H,3-7H2,1-2H3;/q+1;-1, purity 99%
Compound 4: 1-methyl-3-octylimidazolium tetrafluoroborate, C12H23BF4N2, InChI=1S/C12H23N2.BF4/c1-3-4-5-6-7-8-9-14-11-10-13(2)12-14;2-1(3,4)5/h10-12H,3-9H2,1-2H3;/q+1;-1, purity 99%
Compound 5: 1-hexyl-3-methylimidazolium bis[(trifluoromethyl)sulfonyl]imide, C12H19F6N3O4S2, InChI=1S/C10H19N2.C2F6NO4S2/c1-3-4-5-6-7-12-9-8-11(2)10-12;3-1(4,5)14(10,11)9-15(12,13)2(6,7)8/h8-10H,3-7H2,1-2H3;/q+1;-1, purity 99%
Compound 6: 1-hexyl-3-methylimidazolium trifluoromethanesulfonate, C11H19F3N2O3S, InChI=1S/C10H19N2.CHF3O3S/c1-3-4-5-6-7-12-9-8-11(2)10-12;2-1(3,4)8(5,6)7/h8-10H,3-7H2,1-2H3;(H,5,6,7)/q+1;/p-1, purity 99%

System: heptane + butan-1-ol + 1-hexyl-3-methylimidazolium tetrafluoroborate; phases: Liquid mixture 1, Liquid mixture 2
Property: Mole fraction of heptane (Liquid mixture 1); method: Titration method
Mole fraction of butan-1-ol	Pressure, kPa	Temperature, K	Mole fraction of heptane	uncertainty
0.6714	100	298.15	0.2356	0.0406

System: heptane + butan-1-ol + 1-hexyl-3-methylimidazolium tetrafluoroborate; phases: Liquid mixture 1, Liquid mixture 2
Fixed: Temperature, K = 298.15
Fixed: Pressure, kPa = 100
Property: Mole fraction of heptane (Liquid mixture 1); method: Chromatography
Property: Mole fraction of heptane (Liquid mixture 2); method: Chromatography
Property: Mole fraction of butan-1-ol (Liquid mixture 2); method: Chromatography
Mole fraction of butan-1-ol	Mole fraction of heptane	uncertainty	Mole fraction of heptane	uncertainty	Mole fraction of butan-1-ol	uncertainty
0.035	0.965	0.035	0.041	0.04	0.158	
0.056	0.944	0.056	0.055	0.04	0.189	
0.094	0.906	0.057	0.072	0.04	0.219	
0.161	0.838	0.057	0.082	0.04	0.237	
0.234	0.765	0.058	0.09	0.04	0.251	
0.368	0.623	0.057	0.104	0.04	0.28	
0.499	0.493	0.056	0.109	0.04	0.308	
0.678	0.319	0.056	0.1	0.04	0.347	

System: heptane + butan-1-ol + 1-methyl-3-octylimidazolium tetrafluoroborate; phases: Liquid mixture 1, Liquid mixture 2
Property: Mole fraction of heptane (Liquid mixture 1); method: Titration method
Mole fraction of butan-1-ol	Pressure, kPa	Temperature, K	Mole fraction of heptane	uncertainty
0.6476	100	298.15	0.259	0.0407

System: heptane + butan-1-ol + 1-methyl-3-octylimidazolium tetrafluoroborate; phases: Liquid mixture 2, Liquid mixture 1
Fixed: Temperature, K = 298.15
Fixed: Pressure, kPa = 100
Property: Mole fraction of heptane (Liquid mixture 2); method: Chromatography
Property: Mole fraction of butan-1-ol (Liquid mixture 1); method: Chromatography
Property: Mole fraction of heptane (Liquid mixture 1); method: Chromatography
Mole fraction of butan-1-ol	Mole fraction of heptane	uncertainty	Mole fraction of butan-1-ol	uncertainty	Mole fraction of heptane	uncertainty
0.142	0.101	0.043	0.05	0.05	0.949	
0.281	0.157	0.041	0.17	0.057	0.829	
0.371	0.16	0.04	0.323	0.057	0.676	
0.444	0.173	0.041	0.438	0.056	0.56	
0.496	0.187	0.044	0.586	0.055	0.409	
0.544	0.218	0.048	0.631	0.051	0.353	

System: heptane + butan-1-ol + 1-hexyl-3-methylimidazolium bis[(trifluoromethyl)sulfonyl]imide; phases: Liquid mixture 1, Liquid mixture 2
Property: Mole fraction of heptane (Liquid mixture 1); method: Titration method
Mole fraction of butan-1-ol	Pressure, kPa	Temperature, K	Mole fraction of heptane	uncertainty
0.7024	100	298.15	0.2423	0.0406

System: heptane + butan-1-ol + 1-hexyl-3-methylimidazolium bis[(trifluoromethyl)sulfonyl]imide; phases: Liquid mixture 1, Liquid mixture 2
Fixed: Temperature, K = 298.15
Fixed: Pressure, kPa = 100
Property: Mole fraction of heptane (Liquid mixture 1); method: Chromatography
Property: Mole fraction of heptane (Liquid mixture 2); method: Chromatography
Property: Mole fraction of butan-1-ol (Liquid mixture 2); method: Chromatography
Mole fraction of butan-1-ol	Mole fraction of heptane	uncertainty	Mole fraction of heptane	uncertainty	Mole fraction of butan-1-ol	uncertainty
0.03	0.97	0.03	0.106	0.041	0.141	
0.053	0.947	0.053	0.126	0.041	0.221	
0.096	0.904	0.057	0.14	0.044	0.264	
0.133	0.866	0.057	0.159	0.044	0.293	
0.214	0.785	0.057	0.184	0.043	0.353	
0.281	0.716	0.057	0.202	0.045	0.378	

System: heptane + butan-1-ol + 1-hexyl-3-methylimidazolium trifluoromethanesulfonate; phases: Liquid mixture 2, Liquid mixture 1
Fixed: Temperature, K = 298.15
Fixed: Pressure, kPa = 100
Property: Mole fraction of heptane (Liquid mixture 2); method: Chromatography
Property: Mole fraction of butan-1-ol (Liquid mixture 1); method: Chromatography
Property: Mole fraction of heptane (Liquid mixture 1); method: Chromatography
Mole fraction of butan-1-ol	Mole fraction of heptane	uncertainty	Mole fraction of butan-1-ol	uncertainty	Mole fraction of heptane	uncertainty
0.162	0.135	0.041	0.015	0.015	0.984	
0.281	0.154	0.041	0.052	0.052	0.948	
0.378	0.169	0.041	0.081	0.056	0.919	
0.436	0.186	0.044	0.095	0.056	0.904	
0.468	0.205	0.044	0.136	0.056	0.862	
0.492	0.223	0.057	0.193	0.055	0.804	
0.52	0.235	0.046	0.223	0.056	0.772	
0.525	0.256	0.054	0.248	0.056	0.744	
0.533	0.287	0.074	0.296	0.059	0.699	

System: heptane + butan-1-ol + 1-hexyl-3-methylimidazolium trifluoromethanesulfonate; phases: Liquid mixture 1, Liquid mixture 2
Property: Mole fraction of heptane (Liquid mixture 1); method: Titration method
Mole fraction of butan-1-ol	Pressure, kPa	Temperature, K	Mole fraction of heptane	uncertainty
0.5061	100	298.15	0.3765	0.0414
