Measured thermophysical data. Calorimetric Study of Triphenylbismuth Dimethacrylate Ph3Bi(O2CCMe-CH2)2
Source: J. Chem. Eng. Data, 2016, 10.1021/acs.jced.5b01032
Compound 1: bis(methacryloyloxy)triphenylbismuth, C26H25BiO4, InChI=1S/3C6H5.2C4H6O2.Bi/c3*1-2-4-6-5-3-1;2*1-3(2)4(5)6;/h3*1-5H;2*1H2,2H3,(H,5,6);/q;;;;;+2/p-2, purity 99%

System: bis(methacryloyloxy)triphenylbismuth; phases: Crystal 2, Crystal 1, Air at 1 atmosphere
Property: Triple point temperature, K (Crystal 2); method: Adiabatic calorimetry
Triple point temperature, K	uncertainty
163	2

System: bis(methacryloyloxy)triphenylbismuth; phases: Crystal 2, Crystal 1, Air at 1 atmosphere
Property: Molar enthalpy of transition or fusion, kJ/mol (Crystal 2); method: Adiabatic calorimetry
Molar enthalpy of transition or fusion, kJ/mol	uncertainty
0	1

System: bis(methacryloyloxy)triphenylbismuth; phases: Crystal 2
Fixed: Pressure, kPa = 101.325
Property: Molar heat capacity at constant pressure, J/K/mol (Crystal 2); method: Small (less than 1 g) adiabatic calorimetry
Temperature, K	Molar heat capacity at constant pressure, J/K/mol	uncertainty
5.31	2.67	0.12
5.5	2.97	0.13
5.69	3.31	0.15
5.89	3.6	0.16
6.13	4	0.18
6.43	4.63	0.2
6.72	5.14	0.22
7	5.83	0.25
7.61	7.13	0.31
7.92	7.83	0.33
8.21	8.53	0.36
8.47	9.17	0.39
8.74	9.71	0.41
9.01	10.4	0.4
9.31	11.1	0.5
9.6	11.9	0.5
9.89	12.5	0.5
10.18	13.2	0.6
10.46	14.1	0.6
10.74	15	0.6
11.02	15.7	0.7
11.29	16.4	0.7
11.57	17.3	0.7
11.86	18.1	0.8
12.14	18.8	0.8
12.6	19.8	0.8
13.23	21.4	0.9
13.87	23.1	1
14.5	25.1	1
15.14	27.14	0.4
15.77	29.2	0.42
16.42	31.34	0.45
17.07	33.4	0.47
17.75	35.37	0.49
18.43	37.14	0.51
19.13	39.13	0.53
19.85	41.3	0.56
20.71	44.22	0.59
21.55	46.93	0.62
22.4	50.08	0.65
23.27	52.85	0.67
24.15	56.07	0.71
25.07	58.64	0.73
25.99	61.38	0.75
26.94	64.3	0.78
27.91	67.4	0.8
28.9	70.6	0.83
29.91	73.7	0.86
30.94	77.4	0.85
31.98	80.82	0.89
33.05	84.6	0.93
34.13	88.08	0.96
35.22	91.41	1
36.33	94.56	1.03
37.46	97.88	1.07
38.61	101.6	1.1
39.77	105.1	1.1
40.95	108.6	0.6
42.14	112	0.7
43.35	115.4	0.7
44.56	119.7	0.7
45.79	123.5	0.7
47.02	127.4	0.7
48.27	130.9	0.8
49.52	134.5	0.8
50.78	137.9	0.8
52.04	141.2	0.8
53.32	144.6	0.8
54.6	148	0.8
55.89	151.3	0.9
57.18	154.6	0.9
58.48	158.3	0.9
59.8	161.7	0.9
61.11	165.1	0.9
62.43	168.3	0.9
63.75	171.7	1
65.07	174.7	1
66.41	177.8	1
67.74	181	1
69.08	184.1	1
70.43	187.2	1
71.77	190.2	1.1
73.1	193.3	1.1
74.43	196.3	1.1
75.77	199.3	1.1
77.1	202	1.1
78.44	204.9	1.1
79.79	207.7	1.2
81.14	210.8	1.2
82.5	213.9	1.2
83.65	216.2	1.2
85.07	219.4	1.2
86.57	222.5	1.2
87.92	225.1	1.3
89.33	227.8	1.3
80.44	209.4	1.2
82.34	213.7	1.2
84.24	217.7	1.2
86.15	221.8	1.2
88.06	225.3	1.3
89.97	229.2	1.3
91.89	233.1	1.2
93.8	236.8	1.2
95.66	240.4	1.3
97.64	244.4	1.3
99.56	247.5	1.3
101.48	251.3	1.3
103.41	254.6	1.3
105.33	257.5	1.3
107.25	261.1	1.4
109.18	264.4	1.4
111.1	267.1	1.4
113.02	270.8	1.4
114.94	273.9	1.4
116.87	276.8	1.4
118.79	279.4	1.5
120.72	282.5	1.5
122.64	286	1.5
124.56	289.4	1.5
126.48	292.2	1.5
128.4	295.5	1.5
130.32	298.6	1.6
132.24	301.7	1.6
134.15	304.9	1.6
136.06	307.6	1.6
137.98	310.6	1.6
139.89	313.5	1.6
141.78	316.5	1.6
143.69	319.6	1.7
145.59	322.2	1.7
147.5	324.4	1.7
149.39	327.6	1.7
151.76	332	1.7
154.53	339.3	1.7
154.6	339.5	1.8
157.36	345.2	1.8
160.17	350	1.8
162.98	355.2	1.8

System: bis(methacryloyloxy)triphenylbismuth; phases: Crystal 1
Fixed: Pressure, kPa = 101.325
Property: Molar heat capacity at constant pressure, J/K/mol (Crystal 1); method: Small (less than 1 g) adiabatic calorimetry
Temperature, K	Molar heat capacity at constant pressure, J/K/mol	uncertainty
165.78	356.4	1.8
168.58	356.9	1.8
171.37	361.1	1.9
174.16	365.1	1.9
176.94	369	1.9
179.71	373.3	1.9
182.47	377.6	1.9
185.23	381.3	2
187.98	385.2	2
190.7	390	2
193.45	393.8	2
196.12	397.3	2
198.84	402.3	2.1
201.54	406.8	2.1
204.24	410.5	2.1
206.93	414.6	2.1
209.62	418.8	2.1
212.31	424.2	2.2
215	428.1	2.2
217.69	432	2.2
220.38	436	2.2
223.07	440.2	2.2
225.75	444.7	2.3
228.44	448.9	2.3
231.12	452.7	2.3
233.81	456.8	2.3
236.49	460.5	2.3
239.78	465.8	2.4
242.5	470.7	2.4
245.23	474.8	2.4
247.95	477.9	2.4
250.68	482.7	2.4
253.44	487.1	2.5
256.17	491.7	2.5
258.91	495.5	2.5
261.65	499.2	2.5
264.38	503.3	2.6
267.13	507.9	2.6
269.87	511.7	2.6
272.61	517.6	2.6
275.35	521	2.6
278.09	526	2.7
280.83	530.7	2.7
283.57	535.5	2.7
286.31	540.7	2.7
289.04	545.2	2.8
291.78	550.5	2.8
294.51	555.4	2.8
297.4	560.2	2.8
300.17	564	2.8
302.94	568.2	2.9
305.64	573.5	2.9
308.25	577.7	2.9
310.82	581.1	2.9
313.33	585.3	3
315.79	588.7	3
318.21	592.5	3
320.26	596.3	3
322.58	600	3
324.9	604.3	3
327.21	607.7	3.1
329.49	612.7	3.1
331.76	617.5	3.1

System: bis(methacryloyloxy)triphenylbismuth; phases: Crystal 2
Fixed: Pressure, kPa = 101.325
Property: Molar heat capacity at constant pressure, J/K/mol (Crystal 2); method: Small (less than 1 g) adiabatic calorimetry
Temperature, K	Molar heat capacity at constant pressure, J/K/mol	uncertainty
5	2.21	0.08
10	13	0.3
15	26.8	0.6
20	41.89	0.43
25	58.51	0.52
30	74.21	0.5
35	90.66	0.6
40	105.6	0.7
45	121	0.6
50	135.7	0.6
60	162	0.7
70	186.4	0.8
80	208.3	0.9
90	229.3	0.9
100	248.4	1
110	265.7	1
120	281.7	1.1
130	298	1.2
140	313.9	1.2
150	328.7	1.3
160	349.7	1.3

System: bis(methacryloyloxy)triphenylbismuth; phases: Crystal 2
Fixed: Pressure, kPa = 101.325
Property: Molar enthalpy, kJ/mol (Crystal 2); method: Small (less than 1 g) adiabatic calorimetry
Temperature, K	Molar enthalpy, kJ/mol	uncertainty
5	0.0028	0.00019
10	0.0382	0.0011
15	0.137	0.004
20	0.3086	0.0039
25	0.5598	0.0063
30	0.8906	0.009
35	1.303	0.013
40	1.794	0.017
45	2.361	0.017
50	3.003	0.021
60	4.494	0.03
70	6.238	0.041
80	8.212	0.054
90	10.4	0.07
100	12.79	0.08
110	15.36	0.1
120	18.1	0.11
130	21	0.13
140	24.06	0.15
150	27.27	0.17
160	30.67	0.19

System: bis(methacryloyloxy)triphenylbismuth; phases: Crystal 2
Fixed: Pressure, kPa = 101.325
Property: Molar entropy, J/K/mol (Crystal 2); method: Small (less than 1 g) adiabatic calorimetry
Temperature, K	Molar entropy, J/K/mol	uncertainty
5	0.739	0.047
10	5.23	0.21
15	13	0.5
20	22.81	0.42
25	33.95	0.56
30	45.97	0.66
35	58.66	0.82
40	71.75	0.99
45	85.08	0.85
50	98.6	0.97
60	125.7	1.2
70	152.6	1.5
80	178.9	1.7
90	204.6	1.9
100	229.8	2.1
110	254.3	2.3
120	278.1	2.5
130	301.3	2.7
140	324	2.9
150	346.1	3.1
160	368	3.3

System: bis(methacryloyloxy)triphenylbismuth; phases: Crystal 1
Fixed: Pressure, kPa = 101.325
Property: Molar heat capacity at constant pressure, J/K/mol (Crystal 1); method: Small (less than 1 g) adiabatic calorimetry
Temperature, K	Molar heat capacity at constant pressure, J/K/mol	uncertainty
170	358.9	1.4
180	373.8	1.4
190	388.4	1.5
200	403.8	1.5
210	419.8	1.6
220	435.8	1.6
230	451.3	1.7
240	466.4	1.7
250	481.3	1.8
260	496.7	1.8
270	512.8	1.9
280	529.7	2
290	546.9	2
298.15	560.8	2.1
300	563.9	2.1
310	580.1	2.1
320	595.7	2.7
330	612	12
340	628	13
350	646	13
360	659	13
370	665	13
380	671	14
385	679	14

System: bis(methacryloyloxy)triphenylbismuth; phases: Crystal 1
Fixed: Pressure, kPa = 101.325
Property: Molar enthalpy, kJ/mol (Crystal 1); method: Small (less than 1 g) adiabatic calorimetry
Temperature, K	Molar enthalpy, kJ/mol	uncertainty
170	34.22	0.21
180	37.89	0.23
190	41.7	0.25
200	45.66	0.28
210	49.78	0.3
220	54.05	0.33
230	58.49	0.35
240	63.08	0.38
250	67.82	0.41
260	72.71	0.44
270	77.75	0.47
280	82.97	0.5
290	88.35	0.53
298.15	92.86	0.56
300	93.9	0.56
310	99.62	0.6
320	105.5	0.9
330	112	3
340	118	3
350	124	3
360	131	3
370	137	3
380	144	3
385	147	4

System: bis(methacryloyloxy)triphenylbismuth; phases: Crystal 1
Fixed: Pressure, kPa = 101.325
Property: Molar entropy, J/K/mol (Crystal 1); method: Small (less than 1 g) adiabatic calorimetry
Temperature, K	Molar entropy, J/K/mol	uncertainty
170	389.6	5
180	410.5	5.3
190	431.1	5.6
200	451.4	5.8
210	471.5	6.1
220	491.4	6.3
230	511.1	6.6
240	530.7	6.8
250	550	7.1
260	569.2	7.3
270	588.2	7.6
280	607.2	7.8
290	626.1	8
298.15	641.4	8.2
300	644.9	8.3
310	663.7	8.5
320	682.3	23.8
330	701	24
340	719	25
350	738	26
360	756	26
370	774	27
380	792	28
385	801	28

System: bis(methacryloyloxy)triphenylbismuth; phases: Crystal 1
Fixed: Pressure, kPa = 101.325
Property: Molar heat capacity at constant pressure, J/K/mol (Crystal 1); method: Small sample (50 mg) DSC
Temperature, K	Molar heat capacity at constant pressure, J/K/mol	uncertainty
310.5	580	25
311.5	582	25
312.5	583	25
313.5	585	25
314.5	589	25
315.5	588	25
316.5	591	25
317.5	593	25
318.5	594	25
319.5	595	25
320.5	597	25
321.5	599	25
322.5	601	26
323.5	602	26
324.5	602	26
325.5	605	26
326.5	607	26
327.5	609	26
328.5	610	26
329.5	612	26
330.5	612	26
331.5	615	26
332.5	616	26
333.5	618	26
334.5	619	26
335.5	621	26
336.5	623	27
337.5	625	27
338.5	627	27
339.5	628	27
340.5	630	27
341.5	630	27
342.5	632	27
343.5	634	27
344.5	637	27
345.5	638	27
346.5	639	27
347.5	642	27
348.5	644	27
349.5	645	27
350.5	647	27
351.5	646	27
352.5	649	28
353.5	651	28
354.5	651	28
355.5	654	28
356.5	656	28
357.5	656	28
358.5	658	28
359.5	659	28
360.5	659	28
361.5	660	28
362.5	660	28
363.5	664	28
364.5	665	28
365.5	663	28
366.5	658	28
367.5	663	28
368.5	664	28
369.5	664	28
370.5	666	28
371.5	666	28
372.5	667	28
373.5	668	28
374.5	669	28
375.5	667	28
376.5	669	28
377.5	669	28
378.5	669	28
379.5	671	28
380.5	668	28
381.5	672	29
382.5	673	29
383.5	677	29
384.5	678	29
385.5	679	29
