Measured thermophysical data. Vapor Liquid Equilibria for (n-Hexane, n-Octane, Cyclohexane, or 2,3-Dimethylpentane) + Toluene + {[4empy][Tf2N] (0.3) + [emim][DCA] (0.7)} Mixed Ionic Liquids
Source: J. Chem. Eng. Data, 2016, 10.1021/acs.jced.6b00116
Compound 1: 1-ethyl-3-methylimidazolium dicyanamide, C8H11N5, InChI=1S/C6H11N2.C2N3/c1-3-8-5-4-7(2)6-8;3-1-5-2-4/h4-6H,3H2,1-2H3;/q+1;-1, purity 98%
Compound 2: 1-ethyl-4-methylpyridinium bis((trifluoromethyl)sulfonyl)amide, C10H12F6N2O4S2, InChI=1S/C8H12N.C2F6NO4S2/c1-3-9-6-4-8(2)5-7-9;3-1(4,5)14(10,11)9-15(12,13)2(6,7)8/h4-7H,3H2,1-2H3;/q+1;-1, purity 99%
Compound 3: hexane, C6H14, InChI=1S/C6H14/c1-3-5-6-4-2/h3-6H2,1-2H3, purity 99.5%
Compound 4: octane, C8H18, InChI=1S/C8H18/c1-3-5-7-8-6-4-2/h3-8H2,1-2H3, purity 99%
Compound 5: cyclohexane, C6H12, InChI=1S/C6H12/c1-2-4-6-5-3-1/h1-6H2, purity 99.5%
Compound 6: 2,3-dimethylpentane, C7H16, InChI=1S/C7H16/c1-5-7(4)6(2)3/h6-7H,5H2,1-4H3, purity 99%
Compound 7: toluene, C7H8, InChI=1S/C7H8/c1-7-5-3-2-4-6-7/h2-6H,1H3, purity 99.5%

System: hexane + 1-ethyl-3-methylimidazolium dicyanamide + 1-ethyl-4-methylpyridinium bis((trifluoromethyl)sulfonyl)amide; phases: Liquid, Gas
Fixed: Solvent: Mole fraction of 1-ethyl-4-methylpyridinium bis((trifluoromethyl)sulfonyl)amide = 0.3
Property: Vapor or sublimation pressure, kPa (Liquid); method: Headspace Chromatography
Mole fraction of hexane	Temperature, K	Vapor or sublimation pressure, kPa	uncertainty
0.0001	323.2	0.7	0.5
0.0001	323.2	1.4	0.4
0.0004	323.2	3.4	1.6
0.0014	323.2	6.7	4.2
0.0021	323.2	9.9	5.1
0.008	323.2	26.5	4.4
0.0198	323.2	52.9	4.7
0.0326	323.2	54.4	4.5
0.1345	323.2	54.2	4.4
0.3228	323.2	54.2	4.4
0.6528	323.2	54.2	4.4
1	323.2	54.3	4.4
0.0001	343.2	1.1	0.5
0.0001	343.2	1.7	0.5
0.0003	343.2	3.8	1.6
0.001	343.2	7.2	5
0.0017	343.2	10.2	8.3
0.0049	343.2	26.5	6.2
0.0088	343.2	40.2	6.9
0.0278	343.2	103.3	8.5
0.0698	343.2	104.6	8.5
0.2697	343.2	105.5	8.6
0.6792	343.2	105.5	8.6
1	343.2	105.4	8.6
0.0001	363.2	1.6	1
0.0001	363.2	2.6	1
0.0001	363.2	4.6	1
0.0009	363.2	7.8	9.2
0.0012	363.2	11.4	12
0.0037	363.2	36.3	14.2
0.0064	363.2	55.5	12.2
0.0178	363.2	93	9
0.0486	363.2	185.5	15.8
0.2051	363.2	187	15.2
0.6431	363.2	187.8	15.3
1	363.2	187.9	15.3

System: octane + 1-ethyl-3-methylimidazolium dicyanamide + 1-ethyl-4-methylpyridinium bis((trifluoromethyl)sulfonyl)amide; phases: Liquid, Gas
Fixed: Solvent: Mole fraction of 1-ethyl-4-methylpyridinium bis((trifluoromethyl)sulfonyl)amide = 0.3
Property: Vapor or sublimation pressure, kPa (Liquid); method: Headspace Chromatography
Mole fraction of octane	Temperature, K	Vapor or sublimation pressure, kPa	uncertainty
0.0009	323.2	0.7	0.6
0.0016	323.2	1.2	1
0.0042	323.2	2.8	0.9
0.0087	323.2	5.1	0.8
0.0136	323.2	6.5	0.7
0.0369	323.2	6.7	0.6
0.0682	323.2	6.7	0.6
0.1123	323.2	6.7	0.6
0.202	323.2	6.6	0.5
0.3901	323.2	6.7	0.6
0.7202	323.2	6.7	0.6
1	323.2	6.9	0.6
0.0008	343.2	1.1	0.7
0.0016	343.2	1.7	1.5
0.0028	343.2	2.8	1.5
0.0066	343.2	6.5	1.6
0.0104	343.2	10.2	1.8
0.0278	343.2	14.8	1.2
0.0593	343.2	14.8	1.2
0.1037	343.2	14.8	1.2
0.1983	343.2	14.9	1.2
0.3816	343.2	15.1	1.2
0.7178	343.2	15.4	1.3
1	343.2	15.4	1.3
0.0005	363.2	1.2	0.7
0.0016	363.2	2.2	2.5
0.0024	363.2	3.8	2.3
0.0057	363.2	8.7	2.5
0.0083	363.2	12.5	2.3
0.0178	363.2	24.1	2.2
0.0387	363.2	32.4	2.6
0.0853	363.2	32.4	2.6
0.1963	363.2	32.5	2.6
0.3692	363.2	32.6	2.7
0.7135	363.2	32.8	2.7
1	363.2	33	2.7

System: cyclohexane + 1-ethyl-3-methylimidazolium dicyanamide + 1-ethyl-4-methylpyridinium bis((trifluoromethyl)sulfonyl)amide; phases: Liquid, Gas
Fixed: Solvent: Mole fraction of 1-ethyl-4-methylpyridinium bis((trifluoromethyl)sulfonyl)amide = 0.3
Property: Vapor or sublimation pressure, kPa (Liquid); method: Headspace Chromatography
Mole fraction of cyclohexane	Temperature, K	Vapor or sublimation pressure, kPa	uncertainty
0.0001	323.2	0.5	0.1
0.0006	323.2	0.9	0.5
0.003	323.2	2.8	1.3
0.0061	323.2	5.4	1.3
0.0103	323.2	8.6	1.6
0.02	323.2	18.1	1.8
0.0518	323.2	36.3	3
0.0783	323.2	36.2	3
0.1461	323.2	36.3	3
0.301	323.2	36.4	3
0.6948	323.2	36.5	3
1	323.2	36.5	3
0.0001	343.2	0.6	0.1
0.0005	343.2	1.2	0.6
0.0021	343.2	3.1	1.9
0.0051	343.2	6.4	2
0.0082	343.2	10.6	2.6
0.0157	343.2	23	3.2
0.0262	343.2	40.4	4
0.0449	343.2	65.6	5.4
0.0767	343.2	71.2	5.8
0.3082	343.2	73	6
0.694	343.2	72.9	5.9
1	343.2	72.8	5.9
0.0003	363.2	0.9	0.5
0.0007	363.2	1.4	1.1
0.0018	363.2	3.6	2.2
0.0048	363.2	7.6	2.8
0.0067	363.2	12	3.7
0.013	363.2	28.2	4.4
0.0218	363.2	47.8	5.7
0.0331	363.2	79.8	7.9
0.1014	363.2	132.9	10.8
0.3148	363.2	132.9	10.8
0.6917	363.2	133	10.8
1	363.2	132.9	10.8

System: 2,3-dimethylpentane + 1-ethyl-3-methylimidazolium dicyanamide + 1-ethyl-4-methylpyridinium bis((trifluoromethyl)sulfonyl)amide; phases: Liquid, Gas
Fixed: Solvent: Mole fraction of 1-ethyl-4-methylpyridinium bis((trifluoromethyl)sulfonyl)amide = 0.3
Property: Vapor or sublimation pressure, kPa (Liquid); method: Headspace Chromatography
Mole fraction of 2,3-dimethylpentane	Temperature, K	Vapor or sublimation pressure, kPa	uncertainty
0.0004	323.2	0.7	0.7
0.0009	323.2	1.2	1.7
0.0018	323.2	3.2	2.6
0.0034	323.2	5.9	2.7
0.0053	323.2	8.8	3.1
0.0097	323.2	17.8	1.9
0.0249	323.2	26.4	2.2
0.0639	323.2	26.4	2.2
0.1507	323.2	26.5	2.2
0.2555	323.2	26.4	2.2
0.6442	323.2	26.5	2.2
1	323.2	26.5	2.2
0.0004	343.2	0.9	1
0.0006	343.2	1.2	1.6
0.0013	343.2	3.6	3.2
0.0024	343.2	6.6	5
0.0039	343.2	10.2	5
0.0075	343.2	22.4	2.8
0.0192	343.2	33.1	2.9
0.0508	343.2	54.1	4.4
0.1102	343.2	54.4	4.4
0.2536	343.2	54.4	4.4
0.64	343.2	54.4	4.4
1	343.2	54.5	4.4
0.0001	363.2	1	0.3
0.0002	363.2	2	0.5
0.0006	363.2	3.7	1.3
0.0023	363.2	6.7	5.4
0.0038	363.2	10.6	5.1
0.0071	363.2	24.1	8.6
0.0098	363.2	42.2	11.3
0.0365	363.2	67.3	5.7
0.0776	363.2	102	8.4
0.2509	363.2	101.5	8.3
0.6364	363.2	102	8.3
1	363.2	102	8.3

System: toluene + hexane; phases: Liquid, Gas
Property: Vapor or sublimation pressure, kPa (Liquid); method: Headspace Chromatography
Mole fraction of hexane	Temperature, K	Vapor or sublimation pressure, kPa	uncertainty
0.2187	323.2	24.8	2
0.4012	323.2	33	2.7
0.5989	323.2	39.9	3.3
0.7934	323.2	46.6	3.8
0.2055	343.2	49.7	4.1
0.4069	343.2	65.1	5.3
0.6003	343.2	78.1	6.4
0.7944	343.2	91	7.4
0.2045	363.2	90.9	7.4
0.3988	363.2	117.5	9.6
0.5894	363.2	140.6	11.4
0.7862	363.2	163	13.3

System: toluene + hexane; phases: Gas, Liquid
Property: Mole fraction of hexane (Gas); method: Chromatography
Mole fraction of hexane	Temperature, K	Mole fraction of hexane	uncertainty
0.2187	323.2	0.6189	0.0041
0.4012	323.2	0.7577	0.0027
0.5989	323.2	0.8514	0.0019
0.7934	323.2	0.9297	0.0013
0.2055	343.2	0.5504	0.0047
0.4069	343.2	0.7351	0.003
0.6003	343.2	0.8334	0.0021
0.7944	343.2	0.9147	0.0014
0.2045	363.2	0.5146	0.005
0.3988	363.2	0.7032	0.0033
0.5894	363.2	0.8156	0.0022
0.7862	363.2	0.9045	0.0015

System: toluene + octane; phases: Liquid, Gas
Property: Vapor or sublimation pressure, kPa (Liquid); method: Headspace Chromatography
Mole fraction of octane	Temperature, K	Vapor or sublimation pressure, kPa	uncertainty
0.1859	323.2	11.4	0.9
0.3985	323.2	10.5	0.9
0.5966	323.2	9.4	0.8
0.8004	323.2	8.1	0.7
0.2014	343.2	25.6	2.1
0.3987	343.2	23.5	1.9
0.5874	343.2	21.6	1.8
0.7863	343.2	19	1.6
0.1963	363.2	51	4.2
0.4006	363.2	47.7	3.9
0.5834	363.2	43.9	3.6
0.7968	363.2	39	3.2

System: toluene + octane; phases: Gas, Liquid
Property: Mole fraction of octane (Gas); method: Chromatography
Mole fraction of octane	Temperature, K	Mole fraction of octane	uncertainty
0.1859	323.2	0.1278	0.0016
0.3985	323.2	0.2756	0.0028
0.5966	323.2	0.4301	0.0046
0.8004	323.2	0.6588	0.0044
0.2014	343.2	0.1451	0.0018
0.3987	343.2	0.2871	0.0029
0.5874	343.2	0.4397	0.0047
0.7863	343.2	0.6451	0.0045
0.1963	363.2	0.1498	0.0018
0.4006	363.2	0.2971	0.003
0.5834	363.2	0.4583	0.005
0.7968	363.2	0.6743	0.0043

System: toluene + cyclohexane; phases: Liquid, Gas
Property: Vapor or sublimation pressure, kPa (Liquid); method: Headspace Chromatography
Mole fraction of cyclohexane	Temperature, K	Vapor or sublimation pressure, kPa	uncertainty
0.1854	323.2	18.4	1.5
0.3759	323.2	23.4	1.9
0.6076	323.2	28.1	2.3
0.7987	323.2	31.9	2.6
0.2013	343.2	39.9	3.3
0.3894	343.2	48.4	3.9
0.5947	343.2	56.1	4.6
0.8011	343.2	64.2	5.2
0.1986	363.2	73.9	6
0.4077	363.2	91.3	7.4
0.6013	363.2	106.1	8.6
0.8078	363.2	118.4	9.6

System: toluene + cyclohexane; phases: Gas, Liquid
Property: Mole fraction of cyclohexane (Gas); method: Chromatography
Mole fraction of cyclohexane	Temperature, K	Mole fraction of cyclohexane	uncertainty
0.1854	323.2	0.4503	0.0046
0.3759	323.2	0.6574	0.0037
0.6076	323.2	0.81	0.0023
0.7987	323.2	0.9006	0.0015
0.2013	343.2	0.4451	0.0045
0.3894	343.2	0.6255	0.004
0.5947	343.2	0.7856	0.0025
0.8011	343.2	0.9002	0.0016
0.1986	363.2	0.4011	0.0041
0.4077	363.2	0.6389	0.0039
0.6013	363.2	0.7815	0.0025
0.8078	363.2	0.8958	0.0016

System: toluene + 2,3-dimethylpentane; phases: Liquid, Gas
Property: Vapor or sublimation pressure, kPa (Liquid); method: Headspace Chromatography
Mole fraction of 2,3-dimethylpentane	Temperature, K	Vapor or sublimation pressure, kPa	uncertainty
0.1958	323.2	14.8	1.2
0.3756	323.2	17.7	1.5
0.6022	323.2	20.5	1.7
0.7978	323.2	23.1	1.9
0.1936	343.2	32	2.6
0.3876	343.2	36.9	3
0.6039	343.2	42.8	3.5
0.8117	343.2	49.1	4
0.1899	363.2	62	5
0.3847	363.2	71.7	5.8
0.5951	363.2	81.2	6.6
0.7834	363.2	90.5	7.4

System: toluene + 2,3-dimethylpentane; phases: Gas, Liquid
Property: Mole fraction of 2,3-dimethylpentane (Gas); method: Chromatography
Mole fraction of 2,3-dimethylpentane	Temperature, K	Mole fraction of 2,3-dimethylpentane	uncertainty
0.1958	323.2	0.3459	0.0037
0.3756	323.2	0.5687	0.0051
0.6022	323.2	0.7688	0.0033
0.7978	323.2	0.8911	0.002
0.1936	343.2	0.3315	0.0035
0.3876	343.2	0.5546	0.0052
0.6039	343.2	0.7533	0.0035
0.8117	343.2	0.9001	0.0019
0.1899	363.2	0.3071	0.0032
0.3847	363.2	0.5403	0.0053
0.5951	363.2	0.7351	0.0037
0.7834	363.2	0.8754	0.0022
