Measured thermophysical data. Freezing Point Determination of Water Ionic Liquid Mixtures
Source: J. Chem. Eng. Data, 2017, 10.1021/acs.jced.7b00274
Compound 1: water, H2O, InChI=1S/H2O/h1H2, purity 99.8%
Compound 2: 1-ethyl-3-methylimidazolium acetate, C8H14N2O2, InChI=1S/C6H11N2.C2H4O2/c1-3-8-5-4-7(2)6-8;1-2(3)4/h4-6H,3H2,1-2H3;1H3,(H,3,4)/q+1;/p-1, purity 99%
Compound 3: 1-allyl-3-methylimidazolium chloride, C7H11ClN2, InChI=1S/C7H11N2.ClH/c1-3-4-9-6-5-8(2)7-9;/h3,5-7H,1,4H2,2H3;1H/q+1;/p-1, purity 98.5%
Compound 4: 3-(2-hydroxyethyl)-1-methyl-1H-imidazolium bromide, C6H11BrN2O, InChI=1S/C6H11N2O.BrH/c1-7-2-3-8(6-7)4-5-9;/h2-3,6,9H,4-5H2,1H3;1H/q+1;/p-1, purity 98.7%
Compound 5: 1-ethyl-3-methylimidazolium diethyl phosphate, C10H21N2O4P, InChI=1S/C6H11N2.C4H11O4P/c1-3-8-5-4-7(2)6-8;1-3-7-9(5,6)8-4-2/h4-6H,3H2,1-2H3;3-4H2,1-2H3,(H,5,6)/q+1;/p-1, purity 99.6%
Compound 6: 1-(2-hydroxyethyl)pyridinium bromide, C7H10BrNO, InChI=1S/C7H10NO.BrH/c9-7-6-8-4-2-1-3-5-8;/h1-5,9H,6-7H2;1H/q+1;/p-1, purity 98.3%
Compound 7: 1-(2-methoxyethyl)-3-methylimidazolium chloride, C7H13ClN2O, InChI=1S/C7H13N2O.ClH/c1-8-3-4-9(7-8)5-6-10-2;/h3-4,7H,5-6H2,1-2H3;1H/q+1;/p-1, purity 99.3%

System: 1-(2-hydroxyethyl)pyridinium bromide + water; phases: Liquid, Crystal
Fixed: Pressure, kPa = 100
Property: Solid-liquid equilibrium temperature, K (Liquid); method: Large-sample thermal analysis
Molality, mol/kg of 1-(2-hydroxyethyl)pyridinium bromide	Solid-liquid equilibrium temperature, K	uncertainty
0	273.149	4.006
0.05	273.118	4.006
0.1	273.099	4.006
0.15	273.05	4.006
0.2	273.007	4.006
0.25	272.949	4.006
0.3	272.836	4.006
0.35	272.793	4.006
0.4	272.718	4.006
0.45	272.687	4.006
0.5	272.508	4.006
0.6	272.318	4.006
0.699	272.246	4.006
0.8	272.222	4.006
0.899	272.12	4.006
0.999	272	4.006
1.998	270.861	4.006
2.996	269.71	4.006
3.996	268.122	4.006
4.995	267.495	4.006
5.993	266.361	4.006
6.988	265.121	4.006
7.981	264.212	4.006
8.98	263.373	4.006
9.977	261.991	4.006

System: 1-(2-hydroxyethyl)pyridinium bromide + water; phases: Liquid, Crystal
Fixed: Pressure, kPa = 100
Property: Solid-liquid equilibrium temperature, K (Liquid); method: Large-sample thermal analysis
Mole fraction of water	Solid-liquid equilibrium temperature, K	uncertainty
0.822	261.288	4.006
0.81	259.41	4.006
0.799	257.525	4.006
0.787	255.584	4.006
0.776	253.729	4.006
0.766	251.95	4.006
0.755	249.238	4.006
0.745	246.373	4.006
0.735	243.183	4.006
0.726	240.593	4.006
0.674	234.007	4.006
0.617	219.841	4.006

System: 1-(2-hydroxyethyl)pyridinium bromide + water; phases: Liquid, Crystal
Fixed: Pressure, kPa = 100
Property: Solid-liquid equilibrium temperature, K (Liquid); method: Large-sample thermal analysis
Mole fraction of water	Solid-liquid equilibrium temperature, K	uncertainty
0.547	238.137	1.614
0.46	245.812	1.713

System: 3-(2-hydroxyethyl)-1-methyl-1H-imidazolium bromide + water; phases: Liquid, Crystal
Fixed: Pressure, kPa = 100
Property: Solid-liquid equilibrium temperature, K (Liquid); method: Large-sample thermal analysis
Molality, mol/kg of 3-(2-hydroxyethyl)-1-methyl-1H-imidazolium bromide	Solid-liquid equilibrium temperature, K	uncertainty
0	273.149	4.006
0.051	273.126	4.006
0.1	273.104	4.006
0.15	273.065	4.006
0.2	273.038	4.006
0.25	273.014	4.006
0.3	272.96	4.006
0.35	272.909	4.006
0.4	272.802	4.006
0.45	272.706	4.006
0.5	272.661	4.006
0.6	272.485	4.006
0.7	272.303	4.006
0.8	272.197	4.006
0.9	272.112	4.006
0.999	271.974	4.006
2	270.636	4.006
3.004	269.262	4.006
4	267.903	4.006
5.018	266.625	4.006
6.003	265.102	4.006
7.007	263.46	4.006
8.005	260.772	4.006
9	259.505	4.006
10.002	258.083	4.006

System: 3-(2-hydroxyethyl)-1-methyl-1H-imidazolium bromide + water; phases: Liquid, Crystal
Fixed: Pressure, kPa = 100
Property: Solid-liquid equilibrium temperature, K (Liquid); method: Large-sample thermal analysis
Mole fraction of water	Solid-liquid equilibrium temperature, K	uncertainty
0.834	256.614	4.006
0.822	253.872	4.006
0.81	253.135	4.006
0.799	249.559	4.006
0.787	247.161	4.006
0.776	244.413	4.006
0.765	242.901	4.006
0.755	241.178	4.006
0.745	238.483	4.006
0.735	236.474	4.006
0.711	228.105	4.006
0.657	202.565	4.006

System: 3-(2-hydroxyethyl)-1-methyl-1H-imidazolium bromide + water; phases: Liquid, Crystal
Fixed: Pressure, kPa = 100
Property: Solid-liquid equilibrium temperature, K (Liquid); method: Large-sample thermal analysis
Mole fraction of water	Solid-liquid equilibrium temperature, K	uncertainty
0.59	228.051	2.922
0.503	247.104	11.276
0.39	259.511	9.416

System: 1-allyl-3-methylimidazolium chloride + water; phases: Liquid, Crystal
Fixed: Pressure, kPa = 100
Property: Solid-liquid equilibrium temperature, K (Liquid); method: Large-sample thermal analysis
Molality, mol/kg of 1-allyl-3-methylimidazolium chloride	Solid-liquid equilibrium temperature, K	uncertainty
0	273.149	4.006
0.05	273.117	4.006
0.1	273.092	4.006
0.15	273.054	4.006
0.2	273.009	4.006
0.25	272.957	4.006
0.3	272.901	4.006
0.35	272.855	4.006
0.394	272.798	4.006
0.449	272.634	4.006
0.516	272.623	4.006
0.608	272.492	4.006
0.707	272.311	4.006
0.812	272.152	4.006
0.918	271.945	4.006
1.006	271.758	4.006
1.995	270.146	4.006
3.003	268.241	4.006
4.003	266.326	4.006
4.981	264.339	4.006
5.98	262.646	4.006
6.965	259.679	4.006
7.959	258.041	4.006
8.969	256.324	4.006
10.022	253.169	4.006

System: 1-allyl-3-methylimidazolium chloride + water; phases: Liquid, Crystal
Fixed: Pressure, kPa = 100
Property: Solid-liquid equilibrium temperature, K (Liquid); method: Large-sample thermal analysis
Mole fraction of water	Solid-liquid equilibrium temperature, K	uncertainty
0.835	250.305	4.006
0.823	248.595	4.006
0.81	245.773	4.006
0.799	241.756	4.006
0.789	238.758	4.006
0.777	235.46	4.006
0.745	212.452	4.006
0.703	188.924	4.006

System: 1-allyl-3-methylimidazolium chloride + water; phases: Liquid, Crystal
Fixed: Pressure, kPa = 100
Property: Solid-liquid equilibrium temperature, K (Liquid); method: Large-sample thermal analysis
Mole fraction of water	Solid-liquid equilibrium temperature, K	uncertainty
0.654	193.472	4.187
0.59	194.28	3.91
0.524	197.672	3.081
0.437	199.502	2.407
0.328	205.221	4.603
0.188	219.401	4.493

System: 1-(2-methoxyethyl)-3-methylimidazolium chloride + water; phases: Liquid, Crystal
Fixed: Pressure, kPa = 100
Property: Solid-liquid equilibrium temperature, K (Liquid); method: Large-sample thermal analysis
Molality, mol/kg of 1-(2-methoxyethyl)-3-methylimidazolium chloride	Solid-liquid equilibrium temperature, K	uncertainty
0	273.149	4.006
0.051	273.116	4.006
0.1	273.073	4.006
0.151	273.014	4.006
0.203	272.944	4.006
0.25	272.893	4.006
0.3	272.826	4.006
0.349	272.779	4.006
0.399	272.707	4.006
0.45	272.636	4.006
0.503	272.533	4.006
0.6	272.337	4.006
0.701	272.206	4.006
0.8	272.006	4.006
0.901	271.806	4.006
1.002	271.609	4.006
2.007	269.667	4.006
3.001	267.422	4.006
4	265.253	4.006
5.007	262.412	4.006
6.002	259.614	4.006
7.005	257.01	4.006
8	253.857	4.006
9	251.01	4.006
10.001	247.099	4.006

System: 1-(2-methoxyethyl)-3-methylimidazolium chloride + water; phases: Liquid, Crystal
Fixed: Pressure, kPa = 100
Property: Solid-liquid equilibrium temperature, K (Liquid); method: Large-sample thermal analysis
Mole fraction of water	Solid-liquid equilibrium temperature, K	uncertainty
0.835	244.137	4.006
0.822	240.934	4.006
0.81	237.454	4.006
0.799	234.077	4.006
0.787	225.357	4.006
0.766	216.813	4.006
0.725	189.899	4.006

System: 1-(2-methoxyethyl)-3-methylimidazolium chloride + water; phases: Liquid, Crystal
Fixed: Pressure, kPa = 100
Property: Solid-liquid equilibrium temperature, K (Liquid); method: Large-sample thermal analysis
Mole fraction of water	Solid-liquid equilibrium temperature, K	uncertainty
0.678	192.393	2.441
0.62	193.516	1.286
0.551	203.837	2.932
0.464	211.124	4.999
0.351	231.136	6.144

System: 1-ethyl-3-methylimidazolium acetate + water; phases: Liquid, Crystal
Fixed: Pressure, kPa = 100
Property: Solid-liquid equilibrium temperature, K (Liquid); method: Large-sample thermal analysis
Molality, mol/kg of 1-ethyl-3-methylimidazolium acetate	Solid-liquid equilibrium temperature, K	uncertainty
0	273.149	4.006
0.05	273.109	4.006
0.1	273.048	4.006
0.15	272.997	4.006
0.2	272.928	4.006
0.25	272.878	4.006
0.299	272.798	4.006
0.35	272.697	4.006
0.4	272.612	4.006
0.45	272.521	4.006
0.503	272.415	4.006
0.6	272.324	4.006
0.701	272.169	4.006
0.799	271.921	4.006
0.899	271.743	4.006
1.003	271.295	4.006
1.996	268.811	4.006
2.995	265.872	4.006
3.963	262.778	4.006
4.995	259.583	4.006
5.995	254.627	4.006
6.994	249.218	4.006
7.979	243.45	4.006
8.908	238.181	4.006
9.919	225.226	4.006

System: 1-ethyl-3-methylimidazolium acetate + water; phases: Liquid, Crystal
Fixed: Pressure, kPa = 100
Property: Solid-liquid equilibrium temperature, K (Liquid); method: Large-sample thermal analysis
Mole fraction of water	Solid-liquid equilibrium temperature, K	uncertainty
0.814	213.829	4.006
0.784	202.242	4.006
0.749	188.584	4.006
0.708	188.442	4.006

System: 1-ethyl-3-methylimidazolium acetate + water; phases: Liquid, Crystal
Fixed: Pressure, kPa = 100
Property: Solid-liquid equilibrium temperature, K (Liquid); method: Large-sample thermal analysis
Mole fraction of water	Solid-liquid equilibrium temperature, K	uncertainty
0.66	190.615	4.032
0.603	194.752	5.69
0.535	197.768	0.797
0.452	201.036	2.425
0.349	203.643	3.54
0.209	211.58	9.18
0.067	222.545	5.266
0.046	229.485	5.086

System: 1-ethyl-3-methylimidazolium diethyl phosphate + water; phases: Liquid, Crystal
Fixed: Pressure, kPa = 100
Property: Solid-liquid equilibrium temperature, K (Liquid); method: Large-sample thermal analysis
Molality, mol/kg of 1-ethyl-3-methylimidazolium diethyl phosphate	Solid-liquid equilibrium temperature, K	uncertainty
0	273.149	4.006
0.05	273.096	4.006
0.1	273.029	4.006
0.15	272.962	4.006
0.2	272.884	4.006
0.25	272.798	4.006
0.299	272.697	4.006
0.349	272.609	4.006
0.404	272.494	4.006
0.45	272.39	4.006
0.5	272.306	4.006
0.601	272.175	4.006
0.697	271.974	4.006
0.791	271.69	4.006
0.893	271.423	4.006
0.996	270.992	4.006
1.987	268.065	4.006
2.977	264.083	4.006
3.951	259.182	4.006
4.96	253.728	4.006
5.901	246.774	4.006
6.924	240.679	4.006
7.983	232.535	4.006
8.844	223.565	4.006
9.918	222.363	4.006

System: 1-ethyl-3-methylimidazolium diethyl phosphate + water; phases: Liquid, Crystal
Fixed: Pressure, kPa = 100
Property: Solid-liquid equilibrium temperature, K (Liquid); method: Large-sample thermal analysis
Mole fraction of water	Solid-liquid equilibrium temperature, K	uncertainty
0.82	213.764	4.006
0.782	202.703	4.006
0.738	200.767	4.006
0.682	199.221	4.006

System: 1-ethyl-3-methylimidazolium diethyl phosphate + water; phases: Liquid, Crystal
Fixed: Pressure, kPa = 100
Property: Solid-liquid equilibrium temperature, K (Liquid); method: Large-sample thermal analysis
Mole fraction of water	Solid-liquid equilibrium temperature, K	uncertainty
0.659	202.147	0.428
0.58	208.855	0.737
0.473	213.277	0.34
0.317	215.965	1.952
0.154	219.617	0.87
0.076	235.64	0.688
