Measured thermophysical data. Investigation of Thermodynamic Properties on CO2 Absorbents Blended with Ammonia, Amino Acids, and Corrosion Inhibitors at 313.15, 333.15, and 353.15 K
Source: J. Chem. Eng. Data, 2018, 10.1021/acs.jced.8b00175
Compound 1: water, H2O, InChI=1S/H2O/h1H2
Compound 2: ammonia, H3N, InChI=1S/H3N/h1H3, purity 99.99%
Compound 3: carbon dioxide, CO2, InChI=1S/CO2/c2-1-3, purity 99.99%
Compound 4: 2-aminoethan-1-ol, C2H7NO, InChI=1S/C2H7NO/c3-1-2-4/h4H,1-3H2, purity 99%

System: water + ammonia; phases: Liquid
Property: Mass density, kg/m3 (Liquid); method: Vibrating tube method
Mass fraction of ammonia	Pressure, kPa	Temperature, K	Mass density, kg/m3	uncertainty
0.07	100	333.15	954.4	2

System: carbon dioxide + 2-aminoethan-1-ol + water; phases: Liquid, Gas
Fixed: Temperature, K = 313.15
Fixed: Solvent: Mass fraction of 2-aminoethan-1-ol = 0.153
Property: Mole fraction of carbon dioxide (Liquid); method: Volumetric
Pressure, kPa of carbon dioxide	Mole fraction of carbon dioxide	uncertainty
1.3	0.0222	0.0222
3	0.0239	0.0239
6.5	0.0255	0.0255
25.1	0.0281	0.0281
46.7	0.0305	0.0305
134.5	0.0337	0.0337
343.3	0.0372	0.0372
701.6	0.0417	0.0417
1554.5	0.0458	0.0458
