Measured thermophysical data. Experimental Data and Thermodynamic Model in the Salt-Water Ternary System (NaBO2 + Na2B4O7 + H2O) at T = 298.15 K and p = 0.1 MPa
Source: J. Chem. Eng. Data, 2019, 10.1021/acs.jced.9b00780
Compound 1: sodium metaborate, BNaO2, InChI=1S/BO2.Na/c2-1-3;/q-1;+1
Compound 2: sodium tetraborate, B4Na2O7, InChI=1S/B4O7.2Na/c5-1-9-3(7)11-4(8)10-2-6;;/q-2;2*+1
Compound 3: water, H2O, InChI=1S/H2O/h1H2, purity 99.9%

System: sodium metaborate + sodium tetraborate + water; phases: Liquid, Crystal of intercomponent compound 1
Fixed: Temperature, K = 298.15
Fixed: Pressure, kPa = 100
Property: Mass fraction of sodium tetraborate (Liquid); method: Titration method
Mass fraction of sodium metaborate	Mass fraction of sodium tetraborate	uncertainty
0.2259	0	
0.2071	0.0059	0.0023
0.1981	0.0165	0.0047

System: sodium metaborate + sodium tetraborate + water; phases: Liquid, Crystal of intercomponent compound 2
Fixed: Temperature, K = 298.15
Fixed: Pressure, kPa = 100
Property: Mass fraction of sodium tetraborate (Liquid); method: Titration method
Mass fraction of sodium metaborate	Mass fraction of sodium tetraborate	uncertainty
0.1981	0.0165	0.0003
0.1523	0.0155	0.0004
0.1023	0.0117	0.0003
0.0507	0.0096	0.0002
0.0209	0.011	0.0002
0.0077	0.0213	0.0005
0	0.0308	0.0006

System: sodium metaborate + sodium tetraborate + water; phases: Liquid
Fixed: Temperature, K = 298.15
Fixed: Pressure, kPa = 100
Property: Mass density, kg/m3 (Liquid); method: Vibrating tube method
Mass fraction of sodium metaborate	Mass fraction of sodium tetraborate	Mass density, kg/m3	uncertainty
0.2259	0	1267.8	6.18
0.2071	0.0059	1267.86	5.36
0.1981	0.0165	1267.94	4.8
0.1523	0.0155	1211.78	3.7
0.1023	0.0117	1139.12	2.68
0.0507	0.0096	1070.42	1.34
0.0209	0.011	1034.04	0.66
0.0077	0.0213	1026.65	0.57
0	0.0308	1025.65	0.63

System: sodium metaborate + sodium tetraborate + water; phases: Liquid
Fixed: Temperature, K = 298.15
Fixed: Pressure, kPa = 100
Property: Refractive index (Na D-line) (Liquid); method: Standard Abbe refractometry
Mass fraction of sodium metaborate	Mass fraction of sodium tetraborate	Refractive index (Na D-line)	uncertainty
0.2259	0	1.3872	0.0033
0.2071	0.0059	1.3878	0.0032
0.1981	0.0165	1.3883	0.0032
0.1523	0.0155	1.3762	0.0031
0.1023	0.0117	1.3623	0.0031
0.0507	0.0096	1.3481	0.003
0.0209	0.011	1.3404	0.003
0.0077	0.0213	1.3384	0.003
0	0.0308	1.339	0.003

System: sodium metaborate + water; phases: Liquid, Crystal of intercomponent compound 1
Property: Mass fraction of sodium metaborate (Liquid); method: Titration method
Temperature, K	Pressure, kPa	Mass fraction of sodium metaborate	uncertainty
298.15	100	0.2259	

System: sodium metaborate + water; phases: Liquid
Property: Mass density, kg/m3 (Liquid); method: Vibrating tube method
Mass fraction of sodium metaborate	Temperature, K	Pressure, kPa	Mass density, kg/m3	uncertainty
0.2259	298.15	100	1267.8	6.18

System: sodium metaborate + water; phases: Liquid
Property: Refractive index (Na D-line) (Liquid); method: Standard Abbe refractometry
Mass fraction of sodium metaborate	Temperature, K	Pressure, kPa	Refractive index (Na D-line)	uncertainty
0.2259	298.15	100	1.3872	0.0033

System: sodium tetraborate + water; phases: Liquid, Crystal of intercomponent compound 2
Property: Mass fraction of sodium tetraborate (Liquid); method: Titration method
Temperature, K	Pressure, kPa	Mass fraction of sodium tetraborate	uncertainty
298.15	100	0.0308	0.0006

System: sodium tetraborate + water; phases: Liquid
Property: Mass density, kg/m3 (Liquid); method: Vibrating tube method
Mass fraction of sodium tetraborate	Temperature, K	Pressure, kPa	Mass density, kg/m3	uncertainty
0.0308	298.15	100	1025.65	0.63

System: sodium tetraborate + water; phases: Liquid
Property: Refractive index (Na D-line) (Liquid); method: Standard Abbe refractometry
Mass fraction of sodium tetraborate	Temperature, K	Pressure, kPa	Refractive index (Na D-line)	uncertainty
0.0308	298.15	100	1.339	0.003
