Measured thermophysical data. Vapor-Phase PvTx Measurements of Binary Blends of cis-1,2,3,3,3-Pentafluoroprop-1-ene + Isobutane and 3,3,3-Trifluoropropene + Isobutane
Source: J. Chem. Eng. Data, 2019, 10.1021/acs.jced.8b00921
Compound 1: 2-methylpropane, C4H10, InChI=1S/C4H10/c1-4(2)3/h4H,1-3H3, purity 99.9%
Compound 2: (Z)-1,2,3,3,3-pentafluoro-1-propene, C3HF5, InChI=1S/C3HF5/c4-1-2(5)3(6,7)8/h1H/b2-1-, purity 97%
Compound 3: 1,1,1-trifluoro-2-propene, C3H3F3, InChI=1S/C3H3F3/c1-2-3(4,5)6/h2H,1H2, purity 99.5%

System: 2-methylpropane + (Z)-1,2,3,3,3-pentafluoro-1-propene; phases: Gas
Property: Specific volume, m3/kg (Gas); method: ISOCHOR
Mole fraction of 2-methylpropane	Temperature, K	Pressure, kPa	Specific volume, m3/kg	uncertainty
0.175	308.15	316	0.0632	0.0003
0.175	313.15	321.9	0.0632	0.0003
0.175	318.15	327.8	0.0633	0.0003
0.175	323.15	333.7	0.0633	0.0003
0.175	328.15	339.5	0.0633	0.0003
0.175	333.15	346.4	0.0633	0.0003
0.175	338.15	351.2	0.0633	0.0003
0.175	343.15	357	0.0633	0.0003
0.175	348.15	362.8	0.0633	0.0002
0.175	353.15	368.6	0.0634	0.0002
0.175	358.15	374.3	0.0634	0.0002
0.175	363.15	380.1	0.0634	0.0002
0.175	368.15	385.9	0.0634	0.0002
0.175	373.15	391.6	0.0634	0.0002
0.175	378.15	397.3	0.0634	0.0002
0.175	383.15	403.1	0.0634	0.0002
0.345	308.15	309.8	0.0717	0.0003
0.345	313.15	315.5	0.0717	0.0003
0.345	318.15	321.3	0.0717	0.0003
0.345	323.15	327	0.0717	0.0003
0.345	328.15	332.9	0.0718	0.0003
0.345	333.15	338.6	0.0718	0.0003
0.345	338.15	344.2	0.0718	0.0003
0.345	343.15	349.8	0.0718	0.0003
0.345	348.15	355.4	0.0718	0.0003
0.345	353.15	361	0.0718	0.0003
0.345	358.15	366.6	0.0719	0.0003
0.345	363.15	372.2	0.0719	0.0003
0.345	368.15	377.8	0.0719	0.0003
0.345	373.15	383.4	0.0719	0.0003
0.345	378.15	389	0.0719	0.0003
0.345	383.15	394.6	0.0719	0.0003
0.504	303.15	207	0.1216	0.0004
0.504	308.15	210.7	0.1216	0.0004
0.504	313.15	214.4	0.1216	0.0004
0.504	318.15	218	0.1217	0.0004
0.504	323.15	221.7	0.1217	0.0004
0.504	328.15	225.3	0.1217	0.0004
0.504	333.15	229	0.1217	0.0004
0.504	338.15	232.6	0.1218	0.0003
0.504	343.15	236.3	0.1218	0.0003
0.504	348.15	239.9	0.1218	0.0003
0.504	353.15	243.6	0.1218	0.0003
0.504	358.15	247.3	0.1219	0.0003
0.504	363.15	251	0.1219	0.0003
0.504	368.15	254.6	0.1219	0.0003
0.504	373.15	258.3	0.122	0.0003
0.504	378.15	262	0.122	0.0004
0.504	383.15	265.6	0.122	0.0004
0.797	308.15	303.6	0.1074	0.0004
0.797	313.15	309.3	0.1074	0.0004
0.797	318.15	315	0.1074	0.0004
0.797	323.15	320.6	0.1074	0.0004
0.797	328.15	326.2	0.1075	0.0004
0.797	333.15	331.8	0.1075	0.0003
0.797	338.15	337.4	0.1075	0.0003
0.797	343.15	342.9	0.1075	0.0003
0.797	348.15	348.5	0.1076	0.0003
0.797	353.15	354.1	0.1076	0.0003
0.797	358.15	359.6	0.1076	0.0003
0.797	363.15	365.1	0.1076	0.0003
0.797	368.15	370.4	0.1077	0.0003
0.797	373.15	375.9	0.1077	0.0003
0.797	378.15	381.6	0.1077	0.0003
0.797	383.15	387	0.1077	0.0003
0.477	308.15	410.6	0.0585	0.0004
0.477	313.15	418.8	0.0585	0.0004
0.477	318.15	426.9	0.0585	0.0004
0.477	323.15	434.9	0.0585	0.0004
0.477	328.15	442.8	0.0586	0.0003
0.477	333.15	450.8	0.0586	0.0003
0.477	338.15	458.7	0.0586	0.0003
0.477	343.15	466.6	0.0586	0.0003
0.477	348.15	474.5	0.0586	0.0003
0.477	353.15	482.3	0.0586	0.0003
0.477	358.15	490.2	0.0586	0.0003
0.477	363.15	497.9	0.0586	0.0003
0.477	368.15	505.7	0.0587	0.0003
0.477	373.15	513.5	0.0587	0.0003
0.477	378.15	521.3	0.0587	0.0003
0.477	383.15	529	0.0587	0.0003
0.916	308.15	394.7	0.0901	0.0003
0.916	313.15	402.8	0.0901	0.0003
0.916	318.15	410.7	0.0901	0.0003
0.916	323.15	418.5	0.0901	0.0003
0.916	328.15	426.4	0.0902	0.0003
0.916	333.15	434	0.0902	0.0003
0.916	338.15	441.7	0.0902	0.0003
0.916	343.15	449.4	0.0902	0.0003
0.916	348.15	457	0.0902	0.0003
0.916	353.15	464.6	0.0903	0.0003
0.916	358.15	472.2	0.0903	0.0003
0.916	363.15	479.8	0.0903	0.0003
0.916	368.15	487.3	0.0903	0.0003
0.916	373.15	494.9	0.0903	0.0003
0.916	378.15	502.4	0.0904	0.0003
0.916	383.15	509.9	0.0904	0.0003

System: 2-methylpropane + 1,1,1-trifluoro-2-propene; phases: Gas
Property: Specific volume, m3/kg (Gas); method: ISOCHOR
Mole fraction of 2-methylpropane	Temperature, K	Pressure, kPa	Specific volume, m3/kg	uncertainty
0.225	308.15	289.5	0.0942	0.0093
0.225	313.15	294.8	0.0943	0.0093
0.225	318.15	300.1	0.0943	0.0094
0.225	323.15	305.3	0.0943	0.0093
0.225	328.15	310.5	0.0943	0.0093
0.225	333.15	315.8	0.0943	0.0094
0.225	338.15	320.9	0.0944	0.0094
0.225	343.15	326.1	0.0944	0.0094
0.225	348.15	331.3	0.0944	0.0094
0.225	353.15	336.5	0.0944	0.0094
0.225	358.15	341.6	0.0944	0.0094
0.225	363.15	346.8	0.0945	0.0094
0.225	368.15	351.9	0.0945	0.0094
0.225	373.15	357.1	0.0945	0.0096
0.225	378.15	362.3	0.0945	0.0096
0.225	383.15	367.5	0.0946	0.0094
0.282	303.15	47.6	0.6134	0.1119
0.282	308.15	48.4	0.6136	0.0091
0.282	313.15	49.2	0.6137	0.0088
0.282	318.15	50	0.6139	0.0085
0.282	323.15	50.8	0.614	0.0082
0.282	328.15	51.6	0.6141	0.0079
0.282	333.15	52.4	0.6143	0.0075
0.282	338.15	53.2	0.6144	0.0073
0.282	343.15	54	0.6145	0.007
0.282	348.15	54.8	0.6147	0.0067
0.282	353.15	55.6	0.6148	0.0064
0.282	358.15	56.4	0.6149	0.0062
0.282	363.15	57.2	0.6151	0.006
0.282	368.15	58.1	0.6152	0.0057
0.282	373.15	58.8	0.6153	0.0055
0.282	378.15	59.7	0.6155	0.0054
0.282	383.15	60.5	0.6156	0.0051
0.434	308.15	192.7	0.1611	0.0041
0.434	313.15	196	0.1611	0.004
0.434	318.15	199.4	0.1611	0.004
0.434	323.15	202.4	0.1612	0.0039
0.434	328.15	205.9	0.1612	0.0039
0.434	333.15	209.4	0.1613	0.0039
0.434	338.15	212	0.1613	0.0038
0.434	343.15	215.5	0.1613	0.0038
0.434	348.15	218.9	0.1614	0.0038
0.434	353.15	222.4	0.1614	0.0037
0.434	358.15	225	0.1614	0.0037
0.434	363.15	228.5	0.1615	0.0037
0.434	368.15	231.9	0.1615	0.0037
0.434	373.15	235.2	0.1615	0.0037
0.434	378.15	236.9	0.1616	0.0036
0.434	383.15	240.1	0.1616	0.0036
0.898	303.15	169.8	0.2302	0.0041
0.898	308.15	172.8	0.2303	0.0041
0.898	313.15	175.8	0.2303	0.0041
0.898	318.15	178.7	0.2304	0.0041
0.898	323.15	181.7	0.2304	0.0041
0.898	328.15	184.7	0.2305	0.0041
0.898	333.15	187.6	0.2305	0.004
0.898	338.15	190.4	0.2306	0.0041
0.898	343.15	193.4	0.2306	0.0041
0.898	348.15	196.3	0.2307	0.004
0.898	353.15	199.4	0.2307	0.004
0.898	358.15	202.3	0.2308	0.004
0.898	363.15	205.3	0.2308	0.004
0.898	368.15	208.1	0.2309	0.004
0.898	373.15	211.1	0.2309	0.0039
0.898	378.15	213.4	0.231	0.0039
0.898	383.15	217.1	0.231	0.0042
