Measured thermophysical data. Research on Dissolution Capability of Several Antofloxacin Salts
Source: J. Chem. Eng. Data, 2018, 10.1021/acs.jced.8b00288
Compound 1: antofloxacin hydrochloride, C18H22ClFN4O4, InChI=1S/C18H21FN4O4.ClH/c1-9-8-27-17-14-11(16(24)10(18(25)26)7-23(9)14)13(20)12(19)15(17)22-5-3-21(2)4-6-22;/h7,9H,3-6,8,20H2,1-2H3,(H,25,26);1H/t9-;/m0./s1, purity 98.4%
Compound 2: antofloxacin sulfate, C18H23FN4O8S, InChI=1S/C18H21FN4O4.H2O4S/c1-9-8-27-17-14-11(16(24)10(18(25)26)7-23(9)14)13(20)12(19)15(17)22-5-3-21(2)4-6-22;1-5(2,3)4/h7,9H,3-6,8,20H2,1-2H3,(H,25,26);(H2,1,2,3,4)/t9-;/m0./s1
Compound 3: antofloxacin succinate, C22H27FN4O8, InChI=1S/C18H21FN4O4.C4H6O4/c1-9-8-27-17-14-11(16(24)10(18(25)26)7-23(9)14)13(20)12(19)15(17)22-5-3-21(2)4-6-22;5-3(6)1-2-4(7)8/h7,9H,3-6,8,20H2,1-2H3,(H,25,26);1-2H2,(H,5,6)(H,7,8)/t9-;/m0./s1
Compound 4: ethanol, C2H6O, InChI=1S/C2H6O/c1-2-3/h3H,2H2,1H3, purity 99.7%
Compound 5: methanol, CH4O, InChI=1S/CH4O/c1-2/h2H,1H3, purity 99.5%
Compound 6: propan-1-ol, C3H8O, InChI=1S/C3H8O/c1-2-3-4/h4H,2-3H2,1H3, purity 99.5%
Compound 7: butan-1-ol, C4H10O, InChI=1S/C4H10O/c1-2-3-4-5/h5H,2-4H2,1H3, purity 99.7%
Compound 8: acetonitrile, C2H3N, InChI=1S/C2H3N/c1-2-3/h1H3, purity 99.5%
Compound 9: dimethylformamide, C3H7NO, InChI=1S/C3H7NO/c1-4(2)3-5/h3H,1-2H3, purity 99.5%
Compound 10: 1,2-benzenedicarboximide, C8H5NO2, InChI=1S/C8H5NO2/c10-7-5-3-1-2-4-6(5)8(11)9-7/h1-4H,(H,9,10,11), purity 99%

System: antofloxacin hydrochloride; phases: Crystal, Liquid, Air at 1 atmosphere
Property: Normal melting temperature, K (Crystal); method: VISOBS
Normal melting temperature, K	uncertainty
601.11	4.02

System: antofloxacin sulfate; phases: Crystal, Liquid, Air at 1 atmosphere
Property: Normal melting temperature, K (Crystal); method: VISOBS
Normal melting temperature, K	uncertainty
588.35	4.02

System: antofloxacin succinate; phases: Crystal, Liquid, Air at 1 atmosphere
Property: Normal melting temperature, K (Crystal); method: VISOBS
Normal melting temperature, K	uncertainty
550.3	4

System: antofloxacin hydrochloride + dimethylformamide; phases: Liquid, Crystal
Fixed: Pressure, kPa = 101.3
Property: Mole fraction of antofloxacin hydrochloride (Liquid); method: Chromatography
Temperature, K	Mole fraction of antofloxacin hydrochloride	uncertainty
273.15	7.114e-05	3.62e-06
278.15	7.653e-05	3.89e-06
283.15	8.279e-05	4.21e-06
288.15	8.91e-05	4.53e-06
293.15	9.513e-05	4.84e-06
298.15	0.0001013	5.2e-06
303.15	0.0001069	5.4e-06
308.15	0.0001119	5.7e-06
313.15	0.0001176	6e-06
318.15	0.0001224	6.2e-06

System: antofloxacin hydrochloride + methanol; phases: Liquid, Crystal
Fixed: Pressure, kPa = 101.3
Property: Mole fraction of antofloxacin hydrochloride (Liquid); method: Chromatography
Temperature, K	Mole fraction of antofloxacin hydrochloride	uncertainty
273.15	6.328e-05	3.22e-06
278.15	6.75e-05	3.4e-06
283.15	7.525e-05	3.83e-06
288.15	8.315e-05	4.23e-06
293.15	9.275e-05	4.72e-06
298.15	0.0001052	5.4e-06
303.15	0.000121	6.2e-06
308.15	0.0001368	7e-06
313.15	0.0001541	7.8e-06
318.15	0.0001757	8.9e-06

System: antofloxacin hydrochloride + ethanol; phases: Liquid, Crystal
Fixed: Pressure, kPa = 101.3
Property: Mole fraction of antofloxacin hydrochloride (Liquid); method: Chromatography
Temperature, K	Mole fraction of antofloxacin hydrochloride	uncertainty
273.15	9.29e-06	4.72e-07
278.15	1.062e-05	5.4e-07
283.15	1.222e-05	6.2e-07
288.15	1.393e-05	7.1e-07
293.15	1.586e-05	8.1e-07
298.15	1.777e-05	9e-07
303.15	2.018e-05	1.03e-06
308.15	2.287e-05	1.16e-06
313.15	2.555e-05	1.3e-06
318.15	2.873e-05	1.46e-06

System: antofloxacin hydrochloride + acetonitrile; phases: Liquid, Crystal
Fixed: Pressure, kPa = 101.3
Property: Mole fraction of antofloxacin hydrochloride (Liquid); method: Chromatography
Temperature, K	Mole fraction of antofloxacin hydrochloride	uncertainty
273.15	2.407e-06	1.22e-07
278.15	2.728e-06	1.39e-07
283.15	3.115e-06	1.58e-07
288.15	3.591e-06	1.83e-07
293.15	4.102e-06	2.09e-07
298.15	4.676e-06	2.38e-07
303.15	5.36e-06	2.73e-07
308.15	6.066e-06	3.08e-07
313.15	6.9e-06	3.51e-07
318.15	7.844e-06	3.99e-07

System: antofloxacin hydrochloride + propan-1-ol; phases: Liquid, Crystal
Fixed: Pressure, kPa = 101.3
Property: Mole fraction of antofloxacin hydrochloride (Liquid); method: Chromatography
Temperature, K	Mole fraction of antofloxacin hydrochloride	uncertainty
273.15	8.23e-06	4.18e-07
278.15	8.81e-06	4.48e-07
283.15	9.58e-06	4.87e-07
288.15	1.061e-05	5.4e-07
293.15	1.177e-05	6e-07
298.15	1.316e-05	6.7e-07
303.15	1.481e-05	7.5e-07
308.15	1.663e-05	8.5e-07
313.15	1.84e-05	9.4e-07
318.15	2.038e-05	1.04e-06

System: antofloxacin hydrochloride + butan-1-ol; phases: Liquid, Crystal
Fixed: Pressure, kPa = 101.3
Property: Mole fraction of antofloxacin hydrochloride (Liquid); method: Chromatography
Temperature, K	Mole fraction of antofloxacin hydrochloride	uncertainty
273.15	2.067e-05	1.05e-06
278.15	2.26e-05	1.15e-06
283.15	2.411e-05	1.23e-06
288.15	2.635e-05	1.34e-06
293.15	2.83e-05	1.44e-06
298.15	3.028e-05	1.54e-06
303.15	3.153e-05	1.6e-06
308.15	3.341e-05	1.7e-06
313.15	3.52e-05	1.79e-06
318.15	3.712e-05	1.89e-06

System: antofloxacin sulfate + dimethylformamide; phases: Liquid, Crystal
Fixed: Pressure, kPa = 101.3
Property: Mole fraction of antofloxacin sulfate (Liquid); method: Chromatography
Temperature, K	Mole fraction of antofloxacin sulfate	uncertainty
273.15	0.0003624	1.84e-05
278.15	0.0004109	2.09e-05
283.15	0.0004563	2.32e-05
288.15	0.0004962	2.52e-05
293.15	0.0005404	2.75e-05
298.15	0.000577	2.93e-05
303.15	0.0006213	3.16e-05
308.15	0.0006722	3.42e-05
313.15	0.0007315	3.72e-05
318.15	0.0007856	3.99e-05

System: antofloxacin sulfate + methanol; phases: Liquid, Crystal
Fixed: Pressure, kPa = 101.3
Property: Mole fraction of antofloxacin sulfate (Liquid); method: Chromatography
Temperature, K	Mole fraction of antofloxacin sulfate	uncertainty
273.15	1.954e-05	9.9e-07
278.15	2.557e-05	1.3e-06
283.15	3.178e-05	1.62e-06
288.15	3.754e-05	1.91e-06
293.15	4.339e-05	2.21e-06
298.15	4.98e-05	2.53e-06
303.15	5.774e-05	2.94e-06
308.15	6.566e-05	3.34e-06
313.15	7.594e-05	3.86e-06
318.15	8.643e-05	4.4e-06

System: antofloxacin sulfate + ethanol; phases: Liquid, Crystal
Fixed: Pressure, kPa = 101.3
Property: Mole fraction of antofloxacin sulfate (Liquid); method: Chromatography
Temperature, K	Mole fraction of antofloxacin sulfate	uncertainty
273.15	4.903e-06	2.49e-07
278.15	5.557e-06	2.83e-07
283.15	6.197e-06	3.15e-07
288.15	6.812e-06	3.46e-07
293.15	7.445e-06	3.79e-07
298.15	8.199e-06	4.17e-07
303.15	8.883e-06	4.52e-07
308.15	9.56e-06	4.86e-07
313.15	1.021e-05	5.2e-07
318.15	1.1e-05	1e-06

System: antofloxacin sulfate + acetonitrile; phases: Liquid, Crystal
Fixed: Pressure, kPa = 101.3
Property: Mole fraction of antofloxacin sulfate (Liquid); method: Chromatography
Temperature, K	Mole fraction of antofloxacin sulfate	uncertainty
273.15	2.946e-06	1.5e-07
278.15	3.552e-06	1.81e-07
283.15	4.273e-06	2.17e-07
288.15	4.93e-06	2.51e-07
293.15	5.678e-06	2.89e-07
298.15	6.424e-06	3.27e-07
303.15	7.233e-06	3.68e-07
308.15	8.098e-06	4.12e-07
313.15	9.036e-06	4.6e-07
318.15	1.013e-05	5.2e-07

System: antofloxacin sulfate + propan-1-ol; phases: Liquid, Crystal
Fixed: Pressure, kPa = 101.3
Property: Mole fraction of antofloxacin sulfate (Liquid); method: Chromatography
Temperature, K	Mole fraction of antofloxacin sulfate	uncertainty
273.15	2.636e-06	1.34e-07
278.15	2.999e-06	1.53e-07
283.15	3.397e-06	1.73e-07
288.15	3.812e-06	1.94e-07
293.15	4.222e-06	2.15e-07
298.15	4.692e-06	2.39e-07
303.15	5.114e-06	2.6e-07
308.15	5.541e-06	2.82e-07
313.15	5.925e-06	3.01e-07
318.15	6.331e-06	3.22e-07

System: antofloxacin sulfate + butan-1-ol; phases: Liquid, Crystal
Fixed: Pressure, kPa = 101.3
Property: Mole fraction of antofloxacin sulfate (Liquid); method: Chromatography
Temperature, K	Mole fraction of antofloxacin sulfate	uncertainty
273.15	1.661e-06	8.4e-08
278.15	1.821e-06	9.3e-08
283.15	2.004e-06	1.02e-07
288.15	2.168e-06	1.1e-07
293.15	2.347e-06	1.19e-07
298.15	2.531e-06	1.29e-07
303.15	2.693e-06	1.37e-07
308.15	2.898e-06	1.47e-07
313.15	3.112e-06	1.58e-07
318.15	3.378e-06	1.72e-07

System: antofloxacin succinate + dimethylformamide; phases: Liquid, Crystal
Fixed: Pressure, kPa = 101.3
Property: Mole fraction of antofloxacin succinate (Liquid); method: Chromatography
Temperature, K	Mole fraction of antofloxacin succinate	uncertainty
273.15	0.0002623	1.33e-05
278.15	0.0003041	1.55e-05
283.15	0.0003481	1.77e-05
288.15	0.0004081	2.08e-05
293.15	0.0004666	2.37e-05
298.15	0.0005307	2.7e-05
303.15	0.0006176	3.14e-05
308.15	0.0007226	3.68e-05
313.15	0.0008873	4.51e-05
318.15	0.001084	5.5e-05

System: antofloxacin succinate + methanol; phases: Liquid, Crystal
Fixed: Pressure, kPa = 101.3
Property: Mole fraction of antofloxacin succinate (Liquid); method: Chromatography
Temperature, K	Mole fraction of antofloxacin succinate	uncertainty
273.15	1.982e-05	1.01e-06
278.15	2.301e-05	1.17e-06
283.15	2.626e-05	1.34e-06
288.15	2.958e-05	1.5e-06
293.15	3.316e-05	1.69e-06
298.15	3.673e-05	1.87e-06
303.15	4.086e-05	2.08e-06
308.15	4.496e-05	2.29e-06
313.15	4.992e-05	2.54e-06
318.15	5.512e-05	2.8e-06

System: antofloxacin succinate + ethanol; phases: Liquid, Crystal
Fixed: Pressure, kPa = 101.3
Property: Mole fraction of antofloxacin succinate (Liquid); method: Chromatography
Temperature, K	Mole fraction of antofloxacin succinate	uncertainty
273.15	2.122e-06	1.08e-07
278.15	3.236e-06	1.65e-07
283.15	4.753e-06	2.42e-07
288.15	6.455e-06	3.29e-07
293.15	8.688e-06	4.42e-07
298.15	1.133e-05	5.8e-07
303.15	1.426e-05	7.3e-07
308.15	1.797e-05	9.1e-07
313.15	2.281e-05	1.16e-06
318.15	2.855e-05	1.45e-06

System: antofloxacin succinate + acetonitrile; phases: Liquid, Crystal
Fixed: Pressure, kPa = 101.3
Property: Mole fraction of antofloxacin succinate (Liquid); method: Chromatography
Temperature, K	Mole fraction of antofloxacin succinate	uncertainty
273.15	9.267e-07	4.73e-08
278.15	1.455e-06	7.4e-08
283.15	2.176e-06	1.11e-07
288.15	3.029e-06	1.54e-07
293.15	4.241e-06	2.16e-07
298.15	5.81e-06	2.96e-07
303.15	8.025e-06	4.08e-07
308.15	1.062e-05	5.4e-07
313.15	1.393e-05	7.1e-07
318.15	1.797e-05	9.1e-07

System: antofloxacin succinate + propan-1-ol; phases: Liquid, Crystal
Fixed: Pressure, kPa = 101.3
Property: Mole fraction of antofloxacin succinate (Liquid); method: Chromatography
Temperature, K	Mole fraction of antofloxacin succinate	uncertainty
273.15	5.308e-06	2.7e-07
278.15	7.113e-06	3.62e-07
283.15	9.23e-06	4.7e-07
288.15	1.172e-05	6e-07
293.15	1.444e-05	7.3e-07
298.15	1.754e-05	8.9e-07
303.15	2.101e-05	1.07e-06
308.15	2.533e-05	1.29e-06
313.15	3.133e-05	1.59e-06
318.15	3.869e-05	1.97e-06

System: antofloxacin succinate + butan-1-ol; phases: Liquid, Crystal
Fixed: Pressure, kPa = 101.3
Property: Mole fraction of antofloxacin succinate (Liquid); method: Chromatography
Temperature, K	Mole fraction of antofloxacin succinate	uncertainty
273.15	7.752e-06	3.95e-07
278.15	9.998e-06	5.09e-07
283.15	1.261e-05	6.4e-07
288.15	1.568e-05	8e-07
293.15	1.896e-05	9.6e-07
298.15	2.287e-05	1.16e-06
303.15	2.72e-05	1.4e-06
308.15	3.219e-05	1.64e-06
313.15	3.878e-05	1.97e-06
318.15	4.614e-05	2.35e-06

System: 1,2-benzenedicarboximide + acetonitrile; phases: Liquid, Crystal
Fixed: Pressure, kPa = 101.3
Property: Mole fraction of 1,2-benzenedicarboximide (Liquid); method: Chromatography
Temperature, K	Mole fraction of 1,2-benzenedicarboximide	uncertainty
283.15	0.001421	8e-05
293.15	0.002441	0.000137
303.15	0.003815	0.000214
313.15	0.005866	0.000329
