Measured thermophysical data. Solubility Equilibria in the System Mg(OH)2 - MgCl2 - H2O from 298 K to 393 K
Source: J. Chem. Eng. Data, 2017, 10.1021/acs.jced.6b00928
Compound 1: magnesium chloride, Cl2Mg, InChI=1S/2ClH.Mg/h2*1H;/q;;+2/p-2
Compound 2: magnesium hydroxide, H2MgO2, InChI=1S/Mg.2H2O/h;2*1H2/q+2;;/p-2
Compound 3: water, H2O, InChI=1S/H2O/h1H2, purity 99.9%

System: magnesium hydroxide + water + magnesium chloride; phases: Liquid, Crystal
Fixed: Pressure, kPa = 100
Property: Molality, mol/kg of magnesium hydroxide (Liquid); method: titration
Temperature, K	Molality, mol/kg of magnesium chloride	Molality, mol/kg of magnesium hydroxide	uncertainty
298	0.511	0.00045	1e-05
298	0.512	0.00031	1e-05
298	1.036	0.0007	4e-05
298	1.077	0.00106	5e-05
298	1.521	0.00113	4e-05
313	0.535	0.00042	1e-05
313	1.026	0.00083	0.00015
313	1.05	0.00163	0.00016
313	1.545	0.00258	0.00011
313	1.581	0.00202	0.00011
333	1.024	0.00096	2e-05
333	1.997	0.00339	0.00038
333	2.003	0.00311	0.00038
333	2.512	0.00663	0.0001
353	0.668	0.00038	1e-05
353	2.059	0.00398	7e-05
353	1.15	0.00142	3e-05
353	2.121	0.0043	8e-05
353	3.159	0.01415	0.00028
353	3.209	0.01319	0.00028
373	1.203	0.0008	3e-05
373	2.15	0.00431	9e-05
373	3.1	0.01475	0.00024
373	3.539	0.02292	0.00037
373	4.041	0.03287	0.00047
393	3.044	0.02048	0.0003
393	3.998	0.03425	0.00042

System: magnesium hydroxide + water + magnesium chloride; phases: Liquid, Crystal of intercomponent compound 1
Fixed: Pressure, kPa = 100
Property: Amount concentration (molarity), mol/dm3 of magnesium hydroxide (Liquid); method: titration
Temperature, K	Molality, mol/kg of magnesium chloride	Amount concentration (molarity), mol/dm3 of magnesium hydroxide	uncertainty
298	1.526	0.00134	5e-05
298	2.042	0.00165	6e-05
298	2.556	0.00143	6e-05
298	3.066	0.00175	6e-05
298	3.512	0.00187	6e-05
298	3.584	0.00183	6e-05
298	3.973	0.00205	6e-05
298	4.131	0.00202	6e-05
298	5.057	0.00237	0.00043
298	5.07	0.00264	0.00043
298	5.456	0.00294	7e-05
313	2.048	0.00356	6e-05
313	2.574	0.00392	8e-05
313	2.607	0.00402	8e-05
313	3.06	0.00376	9e-05
313	3.549	0.004	9e-05
313	4.075	0.0041	0.0001
313	5.045	0.00597	0.00013
313	5.595	0.0053	0.00017
333	5.338	0.01253	0.00129
333	2.999	0.00841	0.00018
333	3.482	0.00859	0.0002
333	4.019	0.0093	0.00019
333	4.949	0.01177	0.00028
333	5.352	0.01336	0.0013
333	5.78	0.01624	0.00045
353	3.161	0.01867	0.00028
353	4.034	0.01984	0.00032
353	4.496	0.02412	0.00069
353	5.468	0.03125	0.00073
353	5.796	0.03711	0.00328
353	5.815	0.03447	0.00085
353	5.84	0.03567	0.00122
353	5.104	0.02959	0.00059
353	3.493	0.02143	0.00031
353	3.497	0.02112	0.00031
373	4.583	0.05472	0.00089
373	5.027	0.06082	0.00144
373	5.334	0.07039	0.00141
373	5.521	0.07758	0.00145
373	4.489	0.05514	0.00083
373	4.945	0.06316	0.00211
373	4.989	0.05875	0.00101
373	5.295	0.06887	0.00139

System: magnesium hydroxide + water + magnesium chloride; phases: Liquid, Crystal of intercomponent compound 2
Fixed: Pressure, kPa = 100
Property: Molality, mol/kg of magnesium hydroxide (Liquid); method: titration
Temperature, K	Molality, mol/kg of magnesium chloride	Molality, mol/kg of magnesium hydroxide	uncertainty
333	5.787	0.00713	0.00084
353	6.491	0.01643	0.0008
353	5.815	0.03447	0.00305
353	5.84	0.03567	0.00144
353	6.062	0.02295	0.00047
353	5.932	0.01934	0.00111
353	5.964	0.02123	0.0005
353	6.453	0.01551	0.00079
373	5.707	0.04165	0.00094
373	6.157	0.03119	0.00058
373	7.03	0.01767	0.00757
373	7.148	0.01988	0.00186
373	5.325	0.05853	0.00078
373	5.445	0.05778	0.00118
373	7.091	0.00151	0.0007
373	7.256	0.01484	0.00143
393	7.589	0.02179	0.00104
393	5.816	0.06047	0.0014
393	6.203	0.04113	0.00088
393	6.716	0.03458	0.00056
393	7.512	0.02421	0.00104

System: magnesium hydroxide + water + magnesium chloride; phases: Liquid, Crystal of intercomponent compound 3
Fixed: Pressure, kPa = 100
Property: Molality, mol/kg of magnesium hydroxide (Liquid); method: titration
Temperature, K	Molality, mol/kg of magnesium chloride	Molality, mol/kg of magnesium hydroxide	uncertainty
373	3.962	0.03694	0.0009
373	4.041	0.03287	0.0009
373	4.551	0.04646	0.00057
373	5.147	0.05072	0.00055
373	5.22	0.05154	0.00059
373	4.55	0.04217	0.00054
373	5.026	0.05002	0.00054
393	5.557	0.06226	0.01528
393	3.998	0.03425	0.00042
393	4.558	0.04188	0.00056
393	5.108	0.05584	0.00071
393	5.56	0.06424	0.01529
393	5.816	0.06047	0.00124

System: magnesium hydroxide + water + magnesium chloride; phases: Liquid, Crystal of intercomponent compound 1
Fixed: Temperature, K = 393
Fixed: Pressure, kPa = 100
Property: Molality, mol/kg of magnesium hydroxide (Liquid); method: titration
Molality, mol/kg of magnesium chloride	Molality, mol/kg of magnesium hydroxide	uncertainty
7.823	0.01557	0.00016
9.122	0.01386	0.00015
