Measured thermophysical data. Volumetric, Viscometric and Spectroscopic Approach to Study the Solvation Behavior of Xanthine Drugs in Aqueous Solutions of NaCl at T = 288.15 318.15 K and at p = 101.325 kPa
Source: J. Chem. Eng. Data, 2017, 10.1021/acs.jced.6b00273
Compound 1: caffeine, C8H10N4O2, InChI=1S/C8H10N4O2/c1-10-4-9-6-5(10)7(13)12(3)8(14)11(6)2/h4H,1-3H3, purity 99%
Compound 2: sodium chloride, ClNa, InChI=1S/ClH.Na/h1H;/q;+1/p-1, purity 99%
Compound 3: water, H2O, InChI=1S/H2O/h1H2, purity 99.8%
Compound 4: 3,7-dihydro-1,3-dimethyl-1H-purine-2,6-dione, C7H8N4O2, InChI=1S/C7H8N4O2/c1-10-5-4(8-3-9-5)6(12)11(2)7(10)13/h3H,1-2H3,(H,8,9), purity 99%
Compound 5: 1H-purine-2,6-dione, 3,7-dihydro-3,7-dimethyl-, C7H8N4O2, InChI=1S/C7H8N4O2/c1-10-3-8-5-4(10)6(12)9-7(13)11(5)2/h3H,1-2H3,(H,9,12,13), purity 93%

System: caffeine + sodium chloride + water; phases: Liquid
Fixed: Pressure, kPa = 101.325
Property: Mass density, kg/m3 (Liquid); method: Vibrating tube method
Temperature, K	Molality, mol/kg of caffeine	Solvent: Molality, mol/kg of sodium chloride	Mass density, kg/m3	uncertainty
288.15	0	0.1	1003.328	8.001
298.15	0	0.1	1001.12	8
308.15	0	0.1	998.046	8.001
318.15	0	0.1	994.175	8.001
288.15	0	0.25	1009.78	8
298.15	0	0.25	1007.289	8.001
308.15	0	0.25	1003.48	8
318.15	0	0.25	999.875	8.001
288.15	0	0.5	1019.738	8.001
298.15	0	0.5	1017.14	8
308.15	0	0.5	1013.81	8
318.15	0	0.5	1009.78	8
288.15	0	0.75	1029.45	8
298.15	0	0.75	1026.12	8
308.15	0	0.75	1023.12	8
318.15	0	0.75	1018.94	8
288.15	0	1	1039.16	8
298.15	0	1	1036.18	8
308.15	0	1	1032.47	8
318.15	0	1	1028.31	8
288.15	0.00291	0.75	1029.604	8.001
298.15	0.00291	0.75	1026.263	8.001
308.15	0.00291	0.75	1023.251	8.001
318.15	0.00291	0.75	1019.058	8.001
288.15	0.00294	0.25	1009.933	8.001
298.15	0.00294	0.25	1007.431	8.001
308.15	0.00294	0.25	1003.61	8.001
318.15	0.00294	0.25	999.991	8.001
288.15	0.00302	1	1039.321	8.001
298.15	0.00302	1	1036.331	8.001
308.15	0.00302	1	1032.608	8.001
318.15	0.00302	1	1028.435	8.001
288.15	0.00303	0.5	1019.897	8.001
298.15	0.00303	0.5	1017.286	8.001
308.15	0.00303	0.5	1013.944	8.001
318.15	0.00303	0.5	1009.9	8.001
298.15	0.00307	0.1	1001.265	8.001
308.15	0.00307	0.1	998.179	8.001
318.15	0.00307	0.1	994.295	8.001
288.15	0.00307	0.1	1003.485	8.001
288.15	0.00489	1	1039.423	8.001
298.15	0.00489	1	1036.426	8.001
308.15	0.00489	1	1032.695	8.001
318.15	0.00489	1	1028.514	8.001
288.15	0.00491	0.25	1010.035	8.001
298.15	0.00491	0.25	1007.526	8.001
308.15	0.00491	0.25	1003.698	8.001
318.15	0.00491	0.25	1000.069	8.001
288.15	0.00491	0.5	1019.995	8.001
298.15	0.00491	0.5	1017.377	8.001
308.15	0.00491	0.5	1014.028	8.001
318.15	0.00491	0.5	1009.975	8.001
308.15	0.00499	0.1	998.263	8.001
318.15	0.00499	0.1	994.371	8.001
288.15	0.00499	0.1	1003.584	8.001
298.15	0.00499	0.1	1001.356	8.001
288.15	0.00502	0.75	1029.717	8.001
298.15	0.00502	0.75	1026.366	8.001
308.15	0.00502	0.75	1023.346	8.001
318.15	0.00502	0.75	1019.144	8.001
318.15	0.0051	0	990.464	8.001
288.15	0.0051	0	999.404	8.001
298.15	0.0051	0	997.304	8.001
308.15	0.0051	0	994.303	8.001
298.15	0.00606	0.1	1001.446	8.001
308.15	0.00606	0.1	998.346	8.001
318.15	0.00606	0.1	994.445	8.001
288.15	0.00606	0.1	1003.682	8.001
288.15	0.00654	1	1039.512	8.001
298.15	0.00654	1	1036.509	8.001
308.15	0.00654	1	1032.77	8.001
318.15	0.00654	1	1028.583	8.001
288.15	0.00672	0.75	1029.807	8.001
298.15	0.00672	0.75	1026.45	8.001
308.15	0.00672	0.75	1023.423	8.001
318.15	0.00672	0.75	1019.214	8.001
288.15	0.00686	0.5	1020.098	8.001
298.15	0.00686	0.5	1017.471	8.001
308.15	0.00686	0.5	1014.114	8.001
318.15	0.00686	0.5	1010.053	8.001
298.15	0.00695	0	997.399	8.001
318.15	0.00695	0	990.545	8.001
288.15	0.00695	0	999.505	8.001
308.15	0.00695	0	994.39	8.001
308.15	0.00705	0.25	1003.792	8.001
298.15	0.00705	0.25	1007.629	8.001
318.15	0.00705	0.25	1000.153	8.001
288.15	0.00705	0.25	1010.147	8.001
308.15	0.00863	0.25	1003.863	8.001
318.15	0.00863	0.25	1000.216	8.001
298.15	0.00863	0.25	1007.706	8.001
288.15	0.00863	0.25	1010.229	8.001
288.15	0.00869	1	1039.63	8.001
298.15	0.00869	1	1036.618	8.001
308.15	0.00869	1	1032.87	8.001
318.15	0.00869	1	1028.673	8.001
308.15	0.00881	0.1	998.431	8.001
298.15	0.00881	0.1	1001.537	8.001
318.15	0.00881	0.1	994.521	8.001
288.15	0.00881	0.1	1003.782	8.001
288.15	0.0089	0.75	1029.924	8.001
298.15	0.0089	0.75	1026.558	8.001
308.15	0.0089	0.75	1023.521	8.001
318.15	0.0089	0.75	1019.303	8.001
288.15	0.00896	0.5	1020.208	8.001
298.15	0.00896	0.5	1017.573	8.001
308.15	0.00896	0.5	1014.207	8.001
318.15	0.00896	0.5	1010.137	8.001
298.15	0.00902	0	997.504	8.001
288.15	0.00902	0	999.619	8.001
308.15	0.00902	0	994.488	8.001
318.15	0.00902	0	990.637	8.001
298.15	0.01515	0.5	1017.873	8.001
308.15	0.01515	0.5	1014.482	8.001
318.15	0.01515	0.5	1010.384	8.001
288.15	0.01515	0.5	1020.534	8.001
288.15	0.01528	0.75	1030.264	8.001
298.15	0.01528	0.75	1026.871	8.001
308.15	0.01528	0.75	1023.809	8.001
318.15	0.01528	0.75	1019.563	8.001
308.15	0.0153	0.25	1004.159	8.001
318.15	0.0153	0.25	1000.496	8.001
288.15	0.0153	0.25	1010.575	8.001
298.15	0.0153	0.25	1008.029	8.001
288.15	0.01531	1	1039.99	8.001
298.15	0.01531	1	1036.951	8.001
308.15	0.01531	1	1033.174	8.001
318.15	0.01531	1	1028.95	8.001
288.15	0.01539	0.1	1004.121	8.001
298.15	0.01539	0.1	1001.849	8.001
318.15	0.01539	0.1	994.781	8.001
308.15	0.01539	0.1	998.718	8.001
288.15	0.01843	0.75	1030.434	8.001
298.15	0.01843	0.75	1027.027	8.001
308.15	0.01843	0.75	1023.951	8.001
318.15	0.01843	0.75	1019.694	8.001
318.15	0.01862	0.25	1000.649	8.001
288.15	0.01862	0.25	1010.748	8.001
298.15	0.01862	0.25	1008.189	8.001
308.15	0.01862	0.25	1004.306	8.001
288.15	0.01923	1	1040.204	8.001
298.15	0.01923	1	1037.15	8.001
308.15	0.01923	1	1033.355	8.001
318.15	0.01923	1	1029.115	8.001
318.15	0.01939	0.1	994.939	8.001
298.15	0.01939	0.1	1002.039	8.001
288.15	0.01939	0.1	1004.327	8.001
308.15	0.01939	0.1	998.894	8.001
308.15	0.0198	0.5	1014.691	8.001
318.15	0.0198	0.5	1010.569	8.001
298.15	0.0198	0.5	1018.098	8.001
288.15	0.0198	0.5	1020.779	8.001
288.15	0.01993	0	1000.215	8.001
318.15	0.01993	0	991.121	8.001
308.15	0.01993	0	995.013	8.001
298.15	0.01993	0	998.06	8.001
298.15	0.02518	0.75	1027.36	8.001
308.15	0.02518	0.75	1024.257	8.001
318.15	0.02518	0.75	1019.97	8.001
288.15	0.02518	0.75	1030.795	8.001
318.15	0.02524	0.5	1010.788	8.001
308.15	0.02524	0.5	1014.935	8.001
288.15	0.02524	0.5	1021.065	8.001
298.15	0.02524	0.5	1018.362	8.001
288.15	0.02527	1	1040.533	8.001
298.15	0.02527	1	1037.454	8.001
308.15	0.02527	1	1033.634	8.001
318.15	0.02527	1	1029.368	8.001
288.15	0.02539	0.25	1011.102	8.001
308.15	0.02539	0.25	1004.608	8.001
298.15	0.02539	0.25	1008.52	8.001
318.15	0.02539	0.25	1000.959	8.001
288.15	0.0255	0.1	1004.669	8.001
308.15	0.0255	0.1	999.163	8.001
298.15	0.0255	0.1	1002.329	8.001
318.15	0.0255	0.1	995.182	8.001
288.15	0.02791	1	1040.678	8.001
298.15	0.02791	1	1037.589	8.001
308.15	0.02791	1	1033.756	8.001
318.15	0.02791	1	1029.48	8.001
308.15	0.02882	0.1	999.309	8.001
318.15	0.02882	0.1	995.316	8.001
298.15	0.02882	0.1	1002.487	8.001
288.15	0.02882	0.1	1004.816	8.001
298.15	0.0293	0.75	1027.564	8.001
308.15	0.0293	0.75	1024.443	8.001
288.15	0.0293	0.75	1031.019	8.001
318.15	0.0293	0.75	1020.141	8.001
308.15	0.02931	0.25	1004.784	8.001
288.15	0.02931	0.25	1011.307	8.001
318.15	0.02931	0.25	1001.039	8.001
298.15	0.02931	0.25	1008.712	8.001
318.15	0.02961	0.5	1010.963	8.001
308.15	0.02961	0.5	1015.131	8.001
298.15	0.02961	0.5	1018.574	8.001
288.15	0.02961	0.5	1021.296	8.001
318.15	0.02992	0	991.571	8.001
298.15	0.02992	0	998.576	8.001
308.15	0.02992	0	995.497	8.001
288.15	0.02992	0	1000.769	8.001
288.15	0.03531	0	1001.071	8.001
298.15	0.03531	0	998.853	8.001
308.15	0.03531	0	995.759	8.001
318.15	0.03531	0	991.812	8.001
288.15	0.04008	0	1001.338	8.001
298.15	0.04008	0	999.101	8.001
318.15	0.04008	0	992.025	8.001
308.15	0.04008	0	996.001	8.001
308.15	0.04992	0	996.484	8.001
298.15	0.04992	0	999.619	8.001
318.15	0.04992	0	992.483	8.001
288.15	0.04992	0	1001.886	8.001

System: caffeine + sodium chloride + water; phases: Liquid
Fixed: Pressure, kPa = 101.325
Property: Viscosity, Pa*s (Liquid); method: Capillary tube (Ostwald; Ubbelohde) method
Temperature, K	Molality, mol/kg of caffeine	Solvent: Molality, mol/kg of sodium chloride	Viscosity, Pa*s	uncertainty
288.15	0	0.1	0.00115	2.5e-05
298.15	0	0.1	0.000901	2.5e-05
308.15	0	0.1	0.000728	2.4e-05
318.15	0	0.1	0.000605	2.4e-05
288.15	0	0.25	0.00116	2.5e-05
298.15	0	0.25	0.00091	2.5e-05
308.15	0	0.25	0.00074	2.5e-05
318.15	0	0.25	0.00061	2.4e-05
288.15	0	0.5	0.001178	2.5e-05
298.15	0	0.5	0.000932	2.5e-05
308.15	0	0.5	0.000756	2.5e-05
318.15	0	0.5	0.00063	2.4e-05
288.15	0	0.75	0.001214	2.5e-05
298.15	0	0.75	0.000959	2.5e-05
308.15	0	0.75	0.00078	2.5e-05
318.15	0	0.75	0.00065	2.4e-05
288.15	0	1	0.001254	2.5e-05
298.15	0	1	0.000991	2.5e-05
308.15	0	1	0.000812	2.5e-05
318.15	0	1	0.000676	2.4e-05
288.15	0.00292	1	0.001254	2.5e-05
298.15	0.00292	1	0.000991	2.5e-05
308.15	0.00292	1	0.000812	2.5e-05
318.15	0.00292	1	0.000676	2.4e-05
288.15	0.00296	0.25	0.001159	2.5e-05
298.15	0.00296	0.25	0.000912	2.5e-05
308.15	0.00296	0.25	0.00074	2.5e-05
318.15	0.00296	0.25	0.000611	2.4e-05
288.15	0.00296	0.5	0.00118	2.5e-05
298.15	0.00296	0.5	0.000932	2.5e-05
308.15	0.00296	0.5	0.000757	2.5e-05
318.15	0.00296	0.5	0.00063	2.4e-05
288.15	0.00299	0.75	0.001216	2.5e-05
298.15	0.00299	0.75	0.000959	2.5e-05
308.15	0.00299	0.75	0.000782	2.5e-05
318.15	0.00299	0.75	0.000651	2.4e-05
298.15	0.00308	0.1	0.000902	2.5e-05
308.15	0.00308	0.1	0.000728	2.4e-05
318.15	0.00308	0.1	0.000606	2.4e-05
288.15	0.00308	0.1	0.001151	2.5e-05
288.15	0.00479	0.5	0.00118	2.5e-05
298.15	0.00479	0.5	0.000933	2.5e-05
308.15	0.00479	0.5	0.000758	2.5e-05
318.15	0.00479	0.5	0.000631	2.4e-05
288.15	0.00496	0.25	0.001161	2.5e-05
298.15	0.00496	0.25	0.000913	2.5e-05
308.15	0.00496	0.25	0.000742	2.5e-05
318.15	0.00496	0.25	0.000612	2.4e-05
308.15	0.005	0.1	0.000729	2.4e-05
318.15	0.005	0.1	0.000607	2.4e-05
298.15	0.005	0.1	0.000903	2.5e-05
288.15	0.005	0.1	0.001152	2.5e-05
318.15	0.00508	0	0.000599	2.4e-05
288.15	0.00508	0	0.00114	2.5e-05
298.15	0.00508	0	0.000895	2.5e-05
308.15	0.00508	0	0.000723	2.4e-05
288.15	0.00517	0.75	0.001217	2.5e-05
298.15	0.00517	0.75	0.00096	2.5e-05
308.15	0.00517	0.75	0.000782	2.5e-05
318.15	0.00517	0.75	0.000652	2.4e-05
288.15	0.00682	1	0.001255	2.5e-05
298.15	0.00682	1	0.000993	2.5e-05
308.15	0.00682	1	0.000813	2.5e-05
318.15	0.00682	1	0.000677	2.4e-05
298.15	0.0069	0.1	0.000904	2.5e-05
308.15	0.0069	0.1	0.000731	2.5e-05
288.15	0.0069	0.1	0.001153	2.5e-05
318.15	0.0069	0.1	0.000608	2.4e-05
288.15	0.00691	0.75	0.001217	2.5e-05
298.15	0.00691	0.75	0.000961	2.5e-05
308.15	0.00691	0.75	0.000783	2.5e-05
318.15	0.00691	0.75	0.000653	2.4e-05
318.15	0.00693	0	0.0006	2.4e-05
298.15	0.00693	0	0.000896	2.5e-05
288.15	0.00693	0	0.001142	2.5e-05
308.15	0.00693	0	0.000724	2.4e-05
298.15	0.00711	0.25	0.000914	2.5e-05
308.15	0.00711	0.25	0.000743	2.5e-05
318.15	0.00711	0.25	0.000613	2.4e-05
288.15	0.00711	0.25	0.001162	2.5e-05
288.15	0.00736	0.5	0.001181	2.5e-05
298.15	0.00736	0.5	0.000934	2.5e-05
308.15	0.00736	0.5	0.000758	2.5e-05
318.15	0.00736	0.5	0.000632	2.4e-05
308.15	0.0087	0.25	0.000744	2.5e-05
288.15	0.0087	0.25	0.001164	2.5e-05
318.15	0.0087	0.25	0.000614	2.4e-05
298.15	0.0087	0.25	0.000914	2.5e-05
308.15	0.00883	0.1	0.000732	2.5e-05
288.15	0.00883	0.1	0.001155	2.5e-05
298.15	0.00883	0.1	0.000905	2.5e-05
318.15	0.00883	0.1	0.000609	2.4e-05
288.15	0.00885	1	0.001256	2.5e-05
298.15	0.00885	1	0.000994	2.5e-05
308.15	0.00885	1	0.000814	2.5e-05
318.15	0.00885	1	0.000678	2.4e-05
298.15	0.009	0	0.000896	2.5e-05
318.15	0.009	0	0.000601	2.4e-05
308.15	0.009	0	0.000724	2.4e-05
288.15	0.009	0	0.001144	2.5e-05
288.15	0.00913	0.5	0.001182	2.5e-05
298.15	0.00913	0.5	0.000936	2.5e-05
308.15	0.00913	0.5	0.000759	2.5e-05
318.15	0.00913	0.5	0.000633	2.4e-05
288.15	0.00915	0.75	0.001218	2.5e-05
298.15	0.00915	0.75	0.000963	2.5e-05
308.15	0.00915	0.75	0.000784	2.5e-05
318.15	0.00915	0.75	0.000654	2.4e-05
288.15	0.01031	1	0.001257	2.5e-05
298.15	0.01031	1	0.000994	2.5e-05
308.15	0.01031	1	0.000814	2.5e-05
318.15	0.01031	1	0.000679	2.4e-05
288.15	0.01554	0.1	0.001157	2.5e-05
318.15	0.01554	0.1	0.000611	2.4e-05
308.15	0.01554	0.1	0.000734	2.5e-05
298.15	0.01554	0.1	0.000907	2.5e-05
298.15	0.01567	0.25	0.000916	2.5e-05
318.15	0.01567	0.25	0.000615	2.4e-05
308.15	0.01567	0.25	0.000745	2.5e-05
288.15	0.01567	0.25	0.001167	2.5e-05
288.15	0.01573	0.75	0.00122	2.5e-05
298.15	0.01573	0.75	0.000964	2.5e-05
308.15	0.01573	0.75	0.000784	2.5e-05
318.15	0.01573	0.75	0.000655	2.4e-05
308.15	0.01596	0.5	0.000761	2.5e-05
318.15	0.01596	0.5	0.000635	2.4e-05
288.15	0.01596	0.5	0.001185	2.5e-05
298.15	0.01596	0.5	0.000937	2.5e-05
288.15	0.01635	1	0.001259	2.5e-05
298.15	0.01635	1	0.000996	2.5e-05
308.15	0.01635	1	0.000816	2.5e-05
318.15	0.01635	1	0.00068	2.4e-05
298.15	0.01875	0.25	0.000918	2.5e-05
288.15	0.01875	0.25	0.001168	2.5e-05
308.15	0.01875	0.25	0.000747	2.5e-05
318.15	0.01875	0.25	0.000616	2.4e-05
288.15	0.01886	1	0.001259	2.5e-05
298.15	0.01886	1	0.000996	2.5e-05
308.15	0.01886	1	0.000816	2.5e-05
318.15	0.01886	1	0.00068	2.4e-05
288.15	0.01893	0.75	0.001221	2.5e-05
298.15	0.01893	0.75	0.000965	2.5e-05
308.15	0.01893	0.75	0.000785	2.5e-05
318.15	0.01893	0.75	0.000656	2.4e-05
308.15	0.0194	0.1	0.000735	2.5e-05
288.15	0.0194	0.1	0.001158	2.5e-05
298.15	0.0194	0.1	0.000909	2.5e-05
318.15	0.0194	0.1	0.000613	2.4e-05
288.15	0.01986	0	0.001147	2.5e-05
298.15	0.01986	0	0.0009	2.5e-05
318.15	0.01986	0	0.000606	2.4e-05
308.15	0.01986	0	0.000728	2.4e-05
308.15	0.02068	0.5	0.000763	2.5e-05
318.15	0.02068	0.5	0.000636	2.4e-05
288.15	0.02068	0.5	0.001187	2.5e-05
298.15	0.02068	0.5	0.000939	2.5e-05
298.15	0.02501	0.75	0.000967	2.5e-05
308.15	0.02501	0.75	0.000787	2.5e-05
318.15	0.02501	0.75	0.000657	2.4e-05
288.15	0.02501	0.75	0.001223	2.5e-05
298.15	0.02507	0.5	0.000941	2.5e-05
308.15	0.02507	0.5	0.000764	2.5e-05
318.15	0.02507	0.5	0.000637	2.4e-05
288.15	0.02507	0.5	0.001188	2.5e-05
298.15	0.0251	0.25	0.00092	2.5e-05
288.15	0.0251	0.25	0.001171	2.5e-05
308.15	0.0251	0.25	0.000749	2.5e-05
318.15	0.0251	0.25	0.000618	2.4e-05
288.15	0.0252	1	0.001261	2.5e-05
298.15	0.0252	1	0.000998	2.5e-05
308.15	0.0252	1	0.000817	2.5e-05
318.15	0.0252	1	0.000682	2.4e-05
298.15	0.02537	0.1	0.000912	2.5e-05
318.15	0.02537	0.1	0.000615	2.4e-05
308.15	0.02537	0.1	0.000739	2.5e-05
288.15	0.02537	0.1	0.001161	2.5e-05
308.15	0.02881	0.1	0.00074	2.5e-05
298.15	0.02881	0.1	0.000915	2.5e-05
318.15	0.02881	0.1	0.000618	2.4e-05
288.15	0.02881	0.1	0.001163	2.5e-05
298.15	0.02882	0.5	0.000942	2.5e-05
308.15	0.02882	0.5	0.000765	2.5e-05
288.15	0.02882	0.5	0.00119	2.5e-05
318.15	0.02882	0.5	0.000639	2.4e-05
288.15	0.02912	1	0.001262	2.5e-05
298.15	0.02912	1	0.000999	2.5e-05
308.15	0.02912	1	0.000819	2.5e-05
318.15	0.02912	1	0.000682	2.4e-05
298.15	0.02948	0.25	0.000921	2.5e-05
308.15	0.02948	0.25	0.00075	2.5e-05
318.15	0.02948	0.25	0.00062	2.4e-05
288.15	0.02948	0.25	0.001173	2.5e-05
308.15	0.02978	0	0.000732	2.5e-05
288.15	0.02978	0	0.001152	2.5e-05
298.15	0.02978	0	0.000905	2.5e-05
318.15	0.02978	0	0.000609	2.4e-05
298.15	0.03004	0.75	0.000971	2.5e-05
318.15	0.03004	0.75	0.000658	2.4e-05
308.15	0.03004	0.75	0.000789	2.5e-05
288.15	0.03004	0.75	0.001225	2.5e-05
318.15	0.03533	0	0.000611	2.4e-05
288.15	0.03533	0	0.001154	2.5e-05
298.15	0.03533	0	0.000907	2.5e-05
308.15	0.03533	0	0.000735	2.5e-05
298.15	0.03983	0	0.00091	2.5e-05
318.15	0.03983	0	0.000613	2.4e-05
308.15	0.03983	0	0.000737	2.5e-05
288.15	0.03983	0	0.001156	2.5e-05
298.15	0.04953	0	0.000914	2.5e-05
288.15	0.04953	0	0.001162	2.5e-05
308.15	0.04953	0	0.000741	2.5e-05
318.15	0.04953	0	0.000617	2.4e-05

System: 3,7-dihydro-1,3-dimethyl-1H-purine-2,6-dione + sodium chloride + water; phases: Liquid
Fixed: Pressure, kPa = 101.325
Property: Mass density, kg/m3 (Liquid); method: Vibrating tube method
Temperature, K	Molality, mol/kg of 3,7-dihydro-1,3-dimethyl-1H-purine-2,6-dione	Solvent: Molality, mol/kg of sodium chloride	Mass density, kg/m3	uncertainty
288.15	0.00208	0	999.241	8.001
288.15	0.00285	0	999.283	8.001
288.15	0.00378	0	999.333	8.001
288.15	0.00479	0	999.388	8.001
288.15	0.00578	0	999.443	8.001
288.15	0.00699	0	999.509	8.001
288.15	0.00776	0	999.551	8.001
288.15	0.00934	0	999.638	8.001
288.15	0.00986	0	999.667	8.001
298.15	0.00208	0	997.153	8.001
298.15	0.00285	0	997.192	8.001
298.15	0.00378	0	997.239	8.001
298.15	0.00479	0	997.291	8.001
298.15	0.00578	0	997.341	8.001
298.15	0.00699	0	997.404	8.001
298.15	0.00776	0	997.443	8.001
298.15	0.00934	0	997.526	8.001
298.15	0.00986	0	997.554	8.001
308.15	0.00208	0	994.165	8.001
308.15	0.00285	0	994.204	8.001
308.15	0.00378	0	994.25	8.001
308.15	0.00479	0	994.3	8.001
308.15	0.00578	0	994.35	8.001
308.15	0.00699	0	994.41	8.001
308.15	0.00776	0	994.448	8.001
308.15	0.00934	0	994.528	8.001
308.15	0.00986	0	994.554	8.001
318.15	0.00208	0	990.343	8.001
318.15	0.00285	0	990.379	8.001
318.15	0.00378	0	990.423	8.001
318.15	0.00479	0	990.472	8.001
318.15	0.00578	0	990.519	8.001
318.15	0.00699	0	990.578	8.001
318.15	0.00776	0	990.614	8.001
318.15	0.00934	0	990.691	8.001
318.15	0.00986	0	990.716	8.001
288.15	0.00206	0.1	1003.433	8.001
288.15	0.00295	0.1	1003.479	8.001
288.15	0.00426	0.1	1003.546	8.001
288.15	0.00471	0.1	1003.569	8.001
288.15	0.00631	0.1	1003.651	8.001
288.15	0.00691	0.1	1003.682	8.001
288.15	0.00839	0.1	1003.758	8.001
288.15	0.00888	0.1	1003.783	8.001
288.15	0.00998	0.1	1003.841	8.001
298.15	0.00206	0.1	1001.217	8.001
298.15	0.00295	0.1	1001.26	8.001
298.15	0.00426	0.1	1001.323	8.001
298.15	0.00471	0.1	1001.345	8.001
298.15	0.00631	0.1	1001.421	8.001
298.15	0.00691	0.1	1001.451	8.001
298.15	0.00839	0.1	1001.522	8.001
298.15	0.00888	0.1	1001.545	8.001
298.15	0.00998	0.1	1001.599	8.001
308.15	0.00206	0.1	998.14	8.001
308.15	0.00295	0.1	998.18	8.001
308.15	0.00426	0.1	998.24	8.001
308.15	0.00471	0.1	998.261	8.001
308.15	0.00631	0.1	998.334	8.001
308.15	0.00691	0.1	998.361	8.001
308.15	0.00839	0.1	998.429	8.001
308.15	0.00888	0.1	998.452	8.001
308.15	0.00998	0.1	998.502	8.001
318.15	0.00206	0.1	994.264	8.001
318.15	0.00295	0.1	994.302	8.001
318.15	0.00426	0.1	994.359	8.001
318.15	0.00471	0.1	994.379	8.001
318.15	0.00631	0.1	994.448	8.001
318.15	0.00691	0.1	994.475	8.001
318.15	0.00839	0.1	994.539	8.001
318.15	0.00888	0.1	994.561	8.001
318.15	0.00998	0.1	994.61	8.001
288.15	0.00208	0.25	1009.887	8.001
288.15	0.00291	0.25	1009.931	8.001
288.15	0.00422	0.25	1009.999	8.001
288.15	0.00505	0.25	1010.042	8.001
288.15	0.00631	0.25	1010.107	8.001
288.15	0.00671	0.25	1010.113	8.001
288.15	0.00773	0.25	1010.163	8.001
288.15	0.00909	0.25	1010.231	8.001
288.15	0.00979	0.25	1010.266	8.001
298.15	0.00208	0.25	1007.388	8.001
298.15	0.00291	0.25	1007.428	8.001
298.15	0.00422	0.25	1007.491	8.001
298.15	0.00505	0.25	1007.53	8.001
298.15	0.00631	0.25	1007.591	8.001
298.15	0.00671	0.25	1007.61	8.001
298.15	0.00773	0.25	1007.66	8.001
298.15	0.00909	0.25	1007.725	8.001
298.15	0.00979	0.25	1007.76	8.001
308.15	0.00208	0.25	1003.574	8.001
308.15	0.00291	0.25	1003.611	8.001
308.15	0.00422	0.25	1003.67	8.001
308.15	0.00505	0.25	1003.708	8.001
308.15	0.00631	0.25	1003.765	8.001
308.15	0.00671	0.25	1003.783	8.001
308.15	0.00773	0.25	1003.829	8.001
308.15	0.00909	0.25	1003.891	8.001
308.15	0.00979	0.25	1003.922	8.001
318.15	0.00208	0.25	999.965	8.001
318.15	0.00291	0.25	1000.001	8.001
318.15	0.00422	0.25	1000.057	8.001
318.15	0.00505	0.25	1000.093	8.001
318.15	0.00631	0.25	1000.148	8.001
318.15	0.00671	0.25	1000.166	8.001
318.15	0.00773	0.25	1000.211	8.001
318.15	0.00909	0.25	1000.271	8.001
318.15	0.00979	0.25	1000.301	8.001
288.15	0.002	0.5	1019.842	8.001
288.15	0.00301	0.5	1019.894	8.001
288.15	0.00397	0.5	1019.944	8.001
288.15	0.00501	0.5	1019.998	8.001
288.15	0.00595	0.5	1020.047	8.001
288.15	0.00682	0.5	1020.093	8.001
288.15	0.00781	0.5	1020.145	8.001
288.15	0.00846	0.5	1020.179	8.001
288.15	0.00982	0.5	1020.251	8.001
298.15	0.002	0.5	1017.235	8.001
298.15	0.00301	0.5	1017.283	8.001
298.15	0.00397	0.5	1017.328	8.001
298.15	0.00501	0.5	1017.378	8.001
298.15	0.00595	0.5	1017.422	8.001
298.15	0.00682	0.5	1017.464	8.001
298.15	0.00781	0.5	1017.511	8.001
298.15	0.00846	0.5	1017.542	8.001
298.15	0.00982	0.5	1017.607	8.001
308.15	0.002	0.5	1013.901	8.001
308.15	0.00301	0.5	1013.946	8.001
308.15	0.00397	0.5	1013.99	8.001
308.15	0.00501	0.5	1014.038	8.001
308.15	0.00595	0.5	1014.081	8.001
308.15	0.00682	0.5	1014.121	8.001
308.15	0.00781	0.5	1014.166	8.001
308.15	0.00846	0.5	1014.196	8.001
308.15	0.00982	0.5	1014.258	8.001
318.15	0.002	0.5	1009.867	8.001
318.15	0.00301	0.5	1009.91	8.001
318.15	0.00397	0.5	1009.952	8.001
318.15	0.00501	0.5	1009.998	8.001
318.15	0.00595	0.5	1010.039	8.001
318.15	0.00682	0.5	1010.077	8.001
318.15	0.00781	0.5	1010.12	8.001
318.15	0.00846	0.5	1010.149	8.001
318.15	0.00982	0.5	1010.21	8.001
288.15	0.00229	0.75	1029.569	8.001
288.15	0.00313	0.75	1029.614	8.001
288.15	0.00421	0.75	1029.67	8.001
288.15	0.00485	0.75	1029.704	8.001
288.15	0.00576	0.75	1029.752	8.001
288.15	0.00695	0.75	1029.815	8.001
288.15	0.00755	0.75	1029.846	8.001
288.15	0.00902	0.75	1029.925	8.001
288.15	0.01006	0.75	1029.981	8.001
298.15	0.00229	0.75	1026.23	8.001
298.15	0.00313	0.75	1026.271	8.001
298.15	0.00421	0.75	1026.323	8.001
298.15	0.00485	0.75	1026.354	8.001
298.15	0.00576	0.75	1026.398	8.001
298.15	0.00695	0.75	1026.456	8.001
298.15	0.00755	0.75	1026.485	8.001
298.15	0.00902	0.75	1026.557	8.001
298.15	0.01006	0.75	1026.608	8.001
308.15	0.00229	0.75	1023.225	8.001
308.15	0.00313	0.75	1023.264	8.001
308.15	0.00421	0.75	1023.314	8.001
308.15	0.00485	0.75	1023.343	8.001
308.15	0.00576	0.75	1023.385	8.001
308.15	0.00695	0.75	1023.44	8.001
308.15	0.00755	0.75	1023.468	8.001
308.15	0.00902	0.75	1023.536	8.001
308.15	0.01006	0.75	1023.585	8.001
318.15	0.00229	0.75	1019.04	8.001
318.15	0.00313	0.75	1019.077	8.001
318.15	0.00421	0.75	1019.124	8.001
318.15	0.00485	0.75	1019.152	8.001
318.15	0.00576	0.75	1019.192	8.001
318.15	0.00695	0.75	1019.245	8.001
318.15	0.00755	0.75	1019.271	8.001
318.15	0.00902	0.75	1019.337	8.001
318.15	0.01006	0.75	1019.383	8.001
288.15	0.00216	1	1039.27	8.001
288.15	0.00288	1	1039.309	8.001
288.15	0.00413	1	1039.375	8.001
288.15	0.0048	1	1039.41	8.001
288.15	0.00566	1	1039.456	8.001
288.15	0.00691	1	1039.522	8.001
288.15	0.00767	1	1039.563	8.001
288.15	0.00865	1	1039.615	8.001
288.15	0.00977	1	1039.675	8.001
298.15	0.00216	1	1036.285	8.001
298.15	0.00288	1	1036.321	8.001
298.15	0.00413	1	1036.382	8.001
298.15	0.0048	1	1036.414	8.001
298.15	0.00566	1	1036.457	8.001
298.15	0.00691	1	1036.518	8.001
298.15	0.00767	1	1036.556	8.001
298.15	0.00865	1	1036.604	8.001
298.15	0.00977	1	1036.659	8.001
308.15	0.00216	1	1032.571	8.001
308.15	0.00288	1	1032.606	8.001
308.15	0.00413	1	1032.665	8.001
308.15	0.0048	1	1032.696	8.001
308.15	0.00566	1	1032.737	8.001
308.15	0.00691	1	1032.796	8.001
308.15	0.00767	1	1032.832	8.001
308.15	0.00865	1	1032.879	8.001
308.15	0.00977	1	1032.933	8.001
318.15	0.00216	1	1028.407	8.001
318.15	0.00288	1	1028.439	8.001
318.15	0.00413	1	1028.496	8.001
318.15	0.0048	1	1028.526	8.001
318.15	0.00566	1	1028.565	8.001
318.15	0.00691	1	1028.621	8.001
318.15	0.00767	1	1028.656	8.001
318.15	0.00865	1	1028.701	8.001
318.15	0.00977	1	1028.753	8.001

System: 3,7-dihydro-1,3-dimethyl-1H-purine-2,6-dione + sodium chloride + water; phases: Liquid
Fixed: Pressure, kPa = 101.325
Property: Viscosity, Pa*s (Liquid); method: Capillary tube (Ostwald; Ubbelohde) method
Temperature, K	Molality, mol/kg of 3,7-dihydro-1,3-dimethyl-1H-purine-2,6-dione	Solvent: Molality, mol/kg of sodium chloride	Viscosity, Pa*s	uncertainty
288.15	0.00213	0	0.001139	2.5e-05
288.15	0.00284	0	0.001139	2.5e-05
288.15	0.00394	0	0.00114	2.5e-05
288.15	0.00519	0	0.00114	2.5e-05
288.15	0.00617	0	0.001141	2.5e-05
288.15	0.00689	0	0.001141	2.5e-05
288.15	0.00819	0	0.001142	2.5e-05
288.15	0.00921	0	0.001142	2.5e-05
298.15	0.00213	0	0.000891	2.5e-05
298.15	0.00284	0	0.000892	2.5e-05
298.15	0.00394	0	0.000892	2.5e-05
298.15	0.00519	0	0.000892	2.5e-05
298.15	0.00617	0	0.000893	2.5e-05
298.15	0.00689	0	0.000893	2.5e-05
298.15	0.00819	0	0.000894	2.5e-05
298.15	0.00921	0	0.000895	2.5e-05
308.15	0.00213	0	0.000719	2.5e-05
308.15	0.00284	0	0.00072	2.4e-05
308.15	0.00394	0	0.00072	2.4e-05
308.15	0.00519	0	0.000721	2.4e-05
308.15	0.00617	0	0.000722	2.4e-05
308.15	0.00689	0	0.000722	2.4e-05
308.15	0.00819	0	0.000723	2.4e-05
308.15	0.00921	0	0.000723	2.5e-05
318.15	0.00213	0	0.000597	2.4e-05
318.15	0.00284	0	0.000597	2.4e-05
318.15	0.00394	0	0.000598	2.4e-05
318.15	0.00519	0	0.000598	2.4e-05
318.15	0.00617	0	0.000599	2.4e-05
318.15	0.00689	0	0.000599	2.4e-05
318.15	0.00819	0	0.000599	2.4e-05
318.15	0.00921	0	0.0006	2.4e-05
288.15	0.00207	0.1	0.001151	2.5e-05
288.15	0.00296	0.1	0.001151	2.5e-05
288.15	0.00427	0.1	0.001151	2.5e-05
288.15	0.00473	0.1	0.001152	2.5e-05
288.15	0.00632	0.1	0.001153	2.5e-05
288.15	0.00692	0.1	0.001153	2.5e-05
288.15	0.00841	0.1	0.001153	2.5e-05
288.15	0.0089	0.1	0.001154	2.5e-05
298.15	0.00207	0.1	0.000902	2.5e-05
298.15	0.00296	0.1	0.000902	2.5e-05
298.15	0.00427	0.1	0.000902	2.5e-05
298.15	0.00473	0.1	0.000903	2.5e-05
298.15	0.00632	0.1	0.000903	2.5e-05
298.15	0.00692	0.1	0.000903	2.5e-05
298.15	0.00841	0.1	0.000904	2.5e-05
298.15	0.0089	0.1	0.000905	2.5e-05
308.15	0.00207	0.1	0.000728	2.5e-05
308.15	0.00296	0.1	0.000729	2.4e-05
308.15	0.00427	0.1	0.000729	2.5e-05
308.15	0.00473	0.1	0.000729	2.5e-05
308.15	0.00632	0.1	0.00073	2.5e-05
308.15	0.00692	0.1	0.00073	2.5e-05
308.15	0.00841	0.1	0.00073	2.5e-05
308.15	0.0089	0.1	0.000731	2.5e-05
318.15	0.00207	0.1	0.000606	2.4e-05
318.15	0.00296	0.1	0.000606	2.4e-05
318.15	0.00427	0.1	0.000607	2.4e-05
318.15	0.00473	0.1	0.000607	2.4e-05
318.15	0.00632	0.1	0.000607	2.4e-05
318.15	0.00692	0.1	0.000608	2.4e-05
318.15	0.00841	0.1	0.000608	2.4e-05
318.15	0.0089	0.1	0.000608	2.4e-05
288.15	0.00194	0.25	0.00116	2.5e-05
288.15	0.00287	0.25	0.001161	2.5e-05
288.15	0.00408	0.25	0.001161	2.5e-05
288.15	0.00482	0.25	0.001162	2.5e-05
288.15	0.00612	0.25	0.001162	2.5e-05
288.15	0.00673	0.25	0.001163	2.5e-05
288.15	0.0082	0.25	0.001163	2.5e-05
288.15	0.00887	0.25	0.001164	2.5e-05
298.15	0.00194	0.25	0.00091	2.5e-05
298.15	0.00287	0.25	0.000911	2.5e-05
298.15	0.00408	0.25	0.000911	2.5e-05
298.15	0.00482	0.25	0.000912	2.5e-05
298.15	0.00612	0.25	0.000912	2.5e-05
298.15	0.00673	0.25	0.000912	2.5e-05
298.15	0.0082	0.25	0.000913	2.5e-05
298.15	0.00887	0.25	0.000913	2.5e-05
308.15	0.00194	0.25	0.00074	2.5e-05
308.15	0.00287	0.25	0.00074	2.5e-05
308.15	0.00408	0.25	0.000741	2.5e-05
308.15	0.00482	0.25	0.000741	2.5e-05
308.15	0.00612	0.25	0.000742	2.5e-05
308.15	0.00673	0.25	0.000742	2.5e-05
308.15	0.0082	0.25	0.000743	2.5e-05
308.15	0.00887	0.25	0.000743	2.5e-05
318.15	0.00194	0.25	0.00061	2.4e-05
318.15	0.00287	0.25	0.00061	2.4e-05
318.15	0.00408	0.25	0.000611	2.4e-05
318.15	0.00482	0.25	0.000611	2.4e-05
318.15	0.00612	0.25	0.000612	2.4e-05
318.15	0.00673	0.25	0.000612	2.4e-05
318.15	0.0082	0.25	0.000612	2.4e-05
318.15	0.00887	0.25	0.000613	2.4e-05
288.15	0.00204	0.5	0.001178	2.5e-05
288.15	0.00306	0.5	0.001179	2.5e-05
288.15	0.00404	0.5	0.00118	2.5e-05
288.15	0.00511	0.5	0.00118	2.5e-05
288.15	0.0061	0.5	0.00118	2.5e-05
288.15	0.00695	0.5	0.001181	2.5e-05
288.15	0.00795	0.5	0.001181	2.5e-05
288.15	0.00861	0.5	0.001182	2.5e-05
298.15	0.00204	0.5	0.000932	2.5e-05
298.15	0.00306	0.5	0.000932	2.5e-05
298.15	0.00404	0.5	0.000933	2.5e-05
298.15	0.00511	0.5	0.000933	2.5e-05
298.15	0.0061	0.5	0.000934	2.5e-05
298.15	0.00695	0.5	0.000934	2.5e-05
298.15	0.00795	0.5	0.000934	2.5e-05
298.15	0.00861	0.5	0.000934	2.5e-05
308.15	0.00204	0.5	0.000756	2.5e-05
308.15	0.00306	0.5	0.000757	2.5e-05
308.15	0.00404	0.5	0.000757	2.5e-05
308.15	0.00511	0.5	0.000757	2.5e-05
308.15	0.0061	0.5	0.000758	2.5e-05
308.15	0.00695	0.5	0.000758	2.5e-05
308.15	0.00795	0.5	0.000758	2.5e-05
308.15	0.00861	0.5	0.000758	2.5e-05
318.15	0.00204	0.5	0.00063	2.4e-05
318.15	0.00306	0.5	0.00063	2.4e-05
318.15	0.00404	0.5	0.00063	2.4e-05
318.15	0.00511	0.5	0.000631	2.4e-05
318.15	0.0061	0.5	0.000631	2.4e-05
318.15	0.00695	0.5	0.000631	2.4e-05
318.15	0.00795	0.5	0.000632	2.4e-05
318.15	0.00861	0.5	0.000632	2.4e-05
288.15	0.00192	0.75	0.001214	2.5e-05
288.15	0.00295	0.75	0.001215	2.5e-05
288.15	0.00412	0.75	0.001215	2.5e-05
288.15	0.00506	0.75	0.001216	2.5e-05
288.15	0.00626	0.75	0.001216	2.5e-05
288.15	0.00716	0.75	0.001216	2.5e-05
288.15	0.00795	0.75	0.001217	2.5e-05
288.15	0.00894	0.75	0.001217	2.5e-05
298.15	0.00192	0.75	0.000959	2.5e-05
298.15	0.00295	0.75	0.00096	2.5e-05
298.15	0.00412	0.75	0.00096	2.5e-05
298.15	0.00506	0.75	0.00096	2.5e-05
298.15	0.00626	0.75	0.000961	2.5e-05
298.15	0.00716	0.75	0.000961	2.5e-05
298.15	0.00795	0.75	0.000961	2.5e-05
298.15	0.00894	0.75	0.000962	2.5e-05
308.15	0.00192	0.75	0.00078	2.5e-05
308.15	0.00295	0.75	0.000781	2.5e-05
308.15	0.00412	0.75	0.000781	2.5e-05
308.15	0.00506	0.75	0.000781	2.5e-05
308.15	0.00626	0.75	0.000781	2.5e-05
308.15	0.00716	0.75	0.000782	2.5e-05
308.15	0.00795	0.75	0.000782	2.5e-05
308.15	0.00894	0.75	0.000782	2.5e-05
318.15	0.00192	0.75	0.00065	2.4e-05
318.15	0.00295	0.75	0.00065	2.4e-05
318.15	0.00412	0.75	0.000651	2.4e-05
318.15	0.00506	0.75	0.000651	2.4e-05
318.15	0.00626	0.75	0.000652	2.4e-05
318.15	0.00716	0.75	0.000652	2.4e-05
318.15	0.00795	0.75	0.000652	2.4e-05
318.15	0.00894	0.75	0.000652	2.4e-05
288.15	0.00199	1	0.001254	2.5e-05
288.15	0.00313	1	0.001254	2.5e-05
288.15	0.00395	1	0.001254	2.5e-05
288.15	0.00518	1	0.001255	2.5e-05
288.15	0.0061	1	0.001255	2.5e-05
288.15	0.00706	1	0.001255	2.5e-05
288.15	0.00819	1	0.001256	2.5e-05
288.15	0.00951	1	0.001256	2.5e-05
298.15	0.00199	1	0.000991	2.5e-05
298.15	0.00313	1	0.000992	2.5e-05
298.15	0.00395	1	0.000992	2.5e-05
298.15	0.00518	1	0.000992	2.5e-05
298.15	0.0061	1	0.000993	2.5e-05
298.15	0.00706	1	0.000993	2.5e-05
298.15	0.00819	1	0.000993	2.5e-05
298.15	0.00951	1	0.000994	2.5e-05
308.15	0.00199	1	0.000812	2.5e-05
308.15	0.00313	1	0.000812	2.5e-05
308.15	0.00395	1	0.000812	2.5e-05
308.15	0.00518	1	0.000813	2.5e-05
308.15	0.0061	1	0.000813	2.5e-05
308.15	0.00706	1	0.000813	2.5e-05
308.15	0.00819	1	0.000814	2.5e-05
308.15	0.00951	1	0.000814	2.5e-05
318.15	0.00199	1	0.000676	2.4e-05
318.15	0.00313	1	0.000676	2.4e-05
318.15	0.00395	1	0.000677	2.4e-05
318.15	0.00518	1	0.000677	2.4e-05
318.15	0.0061	1	0.000677	2.4e-05
318.15	0.00706	1	0.000678	2.4e-05
318.15	0.00819	1	0.000678	2.4e-05
318.15	0.00951	1	0.000678	2.4e-05

System: 1H-purine-2,6-dione, 3,7-dihydro-3,7-dimethyl- + sodium chloride + water; phases: Liquid
Fixed: Pressure, kPa = 101.325
Property: Mass density, kg/m3 (Liquid); method: Vibrating tube method
Temperature, K	Molality, mol/kg of 1H-purine-2,6-dione, 3,7-dihydro-3,7-dimethyl-	Solvent: Molality, mol/kg of sodium chloride	Mass density, kg/m3	uncertainty
288.15	0.00051	0	999.157	8.034
288.15	0.0007	0	999.167	8.034
288.15	0.0009	0	999.177	8.034
288.15	0.00098	0	999.182	8.034
288.15	0.00123	0	999.195	8.034
288.15	0.00148	0	999.209	8.034
288.15	0.00183	0	999.228	8.034
288.15	0.00213	0	999.244	8.034
298.15	0.00051	0	997.073	8.034
298.15	0.0007	0	997.083	8.034
298.15	0.0009	0	997.093	8.034
298.15	0.00098	0	997.097	8.034
298.15	0.00123	0	997.11	8.034
298.15	0.00148	0	997.123	8.034
298.15	0.00183	0	997.141	8.034
298.15	0.00213	0	997.156	8.034
308.15	0.00051	0	994.088	8.034
308.15	0.0007	0	994.097	8.034
308.15	0.0009	0	994.107	8.034
308.15	0.00098	0	994.111	8.034
308.15	0.00123	0	994.123	8.034
308.15	0.00148	0	994.135	8.034
308.15	0.00183	0	994.152	8.034
308.15	0.00213	0	994.167	8.034
318.15	0.00051	0	990.268	8.033
318.15	0.0007	0	990.277	8.033
318.15	0.0009	0	990.287	8.033
318.15	0.00098	0	990.291	8.033
318.15	0.00123	0	990.303	8.033
318.15	0.00148	0	990.314	8.033
318.15	0.00183	0	990.331	8.033
318.15	0.00213	0	990.346	8.033
288.15	0.00049	0.1	1003.352	8.035
288.15	0.00077	0.1	1003.366	8.035
288.15	0.00089	0.1	1003.372	8.035
288.15	0.00102	0.1	1003.379	8.035
288.15	0.0012	0.1	1003.388	8.035
288.15	0.00146	0.1	1003.4	8.035
288.15	0.00182	0.1	1003.418	8.035
288.15	0.00195	0.1	1003.425	8.035
298.15	0.00049	0.1	1001.142	8.034
298.15	0.00077	0.1	1001.156	8.034
298.15	0.00089	0.1	1001.161	8.034
298.15	0.00102	0.1	1001.167	8.034
298.15	0.0012	0.1	1001.176	8.034
298.15	0.00146	0.1	1001.188	8.034
298.15	0.00182	0.1	1001.204	8.034
298.15	0.00195	0.1	1001.211	8.035
308.15	0.00049	0.1	998.067	8.034
308.15	0.00077	0.1	998.079	8.034
308.15	0.00089	0.1	998.084	8.034
308.15	0.00102	0.1	998.09	8.034
308.15	0.0012	0.1	998.098	8.034
308.15	0.00146	0.1	998.109	8.034
308.15	0.00182	0.1	998.124	8.034
308.15	0.00195	0.1	998.13	8.035
318.15	0.00049	0.1	994.195	8.034
318.15	0.00077	0.1	994.207	8.034
318.15	0.00089	0.1	994.212	8.034
318.15	0.00102	0.1	994.217	8.034
318.15	0.0012	0.1	994.224	8.034
318.15	0.00146	0.1	994.235	8.034
318.15	0.00182	0.1	994.25	8.034
318.15	0.00195	0.1	994.255	8.034
288.15	0.00048	0.25	1009.804	8.036
288.15	0.00074	0.25	1009.817	8.036
288.15	0.00088	0.25	1009.824	8.036
288.15	0.00098	0.25	1009.83	8.036
288.15	0.0012	0.25	1009.841	8.036
288.15	0.00152	0.25	1009.856	8.036
288.15	0.00181	0.25	1009.871	8.036
288.15	0.00206	0.25	1009.884	8.036
298.15	0.00048	0.25	1007.312	8.036
298.15	0.00074	0.25	1007.324	8.035
298.15	0.00088	0.25	1007.33	8.035
298.15	0.00098	0.25	1007.335	8.035
298.15	0.0012	0.25	1007.346	8.035
298.15	0.00152	0.25	1007.361	8.035
298.15	0.00181	0.25	1007.375	8.035
298.15	0.00206	0.25	1007.387	8.036
308.15	0.00048	0.25	1003.501	8.035
308.15	0.00074	0.25	1003.512	8.035
308.15	0.00088	0.25	1003.519	8.035
308.15	0.00098	0.25	1003.523	8.035
308.15	0.0012	0.25	1003.533	8.035
308.15	0.00152	0.25	1003.547	8.035
308.15	0.00181	0.25	1003.56	8.035
308.15	0.00206	0.25	1003.571	8.035
318.15	0.00048	0.25	999.895	8.034
318.15	0.00074	0.25	999.906	8.034
318.15	0.00088	0.25	999.911	8.034
318.15	0.00098	0.25	999.916	8.034
318.15	0.0012	0.25	999.925	8.034
318.15	0.00152	0.25	999.938	8.034
318.15	0.00181	0.25	999.95	8.034
318.15	0.00206	0.25	999.961	8.034
288.15	0.00056	0.5	1019.767	8.037
288.15	0.00075	0.5	1019.776	8.037
288.15	0.00089	0.5	1019.783	8.037
288.15	0.00104	0.5	1019.792	8.037
288.15	0.0012	0.5	1019.8	8.037
288.15	0.00142	0.5	1019.811	8.037
288.15	0.00175	0.5	1019.828	8.037
288.15	0.00191	0.5	1019.836	8.037
298.15	0.00056	0.5	1017.167	8.037
298.15	0.00075	0.5	1017.176	8.037
298.15	0.00089	0.5	1017.183	8.037
298.15	0.00104	0.5	1017.19	8.037
298.15	0.0012	0.5	1017.198	8.037
298.15	0.00142	0.5	1017.209	8.037
298.15	0.00175	0.5	1017.225	8.037
298.15	0.00191	0.5	1017.232	8.037
308.15	0.00056	0.5	1013.835	8.037
308.15	0.00075	0.5	1013.843	8.036
308.15	0.00089	0.5	1013.849	8.036
308.15	0.00104	0.5	1013.856	8.037
308.15	0.0012	0.5	1013.863	8.036
308.15	0.00142	0.5	1013.873	8.036
308.15	0.00175	0.5	1013.888	8.037
308.15	0.00191	0.5	1013.895	8.037
318.15	0.00056	0.5	1009.804	8.036
318.15	0.00075	0.5	1009.811	8.036
318.15	0.00089	0.5	1009.817	8.036
318.15	0.00104	0.5	1009.824	8.036
318.15	0.0012	0.5	1009.83	8.036
318.15	0.00142	0.5	1009.84	8.036
318.15	0.00175	0.5	1009.854	8.036
318.15	0.00191	0.5	1009.86	8.036
288.15	0.00053	0.75	1029.478	8.039
288.15	0.00068	0.75	1029.485	8.039
288.15	0.00088	0.75	1029.496	8.039
288.15	0.00093	0.75	1029.498	8.039
288.15	0.0012	0.75	1029.512	8.039
288.15	0.00155	0.75	1029.53	8.039
288.15	0.00182	0.75	1029.544	8.039
288.15	0.00195	0.75	1029.551	8.039
298.15	0.00053	0.75	1026.146	8.039
298.15	0.00068	0.75	1026.153	8.039
298.15	0.00088	0.75	1026.163	8.039
298.15	0.00093	0.75	1026.165	8.039
298.15	0.0012	0.75	1026.178	8.039
298.15	0.00155	0.75	1026.195	8.039
298.15	0.00182	0.75	1026.208	8.039
298.15	0.00195	0.75	1026.215	8.039
308.15	0.00053	0.75	1023.144	8.039
308.15	0.00068	0.75	1023.15	8.038
308.15	0.00088	0.75	1023.159	8.038
308.15	0.00093	0.75	1023.161	8.038
308.15	0.0012	0.75	1023.174	8.038
308.15	0.00155	0.75	1023.19	8.038
308.15	0.00182	0.75	1023.202	8.038
308.15	0.00195	0.75	1023.207	8.04
318.15	0.00053	0.75	1018.963	8.037
318.15	0.00068	0.75	1018.969	8.037
318.15	0.00088	0.75	1018.978	8.037
318.15	0.00093	0.75	1018.979	8.037
318.15	0.0012	0.75	1018.991	8.037
318.15	0.00155	0.75	1019.006	8.037
318.15	0.00182	0.75	1019.018	8.037
318.15	0.00195	0.75	1019.023	8.037
288.15	0.00041	1	1039.178	8.041
288.15	0.00068	1	1039.192	8.041
288.15	0.00089	1	1039.203	8.041
288.15	0.00098	1	1039.208	8.041
288.15	0.0012	1	1039.219	8.041
288.15	0.00147	1	1039.233	8.041
288.15	0.00174	1	1039.247	8.041
288.15	0.0019	1	1039.255	8.041
298.15	0.00041	1	1036.2	8.041
298.15	0.00068	1	1036.213	8.04
298.15	0.00089	1	1036.223	8.04
298.15	0.00098	1	1036.228	8.04
298.15	0.0012	1	1036.238	8.04
298.15	0.00147	1	1036.252	8.04
298.15	0.00174	1	1036.265	8.04
298.15	0.0019	1	1036.272	8.041
308.15	0.00041	1	1032.488	8.04
308.15	0.00068	1	1032.5	8.04
308.15	0.00089	1	1032.51	8.04
308.15	0.00098	1	1032.514	8.04
308.15	0.0012	1	1032.524	8.04
308.15	0.00147	1	1032.536	8.04
308.15	0.00174	1	1032.548	8.04
308.15	0.0019	1	1032.555	8.04
318.15	0.00041	1	1028.328	8.039
318.15	0.00068	1	1028.339	8.039
318.15	0.00089	1	1028.348	8.039
318.15	0.00098	1	1028.352	8.039
318.15	0.0012	1	1028.362	8.039
318.15	0.00147	1	1028.374	8.039
318.15	0.00174	1	1028.385	8.039
318.15	0.0019	1	1028.392	8.039

System: 1H-purine-2,6-dione, 3,7-dihydro-3,7-dimethyl- + sodium chloride + water; phases: Liquid
Fixed: Pressure, kPa = 101.325
Property: Viscosity, Pa*s (Liquid); method: Capillary tube (Ostwald; Ubbelohde) method
Temperature, K	Molality, mol/kg of 1H-purine-2,6-dione, 3,7-dihydro-3,7-dimethyl-	Solvent: Molality, mol/kg of sodium chloride	Viscosity, Pa*s	uncertainty
288.15	0.00051	0	0.001138	2.7e-05
288.15	0.0007	0	0.001139	2.7e-05
288.15	0.0009	0	0.001139	2.7e-05
288.15	0.00098	0	0.001139	2.7e-05
288.15	0.00123	0	0.001139	2.7e-05
288.15	0.00147	0	0.001139	2.7e-05
288.15	0.00182	0	0.001139	2.7e-05
288.15	0.00212	0	0.001139	2.7e-05
298.15	0.00051	0	0.000891	2.7e-05
298.15	0.0007	0	0.000891	2.6e-05
298.15	0.0009	0	0.000891	2.6e-05
298.15	0.00098	0	0.000891	2.6e-05
298.15	0.00123	0	0.000891	2.6e-05
298.15	0.00147	0	0.000891	2.6e-05
298.15	0.00182	0	0.000891	2.6e-05
298.15	0.00212	0	0.000891	2.6e-05
308.15	0.00051	0	0.00072	2.6e-05
308.15	0.0007	0	0.00072	2.5e-05
308.15	0.0009	0	0.00072	2.5e-05
308.15	0.00098	0	0.00072	2.5e-05
308.15	0.00123	0	0.00072	2.5e-05
308.15	0.00147	0	0.00072	2.5e-05
308.15	0.00182	0	0.00072	2.5e-05
308.15	0.00212	0	0.00072	2.6e-05
318.15	0.00051	0	0.000597	2.5e-05
318.15	0.0007	0	0.000597	2.5e-05
318.15	0.0009	0	0.000597	2.5e-05
318.15	0.00098	0	0.000597	2.5e-05
318.15	0.00123	0	0.000597	2.5e-05
318.15	0.00147	0	0.000597	2.5e-05
318.15	0.00182	0	0.000597	2.5e-05
318.15	0.00212	0	0.000597	2.5e-05
288.15	0.00051	0.1	0.00115	2.7e-05
288.15	0.00066	0.1	0.00115	2.7e-05
288.15	0.00086	0.1	0.00115	2.7e-05
288.15	0.00099	0.1	0.00115	2.7e-05
288.15	0.00123	0.1	0.001151	2.7e-05
288.15	0.00149	0.1	0.001151	2.7e-05
288.15	0.00175	0.1	0.001151	2.7e-05
288.15	0.00213	0.1	0.001151	2.7e-05
298.15	0.00051	0.1	0.000901	2.7e-05
298.15	0.00066	0.1	0.000901	2.6e-05
298.15	0.00086	0.1	0.000901	2.6e-05
298.15	0.00099	0.1	0.000901	2.6e-05
298.15	0.00123	0.1	0.000901	2.6e-05
298.15	0.00149	0.1	0.000902	2.6e-05
298.15	0.00175	0.1	0.000902	2.6e-05
298.15	0.00213	0.1	0.000902	2.6e-05
308.15	0.00051	0.1	0.000728	2.6e-05
308.15	0.00066	0.1	0.000728	2.5e-05
308.15	0.00086	0.1	0.000728	2.5e-05
308.15	0.00099	0.1	0.000728	2.5e-05
308.15	0.00123	0.1	0.000728	2.5e-05
308.15	0.00149	0.1	0.000728	2.5e-05
308.15	0.00175	0.1	0.000729	2.5e-05
308.15	0.00213	0.1	0.000729	2.5e-05
318.15	0.00051	0.1	0.000606	2.5e-05
318.15	0.00066	0.1	0.000606	2.5e-05
318.15	0.00086	0.1	0.000606	2.5e-05
318.15	0.00099	0.1	0.000606	2.5e-05
318.15	0.00123	0.1	0.000606	2.5e-05
318.15	0.00149	0.1	0.000606	2.5e-05
318.15	0.00175	0.1	0.000606	2.5e-05
318.15	0.00213	0.1	0.000606	2.5e-05
288.15	0.00054	0.25	0.00116	2.7e-05
288.15	0.00071	0.25	0.00116	2.7e-05
288.15	0.00085	0.25	0.00116	2.7e-05
288.15	0.00094	0.25	0.00116	2.7e-05
288.15	0.00112	0.25	0.001161	2.7e-05
288.15	0.00151	0.25	0.001161	2.7e-05
288.15	0.00197	0.25	0.001161	2.7e-05
288.15	0.00211	0.25	0.001161	2.7e-05
298.15	0.00054	0.25	0.00091	2.6e-05
298.15	0.00071	0.25	0.00091	2.6e-05
298.15	0.00085	0.25	0.00091	2.6e-05
298.15	0.00094	0.25	0.00091	2.6e-05
298.15	0.00112	0.25	0.00091	2.6e-05
298.15	0.00151	0.25	0.000911	2.6e-05
298.15	0.00197	0.25	0.000911	2.6e-05
298.15	0.00211	0.25	0.000911	2.7e-05
308.15	0.00054	0.25	0.00074	2.6e-05
308.15	0.00071	0.25	0.00074	2.5e-05
308.15	0.00085	0.25	0.00074	2.5e-05
308.15	0.00094	0.25	0.00074	2.5e-05
308.15	0.00112	0.25	0.00074	2.5e-05
308.15	0.00151	0.25	0.00074	2.5e-05
308.15	0.00197	0.25	0.000741	2.5e-05
308.15	0.00211	0.25	0.000741	2.6e-05
318.15	0.00054	0.25	0.00061	2.5e-05
318.15	0.00071	0.25	0.00061	2.5e-05
318.15	0.00085	0.25	0.00061	2.5e-05
318.15	0.00094	0.25	0.00061	2.5e-05
318.15	0.00112	0.25	0.00061	2.5e-05
318.15	0.00151	0.25	0.00061	2.5e-05
318.15	0.00197	0.25	0.000611	2.5e-05
318.15	0.00211	0.25	0.000611	2.5e-05
288.15	0.00053	0.5	0.001179	2.7e-05
288.15	0.00074	0.5	0.001179	2.7e-05
288.15	0.00092	0.5	0.001179	2.7e-05
288.15	0.00106	0.5	0.001179	2.7e-05
288.15	0.00124	0.5	0.001179	2.7e-05
288.15	0.00155	0.5	0.001179	2.7e-05
288.15	0.00175	0.5	0.001179	2.7e-05
288.15	0.00193	0.5	0.001179	2.8e-05
298.15	0.00053	0.5	0.000932	2.7e-05
298.15	0.00074	0.5	0.000932	2.6e-05
298.15	0.00092	0.5	0.000932	2.6e-05
298.15	0.00106	0.5	0.000932	2.6e-05
298.15	0.00124	0.5	0.000932	2.6e-05
298.15	0.00155	0.5	0.000932	2.6e-05
298.15	0.00175	0.5	0.000932	2.6e-05
298.15	0.00193	0.5	0.000932	2.6e-05
308.15	0.00053	0.5	0.000756	2.6e-05
308.15	0.00074	0.5	0.000756	2.6e-05
308.15	0.00092	0.5	0.000756	2.6e-05
308.15	0.00106	0.5	0.000756	2.6e-05
308.15	0.00124	0.5	0.000756	2.6e-05
308.15	0.00155	0.5	0.000757	2.6e-05
308.15	0.00175	0.5	0.000757	2.6e-05
308.15	0.00193	0.5	0.000757	2.6e-05
318.15	0.00053	0.5	0.00063	2.5e-05
318.15	0.00074	0.5	0.00063	2.5e-05
318.15	0.00092	0.5	0.00063	2.5e-05
318.15	0.00106	0.5	0.00063	2.5e-05
318.15	0.00124	0.5	0.00063	2.5e-05
318.15	0.00155	0.5	0.00063	2.5e-05
318.15	0.00175	0.5	0.00063	2.5e-05
318.15	0.00193	0.5	0.00063	2.5e-05
288.15	0.00055	0.75	0.001214	2.8e-05
288.15	0.0007	0.75	0.001214	2.8e-05
288.15	0.00091	0.75	0.001214	2.8e-05
288.15	0.00095	0.75	0.001214	2.8e-05
288.15	0.0012	0.75	0.001214	2.8e-05
288.15	0.0016	0.75	0.001214	2.8e-05
288.15	0.00178	0.75	0.001215	2.8e-05
288.15	0.00201	0.75	0.001215	2.8e-05
298.15	0.00055	0.75	0.000959	2.8e-05
298.15	0.0007	0.75	0.000959	2.6e-05
298.15	0.00091	0.75	0.000959	2.6e-05
298.15	0.00095	0.75	0.000959	2.6e-05
298.15	0.0012	0.75	0.000959	2.6e-05
298.15	0.0016	0.75	0.000959	2.6e-05
298.15	0.00178	0.75	0.00096	2.6e-05
298.15	0.00201	0.75	0.00096	2.7e-05
308.15	0.00055	0.75	0.00078	2.6e-05
308.15	0.0007	0.75	0.00078	2.6e-05
308.15	0.00091	0.75	0.00078	2.6e-05
308.15	0.00095	0.75	0.00078	2.6e-05
308.15	0.0012	0.75	0.00078	2.6e-05
308.15	0.0016	0.75	0.00078	2.6e-05
308.15	0.00178	0.75	0.00078	2.6e-05
308.15	0.00201	0.75	0.000781	2.6e-05
318.15	0.00055	0.75	0.00065	2.5e-05
318.15	0.0007	0.75	0.00065	2.5e-05
318.15	0.00091	0.75	0.00065	2.5e-05
318.15	0.00095	0.75	0.00065	2.5e-05
318.15	0.0012	0.75	0.00065	2.5e-05
318.15	0.0016	0.75	0.00065	2.5e-05
318.15	0.00178	0.75	0.00065	2.5e-05
318.15	0.00201	0.75	0.00065	2.5e-05
288.15	0.00043	1	0.001254	2.8e-05
288.15	0.00071	1	0.001254	2.8e-05
288.15	0.00092	1	0.001254	2.8e-05
288.15	0.00102	1	0.001254	2.8e-05
288.15	0.00123	1	0.001254	2.8e-05
288.15	0.00153	1	0.001254	2.8e-05
288.15	0.00179	1	0.001254	2.8e-05
288.15	0.00197	1	0.001254	2.8e-05
298.15	0.00043	1	0.000991	2.7e-05
298.15	0.00071	1	0.000991	2.7e-05
298.15	0.00092	1	0.000991	2.7e-05
298.15	0.00102	1	0.000991	2.7e-05
298.15	0.00123	1	0.000991	2.7e-05
298.15	0.00153	1	0.000991	2.7e-05
298.15	0.00179	1	0.000992	2.7e-05
298.15	0.00197	1	0.000992	2.8e-05
308.15	0.00043	1	0.000812	2.6e-05
308.15	0.00071	1	0.000812	2.6e-05
308.15	0.00092	1	0.000812	2.6e-05
308.15	0.00102	1	0.000812	2.6e-05
308.15	0.00123	1	0.000812	2.6e-05
308.15	0.00153	1	0.000812	2.6e-05
308.15	0.00179	1	0.000812	2.6e-05
308.15	0.00197	1	0.000812	2.6e-05
318.15	0.00043	1	0.000676	2.5e-05
318.15	0.00071	1	0.000676	2.5e-05
318.15	0.00092	1	0.000676	2.5e-05
318.15	0.00102	1	0.000676	2.5e-05
318.15	0.00123	1	0.000676	2.5e-05
318.15	0.00153	1	0.000676	2.5e-05
318.15	0.00179	1	0.000676	2.5e-05
318.15	0.00197	1	0.000676	2.5e-05

System: caffeine + water; phases: Liquid
Fixed: Pressure, kPa = 101.325
Property: Mass density, kg/m3 (Liquid); method: Vibrating tube method
Temperature, K	Molality, mol/kg of caffeine	Mass density, kg/m3	uncertainty
288.15	0.0051	999.404	8
288.15	0.00695	999.505	8
288.15	0.00902	999.619	8
288.15	0.01993	1000.215	8
288.15	0.02992	1000.769	8
288.15	0.03531	1001.071	8
288.15	0.04008	1001.338	8
288.15	0.04992	1001.886	8
298.15	0.0051	997.304	8
298.15	0.00695	997.399	8
298.15	0.00902	997.504	8
298.15	0.01993	998.06	8
298.15	0.02992	998.576	8
298.15	0.03531	998.853	8
298.15	0.04008	999.101	8
298.15	0.04992	999.619	8
308.15	0.0051	994.303	8
308.15	0.00695	994.39	8
308.15	0.00902	994.488	8
308.15	0.01993	995.013	8
308.15	0.02992	995.497	8
308.15	0.03531	995.759	8
308.15	0.04008	996.001	8
308.15	0.04992	996.484	8
318.15	0.0051	990.464	8
318.15	0.00695	990.545	8
318.15	0.00902	990.637	8
318.15	0.01993	991.121	8
318.15	0.02992	991.571	8
318.15	0.03531	991.812	8
318.15	0.04008	992.025	8
318.15	0.04992	992.483	8

System: caffeine + water; phases: Liquid
Fixed: Pressure, kPa = 101.325
Property: Viscosity, Pa*s (Liquid); method: Capillary tube (Ostwald; Ubbelohde) method
Temperature, K	Molality, mol/kg of caffeine	Viscosity, Pa*s	uncertainty
288.15	0.00508	0.00114	2.5e-05
288.15	0.00693	0.001142	2.5e-05
288.15	0.009	0.001144	2.5e-05
288.15	0.01986	0.001147	2.5e-05
288.15	0.02978	0.001152	2.5e-05
288.15	0.03533	0.001154	2.5e-05
288.15	0.03983	0.001156	2.5e-05
288.15	0.04953	0.001162	2.5e-05
298.15	0.00508	0.000895	2.5e-05
298.15	0.00693	0.000896	2.5e-05
298.15	0.009	0.000896	2.5e-05
298.15	0.01986	0.0009	2.5e-05
298.15	0.02978	0.000905	2.5e-05
298.15	0.03533	0.000907	2.5e-05
298.15	0.03983	0.00091	2.5e-05
298.15	0.04953	0.000914	2.5e-05
308.15	0.00508	0.000723	2.4e-05
308.15	0.00693	0.000724	2.4e-05
308.15	0.009	0.000724	2.4e-05
308.15	0.01986	0.000728	2.4e-05
308.15	0.02978	0.000732	2.4e-05
308.15	0.03533	0.000735	2.4e-05
308.15	0.03983	0.000737	2.4e-05
308.15	0.04953	0.000741	2.4e-05
318.15	0.00508	0.000599	2.4e-05
318.15	0.00693	0.0006	2.4e-05
318.15	0.009	0.000601	2.4e-05
318.15	0.01986	0.000606	2.4e-05
318.15	0.02978	0.000609	2.4e-05
318.15	0.03533	0.000611	2.4e-05
318.15	0.03983	0.000613	2.4e-05
318.15	0.04953	0.000617	2.4e-05

System: sodium chloride + water; phases: Liquid
Fixed: Pressure, kPa = 101.325
Property: Mass density, kg/m3 (Liquid); method: Vibrating tube method
Temperature, K	Molality, mol/kg of sodium chloride	Mass density, kg/m3	uncertainty
288.15	0.1	1003.328	8
298.15	0.1	1001.12	8
308.15	0.1	998.046	8
318.15	0.1	994.175	8
288.15	0.25	1009.78	8
298.15	0.25	1007.289	8
308.15	0.25	1003.48	8
318.15	0.25	999.875	8
288.15	0.5	1019.738	8
298.15	0.5	1017.14	8
308.15	0.5	1013.81	8
318.15	0.5	1009.78	8
288.15	0.75	1029.45	8
298.15	0.75	1026.12	8
308.15	0.75	1023.12	8
318.15	0.75	1018.94	8
288.15	1	1039.16	8
298.15	1	1036.18	8
308.15	1	1032.47	8
318.15	1	1028.31	8

System: sodium chloride + water; phases: Liquid
Fixed: Pressure, kPa = 101.325
Property: Viscosity, Pa*s (Liquid); method: Capillary tube (Ostwald; Ubbelohde) method
Temperature, K	Molality, mol/kg of sodium chloride	Viscosity, Pa*s	uncertainty
288.15	0.1	0.00115	2.5e-05
298.15	0.1	0.000901	2.5e-05
308.15	0.1	0.000728	2.4e-05
318.15	0.1	0.000605	2.4e-05
288.15	0.25	0.00116	2.5e-05
298.15	0.25	0.00091	2.5e-05
308.15	0.25	0.00074	2.4e-05
318.15	0.25	0.00061	2.4e-05
288.15	0.5	0.001178	2.5e-05
298.15	0.5	0.000932	2.5e-05
308.15	0.5	0.000756	2.4e-05
318.15	0.5	0.00063	2.4e-05
288.15	0.75	0.001214	2.5e-05
298.15	0.75	0.000959	2.5e-05
308.15	0.75	0.00078	2.4e-05
318.15	0.75	0.00065	2.4e-05
288.15	1	0.001254	2.5e-05
298.15	1	0.000991	2.5e-05
308.15	1	0.000812	2.4e-05
318.15	1	0.000676	2.4e-05

System: 3,7-dihydro-1,3-dimethyl-1H-purine-2,6-dione + water; phases: Liquid
Fixed: Pressure, kPa = 101.325
Property: Mass density, kg/m3 (Liquid); method: Vibrating tube method
Temperature, K	Molality, mol/kg of 3,7-dihydro-1,3-dimethyl-1H-purine-2,6-dione	Mass density, kg/m3	uncertainty
288.15	0.00208	999.241	8
288.15	0.00285	999.283	8
288.15	0.00378	999.333	8
288.15	0.00479	999.388	8
288.15	0.00578	999.443	8
288.15	0.00699	999.509	8
288.15	0.00776	999.551	8
288.15	0.00934	999.638	8
288.15	0.00986	999.667	8
298.15	0.00208	997.153	8
298.15	0.00285	997.192	8
298.15	0.00378	997.239	8
298.15	0.00479	997.291	8
298.15	0.00578	997.341	8
298.15	0.00699	997.404	8
298.15	0.00776	997.443	8
298.15	0.00934	997.526	8
298.15	0.00986	997.554	8
308.15	0.00208	994.165	8
308.15	0.00285	994.204	8
308.15	0.00378	994.25	8
308.15	0.00479	994.3	8
308.15	0.00578	994.35	8
308.15	0.00699	994.41	8
308.15	0.00776	994.448	8
308.15	0.00934	994.528	8
308.15	0.00986	994.554	8
318.15	0.00208	990.343	8
318.15	0.00285	990.379	8
318.15	0.00378	990.423	8
318.15	0.00479	990.472	8
318.15	0.00578	990.519	8
318.15	0.00699	990.578	8
318.15	0.00776	990.614	8
318.15	0.00934	990.691	8
318.15	0.00986	990.716	8

System: 3,7-dihydro-1,3-dimethyl-1H-purine-2,6-dione + water; phases: Liquid
Fixed: Pressure, kPa = 101.325
Property: Viscosity, Pa*s (Liquid); method: Capillary tube (Ostwald; Ubbelohde) method
Temperature, K	Molality, mol/kg of 3,7-dihydro-1,3-dimethyl-1H-purine-2,6-dione	Viscosity, Pa*s	uncertainty
288.15	0.00213	0.001139	2.5e-05
288.15	0.00284	0.001139	2.5e-05
288.15	0.00394	0.00114	2.5e-05
288.15	0.00519	0.00114	2.5e-05
288.15	0.00617	0.001141	2.5e-05
288.15	0.00689	0.001141	2.5e-05
288.15	0.00819	0.001142	2.5e-05
288.15	0.00921	0.001142	2.5e-05
298.15	0.00213	0.000891	2.5e-05
298.15	0.00284	0.000892	2.5e-05
298.15	0.00394	0.000892	2.5e-05
298.15	0.00519	0.000892	2.5e-05
298.15	0.00617	0.000893	2.5e-05
298.15	0.00689	0.000893	2.5e-05
298.15	0.00819	0.000894	2.5e-05
298.15	0.00921	0.000895	2.5e-05
308.15	0.00213	0.000719	2.4e-05
308.15	0.00284	0.00072	2.4e-05
308.15	0.00394	0.00072	2.4e-05
308.15	0.00519	0.000721	2.4e-05
308.15	0.00617	0.000722	2.4e-05
308.15	0.00689	0.000722	2.4e-05
308.15	0.00819	0.000723	2.4e-05
308.15	0.00921	0.000723	2.4e-05
318.15	0.00213	0.000597	2.4e-05
318.15	0.00284	0.000597	2.4e-05
318.15	0.00394	0.000598	2.4e-05
318.15	0.00519	0.000598	2.4e-05
318.15	0.00617	0.000599	2.4e-05
318.15	0.00689	0.000599	2.4e-05
318.15	0.00819	0.000599	2.4e-05
318.15	0.00921	0.0006	2.4e-05

System: 1H-purine-2,6-dione, 3,7-dihydro-3,7-dimethyl- + water; phases: Liquid
Fixed: Pressure, kPa = 101.325
Property: Mass density, kg/m3 (Liquid); method: Vibrating tube method
Temperature, K	Molality, mol/kg of 1H-purine-2,6-dione, 3,7-dihydro-3,7-dimethyl-	Mass density, kg/m3	uncertainty
288.15	0.00051	999.157	8
288.15	0.0007	999.167	8
288.15	0.0009	999.177	8
288.15	0.00098	999.182	8
288.15	0.00123	999.195	8
288.15	0.00148	999.209	8
288.15	0.00183	999.228	8
288.15	0.00213	999.244	8
298.15	0.00051	997.073	8.001
298.15	0.0007	997.083	8
298.15	0.0009	997.093	8
298.15	0.00098	997.097	8
298.15	0.00123	997.11	8
298.15	0.00148	997.123	8
298.15	0.00183	997.141	8
298.15	0.00213	997.156	8
308.15	0.00051	994.088	8.001
308.15	0.0007	994.097	8
308.15	0.0009	994.107	8
308.15	0.00098	994.111	8
308.15	0.00123	994.123	8
308.15	0.00148	994.135	8
308.15	0.00183	994.152	8
308.15	0.00213	994.167	8
318.15	0.00051	990.268	8
318.15	0.0007	990.277	8
318.15	0.0009	990.287	8
318.15	0.00098	990.291	8
318.15	0.00123	990.303	8
318.15	0.00148	990.314	8
318.15	0.00183	990.331	8
318.15	0.00213	990.346	8

System: 1H-purine-2,6-dione, 3,7-dihydro-3,7-dimethyl- + water; phases: Liquid
Fixed: Pressure, kPa = 101.325
Property: Viscosity, Pa*s (Liquid); method: Capillary tube (Ostwald; Ubbelohde) method
Temperature, K	Molality, mol/kg of 1H-purine-2,6-dione, 3,7-dihydro-3,7-dimethyl-	Viscosity, Pa*s	uncertainty
288.15	0.00051	0.001138	2.5e-05
288.15	0.0007	0.001139	2.5e-05
288.15	0.0009	0.001139	2.5e-05
288.15	0.00098	0.001139	2.5e-05
288.15	0.00123	0.001139	2.5e-05
288.15	0.00147	0.001139	2.5e-05
288.15	0.00182	0.001139	2.5e-05
288.15	0.00212	0.001139	2.5e-05
298.15	0.00051	0.000891	2.6e-05
298.15	0.0007	0.000891	2.5e-05
298.15	0.0009	0.000891	2.5e-05
298.15	0.00098	0.000891	2.5e-05
298.15	0.00123	0.000891	2.5e-05
298.15	0.00147	0.000891	2.5e-05
298.15	0.00182	0.000891	2.5e-05
298.15	0.00212	0.000891	2.5e-05
308.15	0.00051	0.00072	2.5e-05
308.15	0.0007	0.00072	2.4e-05
308.15	0.0009	0.00072	2.4e-05
308.15	0.00098	0.00072	2.4e-05
308.15	0.00123	0.00072	2.4e-05
308.15	0.00147	0.00072	2.4e-05
308.15	0.00182	0.00072	2.4e-05
308.15	0.00212	0.00072	2.5e-05
318.15	0.00051	0.000597	2.4e-05
318.15	0.0007	0.000597	2.4e-05
318.15	0.0009	0.000597	2.4e-05
318.15	0.00098	0.000597	2.4e-05
318.15	0.00123	0.000597	2.4e-05
318.15	0.00147	0.000597	2.4e-05
318.15	0.00182	0.000597	2.4e-05
318.15	0.00212	0.000597	2.4e-05
