Measured thermophysical data. Effect of Cosolvents on the Solubility of Lenalidomide and Thermodynamic Model Correlation of Data
Source: J. Chem. Eng. Data, 2019, 10.1021/acs.jced.9b00331
Compound 1: lenalidomide, C13H13N3O3, InChI=1S/C13H13N3O3/c14-9-3-1-2-7-8(9)6-16(13(7)19)10-4-5-11(17)15-12(10)18/h1-3,10H,4-6,14H2,(H,15,17,18), purity 99.6%
Compound 2: methanol, CH4O, InChI=1S/CH4O/c1-2/h2H,1H3, purity 99.6%
Compound 3: propan-2-ol, C3H8O, InChI=1S/C3H8O/c1-3(2)4/h3-4H,1-2H3, purity 99.5%
Compound 4: acetonitrile, C2H3N, InChI=1S/C2H3N/c1-2-3/h1H3, purity 99.6%
Compound 5: ethyl acetate, C4H8O2, InChI=1S/C4H8O2/c1-3-6-4(2)5/h3H2,1-2H3, purity 99.5%

System: lenalidomide + acetonitrile + methanol; phases: Liquid, Crystal
Fixed: Pressure, kPa = 101.3
Property: Mole fraction of lenalidomide (Liquid); method: Chromatography
Temperature, K	Solvent: Mass fraction of acetonitrile	Mole fraction of lenalidomide	uncertainty
273.15	0	0.00019	1.6e-05
278.15	0	0.000204	1.8e-05
283.15	0	0.00022	1.9e-05
288.15	0	0.000237	2e-05
293.15	0	0.000256	2.2e-05
298.15	0	0.000276	2.4e-05
303.15	0	0.000301	2.6e-05
308.15	0	0.000326	2.8e-05
313.15	0	0.000351	3e-05
318.15	0	0.000383	3.3e-05
273.15	0.6	0.001105	9.5e-05
278.15	0.6	0.001162	0.0001
283.15	0.6	0.001226	0.000105
288.15	0.6	0.001293	0.000111
293.15	0.6	0.001361	0.000117
298.15	0.6	0.001431	0.000123
303.15	0.6	0.001507	0.00013
308.15	0.6	0.001587	0.000137
313.15	0.6	0.00167	0.000144
318.15	0.6	0.001757	0.000151
273.15	0.2	0.000724	6.2e-05
278.15	0.2	0.00076	6.5e-05
283.15	0.2	0.000803	6.9e-05
288.15	0.2	0.00084	7.2e-05
293.15	0.2	0.000892	7.7e-05
298.15	0.2	0.000946	8.1e-05
303.15	0.2	0.001004	8.6e-05
308.15	0.2	0.001069	9.2e-05
313.15	0.2	0.001134	9.8e-05
318.15	0.2	0.001202	0.000103
273.15	0.8	0.000984	8.5e-05
278.15	0.8	0.001028	8.8e-05
283.15	0.8	0.001075	9.2e-05
288.15	0.8	0.001134	9.8e-05
293.15	0.8	0.001198	0.000103
298.15	0.8	0.001269	0.000109
303.15	0.8	0.001345	0.000116
308.15	0.8	0.001424	0.000123
313.15	0.8	0.001506	0.00013
318.15	0.8	0.001593	0.000137
273.15	0.4	0.000918	7.9e-05
278.15	0.4	0.000949	8.2e-05
283.15	0.4	0.000994	8.6e-05
288.15	0.4	0.001046	9e-05
293.15	0.4	0.001099	9.5e-05
298.15	0.4	0.001159	0.0001
303.15	0.4	0.001216	0.000105
308.15	0.4	0.001277	0.00011
313.15	0.4	0.001339	0.000115
318.15	0.4	0.001408	0.000121
273.15	1	0.000444	3.8e-05
278.15	1	0.000458	3.9e-05
283.15	1	0.000476	4.1e-05
288.15	1	0.000496	4.3e-05
293.15	1	0.000516	4.4e-05
298.15	1	0.000536	4.6e-05
303.15	1	0.000558	4.8e-05
308.15	1	0.000579	5e-05
313.15	1	0.000601	5.2e-05
318.15	1	0.000623	5.4e-05

System: lenalidomide + acetonitrile + propan-2-ol; phases: Liquid, Crystal
Fixed: Pressure, kPa = 101.3
Property: Mole fraction of lenalidomide (Liquid); method: Chromatography
Temperature, K	Solvent: Mass fraction of acetonitrile	Mole fraction of lenalidomide	uncertainty
273.15	0	2.5e-05	2e-06
278.15	0	3.2e-05	3e-06
283.15	0	4.1e-05	4e-06
288.15	0	5.2e-05	5e-06
293.15	0	6.6e-05	6e-06
298.15	0	8e-05	7e-06
303.15	0	9.5e-05	8e-06
308.15	0	0.000114	1e-05
313.15	0	0.000136	1.2e-05
318.15	0	0.00016	1.4e-05
273.15	0.6	0.000635	5.5e-05
278.15	0.6	0.000697	6e-05
283.15	0.6	0.000764	6.6e-05
288.15	0.6	0.000842	7.2e-05
293.15	0.6	0.000915	7.9e-05
298.15	0.6	0.001002	8.6e-05
303.15	0.6	0.001097	9.4e-05
308.15	0.6	0.001214	0.000104
313.15	0.6	0.001335	0.000115
318.15	0.6	0.001464	0.000126
273.15	0.2	0.000463	4e-05
278.15	0.2	0.000491	4.2e-05
283.15	0.2	0.000533	4.6e-05
288.15	0.2	0.000582	5e-05
293.15	0.2	0.000647	5.6e-05
298.15	0.2	0.00072	6.2e-05
303.15	0.2	0.000794	6.8e-05
308.15	0.2	0.000875	7.5e-05
313.15	0.2	0.000961	8.3e-05
318.15	0.2	0.001053	9.1e-05
273.15	0.8	0.000616	5.3e-05
278.15	0.8	0.000667	5.7e-05
283.15	0.8	0.000726	6.2e-05
288.15	0.8	0.000788	6.8e-05
293.15	0.8	0.000859	7.4e-05
298.15	0.8	0.000937	8.1e-05
303.15	0.8	0.001034	8.9e-05
308.15	0.8	0.001132	9.7e-05
313.15	0.8	0.001266	0.000109
318.15	0.8	0.001396	0.00012
273.15	0.4	0.000544	4.7e-05
278.15	0.4	0.000596	5.1e-05
283.15	0.4	0.000664	5.7e-05
288.15	0.4	0.000734	6.3e-05
293.15	0.4	0.000814	7e-05
298.15	0.4	0.0009	7.7e-05
303.15	0.4	0.001003	8.6e-05
308.15	0.4	0.001118	9.6e-05
313.15	0.4	0.001233	0.000106
318.15	0.4	0.001365	0.000117
273.15	1	0.000444	3.8e-05
278.15	1	0.000458	3.9e-05
283.15	1	0.000476	4.1e-05
288.15	1	0.000496	4.3e-05
293.15	1	0.000516	4.4e-05
298.15	1	0.000536	4.6e-05
303.15	1	0.000558	4.8e-05
308.15	1	0.000579	5e-05
313.15	1	0.000601	5.2e-05
318.15	1	0.000623	5.4e-05

System: lenalidomide + ethyl acetate + methanol; phases: Liquid, Crystal
Fixed: Pressure, kPa = 101.3
Property: Mole fraction of lenalidomide (Liquid); method: Chromatography
Temperature, K	Solvent: Mass fraction of ethyl acetate	Mole fraction of lenalidomide	uncertainty
273.15	0	0.00019	1.6e-05
278.15	0	0.000204	1.8e-05
283.15	0	0.00022	1.9e-05
288.15	0	0.000237	2e-05
293.15	0	0.000256	2.2e-05
298.15	0	0.000276	2.4e-05
303.15	0	0.000301	2.6e-05
308.15	0	0.000326	2.8e-05
313.15	0	0.000351	3e-05
318.15	0	0.000383	3.3e-05
273.15	0.6	0.000707	6.1e-05
278.15	0.6	0.000799	6.9e-05
283.15	0.6	0.000888	7.6e-05
288.15	0.6	0.000982	8.4e-05
293.15	0.6	0.001077	9.3e-05
298.15	0.6	0.001189	0.000102
303.15	0.6	0.001303	0.000112
308.15	0.6	0.001435	0.000123
313.15	0.6	0.001581	0.000136
318.15	0.6	0.001737	0.000149
273.15	0.2	0.0005	4.3e-05
278.15	0.2	0.000547	4.7e-05
283.15	0.2	0.000606	5.2e-05
288.15	0.2	0.000684	5.9e-05
293.15	0.2	0.000763	6.6e-05
298.15	0.2	0.000853	7.3e-05
303.15	0.2	0.000954	8.2e-05
308.15	0.2	0.001077	9.3e-05
313.15	0.2	0.001218	0.000105
318.15	0.2	0.00137	0.000118
273.15	0.8	0.000659	5.7e-05
278.15	0.8	0.000731	6.3e-05
283.15	0.8	0.000803	6.9e-05
288.15	0.8	0.000888	7.6e-05
293.15	0.8	0.000982	8.5e-05
298.15	0.8	0.001085	9.3e-05
303.15	0.8	0.001199	0.000103
308.15	0.8	0.001327	0.000114
313.15	0.8	0.00147	0.000126
318.15	0.8	0.001624	0.00014
273.15	0.4	0.000588	5.1e-05
278.15	0.4	0.000653	5.6e-05
283.15	0.4	0.000727	6.3e-05
288.15	0.4	0.000818	7e-05
293.15	0.4	0.00091	7.8e-05
298.15	0.4	0.001013	8.7e-05
303.15	0.4	0.001132	9.7e-05
308.15	0.4	0.001268	0.000109
313.15	0.4	0.001423	0.000122
318.15	0.4	0.001591	0.000137
273.15	1	8e-05	7e-06
278.15	1	9.2e-05	8e-06
283.15	1	0.000105	9e-06
288.15	1	0.00012	1e-05
293.15	1	0.000136	1.2e-05
298.15	1	0.000152	1.3e-05
303.15	1	0.000168	1.4e-05
308.15	1	0.000186	1.6e-05
313.15	1	0.000206	1.8e-05
318.15	1	0.000226	1.9e-05

System: lenalidomide + ethyl acetate + propan-2-ol; phases: Liquid, Crystal
Fixed: Pressure, kPa = 101.3
Property: Mole fraction of lenalidomide (Liquid); method: Chromatography
Temperature, K	Solvent: Mass fraction of ethyl acetate	Mole fraction of lenalidomide	uncertainty
273.15	0	2.5e-05	2e-06
278.15	0	3.2e-05	3e-06
283.15	0	4.1e-05	4e-06
288.15	0	5.2e-05	5e-06
293.15	0	6.6e-05	6e-06
298.15	0	8e-05	7e-06
303.15	0	9.5e-05	8e-06
308.15	0	0.000114	1e-05
313.15	0	0.000136	1.2e-05
318.15	0	0.00016	1.4e-05
273.15	0.6	0.000513	4.4e-05
278.15	0.6	0.000576	5e-05
283.15	0.6	0.00064	5.5e-05
288.15	0.6	0.000708	6.1e-05
293.15	0.6	0.000787	6.8e-05
298.15	0.6	0.000865	7.4e-05
303.15	0.6	0.000958	8.2e-05
308.15	0.6	0.001063	9.1e-05
313.15	0.6	0.001179	0.000101
318.15	0.6	0.001305	0.000112
273.15	0.2	0.000275	2.4e-05
278.15	0.2	0.000322	2.8e-05
283.15	0.2	0.000377	3.2e-05
288.15	0.2	0.000436	3.8e-05
293.15	0.2	0.0005	4.3e-05
298.15	0.2	0.000575	4.9e-05
303.15	0.2	0.000663	5.7e-05
308.15	0.2	0.00076	6.5e-05
313.15	0.2	0.000878	7.6e-05
318.15	0.2	0.001019	8.8e-05
273.15	0.8	0.00042	3.6e-05
278.15	0.8	0.000479	4.1e-05
283.15	0.8	0.000548	4.7e-05
288.15	0.8	0.000616	5.3e-05
293.15	0.8	0.00069	5.9e-05
298.15	0.8	0.000773	6.7e-05
303.15	0.8	0.000867	7.5e-05
308.15	0.8	0.000966	8.3e-05
313.15	0.8	0.00107	9.2e-05
318.15	0.8	0.001189	0.000102
273.15	0.4	0.000374	3.2e-05
278.15	0.4	0.000417	3.6e-05
283.15	0.4	0.000468	4e-05
288.15	0.4	0.000526	4.5e-05
293.15	0.4	0.0006	5.2e-05
298.15	0.4	0.000689	5.9e-05
303.15	0.4	0.000783	6.7e-05
308.15	0.4	0.000898	7.7e-05
313.15	0.4	0.001026	8.8e-05
318.15	0.4	0.001167	0.0001
273.15	1	8e-05	7e-06
278.15	1	9.2e-05	8e-06
283.15	1	0.000105	9e-06
288.15	1	0.00012	1e-05
293.15	1	0.000136	1.2e-05
298.15	1	0.000152	1.3e-05
303.15	1	0.000168	1.4e-05
308.15	1	0.000186	1.6e-05
313.15	1	0.000206	1.8e-05
318.15	1	0.000226	1.9e-05

System: lenalidomide + methanol; phases: Liquid, Crystal
Fixed: Pressure, kPa = 101.3
Property: Mole fraction of lenalidomide (Liquid); method: Chromatography
Temperature, K	Mole fraction of lenalidomide	uncertainty
273.15	0.00019	1.6e-05
278.15	0.000204	1.8e-05
283.15	0.00022	1.9e-05
288.15	0.000237	2e-05
293.15	0.000256	2.2e-05
298.15	0.000276	2.4e-05
303.15	0.000301	2.6e-05
308.15	0.000326	2.8e-05
313.15	0.000351	3e-05
318.15	0.000383	3.3e-05

System: lenalidomide + acetonitrile; phases: Liquid, Crystal
Fixed: Pressure, kPa = 101.3
Property: Mole fraction of lenalidomide (Liquid); method: Chromatography
Temperature, K	Mole fraction of lenalidomide	uncertainty
273.15	0.000444	3.8e-05
278.15	0.000458	3.9e-05
283.15	0.000476	4.1e-05
288.15	0.000496	4.3e-05
293.15	0.000516	4.4e-05
298.15	0.000536	4.6e-05
303.15	0.000558	4.8e-05
308.15	0.000579	5e-05
313.15	0.000601	5.2e-05
318.15	0.000623	5.4e-05

System: lenalidomide + propan-2-ol; phases: Liquid, Crystal
Fixed: Pressure, kPa = 101.3
Property: Mole fraction of lenalidomide (Liquid); method: Chromatography
Temperature, K	Mole fraction of lenalidomide	uncertainty
273.15	2.5e-05	2e-06
278.15	3.2e-05	3e-06
283.15	4.1e-05	4e-06
288.15	5.2e-05	5e-06
293.15	6.6e-05	6e-06
298.15	8e-05	7e-06
303.15	9.5e-05	8e-06
308.15	0.000114	1e-05
313.15	0.000136	1.2e-05
318.15	0.00016	1.4e-05

System: lenalidomide + ethyl acetate; phases: Liquid, Crystal
Fixed: Pressure, kPa = 101.3
Property: Mole fraction of lenalidomide (Liquid); method: Chromatography
Temperature, K	Mole fraction of lenalidomide	uncertainty
273.15	8e-05	7e-06
278.15	9.2e-05	8e-06
283.15	0.000105	9e-06
288.15	0.00012	1e-05
293.15	0.000136	1.2e-05
298.15	0.000152	1.3e-05
303.15	0.000168	1.4e-05
308.15	0.000186	1.6e-05
313.15	0.000206	1.8e-05
318.15	0.000226	1.9e-05
