Measured thermophysical data. Measurement and Correlation of the Electrical Conductivity of the Ionic Liquid [BMIM][TFSI] in Binary Organic Solvents
Source: J. Chem. Eng. Data, 2018, 10.1021/acs.jced.7b00646
Compound 1: 1-butyl-3-methylimidazolium bis(trifluoromethylsulfonyl)imide, C10H15F6N3O4S2, InChI=1S/C8H15N2.C2F6NO4S2/c1-3-4-5-10-7-6-9(2)8-10;3-1(4,5)14(10,11)9-15(12,13)2(6,7)8/h6-8H,3-5H2,1-2H3;/q+1;-1, purity 99%
Compound 2: 4-methyl-1,3-dioxolan-2-one, C4H6O3, InChI=1S/C4H6O3/c1-3-2-6-4(5)7-3/h3H,2H2,1H3, purity 99%
Compound 3: .gamma.-butyrolactone, C4H6O2, InChI=1S/C4H6O2/c5-4-2-1-3-6-4/h1-3H2, purity 99%
Compound 4: dimethyl carbonate, C3H6O3, InChI=1S/C3H6O3/c1-5-3(4)6-2/h1-2H3, purity 99%
Compound 5: ethylene carbonate, C3H4O3, InChI=1S/C3H4O3/c4-3-5-1-2-6-3/h1-2H2, purity 99%

System: 1-butyl-3-methylimidazolium bis(trifluoromethylsulfonyl)imide + 4-methyl-1,3-dioxolan-2-one + .gamma.-butyrolactone; phases: Liquid
Fixed: Pressure, kPa = 101.325
Property: Electrical conductivity, S/m (Liquid); method: Alternating current cell with electrodes
Solvent: Mole fraction of 4-methyl-1,3-dioxolan-2-one	Temperature, K	Mole fraction of 1-butyl-3-methylimidazolium bis(trifluoromethylsulfonyl)imide	Electrical conductivity, S/m	uncertainty
0.5	293.15	0	0	0.001
0.5	298.15	0	0	0.001
0.5	303.15	0	0	0.001
0.5	308.15	0	0	0.001
0.5	313.15	0	0	0.001
0.5	318.15	0	0	0.001
0.5	323.15	0	0	0.001
0.5	328.15	0	0	0.001
0.5	333.15	0	0.001	0.001
0.5	338.15	0	0.001	0.001
0.5	343.15	0	0.001	0.001
0.5	348.15	0	0.001	0.001
0.5	353.15	0	0.001	0.001
0.5	293.15	0.0502	0.847	0.022
0.5	298.15	0.0502	0.932	0.022
0.5	303.15	0.0502	1.02	0.024
0.5	308.15	0.0502	1.107	0.027
0.5	313.15	0.0502	1.198	0.029
0.5	318.15	0.0502	1.291	0.032
0.5	323.15	0.0502	1.383	0.034
0.5	328.15	0.0502	1.477	0.036
0.5	333.15	0.0502	1.585	0.039
0.5	338.15	0.0502	1.678	0.041
0.5	343.15	0.0502	1.776	0.044
0.5	348.15	0.0502	1.872	0.046
0.5	353.15	0.0502	1.971	0.049
0.5	293.15	0.0999	1.134	0.013
0.5	298.15	0.0999	1.252	0.013
0.5	303.15	0.0999	1.38	0.014
0.5	308.15	0.0999	1.512	0.016
0.5	313.15	0.0999	1.655	0.017
0.5	318.15	0.0999	1.792	0.019
0.5	323.15	0.0999	1.93	0.021
0.5	328.15	0.0999	2.07	0.022
0.5	333.15	0.0999	2.21	0.024
0.5	338.15	0.0999	2.35	0.025
0.5	343.15	0.0999	2.5	0.027
0.5	348.15	0.0999	2.65	0.029
0.5	353.15	0.0999	2.8	0.031
0.5	293.15	0.2	1.162	0.012
0.5	298.15	0.2	1.312	0.013
0.5	303.15	0.2	1.462	0.015
0.5	308.15	0.2	1.637	0.016
0.5	313.15	0.2	1.803	0.018
0.5	318.15	0.2	1.974	0.02
0.5	323.15	0.2	2.15	0.022
0.5	328.15	0.2	2.32	0.023
0.5	333.15	0.2	2.5	0.025
0.5	338.15	0.2	2.69	0.027
0.5	343.15	0.2	2.88	0.029
0.5	348.15	0.2	3.07	0.031
0.5	353.15	0.2	3.26	0.033
0.5	293.15	0.2999	1.011	0.01
0.5	298.15	0.2999	1.152	0.012
0.5	303.15	0.2999	1.305	0.013
0.5	308.15	0.2999	1.462	0.015
0.5	313.15	0.2999	1.654	0.017
0.5	318.15	0.2999	1.829	0.018
0.5	323.15	0.2999	2.01	0.02
0.5	328.15	0.2999	2.2	0.022
0.5	333.15	0.2999	2.39	0.024
0.5	338.15	0.2999	2.58	0.026
0.5	343.15	0.2999	2.79	0.028
0.5	348.15	0.2999	2.99	0.03
0.5	353.15	0.2999	3.2	0.032
0.5	293.15	0.4	0.865	0.009
0.5	298.15	0.4	1.003	0.01
0.5	303.15	0.4	1.149	0.012
0.5	308.15	0.4	1.306	0.013
0.5	313.15	0.4	1.468	0.015
0.5	318.15	0.4	1.656	0.017
0.5	323.15	0.4	1.835	0.019
0.5	328.15	0.4	2.02	0.02
0.5	333.15	0.4	2.21	0.022
0.5	338.15	0.4	2.41	0.024
0.5	343.15	0.4	2.61	0.026
0.5	348.15	0.4	2.82	0.028
0.5	353.15	0.4	3.03	0.03
0.5	293.15	0.5001	0.721	0.008
0.5	298.15	0.5001	0.846	0.009
0.5	303.15	0.5001	0.98	0.01
0.5	308.15	0.5001	1.127	0.012
0.5	313.15	0.5001	1.279	0.013
0.5	318.15	0.5001	1.44	0.015
0.5	323.15	0.5001	1.634	0.017
0.5	328.15	0.5001	1.814	0.018
0.5	333.15	0.5001	1.996	0.02
0.5	338.15	0.5001	2.18	0.022
0.5	343.15	0.5001	2.38	0.024
0.5	348.15	0.5001	2.58	0.026
0.5	353.15	0.5001	2.79	0.028
0.5	293.15	0.6003	0.611	0.006
0.5	298.15	0.6003	0.727	0.007
0.5	303.15	0.6003	0.853	0.009
0.5	308.15	0.6003	0.988	0.01
0.5	313.15	0.6003	1.134	0.012
0.5	318.15	0.6003	1.291	0.013
0.5	323.15	0.6003	1.461	0.015
0.5	328.15	0.6003	1.657	0.017
0.5	333.15	0.6003	1.841	0.019
0.5	338.15	0.6003	2.03	0.02
0.5	343.15	0.6003	2.23	0.022
0.5	348.15	0.6003	2.43	0.024
0.5	353.15	0.6003	2.64	0.027
0.5	293.15	0.7	0.531	0.006
0.5	298.15	0.7	0.637	0.007
0.5	303.15	0.7	0.754	0.008
0.5	308.15	0.7	0.881	0.009
0.5	313.15	0.7	1.021	0.01
0.5	318.15	0.7	1.169	0.012
0.5	323.15	0.7	1.329	0.013
0.5	328.15	0.7	1.508	0.015
0.5	333.15	0.7	1.684	0.017
0.5	338.15	0.7	1.868	0.019
0.5	343.15	0.7	2.05	0.021
0.5	348.15	0.7	2.25	0.023
0.5	353.15	0.7	2.45	0.025
0.5	293.15	0.8001	0.451	0.005
0.5	298.15	0.8001	0.555	0.006
0.5	303.15	0.8001	0.662	0.007
0.5	308.15	0.8001	0.78	0.008
0.5	313.15	0.8001	0.907	0.009
0.5	318.15	0.8001	1.043	0.011
0.5	323.15	0.8001	1.189	0.012
0.5	328.15	0.8001	1.348	0.014
0.5	333.15	0.8001	1.534	0.016
0.5	338.15	0.8001	1.709	0.017
0.5	343.15	0.8001	1.893	0.019
0.5	348.15	0.8001	2.08	0.021
0.5	353.15	0.8001	2.27	0.023
0.5	293.15	0.9	0.394	0.004
0.5	298.15	0.9	0.487	0.005
0.5	303.15	0.9	0.587	0.006
0.5	308.15	0.9	0.697	0.007
0.5	313.15	0.9	0.815	0.008
0.5	318.15	0.9	0.943	0.01
0.5	323.15	0.9	1.079	0.011
0.5	328.15	0.9	1.226	0.012
0.5	333.15	0.9	1.383	0.014
0.5	338.15	0.9	1.545	0.016
0.5	343.15	0.9	1.744	0.018
0.5	348.15	0.9	1.924	0.019
0.5	353.15	0.9	2.11	0.021
0.5	293.15	1	0.347	0.004
0.5	298.15	1	0.433	0.004
0.5	303.15	1	0.532	0.005
0.5	308.15	1	0.637	0.006
0.5	313.15	1	0.752	0.008
0.5	318.15	1	0.877	0.009
0.5	323.15	1	1.015	0.01
0.5	328.15	1	1.158	0.012
0.5	333.15	1	1.311	0.013
0.5	338.15	1	1.477	0.015
0.5	343.15	1	1.651	0.017
0.5	348.15	1	1.831	0.018
0.5	353.15	1	2.017	0.02
0.667	318.15	0	0	0.001
0.667	318.15	0.05	1.191	0.029
0.667	318.15	0.1	1.679	0.018
0.667	318.15	0.2001	1.868	0.019
0.667	318.15	0.2999	1.757	0.018
0.667	318.15	0.4	1.614	0.016
0.667	318.15	0.5002	1.419	0.014
0.667	318.15	0.5998	1.274	0.013
0.667	318.15	0.7	1.132	0.012
0.667	318.15	0.8	1.028	0.01
0.667	318.15	0.8999	0.93	0.009
0.667	318.15	1	0.877	0.009
0.333	318.15	0	0	0.001
0.333	318.15	0.05	1.305	0.032
0.333	318.15	0.1	1.816	0.019
0.333	318.15	0.2001	2	0.02
0.333	318.15	0.2999	1.883	0.019
0.333	318.15	0.4	1.632	0.017
0.333	318.15	0.5002	1.458	0.015
0.333	318.15	0.5998	1.303	0.013
0.333	318.15	0.7	1.168	0.012
0.333	318.15	0.8	1.051	0.011
0.333	318.15	0.8999	0.95	0.01
0.333	318.15	1	0.877	0.009

System: 1-butyl-3-methylimidazolium bis(trifluoromethylsulfonyl)imide + ethylene carbonate + dimethyl carbonate; phases: Liquid
Fixed: Pressure, kPa = 101.325
Property: Electrical conductivity, S/m (Liquid); method: Alternating current cell with electrodes
Solvent: Mole fraction of ethylene carbonate	Temperature, K	Mole fraction of 1-butyl-3-methylimidazolium bis(trifluoromethylsulfonyl)imide	Electrical conductivity, S/m	uncertainty
0.5	293.15	0	0	0.001
0.5	298.15	0	0	0.001
0.5	303.15	0	0	0.001
0.5	308.15	0	0	0.001
0.5	313.15	0	0	0.001
0.5	318.15	0	0	0.001
0.5	323.15	0	0.001	0.001
0.5	328.15	0	0.001	0.001
0.5	333.15	0	0.001	0.001
0.5	293.15	0.0501	1.126	0.026
0.5	298.15	0.0501	1.223	0.029
0.5	303.15	0.0501	1.323	0.031
0.5	308.15	0.0501	1.421	0.034
0.5	313.15	0.0501	1.535	0.036
0.5	318.15	0.0501	1.639	0.039
0.5	323.15	0.0501	1.745	0.042
0.5	328.15	0.0501	1.853	0.045
0.5	333.15	0.0501	1.961	0.048
0.5	293.15	0.1	1.46	0.018
0.5	298.15	0.1	1.623	0.017
0.5	303.15	0.1	1.767	0.018
0.5	308.15	0.1	1.913	0.02
0.5	313.15	0.1	2.06	0.022
0.5	318.15	0.1	2.21	0.023
0.5	323.15	0.1	2.37	0.025
0.5	328.15	0.1	2.53	0.027
0.5	333.15	0.1	2.68	0.029
0.5	293.15	0.2	1.482	0.016
0.5	298.15	0.2	1.672	0.017
0.5	303.15	0.2	1.852	0.019
0.5	308.15	0.2	2.04	0.02
0.5	313.15	0.2	2.22	0.022
0.5	318.15	0.2	2.42	0.024
0.5	323.15	0.2	2.61	0.026
0.5	328.15	0.2	2.82	0.028
0.5	333.15	0.2	3.03	0.031
0.5	293.15	0.3	1.246	0.013
0.5	298.15	0.3	1.415	0.015
0.5	303.15	0.3	1.607	0.017
0.5	308.15	0.3	1.788	0.018
0.5	313.15	0.3	1.996	0.02
0.5	318.15	0.3	2.21	0.023
0.5	323.15	0.3	2.38	0.024
0.5	328.15	0.3	2.61	0.026
0.5	333.15	0.3	2.81	0.028
0.5	293.15	0.3999	1.019	0.011
0.5	298.15	0.3999	1.173	0.012
0.5	303.15	0.3999	1.336	0.014
0.5	308.15	0.3999	1.528	0.016
0.5	313.15	0.3999	1.716	0.018
0.5	318.15	0.3999	1.906	0.02
0.5	323.15	0.3999	2.11	0.022
0.5	328.15	0.3999	2.31	0.024
0.5	333.15	0.3999	2.51	0.026
0.5	293.15	0.5003	0.837	0.009
0.5	298.15	0.5003	0.978	0.01
0.5	303.15	0.5003	1.131	0.012
0.5	308.15	0.5003	1.293	0.013
0.5	313.15	0.5003	1.46	0.015
0.5	318.15	0.5003	1.652	0.017
0.5	323.15	0.5003	1.838	0.019
0.5	328.15	0.5003	2.04	0.021
0.5	333.15	0.5003	2.25	0.023
0.5	293.15	0.6	0.662	0.007
0.5	298.15	0.6	0.79	0.008
0.5	303.15	0.6	0.928	0.01
0.5	308.15	0.6	1.067	0.011
0.5	313.15	0.6	1.226	0.013
0.5	318.15	0.6	1.393	0.014
0.5	323.15	0.6	1.582	0.016
0.5	328.15	0.6	1.769	0.018
0.5	333.15	0.6	1.946	0.02
0.5	293.15	0.6997	0.577	0.006
0.5	298.15	0.6997	0.694	0.007
0.5	303.15	0.6997	0.824	0.008
0.5	308.15	0.6997	0.959	0.01
0.5	313.15	0.6997	1.11	0.011
0.5	318.15	0.6997	1.269	0.013
0.5	323.15	0.6997	1.428	0.015
0.5	328.15	0.6997	1.619	0.016
0.5	333.15	0.6997	1.799	0.018
0.5	293.15	0.8	0.483	0.005
0.5	298.15	0.8	0.589	0.006
0.5	303.15	0.8	0.703	0.007
0.5	308.15	0.8	0.824	0.008
0.5	313.15	0.8	0.957	0.01
0.5	318.15	0.8	1.102	0.011
0.5	323.15	0.8	1.256	0.013
0.5	328.15	0.8	1.416	0.014
0.5	333.15	0.8	1.611	0.016
0.5	293.15	0.8998	0.421	0.004
0.5	298.15	0.8998	0.516	0.005
0.5	303.15	0.8998	0.62	0.006
0.5	308.15	0.8998	0.734	0.008
0.5	313.15	0.8998	0.86	0.009
0.5	318.15	0.8998	0.994	0.01
0.5	323.15	0.8998	1.142	0.012
0.5	328.15	0.8998	1.3	0.013
0.5	333.15	0.8998	1.462	0.015
0.5	293.15	1	0.347	0.004
0.5	298.15	1	0.433	0.004
0.5	303.15	1	0.532	0.005
0.5	308.15	1	0.637	0.006
0.5	313.15	1	0.752	0.008
0.5	318.15	1	0.877	0.009
0.5	323.15	1	1.015	0.01
0.5	328.15	1	1.158	0.012
0.5	333.15	1	1.311	0.013
0.667	318.15	0	0	0.001
0.667	318.15	0.05	1.562	0.038
0.667	318.15	0.1	2.15	0.023
0.667	318.15	0.2001	2.3	0.023
0.667	318.15	0.2999	2.08	0.021
0.667	318.15	0.4	1.786	0.018
0.667	318.15	0.5002	1.582	0.016
0.667	318.15	0.5998	1.349	0.014
0.667	318.15	0.7	1.206	0.012
0.667	318.15	0.8	1.058	0.011
0.667	318.15	0.8999	0.962	0.01
0.667	318.15	1	0.877	0.009
0.333	318.15	0	0	0.001
0.333	318.15	0.05	1.515	0.038
0.333	318.15	0.1	2.15	0.023
0.333	318.15	0.2001	2.38	0.024
0.333	318.15	0.2999	2.19	0.022
0.333	318.15	0.4	1.894	0.019
0.333	318.15	0.5002	1.628	0.017
0.333	318.15	0.5998	1.397	0.014
0.333	318.15	0.7	1.218	0.012
0.333	318.15	0.8	1.072	0.011
0.333	318.15	0.8999	0.949	0.01
0.333	318.15	1	0.877	0.009

System: 1-butyl-3-methylimidazolium bis(trifluoromethylsulfonyl)imide + 4-methyl-1,3-dioxolan-2-one; phases: Liquid
Fixed: Temperature, K = 318.15
Fixed: Pressure, kPa = 101.3
Property: Electrical conductivity, S/m (Liquid); method: Alternating current cell with electrodes
Mole fraction of 1-butyl-3-methylimidazolium bis(trifluoromethylsulfonyl)imide	Electrical conductivity, S/m	uncertainty
0	0	0.001
0.05	1.076	0.026
0.1	1.513	0.017
0.2001	1.749	0.018
0.2999	1.676	0.017
0.4	1.534	0.016
0.5002	1.365	0.014
0.5998	1.224	0.012
0.7	1.114	0.011
0.8	1.009	0.01
0.8999	0.924	0.009
1	0.877	0.009

System: 1-butyl-3-methylimidazolium bis(trifluoromethylsulfonyl)imide + .gamma.-butyrolactone; phases: Liquid
Fixed: Temperature, K = 318.15
Fixed: Pressure, kPa = 101.3
Property: Electrical conductivity, S/m (Liquid); method: Alternating current cell with electrodes
Mole fraction of 1-butyl-3-methylimidazolium bis(trifluoromethylsulfonyl)imide	Electrical conductivity, S/m	uncertainty
0	0	0.001
0.05	1.427	0.034
0.1	1.954	0.021
0.2001	2.13	0.021
0.2999	1.956	0.02
0.4	1.719	0.018
0.5002	1.506	0.015
0.5998	1.307	0.013
0.7	1.159	0.012
0.8	1.035	0.011
0.8999	0.937	0.009
1	0.877	0.009

System: 1-butyl-3-methylimidazolium bis(trifluoromethylsulfonyl)imide + ethylene carbonate; phases: Liquid
Fixed: Temperature, K = 318.15
Fixed: Pressure, kPa = 101.3
Property: Electrical conductivity, S/m (Liquid); method: Alternating current cell with electrodes
Mole fraction of 1-butyl-3-methylimidazolium bis(trifluoromethylsulfonyl)imide	Electrical conductivity, S/m	uncertainty
0	0	0.001
0.05	1.36	0.033
0.1	1.869	0.02
0.2001	2.06	0.021
0.2999	1.908	0.019
0.4	1.7	0.017
0.5002	1.504	0.015
0.5998	1.313	0.013
0.7	1.174	0.012
0.8	1.07	0.011
0.8999	0.965	0.01
1	0.877	0.009

System: 1-butyl-3-methylimidazolium bis(trifluoromethylsulfonyl)imide + dimethyl carbonate; phases: Liquid
Fixed: Temperature, K = 318.15
Fixed: Pressure, kPa = 101.3
Property: Electrical conductivity, S/m (Liquid); method: Alternating current cell with electrodes
Mole fraction of 1-butyl-3-methylimidazolium bis(trifluoromethylsulfonyl)imide	Electrical conductivity, S/m	uncertainty
0	0	0.001
0.05	0.587	0.023
0.1	1.364	0.021
0.2001	2.12	0.022
0.2999	2.14	0.021
0.4	1.93	0.02
0.5002	1.682	0.017
0.5998	1.418	0.015
0.7	1.226	0.013
0.8	1.085	0.011
0.8999	0.965	0.01
1	0.877	0.009
