Measured thermophysical data. Thermochemical Characteristics of the Dissolution of d-Valine in Aqueous Solutions of Some Amides at T = 298.15 K
Source: J. Chem. Eng. Data, 2016, 10.1021/acs.jced.5b01087
Compound 1: formamide, CH3NO, InChI=1S/CH3NO/c2-1-3/h1H,(H2,2,3), purity 99.8%
Compound 2: N-methylformamide, C2H5NO, InChI=1S/C2H5NO/c1-3-2-4/h2H,1H3,(H,3,4), purity 99%
Compound 3: dimethylformamide, C3H7NO, InChI=1S/C3H7NO/c1-4(2)3-5/h3H,1-2H3, purity 99%
Compound 4: N,N-dimethylethanamide, C4H9NO, InChI=1S/C4H9NO/c1-4(6)5(2)3/h1-3H3, purity 99.8%
Compound 5: water, H2O, InChI=1S/H2O/h1H2
Compound 6: (R)-(-)-valine, C5H11NO2, InChI=1S/C5H11NO2/c1-3(2)4(6)5(7)8/h3-4H,6H2,1-2H3,(H,7,8)/t4-/m1/s1, purity 99.8%

System: formamide + (R)-(-)-valine + water; phases: Liquid
Fixed: Mole fraction of (R)-(-)-valine = 0
Fixed: Temperature, K = 298.15
Fixed: Pressure, kPa = 100.5
Property: Molar enthalpy of solution, kJ/mol (Liquid); method: ISOPERIBOL
Solvent: Molality, mol/kg of formamide	Molar enthalpy of solution, kJ/mol	uncertainty
0	2.33	0.04
1.006	2.83	0.06
2.326	3.72	0.07
3.644	4.28	0.07
5.146	4.68	0.07
6.846	4.93	0.07
8.944	4.82	0.09
11.068	4.65	0.07
13.541	4.39	0.09
16.795	3.93	0.08
19.169	3.61	0.08

System: N-methylformamide + (R)-(-)-valine + water; phases: Liquid
Fixed: Mole fraction of (R)-(-)-valine = 0
Fixed: Temperature, K = 298.15
Fixed: Pressure, kPa = 100.5
Property: Molar enthalpy of solution, kJ/mol (Liquid); method: ISOPERIBOL
Solvent: Molality, mol/kg of N-methylformamide	Molar enthalpy of solution, kJ/mol	uncertainty
0.678	3.19	0.06
1.539	4.35	0.07
2.352	5.37	0.07
3.366	6.24	0.07
4.451	7.08	0.08
5.633	8.09	0.08
6.876	8.75	0.09
8.452	9.43	0.1
10.201	10.12	0.11
12.267	10.67	0.11
17.168	11.47	0.11

System: dimethylformamide + (R)-(-)-valine + water; phases: Liquid
Fixed: Mole fraction of (R)-(-)-valine = 0
Fixed: Temperature, K = 298.15
Fixed: Pressure, kPa = 100.5
Property: Molar enthalpy of solution, kJ/mol (Liquid); method: ISOPERIBOL
Solvent: Molality, mol/kg of dimethylformamide	Molar enthalpy of solution, kJ/mol	uncertainty
0.579	3.47	0.07
1.192	5.45	0.07
1.833	6.51	0.08
2.561	7.49	0.08
3.303	8.64	0.1
4.203	9.73	0.09
5.159	10.41	0.11
6.233	11.22	0.11
7.591	11.78	0.12
9.045	12.19	0.12
12.536	12.26	0.12

System: N,N-dimethylethanamide + (R)-(-)-valine + water; phases: Liquid
Fixed: Mole fraction of (R)-(-)-valine = 0
Fixed: Temperature, K = 298.15
Fixed: Pressure, kPa = 100.5
Property: Molar enthalpy of solution, kJ/mol (Liquid); method: ISOPERIBOL
Solvent: Molality, mol/kg of N,N-dimethylethanamide	Molar enthalpy of solution, kJ/mol	uncertainty
0.474	3.71	0.07
1.009	4.97	0.07
1.523	5.89	0.07
2.129	6.91	0.08
2.811	7.93	0.08
3.581	8.74	0.09
4.303	8.93	0.09
5.238	9.15	0.1
6.136	8.99	0.09
7.257	8.81	0.1
11.548	7.11	0.08
