Measured thermophysical data. Vapor-Liquid Equilibrium Measurements of Ether Alcohol Blends for Investigation on Reformulated Gas
Source: J. Chem. Eng. Data, 2019, 10.1021/acs.jced.8b00614
Compound 1: 2-methoxy-2-methylpropane, C5H12O, InChI=1S/C5H12O/c1-5(2,3)6-4/h1-4H3
Compound 2: pentan-1-ol, C5H12O, InChI=1S/C5H12O/c1-2-3-4-5-6/h6H,2-5H2,1H3
Compound 3: 2,2,4-trimethylpentane, C8H18, InChI=1S/C8H18/c1-7(2)6-8(3,4)5/h7H,6H2,1-5H3

System: 2-methoxy-2-methylpropane; phases: Liquid
Property: Refractive index (Na D-line) (Liquid); method: Standard Abbe refractometry
Temperature, K	Pressure, kPa	Refractive index (Na D-line)	uncertainty
298.2	101.325	1.36632	0.00361

System: 2-methoxy-2-methylpropane; phases: Liquid
Property: Mass density, kg/m3 (Liquid); method: Vibrating tube method
Temperature, K	Pressure, kPa	Mass density, kg/m3	uncertainty
298.2	101.325	735.38	3.2

System: 2-methoxy-2-methylpropane; phases: Liquid, Gas
Property: Boiling temperature at pressure P, K (Liquid); method: Ebulliometric method (Recirculating still)
Pressure, kPa	Boiling temperature at pressure P, K	uncertainty
20	286.1	0.2
30	295.4	0.2
40	302.6	0.1
50	308.4	0.1
60	313.3	0.1
70	317.6	0.1
79.9	321.5	0.1
90	324.9	1.5
99.7	328.1	1.5

System: 2-methoxy-2-methylpropane; phases: Liquid, Gas
Property: Vapor or sublimation pressure, kPa (Liquid); method: Chromatography
Temperature, K	Vapor or sublimation pressure, kPa	uncertainty
317.2	68.9	5.3
327.2	97.1	7.5
307.2	47.7	3.7

System: pentan-1-ol; phases: Liquid
Property: Refractive index (Na D-line) (Liquid); method: Standard Abbe refractometry
Temperature, K	Pressure, kPa	Refractive index (Na D-line)	uncertainty
298.2	101.325	1.40764	0.00361

System: pentan-1-ol; phases: Liquid
Property: Mass density, kg/m3 (Liquid); method: Vibrating tube method
Temperature, K	Pressure, kPa	Mass density, kg/m3	uncertainty
298.2	101.325	810.9	3.2

System: pentan-1-ol; phases: Liquid, Gas
Property: Boiling temperature at pressure P, K (Liquid); method: Ebulliometric method (Recirculating still)
Pressure, kPa	Boiling temperature at pressure P, K	uncertainty
1.1	317.4	0.9
5	341.3	0.6
10	354.5	0.3
20	369	0.2
30	378.4	0.2
40	385.5	0.1
50	391.3	0.1
60	396.2	0.1
70	400.4	0.1
79.9	404.2	0.1
90	407.7	1.5
99.7	410.8	1.5

System: pentan-1-ol; phases: Liquid, Gas
Property: Vapor or sublimation pressure, kPa (Liquid); method: Chromatography
Temperature, K	Vapor or sublimation pressure, kPa	uncertainty
350.2	8	0.6
360.2	13.3	1
370.2	21	1.6
317.2	1.1	0.1
327.2	2.1	0.2

System: 2,2,4-trimethylpentane; phases: Liquid
Property: Refractive index (Na D-line) (Liquid); method: Standard Abbe refractometry
Temperature, K	Pressure, kPa	Refractive index (Na D-line)	uncertainty
298.2	101.325	1.3891	0.00361

System: 2,2,4-trimethylpentane; phases: Liquid
Property: Mass density, kg/m3 (Liquid); method: Vibrating tube method
Temperature, K	Pressure, kPa	Mass density, kg/m3	uncertainty
298.2	101.325	687.73	3.2

System: 2,2,4-trimethylpentane; phases: Liquid, Gas
Property: Boiling temperature at pressure P, K (Liquid); method: Ebulliometric method (Recirculating still)
Pressure, kPa	Boiling temperature at pressure P, K	uncertainty
5	292.5	0.4
10	307.1	0.3
20	323.8	0.2
30	334.5	0.2
40	342.6	0.2
50	349.2	0.1
60	354.9	0.1
70	359.8	0.1
80	364.2	0.1
90	368.3	0.1
99.7	371.9	0.1

System: 2,2,4-trimethylpentane; phases: Liquid, Gas
Property: Vapor or sublimation pressure, kPa (Liquid); method: Chromatography
Temperature, K	Vapor or sublimation pressure, kPa	uncertainty
350.2	51.6	4
360.2	70.7	5.5
370.2	95	7.4
307.2	10	0.8
317.2	15.3	1.2
327.2	22.8	1.8

System: 2,2,4-trimethylpentane + pentan-1-ol; phases: Liquid, Gas
Property: Mole fraction of 2,2,4-trimethylpentane (Liquid); method: Chromatography
Temperature, K	Pressure, kPa	Mole fraction of 2,2,4-trimethylpentane	uncertainty
350.2	8	0	
350.2	18	0.061	0.006
350.2	25	0.121	0.006
350.2	33	0.213	0.007
350.2	38	0.284	0.007
350.2	46	0.525	0.009
350.2	50	0.814	0.012
350.2	51	0.899	0.013
350.2	51.4	0.949	0.016
350.2	51.6	0.969	0.015
350.2	51.6	0.99	0.01
350.2	51.6	1	
360.2	13.3	0	
360.2	37.8	0.132	0.006
360.2	45	0.192	0.007
360.2	51.5	0.263	0.008
360.2	59	0.393	0.008
360.2	67.1	0.664	0.009
360.2	68.6	0.737	0.01
360.2	69.4	0.796	0.01
360.2	70.1	0.839	0.017
360.2	70.9	0.869	0.009
360.2	71.1	0.931	0.022
360.2	71.1	0.97	0.013
360.2	70.7	1	
370.2	21	0	
370.2	25.3	0.01	0.006
370.2	30.9	0.03	0.006
370.2	38.4	0.061	0.006
370.2	47.1	0.1	0.006
370.2	59.2	0.172	0.007
370.2	68.3	0.24	0.008
370.2	75.2	0.313	0.009
370.2	87.8	0.536	0.012
370.2	90.4	0.616	0.013
370.2	93.7	0.748	0.02
370.2	96.5	0.939	0.02
370.2	96.5	0.949	0.017
370.2	95.8	0.989	0.011
370.2	95	1	

System: 2,2,4-trimethylpentane + pentan-1-ol; phases: Gas, Liquid
Property: Mole fraction of 2,2,4-trimethylpentane (Gas); method: Chromatography
Temperature, K	Pressure, kPa	Mole fraction of 2,2,4-trimethylpentane	uncertainty
350.2	8	0	
350.2	18	0.542	0.009
350.2	25	0.69	0.008
350.2	33	0.78	0.007
350.2	38	0.816	0.006
350.2	46	0.871	0.006
350.2	50	0.914	0.006
350.2	51	0.93	0.007
350.2	51.4	0.955	0.009
350.2	51.6	0.97	0.009
350.2	51.6	0.988	0.012
350.2	51.6	1	
360.2	13.3	0	
360.2	37.8	0.662	0.007
360.2	45	0.728	0.007
360.2	51.5	0.776	0.007
360.2	59	0.821	0.006
360.2	67.1	0.872	0.006
360.2	68.6	0.877	0.006
360.2	69.4	0.892	0.006
360.2	70.1	0.902	0.01
360.2	70.9	0.917	0.007
360.2	71.1	0.938	0.018
360.2	71.1	0.966	0.011
360.2	70.7	1	
370.2	21	0	
370.2	25.3	0.122	0.007
370.2	30.9	0.292	0.007
370.2	38.4	0.446	0.008
370.2	47.1	0.562	0.007
370.2	59.2	0.666	0.007
370.2	68.3	0.729	0.007
370.2	75.2	0.766	0.007
370.2	87.8	0.829	0.007
370.2	90.4	0.843	0.007
370.2	93.7	0.868	0.01
370.2	96.5	0.938	0.02
370.2	96.5	0.945	0.017
370.2	95.8	0.986	0.013
370.2	95	1	

System: 2-methoxy-2-methylpropane + pentan-1-ol; phases: Liquid, Gas
Property: Mole fraction of 2-methoxy-2-methylpropane (Liquid); method: Chromatography
Temperature, K	Pressure, kPa	Mole fraction of 2-methoxy-2-methylpropane	uncertainty
317.2	1.1	0	
317.2	18.7	0.152	0.006
317.2	26.9	0.242	0.006
317.2	34.6	0.343	0.007
317.2	43	0.475	0.007
317.2	49.4	0.596	0.007
317.2	55.2	0.717	0.007
317.2	60.3	0.838	0.007
317.2	64.1	0.899	0.007
317.2	67.1	0.96	0.008
317.2	68.9	1	
327.2	2.1	0	
327.2	14.1	0.071	0.006
327.2	17.2	0.091	0.006
327.2	25.3	0.141	0.006
327.2	33.5	0.212	0.006
327.2	41.5	0.273	0.007
327.2	52.6	0.394	0.007
327.2	60.9	0.495	0.008
327.2	68.8	0.596	0.008
327.2	77.3	0.707	0.008
327.2	84	0.808	0.008
327.2	88.5	0.879	0.008
327.2	94.1	0.96	0.007
327.2	97.1	1	

System: 2-methoxy-2-methylpropane + pentan-1-ol; phases: Gas, Liquid
Property: Mole fraction of 2-methoxy-2-methylpropane (Gas); method: Chromatography
Temperature, K	Pressure, kPa	Mole fraction of 2-methoxy-2-methylpropane	uncertainty
317.2	1.1	0	
317.2	18.7	0.937	0.007
317.2	26.9	0.96	0.006
317.2	34.6	0.972	0.006
317.2	43	0.981	0.006
317.2	49.4	0.986	0.006
317.2	55.2	0.99	0.006
317.2	60.3	0.994	0.006
317.2	64.1	0.996	0.004
317.2	67.1	0.998	0.002
317.2	68.9	1	
327.2	2.1	0	
327.2	14.1	0.833	0.009
327.2	17.2	0.866	0.006
327.2	25.3	0.91	0.006
327.2	33.5	0.939	0.006
327.2	41.5	0.952	0.006
327.2	52.6	0.968	0.006
327.2	60.9	0.975	0.006
327.2	68.8	0.981	0.006
327.2	77.3	0.986	0.006
327.2	84	0.99	0.006
327.2	88.5	0.993	0.006
327.2	94.1	0.998	0.002
327.2	97.1	1	

System: 2-methoxy-2-methylpropane + 2,2,4-trimethylpentane; phases: Liquid, Gas
Property: Mole fraction of 2-methoxy-2-methylpropane (Liquid); method: Chromatography
Temperature, K	Pressure, kPa	Mole fraction of 2-methoxy-2-methylpropane	uncertainty
307.2	10	0	
307.2	11.8	0.028	0.006
307.2	14.6	0.077	0.006
307.2	18.8	0.156	0.007
307.2	24	0.266	0.007
307.2	28.1	0.364	0.007
307.2	34.4	0.54	0.008
307.2	37.7	0.638	0.008
307.2	40.3	0.722	0.008
307.2	41.9	0.77	0.008
307.2	43.9	0.829	0.008
307.2	45.2	0.892	0.009
307.2	47.7	1	
317.2	15.3	0	
317.2	17.9	0.023	0.006
317.2	20.3	0.05	0.006
317.2	24.8	0.111	0.006
317.2	28.4	0.166	0.007
317.2	32.5	0.225	0.007
317.2	37.2	0.306	0.007
317.2	42.9	0.402	0.007
317.2	45.1	0.447	0.008
317.2	53	0.605	0.008
317.2	59	0.737	0.008
317.2	63.3	0.838	0.008
317.2	65.4	0.899	0.008
317.2	67.5	0.949	0.008
317.2	67.9	0.966	0.008
317.2	68.7	0.99	0.008
317.2	68.9	1	
327.2	22.8	0	
327.2	25.5	0.015	0.006
327.2	29.6	0.052	0.006
327.2	34.7	0.101	0.006
327.2	40.6	0.165	0.007
327.2	48.7	0.257	0.007
327.2	55.9	0.343	0.007
327.2	60.8	0.41	0.008
327.2	65.8	0.477	0.008
327.2	70	0.543	0.008
327.2	75.2	0.622	0.008
327.2	82.2	0.739	0.008
327.2	87.9	0.833	0.008
327.2	92.7	0.913	0.008
327.2	95.2	0.96	0.008
327.2	97.1	1	

System: 2-methoxy-2-methylpropane + 2,2,4-trimethylpentane; phases: Gas, Liquid
Property: Mole fraction of 2-methoxy-2-methylpropane (Gas); method: Chromatography
Temperature, K	Pressure, kPa	Mole fraction of 2-methoxy-2-methylpropane	uncertainty
307.2	10	0	
307.2	11.8	0.174	0.011
307.2	14.6	0.369	0.009
307.2	18.8	0.547	0.009
307.2	24	0.688	0.007
307.2	28.1	0.767	0.007
307.2	34.4	0.854	0.007
307.2	37.7	0.887	0.006
307.2	40.3	0.917	0.006
307.2	41.9	0.932	0.006
307.2	43.9	0.953	0.006
307.2	45.2	0.973	0.006
307.2	47.7	1	
317.2	15.3	0	
317.2	17.9	0.167	0.009
317.2	20.3	0.267	0.008
317.2	24.8	0.449	0.008
317.2	28.4	0.545	0.008
317.2	32.5	0.623	0.007
317.2	37.2	0.703	0.007
317.2	42.9	0.776	0.007
317.2	45.1	0.8	0.007
317.2	53	0.872	0.006
317.2	59	0.917	0.006
317.2	63.3	0.953	0.006
317.2	65.4	0.973	0.006
317.2	67.5	0.988	0.006
317.2	67.9	0.99	0.006
317.2	68.7	0.997	0.003
317.2	68.9	1	
327.2	22.8	0	
327.2	25.5	0.122	0.008
327.2	29.6	0.272	0.008
327.2	34.7	0.406	0.008
327.2	40.6	0.524	0.008
327.2	48.7	0.644	0.007
327.2	55.9	0.719	0.007
327.2	60.8	0.763	0.007
327.2	65.8	0.8	0.007
327.2	70	0.833	0.006
327.2	75.2	0.866	0.006
327.2	82.2	0.914	0.006
327.2	87.9	0.945	0.006
327.2	92.7	0.973	0.006
327.2	95.2	0.989	0.006
327.2	97.1	1	
