Measured thermophysical data. Liquid-Liquid Equilibrium Measurements and Correlation for Ternary Systems (Butyl Acetate + 1-Butanol + Ethylene Glycol/1,3-Propanediol/Ethanolamine) at 298.15 K
Source: J. Chem. Eng. Data, 2019, 10.1021/acs.jced.8b01219
Compound 1: butan-1-ol, C4H10O, InChI=1S/C4H10O/c1-2-3-4-5/h5H,2-4H2,1H3, purity 99.5%
Compound 2: butyl ethanoate, C6H12O2, InChI=1S/C6H12O2/c1-3-4-5-8-6(2)7/h3-5H2,1-2H3, purity 99.5%
Compound 3: 1,2-ethanediol, C2H6O2, InChI=1S/C2H6O2/c3-1-2-4/h3-4H,1-2H2, purity 99.5%
Compound 4: propan-1,3-diol, C3H8O2, InChI=1S/C3H8O2/c4-2-1-3-5/h4-5H,1-3H2, purity 99%
Compound 5: 2-aminoethan-1-ol, C2H7NO, InChI=1S/C2H7NO/c3-1-2-4/h4H,1-3H2, purity 99.4%

System: butyl ethanoate + butan-1-ol + 1,2-ethanediol; phases: Liquid mixture 2, Liquid mixture 1
Fixed: Temperature, K = 298.15
Fixed: Pressure, kPa = 101.3
Property: Mole fraction of butan-1-ol (Liquid mixture 2); method: Chromatography
Property: Mole fraction of butan-1-ol (Liquid mixture 1); method: Chromatography
Property: Mole fraction of butyl ethanoate (Liquid mixture 1); method: Chromatography
Mole fraction of butyl ethanoate	Mole fraction of butan-1-ol	uncertainty	Mole fraction of butan-1-ol	uncertainty	Mole fraction of butyl ethanoate	uncertainty
0.032	0		0		0.938	
0.104	0.092	0.014	0.212	0.014	0.596	
0.09	0.088	0.02	0.204	0.014	0.629	
0.083	0.076	0.021	0.197	0.014	0.664	
0.074	0.06	0.025	0.189	0.014	0.71	
0.069	0.049	0.023	0.166	0.014	0.767	
0.057	0.038	0.02	0.155	0.015	0.807	
0.05	0.029	0.023	0.138	0.018	0.828	
0.037	0.021	0.018	0.12	0.022	0.85	

System: butyl ethanoate + butan-1-ol + propan-1,3-diol; phases: Liquid mixture 1, Liquid mixture 2
Fixed: Temperature, K = 298.15
Fixed: Pressure, kPa = 101.3
Property: Mole fraction of butyl ethanoate (Liquid mixture 1); method: Chromatography
Property: Mole fraction of butyl ethanoate (Liquid mixture 2); method: Chromatography
Property: Mole fraction of butan-1-ol (Liquid mixture 2); method: Chromatography
Mole fraction of butan-1-ol	Mole fraction of butyl ethanoate	uncertainty	Mole fraction of butyl ethanoate	uncertainty	Mole fraction of butan-1-ol	uncertainty
0	0.927	0.014	0.072	0.014	0	
0.163	0.69	0.035	0.118	0.018	0.072	
0.153	0.715	0.033	0.112	0.017	0.066	
0.142	0.74	0.033	0.107	0.017	0.06	
0.13	0.766	0.031	0.102	0.017	0.053	
0.119	0.787	0.029	0.098	0.017	0.048	
0.113	0.798	0.028	0.095	0.017	0.047	
0.091	0.837	0.027	0.089	0.017	0.036	
0.074	0.865	0.026	0.077	0.015	0.018	

System: butyl ethanoate + butan-1-ol + 2-aminoethan-1-ol; phases: Liquid mixture 2, Liquid mixture 1
Fixed: Temperature, K = 298.15
Fixed: Pressure, kPa = 101.3
Property: Mole fraction of butan-1-ol (Liquid mixture 2); method: Chromatography
Property: Mole fraction of butan-1-ol (Liquid mixture 1); method: Chromatography
Property: Mole fraction of butyl ethanoate (Liquid mixture 1); method: Chromatography
Mole fraction of butyl ethanoate	Mole fraction of butan-1-ol	uncertainty	Mole fraction of butan-1-ol	uncertainty	Mole fraction of butyl ethanoate	uncertainty
0.045	0		0		0.968	
0.112	0.094	0.017	0.109	0.015	0.773	
0.101	0.087	0.017	0.102	0.015	0.786	
0.086	0.075	0.019	0.081	0.015	0.832	
0.077	0.066	0.02	0.062	0.015	0.871	
0.065	0.053	0.028	0.052	0.016	0.889	
0.053	0.036	0.023	0.036	0.016	0.917	
0.044	0.023	0.023	0.023	0.016	0.938	
0.039	0.014	0.014	0.014	0.014	0.952	

System: butyl ethanoate + 1,2-ethanediol; phases: Liquid mixture 2, Liquid mixture 1
Property: Mole fraction of butyl ethanoate (Liquid mixture 2); method: Chromatography
Temperature, K	Pressure, kPa	Mole fraction of butyl ethanoate	uncertainty
298.15	101.3	0.032	0.014

System: butyl ethanoate + 1,2-ethanediol; phases: Liquid mixture 1, Liquid mixture 2
Property: Mole fraction of butyl ethanoate (Liquid mixture 1); method: Chromatography
Temperature, K	Pressure, kPa	Mole fraction of butyl ethanoate	uncertainty
298.15	101.3	0.938	0.014

System: butyl ethanoate + propan-1,3-diol; phases: Liquid mixture 2, Liquid mixture 1
Property: Mole fraction of butyl ethanoate (Liquid mixture 2); method: Chromatography
Temperature, K	Pressure, kPa	Mole fraction of butyl ethanoate	uncertainty
298.15	101.3	0.072	0.014

System: butyl ethanoate + propan-1,3-diol; phases: Liquid mixture 1, Liquid mixture 2
Property: Mole fraction of butyl ethanoate (Liquid mixture 1); method: Chromatography
Temperature, K	Pressure, kPa	Mole fraction of butyl ethanoate	uncertainty
298.15	101.3	0.927	0.014

System: butyl ethanoate + 2-aminoethan-1-ol; phases: Liquid mixture 2, Liquid mixture 1
Property: Mole fraction of butyl ethanoate (Liquid mixture 2); method: Chromatography
Temperature, K	Pressure, kPa	Mole fraction of butyl ethanoate	uncertainty
298.15	101.3	0.045	0.014

System: butyl ethanoate + 2-aminoethan-1-ol; phases: Liquid mixture 1, Liquid mixture 2
Property: Mole fraction of butyl ethanoate (Liquid mixture 1); method: Chromatography
Temperature, K	Pressure, kPa	Mole fraction of butyl ethanoate	uncertainty
298.15	101.3	0.968	0.014
