Measured thermophysical data. Investigation of Surface Properties for Electrolyte Solutions: Measurement and Prediction of Surface Tension for Aqueous Concentrated Electrolyte Solutions
Source: J. Chem. Eng. Data, 2017, 10.1021/acs.jced.7b00503
Compound 1: sodium chloride, ClNa, InChI=1S/ClH.Na/h1H;/q;+1/p-1
Compound 2: sodium bromide, BrNa, InChI=1S/BrH.Na/h1H;/q;+1/p-1
Compound 3: sodium iodide, INa, InChI=1S/HI.Na/h1H;/q;+1/p-1
Compound 4: potassium chloride, ClK, InChI=1S/ClH.K/h1H;/q;+1/p-1
Compound 5: potassium bromide, BrK, InChI=1S/BrH.K/h1H;/q;+1/p-1
Compound 6: potassium iodide, IK, InChI=1S/HI.K/h1H;/q;+1/p-1
Compound 7: water, H2O, InChI=1S/H2O/h1H2, purity 99.8%

System: water; phases: Liquid, Air at 1 atmosphere
Property: Surface tension liquid-gas, N/m (Liquid); method: Pendant drop shape
Temperature, K	Surface tension liquid-gas, N/m	uncertainty
293.15	0.07275	0.00084
298.15	0.07197	0.00084
303.15	0.07115	0.00083
313.15	0.06955	0.00083
323.15	0.0679	0.00082
333.15	0.06617	0.00081
343.15	0.06439	0.0008
353.15	0.06261	0.00079

System: sodium chloride + water; phases: Liquid, Air at 1 atmosphere
Property: Surface tension liquid-gas, N/m (Liquid); method: Pendant drop shape
Temperature, K	Mass fraction of sodium chloride	Surface tension liquid-gas, N/m	uncertainty
293.15	0	0.07275	0.00084
293.15	0.025	0.07342	0.00085
293.15	0.05	0.07409	0.00085
293.15	0.075	0.07485	0.00085
293.15	0.1	0.0756	0.00086
293.15	0.125	0.07654	0.00086
293.15	0.15	0.07752	0.00087
293.15	0.175	0.0787	0.00087
293.15	0.2	0.07982	0.00088
293.15	0.225	0.08103	0.00089
293.15	0.25	0.08195	0.00089
298.15	0	0.07197	0.00084
298.15	0.025	0.07263	0.00084
298.15	0.05	0.07332	0.00085
298.15	0.075	0.07415	0.00085
298.15	0.1	0.0749	0.00085
298.15	0.125	0.0758	0.00086
298.15	0.15	0.0767	0.00086
298.15	0.175	0.07782	0.00087
298.15	0.2	0.07885	0.00088
298.15	0.225	0.08032	0.00088
298.15	0.25	0.08141	0.00089
303.15	0	0.07115	0.00083
303.15	0.025	0.07183	0.00084
303.15	0.05	0.07256	0.00084
303.15	0.075	0.07335	0.00085
303.15	0.1	0.07417	0.00085
303.15	0.125	0.07509	0.00085
303.15	0.15	0.07611	0.00086
303.15	0.175	0.0772	0.00087
303.15	0.2	0.07826	0.00087
303.15	0.225	0.07977	0.00088
303.15	0.25	0.0808	0.00089
313.15	0	0.06955	0.00083
313.15	0.025	0.07033	0.00083
313.15	0.05	0.07112	0.00083
313.15	0.075	0.07195	0.00084
313.15	0.1	0.07281	0.00084
313.15	0.125	0.07386	0.00085
313.15	0.15	0.0749	0.00085
313.15	0.175	0.07598	0.00086
313.15	0.2	0.07699	0.00087
313.15	0.225	0.07854	0.00087
313.15	0.25	0.0797	0.00088
323.15	0	0.0679	0.00082
323.15	0.025	0.06893	0.00082
323.15	0.05	0.06991	0.00083
323.15	0.075	0.07062	0.00083
323.15	0.1	0.07132	0.00084
323.15	0.125	0.07246	0.00084
323.15	0.15	0.07355	0.00085
323.15	0.175	0.07468	0.00085
323.15	0.2	0.07571	0.00086
323.15	0.225	0.07732	0.00087
323.15	0.25	0.07845	0.00087
333.15	0	0.06617	0.00081
333.15	0.025	0.06721	0.00081
333.15	0.05	0.06824	0.00082
333.15	0.075	0.06921	0.00082
333.15	0.1	0.07014	0.00083
333.15	0.125	0.07118	0.00084
333.15	0.15	0.07222	0.00084
333.15	0.175	0.07343	0.00085
333.15	0.2	0.07452	0.00085
333.15	0.225	0.07601	0.00086
333.15	0.25	0.07714	0.00087

System: sodium iodide + water; phases: Liquid, Air at 1 atmosphere
Property: Surface tension liquid-gas, N/m (Liquid); method: Pendant drop shape
Temperature, K	Mass fraction of sodium iodide	Surface tension liquid-gas, N/m	uncertainty
293.15	0	0.07275	0.00084
293.15	0.05	0.07315	0.00084
293.15	0.1	0.0736	0.00085
293.15	0.15	0.07417	0.00085
293.15	0.2	0.0747	0.00085
293.15	0.25	0.07515	0.00086
293.15	0.3	0.0755	0.00086
293.15	0.35	0.07629	0.00086
293.15	0.4	0.0771	0.00087
293.15	0.45	0.07825	0.00088
293.15	0.5	0.07935	0.00088
293.15	0.55	0.08066	0.00089
298.15	0	0.07197	0.00084
298.15	0.05	0.0724	0.00084
298.15	0.1	0.073	0.00084
298.15	0.15	0.07348	0.00085
298.15	0.2	0.07396	0.00085
298.15	0.25	0.0744	0.00085
298.15	0.3	0.0749	0.00086
298.15	0.35	0.07571	0.00086
298.15	0.4	0.0765	0.00087
298.15	0.45	0.07763	0.00087
298.15	0.5	0.07885	0.00088
298.15	0.55	0.08014	0.00089
303.15	0	0.07115	0.00083
303.15	0.05	0.07166	0.00084
303.15	0.1	0.07222	0.00084
303.15	0.15	0.07279	0.00084
303.15	0.2	0.07334	0.00085
303.15	0.25	0.0738	0.00085
303.15	0.3	0.07426	0.00085
303.15	0.35	0.07508	0.00086
303.15	0.4	0.07585	0.00086
303.15	0.45	0.07703	0.00087
303.15	0.5	0.07834	0.00088
303.15	0.55	0.07968	0.00089
313.15	0	0.06955	0.00083
313.15	0.05	0.07023	0.00083
313.15	0.1	0.07081	0.00083
313.15	0.15	0.07136	0.00084
313.15	0.2	0.07185	0.00084
313.15	0.25	0.07245	0.00084
313.15	0.3	0.07292	0.00085
313.15	0.35	0.07376	0.00085
313.15	0.4	0.0746	0.00086
313.15	0.45	0.07596	0.00086
313.15	0.5	0.0773	0.00087
313.15	0.55	0.07866	0.00088
323.15	0	0.0679	0.00082
323.15	0.05	0.06878	0.00082
323.15	0.1	0.06934	0.00083
323.15	0.15	0.06981	0.00083
323.15	0.2	0.07035	0.00083
323.15	0.25	0.07095	0.00084
323.15	0.3	0.07156	0.00084
323.15	0.35	0.0725	0.00084
323.15	0.4	0.07335	0.00085
323.15	0.45	0.07477	0.00086
323.15	0.5	0.07617	0.00087
323.15	0.55	0.07768	0.00087
333.15	0	0.06617	0.00081
333.15	0.05	0.0674	0.00082
333.15	0.1	0.06793	0.00082
333.15	0.15	0.06842	0.00082
333.15	0.2	0.06886	0.00082
333.15	0.25	0.06943	0.00083
333.15	0.3	0.06996	0.00083
333.15	0.35	0.07119	0.00084
333.15	0.4	0.07224	0.00084
333.15	0.45	0.07377	0.00085
333.15	0.5	0.07504	0.00086
333.15	0.55	0.07715	0.00087

System: potassium iodide + water; phases: Liquid, Air at 1 atmosphere
Property: Surface tension liquid-gas, N/m (Liquid); method: Pendant drop shape
Temperature, K	Mass fraction of potassium iodide	Surface tension liquid-gas, N/m	uncertainty
293.15	0	0.07275	0.00084
293.15	0.01	0.07324	0.00084
293.15	0.02	0.07365	0.00085
293.15	0.03	0.07415	0.00085
293.15	0.04	0.07505	0.00085
293.15	0.05	0.07544	0.00086
293.15	0.06	0.07612	0.00086
293.15	0.07	0.07676	0.00086
293.15	0.08	0.07723	0.00087
293.15	0.09	0.07832	0.00087
293.15	0.1	0.07911	0.00088
293.15	0.11	0.08021	0.00088
293.15	0.12	0.08104	0.00089
298.15	0	0.07197	0.00084
298.15	0.01	0.07253	0.00084
298.15	0.02	0.073	0.00084
298.15	0.03	0.07357	0.00085
298.15	0.04	0.07445	0.00085
298.15	0.05	0.07479	0.00085
298.15	0.06	0.0754	0.0009
298.15	0.07	0.07604	0.00086
298.15	0.08	0.07703	0.00086
298.15	0.09	0.07768	0.00087
298.15	0.1	0.0786	0.0009
298.15	0.11	0.0795	0.0009
298.15	0.12	0.0802	0.0009
303.15	0	0.07115	0.00083
303.15	0.01	0.07181	0.00084
303.15	0.02	0.07235	0.00084
303.15	0.03	0.07285	0.00084
303.15	0.04	0.0737	0.00085
303.15	0.05	0.074	0.00085
303.15	0.06	0.07475	0.00085
303.15	0.07	0.07539	0.00086
303.15	0.08	0.07615	0.00086
303.15	0.09	0.07709	0.00086
303.15	0.1	0.078	0.00087
303.15	0.11	0.07884	0.00087
303.15	0.12	0.07951	0.00088
313.15	0	0.06955	0.00083
313.15	0.01	0.07045	0.00083
313.15	0.02	0.07105	0.00083
313.15	0.03	0.07162	0.00084
313.15	0.04	0.0724	0.00084
313.15	0.05	0.0727	0.00084
313.15	0.06	0.07339	0.00085
313.15	0.07	0.07409	0.00085
313.15	0.08	0.07496	0.00085
313.15	0.09	0.07586	0.00086
313.15	0.1	0.07683	0.00086
313.15	0.11	0.07767	0.00087
313.15	0.12	0.0784	0.00087
323.15	0	0.0679	0.00082
323.15	0.01	0.06895	0.00082
323.15	0.02	0.06969	0.00083
323.15	0.03	0.07032	0.00083
323.15	0.04	0.0712	0.00083
323.15	0.05	0.07147	0.00084
323.15	0.06	0.07215	0.00084
323.15	0.07	0.0726	0.00084
323.15	0.08	0.07386	0.00085
323.15	0.09	0.07462	0.00085
323.15	0.1	0.07566	0.00086
323.15	0.11	0.07643	0.00086
323.15	0.12	0.07716	0.00087
333.15	0	0.06617	0.00081
333.15	0.01	0.06752	0.00082
333.15	0.02	0.06836	0.00082
333.15	0.03	0.06895	0.00082
333.15	0.04	0.06975	0.00083
333.15	0.05	0.06998	0.00083
333.15	0.06	0.07053	0.00083
333.15	0.07	0.07097	0.00083
333.15	0.08	0.0727	0.00084
333.15	0.09	0.07319	0.00084
333.15	0.1	0.07436	0.00085
333.15	0.11	0.07526	0.00086
333.15	0.12	0.07586	0.00086

System: sodium bromide + water; phases: Liquid, Air at 1 atmosphere
Property: Surface tension liquid-gas, N/m (Liquid); method: Pendant drop shape
Temperature, K	Mass fraction of sodium bromide	Surface tension liquid-gas, N/m	uncertainty
293.15	0	0.07275	0.00084
293.15	0.05	0.07411	0.00085
293.15	0.1	0.0755	0.00086
293.15	0.15	0.07651	0.00086
293.15	0.2	0.0774	0.00087
293.15	0.25	0.07893	0.00088
293.15	0.3	0.08032	0.00088
293.15	0.35	0.082	0.00089
293.15	0.4	0.0835	0.0009
303.15	0	0.07115	0.00083
303.15	0.05	0.07243	0.00084
303.15	0.1	0.0735	0.00085
303.15	0.15	0.07483	0.00085
303.15	0.2	0.0754	0.00086
303.15	0.25	0.07725	0.00087
303.15	0.3	0.07862	0.00088
303.15	0.35	0.08031	0.00089
303.15	0.4	0.08193	0.00089
313.15	0	0.06955	0.00083
313.15	0.05	0.07075	0.00083
313.15	0.1	0.072	0.00084
313.15	0.15	0.07314	0.00085
313.15	0.2	0.0741	0.00085
313.15	0.25	0.07568	0.00086
313.15	0.3	0.07705	0.00087
313.15	0.35	0.07873	0.00088
313.15	0.4	0.08036	0.00089
323.15	0	0.0679	0.00082
323.15	0.05	0.06907	0.00082
323.15	0.1	0.07	0.00083
323.15	0.15	0.07136	0.00084
323.15	0.2	0.0726	0.00084
323.15	0.25	0.074	0.00085
323.15	0.3	0.07526	0.00086
323.15	0.35	0.07705	0.00087
323.15	0.4	0.07856	0.00088
333.15	0	0.06617	0.00081
333.15	0.05	0.06728	0.00082
333.15	0.1	0.0684	0.00082
333.15	0.15	0.06967	0.00083
333.15	0.2	0.0708	0.00083
333.15	0.25	0.07231	0.00084
333.15	0.3	0.0736	0.00085
333.15	0.35	0.07537	0.00086
333.15	0.4	0.07687	0.00087
343.15	0	0.06439	0.0008
343.15	0.05	0.06549	0.00081
343.15	0.1	0.0664	0.00081
343.15	0.15	0.06785	0.00082
343.15	0.2	0.0695	0.00083
343.15	0.25	0.07052	0.00083
343.15	0.3	0.07187	0.00084
343.15	0.35	0.0739	0.00085
343.15	0.4	0.07573	0.00086
353.15	0	0.06261	0.00079
353.15	0.05	0.06371	0.0008
353.15	0.1	0.06473	0.0008
353.15	0.15	0.06599	0.00081
353.15	0.2	0.06734	0.00082
353.15	0.25	0.0686	0.00082
353.15	0.3	0.07006	0.00083
353.15	0.35	0.07181	0.00084
353.15	0.4	0.07332	0.00085

System: potassium chloride + water; phases: Liquid, Air at 1 atmosphere
Property: Surface tension liquid-gas, N/m (Liquid); method: Pendant drop shape
Temperature, K	Mass fraction of potassium chloride	Surface tension liquid-gas, N/m	uncertainty
293.15	0	0.07275	0.00084
293.15	0.025	0.07332	0.00084
293.15	0.05	0.07389	0.00085
293.15	0.075	0.07452	0.00085
293.15	0.1	0.07513	0.00085
293.15	0.125	0.07561	0.00086
293.15	0.15	0.07615	0.00086
293.15	0.175	0.0771	0.00087
293.15	0.2	0.07799	0.00087
303.15	0	0.07115	0.00083
303.15	0.025	0.07183	0.00084
303.15	0.05	0.07244	0.00084
303.15	0.075	0.07309	0.00084
303.15	0.1	0.07368	0.00085
303.15	0.125	0.07444	0.00085
303.15	0.15	0.07518	0.00086
303.15	0.175	0.07574	0.00086
303.15	0.2	0.07632	0.00086
313.15	0	0.06955	0.00083
313.15	0.025	0.07027	0.00083
313.15	0.05	0.07105	0.00083
313.15	0.075	0.07166	0.00084
313.15	0.1	0.07224	0.00084
313.15	0.125	0.07288	0.00084
313.15	0.15	0.07356	0.00085
313.15	0.175	0.07418	0.00085
313.15	0.2	0.07482	0.00085
323.15	0	0.0679	0.00082
323.15	0.025	0.06858	0.00082
323.15	0.05	0.06917	0.00082
323.15	0.075	0.06984	0.00083
323.15	0.1	0.07049	0.00083
323.15	0.125	0.07112	0.00084
323.15	0.15	0.07174	0.00084
323.15	0.175	0.07236	0.00084
323.15	0.2	0.073	0.00085
333.15	0	0.06617	0.00081
333.15	0.025	0.06695	0.00081
333.15	0.05	0.0677	0.00082
333.15	0.075	0.06821	0.00082
333.15	0.1	0.06876	0.00082
333.15	0.125	0.06937	0.00083
333.15	0.15	0.06983	0.00083
333.15	0.175	0.07047	0.00083
333.15	0.2	0.0711	0.00084
343.15	0	0.06439	0.0008
343.15	0.025	0.065	0.0008
343.15	0.05	0.06555	0.00081
343.15	0.075	0.06646	0.00081
343.15	0.1	0.06735	0.00082
343.15	0.125	0.06794	0.00082
343.15	0.15	0.06847	0.00082
343.15	0.175	0.06917	0.00083
343.15	0.2	0.06981	0.00083
353.15	0	0.06261	0.00079
353.15	0.025	0.06325	0.0008
353.15	0.05	0.06391	0.0008
353.15	0.075	0.06464	0.0008
353.15	0.1	0.06537	0.00081
353.15	0.125	0.06605	0.00081
353.15	0.15	0.06673	0.00081
353.15	0.175	0.06735	0.00082
353.15	0.2	0.06812	0.00082

System: potassium bromide + water; phases: Liquid, Air at 1 atmosphere
Property: Surface tension liquid-gas, N/m (Liquid); method: Pendant drop shape
Temperature, K	Mass fraction of potassium bromide	Surface tension liquid-gas, N/m	uncertainty
293.15	0	0.07275	0.00084
293.15	0.05	0.07393	0.00085
293.15	0.1	0.07451	0.00085
293.15	0.15	0.0749	0.00085
293.15	0.2	0.0753	0.00086
293.15	0.25	0.07616	0.00086
293.15	0.3	0.07743	0.00087
293.15	0.35	0.07885	0.00088
293.15	0.4	0.0803	0.00089
303.15	0	0.07115	0.00083
303.15	0.05	0.07242	0.00084
303.15	0.1	0.07305	0.00084
303.15	0.15	0.07327	0.00085
303.15	0.2	0.07382	0.00085
303.15	0.25	0.07482	0.00086
303.15	0.3	0.07615	0.00086
303.15	0.35	0.07751	0.00087
303.15	0.4	0.07892	0.00088
313.15	0	0.06955	0.00083
313.15	0.05	0.07085	0.00083
313.15	0.1	0.07144	0.00084
313.15	0.15	0.07174	0.00084
313.15	0.2	0.07229	0.00084
313.15	0.25	0.07339	0.00085
313.15	0.3	0.07472	0.00086
313.15	0.35	0.07617	0.00086
313.15	0.4	0.07758	0.00087
323.15	0	0.0679	0.00082
323.15	0.05	0.06914	0.00082
323.15	0.1	0.06986	0.00083
323.15	0.15	0.07021	0.00083
323.15	0.2	0.07082	0.00083
323.15	0.25	0.07186	0.00084
323.15	0.3	0.07323	0.00085
323.15	0.35	0.07464	0.00086
323.15	0.4	0.07606	0.00086
333.15	0	0.06617	0.00081
333.15	0.05	0.06731	0.00082
333.15	0.1	0.06795	0.00082
333.15	0.15	0.06849	0.00082
333.15	0.2	0.06925	0.00083
333.15	0.25	0.07024	0.00083
333.15	0.3	0.07164	0.00084
333.15	0.35	0.07311	0.00085
333.15	0.4	0.07453	0.00086
343.15	0	0.06439	0.0008
343.15	0.05	0.0654	0.00081
343.15	0.1	0.06614	0.00081
343.15	0.15	0.06677	0.00081
343.15	0.2	0.06746	0.00082
343.15	0.25	0.06861	0.00082
343.15	0.3	0.06993	0.00083
343.15	0.35	0.07139	0.00084
343.15	0.4	0.07287	0.00085
353.15	0	0.06261	0.00079
353.15	0.05	0.06344	0.0008
353.15	0.1	0.06411	0.0008
353.15	0.15	0.06486	0.0008
353.15	0.2	0.06573	0.00081
353.15	0.25	0.06679	0.00082
353.15	0.3	0.06815	0.00082
353.15	0.35	0.06957	0.00083
353.15	0.4	0.07122	0.00084
