Measured thermophysical data. Densities, Viscosities, and Electrical Conductivities of Pure Anhydrous Reline and Its Mixtures with Water in the Temperature Range (293.15 to 338.15) K
Source: J. Chem. Eng. Data, 2019, 10.1021/acs.jced.9b00145
Compound 1: urea, CH4N2O, InChI=1S/CH4N2O/c2-1(3)4/h(H4,2,3,4), purity 99.5%
Compound 2: choline chloride, C5H14ClNO, InChI=1S/C5H14NO.ClH/c1-6(2,3)4-5-7;/h7H,4-5H2,1-3H3;1H/q+1;/p-1, purity 98%
Compound 3: water, H2O, InChI=1S/H2O/h1H2, purity 99.9%

System: choline chloride + urea + water; phases: Liquid
Fixed: Pressure, kPa = 100
Fixed: Solvent: Amount ratio of component to other component of binary solvent of urea = 2
Property: Mass density, kg/m3 (Liquid); method: Vibrating tube method
Temperature, K	Mole fraction of choline chloride	Mass density, kg/m3	uncertainty
293.15	0	998.24	1.01
293.15	0.031	1061.81	1.08
293.15	0.0588	1097.39	1.12
293.15	0.0833	1119.54	1.15
293.15	0.1426	1153.83	1.18
293.15	0.1875	1170.15	1.2
293.15	0.2219	1179.51	1.21
293.15	0.2497	1185.74	1.22
293.15	0.2718	1190	1.22
293.15	0.2909	1193.24	1.23
293.15	0.307	1195.56	1.23
293.15	0.3213	1197.61	1.23
293.15	0.3333	1199.55	1.24
293.15	0.3333	1199.29	1.23
298.15	0	997.08	1.01
298.15	0.031	1059.68	1.08
298.15	0.0588	1094.96	1.12
298.15	0.0833	1116.99	1.14
298.15	0.1426	1151.19	1.18
298.15	0.1875	1167.48	1.2
298.15	0.2219	1176.82	1.21
298.15	0.2497	1183.02	1.22
298.15	0.2718	1187.3	1.22
298.15	0.2909	1190.55	1.22
298.15	0.307	1192.77	1.23
298.15	0.3213	1194.87	1.23
298.15	0.3333	1196.81	1.23
298.15	0.3333	1196.55	1.23
303.15	0	995.68	1.01
303.15	0.031	1057.44	1.08
303.15	0.0588	1092.47	1.12
303.15	0.0833	1114.41	1.14
303.15	0.1426	1148.53	1.18
303.15	0.1875	1164.81	1.2
303.15	0.2219	1174.13	1.21
303.15	0.2497	1180.31	1.21
303.15	0.2718	1184.59	1.22
303.15	0.2909	1187.86	1.22
303.15	0.307	1190.08	1.22
303.15	0.3213	1192.08	1.23
303.15	0.3333	1194.09	1.23
303.15	0.3333	1193.82	1.23
308.15	0	994.06	1.01
308.15	0.031	1055.12	1.07
308.15	0.0588	1089.93	1.11
308.15	0.0833	1111.8	1.14
308.15	0.1426	1145.87	1.17
308.15	0.1875	1162.14	1.19
308.15	0.2219	1171.45	1.2
308.15	0.2497	1177.62	1.21
308.15	0.2718	1181.88	1.22
308.15	0.2909	1185.17	1.22
308.15	0.307	1187.41	1.22
308.15	0.3213	1189.4	1.22
308.15	0.3333	1191.32	1.23
308.15	0.3333	1191.05	1.23
313.15	0	992.25	1.01
313.15	0.031	1052.71	1.07
313.15	0.0588	1087.34	1.11
313.15	0.0833	1109.16	1.13
313.15	0.1426	1143.2	1.17
313.15	0.1875	1159.47	1.19
313.15	0.2219	1168.77	1.2
313.15	0.2497	1174.94	1.21
313.15	0.2718	1179.18	1.21
313.15	0.2909	1182.47	1.22
313.15	0.307	1184.72	1.22
313.15	0.3213	1186.74	1.22
313.15	0.3333	1188.66	1.22
313.15	0.3333	1188.38	1.22
318.15	0	990.24	1
318.15	0.031	1050.21	1.07
318.15	0.0588	1084.71	1.11
318.15	0.0833	1106.48	1.13
318.15	0.1426	1140.52	1.17
318.15	0.1875	1156.79	1.19
318.15	0.2219	1166.1	1.2
318.15	0.2497	1172.26	1.2
318.15	0.2718	1176.5	1.21
318.15	0.2909	1179.78	1.21
318.15	0.307	1182.03	1.22
318.15	0.3213	1184.07	1.22
318.15	0.3333	1186	1.22
318.15	0.3333	1185.73	1.22
323.15	0	988.06	1
323.15	0.031	1047.64	1.07
323.15	0.0588	1082.02	1.1
323.15	0.0833	1103.78	1.13
323.15	0.1426	1137.83	1.17
323.15	0.1875	1154.12	1.18
323.15	0.2219	1163.43	1.19
323.15	0.2497	1169.6	1.2
323.15	0.2718	1173.83	1.21
323.15	0.2909	1177.1	1.21
323.15	0.307	1179.35	1.21
323.15	0.3213	1181.39	1.21
323.15	0.3333	1183.34	1.22
323.15	0.3333	1183.06	1.22
328.15	0	985.72	1
328.15	0.031	1044.98	1.06
328.15	0.0588	1079.29	1.1
328.15	0.0833	1101.04	1.12
328.15	0.1426	1135.13	1.16
328.15	0.1875	1151.43	1.18
328.15	0.2219	1160.76	1.19
328.15	0.2497	1166.93	1.2
328.15	0.2718	1171.17	1.2
328.15	0.2909	1174.43	1.21
328.15	0.307	1176.68	1.21
328.15	0.3213	1178.72	1.21
328.15	0.3333	1180.67	1.21
328.15	0.3333	1180.39	1.21
333.15	0	983.23	1
333.15	0.031	1042.24	1.06
333.15	0.0588	1076.51	1.1
333.15	0.0833	1098.27	1.12
333.15	0.1426	1132.41	1.16
333.15	0.1875	1148.75	1.18
333.15	0.2219	1158.09	1.19
333.15	0.2497	1164.27	1.2
333.15	0.2718	1168.51	1.2
333.15	0.2909	1171.78	1.2
333.15	0.307	1174.02	1.21
333.15	0.3213	1176.05	1.21
333.15	0.3333	1178.01	1.21
333.15	0.3333	1177.73	1.21
338.15	0	980.59	0.99
338.15	0.031	1038.73	1.06
338.15	0.0588	1073.68	1.09
338.15	0.0833	1095.46	1.12
338.15	0.1426	1129.68	1.16
338.15	0.1875	1146.06	1.17
338.15	0.2219	1155.42	1.19
338.15	0.2497	1161.61	1.19
338.15	0.2718	1165.85	1.2
338.15	0.2909	1169.13	1.2
338.15	0.307	1171.36	1.2
338.15	0.3213	1173.4	1.21
338.15	0.3333	1175.36	1.21
338.15	0.3333	1175.07	1.21

System: choline chloride + urea + water; phases: Liquid
Fixed: Pressure, kPa = 100
Fixed: Solvent: Amount ratio of component to other component of binary solvent of urea = 2
Property: Viscosity, Pa*s (Liquid); method: Falling or rolling sphere viscometry
Temperature, K	Mole fraction of choline chloride	Viscosity, Pa*s	uncertainty
293.15	0.031	0.001604	3.5e-05
293.15	0.0588	0.00258	5.7e-05
293.15	0.0833	0.00398	9e-05
293.15	0.1426	0.01218	0.00029
293.15	0.1875	0.03029	0.00072
293.15	0.2219	0.06716	0.00164
293.15	0.2497	0.1409	0.0055
293.15	0.2718	0.2666	0.0153
293.15	0.2909	0.4762	0.0365
293.15	0.307	0.889	0.0866
293.15	0.3213	1.502	0.173
298.15	0.031	0.001439	3.1e-05
298.15	0.0588	0.002298	5e-05
298.15	0.0833	0.003504	7.6e-05
298.15	0.1426	0.01036	0.00023
298.15	0.1875	0.02456	0.00054
298.15	0.2219	0.05156	0.00109
298.15	0.2497	0.1017	0.0031
298.15	0.2718	0.182	0.0082
298.15	0.2909	0.3115	0.0194
298.15	0.307	0.5474	0.0445
298.15	0.3213	0.8901	0.0869
298.15	0.3333	1.398	0.157
303.15	0.031	0.001297	2.8e-05
303.15	0.0588	0.002059	4.5e-05
303.15	0.0833	0.003107	6.8e-05
303.15	0.1426	0.008877	0.000194
303.15	0.1875	0.02016	0.00044
303.15	0.2219	0.04035	0.0009
303.15	0.2497	0.07613	0.0019
303.15	0.2718	0.13242	0.00488
303.15	0.2909	0.2148	0.0107
303.15	0.307	0.3642	0.0246
303.15	0.3213	0.5687	0.0469
303.15	0.3333	0.8555	0.0823
308.15	0.031	0.001176	2.6e-05
308.15	0.0588	0.001854	4e-05
308.15	0.0833	0.002773	6e-05
308.15	0.1426	0.007606	0.000166
308.15	0.1875	0.01667	0.00037
308.15	0.2219	0.03195	0.00071
308.15	0.2497	0.05773	0.00125
308.15	0.2718	0.09896	0.00296
308.15	0.2909	0.1551	0.0063
308.15	0.307	0.2498	0.0137
308.15	0.3213	0.3781	0.026
308.15	0.3333	0.5463	0.0443
313.15	0.031	0.001071	2.3e-05
313.15	0.0588	0.00168	3.7e-05
313.15	0.0833	0.002492	5.4e-05
313.15	0.1426	0.006602	0.000144
313.15	0.1875	0.014	0.00031
313.15	0.2219	0.02587	0.00057
313.15	0.2497	0.04494	0.001
313.15	0.2718	0.07496	0.00185
313.15	0.2909	0.1136	0.0038
313.15	0.307	0.1755	0.0078
313.15	0.3213	0.2574	0.0144
313.15	0.3333	0.3571	0.0239
318.15	0.031	0.000981	2.1e-05
318.15	0.0588	0.00153	3.3e-05
318.15	0.0833	0.002251	4.9e-05
318.15	0.1426	0.005803	0.000127
318.15	0.1875	0.01196	0.00026
318.15	0.2219	0.02136	0.00047
318.15	0.2497	0.03581	0.00079
318.15	0.2718	0.05809	0.00126
318.15	0.2909	0.08434	0.00226
318.15	0.307	0.1257	0.0045
318.15	0.3213	0.1803	0.0081
318.15	0.3333	0.2437	0.0132
323.15	0.031	0.000901	2e-05
323.15	0.0588	0.001399	3e-05
323.15	0.0833	0.002043	4.4e-05
323.15	0.1426	0.005156	0.000112
323.15	0.1875	0.01037	0.00023
323.15	0.2219	0.01797	0.00039
323.15	0.2497	0.02921	0.00064
323.15	0.2718	0.04352	0.00097
323.15	0.2909	0.06194	0.00138
323.15	0.307	0.09319	0.00267
323.15	0.3213	0.1297	0.0047
323.15	0.3333	0.1697	0.0074
328.15	0.031	0.000833	1.8e-05
328.15	0.0588	0.001286	2.8e-05
328.15	0.0833	0.001865	4.1e-05
328.15	0.1426	0.00461	0.0001
328.15	0.1875	0.009056	0.000198
328.15	0.2219	0.0153	0.00034
328.15	0.2497	0.02416	0.00053
328.15	0.2718	0.03598	0.00079
328.15	0.2909	0.04993	0.00111
328.15	0.307	0.07214	0.00173
328.15	0.3213	0.09621	0.00282
328.15	0.3333	0.1256	0.0045
333.15	0.031	0.000773	1.7e-05
333.15	0.0588	0.001185	2.6e-05
333.15	0.0833	0.001708	3.7e-05
333.15	0.1426	0.004161	9.1e-05
333.15	0.1875	0.00798	0.00017
333.15	0.2219	0.01318	0.00029
333.15	0.2497	0.0203	0.00045
333.15	0.2718	0.02945	0.00065
333.15	0.2909	0.04008	0.00089
333.15	0.307	0.0563	0.00121
333.15	0.3213	0.07332	0.00178
333.15	0.3333	0.09324	0.00268
338.15	0.031	0.000719	1.6e-05
338.15	0.0588	0.001098	2.4e-05
338.15	0.0833	0.001572	3.4e-05
338.15	0.1426	0.003739	8.1e-05
338.15	0.1875	0.007031	0.000152
338.15	0.2219	0.01137	0.00025
338.15	0.2497	0.01711	0.00037
338.15	0.2718	0.02447	0.00054
338.15	0.2909	0.03265	0.00072
338.15	0.307	0.04473	0.001
338.15	0.3213	0.05716	0.00123
338.15	0.3333	0.07134	0.00172

System: choline chloride + urea + water; phases: Liquid
Fixed: Pressure, kPa = 100
Fixed: Solvent: Amount ratio of component to other component of binary solvent of urea = 2
Property: Electrical conductivity, S/m (Liquid); method: Alternating current cell with electrodes
Temperature, K	Mole fraction of choline chloride	Electrical conductivity, S/m	uncertainty
293.15	0.031	6.547	0.098
293.15	0.0588	7.021	0.105
293.15	0.0833	6.035	0.091
293.15	0.1426	2.864	0.043
293.15	0.1875	1.355	0.02
293.15	0.2219	0.675	0.01
293.15	0.2497	0.356	0.005
293.15	0.2718	0.196	0.003
293.15	0.2909	0.111	0.002
293.15	0.307	0.063	0.001
293.15	0.3213	0.039	0.001
293.15	0.3333	0.024	0.001
298.15	0.031	7.251	0.109
298.15	0.0588	7.797	0.117
298.15	0.0833	6.757	0.101
298.15	0.1426	3.319	0.05
298.15	0.1875	1.641	0.025
298.15	0.2219	0.856	0.013
298.15	0.2497	0.473	0.007
298.15	0.2718	0.272	0.004
298.15	0.2909	0.162	0.003
298.15	0.307	0.096	0.002
298.15	0.3213	0.063	0.001
298.15	0.3333	0.04	0.001
303.15	0.031	7.974	0.12
303.15	0.0588	8.598	0.129
303.15	0.0833	7.51	0.113
303.15	0.1426	3.806	0.057
303.15	0.1875	1.958	0.029
303.15	0.2219	1.067	0.016
303.15	0.2497	0.607	0.009
303.15	0.2718	0.369	0.006
303.15	0.2909	0.23	0.004
303.15	0.307	0.142	0.002
303.15	0.3213	0.096	0.002
303.15	0.3333	0.064	0.001
308.15	0.031	8.717	0.131
308.15	0.0588	9.427	0.141
308.15	0.0833	8.291	0.124
308.15	0.1426	4.324	0.065
308.15	0.1875	2.306	0.035
308.15	0.2219	1.307	0.02
308.15	0.2497	0.781	0.012
308.15	0.2718	0.487	0.007
308.15	0.2909	0.315	0.005
308.15	0.307	0.202	0.003
308.15	0.3213	0.142	0.002
308.15	0.3333	0.098	0.002
313.15	0.031	9.479	0.142
313.15	0.0588	10.28	0.15
313.15	0.0833	9.099	0.137
313.15	0.1426	4.872	0.073
313.15	0.1875	2.683	0.04
313.15	0.2219	1.578	0.024
313.15	0.2497	0.974	0.015
313.15	0.2718	0.628	0.01
313.15	0.2909	0.421	0.006
313.15	0.307	0.28	0.004
313.15	0.3213	0.203	0.003
313.15	0.3333	0.144	0.002
318.15	0.031	10.27	0.15
318.15	0.0588	11.14	0.17
318.15	0.0833	9.976	0.15
318.15	0.1426	5.445	0.082
318.15	0.1875	3.09	0.046
318.15	0.2219	1.875	0.028
318.15	0.2497	1.193	0.018
318.15	0.2718	0.794	0.012
318.15	0.2909	0.548	0.008
318.15	0.307	0.376	0.006
318.15	0.3213	0.281	0.004
318.15	0.3333	0.205	0.003
323.15	0.031	11.07	0.17
323.15	0.0588	12.04	0.18
323.15	0.0833	10.82	0.16
323.15	0.1426	6.045	0.091
323.15	0.1875	3.526	0.053
323.15	0.2219	2.207	0.033
323.15	0.2497	1.44	0.022
323.15	0.2718	0.985	0.015
323.15	0.2909	0.699	0.011
323.15	0.307	0.493	0.007
323.15	0.3213	0.377	0.006
323.15	0.3333	0.283	0.004
328.15	0.031	11.9	0.18
328.15	0.0588	12.95	0.19
328.15	0.0833	11.68	0.18
328.15	0.1426	6.671	0.1
328.15	0.1875	3.989	0.06
328.15	0.2219	2.569	0.039
328.15	0.2497	1.714	0.026
328.15	0.2718	1.203	0.018
328.15	0.2909	0.875	0.013
328.15	0.307	0.633	0.01
328.15	0.3213	0.494	0.008
328.15	0.3333	0.379	0.006
333.15	0.031	12.74	0.19
333.15	0.0588	13.88	0.21
333.15	0.0833	12.58	0.19
333.15	0.1426	7.32	0.11
333.15	0.1875	4.485	0.067
333.15	0.2219	2.964	0.045
333.15	0.2497	2.015	0.03
333.15	0.2718	1.449	0.022
333.15	0.2909	1.076	0.016
333.15	0.307	0.796	0.012
333.15	0.3213	0.634	0.01
333.15	0.3333	0.497	0.008
338.15	0.031	13.63	0.2
338.15	0.0588	14.84	0.22
338.15	0.0833	13.49	0.2
338.15	0.1426	7.991	0.12
338.15	0.1875	4.995	0.075
338.15	0.2219	3.386	0.051
338.15	0.2497	2.343	0.035
338.15	0.2718	1.721	0.026
338.15	0.2909	1.304	0.02
338.15	0.307	0.983	0.015
338.15	0.3213	0.798	0.012
338.15	0.3333	0.636	0.01

System: choline chloride + urea; phases: Liquid, Crystal of unknown type
Property: Solid-liquid equilibrium temperature, K (Liquid); method: DTA
Mole fraction of choline chloride	Pressure, kPa	Solid-liquid equilibrium temperature, K	uncertainty
0.3333	100	293	1

System: choline chloride + urea; phases: Liquid
Fixed: Pressure, kPa = 100
Fixed: Mole fraction of choline chloride = 0.3333
Property: Mass density, kg/m3 (Liquid); method: Vibrating tube method
Temperature, K	Mass density, kg/m3	uncertainty
293.15	1199.42	1.25
298.15	1196.68	1.25
303.15	1193.96	1.25
308.15	1191.19	1.24
313.15	1188.52	1.24
318.15	1185.87	1.24
323.15	1183.2	1.23
328.15	1180.53	1.23
333.15	1177.87	1.23
338.15	1175.22	1.22

System: choline chloride + urea; phases: Liquid
Fixed: Pressure, kPa = 100
Fixed: Mole fraction of choline chloride = 0.3333
Property: Viscosity, Pa*s (Liquid); method: Falling or rolling sphere viscometry
Temperature, K	Viscosity, Pa*s	uncertainty
298.15	1.398	0.157
303.15	0.8555	0.0823
308.15	0.5463	0.0443
313.15	0.3571	0.0239
318.15	0.2437	0.0132
323.15	0.1697	0.0074
328.15	0.1256	0.0045
333.15	0.09324	0.00268
338.15	0.07134	0.00172

System: choline chloride + urea; phases: Liquid
Fixed: Pressure, kPa = 100
Fixed: Mole fraction of choline chloride = 0.3333
Property: Viscosity, Pa*s (Liquid); method: Falling or rolling sphere viscometry
Temperature, K	Viscosity, Pa*s	uncertainty
293.15	2.4e-05	1e-06
298.15	4e-05	1e-06
303.15	6.4e-05	1e-06
308.15	9.8e-05	2e-06
313.15	0.000144	3e-06
318.15	0.000205	4e-06
323.15	0.000283	5e-06
328.15	0.000379	7e-06
333.15	0.000497	9e-06
338.15	0.000636	1.1e-05
