Measured thermophysical data. Vapor Pressures and Vapor Liquid Critical Properties of Four Pentene Isomers
Source: J. Chem. Eng. Data, 2017, 10.1021/acs.jced.7b00148
Compound 1: 1-pentene, C5H10, InChI=1S/C5H10/c1-3-5-4-2/h3H,1,4-5H2,2H3, purity 99%
Compound 2: 2-methyl-1-butene, C5H10, InChI=1S/C5H10/c1-4-5(2)3/h2,4H2,1,3H3, purity 99%
Compound 3: 3-methyl-1-butene, C5H10, InChI=1S/C5H10/c1-4-5(2)3/h4-5H,1H2,2-3H3, purity 99%
Compound 4: 2-methyl-2-butene, C5H10, InChI=1S/C5H10/c1-4-5(2)3/h4H,1-3H3, purity 99%

System: 1-pentene; phases: Liquid, Gas
Property: Critical temperature, K (Liquid); method: Visual observation in an unstirred cell
Critical temperature, K	uncertainty
466.59	0.24

System: 1-pentene; phases: Liquid, Gas
Property: Critical pressure, kPa (Liquid); method: Direct measurement
Critical pressure, kPa	uncertainty
3585	26

System: 1-pentene; phases: Liquid, Gas
Property: Critical density, kg/m3 (Liquid); method: Derived from PVT data
Critical density, kg/m3	uncertainty
243.5	10.2

System: 1-pentene; phases: Liquid, Gas
Property: Vapor or sublimation pressure, kPa (Liquid); method: Closed cell (Static) method
Temperature, K	Vapor or sublimation pressure, kPa	uncertainty
297.86	84	2
327.08	216	3
336.14	279	3
346.92	372	4
356.19	468	4
356.89	474	4
366.77	600	5
377.34	757	5
387.42	933	6
394.67	1085	7
399.61	1193	7
403.03	1269	8
411.19	1472	9
420.96	1752	10
426.1	1915	11
436.17	2255	12
439.5	2373	13
445.74	2622	14
452.59	2902	15
456.52	3081	16
457.93	3152	16
460.95	3294	17
462.87	3389	17
463.77	3443	18
466.59	3585	18

System: 2-methyl-1-butene; phases: Liquid, Gas
Property: Critical temperature, K (Liquid); method: Visual observation in an unstirred cell
Critical temperature, K	uncertainty
467.9	0.24

System: 2-methyl-1-butene; phases: Liquid, Gas
Property: Critical pressure, kPa (Liquid); method: Direct measurement
Critical pressure, kPa	uncertainty
3652	26

System: 2-methyl-1-butene; phases: Liquid, Gas
Property: Critical density, kg/m3 (Liquid); method: Derived from PVT data
Critical density, kg/m3	uncertainty
245.4	10.2

System: 2-methyl-1-butene; phases: Liquid, Gas
Property: Vapor or sublimation pressure, kPa (Liquid); method: Closed cell (Static) method
Temperature, K	Vapor or sublimation pressure, kPa	uncertainty
299.27	85	2
323.65	190	3
341.18	312	3
353.77	431	4
366.06	579	5
368.18	608	5
375.63	717	5
386.21	898	6
398.5	1149	7
409.28	1402	8
419.65	1695	10
429.02	1985	11
431.24	2065	11
438.39	2316	13
448.46	2723	14
457.43	3118	16
460.55	3271	17
463.37	3409	17
465.49	3523	18
467.9	3652	19

System: 3-methyl-1-butene; phases: Liquid, Gas
Property: Critical temperature, K (Liquid); method: Visual observation in an unstirred cell
Critical temperature, K	uncertainty
451.38	0.24

System: 3-methyl-1-butene; phases: Liquid, Gas
Property: Critical pressure, kPa (Liquid); method: Direct measurement
Critical pressure, kPa	uncertainty
3463	26

System: 3-methyl-1-butene; phases: Liquid, Gas
Property: Critical density, kg/m3 (Liquid); method: Derived from PVT data
Critical density, kg/m3	uncertainty
239.3	10.2

System: 3-methyl-1-butene; phases: Liquid, Gas
Property: Vapor or sublimation pressure, kPa (Liquid); method: Closed cell (Static) method
Temperature, K	Vapor or sublimation pressure, kPa	uncertainty
302.9	140	3
323.75	264	3
336.44	374	4
350.65	533	4
358.2	635	5
371.6	855	6
382.88	1073	7
390.84	1255	8
399	1458	9
405.25	1632	9
413.2	1874	11
420.56	2113	12
431.03	2509	13
439.9	2885	15
445.14	3138	16
447.76	3260	17
450.48	3407	18
451.38	3463	18

System: 2-methyl-2-butene; phases: Liquid, Gas
Property: Critical temperature, K (Liquid); method: Visual observation in an unstirred cell
Critical temperature, K	uncertainty
477.47	0.24

System: 2-methyl-2-butene; phases: Liquid, Gas
Property: Critical pressure, kPa (Liquid); method: Direct measurement
Critical pressure, kPa	uncertainty
3686	26

System: 2-methyl-2-butene; phases: Liquid, Gas
Property: Critical density, kg/m3 (Liquid); method: Derived from PVT data
Critical density, kg/m3	uncertainty
246.6	10.2

System: 2-methyl-2-butene; phases: Liquid, Gas
Property: Vapor or sublimation pressure, kPa (Liquid); method: Closed cell (Static) method
Temperature, K	Vapor or sublimation pressure, kPa	uncertainty
307.63	87	2
325.06	157	3
340.98	249	3
350.14	321	3
364.85	463	4
372.91	560	5
380.97	673	5
389.83	811	6
397.89	954	6
408.17	1167	7
422.67	1524	9
430.83	1758	10
439.09	2021	11
448.36	2349	13
453.3	2541	14
454.71	2600	14
461.46	2884	15
464.08	3006	16
470.72	3327	17
471.73	3377	17
473.04	3442	18
475.16	3556	18
477.47	3686	19
