Measured thermophysical data. Measurement of the Solubility of Diclazuril and Discussion of the Effect of the Cosolvent
Source: J. Chem. Eng. Data, 2019, 10.1021/acs.jced.9b00353
Compound 1: methanol, CH4O, InChI=1S/CH4O/c1-2/h2H,1H3, purity 99.6%
Compound 2: ethanol, C2H6O, InChI=1S/C2H6O/c1-2-3/h3H,2H2,1H3, purity 99.7%
Compound 3: propan-1-ol, C3H8O, InChI=1S/C3H8O/c1-2-3-4/h4H,2-3H2,1H3, purity 99.5%
Compound 4: propan-2-ol, C3H8O, InChI=1S/C3H8O/c1-3(2)4/h3-4H,1-2H3, purity 99.5%
Compound 5: butan-1-ol, C4H10O, InChI=1S/C4H10O/c1-2-3-4-5/h5H,2-4H2,1H3, purity 99.7%
Compound 6: acetone, C3H6O, InChI=1S/C3H6O/c1-3(2)4/h1-2H3, purity 99.5%
Compound 7: ethyl acetate, C4H8O2, InChI=1S/C4H8O2/c1-3-6-4(2)5/h3H2,1-2H3, purity 99.5%
Compound 8: acetonitrile, C2H3N, InChI=1S/C2H3N/c1-2-3/h1H3, purity 99.4%
Compound 9: dimethylformamide, C3H7NO, InChI=1S/C3H7NO/c1-4(2)3-5/h3H,1-2H3, purity 99.5%
Compound 10: toluene, C7H8, InChI=1S/C7H8/c1-7-5-3-2-4-6-7/h2-6H,1H3, purity 99.4%
Compound 11: diclazuril, C17H9Cl3N4O2, InChI=1S/C17H9Cl3N4O2/c18-10-3-1-9(2-4-10)12(7-21)16-13(19)5-11(6-14(16)20)24-17(26)23-15(25)8-22-24/h1-6,8,12H,(H,23,25,26)

System: diclazuril + methanol; phases: Liquid, Crystal
Fixed: Pressure, kPa = 101.2
Property: Mole fraction of diclazuril (Liquid); method: Chromatography
Temperature, K	Mole fraction of diclazuril	uncertainty
283.15	0.002326	0.000113
288.15	0.002703	0.000131
293.15	0.003159	0.000153
298.15	0.003695	0.000179
303.15	0.00426	0.000206
308.15	0.004937	0.000239
313.15	0.005657	0.000274
318.15	0.006457	0.000313
323.15	0.007374	0.000357

System: diclazuril + ethanol; phases: Liquid, Crystal
Fixed: Pressure, kPa = 101.2
Property: Mole fraction of diclazuril (Liquid); method: Chromatography
Temperature, K	Mole fraction of diclazuril	uncertainty
283.15	0.001679	8.1e-05
288.15	0.002045	9.9e-05
293.15	0.002446	0.000119
298.15	0.00293	0.000142
303.15	0.003475	0.000168
308.15	0.004065	0.000197
313.15	0.004762	0.000231
318.15	0.00555	0.000269
323.15	0.006413	0.000311

System: diclazuril + propan-1-ol; phases: Liquid, Crystal
Fixed: Pressure, kPa = 101.2
Property: Mole fraction of diclazuril (Liquid); method: Chromatography
Temperature, K	Mole fraction of diclazuril	uncertainty
283.15	0.001177	5.7e-05
288.15	0.001456	7.1e-05
293.15	0.001786	8.7e-05
298.15	0.002213	0.000107
303.15	0.002683	0.00013
308.15	0.003206	0.000155
313.15	0.00383	0.000186
318.15	0.004596	0.000223
323.15	0.005435	0.000263

System: diclazuril + propan-2-ol; phases: Liquid, Crystal
Fixed: Pressure, kPa = 101.2
Property: Mole fraction of diclazuril (Liquid); method: Chromatography
Temperature, K	Mole fraction of diclazuril	uncertainty
283.15	0.0007983	3.87e-05
288.15	0.001022	5e-05
293.15	0.001289	6.2e-05
298.15	0.001629	7.9e-05
303.15	0.002039	9.9e-05
308.15	0.002514	0.000122
313.15	0.003079	0.000149
318.15	0.00374	0.000181
323.15	0.004552	0.000221

System: diclazuril + acetone; phases: Liquid, Crystal
Fixed: Pressure, kPa = 101.2
Property: Mole fraction of diclazuril (Liquid); method: Chromatography
Temperature, K	Mole fraction of diclazuril	uncertainty
283.15	0.01202	0.00058
288.15	0.014	0.00068
293.15	0.01615	0.00078
298.15	0.01859	0.0009
303.15	0.02152	0.00104
308.15	0.0247	0.0012
313.15	0.02811	0.00136
318.15	0.03203	0.00155
323.15	0.0361	0.00175

System: diclazuril + acetonitrile; phases: Liquid, Crystal
Fixed: Pressure, kPa = 101.2
Property: Mole fraction of diclazuril (Liquid); method: Chromatography
Temperature, K	Mole fraction of diclazuril	uncertainty
283.15	0.00825	0.0004
288.15	0.009716	0.000471
293.15	0.01146	0.00056
298.15	0.01351	0.00065
303.15	0.01573	0.00076
308.15	0.01829	0.00089
313.15	0.02106	0.00102
318.15	0.02435	0.00118
323.15	0.02792	0.00135

System: diclazuril + ethyl acetate; phases: Liquid, Crystal
Fixed: Pressure, kPa = 101.2
Property: Mole fraction of diclazuril (Liquid); method: Chromatography
Temperature, K	Mole fraction of diclazuril	uncertainty
283.15	0.005201	0.000252
288.15	0.00634	0.000307
293.15	0.007703	0.000373
298.15	0.009245	0.000448
303.15	0.01112	0.00054
308.15	0.0132	0.00064
313.15	0.01573	0.00076
318.15	0.01851	0.0009
323.15	0.02171	0.00105

System: diclazuril + toluene; phases: Liquid, Crystal
Fixed: Pressure, kPa = 101.2
Property: Mole fraction of diclazuril (Liquid); method: Chromatography
Temperature, K	Mole fraction of diclazuril	uncertainty
283.15	0.0002629	1.28e-05
288.15	0.0003707	1.8e-05
293.15	0.0005197	2.52e-05
298.15	0.0006921	3.36e-05
303.15	0.0009228	4.48e-05
308.15	0.001227	6e-05
313.15	0.001619	7.9e-05
318.15	0.002109	0.000102
323.15	0.002701	0.000131

System: diclazuril + dimethylformamide; phases: Liquid, Crystal
Fixed: Pressure, kPa = 101.2
Property: Mole fraction of diclazuril (Liquid); method: Chromatography
Temperature, K	Mole fraction of diclazuril	uncertainty
283.15	0.02537	0.00123
288.15	0.02804	0.00136
293.15	0.03087	0.0015
298.15	0.03389	0.00164
303.15	0.03724	0.0018
308.15	0.04069	0.00197
313.15	0.04441	0.00215
318.15	0.04839	0.00234
323.15	0.05274	0.00256

System: diclazuril + butan-1-ol; phases: Liquid, Crystal
Fixed: Pressure, kPa = 101.2
Property: Mole fraction of diclazuril (Liquid); method: Chromatography
Temperature, K	Mole fraction of diclazuril	uncertainty
283.15	0.000481	2.33e-05
288.15	0.0006388	3.1e-05
293.15	0.000851	4.13e-05
298.15	0.001099	5.3e-05
303.15	0.001417	6.9e-05
308.15	0.001815	8.8e-05
313.15	0.002285	0.000111
318.15	0.002884	0.00014
323.15	0.003602	0.000175

System: diclazuril + dimethylformamide + ethanol; phases: Liquid, Crystal
Fixed: Pressure, kPa = 101.1
Property: Mole fraction of diclazuril (Liquid); method: Chromatography
Solvent: Mass fraction of dimethylformamide	Temperature, K	Mole fraction of diclazuril	uncertainty
1	283.15	0.02537	0.00123
1	288.15	0.02804	0.00136
1	293.15	0.03087	0.0015
1	298.15	0.03389	0.00164
1	303.15	0.03724	0.0018
1	308.15	0.04069	0.00197
1	313.15	0.04441	0.00215
1	318.15	0.04839	0.00234
1	323.15	0.05274	0.00256
0.8	283.15	0.01875	0.00101
0.8	288.15	0.021	0.00115
0.8	293.15	0.02338	0.00127
0.8	298.15	0.02613	0.0014
0.8	303.15	0.02892	0.00154
0.8	308.15	0.03202	0.00169
0.8	313.15	0.03534	0.00186
0.8	318.15	0.03867	0.00202
0.8	323.15	0.04252	0.00223
0.6	283.15	0.01291	0.00114
0.6	288.15	0.01484	0.00118
0.6	293.15	0.01668	0.0013
0.6	298.15	0.01885	0.00144
0.6	303.15	0.02121	0.00158
0.6	308.15	0.02365	0.00173
0.6	313.15	0.02651	0.0019
0.6	318.15	0.02934	0.00206
0.6	323.15	0.03259	0.00205
0.4	283.15	0.00798	0.000742
0.4	288.15	0.009257	0.000913
0.4	293.15	0.01061	0.00101
0.4	298.15	0.01222	0.00113
0.4	303.15	0.01392	0.00127
0.4	308.15	0.01582	0.0014
0.4	313.15	0.01788	0.00156
0.4	318.15	0.02011	0.00171
0.4	323.15	0.02246	0.00226
0.2	283.15	0.004134	0.000322
0.2	288.15	0.004896	0.000374
0.2	293.15	0.005764	0.00043
0.2	298.15	0.006747	0.000495
0.2	303.15	0.007819	0.000564
0.2	308.15	0.009002	0.000641
0.2	313.15	0.01036	0.00073
0.2	318.15	0.01181	0.00082
0.2	323.15	0.01341	0.00091
0	283.15	0.001679	8.1e-05
0	288.15	0.002045	9.9e-05
0	293.15	0.002446	0.000119
0	298.15	0.00293	0.000142
0	303.15	0.003475	0.000168
0	308.15	0.004065	0.000197
0	313.15	0.004762	0.000231
0	318.15	0.00555	0.000269
0	323.15	0.006413	0.000311

System: diclazuril + acetone + ethanol; phases: Liquid, Crystal
Fixed: Pressure, kPa = 101.1
Property: Mole fraction of diclazuril (Liquid); method: Chromatography
Solvent: Mass fraction of acetone	Temperature, K	Mole fraction of diclazuril	uncertainty
1	283.15	0.01202	0.00058
1	288.15	0.014	0.00068
1	293.15	0.01615	0.00078
1	298.15	0.01859	0.0009
1	303.15	0.02152	0.00104
1	308.15	0.0247	0.0012
1	313.15	0.02811	0.00136
1	318.15	0.03203	0.00155
1	323.15	0.0361	0.00175
0.8	283.15	0.009561	0.000494
0.8	288.15	0.01116	0.00058
0.8	293.15	0.0129	0.00067
0.8	298.15	0.01488	0.00077
0.8	303.15	0.01726	0.0009
0.8	308.15	0.01983	0.00103
0.8	313.15	0.02262	0.00117
0.8	318.15	0.02581	0.00134
0.8	323.15	0.02915	0.00154
0.6	283.15	0.007324	0.000537
0.6	288.15	0.008576	0.000574
0.6	293.15	0.009939	0.000662
0.6	298.15	0.0115	0.00076
0.6	303.15	0.01336	0.00088
0.6	308.15	0.01538	0.00101
0.6	313.15	0.01759	0.00115
0.6	318.15	0.02011	0.00131
0.6	323.15	0.02277	0.00143
0.4	283.15	0.00528	0.000347
0.4	288.15	0.006213	0.000471
0.4	293.15	0.007229	0.000544
0.4	298.15	0.008403	0.000626
0.4	303.15	0.009791	0.000725
0.4	308.15	0.0113	0.00083
0.4	313.15	0.01296	0.00095
0.4	318.15	0.01487	0.00108
0.4	323.15	0.01689	0.00143
0.2	283.15	0.003405	0.000219
0.2	288.15	0.004043	0.000257
0.2	293.15	0.00474	0.000299
0.2	298.15	0.005556	0.000347
0.2	303.15	0.006507	0.000404
0.2	308.15	0.00754	0.000466
0.2	313.15	0.008703	0.000534
0.2	318.15	0.01003	0.00061
0.2	323.15	0.01145	0.0007
0	283.15	0.001679	8.1e-05
0	288.15	0.002045	9.9e-05
0	293.15	0.002446	0.000119
0	298.15	0.00293	0.000142
0	303.15	0.003475	0.000168
0	308.15	0.004065	0.000197
0	313.15	0.004762	0.000231
0	318.15	0.00555	0.000269
0	323.15	0.006413	0.000311
