Measured thermophysical data. Phase Behavior in Aqueous Two-Phase Systems Based-Ionic Liquid Composed of 1-Butyl-3-methylimidazolium Tetrafluoroborate and Copper Sulfate in Different Temperatures
Source: J. Chem. Eng. Data, 2019, 10.1021/acs.jced.8b01076
Compound 1: 1-butyl-3-methylimidazolium tetrafluoroborate, C8H15BF4N2, InChI=1S/C8H15N2.BF4/c1-3-4-5-10-7-6-9(2)8-10;2-1(3,4)5/h6-8H,3-5H2,1-2H3;/q+1;-1, purity 98.7%
Compound 2: copper sulfate, CuO4S, InChI=1S/Cu.H2O4S/c;1-5(2,3)4/h;(H2,1,2,3,4)/q+2;/p-2, purity 99%
Compound 3: water, H2O, InChI=1S/H2O/h1H2, purity 99.9%

System: water + 1-butyl-3-methylimidazolium tetrafluoroborate + copper sulfate; phases: Liquid mixture 1, Liquid mixture 2
Fixed: Pressure, kPa = 94
Property: Mass fraction of copper sulfate (Liquid mixture 1); method: Titration method
Temperature, K	Mass fraction of 1-butyl-3-methylimidazolium tetrafluoroborate	Mass fraction of copper sulfate	uncertainty
283.15	0.6966	0.0006	0.0006
283.15	0.6012	0.0008	0.0008
283.15	0.5287	0.001	0.001
283.15	0.4983	0.0012	0.0012
283.15	0.4713	0.0013	0.0013
283.15	0.4464	0.0017	0.0017
283.15	0.4245	0.0018	0.0018
283.15	0.3862	0.0021	0.0021
283.15	0.347	0.0026	0.0026
283.15	0.3198	0.0034	0.0034
283.15	0.2963	0.0043	0.0043
283.15	0.257	0.0064	0.0064
283.15	0.2344	0.0093	0.0093
283.15	0.2053	0.0133	0.0102
283.15	0.1747	0.021	0.01
283.15	0.1501	0.0271	0.0104
283.15	0.133	0.0326	0.0106
283.15	0.1178	0.0376	0.0107
283.15	0.1048	0.0428	0.0115
283.15	0.0967	0.0483	0.0115
283.15	0.0862	0.0549	0.0147
283.15	0.0828	0.0597	0.0145
283.15	0.0765	0.0665	0.0157
283.15	0.0702	0.0758	0.0176
283.15	0.0684	0.0814	0.018
283.15	0.0647	0.0879	0.019
283.15	0.0598	0.0928	0.0186
283.15	0.0546	0.1013	0.0185
283.15	0.0494	0.1079	0.0204
283.15	0.0471	0.1115	0.0181
283.15	0.0448	0.1187	0.0202
283.15	0.0426	0.1217	0.02
283.15	0.0424	0.1244	0.0217
283.15	0.0399	0.1283	0.0212
283.15	0.0372	0.1322	0.0226
298.15	0.6966	0.0006	0.0006
298.15	0.6681	0.0012	0.0012
298.15	0.6418	0.0018	0.0018
298.15	0.6175	0.0023	0.0023
298.15	0.593	0.0032	0.0032
298.15	0.5684	0.0047	0.0047
298.15	0.5476	0.0055	0.0055
298.15	0.5282	0.0063	0.0063
298.15	0.5102	0.007	0.007
298.15	0.4749	0.0091	0.0091
298.15	0.4442	0.0109	0.01
298.15	0.4163	0.0129	0.01
298.15	0.3908	0.015	0.01
298.15	0.3698	0.0162	0.01
298.15	0.3402	0.0186	0.0101
298.15	0.3218	0.0206	0.0101
298.15	0.2976	0.0231	0.0101
298.15	0.2777	0.0248	0.0101
298.15	0.2496	0.0296	0.0102
298.15	0.2202	0.0359	0.0103
298.15	0.1946	0.0416	0.0104
298.15	0.1706	0.0486	0.0105
298.15	0.1478	0.0556	0.0109
298.15	0.1372	0.0624	0.0119
298.15	0.1282	0.0654	0.0121
298.15	0.1195	0.0732	0.0126
298.15	0.1115	0.0797	0.0153
298.15	0.1091	0.0839	0.0172
298.15	0.1063	0.0887	0.0164
298.15	0.1037	0.0913	0.0161
298.15	0.1004	0.0969	0.0207
298.15	0.0979	0.1025	0.0194
298.15	0.0936	0.106	0.0208
298.15	0.0917	0.1097	0.0227
298.15	0.0889	0.117	0.0211
298.15	0.0853	0.1215	0.0121
298.15	0.0825	0.1264	0.0186
298.15	0.0816	0.1317	0.0258
298.15	0.0802	0.1369	0.024
298.15	0.0771	0.1438	0.0223
313.15	0.6841	0.0021	0.0021
313.15	0.5815	0.0044	0.0044
313.15	0.556	0.0061	0.0061
313.15	0.5327	0.0078	0.0078
313.15	0.5106	0.0102	0.0101
313.15	0.4878	0.013	0.01
313.15	0.467	0.0154	0.0101
313.15	0.4458	0.018	0.01
313.15	0.4243	0.021	0.01
313.15	0.4048	0.0238	0.0101
313.15	0.3853	0.0269	0.0102
313.15	0.3661	0.0302	0.0102
313.15	0.3501	0.0328	0.0102
313.15	0.3207	0.0377	0.0102
313.15	0.3073	0.04	0.01
313.15	0.2808	0.0453	0.0103
313.15	0.2671	0.0485	0.0104
313.15	0.251	0.053	0.011
313.15	0.2327	0.0587	0.0105
313.15	0.2139	0.063	0.01
313.15	0.1849	0.0696	0.0106
313.15	0.1689	0.0768	0.0116
313.15	0.1626	0.0815	0.0119
313.15	0.1582	0.0842	0.0127
313.15	0.1575	0.0866	0.0127
313.15	0.1526	0.0896	0.0119
313.15	0.1473	0.0929	0.0116
313.15	0.1369	0.0972	0.0117
313.15	0.1306	0.1011	0.0118
313.15	0.1237	0.1054	0.0127
313.15	0.1162	0.11	0.014
313.15	0.1137	0.114	0.015
313.15	0.1087	0.1189	0.0147
313.15	0.1049	0.1238	0.0157
313.15	0.1003	0.1294	0.0153
313.15	0.0942	0.1354	0.0152
313.15	0.0879	0.1423	0.015

System: water + 1-butyl-3-methylimidazolium tetrafluoroborate + copper sulfate; phases: Liquid mixture 1, Liquid mixture 2
Fixed: Pressure, kPa = 94
Property: Mass fraction of 1-butyl-3-methylimidazolium tetrafluoroborate (Liquid mixture 1); method: OTHER
Property: Mass fraction of 1-butyl-3-methylimidazolium tetrafluoroborate (Liquid mixture 2); method: OTHER
Property: Mass fraction of water (Liquid mixture 2); method: OTHER
Temperature, K	Mass fraction of water	Mass fraction of 1-butyl-3-methylimidazolium tetrafluoroborate	uncertainty	Mass fraction of 1-butyl-3-methylimidazolium tetrafluoroborate	uncertainty	Mass fraction of water	uncertainty
283.15	0.3996	0.5972	0.0257	0.0923	0.0061	0.8554	
283.15	0.3868	0.6107	0.0248	0.086	0.0055	0.859	
283.15	0.3752	0.6233	0.024	0.0761	0.0049	0.852	
283.15	0.3538	0.6451	0.0226	0.0685	0.0044	0.8462	
283.15	0.3367	0.6622	0.0215	0.0659	0.0047	0.8541	
298.15	0.3999	0.5971	0.0257	0.1401	0.009	0.7976	
298.15	0.3832	0.6143	0.0246	0.1241	0.008	0.8039	
298.15	0.3558	0.6424	0.0228	0.11	0.0074	0.7885	
298.15	0.7921	0.1047	0.0067	0.6638	0.0214	0.3349	
298.15	0.8018	0.0998	0.0064	0.682	0.0203	0.3167	
313.15	0.7578	0.1598	0.0104	0.5971	0.0257	0.3988	
313.15	0.7636	0.1385	0.009	0.6138	0.0246	0.3837	
313.15	0.7699	0.1205	0.0078	0.6433	0.0227	0.3549	
313.15	0.7701	0.1014	0.0072	0.6642	0.0214	0.3345	
313.15	0.7701	0.0858	0.0072	0.6929	0.0196	0.306	
