Measured thermophysical data. Isothermal Vapor-Liquid Equilibrium (VLE) and Vapor-  Liquid-Liquid Equilibrium (VLLE) Data for Two Binary  Systems Containing Perfluorohexane with Carbon Monoxide  or Hydrogen Sulphide at (293, 313 and 333) K
Source: J. Chem. Eng. Data, 2015, 10.1021/acs.jced.5b00318
Compound 1: perfluorohexane, C6F14, InChI=1S/C6F14/c7-1(8,3(11,12)5(15,16)17)2(9,10)4(13,14)6(18,19)20, purity 98%
Compound 2: carbon monoxide, CO, InChI=1S/CO/c1-2, purity 99%
Compound 3: hydrogen sulfide, H2S, InChI=1S/H2S/h1H2, purity 99.5%

System: perfluorohexane + carbon monoxide; phases: Liquid mixture 1, Gas
Property: Vapor or sublimation pressure, kPa (Liquid mixture 1); method: Closed cell (Static) method
Mole fraction of carbon monoxide	Temperature, K	Vapor or sublimation pressure, kPa	uncertainty
0.048	293.01	1229	353
0.111	293.01	3083	369
0.172	293.01	5036	349
0.41	293.01	13924	566
0.45	293.01	16016	682
0.474	293.01	17572	523
0.543	293.01	20169	569
0.57	293.01	22288	860
0.6	293.01	24235	785
0.364	293.01	11973	482
0.289	293.01	9079	504
0.249	293.01	7102	404
0.504	313.04	17690	566
0.557	313.04	19968	549
0.62	313.04	22997	561
0.463	313.04	15459	565
0.413	313.04	13442	513
0.369	313.04	11467	487
0.315	313.04	9456	438
0.265	313.04	7667	414
0.202	313.04	5626	374
0.157	313.04	4300	359
0.081	313.04	2042	352
0.088	333.04	2228	351
0.149	333.04	4013	348
0.22	333.04	6050	367
0.313	333.04	8998	394
0.382	333.04	11344	477
0.42	333.04	13311	467
0.483	333.04	15320	482
0.518	333.04	17314	453
0.583	333.04	19169	401
0.637	333.04	21232	340
0.742	333.04	23636	226
0.83	333.04	24497	151

System: perfluorohexane + carbon monoxide; phases: Gas, Liquid mixture 1
Property: Mole fraction of carbon monoxide (Gas); method: Chromatography
Mole fraction of carbon monoxide	Temperature, K	Mole fraction of carbon monoxide	uncertainty
0.048	293.01	0.976	0.003
0.111	293.01	0.985	0.003
0.172	293.01	0.984	0.002
0.41	293.01	0.983	0.003
0.45	293.01	0.981	0.003
0.474	293.01	0.978	0.003
0.543	293.01	0.975	0.003
0.57	293.01	0.969	0.004
0.6	293.01	0.963	0.003
0.364	293.01	0.986	0.003
0.289	293.01	0.989	0.002
0.249	293.01	0.985	0.003
0.504	313.04	0.963	0.003
0.557	313.04	0.956	0.003
0.62	313.04	0.941	0.004
0.463	313.04	0.972	0.003
0.413	313.04	0.975	0.003
0.369	313.04	0.978	0.003
0.315	313.04	0.98	0.002
0.265	313.04	0.981	0.003
0.202	313.04	0.98	0.003
0.157	313.04	0.978	0.003
0.081	313.04	0.966	0.004
0.088	333.04	0.935	0.005
0.149	333.04	0.956	0.004
0.22	333.04	0.962	0.003
0.313	333.04	0.963	0.003
0.382	333.04	0.962	0.003
0.42	333.04	0.958	0.003
0.483	333.04	0.952	0.003
0.518	333.04	0.947	0.003
0.583	333.04	0.938	0.004
0.637	333.04	0.922	0.004
0.742	333.04	0.892	0.006
0.83	333.04	0.833	0.009

System: perfluorohexane + hydrogen sulfide; phases: Liquid mixture 1, Gas
Property: Vapor or sublimation pressure, kPa (Liquid mixture 1); method: Closed cell (Static) method
Mole fraction of hydrogen sulfide	Temperature, K	Vapor or sublimation pressure, kPa	uncertainty
0.07	293.03	428	66
0.091	293.03	544	68
0.108	293.03	643	63
0.16	293.03	910	57
0.2	293.03	1078	53
0.23	293.03	1220	50
0.272	293.03	1379	40
0.349	293.03	1618	31
0.455	293.03	1838	26
0.039	313.08	322	77
0.07	313.08	517	77
0.103	313.08	734	77
0.157	313.08	1071	75
0.197	313.08	1316	72
0.243	313.08	1584	67
0.294	313.08	1861	57
0.37	313.08	2191	49
0.417	313.08	2358	34
0.561	313.08	2717	24
0.692	313.08	2860	14
0.827	313.08	2900	11
0.03	332.96	332	91
0.073	332.96	659	91
0.116	332.96	983	93
0.156	332.96	1302	96
0.201	332.96	1660	89
0.253	332.96	2017	80
0.33	332.96	2519	71
0.435	332.96	3089	61
0.527	332.96	3502	48
0.638	332.96	3872	39
0.714	332.96	4055	28
0.819	332.96	4234	25
0.821	332.96	4235	25
0.851	332.96	4277	21
0.879	332.96	4309	19
0.939	332.96	4367	19

System: perfluorohexane + hydrogen sulfide; phases: Gas, Liquid mixture 1
Property: Mole fraction of hydrogen sulfide (Gas); method: Chromatography
Mole fraction of hydrogen sulfide	Temperature, K	Mole fraction of hydrogen sulfide	uncertainty
0.07	293.03	0.943	0.005
0.091	293.03	0.951	0.005
0.108	293.03	0.955	0.004
0.16	293.03	0.967	0.004
0.2	293.03	0.975	0.003
0.23	293.03	0.976	0.003
0.272	293.03	0.98	0.003
0.349	293.03	0.981	0.003
0.455	293.03	0.986	0.003
0.039	313.08	0.825	0.029
0.07	313.08	0.885	0.018
0.103	313.08	0.918	0.008
0.157	313.08	0.939	0.005
0.197	313.08	0.95	0.004
0.243	313.08	0.958	0.003
0.294	313.08	0.962	0.003
0.37	313.08	0.964	0.003
0.417	313.08	0.968	0.002
0.561	313.08	0.967	0.003
0.692	313.08	0.974	0.003
0.827	313.08	0.975	0.002
0.03	332.96	0.652	0.045
0.073	332.96	0.812	0.03
0.116	332.96	0.868	0.012
0.156	332.96	0.894	0.006
0.201	332.96	0.906	0.004
0.253	332.96	0.921	0.004
0.33	332.96	0.933	0.003
0.435	332.96	0.946	0.003
0.527	332.96	0.949	0.003
0.638	332.96	0.955	0.003
0.714	332.96	0.96	0.003
0.819	332.96	0.962	0.003
0.821	332.96	0.963	0.003
0.851	332.96	0.965	0.003
0.879	332.96	0.966	0.003
0.939	332.96	0.97	0.003

System: perfluorohexane + hydrogen sulfide; phases: Liquid mixture 1, Liquid mixture 2, Gas
Property: Vapor or sublimation pressure, kPa (Liquid mixture 1); method: Closed cell (Static) method
Temperature, K	Vapor or sublimation pressure, kPa	uncertainty
293.03	1871	8

System: perfluorohexane + hydrogen sulfide; phases: Liquid mixture 1, Liquid mixture 2, Gas
Property: Mole fraction of hydrogen sulfide (Liquid mixture 1); method: Chromatography
Temperature, K	Mole fraction of hydrogen sulfide	uncertainty
293.03	0.994	0.006

System: perfluorohexane + hydrogen sulfide; phases: Liquid mixture 2, Liquid mixture 1, Gas
Property: Mole fraction of hydrogen sulfide (Liquid mixture 2); method: Chromatography
Temperature, K	Mole fraction of hydrogen sulfide	uncertainty
293.03	0.0003	0.0003

System: perfluorohexane + hydrogen sulfide; phases: Gas, Liquid mixture 1, Liquid mixture 2
Property: Mole fraction of hydrogen sulfide (Gas); method: Chromatography
Temperature, K	Mole fraction of hydrogen sulfide	uncertainty
293.03	0.986	0.012
