Measured thermophysical data. Viscosity and Density of Normal Butane Simultaneously Measured at Temperatures from (298 to 448) K and at Pressures up to 30 MPa Incorporating the Near-Critical Region
Source: J. Chem. Eng. Data, 2015, 10.1021/acs.jced.5b00654
Compound 1: butane, C4H10, InChI=1S/C4H10/c1-3-4-2/h3-4H2,1-2H3, purity 99.99%

System: butane; phases: Fluid (supercritical or subcritical phases)
Property: Mass density, kg/m3 (Fluid (supercritical or subcritical phases)); method: Buoyancy - hydrostatic balance with magnetic suspension - one sinker
Temperature, K	Pressure, kPa	Mass density, kg/m3	uncertainty
298.122	221.39	5.5728	0.0218
298.124	221.35	5.5716	0.0218
298.14	196.75	4.9091	0.0207
298.142	196.77	4.9096	0.0207
298.143	175.29	4.3414	0.0198
298.144	175.29	4.3415	0.0198
298.114	162.81	4.0157	0.0193
298.114	162.82	4.016	0.0193
298.124	142.16	3.4823	0.0185
298.128	142.17	3.4826	0.0186
298.133	123.43	3.0049	0.0179
298.135	123.44	3.0052	0.0179
298.14	102.9	2.4887	0.0172
298.14	102.91	2.4889	0.0172
298.142	82.37	1.9794	0.0165
298.143	82.383	1.9797	0.0165
298.143	61.794	1.4756	0.0158
298.144	61.803	1.4758	0.0158
298.15	57.183	1.3635	0.0157
298.15	57.184	1.3636	0.0157
322.982	450.39	11.024	0.031
322.997	450.69	11.032	0.031
323.007	450.89	11.037	0.031
323.061	392.1	9.426	0.0285
323.077	392.5	9.4391	0.0284
323.089	392.9	9.4492	0.0285
323.11	380.78	9.1236	0.0279
323.111	380.74	9.1236	0.0279
323.117	380.76	9.1272	0.0279
323.124	330.12	7.8092	0.0255
323.125	330.36	7.8164	0.0255
323.126	330.63	7.8215	0.0255
323.126	301.54	7.0807	0.0243
323.126	303.39	7.1241	0.0243
323.126	305.32	7.1762	0.0244
323.132	261.18	6.0223	0.0225
323.134	261.21	6.023	0.0225
323.137	261.28	6.0252	0.0226
323.139	215.87	4.9169	0.0208
323.141	215.65	4.9111	0.0208
323.143	215.63	4.9096	0.0208
323.145	184.24	4.1645	0.0196
323.146	184.35	4.1652	0.0196
323.147	184.36	4.1667	0.0196
323.146	150.03	3.3622	0.0184
323.146	150.04	3.3622	0.0184
323.142	132.43	2.9506	0.0178
323.143	132.44	2.9492	0.0178
323.143	132.46	2.9499	0.0178
323.142	112.93	2.5057	0.0172
323.143	112.94	2.5035	0.0172
323.143	112.96	2.5057	0.0172
323.143	90.508	1.9979	0.0165
323.144	90.523	1.9986	0.0165
323.143	66.379	1.4575	0.0158
323.143	66.382	1.4567	0.0158
323.143	66.387	1.4553	0.0158
323.143	58.204	1.2744	0.0156
323.143	58.199	1.2766	0.0156
323.143	58.206	1.2766	0.0156
348.027	813.99	19.581	0.049
348.028	814.13	19.586	0.049
348.029	813.85	19.576	0.049
348.13	760.25	17.999	0.046
348.134	760.34	18.002	0.046
348.125	677.52	15.682	0.041
348.125	677.82	15.691	0.041
348.139	618.24	14.097	0.037
348.143	618.34	14.099	0.037
348.147	516.76	11.497	0.032
348.148	516.69	11.497	0.032
348.152	454.98	9.9811	0.0293
348.153	455.21	9.9833	0.0293
348.152	340.91	7.3031	0.0247
348.152	338.38	7.2445	0.0245
348.152	337.86	7.2315	0.0245
348.151	337.88	7.2315	0.0245
348.143	293.19	6.2173	0.0228
348.143	293.73	6.2296	0.0228
348.144	93.82	1.9124	0.0164
348.145	93.833	1.9131	0.0164
348.15	63.283	1.2845	0.0156
348.15	63.298	1.286	0.0156
373.15	1366.4	33.46	0.083
373.149	1367.1	33.484	0.083
373.145	1262.7	30.019	0.075
373.144	1263	30.031	0.075
373.136	1095.4	24.953	0.06
373.139	1095.5	24.958	0.06
373.135	916.45	20.053	0.05
373.135	916.45	20.052	0.05
373.14	838.34	18.049	0.044
373.147	750.55	15.881	0.04
373.144	751.04	15.893	0.04
373.141	669.81	13.955	0.036
373.143	670	13.959	0.037
373.142	572.54	11.724	0.032
373.142	572.6	11.728	0.032
373.14	493.81	9.9744	0.0291
373.139	493.67	9.9707	0.0291
373.148	439.63	8.8018	0.0271
373.147	441.23	8.8343	0.0272
373.149	392.71	7.8028	0.0253
373.151	344.33	6.7909	0.0237
373.152	344.35	6.7909	0.0237
373.144	273.38	5.3326	0.0213
373.143	274.72	5.3593	0.0213
373.147	210.37	4.0602	0.0195
373.145	210.39	4.0609	0.0195
373.139	157.75	3.0215	0.018
373.135	157.77	3.0215	0.018
373.13	106.93	2.0348	0.0166
373.132	106.95	2.0363	0.0166
373.134	106.98	2.037	0.0166
373.138	57.687	1.0901	0.0154
373.141	57.722	1.0901	0.0154
373.143	57.756	1.0909	0.0154
423.476	3280.8	96.642	0.367
423.469	3280.9	96.663	0.367
424.215	3176.8	88.401	0.285
424.213	3177	88.415	0.285
423.276	3171.4	89.266	0.317
423.202	3170.2	89.28	0.317
423.189	3006	79.774	0.262
423.201	3005.8	79.773	0.262
423.197	2781.6	69.058	0.204
423.198	2781.1	69.059	0.204
423.109	2532.5	59.203	0.16
423.123	2534	59.251	0.16
423.134	2535.6	59.303	0.161
423.169	2272.3	50.31	0.125
423.166	1490.2	29.071	0.074
423.189	1490	29.063	0.074
423.241	1016.1	18.65	0.046
423.248	1015.9	18.648	0.046
423.26	884.12	15.981	0.04
423.258	884.38	15.987	0.04
423.198	653.48	11.519	0.032
423.19	654.26	11.533	0.032
423.166	452.37	7.8076	0.0254
423.167	450.91	7.7808	0.0253
423.163	195.54	3.2893	0.0183
423.161	195.59	3.2893	0.0183
428.139	30023	498.21	0.56
428.138	30022	498.2	0.56
428.137	30018	498.2	0.56
428.207	22974	480.02	0.54
428.206	22974	480.02	0.54
428.204	22973	480.02	0.54
428.146	17077	460.12	0.52
428.146	17075	460.12	0.52
428.152	12773	440.28	0.51
428.156	12732	440.05	0.51
428.156	12735	440.06	0.51
428.157	9661.1	420.21	0.5
428.159	9662.3	420.22	0.5
428.165	7466.2	399.67	0.51
428.163	7467.1	399.68	0.51
428.16	7467.5	399.69	0.51
428.135	5948.9	378	0.56
428.135	5949.6	378.01	0.56
428.132	5949.6	378.02	0.56
428.094	5150.2	360.25	0.75
428.091	5149.9	360.26	0.75
428.099	4625.9	341.66	0.98
428.109	4626.6	341.66	0.98
428.109	4626.8	341.65	0.98
428.176	4312	322.22	1.08
428.177	4312.4	322.24	1.08
428.178	4312.4	322.25	1.08
428.136	4145.9	304.6	1.33
428.14	4146.2	304.61	1.33
428.146	4067.3	289	2.58
428.151	4067.5	288.98	2.58
428.196	4030	274.89	3.21
428.197	4030.1	274.9	3.21
428.131	3990.1	251.58	4.95
428.13	3990.1	251.63	4.95
428.117	3984.8	246.5	4.93
428.118	3984.9	246.49	4.93
428.176	3976.3	230.48	5.92
428.174	3976.1	230.45	5.92
428.124	3964.9	218.37	5.78
428.13	3964.8	218.33	5.77
428.187	3953.5	199.12	5.34
428.178	3953.3	199.18	5.35
428.195	3938.7	185.24	3.7
428.195	3939.2	185.3	3.7
428.194	3884.1	159.21	2.38
428.19	3883.8	159.22	2.35
428.343	3805.1	138.83	29.04
428.391	3806.5	138.8	0.82
428.197	3793.8	137.58	2.41
428.184	3790.9	137.62	2.35
428.132	3655.2	119.22	0.59
428.142	3655.7	119.23	0.59
428.141	3427.1	99.322	0.392
428.152	3427.2	99.316	0.392
428.156	3263.8	88.856	0.307
428.153	3263.7	88.854	0.307
428.229	3108.6	80.486	0.255
428.222	3107.8	80.455	0.255
428.139	2862.8	69.471	0.198
428.131	2862.9	69.476	0.198
428.129	2624.7	60.36	0.156
428.134	2624.6	60.353	0.156
428.122	2306.2	49.889	0.122
428.12	2306.2	49.887	0.122
428.102	1964.1	40.163	0.095
428.106	1964.3	40.167	0.095
428.209	1539.8	29.634	0.069
428.213	1540.1	29.642	0.069
428.179	1098.5	20.025	0.048
428.176	1099.1	20.038	0.048
428.147	1040.7	18.847	0.045
428.142	1041.2	18.856	0.046
428.107	904.86	16.141	0.04
428.103	904.9	16.138	0.04
428.097	796.14	14.038	0.036
428.1	796.19	14.041	0.036
428.122	685.03	11.939	0.032
428.131	684.54	11.929	0.032
428.134	578.67	9.9774	0.029
428.137	578.76	9.9803	0.029
428.133	480.91	8.2126	0.0258
428.136	480.81	8.2112	0.0258
428.091	194.34	3.2308	0.0182
428.085	194.36	3.2322	0.0182
428.105	131.61	2.1741	0.0167
428.109	131.64	2.1741	0.0167
428.178	62.104	1.0176	0.0153
428.172	62.101	1.0183	0.0153
428.16	62.099	1.0176	0.0153
448.15	29472	478.91	0.54
448.136	29460	478.91	0.54
448.168	23154	460.09	0.52
448.164	23152	460.08	0.52
448.142	18184	440.74	0.51
448.145	18187	440.74	0.51
448.155	14319	420.46	0.5
448.167	14321	420.46	0.5
448.15	11528	400.23	0.48
448.154	11529	400.23	0.48
448.171	9538.6	380.13	0.49
448.171	9537.4	380.12	0.49
448.163	8140.6	359.99	0.51
448.163	8139.4	359.98	0.51
448.139	7191	340.37	0.53
448.135	7189.8	340.36	0.53
448.162	6551.4	321.12	0.62
448.161	6551.1	321.12	0.62
448.111	6144.8	304.18	0.71
448.111	6145	304.17	0.71
448.279	5785.1	281.66	0.8
448.274	5784.6	281.65	0.8
448.146	5551.9	263.05	0.92
448.146	5553.7	263.02	0.92
448.177	5346.7	240.34	1.17
448.173	5346.6	240.34	1.17
448.133	5203.2	222.02	1.23
448.132	5203.5	222.03	1.23
448.113	5054.8	201.47	1.21
448.112	5054.5	201.47	1.21
448.09	4846.2	174.16	1.19
448.129	4847	174.1	1.23
448.227	4727.1	160.07	1.12
448.226	4727	160.07	1.12
448.172	4498.3	138.72	1.02
448.184	4498.1	138.68	1.02
448.127	4161.6	114.81	0.93
448.129	4161.6	114.81	0.93
448.184	3747.8	92.905	0.335
448.185	3747.9	92.91	0.335
448.184	3433.9	79.739	0.23
448.182	3433.7	79.735	0.23
448.153	3073.3	66.943	0.173
448.156	3073.3	66.941	0.173
448.159	2511.8	50.321	0.122
448.159	2512.1	50.329	0.122
448.168	2073	39.287	0.09
448.162	2073.7	39.305	0.09
448.157	1662.2	30.086	0.068
448.154	1661.9	30.078	0.068
448.169	1158.4	19.932	0.048
448.168	1158.4	19.932	0.048
448.156	807.76	13.456	0.035
448.146	807.6	13.453	0.035
448.148	618.6	10.141	0.029
448.147	618.43	10.135	0.029
448.158	508.5	8.2591	0.026
448.161	509.69	8.28	0.026
448.163	430.17	6.9362	0.0238
448.163	431.02	6.95	0.0238
448.154	220.17	3.4915	0.0185
448.156	220.38	3.4965	0.0185

System: butane; phases: Fluid (supercritical or subcritical phases)
Property: Viscosity, Pa*s (Fluid (supercritical or subcritical phases)); method: Vibrating wire viscometry
Temperature, K	Pressure, kPa	Viscosity, Pa*s	uncertainty
298.122	221.39	7.3337e-06	8.314e-07
298.124	221.35	7.3332e-06	8.314e-07
298.14	196.75	7.3425e-06	8.315e-07
298.142	196.77	7.3407e-06	8.315e-07
298.143	175.29	7.347e-06	8.315e-07
298.144	175.29	7.3465e-06	8.315e-07
298.114	162.81	7.3528e-06	8.316e-07
298.114	162.82	7.3538e-06	8.316e-07
298.124	142.16	7.3587e-06	8.316e-07
298.128	142.17	7.3593e-06	8.316e-07
298.133	123.43	7.3653e-06	8.316e-07
298.135	123.44	7.3634e-06	8.316e-07
298.14	102.9	7.3691e-06	8.317e-07
298.14	102.91	7.3698e-06	8.317e-07
298.142	82.37	7.3747e-06	8.317e-07
298.143	82.383	7.372e-06	8.317e-07
298.143	61.794	7.3765e-06	8.317e-07
298.144	61.803	7.3782e-06	8.317e-07
298.15	57.183	7.3766e-06	8.317e-07
298.15	57.184	7.378e-06	8.317e-07
322.982	450.39	7.9534e-06	8.362e-07
322.997	450.69	7.9513e-06	8.362e-07
323.007	450.89	7.9528e-06	8.362e-07
323.061	392.1	7.9577e-06	8.362e-07
323.077	392.5	7.9545e-06	8.362e-07
323.089	392.9	7.9604e-06	8.363e-07
323.11	380.78	7.9581e-06	8.362e-07
323.111	380.74	7.9578e-06	8.362e-07
323.117	380.76	7.9578e-06	8.362e-07
323.124	330.12	7.9671e-06	8.363e-07
323.125	330.36	7.9669e-06	8.363e-07
323.126	330.63	7.9646e-06	8.363e-07
323.126	301.54	7.9703e-06	8.363e-07
323.126	303.39	7.9665e-06	8.363e-07
323.126	305.32	7.9703e-06	8.363e-07
323.132	261.18	7.9704e-06	8.363e-07
323.134	261.21	7.9726e-06	8.364e-07
323.137	261.28	7.9684e-06	8.363e-07
323.139	215.87	7.9741e-06	8.364e-07
323.141	215.65	7.9762e-06	8.364e-07
323.143	215.63	7.9758e-06	8.364e-07
323.145	184.24	7.9788e-06	8.364e-07
323.146	184.35	7.9802e-06	8.364e-07
323.147	184.36	7.9792e-06	8.364e-07
323.146	150.03	7.982e-06	8.364e-07
323.146	150.04	7.9821e-06	8.364e-07
323.142	132.43	7.9905e-06	8.365e-07
323.143	132.44	7.9888e-06	8.365e-07
323.143	132.46	7.9886e-06	8.365e-07
323.142	112.93	7.9902e-06	8.365e-07
323.143	112.94	7.9907e-06	8.365e-07
323.143	112.96	7.9903e-06	8.365e-07
323.143	90.508	7.9873e-06	8.365e-07
323.144	90.523	7.9898e-06	8.365e-07
323.143	66.379	7.9914e-06	8.365e-07
323.143	66.382	7.9936e-06	8.365e-07
323.143	66.387	7.9937e-06	8.365e-07
323.143	58.204	7.9942e-06	8.365e-07
323.143	58.199	7.9883e-06	8.365e-07
323.143	58.206	7.9896e-06	8.365e-07
348.027	813.99	8.6479e-06	8.416e-07
348.028	814.13	8.6493e-06	8.416e-07
348.029	813.85	8.6517e-06	8.416e-07
348.13	760.25	8.64e-06	8.415e-07
348.134	760.34	8.6372e-06	8.415e-07
348.125	677.52	8.6312e-06	8.415e-07
348.125	677.82	8.6314e-06	8.415e-07
348.139	618.24	8.6214e-06	8.414e-07
348.143	618.34	8.6277e-06	8.414e-07
348.147	516.76	8.6176e-06	8.414e-07
348.148	516.69	8.6154e-06	8.413e-07
348.152	454.98	8.6098e-06	8.413e-07
348.153	455.21	8.6099e-06	8.413e-07
348.152	340.91	8.5993e-06	8.412e-07
348.152	338.38	8.5994e-06	8.412e-07
348.152	337.86	8.6032e-06	8.412e-07
348.151	337.88	8.607e-06	8.413e-07
348.143	293.19	8.6021e-06	8.412e-07
348.143	293.73	8.6018e-06	8.412e-07
348.144	93.82	8.5995e-06	8.412e-07
348.145	93.833	8.5967e-06	8.412e-07
348.15	63.283	8.5885e-06	8.411e-07
348.15	63.298	8.5908e-06	8.411e-07
373.15	1366.4	9.5141e-06	8.483e-07
373.149	1367.1	9.5176e-06	8.483e-07
373.145	1262.7	9.4635e-06	8.479e-07
373.144	1123	9.4641e-06	8.479e-07
373.136	1095.4	9.3936e-06	8.474e-07
373.139	1095.5	9.3903e-06	8.473e-07
373.135	916.45	9.3291e-06	8.469e-07
373.135	916.45	9.3342e-06	8.469e-07
373.14	838.34	9.3148e-06	8.468e-07
373.147	750.55	9.2978e-06	8.466e-07
373.144	751.04	9.2934e-06	8.466e-07
373.141	669.81	9.2804e-06	8.465e-07
373.143	670	9.2832e-06	8.465e-07
373.142	572.54	9.2632e-06	8.464e-07
373.142	572.6	9.2589e-06	8.463e-07
373.14	493.81	9.2474e-06	8.462e-07
373.139	493.67	9.2546e-06	8.463e-07
373.148	439.63	9.2467e-06	8.462e-07
373.147	441.23	9.243e-06	8.462e-07
373.149	392.71	9.2405e-06	8.462e-07
373.151	344.33	9.2298e-06	8.461e-07
373.152	344.35	9.2339e-06	8.461e-07
373.144	273.38	9.2304e-06	8.461e-07
373.143	274.72	9.2265e-06	8.461e-07
373.147	210.37	9.2281e-06	8.461e-07
373.145	210.39	9.2251e-06	8.461e-07
373.139	157.75	9.2201e-06	8.46e-07
373.135	157.77	9.2171e-06	8.46e-07
373.13	106.93	9.2107e-06	8.459e-07
373.132	106.95	9.213e-06	8.46e-07
373.134	106.98	9.21e-06	8.459e-07
373.138	57.687	9.2112e-06	8.459e-07
373.141	57.722	9.2139e-06	8.46e-07
373.143	57.756	9.2071e-06	8.459e-07
423.476	3280.8	1.3063e-05	8.76e-07
423.469	3280.9	1.3066e-05	8.76e-07
424.215	3176.8	1.2722e-05	8.73e-07
424.213	3177	1.2728e-05	8.73e-07
423.276	3171.4	1.2735e-05	8.73e-07
423.202	3170.2	1.273e-05	8.73e-07
423.189	3006	1.2341e-05	8.7e-07
423.201	3005.8	1.2329e-05	8.7e-07
423.197	2781.6	1.1913e-05	8.67e-07
423.198	2781.1	1.1912e-05	8.67e-07
423.109	2532.5	1.1565e-05	8.64e-07
423.123	2534	1.1576e-05	8.64e-07
423.134	2535.6	1.1574e-05	8.64e-07
423.169	2272.3	1.1288e-05	8.62e-07
423.166	1490.2	1.078e-05	8.58e-07
423.189	1490	1.0779e-05	8.58e-07
423.241	1016.1	1.0598e-05	8.57e-07
423.248	1015.9	1.0591e-05	8.57e-07
423.26	884.12	1.0555e-05	8.56e-07
423.258	884.38	1.0554e-05	8.56e-07
423.198	653.48	1.0494e-05	8.56e-07
423.19	654.26	1.0496e-05	8.56e-07
423.166	452.37	1.0448e-05	8.56e-07
423.167	450.91	1.0448e-05	8.56e-07
423.163	195.54	1.04e-05	8.55e-07
423.161	195.59	1.0403e-05	8.55e-07
428.139	30023	9.4979e-05	1.511e-06
428.138	30022	9.4858e-05	1.51e-06
428.137	30018	9.505e-05	1.512e-06
428.207	22974	8.5034e-05	1.434e-06
428.206	22974	8.4919e-05	1.433e-06
428.204	22973	8.4953e-05	1.434e-06
428.146	17077	7.5611e-05	1.361e-06
428.146	17075	7.5508e-05	1.36e-06
428.152	12773	6.7536e-05	1.299e-06
428.156	12732	6.7406e-05	1.298e-06
428.156	12735	6.7436e-05	1.298e-06
428.157	9661.1	6.0451e-05	1.244e-06
428.159	9662.3	6.0474e-05	1.244e-06
428.165	7466.2	5.4115e-05	1.195e-06
428.163	7467.1	5.4179e-05	1.196e-06
428.16	7467.5	5.413e-05	1.195e-06
428.135	5948.9	4.8458e-05	1.152e-06
428.135	5949.6	4.8373e-05	1.151e-06
428.132	5949.6	4.844e-05	1.152e-06
428.094	5150.2	4.4278e-05	1.122e-06
428.091	5149.9	4.425e-05	1.121e-06
428.099	4625.9	4.0382e-05	1.092e-06
428.109	4626.6	4.0349e-05	1.092e-06
428.109	4626.8	4.0327e-05	1.092e-06
428.176	4312	3.6731e-05	1.064e-06
428.177	4312.4	3.6725e-05	1.064e-06
428.178	4312.4	3.6685e-05	1.064e-06
428.136	4145.9	3.3737e-05	1.043e-06
428.14	4146.2	3.3726e-05	1.043e-06
428.146	4067.3	3.1293e-05	1.052e-06
428.151	4067.5	3.1316e-05	1.052e-06
428.196	4030	2.9342e-05	1.042e-06
428.197	4030.1	2.934e-05	1.042e-06
428.131	3990.1	2.6372e-05	1.032e-06
428.13	3990.1	2.6377e-05	1.032e-06
428.117	3984.8	2.5759e-05	1.003e-06
428.118	3984.9	2.577e-05	1.004e-06
428.176	3976.3	2.3949e-05	1.013e-06
428.174	3976.1	2.3937e-05	1.013e-06
428.124	3964.9	2.262e-05	9.78e-07
428.13	3964.8	2.2627e-05	9.78e-07
428.187	3953.5	2.0635e-05	9.98e-07
428.178	3953.3	2.0634e-05	9.98e-07
428.195	3938.7	1.9315e-05	9.5e-07
428.195	3939.2	1.9326e-05	9.5e-07
428.194	3884.1	1.7125e-05	9.25e-07
428.19	3883.8	1.7119e-05	9.24e-07
428.343	3805.1	1.5672e-05	3.292e-06
428.391	3806.5	1.5685e-05	8.97e-07
428.197	3793.8	1.5567e-05	9.12e-07
428.184	3790.9	1.5577e-05	9.1e-07
428.132	3655.2	1.4434e-05	8.87e-07
428.142	3655.7	1.4442e-05	8.87e-07
428.141	3427.1	1.3376e-05	8.78e-07
428.152	3427.2	1.3371e-05	8.78e-07
428.156	3263.8	1.2886e-05	8.74e-07
428.153	3263.7	1.2884e-05	8.74e-07
428.229	3108.6	1.2529e-05	8.72e-07
428.222	3107.8	1.2521e-05	8.72e-07
428.139	2862.8	1.2092e-05	8.68e-07
428.131	2862.9	1.2091e-05	8.68e-07
428.129	2624.7	1.1766e-05	8.66e-07
428.134	2624.6	1.1773e-05	8.66e-07
428.122	2306.2	1.1438e-05	8.63e-07
428.12	2306.2	1.1439e-05	8.63e-07
428.102	1964.1	1.1172e-05	8.61e-07
428.106	1964.3	1.1176e-05	8.61e-07
428.209	1539.8	1.0935e-05	8.59e-07
428.213	1540.1	1.0932e-05	8.59e-07
428.179	1098.5	1.0755e-05	8.58e-07
428.176	1099.1	1.0755e-05	8.58e-07
428.147	1040.7	1.0734e-05	8.58e-07
428.142	1041.2	1.073e-05	8.58e-07
428.107	904.86	1.069e-05	8.57e-07
428.103	904.9	1.0693e-05	8.57e-07
428.097	796.14	1.0663e-05	8.57e-07
428.1	796.19	1.0659e-05	8.57e-07
428.122	685.03	1.0632e-05	8.57e-07
428.131	684.54	1.0631e-05	8.57e-07
428.134	578.67	1.061e-05	8.57e-07
428.137	578.76	1.0609e-05	8.57e-07
428.133	480.91	1.059e-05	8.57e-07
428.136	480.81	1.059e-05	8.57e-07
428.091	194.34	1.0534e-05	8.56e-07
428.085	194.36	1.0537e-05	8.56e-07
428.105	131.61	1.0524e-05	8.56e-07
428.109	131.64	1.0524e-05	8.56e-07
428.178	62.104	1.0512e-05	8.56e-07
428.172	62.101	1.051e-05	8.56e-07
428.16	62.099	1.0513e-05	8.56e-07
448.15	29472	8.489e-05	1.433e-06
448.136	29460	8.4969e-05	1.434e-06
448.168	23154	7.5926e-05	1.364e-06
448.164	23152	7.6013e-05	1.365e-06
448.142	18184	6.8113e-05	1.303e-06
448.145	18187	6.8129e-05	1.303e-06
448.155	14319	6.1015e-05	1.248e-06
448.167	14321	6.0934e-05	1.248e-06
448.15	11528	5.478e-05	1.2e-06
448.154	11529	5.4772e-05	1.2e-06
448.171	9538.6	4.9405e-05	1.159e-06
448.171	9537.4	4.9478e-05	1.159e-06
448.163	8140.6	4.4661e-05	1.122e-06
448.163	8139.4	4.4736e-05	1.123e-06
448.139	7191	4.0611e-05	1.091e-06
448.135	7189.8	4.0552e-05	1.091e-06
448.162	6551.4	3.6942e-05	1.064e-06
448.161	6551.1	3.6946e-05	1.064e-06
448.111	6144.8	3.4096e-05	1.042e-06
448.111	6145	3.4096e-05	1.042e-06
448.279	5785.1	3.0664e-05	1.016e-06
448.274	5784.6	3.0635e-05	1.016e-06
448.146	5551.9	2.8113e-05	9.97e-07
448.146	5553.7	2.8113e-05	9.97e-07
448.177	5346.7	2.5338e-05	9.78e-07
448.173	5346.6	2.5331e-05	9.78e-07
448.133	5203.2	2.3312e-05	9.63e-07
448.132	5203.5	2.3331e-05	9.63e-07
448.113	5054.8	2.124e-05	9.46e-07
448.112	5054.5	2.1224e-05	9.46e-07
448.09	4846.2	1.8865e-05	9.27e-07
448.129	4847	1.8847e-05	9.28e-07
448.227	4727.1	1.7759e-05	9.19e-07
448.226	4727	1.777e-05	9.19e-07
448.172	4498.3	1.6265e-05	9.07e-07
448.184	4498.1	1.6252e-05	9.07e-07
448.127	4161.6	1.4809e-05	8.93e-07
448.129	4161.6	1.4794e-05	8.93e-07
448.184	3747.8	1.3675e-05	8.81e-07
448.185	3747.9	1.3673e-05	8.81e-07
448.184	3433.9	1.3079e-05	8.76e-07
448.182	3433.7	1.3074e-05	8.76e-07
448.153	3073.3	1.257e-05	8.72e-07
448.156	3073.3	1.257e-05	8.72e-07
448.159	2511.8	1.2009e-05	8.68e-07
448.159	2512.1	1.2e-05	8.68e-07
448.168	2073	1.1687e-05	8.65e-07
448.162	2073.7	1.1689e-05	8.65e-07
448.157	1662.2	1.146e-05	8.63e-07
448.154	1661.9	1.1459e-05	8.63e-07
448.169	1158.4	1.1254e-05	8.62e-07
448.168	1158.4	1.1254e-05	8.62e-07
448.156	807.76	1.1147e-05	8.61e-07
448.146	807.6	1.1142e-05	8.61e-07
448.148	618.6	1.1093e-05	8.61e-07
448.147	618.43	1.11e-05	8.61e-07
448.158	508.5	1.1072e-05	8.6e-07
448.161	509.69	1.1075e-05	8.6e-07
448.163	430.17	1.1062e-05	8.6e-07
448.163	431.02	1.1063e-05	8.6e-07
448.154	220.17	1.102e-05	8.6e-07
448.156	220.38	1.1012e-05	8.6e-07
