Measured thermophysical data. Liquid-Liquid Equilibrium of the Ternary System of Water + Phenol + (Propan-2-yl) Benzene at Several Temperatures
Source: J. Chem. Eng. Data, 2017, 10.1021/acs.jced.7b00393
Compound 1: isopropylbenzene, C9H12, InChI=1S/C9H12/c1-8(2)9-6-4-3-5-7-9/h3-8H,1-2H3, purity 99%
Compound 2: water, H2O, InChI=1S/H2O/h1H2, purity 99.8%
Compound 3: phenol, C6H6O, InChI=1S/C6H6O/c7-6-4-2-1-3-5-6/h1-5,7H, purity 99.5%

System: isopropylbenzene; phases: Liquid
Property: Mass density, kg/m3 (Liquid); method: Vibrating tube method
Temperature, K	Pressure, kPa	Mass density, kg/m3	uncertainty
298.2	101.325	857.54	1.73

System: isopropylbenzene; phases: Liquid
Property: Refractive index (Na D-line) (Liquid); method: Standard Abbe refractometry
Temperature, K	Pressure, kPa	Refractive index (Na D-line)	uncertainty
298.2	101.325	1.49005	0.00144

System: water; phases: Liquid
Property: Mass density, kg/m3 (Liquid); method: Vibrating tube method
Temperature, K	Pressure, kPa	Mass density, kg/m3	uncertainty
298.2	101.325	997.04	1.99

System: water; phases: Liquid
Property: Refractive index (Na D-line) (Liquid); method: Standard Abbe refractometry
Temperature, K	Pressure, kPa	Refractive index (Na D-line)	uncertainty
298.2	101.325	1.3325	0.00143

System: water + phenol + isopropylbenzene; phases: Liquid
Fixed: Pressure, kPa = 81.5
Property: Refractive index (Na D-line) (Liquid); method: Standard Abbe refractometry
Temperature, K	Mass fraction of water	Mass fraction of phenol	Refractive index (Na D-line)	uncertainty
293.2	0.9998	0	1.3335	0.00143
293.2	0.9892	0.0099	1.33495	0.00157
293.2	0.979	0.0199	1.33675	0.00157
293.2	0.9686	0.0299	1.3391	0.00159
293.2	0.958	0.0399	1.34125	0.00157
293.2	0.9477	0.0498	1.34305	0.00157
293.2	0.9371	0.0612	1.34495	0.00158
293.2	0.927	0.0697	1.34625	0.00158
293.2	0.9168	0.0797	1.34745	0.00158
293.2	0.0006	0	1.4915	0.00145
293.2	0.0017	0.0099	1.492	0.0015
293.2	0.0035	0.0199	1.4925	0.00158
293.2	0.0045	0.0298	1.49305	0.0016
293.2	0.0063	0.0397	1.49345	0.0016
293.2	0.0081	0.0495	1.49365	0.0016
293.2	0.0095	0.0594	1.4941	0.0016
293.2	0.0104	0.0692	1.4946	0.00161
293.2	0.0116	0.079	1.49515	0.00162
293.2	0.0128	0.0987	1.4966	0.00161
293.2	0.0143	0.1182	1.4975	0.0016
293.2	0.0167	0.1376	1.49855	0.00149
293.2	0.0215	0.1761	1.5005	0.00149
298.2	0.9996	0	1.333	0.00143
298.2	0.989	0.0099	1.33495	0.00156
298.2	0.9784	0.0199	1.3367	0.00161
298.2	0.9682	0.0299	1.33895	0.00157
298.2	0.9578	0.0399	1.3404	0.00157
298.2	0.9475	0.0498	1.3424	0.00157
298.2	0.937	0.0612	1.34345	0.00158
298.2	0.9268	0.0697	1.3452	0.00158
298.2	0.9167	0.0797	1.34663	0.00157
298.2	0.0009	0	1.49001	0.00145
298.2	0.0029	0.0099	1.4911	0.00157
298.2	0.0045	0.0199	1.4915	0.00161
298.2	0.0075	0.0297	1.49195	0.00162
298.2	0.0091	0.0396	1.49253	0.00161
298.2	0.0104	0.0494	1.493	0.00161
298.2	0.0134	0.0591	1.49345	0.00164
298.2	0.0161	0.0688	1.49425	0.00165
298.2	0.0192	0.0784	1.49475	0.0016
298.2	0.0163	0.0983	1.49545	0.00159
298.2	0.018	0.1178	1.49675	0.00161
298.2	0.0215	0.1369	1.49745	0.00161
298.2	0.0242	0.1756	1.49995	0.00149
308.2	0.9994	0	1.33195	0.00143
308.2	0.9886	0.0099	1.3337	0.00156
308.2	0.9782	0.0199	1.33515	0.00156
308.2	0.9678	0.0299	1.33695	0.00161
308.2	0.9577	0.0399	1.3395	0.00161
308.2	0.9471	0.0498	1.34095	0.00156
308.2	0.9368	0.0611	1.3428	0.00157
308.2	0.9262	0.0697	1.3441	0.00158
308.2	0.9161	0.0796	1.34605	0.00157
308.2	0.0011	0	1.4859	0.00145
308.2	0.0047	0.0099	1.4864	0.00161
308.2	0.0061	0.0198	1.4867	0.0016
308.2	0.0089	0.0297	1.48715	0.00161
308.2	0.01	0.0395	1.4878	0.00161
308.2	0.0122	0.0493	1.48835	0.00162
308.2	0.0157	0.059	1.4887	0.00165
308.2	0.0198	0.0686	1.4894	0.00164
308.2	0.023	0.0976	1.49195	0.00162
308.2	0.0242	0.117	1.4931	0.0016
308.2	0.0249	0.1365	1.4941	0.0016
308.2	0.0268	0.1751	1.49665	0.00153

System: water + phenol + isopropylbenzene; phases: Liquid mixture 1, Liquid mixture 2
Fixed: Pressure, kPa = 81.5
Property: Mass fraction of phenol (Liquid mixture 1); method: Titration method
Temperature, K	Mass fraction of water	Mass fraction of phenol	uncertainty
293.2	0.9998	0	
293.2	0.9892	0.0099	0.0055
293.2	0.979	0.0199	0.0056
293.2	0.9686	0.0299	0.0056
293.2	0.958	0.0399	0.0056
293.2	0.9477	0.0498	0.0059
293.2	0.9371	0.0612	0.0058
293.2	0.927	0.0697	0.0058
293.2	0.9168	0.0797	0.006
293.2	0.0006	0	
293.2	0.0017	0.0099	0.0099
293.2	0.0035	0.0199	0.0199
293.2	0.0045	0.0298	0.024
293.2	0.0063	0.0397	0.0276
293.2	0.0081	0.0495	0.0342
293.2	0.0095	0.0594	0.0363
293.2	0.0104	0.0692	0.0384
293.2	0.0116	0.079	0.0379
293.2	0.0128	0.0987	0.0379
293.2	0.0143	0.1182	0.0388
293.2	0.0167	0.1376	0.0398
293.2	0.0215	0.1761	0.0328
298.2	0.9996	0	
298.2	0.989	0.0099	0.0055
298.2	0.9784	0.0199	0.0056
298.2	0.9682	0.0299	0.0056
298.2	0.9578	0.0399	0.0057
298.2	0.9475	0.0498	0.0059
298.2	0.937	0.0612	0.0058
298.2	0.9268	0.0697	0.0058
298.2	0.9167	0.0797	0.006
298.2	0.0009	0	
298.2	0.0029	0.0099	0.0099
298.2	0.0045	0.0199	0.018
298.2	0.0075	0.0297	0.0182
298.2	0.0091	0.0396	0.0177
298.2	0.0104	0.0494	0.0169
298.2	0.0134	0.0591	0.0335
298.2	0.0161	0.0688	0.0297
298.2	0.0192	0.0784	0.0447
298.2	0.0163	0.0983	0.0307
298.2	0.018	0.1178	0.0428
298.2	0.0215	0.1369	0.0335
298.2	0.0242	0.1756	0.0796
308.2	0.9994	0	
308.2	0.9886	0.0099	0.0055
308.2	0.9782	0.0199	0.0056
308.2	0.9678	0.0299	0.0057
308.2	0.9577	0.0399	0.0057
308.2	0.9471	0.0498	0.0059
308.2	0.9368	0.0611	0.0058
308.2	0.9262	0.0697	0.0057
308.2	0.9161	0.0796	0.006
308.2	0.0011	0	
308.2	0.0047	0.0099	0.0099
308.2	0.0061	0.0198	0.0183
308.2	0.0089	0.0297	0.0183
308.2	0.01	0.0395	0.0183
308.2	0.0122	0.0493	0.0147
308.2	0.0157	0.059	0.0128
308.2	0.0198	0.0686	0.0279
308.2	0.023	0.0976	0.0217
308.2	0.0242	0.117	0.0443
308.2	0.0249	0.1365	0.0536
308.2	0.0268	0.1751	0.0612

System: water + phenol + isopropylbenzene; phases: Liquid mixture 1, Liquid mixture 2
Fixed: Pressure, kPa = 81.5
Property: Mass fraction of isopropylbenzene (Liquid mixture 1); method: Index of refraction calibration data
Property: Mass fraction of isopropylbenzene (Liquid mixture 2); method: Index of refraction calibration data
Property: Mass fraction of phenol (Liquid mixture 2); method: Index of refraction calibration data
Temperature, K	Mass fraction of phenol	Mass fraction of isopropylbenzene	uncertainty	Mass fraction of isopropylbenzene	uncertainty	Mass fraction of phenol	uncertainty
293.2	0.0342	0.9598	0.006	0.0009	0.0009	0.0191	
293.2	0.0516	0.9405	0.0061	0.0011	0.001	0.0251	
293.2	0.0826	0.9061	0.0063	0.0014	0.001	0.0324	
293.2	0.1194	0.8652	0.0066	0.0017	0.001	0.0403	
293.2	0.1474	0.834	0.0069	0.0018	0.001	0.0438	
293.2	0.1581	0.8222	0.0071	0.0019	0.001	0.0463	
293.2	0.161	0.819	0.0071	0.002	0.001	0.0492	
293.2	0.1652	0.8142	0.0072	0.0022	0.001	0.0528	
293.2	0.1774	0.8007	0.0073	0.0023	0.001	0.0549	
298.2	0.0299	0.9624	0.0062	0.0008	0.0008	0.016	
298.2	0.0558	0.9331	0.0062	0.0013	0.001	0.0283	
298.2	0.0862	0.8985	0.0064	0.0015	0.001	0.0339	
298.2	0.114	0.8671	0.0067	0.0018	0.001	0.0427	
298.2	0.1445	0.8326	0.007	0.0021	0.001	0.0509	
298.2	0.1583	0.8169	0.0071	0.0023	0.001	0.0562	
298.2	0.1685	0.8054	0.0074	0.0023	0.001	0.0568	
298.2	0.1768	0.796	0.0071	0.0026	0.001	0.0639	
298.2	0.1777	0.7949	0.0071	0.0027	0.001	0.065	
308.2	0.0241	0.9673	0.0061	0.0013	0.001	0.0162	
308.2	0.0397	0.9493	0.0062	0.0016	0.001	0.0245	
308.2	0.071	0.9133	0.0064	0.002	0.001	0.0342	
308.2	0.0906	0.8908	0.0065	0.0023	0.001	0.0408	
308.2	0.1101	0.8683	0.0067	0.0025	0.001	0.0463	
308.2	0.1242	0.8521	0.0069	0.0027	0.001	0.0494	
308.2	0.1461	0.8269	0.0071	0.0028	0.001	0.0527	
308.2	0.1658	0.8042	0.0074	0.003	0.001	0.0574	
308.2	0.1751	0.7936	0.0075	0.0033	0.001	0.0637	

System: water + isopropylbenzene; phases: Liquid
Fixed: Pressure, kPa = 81.5
Property: Refractive index (Na D-line) (Liquid); method: Standard Abbe refractometry
Temperature, K	Mass fraction of water	Refractive index (Na D-line)	uncertainty
293.2	0.9998	1.3335	0.00143
293.2	0.0006	1.4915	0.00145
298.2	0.9996	1.333	0.00143
298.2	0.0009	1.49001	0.00145
308.2	0.9994	1.33195	0.00143
308.2	0.0011	1.4859	0.00145

System: water + isopropylbenzene; phases: Liquid mixture 1, Liquid mixture 2
Fixed: Pressure, kPa = 81.5
Property: Mass fraction of water (Liquid mixture 1); method: Titration method
Temperature, K	Mass fraction of water	uncertainty
293.2	0.9998	0.0002
293.2	0.0006	0.0006
298.2	0.9996	0.0004
298.2	0.0009	0.0009
308.2	0.9994	0.0006
308.2	0.0011	0.0011
