Measured thermophysical data. Volumetric and Acoustic Properties of Aqueous Carbohydrate Polymer Solutions
Source: J. Chem. Eng. Data, 2016, 10.1021/acs.jced.6b00232
Compound 1: D-glucose, C6H12O6, InChI=1S/C6H12O6/c7-1-3(9)5(11)6(12)4(10)2-8/h1,3-6,8-12H,2H2/t3-,4+,5+,6+/m0/s1, purity 99.5%
Compound 2: D-fructose, C6H12O6, InChI=1S/C6H12O6/c7-1-3(9)5(11)6(12)4(10)2-8/h3,5-9,11-12H,1-2H2/t3-,5-,6-/m1/s1, purity 99%
Compound 3: D-sucrose, C12H22O11, InChI=1S/C12H22O11/c13-1-4-6(16)8(18)9(19)11(21-4)23-12(3-15)10(20)7(17)5(2-14)22-12/h4-11,13-20H,1-3H2/t4-,5-,6-,7-,8+,9-,10+,11-,12+/m1/s1, purity 98%
Compound 4: water, H2O, InChI=1S/H2O/h1H2, purity 99.8%

System: D-glucose + water; phases: Liquid
Fixed: Pressure, kPa = 84.5
Property: Mass density, kg/m3 (Liquid); method: Vibrating tube method
Temperature, K	Molality, mol/kg of D-glucose	Mass density, kg/m3	uncertainty
288.15	0.29209	1018.667	0.303
288.15	0.48364	1030.776	0.304
288.15	0.61638	1038.846	0.305
288.15	0.97953	1059.739	0.306
288.15	1.38773	1081.243	0.308
288.15	1.85	1103.582	0.311
288.15	2.37871	1126.539	0.314
288.15	2.98873	1150.244	0.318
288.15	3.70006	1174.742	0.322
293.15	0.29209	1017.625	0.303
293.15	0.48364	1029.641	0.304
293.15	0.61638	1037.656	0.305
293.15	0.97953	1058.399	0.306
293.15	1.38773	1079.76	0.309
293.15	1.85	1101.948	0.311
293.15	2.37871	1124.767	0.314
293.15	2.98873	1148.34	0.318
293.15	3.70006	1172.71	0.322
298.15	0.29209	1016.335	0.303
298.15	0.48364	1028.275	0.304
298.15	0.61638	1036.24	0.305
298.15	0.97953	1056.857	0.306
298.15	1.38773	1078.087	0.308
298.15	1.85	1100.145	0.311
298.15	2.37871	1122.847	0.314
298.15	2.98873	1146.303	0.317
298.15	3.70006	1170.559	0.322
303.15	0.29209	1014.826	0.303
303.15	0.48364	1026.702	0.304
303.15	0.61638	1034.62	0.305
303.15	0.97953	1055.125	0.306
303.15	1.38773	1076.245	0.308
303.15	1.85	1098.183	0.311
303.15	2.37871	1120.786	0.314
303.15	2.98873	1144.137	0.317
303.15	3.70006	1168.296	0.321
308.15	0.29209	1013.115	0.303
308.15	0.48364	1024.93	0.304
308.15	0.61638	1032.809	0.305
308.15	0.97953	1053.218	0.307
308.15	1.38773	1074.241	0.309
308.15	1.85	1096.072	0.311
308.15	2.37871	1118.584	0.314
308.15	2.98873	1141.851	0.318
308.15	3.70006	1165.923	0.321

System: D-glucose + water; phases: Liquid
Fixed: Pressure, kPa = 84.5
Fixed: Frequency, MHz = 3
Property: Speed of sound, m/s (Liquid); method: Sing-around technique in a fixed-path interferometer
Temperature, K	Molality, mol/kg of D-glucose	Speed of sound, m/s	uncertainty
288.15	0.29209	1485.76	1.22
288.15	0.48364	1498.38	1.23
288.15	0.61638	1507.04	1.23
288.15	0.97953	1530.31	1.24
288.15	1.38773	1555.59	1.24
288.15	1.85	1583.62	1.25
288.15	2.37871	1613.59	1.26
288.15	2.98873	1646.03	1.27
288.15	3.70006	1681.16	1.28
293.15	0.29209	1500.97	1.22
293.15	0.48364	1513.04	1.23
293.15	0.61638	1521.33	1.23
293.15	0.97953	1543.58	1.24
293.15	1.38773	1567.8	1.25
293.15	1.85	1594.67	1.25
293.15	2.37871	1623.32	1.26
293.15	2.98873	1654.38	1.27
293.15	3.70006	1688.05	1.28
298.15	0.29209	1514.33	1.23
298.15	0.48364	1525.93	1.23
298.15	0.61638	1533.87	1.23
298.15	0.97953	1555.2	1.24
298.15	1.38773	1578.39	1.25
298.15	1.85	1604.16	1.26
298.15	2.37871	1631.65	1.27
298.15	2.98873	1661.43	1.27
298.15	3.70006	1693.76	1.28
303.15	0.29209	1525.97	1.23
303.15	0.48364	1537.11	1.23
303.15	0.61638	1544.71	1.24
303.15	0.97953	1565.21	1.24
303.15	1.38773	1587.42	1.25
303.15	1.85	1612.19	1.26
303.15	2.37871	1638.6	1.27
303.15	2.98873	1667.24	1.28
303.15	3.70006	1698.32	1.29
308.15	0.29209	1535.94	1.23
308.15	0.48364	1546.62	1.23
308.15	0.61638	1553.95	1.24
308.15	0.97953	1573.64	1.24
308.15	1.38773	1595.01	1.25
308.15	1.85	1618.83	1.26
308.15	2.37871	1644.26	1.27
308.15	2.98873	1671.83	1.28
308.15	3.70006	1701.78	1.29

System: D-fructose + water; phases: Liquid
Fixed: Pressure, kPa = 84.5
Property: Mass density, kg/m3 (Liquid); method: Vibrating tube method
Temperature, K	Molality, mol/kg of D-fructose	Mass density, kg/m3	uncertainty
288.15	0.17163	1011.004	0.303
288.15	0.23122	1015.033	0.303
288.15	0.292	1019.075	0.303
288.15	0.48254	1031.39	0.305
288.15	0.61606	1039.698	0.305
288.15	0.97866	1061.056	0.308
288.15	1.38584	1083.133	0.312
288.15	1.85058	1106.016	0.317
288.15	2.37858	1129.632	0.323
288.15	2.98084	1153.68	0.33
288.15	3.66681	1178.118	0.339
293.15	0.17163	1010.002	0.303
293.15	0.23122	1013.994	0.303
293.15	0.292	1018.005	0.303
293.15	0.48254	1030.211	0.305
293.15	0.61606	1038.453	0.305
293.15	0.97866	1059.67	0.308
293.15	1.38584	1081.504	0.312
293.15	1.85058	1104.263	0.316
293.15	2.37858	1127.755	0.322
293.15	2.98084	1151.662	0.33
293.15	3.66681	1175.942	0.339
298.15	0.17163	1008.734	0.303
298.15	0.23122	1012.689	0.303
298.15	0.292	1016.665	0.303
298.15	0.48254	1028.763	0.304
298.15	0.61606	1036.933	0.305
298.15	0.97866	1057.916	0.308
298.15	1.38584	1079.615	0.311
298.15	1.85058	1102.197	0.316
298.15	2.37858	1125.515	0.322
298.15	2.98084	1149.245	0.329
298.15	3.66681	1173.338	0.338
303.15	0.17163	1007.236	0.303
303.15	0.23122	1011.161	0.303
303.15	0.292	1015.102	0.303
303.15	0.48254	1027.103	0.304
303.15	0.61606	1035.207	0.305
303.15	0.97866	1056.019	0.308
303.15	1.38584	1077.546	0.311
303.15	1.85058	1099.942	0.316
303.15	2.37858	1123.093	0.322
303.15	2.98084	1146.655	0.329
303.15	3.66681	1170.575	0.338
308.15	0.17163	1005.535	0.303
308.15	0.23122	1009.429	0.303
308.15	0.292	1013.338	0.303
308.15	0.48254	1025.249	0.304
308.15	0.61606	1033.29	0.305
308.15	0.97866	1053.949	0.308
308.15	1.38584	1075.318	0.311
308.15	1.85058	1097.551	0.315
308.15	2.37858	1120.529	0.321
308.15	2.98084	1143.925	0.328
308.15	3.66681	1167.687	0.337

System: D-fructose + water; phases: Liquid
Fixed: Pressure, kPa = 84.5
Fixed: Frequency, MHz = 3
Property: Speed of sound, m/s (Liquid); method: Sing-around technique in a fixed-path interferometer
Temperature, K	Molality, mol/kg of D-fructose	Speed of sound, m/s	uncertainty
288.15	0.17163	1478.94	1.22
288.15	0.23122	1483.23	1.22
288.15	0.292	1487.53	1.23
288.15	0.48254	1500.94	1.23
288.15	0.61606	1510.17	1.24
288.15	0.97866	1534.74	1.25
288.15	1.38584	1561.6	1.27
288.15	1.85058	1588.9	1.29
288.15	2.37858	1622.09	1.31
288.15	2.98084	1655.53	1.33
288.15	3.66681	1690.96	1.35
293.15	0.17163	1494.4	1.22
293.15	0.23122	1498.46	1.23
293.15	0.292	1502.56	1.23
293.15	0.48254	1515.27	1.24
293.15	0.61606	1524.11	1.24
293.15	0.97866	1547.46	1.26
293.15	1.38584	1572.94	1.27
293.15	1.85058	1599.13	1.29
293.15	2.37858	1630.78	1.31
293.15	2.98084	1662.7	1.33
293.15	3.66681	1696.47	1.35
298.15	0.17163	1507.97	1.23
298.15	0.23122	1511.81	1.23
298.15	0.292	1515.69	1.23
298.15	0.48254	1527.8	1.24
298.15	0.61606	1536.18	1.24
298.15	0.97866	1558.36	1.26
298.15	1.38584	1582.54	1.27
298.15	1.85058	1607.48	1.29
298.15	2.37858	1637.59	1.31
298.15	2.98084	1667.97	1.33
298.15	3.66681	1700.11	1.35
303.15	0.17163	1519.76	1.23
303.15	0.23122	1523.42	1.23
303.15	0.292	1527.14	1.23
303.15	0.48254	1538.59	1.24
303.15	0.61606	1546.53	1.25
303.15	0.97866	1567.66	1.26
303.15	1.38584	1590.65	1.27
303.15	1.85058	1614.32	1.29
303.15	2.37858	1642.98	1.31
303.15	2.98084	1671.93	1.33
303.15	3.66681	1702.54	1.35
308.15	0.17163	1529.92	1.23
308.15	0.23122	1533.4	1.23
308.15	0.292	1536.9	1.24
308.15	0.48254	1547.78	1.24
308.15	0.61606	1555.34	1.25
308.15	0.97866	1575.45	1.26
308.15	1.38584	1597.31	1.28
308.15	1.85058	1619.88	1.29
308.15	2.37858	1647.15	1.31
308.15	2.98084	1674.71	1.33
308.15	3.66681	1703.93	1.35

System: D-sucrose + water; phases: Liquid
Fixed: Pressure, kPa = 84.5
Property: Mass density, kg/m3 (Liquid); method: Vibrating tube method
Temperature, K	Molality, mol/kg of D-sucrose	Mass density, kg/m3	uncertainty
288.15	0.09036	1010.864	0.303
288.15	0.12173	1014.832	0.304
288.15	0.15375	1018.819	0.304
288.15	0.25383	1030.977	0.306
288.15	0.32449	1039.25	0.308
288.15	0.51561	1060.407	0.314
288.15	0.72903	1082.254	0.324
288.15	0.9736	1105.099	0.339
288.15	1.25221	1128.743	0.36
288.15	1.57329	1153.122	0.389
288.15	1.94767	1178.478	0.427
293.15	0.09036	1009.894	0.303
293.15	0.12173	1013.837	0.304
293.15	0.15375	1017.798	0.304
293.15	0.25383	1029.882	0.306
293.15	0.32449	1038.103	0.308
293.15	0.51561	1059.134	0.314
293.15	0.72903	1080.848	0.324
293.15	0.9736	1103.563	0.339
293.15	1.25221	1127.074	0.36
293.15	1.57329	1151.325	0.388
293.15	1.94767	1176.549	0.426
298.15	0.09036	1008.671	0.303
298.15	0.12173	1012.59	0.304
298.15	0.15375	1016.53	0.304
298.15	0.25383	1028.548	0.306
298.15	0.32449	1036.727	0.308
298.15	0.51561	1057.642	0.314
298.15	0.72903	1079.246	0.324
298.15	0.9736	1101.844	0.338
298.15	1.25221	1125.24	0.359
298.15	1.57329	1149.376	0.387
298.15	1.94767	1174.484	0.425
303.15	0.09036	1007.217	0.303
303.15	0.12173	1011.118	0.304
303.15	0.15375	1015.037	0.304
303.15	0.25383	1026.998	0.306
303.15	0.32449	1035.138	0.308
303.15	0.51561	1055.956	0.314
303.15	0.72903	1077.458	0.323
303.15	0.9736	1099.956	0.338
303.15	1.25221	1123.248	0.359
303.15	1.57329	1147.284	0.387
303.15	1.94767	1172.292	0.424
308.15	0.09036	1005.552	0.303
308.15	0.12173	1009.435	0.303
308.15	0.15375	1013.339	0.304
308.15	0.25383	1025.251	0.306
308.15	0.32449	1033.353	0.308
308.15	0.51561	1054.085	0.314
308.15	0.72903	1075.5	0.323
308.15	0.9736	1097.905	0.337
308.15	1.25221	1121.111	0.358
308.15	1.57329	1145.055	0.386
308.15	1.94767	1169.977	0.423

System: D-sucrose + water; phases: Liquid
Fixed: Pressure, kPa = 84.5
Fixed: Frequency, MHz = 3
Property: Speed of sound, m/s (Liquid); method: Sing-around technique in a fixed-path interferometer
Temperature, K	Molality, mol/kg of D-sucrose	Speed of sound, m/s	uncertainty
288.15	0.09036	1475.39	1.23
288.15	0.12173	1478.47	1.23
288.15	0.15375	1481.61	1.24
288.15	0.25383	1491.45	1.25
288.15	0.32449	1498.33	1.26
288.15	0.51561	1516.83	1.3
288.15	0.72903	1537.29	1.34
288.15	0.9736	1559.88	1.38
288.15	1.25221	1585.22	1.43
288.15	1.57329	1613.01	1.48
288.15	1.94767	1643.78	1.54
293.15	0.09036	1491.08	1.23
293.15	0.12173	1494.04	1.23
293.15	0.15375	1497.04	1.24
293.15	0.25383	1506.38	1.25
293.15	0.32449	1512.97	1.27
293.15	0.51561	1530.68	1.3
293.15	0.72903	1550.19	1.34
293.15	0.9736	1571.89	1.38
293.15	1.25221	1596.09	1.43
293.15	1.57329	1622.67	1.48
293.15	1.94767	1652.12	1.54
298.15	0.09036	1504.89	1.23
298.15	0.12173	1507.7	1.24
298.15	0.15375	1510.57	1.24
298.15	0.25383	1519.52	1.26
298.15	0.32449	1525.84	1.27
298.15	0.51561	1542.76	1.3
298.15	0.72903	1561.47	1.34
298.15	0.9736	1582.23	1.38
298.15	1.25221	1605.44	1.43
298.15	1.57329	1630.91	1.48
298.15	1.94767	1659.12	1.54
303.15	0.09036	1516.88	1.23
303.15	0.12173	1519.6	1.24
303.15	0.15375	1522.34	1.24
303.15	0.25383	1530.93	1.26
303.15	0.32449	1536.98	1.27
303.15	0.51561	1553.19	1.3
303.15	0.72903	1571.12	1.34
303.15	0.9736	1591.05	1.39
303.15	1.25221	1613.28	1.43
303.15	1.57329	1637.73	1.49
303.15	1.94767	1664.85	1.54
308.15	0.09036	1527.28	1.24
308.15	0.12173	1529.82	1.24
308.15	0.15375	1532.45	1.25
308.15	0.25383	1540.73	1.26
308.15	0.32449	1546.51	1.27
308.15	0.51561	1562.03	1.3
308.15	0.72903	1579.22	1.34
308.15	0.9736	1598.39	1.39
308.15	1.25221	1619.73	1.43
308.15	1.57329	1643.25	1.49
308.15	1.94767	1669.34	1.54
