Measured thermophysical data. Densities and Excess Molar Volumes of the Ternary System (1,4-Dioxane + 2-Propanol + 1,1,2,2-Tetrachloroethane) at T = 288.15-318.15 K and at Atmospheric Pressure: Experimental Measurements and Prigogine-Flory-Patterson Modeling
Source: J. Chem. Eng. Data, 2019, 10.1021/acs.jced.9b00347
Compound 1: 1,4-dioxane, C4H8O2, InChI=1S/C4H8O2/c1-2-6-4-3-5-1/h1-4H2
Compound 2: 1,1,2,2-tetrachloroethane, C2H2Cl4, InChI=1S/C2H2Cl4/c3-1(4)2(5)6/h1-2H
Compound 3: propan-2-ol, C3H8O, InChI=1S/C3H8O/c1-3(2)4/h3-4H,1-2H3

System: 1,1,2,2-tetrachloroethane; phases: Liquid
Fixed: Pressure, kPa = 101.3
Property: Mass density, kg/m3 (Liquid); method: Vibrating tube method
Temperature, K	Mass density, kg/m3	uncertainty
288.15	1602.77	5.03
298.15	1587.2	4.93
308.15	1571.63	4.83
318.15	1556.07	4.73

System: 1,4-dioxane + 1,1,2,2-tetrachloroethane; phases: Liquid
Fixed: Pressure, kPa = 101.3
Property: Mass density, kg/m3 (Liquid); method: Vibrating tube method
Temperature, K	Mole fraction of 1,4-dioxane	Mass density, kg/m3	uncertainty
288.15	0	1602.77	5.03
298.15	0	1587.2	4.93
308.15	0	1571.63	4.83
318.15	0	1556.07	4.73
288.15	0.025	1591.5	4.84
298.15	0.025	1576.15	4.74
308.15	0.025	1560.75	4.65
318.15	0.025	1545.31	4.56
298.15	0.05	1565.24	4.5
288.15	0.05	1580.46	4.59
308.15	0.05	1549.97	4.41
318.15	0.05	1534.66	4.33
298.15	0.15	1519.7	3.65
308.15	0.15	1504.96	3.58
288.15	0.15	1534.37	3.71
318.15	0.15	1490.18	3.52
298.15	0.25	1471.99	3.03
308.15	0.25	1457.77	2.98
288.15	0.25	1486.14	3.08
318.15	0.25	1443.47	2.94
308.15	0.35	1407.58	2.52
288.15	0.35	1434.96	2.6
298.15	0.35	1421.31	2.56
318.15	0.35	1393.76	2.49
288.15	0.452	1380.12	2.24
298.15	0.452	1366.95	2.21
308.15	0.452	1353.69	2.18
318.15	0.452	1340.34	2.15
308.15	0.5	1327.62	2.07
288.15	0.5	1353.63	2.12
298.15	0.5	1340.67	2.09
318.15	0.5	1314.48	2.04
308.15	0.55	1299.44	1.98
288.15	0.55	1325.03	2.03
298.15	0.55	1312.28	2
318.15	0.55	1286.5	1.96
308.15	0.65	1241.31	1.84
298.15	0.65	1253.77	1.86
288.15	0.65	1266.13	1.87
318.15	0.65	1228.78	1.82
298.15	0.75	1192.45	1.78
288.15	0.75	1204.48	1.79
308.15	0.75	1180.36	1.76
318.15	0.75	1168.19	1.75
288.15	0.85	1140.5	1.75
298.15	0.85	1128.79	1.74
308.15	0.85	1117.02	1.73
318.15	0.85	1105.18	1.71
298.15	0.95	1062.28	1.71
308.15	0.95	1050.84	1.7
288.15	0.95	1073.65	1.72
318.15	0.95	1039.34	1.68

System: propan-2-ol + 1,1,2,2-tetrachloroethane; phases: Liquid
Fixed: Pressure, kPa = 101.3
Property: Mass density, kg/m3 (Liquid); method: Vibrating tube method
Temperature, K	Mole fraction of propan-2-ol	Mass density, kg/m3	uncertainty
288.15	0	1602.77	5.03
298.15	0	1587.2	4.93
308.15	0	1571.63	4.83
318.15	0	1556.07	4.73
288.15	0.05	1572.23	4.59
298.15	0.05	1556.86	4.51
308.15	0.05	1541.44	4.42
318.15	0.05	1525.99	4.34
298.15	0.15	1494.38	3.59
288.15	0.15	1509.52	3.65
308.15	0.15	1479.18	3.53
318.15	0.15	1463.92	3.47
298.15	0.25	1429.56	2.97
308.15	0.25	1414.65	2.92
288.15	0.25	1444.36	3.01
318.15	0.25	1399.64	2.87
298.15	0.35	1360.78	2.53
288.15	0.35	1375.15	2.57
308.15	0.35	1346.27	2.5
318.15	0.35	1331.62	2.46
298.15	0.45	1288.16	2.24
308.15	0.45	1274.15	2.21
288.15	0.45	1302	2.27
318.15	0.45	1259.96	2.19
288.15	0.5	1263.78	2.21
308.15	0.5	1236.51	2.16
298.15	0.5	1250.24	2.18
318.15	0.5	1222.59	2.13
298.15	0.55	1210.65	2.16
308.15	0.55	1197.24	2.13
288.15	0.55	1223.85	2.18
318.15	0.55	1183.62	2.11
308.15	0.65	1115.3	2.08
288.15	0.65	1140.46	2.12
298.15	0.65	1127.99	2.1
318.15	0.65	1102.37	2.06
298.15	0.75	1038.87	2.14
288.15	0.75	1050.44	2.16
308.15	0.75	1027.06	2.11
318.15	0.75	1014.97	2.09
288.15	0.85	953.06	2.25
298.15	0.85	942.59	2.23
308.15	0.85	931.84	2.2
318.15	0.85	920.8	2.17
288.15	0.95	846.57	2.29
298.15	0.95	837.49	2.27
308.15	0.95	828.12	2.24
318.15	0.95	818.41	2.21

System: 1,4-dioxane + propan-2-ol + 1,1,2,2-tetrachloroethane; phases: Liquid
Fixed: Pressure, kPa = 101.3
Property: Mass density, kg/m3 (Liquid); method: Vibrating tube method
Temperature, K	Mole fraction of 1,4-dioxane	Mole fraction of propan-2-ol	Mass density, kg/m3	uncertainty
288.15	0	0	1602.77	5.03
298.15	0	0	1587.2	4.93
308.15	0	0	1571.63	4.83
318.15	0	0	1556.07	4.73
288.15	0.012	0.037	1574.25	4.7
298.15	0.012	0.037	1558.92	4.6
308.15	0.012	0.037	1543.55	4.52
318.15	0.012	0.037	1528.14	4.44
288.15	0.013	0.038	1574.01	4.67
298.15	0.013	0.038	1558.68	4.59
308.15	0.013	0.038	1543.31	4.5
318.15	0.013	0.038	1527.89	4.42
288.15	0.023	0.023	1578.8	4.76
298.15	0.023	0.023	1563.49	4.68
308.15	0.023	0.023	1548.14	4.59
318.15	0.023	0.023	1532.74	4.51
288.15	0.032	0.032	1569.41	4.58
298.15	0.032	0.032	1554.17	4.5
308.15	0.032	0.032	1538.88	4.41
318.15	0.032	0.032	1523.56	4.33
288.15	0.038	0.013	1578.39	4.74
298.15	0.038	0.113	1501	3.77
288.15	0.038	0.113	1516.02	3.84
298.15	0.038	0.013	1563.13	4.66
308.15	0.038	0.113	1485.91	3.71
308.15	0.038	0.013	1547.83	4.57
318.15	0.038	0.113	1470.77	3.66
318.15	0.038	0.013	1532.49	4.49
288.15	0.041	0.123	1507.81	3.74
298.15	0.041	0.123	1492.84	3.69
308.15	0.041	0.123	1477.8	3.63
318.15	0.041	0.123	1462.68	3.57
288.15	0.052	0.017	1569.04	4.56
298.15	0.052	0.017	1553.87	4.48
308.15	0.052	0.017	1538.66	4.4
318.15	0.052	0.017	1523.41	4.32
298.15	0.062	0.187	1440.8	3.17
308.15	0.062	0.187	1426.07	3.12
318.15	0.062	0.187	1411.25	3.07
288.15	0.062	0.187	1455.43	3.21
298.15	0.075	0.075	1507.41	3.79
288.15	0.075	0.075	1522.3	3.85
308.15	0.075	0.075	1492.46	3.73
318.15	0.075	0.075	1477.44	3.67
298.15	0.088	0.263	1377.2	2.76
308.15	0.088	0.263	1362.9	2.72
288.15	0.088	0.263	1391.37	2.8
318.15	0.088	0.263	1348.46	2.69
298.15	0.113	0.338	1309.95	2.54
288.15	0.113	0.338	1323.59	2.57
298.15	0.113	0.038	1513.54	3.82
308.15	0.113	0.338	1296.16	2.51
288.15	0.113	0.038	1528.31	3.89
308.15	0.113	0.038	1498.7	3.76
318.15	0.113	0.338	1282.2	2.48
318.15	0.113	0.038	1483.81	3.7
298.15	0.125	0.125	1451.18	3.2
308.15	0.125	0.375	1261.36	2.48
308.15	0.125	0.125	1436.63	3.15
288.15	0.125	0.375	1288.19	2.53
318.15	0.125	0.375	1247.67	2.45
298.15	0.125	0.375	1274.87	2.51
318.15	0.125	0.125	1422	3.1
288.15	0.125	0.125	1465.63	3.25
308.15	0.135	0.45	1197.26	2.44
288.15	0.135	0.45	1223.03	2.49
298.15	0.135	0.45	1210.24	2.47
318.15	0.135	0.45	1184.06	2.41
308.15	0.137	0.412	1225.29	2.45
298.15	0.137	0.412	1238.49	2.47
318.15	0.137	0.412	1211.89	2.42
288.15	0.137	0.412	1251.5	2.5
308.15	0.167	0.5	1136.22	2.4
298.15	0.167	0.5	1148.61	2.42
318.15	0.167	0.5	1123.59	2.38
288.15	0.167	0.5	1160.79	2.44
298.15	0.175	0.175	1392.09	2.79
308.15	0.175	0.175	1378	2.75
288.15	0.175	0.175	1406.07	2.83
318.15	0.175	0.175	1363.79	2.72
308.15	0.179	0.179	1373.48	2.72
288.15	0.179	0.179	1401.47	2.8
298.15	0.179	0.179	1387.53	2.76
318.15	0.179	0.179	1359.3	2.69
298.15	0.187	0.562	1078.97	2.55
308.15	0.187	0.562	1067.23	2.53
318.15	0.187	0.562	1055.22	2.5
288.15	0.187	0.562	1090.48	2.57
288.15	0.188	0.063	1476.04	3.3
308.15	0.188	0.063	1447.36	3.21
298.15	0.188	0.063	1461.74	3.25
318.15	0.188	0.063	1432.91	3.16
308.15	0.211	0.632	986.97	2.51
318.15	0.211	0.632	975.73	2.49
298.15	0.211	0.632	997.95	2.54
288.15	0.211	0.632	1008.69	2.56
288.15	0.225	0.225	1342.94	2.59
308.15	0.225	0.225	1315.9	2.53
298.15	0.225	0.225	1329.49	2.56
318.15	0.225	0.225	1302.18	2.5
288.15	0.236	0.708	911.47	3.09
318.15	0.236	0.708	881.16	3.01
308.15	0.236	0.708	891.51	3
298.15	0.236	0.708	901.6	3.03
318.15	0.237	0.712	875.72	3.01
308.15	0.237	0.712	886.01	3.08
298.15	0.237	0.712	896.06	3.1
288.15	0.237	0.712	905.88	3.09
308.15	0.25	0.25	1283.44	2.43
298.15	0.25	0.25	1296.75	2.46
318.15	0.25	0.25	1269.97	2.41
288.15	0.25	0.25	1309.91	2.49
308.15	0.262	0.088	1393.39	2.83
298.15	0.262	0.088	1407.3	2.87
288.15	0.262	0.088	1421.1	2.91
318.15	0.262	0.088	1379.39	2.8
288.15	0.275	0.275	1276.14	2.41
318.15	0.275	0.275	1237.02	2.34
298.15	0.275	0.275	1263.27	2.39
308.15	0.275	0.275	1250.23	2.36
298.15	0.325	0.325	1192.11	2.36
288.15	0.325	0.325	1204.38	2.38
298.15	0.325	0.325	1192.72	2.36
308.15	0.325	0.325	1179.66	2.34
318.15	0.325	0.325	1167.03	2.32
318.15	0.325	0.325	1167.63	2.31
308.15	0.325	0.325	1180.27	2.34
288.15	0.325	0.325	1205	2.38
298.15	0.339	0.113	1348.14	2.66
288.15	0.339	0.113	1361.43	2.69
308.15	0.339	0.113	1334.74	2.63
318.15	0.339	0.113	1321.22	2.6
298.15	0.375	0.125	1319.06	2.56
308.15	0.375	0.375	1105.71	2.33
288.15	0.375	0.125	1332.1	2.58
318.15	0.375	0.375	1093.66	2.31
308.15	0.375	0.125	1305.89	2.53
288.15	0.375	0.375	1129.22	2.37
318.15	0.375	0.125	1292.6	2.5
298.15	0.375	0.375	1117.55	2.35
308.15	0.413	0.138	1274.93	2.48
298.15	0.413	0.138	1287.85	2.5
318.15	0.413	0.138	1261.88	2.45
288.15	0.413	0.138	1300.64	2.53
308.15	0.425	0.425	1026.52	2.37
318.15	0.425	0.425	1015.09	2.34
288.15	0.425	0.425	1048.82	2.41
298.15	0.425	0.425	1037.76	2.39
318.15	0.475	0.475	931.35	2.44
308.15	0.475	0.475	942.15	2.46
288.15	0.475	0.475	963.25	2.5
298.15	0.475	0.475	952.78	2.48
308.15	0.488	0.163	1210.9	2.5
298.15	0.488	0.163	1223.35	2.52
318.15	0.488	0.163	1198.33	2.48
288.15	0.488	0.163	1235.65	2.55
318.15	0.562	0.187	1132.33	2.47
308.15	0.562	0.187	1144.44	2.49
298.15	0.562	0.187	1156.43	2.51
288.15	0.562	0.187	1168.28	2.53
318.15	0.638	0.213	1060.28	2.57
308.15	0.638	0.213	1071.93	2.59
298.15	0.638	0.213	1083.46	2.6
288.15	0.638	0.213	1094.88	2.62
298.15	0.711	0.237	1009.43	2.61
318.15	0.711	0.237	987.16	2.59
308.15	0.711	0.237	998.35	2.59
288.15	0.711	0.237	1020.4	2.65
318.15	0.712	0.237	985.95	2.57
288.15	0.712	0.237	1019.17	2.62
308.15	0.712	0.237	997.13	2.59
298.15	0.712	0.237	1008.2	2.6
