Measured thermophysical data. Density, Speed of Sound, Refractive Index, and Viscosity of the Binary Mixtures of N,N-dimethylacetamide with Methanol and Ethanol
Source: J. Chem. Eng. Data, 2016, 10.1021/acs.jced.5b01000
Compound 1: N,N-dimethylethanamide, C4H9NO, InChI=1S/C4H9NO/c1-4(6)5(2)3/h1-3H3, purity 99.5%
Compound 2: methanol, CH4O, InChI=1S/CH4O/c1-2/h2H,1H3, purity 99.8%
Compound 3: ethanol, C2H6O, InChI=1S/C2H6O/c1-2-3/h3H,2H2,1H3, purity 99.8%

System: N,N-dimethylethanamide; phases: Liquid
Fixed: Pressure, kPa = 99
Property: Mass density, kg/m3 (Liquid); method: Vibrating tube method
Temperature, K	Mass density, kg/m3	uncertainty
283.15	950.131	0.21
298.15	936.289	0.209
313.15	922.429	0.208

System: N,N-dimethylethanamide; phases: Liquid
Fixed: Pressure, kPa = 99
Fixed: Frequency, MHz = 3
Property: Speed of sound, m/s (Liquid); method: Sing-around technique in a fixed-path interferometer
Temperature, K	Speed of sound, m/s	uncertainty
283.15	1516.8	1.31
298.15	1453.68	1.3
313.15	1393.35	1.29

System: N,N-dimethylethanamide; phases: Liquid
Fixed: Pressure, kPa = 99
Property: Refractive index (Na D-line) (Liquid); method: Standard Abbe refractometry
Temperature, K	Refractive index (Na D-line)	uncertainty
283.15	1.442726	0.000361
298.15	1.435794	0.000361
313.15	1.429006	0.000361

System: N,N-dimethylethanamide; phases: Liquid
Fixed: Pressure, kPa = 99
Property: Viscosity, Pa*s (Liquid); method: Capillary tube (Ostwald; Ubbelohde) method
Temperature, K	Viscosity, Pa*s	uncertainty
283.15	0.0011683	1.37e-05
298.15	0.0009299	1.09e-05
313.15	0.0007644	9.1e-06

System: methanol; phases: Liquid
Fixed: Pressure, kPa = 99
Property: Mass density, kg/m3 (Liquid); method: Vibrating tube method
Temperature, K	Mass density, kg/m3	uncertainty
283.15	800.707	0.192
298.15	786.611	0.192
313.15	772.31	0.193

System: methanol; phases: Liquid
Fixed: Pressure, kPa = 99
Fixed: Frequency, MHz = 3
Property: Speed of sound, m/s (Liquid); method: Sing-around technique in a fixed-path interferometer
Temperature, K	Speed of sound, m/s	uncertainty
283.15	1152.66	1.16
298.15	1104.23	1.15
313.15	1054.49	1.14

System: methanol; phases: Liquid
Fixed: Pressure, kPa = 99
Property: Refractive index (Na D-line) (Liquid); method: Standard Abbe refractometry
Temperature, K	Refractive index (Na D-line)	uncertainty
283.15	1.332821	0.000349
298.15	1.326357	0.000349
313.15	1.32013	0.000349

System: methanol; phases: Liquid
Fixed: Pressure, kPa = 99
Property: Viscosity, Pa*s (Liquid); method: Capillary tube (Ostwald; Ubbelohde) method
Temperature, K	Viscosity, Pa*s	uncertainty
283.15	0.000677	7.9e-06
298.15	0.0005449	6.4e-06
313.15	0.0004441	5.3e-06

System: ethanol; phases: Liquid
Fixed: Pressure, kPa = 99
Property: Mass density, kg/m3 (Liquid); method: Vibrating tube method
Temperature, K	Mass density, kg/m3	uncertainty
283.15	797.878	0.192
298.15	785.054	0.192
313.15	772.5	0.193

System: ethanol; phases: Liquid
Fixed: Pressure, kPa = 99
Fixed: Frequency, MHz = 3
Property: Speed of sound, m/s (Liquid); method: Sing-around technique in a fixed-path interferometer
Temperature, K	Speed of sound, m/s	uncertainty
283.15	1194.51	1.17
298.15	1143.17	1.16
313.15	1092.44	1.15

System: ethanol; phases: Liquid
Fixed: Pressure, kPa = 99
Property: Refractive index (Na D-line) (Liquid); method: Standard Abbe refractometry
Temperature, K	Refractive index (Na D-line)	uncertainty
283.15	1.365294	0.000349
298.15	1.35913	0.000349
313.15	1.352755	0.000349

System: ethanol; phases: Liquid
Fixed: Pressure, kPa = 99
Property: Viscosity, Pa*s (Liquid); method: Capillary tube (Ostwald; Ubbelohde) method
Temperature, K	Viscosity, Pa*s	uncertainty
283.15	0.0014443	1.65e-05
298.15	0.0010794	1.24e-05
313.15	0.0008235	9.6e-06

System: methanol + N,N-dimethylethanamide; phases: Liquid
Fixed: Pressure, kPa = 99
Property: Mass density, kg/m3 (Liquid); method: Vibrating tube method
Temperature, K	Mole fraction of N,N-dimethylethanamide	Mass density, kg/m3	uncertainty
283.15	0	800.707	0.192
283.15	0.0602	823.325	0.204
283.15	0.1088	838.649	0.2
283.15	0.2079	864.147	0.199
283.15	0.304	883.509	0.199
283.15	0.4055	899.792	0.199
283.15	0.5011	912.039	0.2
283.15	0.6014	922.607	0.202
283.15	0.7036	931.645	0.204
283.15	0.803	938.688	0.206
283.15	0.9076	945.177	0.208
283.15	0.9502	947.535	0.209
283.15	1	950.131	0.21
298.15	0	786.611	0.192
298.15	0.0602	809.208	0.205
298.15	0.1088	824.553	0.2
298.15	0.2079	849.999	0.199
298.15	0.304	869.253	0.198
298.15	0.4055	885.574	0.199
298.15	0.5011	897.92	0.2
298.15	0.6014	908.603	0.201
298.15	0.7036	917.769	0.203
298.15	0.803	924.814	0.205
298.15	0.9076	931.291	0.207
298.15	0.9502	933.67	0.208
298.15	1	936.289	0.209
313.15	0	772.31	0.193
313.15	0.0602	794.82	0.205
313.15	0.1088	810.116	0.2
313.15	0.2079	835.563	0.199
313.15	0.304	854.874	0.198
313.15	0.4055	871.236	0.199
313.15	0.5011	883.681	0.199
313.15	0.6014	894.459	0.201
313.15	0.7036	903.693	0.202
313.15	0.803	910.885	0.204
313.15	0.9076	917.391	0.206
313.15	0.9502	919.775	0.207
313.15	1	922.429	0.208

System: methanol + N,N-dimethylethanamide; phases: Liquid
Fixed: Pressure, kPa = 99
Fixed: Frequency, MHz = 3
Property: Speed of sound, m/s (Liquid); method: Sing-around technique in a fixed-path interferometer
Temperature, K	Mole fraction of N,N-dimethylethanamide	Speed of sound, m/s	uncertainty
283.15	0	1152.66	1.16
283.15	0.0602	1204.42	1.18
283.15	0.1088	1241.96	1.19
283.15	0.2079	1305.6	1.2
283.15	0.304	1353.44	1.22
283.15	0.4055	1393.97	1.23
283.15	0.5011	1424.83	1.24
283.15	0.6014	1450.44	1.26
283.15	0.7036	1473.13	1.27
283.15	0.803	1489.18	1.28
283.15	0.9076	1505.03	1.3
283.15	0.9502	1510.66	1.3
283.15	1	1516.8	1.31
298.15	0	1104.23	1.15
298.15	0.0602	1154.37	1.17
298.15	0.1088	1190.66	1.18
298.15	0.2079	1250.82	1.19
298.15	0.304	1297.08	1.21
298.15	0.4055	1336	1.22
298.15	0.5011	1365.22	1.23
298.15	0.6014	1391.2	1.25
298.15	0.7036	1413.52	1.26
298.15	0.803	1429.21	1.27
298.15	0.9076	1443.38	1.29
298.15	0.9502	1449.24	1.29
298.15	1	1453.68	1.3
313.15	0	1054.49	1.14
313.15	0.0602	1103.11	1.17
313.15	0.1088	1138.11	1.17
313.15	0.2079	1196.31	1.19
313.15	0.304	1240.65	1.2
313.15	0.4055	1278.33	1.21
313.15	0.5011	1306.88	1.22
313.15	0.6014	1332.74	1.24
313.15	0.7036	1353.05	1.25
313.15	0.803	1370.17	1.26
313.15	0.9076	1383.69	1.28
313.15	0.9502	1388.92	1.28
313.15	1	1393.35	1.29

System: methanol + N,N-dimethylethanamide; phases: Liquid
Fixed: Pressure, kPa = 99
Property: Refractive index (Na D-line) (Liquid); method: Standard Abbe refractometry
Temperature, K	Mole fraction of N,N-dimethylethanamide	Refractive index (Na D-line)	uncertainty
283.15	0	1.332821	0.000349
283.15	0.0602	1.348786	0.000353
283.15	0.1088	1.359689	0.000352
283.15	0.2079	1.378028	0.000352
283.15	0.304	1.392069	0.000352
283.15	0.4055	1.404142	0.000353
283.15	0.5011	1.413314	0.000354
283.15	0.6014	1.421377	0.000355
283.15	0.7036	1.428108	0.000356
283.15	0.803	1.433693	0.000358
283.15	0.9076	1.438785	0.000359
283.15	0.9502	1.440695	0.00036
283.15	1	1.442726	0.000361
298.15	0	1.326357	0.000349
298.15	0.0602	1.342296	0.000353
298.15	0.1088	1.353187	0.000352
298.15	0.2079	1.371425	0.000352
298.15	0.304	1.385361	0.000352
298.15	0.4055	1.397369	0.000353
298.15	0.5011	1.406519	0.000354
298.15	0.6014	1.414584	0.000355
298.15	0.7036	1.421314	0.000356
298.15	0.803	1.42684	0.000358
298.15	0.9076	1.431865	0.000359
298.15	0.9502	1.433783	0.00036
298.15	1	1.435794	0.000361
313.15	0	1.32013	0.000349
313.15	0.0602	1.335981	0.000353
313.15	0.1088	1.3468	0.000352
313.15	0.2079	1.364941	0.000352
313.15	0.304	1.37881	0.000352
313.15	0.4055	1.390754	0.000353
313.15	0.5011	1.399868	0.000354
313.15	0.6014	1.40791	0.000355
313.15	0.7036	1.414597	0.000356
313.15	0.803	1.420135	0.000358
313.15	0.9076	1.425113	0.000359
313.15	0.9502	1.427006	0.00036
313.15	1	1.429006	0.000361

System: methanol + N,N-dimethylethanamide; phases: Liquid
Fixed: Pressure, kPa = 99
Property: Viscosity, Pa*s (Liquid); method: Capillary tube (Ostwald; Ubbelohde) method
Temperature, K	Mole fraction of N,N-dimethylethanamide	Viscosity, Pa*s	uncertainty
283.15	0	0.000677	7.9e-06
283.15	0.0602	0.0007266	8.5e-06
283.15	0.1088	0.0007638	8.9e-06
283.15	0.2079	0.000831	9.7e-06
283.15	0.304	0.000892	1.04e-05
283.15	0.4055	0.0009491	1.1e-05
283.15	0.5011	0.0009971	1.16e-05
283.15	0.6014	0.0010411	1.21e-05
283.15	0.7036	0.0010834	1.26e-05
283.15	0.803	0.0011172	1.3e-05
283.15	0.9076	0.0011492	1.34e-05
283.15	0.9502	0.0011581	1.35e-05
283.15	1	0.0011683	1.37e-05
298.15	0	0.0005449	6.4e-06
298.15	0.0602	0.0005868	6.9e-06
298.15	0.1088	0.0006156	7.2e-06
298.15	0.2079	0.0006706	7.9e-06
298.15	0.304	0.0007197	8.4e-06
298.15	0.4055	0.000764	8.9e-06
298.15	0.5011	0.0008017	9.4e-06
298.15	0.6014	0.0008364	9.8e-06
298.15	0.7036	0.0008692	1.02e-05
298.15	0.803	0.0008941	1.05e-05
298.15	0.9076	0.0009147	1.08e-05
298.15	0.9502	0.0009232	1.09e-05
298.15	1	0.0009299	1.09e-05
313.15	0	0.0004441	5.3e-06
313.15	0.0602	0.000479	5.7e-06
313.15	0.1088	0.0005045	6e-06
313.15	0.2079	0.0005501	6.5e-06
313.15	0.304	0.0005911	7e-06
313.15	0.4055	0.0006287	7.4e-06
313.15	0.5011	0.0006592	7.8e-06
313.15	0.6014	0.000689	8.1e-06
313.15	0.7036	0.0007156	8.4e-06
313.15	0.803	0.0007362	8.7e-06
313.15	0.9076	0.0007539	8.9e-06
313.15	0.9502	0.0007607	9e-06
313.15	1	0.0007644	9.1e-06

System: ethanol + N,N-dimethylethanamide; phases: Liquid
Fixed: Pressure, kPa = 99
Property: Mass density, kg/m3 (Liquid); method: Vibrating tube method
Temperature, K	Mole fraction of N,N-dimethylethanamide	Mass density, kg/m3	uncertainty
283.15	0	797.878	0.192
283.15	0.0524	811.441	0.198
283.15	0.1071	824.492	0.197
283.15	0.2064	845.481	0.197
283.15	0.3022	863.302	0.198
283.15	0.4057	880.337	0.199
283.15	0.5032	894.71	0.2
283.15	0.6016	907.87	0.202
283.15	0.7065	920.678	0.204
283.15	0.8013	931.158	0.206
283.15	0.9021	941.312	0.208
283.15	0.9529	946.061	0.209
283.15	1	950.131	0.21
298.15	0	785.054	0.192
298.15	0.0524	798.435	0.198
298.15	0.1071	811.331	0.197
298.15	0.2064	832.087	0.197
298.15	0.3022	849.767	0.198
298.15	0.4057	866.689	0.198
298.15	0.5032	881.006	0.2
298.15	0.6016	894.141	0.201
298.15	0.7065	906.822	0.203
298.15	0.8013	917.351	0.205
298.15	0.9021	927.481	0.207
298.15	0.9529	932.213	0.208
298.15	1	936.289	0.209
313.15	0	772.5	0.193
313.15	0.0524	785.68	0.199
313.15	0.1071	798.43	0.197
313.15	0.2064	818.908	0.197
313.15	0.3022	836.413	0.197
313.15	0.4057	853.186	0.198
313.15	0.5032	867.418	0.199
313.15	0.6016	880.488	0.201
313.15	0.7065	893.143	0.202
313.15	0.8013	903.56	0.204
313.15	0.9021	913.657	0.206
313.15	0.9529	918.346	0.207
313.15	1	922.429	0.208

System: ethanol + N,N-dimethylethanamide; phases: Liquid
Fixed: Pressure, kPa = 99
Fixed: Frequency, MHz = 3
Property: Speed of sound, m/s (Liquid); method: Sing-around technique in a fixed-path interferometer
Temperature, K	Mole fraction of N,N-dimethylethanamide	Speed of sound, m/s	uncertainty
283.15	0	1194.51	1.17
283.15	0.0524	1225.32	1.18
283.15	0.1071	1254.56	1.19
283.15	0.2064	1297.97	1.2
283.15	0.3022	1334.9	1.21
283.15	0.4057	1369.58	1.23
283.15	0.5032	1399.52	1.24
283.15	0.6016	1427.29	1.25
283.15	0.7065	1454.04	1.27
283.15	0.8013	1476.5	1.28
283.15	0.9021	1498.33	1.3
283.15	0.9529	1508.5	1.3
283.15	1	1516.8	1.31
298.15	0	1143.17	1.16
298.15	0.0524	1172.09	1.17
298.15	0.1071	1199.87	1.18
298.15	0.2064	1242.53	1.19
298.15	0.3022	1277.37	1.2
298.15	0.4057	1312.09	1.22
298.15	0.5032	1341.04	1.23
298.15	0.6016	1367.87	1.24
298.15	0.7065	1394.41	1.26
298.15	0.8013	1415.67	1.27
298.15	0.9021	1437.59	1.29
298.15	0.9529	1446.27	1.29
298.15	1	1453.68	1.3
313.15	0	1092.44	1.15
313.15	0.0524	1120.57	1.16
313.15	0.1071	1147.58	1.17
313.15	0.2064	1188.73	1.18
313.15	0.3022	1222.57	1.19
313.15	0.4057	1256.27	1.21
313.15	0.5032	1284.16	1.22
313.15	0.6016	1310.45	1.23
313.15	0.7065	1336.26	1.25
313.15	0.8013	1358.45	1.26
313.15	0.9021	1378.54	1.27
313.15	0.9529	1386.01	1.28
313.15	1	1393.35	1.29

System: ethanol + N,N-dimethylethanamide; phases: Liquid
Fixed: Pressure, kPa = 99
Property: Refractive index (Na D-line) (Liquid); method: Standard Abbe refractometry
Temperature, K	Mole fraction of N,N-dimethylethanamide	Refractive index (Na D-line)	uncertainty
283.15	0	1.365294	0.000349
283.15	0.0524	1.372458	0.00035
283.15	0.1071	1.379158	0.00035
283.15	0.2064	1.390013	0.000351
283.15	0.3022	1.399246	0.000352
283.15	0.4057	1.408008	0.000353
283.15	0.5032	1.415378	0.000354
283.15	0.6016	1.421959	0.000355
283.15	0.7065	1.428231	0.000356
283.15	0.8013	1.43325	0.000358
283.15	0.9021	1.438261	0.000359
283.15	0.9529	1.440585	0.00036
283.15	1	1.442726	0.000361
298.15	0	1.35913	0.000349
298.15	0.0524	1.366193	0.00035
298.15	0.1071	1.372808	0.00035
298.15	0.2064	1.383513	0.000351
298.15	0.3022	1.392638	0.000352
298.15	0.4057	1.401308	0.000353
298.15	0.5032	1.408629	0.000354
298.15	0.6016	1.415179	0.000355
298.15	0.7065	1.421349	0.000356
298.15	0.8013	1.426396	0.000358
298.15	0.9021	1.431364	0.000359
298.15	0.9529	1.43367	0.00036
298.15	1	1.435794	0.000361
313.15	0	1.352755	0.000349
313.15	0.0524	1.359742	0.00035
313.15	0.1071	1.366318	0.00035
313.15	0.2064	1.376911	0.000351
313.15	0.3022	1.385976	0.000352
313.15	0.4057	1.394611	0.000353
313.15	0.5032	1.401889	0.000354
313.15	0.6016	1.408433	0.000355
313.15	0.7065	1.414628	0.000356
313.15	0.8013	1.419621	0.000358
313.15	0.9021	1.424595	0.000359
313.15	0.9529	1.426876	0.00036
313.15	1	1.429006	0.000361

System: ethanol + N,N-dimethylethanamide; phases: Liquid
Fixed: Pressure, kPa = 99
Property: Viscosity, Pa*s (Liquid); method: Capillary tube (Ostwald; Ubbelohde) method
Temperature, K	Mole fraction of N,N-dimethylethanamide	Viscosity, Pa*s	uncertainty
283.15	0	0.0014443	1.65e-05
283.15	0.0524	0.0013687	1.57e-05
283.15	0.1071	0.0013062	1.5e-05
283.15	0.2064	0.0012287	1.41e-05
283.15	0.3022	0.0011868	1.37e-05
283.15	0.4057	0.0011662	1.35e-05
283.15	0.5032	0.0011605	1.34e-05
283.15	0.6016	0.0011598	1.34e-05
283.15	0.7065	0.0011638	1.35e-05
283.15	0.8013	0.0011701	1.36e-05
283.15	0.9021	0.0011717	1.37e-05
283.15	0.9529	0.0011694	1.37e-05
283.15	1	0.0011683	1.37e-05
298.15	0	0.0010794	1.24e-05
298.15	0.0524	0.0010377	1.2e-05
298.15	0.1071	0.0010026	1.16e-05
298.15	0.2064	0.0009558	1.11e-05
298.15	0.3022	0.0009319	1.08e-05
298.15	0.4057	0.0009212	1.07e-05
298.15	0.5032	0.0009169	1.07e-05
298.15	0.6016	0.000921	1.07e-05
298.15	0.7065	0.0009259	1.08e-05
298.15	0.8013	0.0009311	1.09e-05
298.15	0.9021	0.0009309	1.09e-05
298.15	0.9529	0.0009307	1.09e-05
298.15	1	0.0009299	1.09e-05
313.15	0	0.0008235	9.6e-06
313.15	0.0524	0.0008029	9.3e-06
313.15	0.1071	0.0007849	9.1e-06
313.15	0.2064	0.0007611	8.9e-06
313.15	0.3022	0.0007493	8.8e-06
313.15	0.4057	0.0007462	8.7e-06
313.15	0.5032	0.0007469	8.8e-06
313.15	0.6016	0.0007516	8.8e-06
313.15	0.7065	0.0007581	8.9e-06
313.15	0.8013	0.0007623	9e-06
313.15	0.9021	0.0007643	9e-06
313.15	0.9529	0.0007651	9.1e-06
313.15	1	0.0007644	9.1e-06
