Measured thermophysical data. Isobaric Vapor-Liquid Equilibrium for the Binary Systems of 2-Butanol + 2-(Methoxymethoxy)-butane and 1-Butanol + 2-(Methoxymethoxy)-butane at 101.3 kPa
Source: J. Chem. Eng. Data, 2018, 10.1021/acs.jced.8b00499
Compound 1: butan-2-ol, C4H10O, InChI=1S/C4H10O/c1-3-4(2)5/h4-5H,3H2,1-2H3, purity 99.9%
Compound 2: butan-1-ol, C4H10O, InChI=1S/C4H10O/c1-2-3-4-5/h5H,2-4H2,1H3, purity 99.9%
Compound 3: 2-(methoxymethoxy)butane, C6H14O2, InChI=1S/C6H14O2/c1-4-6(2)8-5-7-3/h6H,4-5H2,1-3H3
Compound 4: methanol, CH4O, InChI=1S/CH4O/c1-2/h2H,1H3, purity 99.9%

System: butan-2-ol; phases: Liquid
Property: Mass density, kg/m3 (Liquid); method: Pycnometric method
Temperature, K	Pressure, kPa	Mass density, kg/m3	uncertainty
298.15	101.325	802.6	0.9

System: butan-2-ol; phases: Liquid
Property: Refractive index (Na D-line) (Liquid); method: Standard Abbe refractometry
Temperature, K	Pressure, kPa	Refractive index (Na D-line)	uncertainty
298.15	101.325	1.395	0.0006

System: butan-2-ol; phases: Liquid
Property: Viscosity, Pa*s (Liquid); method: Capillary tube (Ostwald; Ubbelohde) method
Temperature, K	Pressure, kPa	Viscosity, Pa*s	uncertainty
298.15	101.325	0.003099	9e-05

System: butan-2-ol; phases: Liquid, Gas
Property: Vapor or sublimation pressure, kPa (Liquid); method: Ebulliometric method (Recirculating still)
Temperature, K	Vapor or sublimation pressure, kPa	uncertainty
344.47	31.5	1
351.27	42.8	1
356.45	53.5	1
363.21	70.7	1
366.85	81.2	1
369.83	91.3	1.1
372.7	101.3	1.1

System: butan-1-ol; phases: Liquid
Property: Mass density, kg/m3 (Liquid); method: Pycnometric method
Temperature, K	Pressure, kPa	Mass density, kg/m3	uncertainty
298.15	101.325	806	0.9

System: butan-1-ol; phases: Liquid
Property: Refractive index (Na D-line) (Liquid); method: Standard Abbe refractometry
Temperature, K	Pressure, kPa	Refractive index (Na D-line)	uncertainty
298.15	101.325	1.3972	0.0006

System: butan-1-ol; phases: Liquid
Property: Viscosity, Pa*s (Liquid); method: Capillary tube (Ostwald; Ubbelohde) method
Temperature, K	Pressure, kPa	Viscosity, Pa*s	uncertainty
298.15	101.325	0.002534	7.2e-05

System: butan-1-ol; phases: Liquid, Gas
Property: Vapor or sublimation pressure, kPa (Liquid); method: Ebulliometric method (Recirculating still)
Temperature, K	Vapor or sublimation pressure, kPa	uncertainty
390.9	101.3	1.1

System: 2-(methoxymethoxy)butane; phases: Liquid
Property: Mass density, kg/m3 (Liquid); method: Pycnometric method
Temperature, K	Pressure, kPa	Mass density, kg/m3	uncertainty
298.15	101.325	836.4	1

System: 2-(methoxymethoxy)butane; phases: Liquid
Property: Refractive index (Na D-line) (Liquid); method: Standard Abbe refractometry
Temperature, K	Pressure, kPa	Refractive index (Na D-line)	uncertainty
298.15	101.325	1.3833	0.0006

System: 2-(methoxymethoxy)butane; phases: Liquid
Property: Viscosity, Pa*s (Liquid); method: Capillary tube (Ostwald; Ubbelohde) method
Temperature, K	Pressure, kPa	Viscosity, Pa*s	uncertainty
298.15	101.325	0.000561	1.4e-05

System: 2-(methoxymethoxy)butane; phases: Liquid, Gas
Property: Vapor or sublimation pressure, kPa (Liquid); method: Ebulliometric method (Recirculating still)
Temperature, K	Vapor or sublimation pressure, kPa	uncertainty
346.4	31.5	1
349.99	36.4	1
356.07	44.4	1
359.47	49.6	1
363.89	57.2	1
367.43	65.1	1
372.48	75.7	1
376.45	85.1	1
379.35	92	1
382.8	101.3	1
385.21	109.1	1
388.5	119	1
391.24	127.9	1.1

System: methanol; phases: Liquid, Gas
Property: Vapor or sublimation pressure, kPa (Liquid); method: Ebulliometric method (Recirculating still)
Temperature, K	Vapor or sublimation pressure, kPa	uncertainty
337.83	101.3	1.1

System: butan-2-ol + 2-(methoxymethoxy)butane; phases: Liquid, Gas
Fixed: Pressure, kPa = 101.3
Property: Boiling temperature at pressure P, K (Liquid); method: Ebulliometric method (Recirculating still)
Mole fraction of butan-2-ol	Boiling temperature at pressure P, K	uncertainty
0	382.8	0.23
0.0073	382.46	0.38
0.0286	381.57	0.46
0.0492	380.82	0.39
0.1029	379.19	0.35
0.1765	377.49	0.31
0.2401	376.35	0.29
0.2876	375.66	0.27
0.3176	375.27	0.27
0.3434	374.97	0.26
0.4342	374.09	0.25
0.4451	374	0.25
0.5028	373.57	0.24
0.5353	373.37	0.24
0.6118	372.97	0.24
0.6616	372.78	0.24
0.681	372.72	0.24
0.7182	372.61	0.24
0.7616	372.53	0.24
0.7918	372.5	0.23
0.7993	372.49	0.23
0.8076	372.49	0.23
0.8274	372.48	0.23
0.8473	372.48	0.23
0.877	372.51	0.24
0.8828	372.52	0.24
0.9084	372.57	0.24
0.9307	372.6	0.23
0.9624	372.61	0.23
0.9724	372.64	0.24
0.9774	372.68	0.24
1	372.7	0.23

System: butan-2-ol + 2-(methoxymethoxy)butane; phases: Gas, Liquid
Fixed: Pressure, kPa = 101.3
Property: Mole fraction of butan-2-ol (Gas); method: Chromatography
Mole fraction of butan-2-ol	Mole fraction of butan-2-ol	uncertainty
0	0	
0.0073	0.0165	0.0165
0.0286	0.0622	0.0226
0.0492	0.1012	0.0192
0.1029	0.1855	0.0177
0.1765	0.2867	0.0163
0.2401	0.359	0.0147
0.2876	0.4014	0.0142
0.3176	0.4324	0.0142
0.3434	0.4538	0.0135
0.4342	0.5289	0.0132
0.4451	0.5372	0.0132
0.5028	0.5791	0.0129
0.5353	0.6026	0.0129
0.6118	0.6601	0.0128
0.6616	0.6961	0.0127
0.681	0.7117	0.0127
0.7182	0.7388	0.0128
0.7616	0.7732	0.0131
0.7918	0.7994	0.0134
0.7993	0.8066	0.0133
0.8076	0.8138	0.0132
0.8274	0.8295	0.0131
0.8473	0.8468	0.0136
0.877	0.8743	0.0135
0.8828	0.8793	0.0135
0.9084	0.9016	0.0137
0.9307	0.9244	0.0145
0.9624	0.958	0.0146
0.9724	0.9688	0.015
0.9774	0.9742	0.015
1	1	

System: butan-1-ol + 2-(methoxymethoxy)butane; phases: Liquid, Gas
Fixed: Pressure, kPa = 101.3
Property: Boiling temperature at pressure P, K (Liquid); method: Ebulliometric method (Recirculating still)
Mole fraction of butan-1-ol	Boiling temperature at pressure P, K	uncertainty
0	382.8	0.23
0.0094	382.5	0.25
0.0245	382.35	0.26
0.0392	382.15	0.29
0.081	381.44	0.27
0.1171	381.09	0.25
0.136	380.96	0.24
0.1923	380.68	0.24
0.2165	380.62	0.24
0.2465	380.57	0.23
0.2781	380.56	0.23
0.3081	380.59	0.24
0.3487	380.85	0.24
0.3749	380.93	0.24
0.4052	381.04	0.24
0.4673	381.35	0.24
0.506	381.61	0.25
0.6039	382.48	0.25
0.6587	383.13	0.27
0.712	383.9	0.28
0.7457	384.46	0.3
0.8037	385.58	0.31
0.8511	386.65	0.33
0.8759	387.27	0.35
0.9114	388.22	0.35
0.9414	388.97	0.38
0.9778	390.23	0.41
0.9884	390.54	0.38
1	390.9	0.23

System: butan-1-ol + 2-(methoxymethoxy)butane; phases: Gas, Liquid
Fixed: Pressure, kPa = 101.3
Property: Mole fraction of butan-1-ol (Gas); method: Chromatography
Mole fraction of butan-1-ol	Mole fraction of butan-1-ol	uncertainty
0	0	
0.0094	0.0142	0.0142
0.0245	0.0347	0.017
0.0392	0.055	0.0155
0.081	0.1026	0.0148
0.1171	0.1397	0.0143
0.136	0.1581	0.0137
0.1923	0.2099	0.0135
0.2165	0.229	0.0128
0.2465	0.2523	0.0127
0.2781	0.2752	0.0129
0.3081	0.3002	0.0123
0.3487	0.3227	0.0123
0.3749	0.3452	0.0125
0.4052	0.3621	0.0122
0.4673	0.403	0.0125
0.506	0.4298	0.0126
0.6039	0.4947	0.0128
0.6587	0.5347	0.0137
0.712	0.5863	0.0141
0.7457	0.6146	0.0144
0.8037	0.6753	0.0152
0.8511	0.732	0.0167
0.8759	0.7714	0.0188
0.9114	0.8271	0.0189
0.9414	0.8757	0.0214
0.9778	0.9517	0.023
0.9884	0.9731	0.024
1	1	

System: methanol + butan-2-ol; phases: Liquid, Gas
Fixed: Pressure, kPa = 101.3
Property: Boiling temperature at pressure P, K (Liquid); method: Ebulliometric method (Recirculating still)
Mole fraction of methanol	Boiling temperature at pressure P, K	uncertainty
0	372.7	0.23
0.0816	367.83	0.61
0.104	367	0.65
0.1366	364.55	0.58
0.1899	362.3	0.46
0.2484	360.17	0.56
0.2867	357.28	0.53
0.3306	356.19	0.48
0.3766	353.53	0.47
0.4276	352.18	0.34
0.493	350.63	0.33
0.543	349.43	0.41
0.5648	348.1	0.42
0.6097	347.02	0.32
0.6412	346.51	0.37
0.6875	344.85	0.36
0.6982	344.56	0.36
0.7523	343.55	0.33
0.7712	342.73	0.49
0.8575	341.39	0.29
0.8923	340.73	0.35
1	337.83	0.23

System: methanol + butan-2-ol; phases: Gas, Liquid
Fixed: Pressure, kPa = 101.3
Property: Mole fraction of methanol (Gas); method: Chromatography
Mole fraction of methanol	Mole fraction of methanol	uncertainty
0	0	
0.0816	0.2599	0.0321
0.104	0.3113	0.0277
0.1366	0.4005	0.0216
0.1899	0.4774	0.0183
0.2484	0.566	0.0192
0.2867	0.6328	0.0168
0.3306	0.6744	0.0145
0.3766	0.7234	0.0138
0.4276	0.7635	0.0124
0.493	0.8056	0.0118
0.543	0.8318	0.0117
0.5648	0.8498	0.011
0.6097	0.8623	0.0106
0.6412	0.8765	0.0109
0.6875	0.896	0.011
0.6982	0.9016	0.0113
0.7523	0.9194	0.0105
0.7712	0.925	0.01
0.8575	0.9561	0.0106
0.8923	0.9647	0.0105
1	1	
