Measured thermophysical data. Determination and Modeling of Solid-Liquid Equilibrium for Ternary Systems of Terephthaldialdehyde + 4-Hydroxybenzaldehyde + Ethyl Acetate/Acetone
Source: J. Chem. Eng. Data, 2018, 10.1021/acs.jced.8b00801
Compound 1: 4-hydroxybenzaldehyde, C7H6O2, InChI=1S/C7H6O2/c8-5-6-1-3-7(9)4-2-6/h1-5,9H, purity 97.8%
Compound 2: terephthalic aldehyde, C8H6O2, InChI=1S/C8H6O2/c9-5-7-1-2-8(6-10)4-3-7/h1-6H, purity 98.4%
Compound 3: ethyl acetate, C4H8O2, InChI=1S/C4H8O2/c1-3-6-4(2)5/h3H2,1-2H3, purity 99.3%
Compound 4: acetone, C3H6O, InChI=1S/C3H6O/c1-3(2)4/h1-2H3, purity 99.3%

System: terephthalic aldehyde + 4-hydroxybenzaldehyde + ethyl acetate; phases: Liquid, Crystal
Fixed: Pressure, kPa = 101.2
Property: Mass fraction of 4-hydroxybenzaldehyde (Liquid); method: Chromatography
Temperature, K	Mass fraction of terephthalic aldehyde	Mass fraction of 4-hydroxybenzaldehyde	uncertainty
293.15	0.02067	0.1632	0.0089
293.15	0.03129	0.1595	0.0087
293.15	0.05024	0.1529	0.0083
293.15	0.06322	0.1485	0.0081
303.15	0.02295	0.2286	0.0124
303.15	0.05191	0.2173	0.0118
303.15	0.06458	0.2124	0.0116
303.15	0.08426	0.2047	0.0112
313.15	0.05304	0.2945	0.016
313.15	0.07385	0.2854	0.0155
313.15	0.08777	0.2794	0.0153
313.15	0.1097	0.2698	0.0148

System: terephthalic aldehyde + 4-hydroxybenzaldehyde + ethyl acetate; phases: Liquid, Crystal
Fixed: Pressure, kPa = 101.2
Property: Mass fraction of 4-hydroxybenzaldehyde (Liquid); method: Chromatography
Temperature, K	Mass fraction of terephthalic aldehyde	Mass fraction of 4-hydroxybenzaldehyde	uncertainty
293.15	0.06322	0.1485	0.0218
293.15	0.06888	0.115	0.023
293.15	0.07262	0.09281	0.02385
293.15	0.07734	0.06485	0.02505
293.15	0.08155	0.03992	0.02623
303.15	0.08426	0.2047	0.0292
303.15	0.08862	0.1789	0.0268
303.15	0.09437	0.1518	0.0264
303.15	0.09878	0.1288	0.0289
303.15	0.1068	0.08658	0.03063
303.15	0.1119	0.06013	0.0353
303.15	0.1171	0.02678	0.02678
313.15	0.1097	0.2698	0.0402
313.15	0.1149	0.237	0.0317
313.15	0.1248	0.1979	0.0315
313.15	0.1365	0.1425	0.0359
313.15	0.1463	0.09584	0.03813
313.15	0.157	0.04464	0.04069

System: terephthalic aldehyde + 4-hydroxybenzaldehyde + acetone; phases: Liquid, Crystal
Fixed: Pressure, kPa = 101.2
Property: Mass fraction of 4-hydroxybenzaldehyde (Liquid); method: Chromatography
Temperature, K	Mass fraction of terephthalic aldehyde	Mass fraction of 4-hydroxybenzaldehyde	uncertainty
293.15	0.03824	0.2325	0.0126
293.15	0.07691	0.2245	0.0122
293.15	0.09425	0.2167	0.0119
293.15	0.1116	0.2117	0.0116
303.15	0.05183	0.3125	0.0169
303.15	0.07879	0.3024	0.0165
303.15	0.1095	0.2892	0.0158
303.15	0.1365	0.2791	0.0154
313.15	0.04222	0.4057	0.022
313.15	0.08652	0.3824	0.0208
313.15	0.1289	0.3669	0.0201
313.15	0.1732	0.3462	0.0192

System: terephthalic aldehyde + 4-hydroxybenzaldehyde + acetone; phases: Liquid, Crystal
Fixed: Pressure, kPa = 101.2
Property: Mass fraction of 4-hydroxybenzaldehyde (Liquid); method: Chromatography
Temperature, K	Mass fraction of terephthalic aldehyde	Mass fraction of 4-hydroxybenzaldehyde	uncertainty
293.15	0.1116	0.2117	0.0586
293.15	0.1154	0.1755	0.0402
293.15	0.1253	0.1227	0.0345
293.15	0.1346	0.07973	0.0369
293.15	0.1404	0.04604	0.04416
303.15	0.1365	0.2791	0.0471
303.15	0.1414	0.2495	0.0443
303.15	0.1482	0.2142	0.0392
303.15	0.1566	0.1782	0.0365
303.15	0.1693	0.1263	0.0439
303.15	0.1789	0.07187	0.0519
303.15	0.1863	0.03562	0.03562
313.15	0.1732	0.3462	0.0413
313.15	0.1828	0.3085	0.0456
313.15	0.1925	0.2633	0.0521
313.15	0.2052	0.2008	0.0558
313.15	0.2098	0.1779	0.0387
313.15	0.2241	0.1362	0.0502
313.15	0.229	0.09264	0.05827
313.15	0.242	0.04686	0.04614
