Measured thermophysical data. Viscosity and Surface Tension of Branched Alkanes 2-Methylnonane and 4-Methylnonane
Source: J. Chem. Eng. Data, 2018, 10.1021/acs.jced.8b00163
Compound 1: 2-methylnonane, C10H22, InChI=1S/C10H22/c1-4-5-6-7-8-9-10(2)3/h10H,4-9H2,1-3H3, purity 98%
Compound 2: 4-methylnonane, C10H22, InChI=1S/C10H22/c1-4-6-7-9-10(3)8-5-2/h10H,4-9H2,1-3H3, purity 98%

System: 2-methylnonane; phases: Liquid
Fixed: Pressure, kPa = 100
Property: Mass density, kg/m3 (Liquid); method: Vibrating tube method
Temperature, K	Mass density, kg/m3	uncertainty
283.15	735.134	0.901
288.15	731.326	0.896
293.15	727.469	0.891
298.15	723.632	0.887
303.15	719.96	0.882
308.15	716.109	0.878
313.15	712.275	0.873
318.15	708.49	0.868
323.15	704.628	0.864
328.15	700.722	0.859
333.15	696.794	0.854
338.15	692.852	0.849
343.15	688.883	0.845
348.15	684.896	0.84
353.15	680.89	0.835
358.15	676.827	0.83
363.15	672.811	0.826
298.15	723.54	2.23
323.15	704.14	2.17
348.15	684.45	2.11
373.15	664.34	2.05
398.15	643.46	1.99
423.15	621.59	1.92

System: 2-methylnonane; phases: Liquid, Gas
Property: Viscosity, Pa*s (Liquid); method: Surface laser light scattering (SLLS)
Temperature, K	Viscosity, Pa*s	uncertainty
298.15	0.0008268	2.82e-05
323.15	0.0006035	2.32e-05
348.15	0.0004629	1.91e-05
373.15	0.0003623	1.66e-05
398.15	0.0002897	1.48e-05
423.15	0.0002365	1.35e-05
448.15	0.0001989	1.25e-05

System: 2-methylnonane; phases: Liquid, Gas
Property: Surface tension liquid-gas, N/m (Liquid); method: Surface laser light scattering (SLLS)
Temperature, K	Surface tension liquid-gas, N/m	uncertainty
298.15	0.02145	0.0003
323.15	0.01965	0.00021
348.15	0.01776	0.00019
373.15	0.01575	0.00019
398.15	0.01364	0.00019
423.15	0.01172	0.00021
448.15	0.0099	0.00017

System: 4-methylnonane; phases: Liquid
Fixed: Pressure, kPa = 100
Property: Mass density, kg/m3 (Liquid); method: Vibrating tube method
Temperature, K	Mass density, kg/m3	uncertainty
283.15	739.362	0.906
288.15	735.555	0.901
293.15	731.743	0.897
298.15	727.929	0.892
303.15	724.098	0.887
308.15	720.253	0.883
313.15	716.396	0.878
318.15	712.527	0.873
323.15	708.634	0.868
328.15	704.729	0.864
333.15	700.808	0.859
338.15	696.873	0.854
343.15	692.918	0.85
348.15	688.94	0.845
353.15	684.943	0.84
358.15	680.922	0.835
363.15	676.877	0.831
298.15	728.35	2.25
323.15	708.82	2.19
348.15	689	2.12
373.15	668.81	2.06
398.15	647.86	2
423.15	626	1.93

System: 4-methylnonane; phases: Liquid, Gas
Property: Viscosity, Pa*s (Liquid); method: Surface laser light scattering (SLLS)
Temperature, K	Viscosity, Pa*s	uncertainty
298.15	0.0007638	2.67e-05
323.15	0.0005533	2.13e-05
348.15	0.0004161	1.79e-05
373.15	0.0003279	1.57e-05
398.15	0.0002644	1.41e-05
423.15	0.0002168	1.3e-05
448.15	0.0001801	1.21e-05

System: 4-methylnonane; phases: Liquid, Gas
Property: Surface tension liquid-gas, N/m (Liquid); method: Surface laser light scattering (SLLS)
Temperature, K	Surface tension liquid-gas, N/m	uncertainty
298.15	0.02167	0.00028
323.15	0.02006	0.00026
348.15	0.01793	0.00019
373.15	0.01592	0.0002
398.15	0.01377	0.00027
423.15	0.01189	0.00013
448.15	0.00995	0.00014
