Measured thermophysical data. Characterization of Six Hygroscopic Ionic Liquids with Regard to Their Suitability for Gas Dehydration: Density, Viscosity, Thermal and Oxidative Stability, Vapor Pressure, Diffusion Coefficient, and Activity Coefficient of Water
Source: J. Chem. Eng. Data, 2016, 10.1021/acs.jced.5b00806
Compound 1: water, H2O, InChI=1S/H2O/h1H2
Compound 2: 1-ethyl-3-methylimidazolium ethyl sulfate, C8H16N2O4S, InChI=1S/C6H11N2.C2H6O4S/c1-3-8-5-4-7(2)6-8;1-2-6-7(3,4)5/h4-6H,3H2,1-2H3;2H2,1H3,(H,3,4,5)/q+1;/p-1, purity 99%
Compound 3: 1,3-dimethylimidazolium dimethylphosphate, C7H15N2O4P, InChI=1S/C5H9N2.C2H7O4P/c1-6-3-4-7(2)5-6;1-5-7(3,4)6-2/h3-5H,1-2H3;1-2H3,(H,3,4)/q+1;/p-1, purity 98%
Compound 4: 1-ethyl-3-methylimidazolium methanesulfonate, C7H14N2O3S, InChI=1S/C6H11N2.CH4O3S/c1-3-8-5-4-7(2)6-8;1-5(2,3)4/h4-6H,3H2,1-2H3;1H3,(H,2,3,4)/q+1;/p-1, purity 95%
Compound 5: 1-ethyl-3-methylimidazolium 2-(2-ethoxyethoxy)ethylsulfate, C12H24N2O6S, InChI=1S/C6H11N2.C6H14O6S/c1-3-8-5-4-7(2)6-8;1-2-10-3-4-11-5-6-12-13(7,8)9/h4-6H,3H2,1-2H3;2-6H2,1H3,(H,7,8,9)/q+1;/p-1, purity 92%
Compound 6: 1-butyl-3-methylimidazolium tetrafluoroborate, C8H15BF4N2, InChI=1S/C8H15N2.BF4/c1-3-4-5-10-7-6-9(2)8-10;2-1(3,4)5/h6-8H,3-5H2,1-2H3;/q+1;-1, purity 99%
Compound 7: choline glycolate, C7H17NO4, InChI=1S/C5H14NO.C2H4O3/c1-6(2,3)4-5-7;3-1-2(4)5/h7H,4-5H2,1-3H3;3H,1H2,(H,4,5)/q+1;/p-1, purity 97%

System: 1,3-dimethylimidazolium dimethylphosphate; phases: Liquid
Fixed: Pressure, kPa = 101.325
Property: Mass density, kg/m3 (Liquid); method: Pycnometric method
Temperature, K	Mass density, kg/m3	uncertainty
293.2	1260	3
303.2	1253	3
313.2	1246	3
323.2	1239	3
333.2	1232	3
343.2	1225	3
353.2	1218	3
363.2	1211	3

System: 1-ethyl-3-methylimidazolium methanesulfonate; phases: Liquid
Fixed: Pressure, kPa = 101.325
Property: Mass density, kg/m3 (Liquid); method: Pycnometric method
Temperature, K	Mass density, kg/m3	uncertainty
293.2	1244	9
303.2	1237	9
313.2	1230	8
323.2	1223	8
333.2	1217	8
343.2	1212	8
353.2	1205	8
363.2	1198	8

System: 1-ethyl-3-methylimidazolium 2-(2-ethoxyethoxy)ethylsulfate; phases: Liquid
Fixed: Pressure, kPa = 101.325
Property: Mass density, kg/m3 (Liquid); method: Pycnometric method
Temperature, K	Mass density, kg/m3	uncertainty
293.2	1215	22
303.2	1207	22
313.2	1200	21
323.2	1193	21
333.2	1185	21
343.2	1178	21
353.2	1170	20
363.2	1164	20

System: 1-ethyl-3-methylimidazolium 2-(2-ethoxyethoxy)ethylsulfate; phases: Liquid, Gas
Property: Vapor or sublimation pressure, kPa (Liquid); method: Langmuir
Temperature, K	Vapor or sublimation pressure, kPa	uncertainty
419.7	3.4e-09	2.1e-09
429	3.8e-09	2.4e-09
430.1	5.6e-09	3.4e-09
430.7	4.9e-09	3e-09
436.4	1.3e-08	8e-09
438.3	8.7e-09	5.3e-09
438.4	1.1e-08	7e-09
438.5	1.1e-08	7e-09
440.2	1.4e-08	9e-09
445.7	2.6e-08	1.6e-08
445.8	2.5e-08	1.5e-08
448.1	2.1e-08	1.3e-08

System: 1-butyl-3-methylimidazolium tetrafluoroborate; phases: Liquid, Gas
Property: Vapor or sublimation pressure, kPa (Liquid); method: Langmuir
Temperature, K	Vapor or sublimation pressure, kPa	uncertainty
396.3	7.2e-10	4.4e-10
403.7	9.9e-10	6e-10
412.1	2.3e-09	1.4e-09
413.6	1.8e-09	1.1e-09
415.4	2.8e-09	1.7e-09
421.6	4.3e-09	2.6e-09
424.9	6.3e-09	3.8e-09
437.3	1.9e-08	1.2e-08
437.6	1.5e-08	9e-09
446.4	3.7e-08	2.2e-08
447.3	4e-08	2.4e-08
447.7	3.9e-08	2.4e-08
457.2	8.3e-08	5e-08
457.5	8.7e-08	5.3e-08
463.4	8.6e-08	5.6e-08
463.4	1.6e-07	1e-07
464.7	1.5e-07	9e-08
465	1.7e-07	1e-07
465.5	1.6e-07	1e-07

System: choline glycolate; phases: Liquid
Fixed: Pressure, kPa = 101.325
Property: Mass density, kg/m3 (Liquid); method: Pycnometric method
Temperature, K	Mass density, kg/m3	uncertainty
293.2	1201	3
303.2	1194	3
313.2	1188	3
323.2	1181	3
333.2	1175	3
343.2	1168	3
353.2	1161	3
363.2	1155	3

System: choline glycolate; phases: Liquid, Gas
Property: Vapor or sublimation pressure, kPa (Liquid); method: Langmuir
Temperature, K	Vapor or sublimation pressure, kPa	uncertainty
348.4	7.9e-09	4.8e-09
348.5	4.9e-09	3.2e-09
349.2	7e-09	4.4e-09
349.3	7.2e-09	4.5e-09
356.1	1.2e-08	7e-09
356.4	9.1e-09	5.5e-09
356.6	1.3e-08	8e-09
357.1	8.8e-09	6.3e-09
363.6	4.4e-08	3e-08
363.9	2.4e-08	1.5e-08
364	1.8e-08	1.2e-08
364.2	2.3e-08	1.4e-08
364.2	5.3e-08	3.2e-08
364.4	2e-08	1.2e-08
364.9	3.1e-08	1.9e-08
366.5	4.3e-08	2.6e-08
372.5	6.6e-08	4e-08
374.2	6.2e-08	3.7e-08

System: water + 1-ethyl-3-methylimidazolium methanesulfonate; phases: Liquid
Fixed: Pressure, kPa = 98
Property: Kinematic viscosity, m2/s (Liquid); method: Capillary tube (Ostwald; Ubbelohde) method
Temperature, K	Mass fraction of water	Kinematic viscosity, m2/s	uncertainty
303.2	0.0024	9.34e-05	3.5e-06
303.2	0.0028	9.45e-05	3.5e-06
303.2	0.01	7.58e-05	2.9e-06
303.2	0.0191	6.2e-05	2.4e-06
303.2	0.0254	5.53e-05	2.2e-06
303.2	0.0323	4.69e-05	2.1e-06
303.2	0.0358	4.51e-05	2e-06
303.2	0.047	3.69e-05	1.9e-06
303.2	0.0589	3.06e-05	1.7e-06
303.2	0.0615	2.95e-05	1.7e-06
313.2	0.0024	5.57e-05	6.2e-06
313.2	0.0028	5.64e-05	7.2e-06
313.2	0.01	4.66e-05	2.1e-06
313.2	0.0191	3.91e-05	2e-06
313.2	0.0254	3.5e-05	1.9e-06
313.2	0.0323	3.06e-05	1.8e-06
313.2	0.0358	2.96e-05	1.8e-06
313.2	0.047	2.48e-05	1.7e-06
313.2	0.0589	2.09e-05	1.6e-06
313.2	0.0615	2.02e-05	1.6e-06
323.2	0.0024	3.74e-05	3.6e-06
323.2	0.0028	3.65e-05	2.1e-06
323.2	0.01	3.23e-05	1.8e-06
323.2	0.0191	2.65e-05	1.7e-06
323.2	0.0254	2.39e-05	1.7e-06
323.2	0.0323	2.1e-05	1.6e-06
323.2	0.0358	2.09e-05	1.6e-06
323.2	0.047	1.77e-05	1.6e-06
323.2	0.0589	1.49e-05	1.6e-06
323.2	0.0615	1.46e-05	1.6e-06
333.2	0.0024	2.57e-05	1.7e-06
333.2	0.01	2.26e-05	1.6e-06
333.2	0.0254	1.76e-05	1.6e-06
333.2	0.0358	1.53e-05	1.6e-06
333.2	0.047	1.31e-05	1.5e-06
333.2	0.0615	1.11e-05	1.5e-06
343.2	0.0024	1.86e-05	1.6e-06
343.2	0.01	1.66e-05	1.6e-06
343.2	0.0254	1.32e-05	1.5e-06
343.2	0.0358	1.16e-05	1.5e-06
343.2	0.047	1.01e-05	1.5e-06
343.2	0.0615	8.5e-06	1.5e-06
353.2	0.0024	1.39e-05	1.6e-06
353.2	0.01	1.24e-05	1.5e-06
353.2	0.0254	1.02e-05	1.5e-06
353.2	0.0358	9.1e-06	1.5e-06
353.2	0.047	8e-06	1.5e-06
353.2	0.0615	6.8e-06	1.5e-06
363.2	0.0024	1.09e-05	1.5e-06
363.2	0.01	9.7e-06	1.5e-06
363.2	0.0254	8.1e-06	1.5e-06
363.2	0.0358	7.3e-06	1.5e-06
363.2	0.047	6.5e-06	1.5e-06
363.2	0.0615	5.6e-06	1.5e-06

System: water + 1-ethyl-3-methylimidazolium methanesulfonate; phases: Liquid, Gas
Fixed: Pressure, kPa = 98
Property: Boiling temperature at pressure P, K (Liquid); method: Ebulliometric method (Recirculating still)
Mass fraction of water	Boiling temperature at pressure P, K	uncertainty
0.2448	395	4
0.2126	400	4
0.1879	402	4
0.1752	406	4
0.1626	407	4
0.1435	411	4
0.1347	413	4
0.1282	416	4
0.1236	417	4
0.1033	422	4
0.0924	430	4
0.0883	433	4
0.0853	436	4
0.0696	441	4
0.0531	455	4
0.0435	463	4
0.0338	472	4

System: water + 1-ethyl-3-methylimidazolium methanesulfonate; phases: Liquid
Fixed: Pressure, kPa = 98
Property: Activity coefficient of water (Liquid); method: OTHER: determination of a dew point for vapor over solution:sMethod:EP
Temperature, K	Mole fraction of water	Activity coefficient of water	uncertainty
303.2	0.188	0.09	0.04
303.2	0.205	0.09	0.04
303.2	0.218	0.1	0.04
303.2	0.276	0.1	0.04
303.2	0.3	0.11	0.04
323.2	0.029	0.08	0.04
323.2	0.045	0.07	0.04
323.2	0.052	0.08	0.04
323.2	0.065	0.08	0.04
323.2	0.067	0.09	0.04
323.2	0.069	0.07	0.04
323.2	0.078	0.08	0.04
323.2	0.108	0.08	0.04
323.2	0.138	0.1	0.04
323.2	0.191	0.1	0.04
323.2	0.239	0.1	0.04
323.2	0.305	0.11	0.04
323.2	0.327	0.12	0.04
323.2	0.354	0.13	0.04
323.2	0.361	0.12	0.04
323.2	0.388	0.14	0.04
343.2	0.041	0.09	0.04
343.2	0.049	0.09	0.04
343.2	0.053	0.07	0.04
343.2	0.069	0.07	0.04
343.2	0.093	0.09	0.04
343.2	0.148	0.08	0.04
343.2	0.247	0.11	0.04
343.2	0.256	0.13	0.04
343.2	0.261	0.13	0.04
343.2	0.273	0.13	0.04
343.2	0.274	0.13	0.04
343.2	0.301	0.14	0.04
343.2	0.34	0.13	0.04
343.2	0.348	0.12	0.04
343.2	0.355	0.13	0.04
343.2	0.365	0.13	0.04
353.2	0.187	0.1	0.04
353.2	0.23	0.11	0.04
353.2	0.263	0.13	0.04
353.2	0.315	0.13	0.04
363.2	0.089	0.11	0.04
363.2	0.095	0.11	0.04
363.2	0.106	0.11	0.04
363.2	0.11	0.11	0.04
363.2	0.138	0.11	0.04
363.2	0.183	0.13	0.04
363.2	0.206	0.13	0.04
363.2	0.222	0.13	0.04
363.2	0.228	0.14	0.04
363.2	0.241	0.15	0.04
363.2	0.266	0.16	0.04
363.2	0.284	0.16	0.04
363.2	0.308	0.17	0.04
363.2	0.329	0.18	0.04
363.2	0.34	0.18	0.04
363.2	0.355	0.19	0.04
363.2	0.368	0.19	0.04

System: water + 1-ethyl-3-methylimidazolium methanesulfonate; phases: Liquid
Fixed: Mole fraction of water = 0.55
Fixed: Pressure, kPa = 98
Property: Binary diffusion coefficient, m2/s (Liquid); method: magnetic suspension balance
Temperature, K	Binary diffusion coefficient, m2/s	uncertainty
303.2	2.1e-10	0.2
313.2	3.1e-10	0.2
333.2	5.35e-10	0.2
353.2	8.3e-10	0.2
373.2	1.17e-09	0.2

System: water + 1,3-dimethylimidazolium dimethylphosphate; phases: Liquid
Fixed: Pressure, kPa = 98
Property: Kinematic viscosity, m2/s (Liquid); method: Capillary tube (Ostwald; Ubbelohde) method
Temperature, K	Mass fraction of water	Kinematic viscosity, m2/s	uncertainty
303.2	0.0031	0.0001366	3.8e-06
303.2	0.0085	0.0001279	3.6e-06
303.2	0.019	0.0001137	3.1e-06
303.2	0.0237	0.0001074	2.9e-06
303.2	0.0341	9.53e-05	2.6e-06
303.2	0.0493	7.95e-05	2.3e-06
303.2	0.0587	7.22e-05	2.1e-06
303.2	0.0655	6.73e-05	2e-06
313.2	0.0031	7.79e-05	2.7e-06
313.2	0.0085	7.35e-05	2.4e-06
313.2	0.019	6.62e-05	2.2e-06
313.2	0.0237	6.27e-05	2.2e-06
313.2	0.0341	5.63e-05	2e-06
313.2	0.0493	4.77e-05	1.9e-06
313.2	0.0587	4.37e-05	1.8e-06
313.2	0.0655	4.09e-05	1.8e-06
323.2	0.0031	4.84e-05	1.9e-06
323.2	0.0085	4.59e-05	1.8e-06
323.2	0.019	4.18e-05	1.7e-06
323.2	0.0237	3.98e-05	1.7e-06
323.2	0.0341	3.6e-05	1.7e-06
323.2	0.0493	3.09e-05	1.6e-06
323.2	0.0587	2.85e-05	1.6e-06
323.2	0.0655	2.68e-05	1.6e-06
333.2	0.0031	3.22e-05	1.6e-06
333.2	0.0085	3.07e-05	1.6e-06
333.2	0.019	2.81e-05	1.6e-06
333.2	0.0237	2.69e-05	1.6e-06
333.2	0.0341	2.45e-05	1.6e-06
333.2	0.0493	2.13e-05	1.6e-06
333.2	0.0587	1.97e-05	1.5e-06
333.2	0.0655	1.86e-05	1.5e-06
343.2	0.0031	2.27e-05	1.6e-06
343.2	0.0085	2.17e-05	1.5e-06
343.2	0.019	2e-05	1.5e-06
343.2	0.0237	1.92e-05	1.5e-06
343.2	0.0341	1.75e-05	1.5e-06
343.2	0.0493	1.53e-05	1.5e-06
343.2	0.0587	1.43e-05	1.5e-06
343.2	0.0655	1.35e-05	1.5e-06
353.2	0.0031	1.67e-05	1.5e-06
353.2	0.0085	1.6e-05	1.5e-06
353.2	0.019	1.48e-05	1.5e-06
353.2	0.0237	1.42e-05	1.5e-06
353.2	0.0341	1.31e-05	1.5e-06
353.2	0.0493	1.15e-05	1.5e-06
353.2	0.0587	1.07e-05	1.5e-06
353.2	0.0655	1.02e-05	1.5e-06
363.2	0.0031	1.27e-05	1.5e-06
363.2	0.0085	1.22e-05	1.5e-06
363.2	0.019	1.17e-05	1.5e-06
363.2	0.0237	1.09e-05	1.5e-06
363.2	0.0341	1.01e-05	1.5e-06
363.2	0.0493	8.9e-06	1.5e-06
363.2	0.0587	8.5e-06	1.5e-06
363.2	0.0655	8e-06	1.5e-06

System: water + 1,3-dimethylimidazolium dimethylphosphate; phases: Liquid, Gas
Fixed: Pressure, kPa = 98
Property: Boiling temperature at pressure P, K (Liquid); method: Ebulliometric method (Recirculating still)
Mass fraction of water	Boiling temperature at pressure P, K	uncertainty
0.3187	390	4
0.2459	396	4
0.2478	396	4
0.2394	396	4
0.2011	401	4
0.215	401	4
0.1989	407	4
0.1775	410	4
0.1721	410	4
0.1737	411	4
0.1814	412	4
0.1584	416	4
0.1665	418	4
0.138	418	4
0.1507	421	4
0.1331	422	4
0.142	425	4
0.1334	426	4
0.1105	431	4
0.1169	434	4

System: water + 1-ethyl-3-methylimidazolium ethyl sulfate; phases: Liquid
Fixed: Pressure, kPa = 98
Property: Kinematic viscosity, m2/s (Liquid); method: Capillary tube (Ostwald; Ubbelohde) method
Temperature, K	Mass fraction of water	Kinematic viscosity, m2/s	uncertainty
303.2	0.0038	5.5e-05	1.7e-06
303.2	0.009	5.06e-05	1.7e-06
303.2	0.0164	4.43e-05	1.7e-06
303.2	0.0239	4.03e-05	1.6e-06
303.2	0.0359	3.57e-05	1.6e-06
303.2	0.0483	3.26e-05	1.6e-06
303.2	0.0563	3.13e-05	1.6e-06
303.2	0.066	2.99e-05	1.6e-06
313.2	0.0038	3.74e-05	1.7e-06
313.2	0.009	3.56e-05	1.6e-06
313.2	0.0164	3.11e-05	1.6e-06
313.2	0.0239	2.86e-05	1.6e-06
313.2	0.0359	2.51e-05	1.5e-06
313.2	0.0483	2.3e-05	1.5e-06
313.2	0.0563	2.21e-05	1.5e-06
313.2	0.066	2.11e-05	1.5e-06
323.2	0.0038	2.69e-05	1.6e-06
323.2	0.009	2.63e-05	1.6e-06
323.2	0.0164	2.34e-05	1.5e-06
323.2	0.0239	2.17e-05	1.5e-06
323.2	0.0359	1.99e-05	1.5e-06
323.2	0.0483	1.69e-05	1.5e-06
323.2	0.0563	1.63e-05	1.5e-06
323.2	0.066	1.55e-05	1.5e-06
333.2	0.0038	2.01e-05	1.5e-06
333.2	0.009	1.9e-05	1.5e-06
333.2	0.0164	1.8e-05	1.5e-06
333.2	0.0239	1.67e-05	1.5e-06
333.2	0.0359	1.52e-05	1.5e-06
333.2	0.0483	1.31e-05	1.5e-06
333.2	0.0563	1.24e-05	1.5e-06
333.2	0.066	1.18e-05	1.5e-06
343.2	0.0038	1.54e-05	1.5e-06
343.2	0.009	1.49e-05	1.5e-06
343.2	0.0164	1.41e-05	1.5e-06
343.2	0.0239	1.35e-05	1.5e-06
343.2	0.0359	1.21e-05	1.5e-06
343.2	0.0483	1.05e-05	1.5e-06
343.2	0.0563	9.8e-06	1.5e-06
343.2	0.066	9.3e-06	1.5e-06
353.2	0.0038	1.21e-05	1.5e-06
353.2	0.009	1.17e-05	1.5e-06
353.2	0.0164	1.13e-05	1.5e-06
353.2	0.0239	1.11e-05	1.5e-06
353.2	0.0359	1.01e-05	1.5e-06
353.2	0.0483	9e-06	1.5e-06
353.2	0.0563	8.1e-06	1.5e-06
353.2	0.066	7.6e-06	1.5e-06
363.2	0.0038	9.8e-06	1.5e-06
363.2	0.009	9.4e-06	1.5e-06
363.2	0.0164	9.1e-06	1.5e-06
363.2	0.0239	8.8e-06	1.5e-06
363.2	0.0359	8.4e-06	1.5e-06
363.2	0.0483	8e-06	1.5e-06
363.2	0.0563	7e-06	1.5e-06
363.2	0.066	6.5e-06	1.5e-06

System: water + 1-ethyl-3-methylimidazolium ethyl sulfate; phases: Liquid, Gas
Fixed: Pressure, kPa = 98
Property: Boiling temperature at pressure P, K (Liquid); method: Ebulliometric method (Recirculating still)
Mass fraction of water	Boiling temperature at pressure P, K	uncertainty
0.2238	387	4
0.1895	391	4
0.1861	392	4
0.1526	395	4
0.1505	396	4
0.1397	400	4
0.1286	405	4
0.1252	406	4
0.1103	411	4
0.0964	417	4
0.0935	419	4
0.0874	421	4
0.0649	427	4
0.0568	431	4
0.0536	433	4
0.0389	449	4
0.0364	452	4
0.0289	455	4
0.0272	461	4
0.0247	466	4

System: water + 1-ethyl-3-methylimidazolium 2-(2-ethoxyethoxy)ethylsulfate; phases: Liquid
Fixed: Pressure, kPa = 98
Property: Kinematic viscosity, m2/s (Liquid); method: Capillary tube (Ostwald; Ubbelohde) method
Temperature, K	Mass fraction of water	Kinematic viscosity, m2/s	uncertainty
303.2	0.0019	0.0001276	6.2e-06
303.2	0.0085	0.0001029	5e-06
303.2	0.0195	7.64e-05	3.7e-06
303.2	0.0251	6.69e-05	3.3e-06
303.2	0.0353	5.26e-05	2.7e-06
303.2	0.0495	4.17e-05	2.3e-06
303.2	0.0569	3.84e-05	2.2e-06
303.2	0.0663	3.34e-05	2.1e-06
313.2	0.0019	7.46e-05	4e-06
313.2	0.0085	6.17e-05	3.2e-06
313.2	0.0195	4.74e-05	2.6e-06
313.2	0.0251	4.22e-05	2.4e-06
313.2	0.0353	3.38e-05	2.1e-06
313.2	0.0495	2.73e-05	1.9e-06
313.2	0.0569	2.52e-05	1.9e-06
313.2	0.0663	2.24e-05	1.8e-06
323.2	0.0019	4.76e-05	2.7e-06
323.2	0.0085	4.02e-05	2.3e-06
323.2	0.0195	3.17e-05	2e-06
323.2	0.0251	2.83e-05	1.9e-06
323.2	0.0353	2.31e-05	1.8e-06
323.2	0.0495	1.92e-05	1.7e-06
323.2	0.0569	1.76e-05	1.7e-06
323.2	0.0663	1.58e-05	1.6e-06
333.2	0.0019	3.23e-05	2.1e-06
333.2	0.0085	2.78e-05	1.9e-06
333.2	0.0195	2.23e-05	1.8e-06
333.2	0.0251	2.02e-05	1.7e-06
333.2	0.0353	1.67e-05	1.7e-06
333.2	0.0495	1.41e-05	1.6e-06
333.2	0.0569	1.29e-05	1.6e-06
333.2	0.0663	1.18e-05	1.6e-06
343.2	0.0019	2.32e-05	1.8e-06
343.2	0.0085	2.02e-05	1.7e-06
343.2	0.0195	1.65e-05	1.7e-06
343.2	0.0251	1.51e-05	1.6e-06
343.2	0.0353	1.26e-05	1.6e-06
343.2	0.0495	1.08e-05	1.6e-06
343.2	0.0569	9.8e-06	1.6e-06
343.2	0.0663	9.1e-06	1.5e-06
353.2	0.0019	1.81e-05	1.7e-06
353.2	0.0085	1.53e-05	1.6e-06
353.2	0.0195	1.26e-05	1.6e-06
353.2	0.0251	1.17e-05	1.6e-06
353.2	0.0353	9.9e-06	1.6e-06
353.2	0.0495	8.5e-06	1.5e-06
353.2	0.0569	7.8e-06	1.5e-06
353.2	0.0663	7.3e-06	1.5e-06
363.2	0.0019	1.34e-05	1.6e-06
363.2	0.0085	1.16e-05	1.6e-06
363.2	0.0195	1e-05	1.6e-06
363.2	0.0251	9.3e-06	1.6e-06
363.2	0.0353	7.9e-06	1.5e-06
363.2	0.0495	6.9e-06	1.5e-06
363.2	0.0569	6.3e-06	1.5e-06
363.2	0.0663	5.9e-06	1.5e-06

System: water + 1-ethyl-3-methylimidazolium 2-(2-ethoxyethoxy)ethylsulfate; phases: Liquid, Gas
Fixed: Pressure, kPa = 98
Property: Boiling temperature at pressure P, K (Liquid); method: Ebulliometric method (Recirculating still)
Mass fraction of water	Boiling temperature at pressure P, K	uncertainty
0.4334	376	4
0.3929	377	4
0.3678	378	4
0.319	379	4
0.3082	380	4
0.2429	382	4
0.2378	383	4
0.2476	383	4
0.2148	384	4
0.2213	385	4
0.1715	388	4
0.1815	388	4
0.1682	388	4
0.1635	389	4
0.1365	392	4
0.1262	393	4
0.1152	395	4
0.1154	396	4
0.1109	396	4
0.0933	400	4
0.0869	401	4
0.0916	401	4
0.0687	408	4
0.0567	414	4
0.0528	417	4
0.0505	418	4
0.0443	421	4
0.039	423	4

System: water + 1-butyl-3-methylimidazolium tetrafluoroborate; phases: Liquid
Fixed: Pressure, kPa = 98
Property: Kinematic viscosity, m2/s (Liquid); method: Capillary tube (Ostwald; Ubbelohde) method
Temperature, K	Mass fraction of water	Kinematic viscosity, m2/s	uncertainty
303.2	0.0033	5.78e-05	1.9e-06
303.2	0.0097	4.53e-05	1.8e-06
303.2	0.0181	3.44e-05	1.6e-06
303.2	0.0258	2.89e-05	1.6e-06
303.2	0.0345	2.26e-05	1.6e-06
303.2	0.0488	1.64e-05	1.5e-06
303.2	0.0552	1.52e-05	1.5e-06
303.2	0.066	1.39e-05	1.5e-06
313.2	0.0033	3.76e-05	1.8e-06
313.2	0.0097	3.02e-05	1.6e-06
313.2	0.0181	2.37e-05	1.6e-06
313.2	0.0258	2.02e-05	1.5e-06
313.2	0.0345	1.62e-05	1.5e-06
313.2	0.0488	1.2e-05	1.5e-06
313.2	0.0552	1.12e-05	1.5e-06
313.2	0.066	1.02e-05	1.5e-06
323.2	0.0033	2.59e-05	1.6e-06
323.2	0.0097	2.14e-05	1.6e-06
323.2	0.0181	1.73e-05	1.5e-06
323.2	0.0258	1.48e-05	1.5e-06
323.2	0.0345	1.22e-05	1.5e-06
323.2	0.0488	9.2e-06	1.5e-06
323.2	0.0552	8.6e-06	1.5e-06
323.2	0.066	7.9e-06	1.5e-06
333.2	0.0033	1.86e-05	1.5e-06
333.2	0.0097	1.54e-05	1.5e-06
333.2	0.0181	1.28e-05	1.5e-06
333.2	0.0258	1.13e-05	1.5e-06
333.2	0.0345	9.4e-06	1.5e-06
333.2	0.0488	7.2e-06	1.5e-06
333.2	0.0552	6.8e-06	1.5e-06
333.2	0.066	6.2e-06	1.5e-06
343.2	0.0033	1.39e-05	1.5e-06
343.2	0.0097	1.21e-05	1.5e-06
343.2	0.0181	1e-05	1.5e-06
343.2	0.0258	8.8e-06	1.5e-06
343.2	0.0345	7.5e-06	1.5e-06
343.2	0.0488	5.9e-06	1.5e-06
343.2	0.0552	5.5e-06	1.5e-06
343.2	0.066	5.1e-06	1.5e-06
353.2	0.0033	1.08e-05	1.5e-06
353.2	0.0097	9.8e-06	1.5e-06
353.2	0.0181	8e-06	1.5e-06
353.2	0.0258	7.2e-06	1.5e-06
353.2	0.0345	6.2e-06	1.5e-06
353.2	0.0488	4.9e-06	1.5e-06
353.2	0.0552	4.6e-06	1.5e-06
353.2	0.066	4.2e-06	1.5e-06
363.2	0.0033	8.6e-06	1.5e-06
363.2	0.0097	7.7e-06	1.5e-06
363.2	0.0181	6.5e-06	1.5e-06
363.2	0.0258	5.8e-06	1.5e-06
363.2	0.0345	5.1e-06	1.5e-06
363.2	0.0488	4.1e-06	1.5e-06
363.2	0.0552	3.9e-06	1.5e-06
363.2	0.066	3.6e-06	1.5e-06

System: water + 1-butyl-3-methylimidazolium tetrafluoroborate; phases: Liquid, Gas
Fixed: Pressure, kPa = 98
Property: Boiling temperature at pressure P, K (Liquid); method: Ebulliometric method (Recirculating still)
Mass fraction of water	Boiling temperature at pressure P, K	uncertainty
0.2389	373	4
0.231	376	4
0.1924	379	4
0.1528	384	4
0.1249	391	4
0.0839	404	4
0.0687	413	4
0.0569	425	4
0.0488	431	4
0.0443	437	4
0.0412	439	4
0.0382	443	4
0.0354	446	4
0.0276	459	4
0.0222	464	4
0.0206	466	4

System: water + choline glycolate; phases: Liquid
Fixed: Pressure, kPa = 98
Property: Kinematic viscosity, m2/s (Liquid); method: Capillary tube (Ostwald; Ubbelohde) method
Temperature, K	Mass fraction of water	Kinematic viscosity, m2/s	uncertainty
303.2	0.003	0.0009047	5.09e-05
303.2	0.0099	0.0007183	3.85e-05
303.2	0.0128	0.0006416	3.36e-05
303.2	0.026	0.0004501	2.09e-05
303.2	0.0351	0.0003564	1.51e-05
303.2	0.0447	0.0002849	1.12e-05
303.2	0.0557	0.000234	8.4e-06
303.2	0.0651	0.0001918	6.5e-06
313.2	0.003	0.0004457	2.42e-05
313.2	0.0099	0.0003629	1.73e-05
313.2	0.0128	0.000329	1.51e-05
313.2	0.026	0.0002385	9.9e-06
313.2	0.0351	0.000194	7.5e-06
313.2	0.0447	0.0001573	5.7e-06
313.2	0.0557	0.0001332	4.6e-06
313.2	0.0651	0.0001095	3.7e-06
323.2	0.003	0.000246	1.07e-05
323.2	0.0099	0.000202	7.7e-06
323.2	0.0128	0.0001854	6.7e-06
323.2	0.026	0.0001375	4.7e-06
323.2	0.0351	0.0001133	3.8e-06
323.2	0.0447	9.41e-05	3.1e-06
323.2	0.0557	8.05e-05	2.7e-06
323.2	0.0651	6.67e-05	2.3e-06
333.2	0.003	0.0001456	5.3e-06
333.2	0.0099	0.0001217	4e-06
333.2	0.0128	0.0001125	3.5e-06
333.2	0.026	8.54e-05	2.8e-06
333.2	0.0351	7.16e-05	2.4e-06
333.2	0.0447	6e-05	2.1e-06
333.2	0.0557	5.24e-05	2e-06
333.2	0.0651	4.45e-05	1.8e-06
343.2	0.003	9.21e-05	3.1e-06
343.2	0.0099	7.81e-05	2.5e-06
343.2	0.0128	7.26e-05	2.3e-06
343.2	0.026	5.62e-05	2e-06
343.2	0.0351	4.77e-05	1.9e-06
343.2	0.0447	4.06e-05	1.8e-06
343.2	0.0557	3.58e-05	1.7e-06
343.2	0.0651	3.1e-05	1.6e-06
353.2	0.003	6.13e-05	2.2e-06
353.2	0.0099	5.27e-05	1.9e-06
353.2	0.0128	4.93e-05	1.8e-06
353.2	0.026	3.89e-05	1.7e-06
353.2	0.0351	3.34e-05	1.7e-06
353.2	0.0447	2.87e-05	1.6e-06
353.2	0.0557	2.57e-05	1.6e-06
353.2	0.0651	2.25e-05	1.6e-06
363.2	0.003	4.27e-05	1.8e-06
363.2	0.0099	3.72e-05	1.8e-06
363.2	0.0128	3.5e-05	1.7e-06
363.2	0.026	2.8e-05	1.6e-06
363.2	0.0351	2.43e-05	1.6e-06
363.2	0.0447	2.11e-05	1.6e-06
363.2	0.0557	1.91e-05	1.6e-06
363.2	0.0651	1.65e-05	1.5e-06

System: water + choline glycolate; phases: Liquid, Gas
Fixed: Pressure, kPa = 98
Property: Boiling temperature at pressure P, K (Liquid); method: Ebulliometric method (Recirculating still)
Mass fraction of water	Boiling temperature at pressure P, K	uncertainty
0.3901	384	4
0.3544	388	4
0.3124	389	4
0.3416	390	4
0.3238	390	4
0.3055	390	4
0.2782	394	4
0.2619	394	4
0.2632	395	4
0.2506	395	4
0.2285	398	4
0.2202	399	4
0.2271	400	4
0.2212	400	4
0.2249	400	4
0.2012	402	4
0.1817	409	4
0.1691	409	4
0.1689	409	4
0.1562	414	4
0.1416	415	4
0.1447	415	4
0.1358	419	4
0.1153	421	4
0.1176	421	4
0.1071	424	4
0.0992	426	4
