Measured thermophysical data. Activity Coefficients of RbF in the RbF + RbBr + H2O and RbF + RbNO3 + H2O Ternary Systems Using the Potentiometric Method at 298.2 K
Source: J. Chem. Eng. Data, 2016, 10.1021/acs.jced.6b00398
Compound 1: water, H2O, InChI=1S/H2O/h1H2, purity 99.8%
Compound 2: rubidium fluoride (RbF), FRb, InChI=1S/FH.Rb/h1H;/q;+1/p-1, purity 99%

System: water + rubidium fluoride (RbF); phases: Liquid
Fixed: Temperature, K = 298.2
Fixed: Pressure, kPa = 100
Property: Mean ionic activity coefficient of rubidium fluoride (RbF) (Liquid); method: Calculated from EMF cell potential
Molality, mol/kg of rubidium fluoride (RbF)	Mean ionic activity coefficient of rubidium fluoride (RbF)	uncertainty
0.0018	0.9465	0.0442
0.0038	0.9258	0.0441
0.0058	0.9222	0.0441
0.0093	0.9097	0.0442
0.0127	0.8915	0.0443
0.0188	0.8793	0.0443
0.0293	0.858	0.0444
0.039	0.846	0.0444
0.0602	0.8218	0.0445
0.1196	0.782	0.0447
0.1997	0.7467	0.0449
0.3	0.7255	0.045
0.4006	0.7111	0.0451
0.5007	0.7008	0.0451
0.5998	0.696	0.0451
0.6994	0.6949	0.0451
0.0017	0.9402	0.0441
0.0034	0.9397	0.044
0.0053	0.926	0.0441
0.0105	0.9101	0.0442
0.0141	0.8869	0.0442
0.0206	0.8722	0.0443
0.0293	0.8575	0.0444
0.04	0.8445	0.0444
0.0593	0.8225	0.0445
0.1195	0.7758	0.0447
0.2001	0.7456	0.0449
0.2994	0.7249	0.045
0.3997	0.7118	0.0451
0.4993	0.7035	0.0451
0.6001	0.6976	0.0451
0.7002	0.6947	0.0451
