Measured thermophysical data. Density and Viscosity for Binary Mixtures of the Ionic Liquid 2,2-Diethyl-1,1,3,3-Tetramethylguanidinium Ethyl Sulfate with Water, Methanol, or Ethanol
Source: J. Chem. Eng. Data, 2016, 10.1021/acs.jced.5b00365
Compound 1: methanol, CH4O, InChI=1S/CH4O/c1-2/h2H,1H3, purity 99.9%
Compound 2: ethanol, C2H6O, InChI=1S/C2H6O/c1-2-3/h3H,2H2,1H3, purity 99.8%
Compound 3: N-(bis(dimethylamino)methylene)-N-ethylethanaminium ethyl sulfate, C11H27N3O4S, InChI=1S/C9H22N3.C2H6O4S/c1-7-12(8-2)9(10(3)4)11(5)6;1-2-6-7(3,4)5/h7-8H2,1-6H3;2H2,1H3,(H,3,4,5)/q+1;/p-1, purity 99%
Compound 4: water, H2O, InChI=1S/H2O/h1H2, purity 99.9%

System: methanol; phases: Liquid
Fixed: Pressure, kPa = 100
Property: Mass density, kg/m3 (Liquid); method: Vibrating tube method
Temperature, K	Mass density, kg/m3	uncertainty
293.15	791.33	2
298.15	786.62	2
303.15	781.89	2
308.15	777.14	2
313.15	772.37	2
318.15	767.56	2
323.15	762.72	2

System: methanol; phases: Liquid
Fixed: Pressure, kPa = 100
Property: Viscosity, Pa*s (Liquid); method: Falling or rolling sphere viscometry
Temperature, K	Viscosity, Pa*s	uncertainty
293.15	0.000587	4.7e-05
298.15	0.000552	4.4e-05
303.15	0.00052	4.2e-05
308.15	0.000491	3.9e-05
313.15	0.000465	3.7e-05
318.15	0.000442	3.6e-05
323.15	0.000421	3.4e-05

System: ethanol; phases: Liquid
Fixed: Pressure, kPa = 100
Property: Mass density, kg/m3 (Liquid); method: Vibrating tube method
Temperature, K	Mass density, kg/m3	uncertainty
293.15	789.57	2
298.15	785.28	2
303.15	780.96	2
308.15	776.61	2
313.15	772.23	2
318.15	767.86	2
323.15	763.3	2

System: ethanol; phases: Liquid
Fixed: Pressure, kPa = 100
Property: Viscosity, Pa*s (Liquid); method: Falling or rolling sphere viscometry
Temperature, K	Viscosity, Pa*s	uncertainty
293.15	0.001177	9e-06
298.15	0.001071	8e-06
303.15	0.000978	8e-06
308.15	0.000895	7e-06
313.15	0.000822	7e-06
318.15	0.000756	6e-06
323.15	0.000698	6e-06

System: N-(bis(dimethylamino)methylene)-N-ethylethanaminium ethyl sulfate; phases: Liquid
Fixed: Pressure, kPa = 100
Property: Mass density, kg/m3 (Liquid); method: Vibrating tube method
Temperature, K	Mass density, kg/m3	uncertainty
293.15	1141.34	2.02
298.15	1137.77	2.02
303.15	1134.21	2.02
308.15	1130.65	2.02
313.15	1127.11	2.02
318.15	1123.57	2.02
323.15	1120.03	2.02

System: N-(bis(dimethylamino)methylene)-N-ethylethanaminium ethyl sulfate; phases: Liquid
Fixed: Pressure, kPa = 100
Property: Viscosity, Pa*s (Liquid); method: Falling or rolling sphere viscometry
Temperature, K	Viscosity, Pa*s	uncertainty
293.15	0.1909	0.0172
298.15	0.139	0.012
303.15	0.1049	0.0087
308.15	0.08044	0.00655
313.15	0.06324	0.00509
318.15	0.05027	0.00403
323.15	0.04055	0.00326

System: water; phases: Liquid
Fixed: Pressure, kPa = 100
Property: Mass density, kg/m3 (Liquid); method: Vibrating tube method
Temperature, K	Mass density, kg/m3	uncertainty
293.15	998.21	2
298.15	997.06	2
303.15	995.67	2
308.15	994.06	2
313.15	992.22	2
318.15	990.12	2
323.15	987.96	2

System: water; phases: Liquid
Fixed: Pressure, kPa = 100
Property: Viscosity, Pa*s (Liquid); method: Falling or rolling sphere viscometry
Temperature, K	Viscosity, Pa*s	uncertainty
293.15	0.000991	8e-05
298.15	0.000884	7.1e-05
303.15	0.000796	6.4e-05
308.15	0.000723	5.8e-05
313.15	0.000662	5.3e-05
318.15	0.000608	4.9e-05
323.15	0.000566	4.5e-05

System: water + N-(bis(dimethylamino)methylene)-N-ethylethanaminium ethyl sulfate; phases: Liquid
Fixed: Pressure, kPa = 100
Property: Mass density, kg/m3 (Liquid); method: Vibrating tube method
Temperature, K	Mole fraction of N-(bis(dimethylamino)methylene)-N-ethylethanaminium ethyl sulfate	Mass density, kg/m3	uncertainty
293.15	0	998.21	2
293.15	0.0999	1096.77	2.01
293.15	0.2003	1119.22	2
293.15	0.3005	1127.95	2
293.15	0.4004	1132.41	2
293.15	0.4989	1135.26	2.01
293.15	0.6001	1137.23	2.01
293.15	0.7	1138.67	2.01
293.15	0.801	1139.74	2.01
293.15	0.8982	1140.63	2.02
293.15	1	1141.34	2.02
298.15	0	997.06	2
298.15	0.0999	1092.81	2
298.15	0.2003	1115.26	2
298.15	0.3005	1124.09	2
298.15	0.4004	1128.68	2
298.15	0.4989	1131.59	2.01
298.15	0.6001	1133.6	2
298.15	0.7	1135.07	2.01
298.15	0.801	1136.15	2.01
298.15	0.8982	1137.04	2.02
298.15	1	1137.77	2.02
303.15	0	995.67	2
303.15	0.0999	1088.85	2
303.15	0.2003	1111.29	2
303.15	0.3005	1120.23	2
303.15	0.4004	1124.95	2
303.15	0.4989	1127.92	2.01
303.15	0.6001	1129.97	2.01
303.15	0.7	1131.47	2.01
303.15	0.801	1132.57	2.01
303.15	0.8982	1133.46	2.02
303.15	1	1134.21	2.02
308.15	0	994.06	2
308.15	0.0999	1084.88	2
308.15	0.2003	1107.32	2
308.15	0.3005	1116.37	2
308.15	0.4004	1121.22	2
308.15	0.4989	1124.25	2.01
308.15	0.6001	1126.34	2.01
308.15	0.7	1127.87	2.01
308.15	0.801	1128.99	2.01
308.15	0.8982	1129.88	2.02
308.15	1	1130.65	2.02
313.15	0	992.22	2
313.15	0.0999	1080.89	2
313.15	0.2003	1103.34	2
313.15	0.3005	1112.5	2
313.15	0.4004	1117.47	2
313.15	0.4989	1120.56	2
313.15	0.6001	1122.73	2.01
313.15	0.7	1124.28	2.01
313.15	0.801	1125.42	2.01
313.15	0.8982	1126.32	2.02
313.15	1	1127.11	2.02
318.15	0	990.12	2
318.15	0.0999	1076.91	2
318.15	0.2003	1099.35	2
318.15	0.3005	1108.61	2
318.15	0.4004	1113.72	2
318.15	0.4989	1116.87	2
318.15	0.6001	1119.11	2.01
318.15	0.7	1120.69	2.01
318.15	0.801	1121.85	2.01
318.15	0.8982	1122.77	2.02
318.15	1	1123.57	2.02
323.15	0	987.96	2
323.15	0.0999	1072.92	2.01
323.15	0.2003	1095.35	2
323.15	0.3005	1104.73	2
323.15	0.4004	1109.97	2
323.15	0.4989	1113.19	2
323.15	0.6001	1115.5	2
323.15	0.7	1117.11	2.01
323.15	0.801	1118.29	2.01
323.15	0.8982	1119.22	2.02
323.15	1	1120.03	2.02

System: water + N-(bis(dimethylamino)methylene)-N-ethylethanaminium ethyl sulfate; phases: Liquid
Fixed: Pressure, kPa = 100
Property: Viscosity, Pa*s (Liquid); method: Falling or rolling sphere viscometry
Temperature, K	Mole fraction of N-(bis(dimethylamino)methylene)-N-ethylethanaminium ethyl sulfate	Viscosity, Pa*s	uncertainty
293.15	0	0.000991	8e-05
293.15	0.0999	0.01238	0.00099
293.15	0.2003	0.02531	0.00203
293.15	0.3005	0.03906	0.00314
293.15	0.4004	0.05318	0.00426
293.15	0.4989	0.06818	0.0055
293.15	0.6001	0.08588	0.00702
293.15	0.7	0.107	0.0089
293.15	0.801	0.1326	0.0113
293.15	0.8982	0.1606	0.0141
293.15	1	0.1909	0.0172
298.15	0	0.000884	7.1e-05
298.15	0.0999	0.01001	0.0008
298.15	0.2003	0.01981	0.00159
298.15	0.3005	0.02997	0.00241
298.15	0.4004	0.04042	0.00325
298.15	0.4989	0.05148	0.00412
298.15	0.6001	0.06433	0.00518
298.15	0.7	0.07913	0.00644
298.15	0.801	0.09708	0.00803
298.15	0.8982	0.1169	0.0099
298.15	1	0.139	0.012
303.15	0	0.000796	6.4e-05
303.15	0.0999	0.008224	0.000661
303.15	0.2003	0.01593	0.00128
303.15	0.3005	0.02379	0.00191
303.15	0.4004	0.03186	0.00256
303.15	0.4989	0.04031	0.00324
303.15	0.6001	0.04998	0.00402
303.15	0.7	0.0607	0.00487
303.15	0.801	0.0739	0.00599
303.15	0.8982	0.08811	0.00723
303.15	1	0.1049	0.0087
308.15	0	0.000723	5.8e-05
308.15	0.0999	0.006765	0.000544
308.15	0.2003	0.01288	0.00103
308.15	0.3005	0.01909	0.00153
308.15	0.4004	0.02543	0.00204
308.15	0.4989	0.03202	0.00257
308.15	0.6001	0.03928	0.00316
308.15	0.7	0.04726	0.0038
308.15	0.801	0.05708	0.00458
308.15	0.8982	0.06741	0.00544
308.15	1	0.08044	0.00655
313.15	0	0.000662	5.3e-05
313.15	0.0999	0.005628	0.000452
313.15	0.2003	0.01063	0.00085
313.15	0.3005	0.01572	0.00126
313.15	0.4004	0.02082	0.00167
313.15	0.4989	0.02605	0.00209
313.15	0.6001	0.03162	0.00254
313.15	0.7	0.0377	0.00303
313.15	0.801	0.04518	0.00363
313.15	0.8982	0.05308	0.00425
313.15	1	0.06324	0.00509
318.15	0	0.000608	4.9e-05
318.15	0.0999	0.00466	0.000374
318.15	0.2003	0.008802	0.000707
318.15	0.3005	0.01304	0.00105
318.15	0.4004	0.01716	0.00138
318.15	0.4989	0.02139	0.00172
318.15	0.6001	0.02568	0.00206
318.15	0.7	0.03035	0.00244
318.15	0.801	0.0362	0.00291
318.15	0.8982	0.04247	0.00342
318.15	1	0.05027	0.00403
323.15	0	0.000566	4.5e-05
323.15	0.0999	0.003828	0.000308
323.15	0.2003	0.007374	0.000592
323.15	0.3005	0.01099	0.00088
323.15	0.4004	0.0143	0.00115
323.15	0.4989	0.01761	0.00142
323.15	0.6001	0.02115	0.0017
323.15	0.7	0.02497	0.00201
323.15	0.801	0.02966	0.00239
323.15	0.8982	0.03473	0.00279
323.15	1	0.04055	0.00326

System: methanol + N-(bis(dimethylamino)methylene)-N-ethylethanaminium ethyl sulfate; phases: Liquid
Fixed: Pressure, kPa = 100
Property: Mass density, kg/m3 (Liquid); method: Vibrating tube method
Temperature, K	Mole fraction of N-(bis(dimethylamino)methylene)-N-ethylethanaminium ethyl sulfate	Mass density, kg/m3	uncertainty
293.15	0	791.33	2
293.15	0.1	945.33	2.02
293.15	0.1991	1013.46	2
293.15	0.298	1051.36	2
293.15	0.3949	1075.65	2
293.15	0.4982	1093.62	2.01
293.15	0.5999	1106.83	2.01
293.15	0.6953	1116.65	2.01
293.15	0.7999	1125.61	2.01
293.15	0.9002	1133.62	2.02
293.15	1	1141.34	2.02
298.15	0	786.62	2
298.15	0.1	941.21	2.01
298.15	0.1991	1009.55	2
298.15	0.298	1047.58	2
298.15	0.3949	1071.93	2
298.15	0.4982	1089.98	2
298.15	0.5999	1103.18	2.01
298.15	0.6953	1113.1	2.01
298.15	0.7999	1122.01	2.01
298.15	0.9002	1130.04	2.02
298.15	1	1137.77	2.02
303.15	0	781.89	2
303.15	0.1	937.09	2.01
303.15	0.1991	1005.65	2
303.15	0.298	1043.81	2
303.15	0.3949	1068.22	2
303.15	0.4982	1086.36	2
303.15	0.5999	1099.55	2.01
303.15	0.6953	1109.47	2.01
303.15	0.7999	1118.43	2.01
303.15	0.9002	1126.47	2.02
303.15	1	1134.21	2.02
308.15	0	777.14	2
308.15	0.1	932.97	2.01
308.15	0.1991	1001.75	2
308.15	0.298	1040.04	2
308.15	0.3949	1064.52	2
308.15	0.4982	1082.72	2
308.15	0.5999	1095.93	2.01
308.15	0.6953	1105.87	2.01
308.15	0.7999	1114.86	2.01
308.15	0.9002	1122.9	2.02
308.15	1	1130.65	2.02
313.15	0	772.37	2
313.15	0.1	928.86	2.01
313.15	0.1991	997.86	2
313.15	0.298	1036.27	2
313.15	0.3949	1060.84	2
313.15	0.4982	1079.1	2
313.15	0.5999	1092.34	2.01
313.15	0.6953	1102.3	2.01
313.15	0.7999	1111.31	2.01
313.15	0.9002	1119.36	2.02
313.15	1	1127.11	2.02
318.15	0	767.56	2
318.15	0.1	924.75	2.01
318.15	0.1991	993.97	2
318.15	0.298	1032.51	2
318.15	0.3949	1057.16	2
318.15	0.4982	1075.47	2
318.15	0.5999	1088.74	2.01
318.15	0.6953	1098.73	2.01
318.15	0.7999	1107.77	2.01
318.15	0.9002	1115.83	2.02
318.15	1	1123.57	2.02
323.15	0	762.72	2
323.15	0.1	920.64	2.02
323.15	0.1991	990.08	2
323.15	0.298	1028.75	2
323.15	0.3949	1053.5	2
323.15	0.4982	1071.84	2
323.15	0.5999	1085.14	2.01
323.15	0.6953	1095.16	2.01
323.15	0.7999	1104.23	2.01
323.15	0.9002	1112.3	2.02
323.15	1	1120.03	2.02

System: methanol + N-(bis(dimethylamino)methylene)-N-ethylethanaminium ethyl sulfate; phases: Liquid
Fixed: Pressure, kPa = 100
Property: Viscosity, Pa*s (Liquid); method: Falling or rolling sphere viscometry
Temperature, K	Mole fraction of N-(bis(dimethylamino)methylene)-N-ethylethanaminium ethyl sulfate	Viscosity, Pa*s	uncertainty
293.15	0	0.000587	5e-06
293.15	0.1	0.001785	1.5e-05
293.15	0.1991	0.004501	3.7e-05
293.15	0.298	0.009381	7.8e-05
293.15	0.3949	0.01838	0.00015
293.15	0.4982	0.03298	0.00029
293.15	0.5999	0.05359	0.00041
293.15	0.6953	0.0802	0.00143
293.15	0.7999	0.1156	0.0034
293.15	0.9002	0.1534	0.006
293.15	1	0.1909	0.009
298.15	0	0.000552	4e-06
298.15	0.1	0.001634	1.3e-05
298.15	0.1991	0.004072	3.3e-05
298.15	0.298	0.0082	6.7e-05
298.15	0.3949	0.01558	0.00013
298.15	0.4982	0.02724	0.00023
298.15	0.5999	0.0428	0.0004
298.15	0.6953	0.06236	0.00068
298.15	0.7999	0.08746	0.0018
298.15	0.9002	0.1123	0.0032
298.15	1	0.139	0.005
303.15	0	0.00052	4e-06
303.15	0.1	0.001504	1.2e-05
303.15	0.1991	0.003661	3e-05
303.15	0.298	0.007163	5.9e-05
303.15	0.3949	0.01338	0.00011
303.15	0.4982	0.02282	0.00019
303.15	0.5999	0.03485	0.00031
303.15	0.6953	0.04955	0.0005
303.15	0.7999	0.06785	0.00089
303.15	0.9002	0.08671	0.00177
303.15	1	0.1049	0.0028
308.15	0	0.000491	4e-06
308.15	0.1	0.001389	1.1e-05
308.15	0.1991	0.003307	2.7e-05
308.15	0.298	0.006417	5.3e-05
308.15	0.3949	0.01163	0.0001
308.15	0.4982	0.01937	0.00016
308.15	0.5999	0.02879	0.00025
308.15	0.6953	0.04016	0.00038
308.15	0.7999	0.05389	0.00044
308.15	0.9002	0.06759	0.00089
308.15	1	0.08044	0.00147
313.15	0	0.000465	4e-06
313.15	0.1	0.001287	1.1e-05
313.15	0.1991	0.003	2.4e-05
313.15	0.298	0.005724	4.7e-05
313.15	0.3949	0.01018	8e-05
313.15	0.4982	0.01665	0.00014
313.15	0.5999	0.02417	0.00021
313.15	0.6953	0.03308	0.0003
313.15	0.7999	0.04349	0.00043
313.15	0.9002	0.05373	0.00044
313.15	1	0.06324	0.00074
318.15	0	0.000442	4e-06
318.15	0.1	0.001195	1e-05
318.15	0.1991	0.002734	2.2e-05
318.15	0.298	0.004994	4.1e-05
318.15	0.3949	0.008991	7.4e-05
318.15	0.4982	0.01445	0.00012
318.15	0.5999	0.02055	0.00017
318.15	0.6953	0.02769	0.00024
318.15	0.7999	0.03564	0.00033
318.15	0.9002	0.04324	0.00043
318.15	1	0.05027	0.0004
323.15	0	0.000421	3e-06
323.15	0.1	0.001113	9e-06
323.15	0.1991	0.0025	2e-05
323.15	0.298	0.00458	3.7e-05
323.15	0.3949	0.007999	6.6e-05
323.15	0.4982	0.01264	0.00011
323.15	0.5999	0.01768	0.00015
323.15	0.6953	0.02346	0.0002
323.15	0.7999	0.02974	0.00027
323.15	0.9002	0.03549	0.00034
323.15	1	0.04055	0.0004

System: ethanol + N-(bis(dimethylamino)methylene)-N-ethylethanaminium ethyl sulfate; phases: Liquid
Fixed: Pressure, kPa = 100
Property: Mass density, kg/m3 (Liquid); method: Vibrating tube method
Temperature, K	Mole fraction of N-(bis(dimethylamino)methylene)-N-ethylethanaminium ethyl sulfate	Mass density, kg/m3	uncertainty
293.15	0	789.57	2
293.15	0.1001	910.41	2.01
293.15	0.2003	979.12	2
293.15	0.2998	1022.96	2
293.15	0.4023	1054.8	2
293.15	0.4998	1077.22	2
293.15	0.6016	1095.42	2.01
293.15	0.6979	1109.23	2.01
293.15	0.8024	1121.44	2.01
293.15	0.8974	1131.27	2.02
293.15	1	1141.34	2.02
298.15	0	785.28	2
298.15	0.1001	906.44	2.01
298.15	0.2003	975.28	2
298.15	0.2998	1019.21	2
298.15	0.4023	1051.12	2
298.15	0.4998	1073.6	2
298.15	0.6016	1091.82	2.01
298.15	0.6979	1105.64	2.01
298.15	0.8024	1117.85	2.01
298.15	0.8974	1127.7	2.02
298.15	1	1137.77	2.02
303.15	0	780.96	2
303.15	0.1001	902.48	2.01
303.15	0.2003	971.44	2
303.15	0.2998	1015.45	2
303.15	0.4023	1047.44	2
303.15	0.4998	1069.98	2
303.15	0.6016	1088.23	2.01
303.15	0.6979	1102.05	2.01
303.15	0.8024	1114.27	2.01
303.15	0.8974	1124.14	2.02
303.15	1	1134.21	2.02
308.15	0	776.61	2
308.15	0.1001	898.51	2.01
308.15	0.2003	967.6	2
308.15	0.2998	1011.69	2
308.15	0.4023	1043.76	2
308.15	0.4998	1066.36	2
308.15	0.6016	1084.64	2.01
308.15	0.6979	1098.46	2.01
308.15	0.8024	1110.69	2.01
308.15	0.8974	1120.58	2.02
308.15	1	1130.65	2.02
313.15	0	772.23	2
313.15	0.1001	894.53	2.01
313.15	0.2003	963.78	2
313.15	0.2998	1007.93	2
313.15	0.4023	1040.09	2
313.15	0.4998	1062.75	2
313.15	0.6016	1081.07	2.01
313.15	0.6979	1094.88	2.01
313.15	0.8024	1107.13	2.01
313.15	0.8974	1117.04	2.02
313.15	1	1127.11	2.02
318.15	0	767.86	2
318.15	0.1001	890.52	2.01
318.15	0.2003	959.96	2
318.15	0.2998	1004.16	2
318.15	0.4023	1036.42	2
318.15	0.4998	1059.14	2
318.15	0.6016	1077.5	2.01
318.15	0.6979	1091.31	2.01
318.15	0.8024	1103.57	2.01
318.15	0.8974	1113.5	2.02
318.15	1	1123.57	2.02
323.15	0	763.3	2
323.15	0.1001	886.49	2.01
323.15	0.2003	956.14	2
323.15	0.2998	1000.37	2
323.15	0.4023	1032.75	2
323.15	0.4998	1055.53	2
323.15	0.6016	1073.93	2.01
323.15	0.6979	1087.74	2.01
323.15	0.8024	1100.01	2.01
323.15	0.8974	1109.97	2.02
323.15	1	1120.03	2.02

System: ethanol + N-(bis(dimethylamino)methylene)-N-ethylethanaminium ethyl sulfate; phases: Liquid
Fixed: Pressure, kPa = 100
Property: Viscosity, Pa*s (Liquid); method: Falling or rolling sphere viscometry
Temperature, K	Mole fraction of N-(bis(dimethylamino)methylene)-N-ethylethanaminium ethyl sulfate	Viscosity, Pa*s	uncertainty
293.15	0	0.001177	9e-06
293.15	0.1001	0.002916	2.4e-05
293.15	0.2003	0.005857	4.8e-05
293.15	0.2998	0.01149	9e-05
293.15	0.4023	0.02043	0.00017
293.15	0.4998	0.03282	0.00029
293.15	0.6016	0.05453	0.00043
293.15	0.6979	0.08256	0.00155
293.15	0.8024	0.121	0.0038
293.15	0.8974	0.1605	0.0066
293.15	1	0.1909	0.009
298.15	0	0.001071	8e-06
298.15	0.1001	0.00262	2.1e-05
298.15	0.2003	0.005197	4.2e-05
298.15	0.2998	0.009941	8.1e-05
298.15	0.4023	0.0172	0.00014
298.15	0.4998	0.02712	0.00023
298.15	0.6016	0.04351	0.00041
298.15	0.6979	0.06403	0.00074
298.15	0.8024	0.09164	0.00202
298.15	0.8974	0.1191	0.0036
298.15	1	0.139	0.005
303.15	0	0.000978	8e-06
303.15	0.1001	0.002373	1.9e-05
303.15	0.2003	0.00464	3.8e-05
303.15	0.2998	0.008688	7.1e-05
303.15	0.4023	0.01471	0.00012
303.15	0.4998	0.02261	0.00019
303.15	0.6016	0.03519	0.00032
303.15	0.6979	0.05061	0.00037
303.15	0.8024	0.07075	0.00101
303.15	0.8974	0.09075	0.00198
303.15	1	0.1049	0.0028
308.15	0	0.000895	7e-06
308.15	0.1001	0.002155	1.7e-05
308.15	0.2003	0.004166	3.4e-05
308.15	0.2998	0.007649	6.2e-05
308.15	0.4023	0.01271	0.0001
308.15	0.4998	0.01918	0.00016
308.15	0.6016	0.02907	0.00025
308.15	0.6979	0.04085	0.00039
308.15	0.8024	0.05599	0.00049
308.15	0.8974	0.07053	0.00101
308.15	1	0.08044	0.00147
313.15	0	0.000822	7e-06
313.15	0.1001	0.001964	1.6e-05
313.15	0.2003	0.003765	3e-05
313.15	0.2998	0.006793	5.5e-05
313.15	0.4023	0.01108	9e-05
313.15	0.4998	0.01648	0.00014
313.15	0.6016	0.02439	0.00021
313.15	0.6979	0.03363	0.0003
313.15	0.8024	0.04519	0.00045
313.15	0.8974	0.05615	0.0005
313.15	1	0.06324	0.00074
318.15	0	0.000756	6e-06
318.15	0.1001	0.001797	1.4e-05
318.15	0.2003	0.003419	2.8e-05
318.15	0.2998	0.006036	4.9e-05
318.15	0.4023	0.00976	8e-05
318.15	0.4998	0.01428	0.00012
318.15	0.6016	0.02068	0.00018
318.15	0.6979	0.02781	0.00024
318.15	0.8024	0.03681	0.00035
318.15	0.8974	0.04506	0.00045
318.15	1	0.05027	0.0004
323.15	0	0.000698	6e-06
323.15	0.1001	0.001649	1.3e-05
323.15	0.2003	0.003118	2.5e-05
323.15	0.2998	0.00543	4.4e-05
323.15	0.4023	0.008634	7.1e-05
323.15	0.4998	0.01247	0.0001
323.15	0.6016	0.01774	0.00015
323.15	0.6979	0.02362	0.0002
323.15	0.8024	0.0306	0.00028
323.15	0.8974	0.03693	0.00035
323.15	1	0.04055	0.0004
