Measured thermophysical data. Experimental Measurement and Thermodynamic Model of Liquid-Liquid Equilibrium for the Ternary System of 1-Dodecanol-Phenol-Water
Source: J. Chem. Eng. Data, 2019, 10.1021/acs.jced.9b00176
Compound 1: phenol, C6H6O, InChI=1S/C6H6O/c7-6-4-2-1-3-5-6/h1-5,7H, purity 99.51%
Compound 2: dodecan-1-ol, C12H26O, InChI=1S/C12H26O/c1-2-3-4-5-6-7-8-9-10-11-12-13/h13H,2-12H2,1H3, purity 99.52%
Compound 3: water, H2O, InChI=1S/H2O/h1H2, purity 99.9%

System: dodecan-1-ol + phenol + water; phases: Liquid mixture 1, Liquid mixture 2
Fixed: Pressure, kPa = 101.3
Property: Mass fraction of dodecan-1-ol (Liquid mixture 1); method: Chromatography
Property: Mass fraction of dodecan-1-ol (Liquid mixture 2); method: Chromatography
Property: Mass fraction of phenol (Liquid mixture 2); method: Chromatography
Temperature, K	Mass fraction of phenol	Mass fraction of dodecan-1-ol	uncertainty	Mass fraction of dodecan-1-ol	uncertainty	Mass fraction of phenol	uncertainty
298.15	0	0.98635	0.01365	0.00059	0.0001	0	
313.15	0	0.98573	0.01427	0.00084	0.0001	0	
313.15	0.05599	0.9259	0.02999	0.00074	0.00012	0.00259	
313.15	0.12136	0.85644	0.0301	0.00068	0.00011	0.0071	
313.15	0.18238	0.79088	0.03115	0.00061	0.0001	0.01312	
313.15	0.23913	0.72257	0.03034	0.00056	0.0001	0.02028	
313.15	0.29183	0.67354	0.02914	0.00049	0.0001	0.02815	
313.15	0.33931	0.62239	0.03124	0.00043	0.0001	0.0372	
313.15	0.38219	0.5757	0.03167	0.00037	0.0001	0.04525	
313.15	0.41991	0.53389	0.03005	0.00031	0.0001	0.05217	
323.15	0	0.98199	0.01801	0.0011	0.0001	0	
298.15	0.03666	0.94774	0.02993	0.00055	0.0001	0.0015	
323.15	0.03189	0.94749	0.03011	0.00103	0.0001	0.00151	
323.15	0.09806	0.87728	0.03002	0.00096	0.00011	0.00579	
323.15	0.15635	0.8156	0.03009	0.00088	0.0001	0.01196	
323.15	0.22452	0.74281	0.0314	0.0008	0.00011	0.0211	
323.15	0.27612	0.67716	0.03263	0.00064	0.00011	0.02884	
323.15	0.31217	0.62779	0.03254	0.00054	0.00011	0.03529	
323.15	0.35556	0.57963	0.03265	0.00048	0.00011	0.04162	
323.15	0.39221	0.53884	0.02497	0.0004	0.0001	0.04796	
333.15	0	0.98058	0.01942	0.00121	0.0001	0	
333.15	0.05525	0.92312	0.02987	0.00103	0.00012	0.00296	
298.15	0.10811	0.8724	0.03004	0.00048	0.00011	0.0053	
333.15	0.13197	0.8421	0.02998	0.00095	0.0001	0.00989	
333.15	0.20127	0.7688	0.02994	0.00089	0.0001	0.01958	
333.15	0.28218	0.683418	0.030089	0.00078	0.00011	0.03071	
333.15	0.34026	0.62153	0.03022	0.00064	0.00011	0.03932	
333.15	0.39954	0.55834	0.03045	0.00051	0.0001	0.04846	
333.15	0.44055	0.51324	0.03105	0.00049	0.0001	0.05518	
333.15	0.46587	0.48402	0.03157	0.00039	0.00011	0.06135	
343.15	0	0.97657	0.02114	0.0013	0.0001	0	
343.15	0.05603	0.91733	0.03001	0.00114	0.00012	0.00318	
343.15	0.12767	0.84136	0.03002	0.00105	0.00011	0.01065	
298.15	0.16546	0.81106	0.03006	0.00042	0.00011	0.01007	
343.15	0.19242	0.77291	0.03012	0.00091	0.0001	0.02003	
343.15	0.25161	0.70944	0.03011	0.00088	0.0001	0.02919	
343.15	0.31119	0.64676	0.03019	0.0008	0.00011	0.03866	
343.15	0.37494	0.57811	0.03014	0.00061	0.00011	0.04957	
343.15	0.449067	0.500756	0.030285	0.00055	0.0001	0.061351	
343.15	0.47974	0.466049	0.031225	0.00048	0.0001	0.068183	
298.15	0.22994	0.74307	0.03008	0.00034	0.0001	0.01753	
298.15	0.28695	0.68221	0.02997	0.00031	0.0001	0.02441	
298.15	0.35175	0.61502	0.0299	0.00026	0.0001	0.03245	
298.15	0.40532	0.55868	0.0303	0.00023	0.0001	0.04209	
298.15	0.44307	0.51731	0.03072	0.00015	0.0001	0.05101	

System: dodecan-1-ol + water; phases: Liquid mixture 1, Liquid mixture 2
Fixed: Pressure, kPa = 101.3
Property: Mass fraction of dodecan-1-ol (Liquid mixture 1); method: Chromatography
Temperature, K	Mass fraction of dodecan-1-ol	uncertainty
298.15	0.98635	0.01365
323.15	0.98199	0.01801
313.15	0.98573	0.01427
333.15	0.98058	0.01942
343.15	0.97657	0.02114

System: dodecan-1-ol + water; phases: Liquid mixture 2, Liquid mixture 1
Fixed: Pressure, kPa = 101.3
Property: Mass fraction of dodecan-1-ol (Liquid mixture 2); method: Chromatography
Temperature, K	Mass fraction of dodecan-1-ol	uncertainty
298.15	0.00059	0.0001
323.15	0.0011	0.0001
313.15	0.00084	0.0001
333.15	0.00121	0.0001
343.15	0.0013	0.0001
