Measured thermophysical data. Isobaric Vapor Liquid Equilibrium for the Binary Systems of sec-Butyl Acetate + n-Butyl Alcohol, Isobutyl Alcohol, or tert-Butyl Alcohol at 101.3 kPa
Source: J. Chem. Eng. Data, 2017, 10.1021/acs.jced.6b00471
Compound 1: 1-methylpropyl ethanoate, C6H12O2, InChI=1S/C6H12O2/c1-4-5(2)8-6(3)7/h5H,4H2,1-3H3
Compound 2: butan-1-ol, C4H10O, InChI=1S/C4H10O/c1-2-3-4-5/h5H,2-4H2,1H3
Compound 3: 2-methyl-1-propanol, C4H10O, InChI=1S/C4H10O/c1-4(2)3-5/h4-5H,3H2,1-2H3
Compound 4: 2-methylpropan-2-ol, C4H10O, InChI=1S/C4H10O/c1-4(2,3)5/h5H,1-3H3

System: 1-methylpropyl ethanoate; phases: Liquid, Gas
Property: Normal boiling temperature, K (Liquid); method: Ebulliometric method (Recirculating still)
Normal boiling temperature, K	uncertainty
385.12	0.2

System: 1-methylpropyl ethanoate; phases: Liquid
Property: Mass density, kg/m3 (Liquid); method: Pycnometric method
Temperature, K	Pressure, kPa	Mass density, kg/m3	uncertainty
298.15	101.325	863.8	0.8

System: 1-methylpropyl ethanoate; phases: Liquid
Property: Refractive index (Na D-line) (Liquid); method: Standard Abbe refractometry
Temperature, K	Pressure, kPa	Refractive index (Na D-line)	uncertainty
298.15	101.325	1.3872	0.0007

System: butan-1-ol; phases: Liquid, Gas
Property: Normal boiling temperature, K (Liquid); method: Ebulliometric method (Recirculating still)
Normal boiling temperature, K	uncertainty
390.79	0.2

System: butan-1-ol; phases: Liquid
Property: Mass density, kg/m3 (Liquid); method: Pycnometric method
Temperature, K	Pressure, kPa	Mass density, kg/m3	uncertainty
298.15	101.325	805.8	0.7

System: butan-1-ol; phases: Liquid
Property: Refractive index (Na D-line) (Liquid); method: Standard Abbe refractometry
Temperature, K	Pressure, kPa	Refractive index (Na D-line)	uncertainty
298.15	101.325	1.397	0.0007

System: 2-methyl-1-propanol; phases: Liquid, Gas
Property: Normal boiling temperature, K (Liquid); method: Ebulliometric method (Recirculating still)
Normal boiling temperature, K	uncertainty
380.83	0.2

System: 2-methyl-1-propanol; phases: Liquid
Property: Mass density, kg/m3 (Liquid); method: Pycnometric method
Temperature, K	Pressure, kPa	Mass density, kg/m3	uncertainty
298.15	101.325	797.4	0.7

System: 2-methyl-1-propanol; phases: Liquid
Property: Refractive index (Na D-line) (Liquid); method: Standard Abbe refractometry
Temperature, K	Pressure, kPa	Refractive index (Na D-line)	uncertainty
298.15	101.325	1.3931	0.0007

System: 2-methylpropan-2-ol; phases: Liquid, Gas
Property: Normal boiling temperature, K (Liquid); method: Ebulliometric method (Recirculating still)
Normal boiling temperature, K	uncertainty
355.51	0.2

System: 2-methylpropan-2-ol; phases: Liquid
Property: Refractive index (Na D-line) (Liquid); method: Standard Abbe refractometry
Temperature, K	Pressure, kPa	Refractive index (Na D-line)	uncertainty
298.15	101.325	1.3857	0.0007

System: butan-1-ol + 1-methylpropyl ethanoate; phases: Liquid, Gas
Fixed: Pressure, kPa = 101.3
Property: Boiling temperature at pressure P, K (Liquid); method: Ebulliometric method (Recirculating still)
Mole fraction of 1-methylpropyl ethanoate	Boiling temperature at pressure P, K	uncertainty
0.945	384.27	0.17
0.833	383.71	0.17
0.742	383.55	0.17
0.656	383.61	0.17
0.587	383.8	0.17
0.529	384.05	0.17
0.474	384.36	0.17
0.425	384.71	0.17
0.378	385.15	0.17
0.333	385.57	0.17
0.292	386.02	0.18
0.249	386.54	0.18
0.212	387.04	0.18
0.173	387.61	0.18
0.133	388.26	0.18
0.094	388.97	0.18
0.05	389.79	0.18

System: butan-1-ol + 1-methylpropyl ethanoate; phases: Gas, Liquid
Fixed: Pressure, kPa = 101.3
Property: Mole fraction of 1-methylpropyl ethanoate (Gas); method: Chromatography
Mole fraction of 1-methylpropyl ethanoate	Mole fraction of 1-methylpropyl ethanoate	uncertainty
0.945	0.93	0.003
0.833	0.817	0.003
0.742	0.741	0.003
0.656	0.672	0.004
0.587	0.62	0.004
0.529	0.576	0.004
0.474	0.534	0.005
0.425	0.495	0.005
0.378	0.455	0.005
0.333	0.415	0.004
0.292	0.379	0.004
0.249	0.335	0.004
0.212	0.296	0.004
0.173	0.25	0.004
0.133	0.2	0.004
0.094	0.147	0.004
0.05	0.081	0.004

System: 2-methyl-1-propanol + 1-methylpropyl ethanoate; phases: Liquid, Gas
Fixed: Pressure, kPa = 101.3
Property: Boiling temperature at pressure P, K (Liquid); method: Ebulliometric method (Recirculating still)
Mole fraction of 2-methyl-1-propanol	Boiling temperature at pressure P, K	uncertainty
0.949	380.38	0.17
0.913	380.22	0.17
0.879	380.11	0.17
0.845	380.03	0.17
0.809	379.98	0.17
0.776	379.97	0.17
0.728	379.98	0.17
0.685	380.02	0.17
0.64	380.09	0.17
0.618	380.12	0.17
0.563	380.25	0.17
0.505	380.45	0.17
0.445	380.71	0.17
0.392	380.98	0.17
0.333	381.35	0.17
0.281	381.74	0.17
0.203	382.4	0.17
0.123	383.23	0.17

System: 2-methyl-1-propanol + 1-methylpropyl ethanoate; phases: Gas, Liquid
Fixed: Pressure, kPa = 101.3
Property: Mole fraction of 2-methyl-1-propanol (Gas); method: Chromatography
Mole fraction of 2-methyl-1-propanol	Mole fraction of 2-methyl-1-propanol	uncertainty
0.949	0.94	0.003
0.913	0.901	0.003
0.879	0.867	0.003
0.845	0.835	0.003
0.809	0.802	0.003
0.776	0.774	0.003
0.728	0.733	0.004
0.685	0.697	0.004
0.64	0.66	0.004
0.618	0.643	0.004
0.563	0.597	0.004
0.505	0.55	0.005
0.445	0.499	0.005
0.392	0.451	0.005
0.333	0.395	0.004
0.281	0.344	0.004
0.203	0.261	0.004
0.123	0.166	0.003

System: 2-methylpropan-2-ol + 1-methylpropyl ethanoate; phases: Liquid, Gas
Fixed: Pressure, kPa = 101.3
Property: Boiling temperature at pressure P, K (Liquid); method: Ebulliometric method (Recirculating still)
Mole fraction of 2-methylpropan-2-ol	Boiling temperature at pressure P, K	uncertainty
0.9	356.59	0.18
0.863	357.38	0.18
0.826	357.96	0.18
0.788	358.58	0.18
0.746	359.17	0.18
0.705	359.85	0.18
0.66	360.55	0.18
0.625	361.26	0.18
0.585	362.04	0.18
0.545	362.9	0.18
0.503	363.82	0.18
0.47	364.67	0.18
0.428	365.49	0.18
0.385	366.61	0.18
0.341	367.79	0.18
0.295	369.19	0.18
0.246	370.7	0.19
0.207	372.48	0.2
0.168	374.17	0.19
0.124	375.9	0.19

System: 2-methylpropan-2-ol + 1-methylpropyl ethanoate; phases: Gas, Liquid
Fixed: Pressure, kPa = 101.3
Property: Mole fraction of 2-methylpropan-2-ol (Gas); method: Chromatography
Mole fraction of 2-methylpropan-2-ol	Mole fraction of 2-methylpropan-2-ol	uncertainty
0.9	0.952	0.002
0.863	0.934	0.002
0.826	0.917	0.002
0.788	0.898	0.002
0.746	0.878	0.003
0.705	0.857	0.003
0.66	0.833	0.003
0.625	0.814	0.003
0.585	0.791	0.003
0.545	0.767	0.003
0.503	0.74	0.01
0.47	0.717	0.004
0.428	0.687	0.004
0.385	0.652	0.004
0.341	0.612	0.004
0.295	0.565	0.005
0.246	0.509	0.005
0.207	0.457	0.005
0.168	0.397	0.005
0.124	0.319	0.005
