Measured thermophysical data. Surface Tension of Aqueous Solutions of Small-Chain Amino and Organic Acids
Source: J. Chem. Eng. Data, 2019, 10.1021/acs.jced.9b00026
Compound 1: L-glutamine, C5H10N2O3, InChI=1S/C5H10N2O3/c6-3(5(9)10)1-2-4(7)8/h3H,1-2,6H2,(H2,7,8)(H,9,10)/t3-/m0/s1, purity 99%
Compound 2: L-serine, C3H7NO3, InChI=1S/C3H7NO3/c4-2(1-5)3(6)7/h2,5H,1,4H2,(H,6,7)/t2-/m0/s1, purity 99%
Compound 3: L-methionine, C5H11NO2S, InChI=1S/C5H11NO2S/c1-9-3-2-4(6)5(7)8/h4H,2-3,6H2,1H3,(H,7,8)/t4-/m0/s1, purity 99%
Compound 4: L-proline, C5H9NO2, InChI=1S/C5H9NO2/c7-5(8)4-2-1-3-6-4/h4,6H,1-3H2,(H,7,8)/t4-/m0/s1, purity 99%
Compound 5: hydroxybutanedioic acid, C4H6O5, InChI=1S/C4H6O5/c5-2(4(8)9)1-3(6)7/h2,5H,1H2,(H,6,7)(H,8,9), purity 98%
Compound 6: L-valine, C5H11NO2, InChI=1S/C5H11NO2/c1-3(2)4(6)5(7)8/h3-4H,6H2,1-2H3,(H,7,8)/t4-/m0/s1, purity 99%
Compound 7: (S)-2-hydroxypropanoic acid, C3H6O3, InChI=1S/C3H6O3/c1-2(4)3(5)6/h2,4H,1H3,(H,5,6)/t2-/m0/s1, purity 98%
Compound 8: water, H2O, InChI=1S/H2O/h1H2, purity 99.9%
Compound 9: ethanol, C2H6O, InChI=1S/C2H6O/c1-2-3/h3H,2H2,1H3, purity 99.5%

System: water; phases: Liquid, Gas
Property: Surface tension liquid-gas, N/m (Liquid); method: Ring tensiometer
Temperature, K	Surface tension liquid-gas, N/m	uncertainty
298	0.07144	0.00091
308	0.06972	0.0009
318	0.06844	0.00087
328	0.06668	0.00085
298	0.07106	0.0009
308	0.0691	0.00088
318	0.06831	0.00087
328	0.06641	0.00085
298	0.07146	0.00091
308	0.06971	0.00089
318	0.06851	0.00087
328	0.06666	0.00085
298	0.07152	0.00091
308	0.06994	0.00089
318	0.06854	0.00088
328	0.06678	0.00085
298	0.07161	0.00091
308	0.0701	0.00089
318	0.06856	0.00088
328	0.06676	0.00085
308	0.06973	0.00089
318	0.0683	0.00087
328	0.06681	0.00085
298	0.07153	0.00091
308	0.07002	0.00089
318	0.06848	0.00087
328	0.06718	0.00086
298	0.07204	0.00092
313	0.06989	0.00089

System: L-glutamine + water; phases: Liquid, Gas
Property: Surface tension liquid-gas, N/m (Liquid); method: Ring tensiometer
Temperature, K	Mass fraction of L-glutamine	Surface tension liquid-gas, N/m	uncertainty
298	0	0.07106	0.0009
298	0.00499	0.07143	0.00091
298	0.00998	0.07149	0.00091
298	0.01501	0.07153	0.00091
298	0.02001	0.07155	0.00091
298	0.02499	0.07155	0.00091
298	0.02999	0.07155	0.00091
308	0	0.0691	0.00088
308	0.00499	0.06929	0.00088
308	0.00998	0.06965	0.00089
308	0.01501	0.06978	0.00089
308	0.02001	0.06989	0.00089
308	0.02499	0.06996	0.00089
308	0.02999	0.07002	0.00089
318	0	0.06831	0.00087
318	0.00499	0.06834	0.00087
318	0.00998	0.06842	0.00087
318	0.01501	0.06859	0.00088
318	0.02001	0.06858	0.00088
318	0.02499	0.06864	0.00088
318	0.02999	0.06867	0.00088
328	0	0.06641	0.00085
328	0.00499	0.06655	0.00085
328	0.00998	0.06669	0.00085
328	0.01501	0.06676	0.00085
328	0.02001	0.06685	0.00086
328	0.02499	0.06698	0.00086
328	0.02999	0.06704	0.00086

System: L-glutamine + water; phases: Liquid
Property: Mass density, kg/m3 (Liquid); method: Vibrating tube method
Mass fraction of L-glutamine	Temperature, K	Pressure, kPa	Mass density, kg/m3	uncertainty
0.005	298	101	998.8	0.6

System: L-serine + water; phases: Liquid, Gas
Property: Surface tension liquid-gas, N/m (Liquid); method: Ring tensiometer
Temperature, K	Mass fraction of L-serine	Surface tension liquid-gas, N/m	uncertainty
298	0	0.07146	0.00091
298	0.00504	0.07153	0.00091
298	0.01	0.07164	0.00091
298	0.02001	0.0717	0.00091
298	0.03	0.07185	0.00091
298	0.03999	0.07198	0.00092
298	0.05	0.07212	0.00092
308	0	0.06971	0.00089
308	0.00504	0.06985	0.00089
308	0.01	0.06998	0.00089
308	0.02001	0.07015	0.00089
308	0.03	0.07031	0.0009
308	0.03999	0.07044	0.0009
308	0.05	0.07056	0.0009
318	0	0.06851	0.00087
318	0.00504	0.06858	0.00088
318	0.01	0.0686	0.00088
318	0.02001	0.06884	0.00088
318	0.03	0.06887	0.00088
318	0.03999	0.06909	0.00088
318	0.05	0.06923	0.00088
328	0	0.06666	0.00085
328	0.00504	0.06676	0.00085
328	0.01	0.06684	0.00086
328	0.02001	0.06701	0.00086
328	0.03	0.06719	0.00086
328	0.03999	0.06728	0.00086
328	0.05	0.0675	0.00086

System: L-serine + water; phases: Liquid
Property: Mass density, kg/m3 (Liquid); method: Vibrating tube method
Mass fraction of L-serine	Temperature, K	Pressure, kPa	Mass density, kg/m3	uncertainty
0.005	298	101	999.1	0.6

System: L-methionine + water; phases: Liquid, Gas
Property: Surface tension liquid-gas, N/m (Liquid); method: Ring tensiometer
Temperature, K	Mass fraction of L-methionine	Surface tension liquid-gas, N/m	uncertainty
298	0	0.07152	0.00091
298	0.005	0.07139	0.00091
298	0.01	0.0713	0.00091
298	0.02	0.07102	0.0009
298	0.03	0.07077	0.0009
298	0.04001	0.07061	0.0009
308	0	0.06994	0.00089
308	0.005	0.06989	0.00089
308	0.01	0.06969	0.00089
308	0.02	0.06945	0.00089
308	0.03	0.06915	0.00088
308	0.04001	0.0689	0.00088
318	0	0.06854	0.00088
318	0.005	0.0684	0.00087
318	0.01	0.0683	0.00087
318	0.02	0.06806	0.00087
318	0.03	0.06774	0.00087
318	0.04001	0.06728	0.00086
328	0	0.06678	0.00085
328	0.005	0.06665	0.00085
328	0.01	0.06656	0.00085
328	0.02	0.06632	0.00085
328	0.03	0.06578	0.00084
328	0.04001	0.06497	0.00083

System: L-methionine + water; phases: Liquid
Property: Mass density, kg/m3 (Liquid); method: Vibrating tube method
Mass fraction of L-methionine	Temperature, K	Pressure, kPa	Mass density, kg/m3	uncertainty
0.005	298	101	998.5	0.6

System: L-proline + water; phases: Liquid, Gas
Property: Surface tension liquid-gas, N/m (Liquid); method: Ring tensiometer
Temperature, K	Mass fraction of L-proline	Surface tension liquid-gas, N/m	uncertainty
298	0	0.07161	0.00091
298	0.01996	0.07156	0.00091
298	0.03996	0.07156	0.00091
298	0.05995	0.07155	0.00091
298	0.07996	0.0715	0.00091
298	0.09995	0.07145	0.00091
308	0	0.0701	0.00089
308	0.01996	0.07014	0.00089
308	0.03996	0.07013	0.00089
308	0.05995	0.07012	0.00089
308	0.07996	0.07005	0.00089
308	0.09995	0.06995	0.00089
318	0	0.06856	0.00088
318	0.01996	0.06851	0.00088
318	0.03996	0.06851	0.00088
318	0.05995	0.06846	0.00088
318	0.07996	0.06844	0.00088
318	0.09995	0.0684	0.00088
328	0	0.06676	0.00085
328	0.01996	0.0668	0.00086
328	0.03996	0.06679	0.00086
328	0.05995	0.06675	0.00086
328	0.07996	0.06667	0.00085
328	0.09995	0.06646	0.00085

System: L-proline + water; phases: Liquid
Property: Mass density, kg/m3 (Liquid); method: Vibrating tube method
Mass fraction of L-proline	Temperature, K	Pressure, kPa	Mass density, kg/m3	uncertainty
0.02	298	101	1002.6	0.6

System: hydroxybutanedioic acid + water; phases: Liquid, Gas
Property: Surface tension liquid-gas, N/m (Liquid); method: Ring tensiometer
Temperature, K	Mass fraction of hydroxybutanedioic acid	Surface tension liquid-gas, N/m	uncertainty
298	0	0.07152	0.00091
298	0.01049	0.07139	0.00091
298	0.02026	0.0712	0.00091
298	0.03004	0.07109	0.00091
298	0.04002	0.07092	0.0009
298	0.06001	0.07061	0.0009
298	0.07998	0.07044	0.0009
298	0.10001	0.0702	0.0009
308	0	0.06973	0.00089
308	0.01049	0.06964	0.00089
308	0.02026	0.06949	0.00089
308	0.03004	0.06942	0.00089
308	0.04002	0.06928	0.00089
308	0.06001	0.06918	0.00088
308	0.07998	0.06883	0.00088
308	0.10001	0.06862	0.00088
318	0	0.0683	0.00087
318	0.01049	0.06816	0.00087
318	0.02026	0.06816	0.00087
318	0.03004	0.06811	0.00087
318	0.04002	0.06778	0.00087
318	0.06001	0.06763	0.00087
318	0.07998	0.06749	0.00087
318	0.10001	0.06725	0.00086
328	0	0.06681	0.00085
328	0.01049	0.06667	0.00085
328	0.02026	0.06654	0.00085
328	0.03004	0.06648	0.00085
328	0.04002	0.06643	0.00085
328	0.06001	0.06624	0.00085
328	0.07998	0.06605	0.00085
328	0.10001	0.06589	0.00085

System: hydroxybutanedioic acid + water; phases: Liquid
Property: Mass density, kg/m3 (Liquid); method: Vibrating tube method
Mass fraction of hydroxybutanedioic acid	Temperature, K	Pressure, kPa	Mass density, kg/m3	uncertainty
0.01	298	101	1000.8	0.6

System: L-valine + water; phases: Liquid, Gas
Property: Surface tension liquid-gas, N/m (Liquid); method: Ring tensiometer
Temperature, K	Mass fraction of L-valine	Surface tension liquid-gas, N/m	uncertainty
298	0.005	0.07053	0.0009
298	0.01	0.0705	0.0009
298	0.02	0.06948	0.00089
298	0.03	0.0684	0.00087
298	0.04	0.06712	0.00086
308	0.005	0.06919	0.00088
308	0.01	0.06893	0.00088
308	0.02	0.06817	0.00087
308	0.03	0.06708	0.00086
308	0.04	0.06641	0.00085
318	0.005	0.06761	0.00086
318	0.01	0.06761	0.00086
318	0.02	0.06654	0.00085
318	0.03	0.06536	0.00084
318	0.04	0.06453	0.00083
328	0.005	0.0663	0.00085
328	0.01	0.06602	0.00085
328	0.02	0.06514	0.00084
328	0.03	0.06384	0.00082
328	0.04	0.06326	0.00081

System: L-valine + water; phases: Liquid
Property: Mass density, kg/m3 (Liquid); method: Vibrating tube method
Mass fraction of L-valine	Temperature, K	Pressure, kPa	Mass density, kg/m3	uncertainty
0.005	298	101	998.1	0.6

System: (S)-2-hydroxypropanoic acid + water; phases: Liquid, Gas
Property: Surface tension liquid-gas, N/m (Liquid); method: Ring tensiometer
Temperature, K	Mass fraction of (S)-2-hydroxypropanoic acid	Surface tension liquid-gas, N/m	uncertainty
298	0	0.07153	0.00091
298	0.002	0.07066	0.0009
298	0.004	0.06969	0.00089
298	0.006	0.06873	0.00088
298	0.008	0.06769	0.00087
308	0	0.07002	0.00089
308	0.002	0.06932	0.00088
308	0.004	0.06836	0.00087
308	0.006	0.06763	0.00086
308	0.008	0.06706	0.00086
318	0	0.06848	0.00087
318	0.002	0.06804	0.00087
318	0.004	0.06736	0.00086
318	0.006	0.06646	0.00085
318	0.008	0.06596	0.00085
328	0	0.06718	0.00086
328	0.002	0.06707	0.00086
328	0.004	0.06617	0.00085
328	0.006	0.06534	0.00084
328	0.008	0.06492	0.00083

System: (S)-2-hydroxypropanoic acid + water; phases: Liquid
Property: Mass density, kg/m3 (Liquid); method: Vibrating tube method
Mass fraction of (S)-2-hydroxypropanoic acid	Temperature, K	Pressure, kPa	Mass density, kg/m3	uncertainty
0.01	298	101	999.5	0.6

System: ethanol + water; phases: Liquid, Gas
Property: Surface tension liquid-gas, N/m (Liquid); method: Ring tensiometer
Temperature, K	Mass fraction of ethanol	Surface tension liquid-gas, N/m	uncertainty
298	0	0.07204	0.00092
298	0.05	0.05514	0.00072
298	0.1	0.04734	0.00063
298	0.15	0.04196	0.00057
298	0.2	0.0382	0.00052
313	0	0.06989	0.00089
313	0.05	0.05313	0.0007
313	0.1	0.04592	0.00061
313	0.15	0.04041	0.00055
313	0.2	0.03671	0.00051
