Measured thermophysical data. Solubilities of 3-Chlorophthalic Anhydride and 4-Chlorophthalic Anhydride in Different Pure Solvents
Source: J. Chem. Eng. Data, 2015, 10.1021/acs.jced.5b00526
Compound 1: 3-chlorophthalic anhydride, C8H3ClO3, InChI=1S/C8H3ClO3/c9-5-3-1-2-4-6(5)8(11)12-7(4)10/h1-3H, purity 98.3%
Compound 2: 4-chlorophthalic anhydride, C8H3ClO3, InChI=1S/C8H3ClO3/c9-4-1-2-5-6(3-4)8(11)12-7(5)10/h1-3H, purity 99.5%
Compound 3: 2-methylbutan-2-ol, C5H12O, InChI=1S/C5H12O/c1-4-5(2,3)6/h6H,4H2,1-3H3, purity 99.5%
Compound 4: tetrachloromethane, CCl4, InChI=1S/CCl4/c2-1(3,4)5, purity 99.5%
Compound 5: cyclohexane, C6H12, InChI=1S/C6H12/c1-2-4-6-5-3-1/h1-6H2, purity 99.5%
Compound 6: methanol, CH4O, InChI=1S/CH4O/c1-2/h2H,1H3, purity 99.5%
Compound 7: acetonitrile, C2H3N, InChI=1S/C2H3N/c1-2-3/h1H3, purity 99.5%
Compound 8: methyl ethanoate, C3H6O2, InChI=1S/C3H6O2/c1-3(4)5-2/h1-2H3, purity 99.5%

System: 3-chlorophthalic anhydride; phases: Crystal, Liquid, Air at 1 atmosphere
Property: Normal melting temperature, K (Crystal); method: DTA
Normal melting temperature, K	uncertainty
398.7	1.1

System: 3-chlorophthalic anhydride; phases: Crystal, Liquid, Air at 1 atmosphere
Property: Molar enthalpy of transition or fusion, kJ/mol (Crystal); method: DSC
Molar enthalpy of transition or fusion, kJ/mol	uncertainty
21.62	2.21

System: 4-chlorophthalic anhydride; phases: Crystal, Liquid, Air at 1 atmosphere
Property: Normal melting temperature, K (Crystal); method: DTA
Normal melting temperature, K	uncertainty
369.8	1.1

System: 4-chlorophthalic anhydride; phases: Crystal, Liquid, Air at 1 atmosphere
Property: Molar enthalpy of transition or fusion, kJ/mol (Crystal); method: DSC
Molar enthalpy of transition or fusion, kJ/mol	uncertainty
22.41	2.29

System: 2-methylbutan-2-ol + 3-chlorophthalic anhydride; phases: Liquid, Crystal
Fixed: Pressure, kPa = 101
Property: Mole fraction of 3-chlorophthalic anhydride (Liquid); method: Gravimetric
Temperature, K	Mole fraction of 3-chlorophthalic anhydride	uncertainty
283.15	0.00423	0.002538
288.15	0.005481	0.003289
293.15	0.006769	0.004061
298.15	0.00875	0.00525
303.15	0.01131	0.006786
308.15	0.01254	0.007524
313.15	0.01456	0.008736
318.15	0.01842	0.011052
323.15	0.02282	0.013692
328.15	0.02881	0.017286

System: tetrachloromethane + 3-chlorophthalic anhydride; phases: Liquid, Crystal
Fixed: Pressure, kPa = 101
Property: Mole fraction of 3-chlorophthalic anhydride (Liquid); method: Gravimetric
Temperature, K	Mole fraction of 3-chlorophthalic anhydride	uncertainty
283.15	0.003073	0.001844
288.15	0.003998	0.002399
293.15	0.004973	0.002984
298.15	0.006051	0.003631
303.15	0.007286	0.004372
308.15	0.008733	0.00524
313.15	0.01044	0.006264
318.15	0.01254	0.007524
323.15	0.01462	0.008772
328.15	0.01771	0.010626

System: cyclohexane + 3-chlorophthalic anhydride; phases: Liquid, Crystal
Fixed: Pressure, kPa = 101
Property: Mole fraction of 3-chlorophthalic anhydride (Liquid); method: Gravimetric
Temperature, K	Mole fraction of 3-chlorophthalic anhydride	uncertainty
283.15	0.0004198	0.0002519
288.15	0.0005073	0.0003044
293.15	0.0005543	0.0003326
298.15	0.0007643	0.0004586
303.15	0.0009087	0.0005452
308.15	0.001076	0.0006456
313.15	0.001356	0.0008136
318.15	0.001762	0.0010572
323.15	0.002223	0.0013338
328.15	0.002771	0.0016626

System: methanol + 3-chlorophthalic anhydride; phases: Liquid, Crystal
Fixed: Pressure, kPa = 101
Property: Mole fraction of 3-chlorophthalic anhydride (Liquid); method: Gravimetric
Temperature, K	Mole fraction of 3-chlorophthalic anhydride	uncertainty
283.15	0.06371	0.03823
288.15	0.06975	0.04185
293.15	0.07665	0.04599
298.15	0.08996	0.05398
303.15	0.09678	0.05807
308.15	0.1039	0.06234
313.15	0.1157	0.06942
318.15	0.1261	0.07566
323.15	0.1443	0.08658
328.15	0.1613	0.09678

System: methyl ethanoate + 3-chlorophthalic anhydride; phases: Liquid, Crystal
Fixed: Pressure, kPa = 101
Property: Mole fraction of 3-chlorophthalic anhydride (Liquid); method: Gravimetric
Temperature, K	Mole fraction of 3-chlorophthalic anhydride	uncertainty
283.15	0.08815	0.05289
288.15	0.09866	0.0592
293.15	0.112	0.0672
298.15	0.1227	0.07362
303.15	0.1447	0.08682
308.15	0.1569	0.09414
313.15	0.1758	0.10548
318.15	0.1975	0.1185
323.15	0.2225	0.1335
328.15	0.2515	0.1509

System: acetonitrile + 3-chlorophthalic anhydride; phases: Liquid, Crystal
Fixed: Pressure, kPa = 101
Property: Mole fraction of 3-chlorophthalic anhydride (Liquid); method: Gravimetric
Temperature, K	Mole fraction of 3-chlorophthalic anhydride	uncertainty
283.15	0.06756	0.04054
288.15	0.0793	0.04758
293.15	0.09197	0.05518
298.15	0.1063	0.06378
303.15	0.1228	0.07368
308.15	0.1423	0.08538
313.15	0.1654	0.09924
318.15	0.1928	0.11568
323.15	0.2252	0.13512
328.15	0.2631	0.15786

System: 2-methylbutan-2-ol + 4-chlorophthalic anhydride; phases: Liquid, Crystal
Fixed: Pressure, kPa = 101
Property: Mole fraction of 4-chlorophthalic anhydride (Liquid); method: Gravimetric
Temperature, K	Mole fraction of 4-chlorophthalic anhydride	uncertainty
283.15	0.007381	0.004429
288.15	0.00942	0.005652
293.15	0.01289	0.007734
298.15	0.01657	0.009942
303.15	0.02189	0.013134
308.15	0.02737	0.016422
313.15	0.03757	0.022542
318.15	0.0489	0.02934
323.15	0.06504	0.039024
328.15	0.08225	0.04935

System: tetrachloromethane + 4-chlorophthalic anhydride; phases: Liquid, Crystal
Fixed: Pressure, kPa = 101
Property: Mole fraction of 4-chlorophthalic anhydride (Liquid); method: Gravimetric
Temperature, K	Mole fraction of 4-chlorophthalic anhydride	uncertainty
283.15	0.008878	0.005327
288.15	0.01031	0.006186
293.15	0.01281	0.007686
298.15	0.01416	0.008496
303.15	0.0169	0.01014
308.15	0.01906	0.011436
313.15	0.02118	0.012708
318.15	0.0233	0.01398
323.15	0.0254	0.01524
328.15	0.02742	0.016452

System: cyclohexane + 4-chlorophthalic anhydride; phases: Liquid, Crystal
Fixed: Pressure, kPa = 101
Property: Mole fraction of 4-chlorophthalic anhydride (Liquid); method: Gravimetric
Temperature, K	Mole fraction of 4-chlorophthalic anhydride	uncertainty
283.15	0.0004818	0.0002891
288.15	0.000684	0.0004104
293.15	0.0008954	0.0005372
298.15	0.00109	0.000654
303.15	0.001387	0.0008322
308.15	0.001607	0.0009642
313.15	0.002029	0.0012174
318.15	0.002458	0.0014748
323.15	0.003148	0.0018888
328.15	0.003992	0.0023952

System: methanol + 4-chlorophthalic anhydride; phases: Liquid, Crystal
Fixed: Pressure, kPa = 101
Property: Mole fraction of 4-chlorophthalic anhydride (Liquid); method: Gravimetric
Temperature, K	Mole fraction of 4-chlorophthalic anhydride	uncertainty
283.15	0.08479	0.05087
288.15	0.09438	0.05663
293.15	0.1179	0.07074
298.15	0.1356	0.08136
303.15	0.1671	0.10026
308.15	0.1955	0.1173
313.15	0.228	0.1368
318.15	0.2658	0.15948
323.15	0.3086	0.18516
328.15	0.3563	0.21378

System: methyl ethanoate + 4-chlorophthalic anhydride; phases: Liquid, Crystal
Fixed: Pressure, kPa = 101
Property: Mole fraction of 4-chlorophthalic anhydride (Liquid); method: Gravimetric
Temperature, K	Mole fraction of 4-chlorophthalic anhydride	uncertainty
283.15	0.1339	0.0803
288.15	0.1631	0.0979
293.15	0.19	0.114
298.15	0.2156	0.1294
303.15	0.2411	0.1447
308.15	0.2686	0.1612
313.15	0.2963	0.1778
318.15	0.3295	0.1977
323.15	0.3622	0.2173
328.15	0.4067	0.244

System: acetonitrile + 4-chlorophthalic anhydride; phases: Liquid, Crystal
Fixed: Pressure, kPa = 101
Property: Mole fraction of 4-chlorophthalic anhydride (Liquid); method: Gravimetric
Temperature, K	Mole fraction of 4-chlorophthalic anhydride	uncertainty
283.15	0.1018	0.0611
288.15	0.1209	0.0725
293.15	0.143	0.0858
298.15	0.1674	0.1004
303.15	0.1936	0.1162
308.15	0.2211	0.1327
313.15	0.2491	0.1495
318.15	0.2771	0.1663
323.15	0.3044	0.1826
328.15	0.3306	0.1984
