Measured thermophysical data. Partial Molar Volumes and Partial Molar Isentropic Compressions of Four Poly(Ethylene Glycols) at Infinite Dilution in Water at Temperatures T = (278 to 343) K and Atmospheric Pressure
Source: J. Chem. Eng. Data, 2016, 10.1021/acs.jced.5b00498
Compound 1: 1,2-ethanediol, C2H6O2, InChI=1S/C2H6O2/c3-1-2-4/h3-4H,1-2H2, purity 99.8%
Compound 2: diethylene glycol, C4H10O3, InChI=1S/C4H10O3/c5-1-3-7-4-2-6/h5-6H,1-4H2, purity 99%
Compound 3: triethylene glycol, C6H14O4, InChI=1S/C6H14O4/c7-1-3-9-5-6-10-4-2-8/h7-8H,1-6H2, purity 99%
Compound 4: tetraethylene glycol, C8H18O5, InChI=1S/C8H18O5/c9-1-3-11-5-7-13-8-6-12-4-2-10/h9-10H,1-8H2, purity 99%
Compound 5: water, H2O, InChI=1S/H2O/h1H2, purity 99%

System: 1,2-ethanediol + water; phases: Liquid
Fixed: Pressure, kPa = 98.3
Property: Mass density, kg/m3 (Liquid); method: Vibrating tube method
Temperature, K	Molality, mol/kg of 1,2-ethanediol	Mass density, kg/m3	uncertainty
278.15	0.10176	1000.805	0.227
278.15	0.20482	1001.654	0.226
278.15	0.29486	1002.39	0.225
278.15	0.40279	1003.265	0.223
278.15	0.50856	1004.115	0.222
283.15	0.10176	1000.519	0.227
283.15	0.20482	1001.344	0.226
283.15	0.29486	1002.061	0.224
283.15	0.40279	1002.908	0.223
283.15	0.50856	1003.737	0.222
288.15	0.10176	999.9	0.227
288.15	0.20482	1000.705	0.225
288.15	0.29486	1001.404	0.224
288.15	0.40279	1002.232	0.223
288.15	0.50856	1003.038	0.221
293.15	0.10176	998.99	0.227
293.15	0.20482	999.777	0.225
293.15	0.29486	1000.46	0.223
293.15	0.40279	1001.27	0.222
293.15	0.50856	1002.058	0.221
298.15	0.10176	997.817	0.227
298.15	0.20482	998.59	0.225
298.15	0.29486	999.26	0.223
298.15	0.40279	1000.053	0.221
298.15	0.50856	1000.825	0.22
303.15	0.10176	996.408	0.227
303.15	0.20482	997.167	0.225
303.15	0.29486	997.824	0.223
303.15	0.40279	998.603	0.221
303.15	0.50856	999.362	0.219
308.15	0.10176	994.781	0.227
308.15	0.20482	995.528	0.225
308.15	0.29486	996.175	0.223
308.15	0.40279	996.94	0.221
308.15	0.50856	997.687	0.219
313.15	0.10176	992.953	0.227
313.15	0.20482	993.69	0.225
313.15	0.29486	994.327	0.223
313.15	0.40279	995.08	0.221
313.15	0.50856	995.815	0.219
318.15	0.10176	990.94	0.227
318.15	0.20482	991.667	0.225
318.15	0.29486	992.296	0.223
318.15	0.40279	993.039	0.221
318.15	0.50856	993.763	0.219
323.15	0.10176	988.755	0.227
323.15	0.20482	989.472	0.225
323.15	0.29486	990.093	0.223
323.15	0.40279	990.827	0.221
323.15	0.50856	991.539	0.219
328.15	0.10176	986.404	0.227
328.15	0.20482	987.112	0.225
328.15	0.29486	987.725	0.223
328.15	0.40279	988.451	0.221
328.15	0.50856	989.155	0.219
333.15	0.10176	983.897	0.227
333.15	0.20482	984.598	0.225
333.15	0.29486	985.204	0.223
333.15	0.40279	985.921	0.221
333.15	0.50856	986.616	0.219
338.15	0.10176	981.244	0.227
338.15	0.20482	981.938	0.225
338.15	0.29486	982.538	0.223
338.15	0.40279	983.246	0.221
338.15	0.50856	983.933	0.22
343.15	0.10176	978.449	0.227
343.15	0.20482	979.137	0.225
343.15	0.29486	979.73	0.223
343.15	0.40279	980.432	0.222
343.15	0.50856	981.112	0.22

System: 1,2-ethanediol + water; phases: Liquid
Fixed: Pressure, kPa = 98.3
Property: Speed of sound, m/s (Liquid); method: Sing-around technique in a fixed-path interferometer
Temperature, K	Molality, mol/kg of 1,2-ethanediol	Speed of sound, m/s	uncertainty
278.15	0.10176	1430.46	1.22
278.15	0.20482	1434.27	1.22
278.15	0.29486	1437.59	1.22
278.15	0.40279	1441.5	1.22
278.15	0.50856	1445.35	1.21
283.15	0.10176	1451.08	1.23
283.15	0.20482	1454.55	1.23
283.15	0.29486	1457.59	1.22
283.15	0.40279	1461.19	1.22
283.15	0.50856	1464.71	1.22
288.15	0.10176	1469.39	1.23
288.15	0.20482	1472.6	1.23
288.15	0.29486	1475.4	1.2
288.15	0.40279	1478.69	1.22
288.15	0.50856	1481.94	1.22
293.15	0.10176	1485.51	1.24
293.15	0.20482	1488.46	1.23
293.15	0.29486	1491.04	1.23
293.15	0.40279	1494.09	1.23
293.15	0.50856	1497.06	1.22
298.15	0.10176	1499.66	1.24
298.15	0.20482	1502.37	1.24
298.15	0.29486	1504.74	1.23
298.15	0.40279	1507.57	1.23
298.15	0.50856	1510.31	1.23
303.15	0.10176	1511.92	1.24
303.15	0.20482	1514.43	1.24
303.15	0.29486	1516.61	1.23
303.15	0.40279	1519.22	1.23
303.15	0.50856	1521.75	1.23
308.15	0.10176	1522.45	1.24
308.15	0.20482	1524.75	1.24
308.15	0.29486	1526.76	1.24
308.15	0.40279	1529.18	1.23
308.15	0.50856	1531.51	1.23
313.15	0.10176	1531.36	1.25
313.15	0.20482	1533.48	1.24
313.15	0.29486	1535.34	1.24
313.15	0.40279	1537.58	1.24
313.15	0.50856	1539.73	1.23
318.15	0.10176	1538.78	1.25
318.15	0.20482	1540.73	1.24
318.15	0.29486	1542.46	1.24
318.15	0.40279	1544.52	1.24
318.15	0.50856	1546.5	1.23
323.15	0.10176	1544.8	1.2
323.15	0.20482	1546.6	1.24
323.15	0.29486	1548.18	1.24
323.15	0.40279	1550.03	1.24
323.15	0.50856	1551.89	1.23
328.15	0.10176	1549.49	1.25
328.15	0.20482	1551.13	1.25
328.15	0.29486	1552.58	1.24
328.15	0.40279	1554.28	1.24
328.15	0.50856	1555.99	1.24
333.15	0.10176	1552.95	1.25
333.15	0.20482	1554.46	1.25
333.15	0.29486	1555.78	1.24
333.15	0.40279	1557.32	1.24
333.15	0.50856	1558.9	1.24
338.15	0.10176	1555.25	1.25
338.15	0.20482	1556.62	1.25
338.15	0.29486	1557.83	1.24
338.15	0.40279	1559.24	1.24
338.15	0.50856	1560.69	1.24
343.15	0.10176	1556.47	1.25
343.15	0.20482	1557.72	1.25
343.15	0.29486	1558.8	1.2
343.15	0.40279	1560.09	1.24
343.15	0.50856	1561.4	1.24

System: diethylene glycol + water; phases: Liquid
Fixed: Pressure, kPa = 98.3
Property: Mass density, kg/m3 (Liquid); method: Vibrating tube method
Temperature, K	Molality, mol/kg of diethylene glycol	Mass density, kg/m3	uncertainty
278.15	0.05114	1000.743	0.229
278.15	0.10253	1001.52	0.23
278.15	0.20492	1003.056	0.231
278.15	0.29724	1004.427	0.232
278.15	0.40633	1006.029	0.233
283.15	0.05114	1000.462	0.229
283.15	0.10253	1001.222	0.23
283.15	0.20492	1002.721	0.231
283.15	0.29724	1004.058	0.232
283.15	0.40633	1005.619	0.233
288.15	0.05114	999.849	0.229
288.15	0.10253	1000.593	0.229
288.15	0.20492	1002.061	0.23
288.15	0.29724	1003.369	0.231
288.15	0.40633	1004.895	0.232
293.15	0.05114	998.941	0.229
293.15	0.10253	999.67	0.229
293.15	0.20492	1001.113	0.229
293.15	0.29724	1002.394	0.23
293.15	0.40633	1003.891	0.232
298.15	0.05114	997.772	0.229
298.15	0.10253	998.489	0.229
298.15	0.20492	999.907	0.229
298.15	0.29724	1001.167	0.23
298.15	0.40633	1002.636	0.231
303.15	0.05114	996.365	0.229
303.15	0.10253	997.071	0.229
303.15	0.20492	998.466	0.229
303.15	0.29724	999.707	0.229
303.15	0.40633	1001.152	0.23
308.15	0.05114	994.74	0.229
308.15	0.10253	995.437	0.229
308.15	0.20492	996.813	0.229
308.15	0.29724	998.034	0.229
308.15	0.40633	999.457	0.229
313.15	0.05114	992.916	0.229
313.15	0.10253	993.604	0.229
313.15	0.20492	994.96	0.229
313.15	0.29724	996.164	0.229
313.15	0.40633	997.567	0.229
318.15	0.05114	990.905	0.229
318.15	0.10253	991.585	0.229
318.15	0.20492	992.924	0.229
318.15	0.29724	994.112	0.229
318.15	0.40633	995.495	0.229
323.15	0.05114	988.72	0.229
323.15	0.10253	989.393	0.229
323.15	0.20492	990.716	0.229
323.15	0.29724	991.889	0.229
323.15	0.40633	993.254	0.229
328.15	0.05114	986.371	0.229
328.15	0.10253	987.036	0.229
328.15	0.20492	988.343	0.229
328.15	0.29724	989.503	0.229
328.15	0.40633	990.852	0.229
333.15	0.05114	983.864	0.229
333.15	0.10253	984.525	0.229
333.15	0.20492	985.817	0.229
333.15	0.29724	986.963	0.229
333.15	0.40633	988.296	0.229
338.15	0.05114	981.213	0.229
338.15	0.10253	981.866	0.229
338.15	0.20492	983.145	0.229
338.15	0.29724	984.279	0.229
338.15	0.40633	985.595	0.229
343.15	0.05114	978.42	0.229
343.15	0.10253	979.067	0.229
343.15	0.20492	980.331	0.229
343.15	0.29724	981.454	0.229
343.15	0.40633	982.755	0.229

System: diethylene glycol + water; phases: Liquid
Fixed: Pressure, kPa = 98.3
Property: Speed of sound, m/s (Liquid); method: Sing-around technique in a fixed-path interferometer
Temperature, K	Molality, mol/kg of diethylene glycol	Speed of sound, m/s	uncertainty
278.15	0.05114	1430.06	1.23
278.15	0.10253	1433.67	1.23
278.15	0.20492	1440.62	1.23
278.15	0.29724	1446.92	1.23
278.15	0.40633	1454.36	1.23
283.15	0.05114	1450.72	1.23
283.15	0.10253	1454.05	1.23
283.15	0.20492	1460.39	1.24
283.15	0.29724	1466.18	1.24
283.15	0.40633	1472.97	1.24
288.15	0.05114	1469.07	1.24
288.15	0.10253	1472.12	1.24
288.15	0.20492	1478.02	1.24
288.15	0.29724	1483.3	1.24
288.15	0.40633	1489.53	1.24
293.15	0.05114	1485.2	1.24
293.15	0.10253	1488.04	1.24
293.15	0.20492	1493.47	1.24
293.15	0.29724	1498.43	1.24
293.15	0.40633	1504.05	1.24
298.15	0.05114	1499.38	1.24
298.15	0.10253	1501.98	1.24
298.15	0.20492	1507.01	1.24
298.15	0.29724	1511.53	1.25
298.15	0.40633	1516.73	1.25
303.15	0.05114	1511.66	1.25
303.15	0.10253	1514.06	1.25
303.15	0.20492	1518.71	1.25
303.15	0.29724	1522.85	1.25
303.15	0.40633	1527.63	1.25
308.15	0.05114	1522.21	1.25
308.15	0.10253	1524.41	1.25
308.15	0.20492	1528.68	1.25
308.15	0.29724	1532.49	1.25
308.15	0.40633	1536.91	1.25
313.15	0.05114	1531.13	1.25
313.15	0.10253	1533.15	1.25
313.15	0.20492	1537.1	1.25
313.15	0.29724	1540.62	1.25
313.15	0.40633	1544.69	1.25
318.15	0.05114	1538.56	1.25
318.15	0.10253	1540.43	1.25
318.15	0.20492	1544.07	1.25
318.15	0.29724	1547.3	1.25
318.15	0.40633	1551.01	1.25
323.15	0.05114	1544.58	1.25
323.15	0.10253	1546.3	1.25
323.15	0.20492	1549.63	1.25
323.15	0.29724	1552.58	1.25
323.15	0.40633	1555.99	1.25
328.15	0.05114	1549.27	1.25
328.15	0.10253	1550.84	1.25
328.15	0.20492	1553.89	1.25
328.15	0.29724	1556.58	1.25
328.15	0.40633	1559.7	1.26
333.15	0.05114	1552.73	1.25
333.15	0.10253	1554.17	1.25
333.15	0.20492	1556.94	1.25
333.15	0.29724	1559.4	1.26
333.15	0.40633	1562.24	1.26
338.15	0.05114	1555.04	1.25
338.15	0.10253	1556.35	1.25
338.15	0.20492	1558.86	1.26
338.15	0.29724	1561.09	1.26
338.15	0.40633	1563.66	1.26
343.15	0.05114	1556.26	1.25
343.15	0.10253	1557.44	1.26
343.15	0.20492	1559.73	1.26
343.15	0.29724	1561.73	1.26
343.15	0.40633	1564.05	1.26

System: triethylene glycol + water; phases: Liquid
Fixed: Pressure, kPa = 98.3
Property: Mass density, kg/m3 (Liquid); method: Vibrating tube method
Temperature, K	Molality, mol/kg of triethylene glycol	Mass density, kg/m3	uncertainty
278.15	0.05444	1001.214	0.23
278.15	0.10177	1002.295	0.23
278.15	0.20121	1004.531	0.232
278.15	0.30254	1006.774	0.234
278.15	0.40094	1008.917	0.236
283.15	0.05444	1000.922	0.229
283.15	0.10177	1001.977	0.23
283.15	0.20121	1004.153	0.232
283.15	0.30254	1006.338	0.234
283.15	0.40094	1008.423	0.235
288.15	0.05444	1000.298	0.229
288.15	0.10177	1001.329	0.23
288.15	0.20121	1003.456	0.231
288.15	0.30254	1005.59	0.233
288.15	0.40094	1007.625	0.235
293.15	0.05444	999.38	0.229
293.15	0.10177	1000.39	0.229
293.15	0.20121	1002.475	0.231
293.15	0.30254	1004.565	0.232
293.15	0.40094	1006.553	0.234
298.15	0.05444	998.2	0.229
298.15	0.10177	999.192	0.229
298.15	0.20121	1001.241	0.23
298.15	0.30254	1003.288	0.231
298.15	0.40094	1005.239	0.233
303.15	0.05444	996.785	0.229
303.15	0.10177	997.76	0.229
303.15	0.20121	999.776	0.229
303.15	0.30254	1001.787	0.23
303.15	0.40094	1003.7	0.232
308.15	0.05444	995.154	0.229
308.15	0.10177	996.109	0.229
308.15	0.20121	998.097	0.229
308.15	0.30254	1000.076	0.229
308.15	0.40094	1001.956	0.23
313.15	0.05444	993.322	0.229
313.15	0.10177	994.268	0.229
313.15	0.20121	996.223	0.229
313.15	0.30254	998.171	0.229
313.15	0.40094	1000.021	0.229
318.15	0.05444	991.307	0.229
318.15	0.10177	992.24	0.229
318.15	0.20121	994.166	0.229
318.15	0.30254	996.086	0.229
318.15	0.40094	997.909	0.229
323.15	0.05444	989.117	0.229
323.15	0.10177	990.037	0.229
323.15	0.20121	991.939	0.229
323.15	0.30254	993.832	0.229
323.15	0.40094	995.628	0.229
328.15	0.05444	986.763	0.229
328.15	0.10177	987.673	0.229
328.15	0.20121	989.548	0.229
328.15	0.30254	991.417	0.229
328.15	0.40094	993.188	0.229
333.15	0.05444	984.253	0.229
333.15	0.10177	985.152	0.229
333.15	0.20121	987.006	0.229
333.15	0.30254	988.85	0.229
333.15	0.40094	990.597	0.229
338.15	0.05444	981.597	0.229
338.15	0.10177	982.485	0.229
338.15	0.20121	984.316	0.229
338.15	0.30254	986.139	0.229
338.15	0.40094	987.864	0.229
343.15	0.05444	978.8	0.229
343.15	0.10177	979.677	0.229
343.15	0.20121	981.488	0.229
343.15	0.30254	983.288	0.229
343.15	0.40094	984.994	0.229

System: triethylene glycol + water; phases: Liquid
Fixed: Pressure, kPa = 98.3
Property: Speed of sound, m/s (Liquid); method: Sing-around technique in a fixed-path interferometer
Temperature, K	Molality, mol/kg of triethylene glycol	Speed of sound, m/s	uncertainty
278.15	0.05444	1432.02	1.23
278.15	0.10177	1436.73	1.23
278.15	0.20121	1447.42	1.23
278.15	0.30254	1457.55	1.23
278.15	0.40094	1467.09	1.24
283.15	0.05444	1452.54	1.23
283.15	0.10177	1456.92	1.23
283.15	0.20121	1466.65	1.24
283.15	0.30254	1475.96	1.24
283.15	0.40094	1484.76	1.24
288.15	0.05444	1470.81	1.24
288.15	0.10177	1474.88	1.24
288.15	0.20121	1483.73	1.24
288.15	0.30254	1492.31	1.24
288.15	0.40094	1500.42	1.24
293.15	0.05444	1486.86	1.24
293.15	0.10177	1490.64	1.24
293.15	0.20121	1498.77	1.24
293.15	0.30254	1506.63	1.24
293.15	0.40094	1514.13	1.25
298.15	0.05444	1500.95	1.24
298.15	0.10177	1504.46	1.24
298.15	0.20121	1511.85	1.25
298.15	0.30254	1519.15	1.25
298.15	0.40094	1526.01	1.25
303.15	0.05444	1513.13	1.25
303.15	0.10177	1516.4	1.25
303.15	0.20121	1523.13	1.25
303.15	0.30254	1529.86	1.25
303.15	0.40094	1536.23	1.25
308.15	0.05444	1523.55	1.25
308.15	0.10177	1526.61	1.25
308.15	0.20121	1532.75	1.25
308.15	0.30254	1538.97	1.25
308.15	0.40094	1544.84	1.25
313.15	0.05444	1532.37	1.25
313.15	0.10177	1535.08	1.25
313.15	0.20121	1540.85	1.25
313.15	0.30254	1546.57	1.25
313.15	0.40094	1551.93	1.25
318.15	0.05444	1539.71	1.25
318.15	0.10177	1542.17	1.25
318.15	0.20121	1547.5	1.25
318.15	0.30254	1552.73	1.25
318.15	0.40094	1557.65	1.26
323.15	0.05444	1545.64	1.25
323.15	0.10177	1547.9	1.25
323.15	0.20121	1552.76	1.25
323.15	0.30254	1557.55	1.26
323.15	0.40094	1562.05	1.26
328.15	0.05444	1550.24	1.25
328.15	0.10177	1552.32	1.25
328.15	0.20121	1556.74	1.25
328.15	0.30254	1561.12	1.26
328.15	0.40094	1565.22	1.26
333.15	0.05444	1553.61	1.25
333.15	0.10177	1555.5	1.25
333.15	0.20121	1559.53	1.26
333.15	0.30254	1563.51	1.26
333.15	0.40094	1567.26	1.26
338.15	0.05444	1555.83	1.25
338.15	0.10177	1557.54	1.26
338.15	0.20121	1561.19	1.26
338.15	0.30254	1564.81	1.26
338.15	0.40094	1568.19	1.26
343.15	0.05444	1556.98	1.25
343.15	0.10177	1558.51	1.26
343.15	0.20121	1561.81	1.26
343.15	0.30254	1565.08	1.26
343.15	0.40094	1568.12	1.26

System: tetraethylene glycol + water; phases: Liquid
Fixed: Pressure, kPa = 98.3
Property: Mass density, kg/m3 (Liquid); method: Vibrating tube method
Temperature, K	Molality, mol/kg of tetraethylene glycol	Mass density, kg/m3	uncertainty
278.15	0.05057	1001.512	0.23
278.15	0.09657	1002.908	0.231
278.15	0.20275	1006.066	0.233
278.15	0.29494	1008.751	0.235
278.15	0.39882	1011.705	0.238
283.15	0.05057	1001.211	0.23
283.15	0.09657	1002.569	0.231
283.15	0.20275	1005.646	0.233
283.15	0.29494	1008.258	0.235
283.15	0.39882	1011.13	0.237
288.15	0.05057	1000.579	0.229
288.15	0.09657	1001.907	0.23
288.15	0.20275	1004.912	0.232
288.15	0.29494	1007.461	0.234
288.15	0.39882	1010.263	0.237
293.15	0.05057	999.656	0.229
293.15	0.09657	1000.956	0.229
293.15	0.20275	1003.897	0.232
293.15	0.29494	1006.391	0.234
293.15	0.39882	1009.131	0.236
298.15	0.05057	998.473	0.229
298.15	0.09657	999.749	0.229
298.15	0.20275	1002.634	0.231
298.15	0.29494	1005.077	0.233
298.15	0.39882	1007.763	0.235
303.15	0.05057	997.053	0.229
303.15	0.09657	998.308	0.229
303.15	0.20275	1001.143	0.23
303.15	0.29494	1003.542	0.231
303.15	0.39882	1006.176	0.234
308.15	0.05057	995.418	0.229
308.15	0.09657	996.652	0.229
308.15	0.20275	999.442	0.229
308.15	0.29494	1001.799	0.23
308.15	0.39882	1004.387	0.232
313.15	0.05057	993.583	0.229
313.15	0.09657	994.8	0.229
313.15	0.20275	997.545	0.229
313.15	0.29494	999.865	0.229
313.15	0.39882	1002.41	0.231
318.15	0.05057	991.562	0.229
318.15	0.09657	992.762	0.229
318.15	0.20275	995.468	0.229
318.15	0.29494	997.752	0.229
318.15	0.39882	1000.258	0.229
323.15	0.05057	989.37	0.229
323.15	0.09657	990.553	0.229
323.15	0.20275	993.222	0.229
323.15	0.29494	995.473	0.229
323.15	0.39882	997.941	0.229
328.15	0.05057	987.012	0.229
328.15	0.09657	988.18	0.229
328.15	0.20275	990.813	0.229
328.15	0.29494	993.034	0.229
328.15	0.39882	995.466	0.229
333.15	0.05057	984.5	0.229
333.15	0.09657	985.653	0.229
333.15	0.20275	988.252	0.229
333.15	0.29494	990.444	0.229
333.15	0.39882	992.843	0.229
338.15	0.05057	981.841	0.229
338.15	0.09657	982.979	0.229
338.15	0.20275	985.547	0.229
338.15	0.29494	987.711	0.229
338.15	0.39882	990.078	0.229
343.15	0.05057	979.04	0.229
343.15	0.09657	980.165	0.229
343.15	0.20275	982.702	0.229
343.15	0.29494	984.84	0.229
343.15	0.39882	987.177	0.229

System: tetraethylene glycol + water; phases: Liquid
Fixed: Pressure, kPa = 98.3
Property: Speed of sound, m/s (Liquid); method: Sing-around technique in a fixed-path interferometer
Temperature, K	Molality, mol/kg of tetraethylene glycol	Speed of sound, m/s	uncertainty
278.15	0.05057	1433.47	1.23
278.15	0.09657	1439.46	1.23
278.15	0.20275	1453.81	1.23
278.15	0.29494	1465.78	1.24
278.15	0.39882	1479.4	1.24
283.15	0.05057	1453.82	1.23
283.15	0.09657	1459.54	1.23
283.15	0.20275	1472.59	1.24
283.15	0.29494	1483.61	1.24
283.15	0.39882	1496.04	1.24
288.15	0.05057	1471.96	1.24
288.15	0.09657	1477.25	1.24
288.15	0.20275	1489.26	1.24
288.15	0.29494	1499.4	1.24
288.15	0.39882	1510.74	1.25
293.15	0.05057	1487.87	1.24
293.15	0.09657	1492.78	1.24
293.15	0.20275	1503.93	1.24
293.15	0.29494	1513.24	1.25
293.15	0.39882	1523.55	1.25
298.15	0.05057	1501.84	1.24
298.15	0.09657	1506.37	1.24
298.15	0.20275	1516.64	1.25
298.15	0.29494	1525.24	1.25
298.15	0.39882	1534.66	1.25
303.15	0.05057	1513.95	1.25
303.15	0.09657	1518.13	1.25
303.15	0.20275	1527.55	1.25
303.15	0.29494	1535.48	1.25
303.15	0.39882	1544.14	1.25
308.15	0.05057	1524.3	1.25
308.15	0.09657	1528.15	1.25
308.15	0.20275	1536.84	1.25
308.15	0.29494	1544.14	1.25
308.15	0.39882	1552.06	1.25
313.15	0.05057	1533.06	1.25
313.15	0.09657	1536.54	1.25
313.15	0.20275	1544.61	1.25
313.15	0.29494	1551.28	1.25
313.15	0.39882	1558.57	1.26
318.15	0.05057	1540.34	1.25
318.15	0.09657	1543.55	1.25
318.15	0.20275	1550.93	1.25
318.15	0.29494	1557.04	1.26
318.15	0.39882	1563.72	1.26
323.15	0.05057	1546.22	1.25
323.15	0.09657	1549.17	1.25
323.15	0.20275	1555.9	1.25
323.15	0.29494	1561.49	1.26
323.15	0.39882	1567.58	1.26
328.15	0.05057	1550.77	1.25
328.15	0.09657	1553.47	1.25
328.15	0.20275	1559.6	1.26
328.15	0.29494	1564.7	1.26
328.15	0.39882	1570.24	1.26
333.15	0.05057	1554.12	1.25
333.15	0.09657	1556.57	1.25
333.15	0.20275	1562.13	1.26
333.15	0.29494	1566.77	1.26
333.15	0.39882	1571.79	1.26
338.15	0.05057	1556.29	1.25
338.15	0.09657	1558.51	1.26
338.15	0.20275	1563.54	1.26
338.15	0.29494	1567.73	1.26
338.15	0.39882	1572.26	1.26
343.15	0.05057	1557.42	1.26
343.15	0.09657	1559.39	1.26
343.15	0.20275	1563.91	1.26
343.15	0.29494	1567.65	1.26
343.15	0.39882	1571.71	1.26
