Measured thermophysical data. Binary Mixtures of Sodium Salt of Ibuprofen and Selected Bile Salts: Interface, Micellar, Thermodynamic, and Spectroscopic Study
Source: J. Chem. Eng. Data, 2017, 10.1021/acs.jced.7b00298
Compound 1: water, H2O, InChI=1S/H2O/h1H2
Compound 2: sodium ibuprofen, C13H17NaO2, InChI=1S/C13H18O2.Na/c1-9(2)8-11-4-6-12(7-5-11)10(3)13(14)15;/h4-7,9-10H,8H2,1-3H3,(H,14,15);/q;+1/p-1, purity 98%
Compound 3: sodium cholate, C24H39NaO5, InChI=1S/C24H40O5.Na/c1-13(4-7-21(28)29)16-5-6-17-22-18(12-20(27)24(16,17)3)23(2)9-8-15(25)10-14(23)11-19(22)26;/h13-20,22,25-27H,4-12H2,1-3H3,(H,28,29);/q;+1/p-1/t13-,14+,15-,16-,17+,18+,19-,20+,22+,23+,24-;/m1./s1, purity 99%
Compound 4: sodium deoxycholate, C24H39NaO4, InChI=1S/C24H40O4.Na/c1-14(4-9-22(27)28)18-7-8-19-17-6-5-15-12-16(25)10-11-23(15,2)20(17)13-21(26)24(18,19)3;/h14-21,25-26H,4-13H2,1-3H3,(H,27,28);/q;+1/p-1/t14-,15-,16-,17+,18-,19+,20+,21+,23+,24-;/m1./s1, purity 97%
Compound 5: sodium chloride, ClNa, InChI=1S/ClH.Na/h1H;/q;+1/p-1, purity 98%

System: sodium cholate + water + sodium ibuprofen; phases: Liquid, Air at 1 atmosphere
Fixed: Temperature, K = 298.15
Property: Surface tension liquid-gas, N/m (Liquid); method: Ring tensiometer
Molality, mol/kg of sodium ibuprofen	Molality, mol/kg of sodium cholate	Surface tension liquid-gas, N/m	uncertainty
0.00087	0.00022	0.05955	0.00124
0.00139	0.00035	0.05743	0.00122
0.00182	0.00045	0.05605	0.00121
0.00246	0.00062	0.05427	0.0012
0.00334	0.00084	0.05239	0.00119
0.00417	0.00104	0.05056	0.00118
0.00538	0.00134	0.04895	0.00117
0.00666	0.00166	0.04738	0.00117
0.00832	0.00208	0.04598	0.00116
0.0109	0.00272	0.04421	0.00115
0.014	0.0035	0.04242	0.00114
0.0178	0.00446	0.04088	0.00112
0.021	0.00526	0.04002	0.00112
0.0246	0.00614	0.03929	0.00112
0.0307	0.00768	0.03845	0.00111
0.0359	0.00898	0.03845	0.00114
0.0402	0.01	0.0385	0.00123
0.0444	0.0111	0.03845	0.00111
0.051	0.0128	0.03845	0.00111
0.00063	0.00042	0.0575	0.00121
0.00089	0.0006	0.05586	0.00121
0.00117	0.00078	0.05388	0.0012
0.00146	0.00098	0.05275	0.00121
0.00218	0.00145	0.04968	0.00118
0.00285	0.0019	0.04808	0.00117
0.00392	0.00261	0.04569	0.00116
0.00531	0.00354	0.04371	0.00115
0.00696	0.00464	0.04169	0.00113
0.00924	0.00616	0.04054	0.00114
0.0111	0.0074	0.03939	0.00114
0.0131	0.00876	0.03942	0.00116
0.0154	0.0103	0.03944	0.00116
0.0184	0.0123	0.03939	0.00116
0.00039	0.00059	0.0578	0.00123
0.00053	0.0008	0.05571	0.00124
0.0007	0.00106	0.0543	0.00133
0.00092	0.00137	0.05253	0.00123
0.00126	0.00189	0.05059	0.00121
0.00174	0.0026	0.04851	0.00119
0.00242	0.00364	0.04651	0.00119
0.00316	0.00475	0.04491	0.00115
0.00381	0.00572	0.04375	0.00114
0.00452	0.00678	0.04309	0.00114
0.00552	0.00828	0.04247	0.00113
0.00648	0.00972	0.04244	0.00113
0.00748	0.0112	0.04247	0.00113
0.0084	0.0126	0.04251	0.00114
9e-05	0.00038	0.05433	0.0012
0.00016	0.00065	0.05216	0.0012
0.00025	0.00102	0.05017	0.00117
0.00041	0.00163	0.04808	0.00117
0.00061	0.00243	0.04636	0.00118
0.00081	0.00325	0.04515	0.00115
0.00114	0.00458	0.04369	0.00115
0.00153	0.00612	0.04246	0.00114
0.00193	0.00774	0.04186	0.00114
0.00248	0.00992	0.04192	0.00113
0.00296	0.0118	0.04191	0.00113
0.00364	0.0146	0.04189	0.00113
0.00426	0.017	0.04192	0.00113
0	0.00149	0.05548	0.0012
0	0.00232	0.05265	0.00121
0	0.00357	0.05	0.0012
0	0.00441	0.0485	0.0012
0	0.00523	0.047	0.0012
0	0.00682	0.046	0.0012
0	0.00758	0.04525	0.00118
0	0.00833	0.0445	0.00117
0	0.00914	0.04396	0.00115
0	0.00978	0.04375	0.00114
0	0.0112	0.0437	0.00113
0	0.0131	0.04378	0.00114
0	0.0142	0.0438	0.00114
0	0.0173	0.04375	0.00113
0	0.0184	0.04376	0.00113

System: sodium chloride + water + sodium ibuprofen; phases: Liquid, Air at 1 atmosphere
Fixed: Solvent: Molality, mol/kg of sodium chloride = 0.1
Fixed: Temperature, K = 298.15
Property: Surface tension liquid-gas, N/m (Liquid); method: Ring tensiometer
Molality, mol/kg of sodium ibuprofen	Surface tension liquid-gas, N/m	uncertainty
0.0146	0.05707	0.00134
0.0203	0.05305	0.00131
0.0285	0.04955	0.00128
0.0385	0.04638	0.00129
0.0476	0.04351	0.00128
0.061	0.04039	0.00125
0.0741	0.03824	0.00121
0.0909	0.03627	0.00122
0.107	0.03411	0.00121
0.122	0.03286	0.00119
0.142	0.03103	0.00114
0.177	0.02981	0.00111
0.198	0.02973	0.00109
0.218	0.0297	0.00109
0.245	0.02973	0.00109

System: sodium cholate + sodium chloride + water; phases: Liquid, Air at 1 atmosphere
Fixed: Solvent: Molality, mol/kg of sodium chloride = 0.1
Fixed: Temperature, K = 298.15
Property: Surface tension liquid-gas, N/m (Liquid); method: Ring tensiometer
Molality, mol/kg of sodium cholate	Surface tension liquid-gas, N/m	uncertainty
0.0004	0.05889	0.00126
0.00116	0.05626	0.00125
0.00156	0.05419	0.00126
0.00221	0.05155	0.00125
0.00296	0.04926	0.00123
0.00392	0.0471	0.00122
0.00511	0.04494	0.00119
0.00674	0.04379	0.00116
0.00765	0.04383	0.00116
0.00873	0.04383	0.00116
0.00999	0.04387	0.00116

System: sodium deoxycholate + water + sodium ibuprofen; phases: Liquid, Air at 1 atmosphere
Fixed: Temperature, K = 298.15
Property: Surface tension liquid-gas, N/m (Liquid); method: Ring tensiometer
Molality, mol/kg of sodium ibuprofen	Molality, mol/kg of sodium deoxycholate	Surface tension liquid-gas, N/m	uncertainty
0.00038	0.0001	0.05508	0.0012
0.00054	0.00013	0.05355	0.0012
0.0007	0.00017	0.05234	0.00118
0.00093	0.00023	0.05093	0.00119
0.00122	0.0003	0.04975	0.00118
0.00157	0.00039	0.04872	0.00118
0.00193	0.00048	0.04765	0.00118
0.00258	0.00064	0.0463	0.00116
0.00334	0.00084	0.04506	0.00115
0.00434	0.00109	0.0439	0.00115
0.00544	0.00136	0.04289	0.00114
0.0073	0.00183	0.04188	0.00113
0.00888	0.00222	0.04116	0.00112
0.00992	0.00248	0.04114	0.00112
0.0125	0.00312	0.04112	0.00122
0.015	0.00374	0.04116	0.00128
0.00037	0.00024	0.05423	0.0012
0.0005	0.00034	0.05252	0.00119
0.00069	0.00046	0.05103	0.00118
0.00092	0.00061	0.04931	0.00117
0.00118	0.00078	0.04802	0.00117
0.00141	0.00094	0.04705	0.00116
0.00174	0.00116	0.04596	0.00115
0.00215	0.00144	0.04474	0.00115
0.00256	0.00171	0.04369	0.00114
0.00323	0.00215	0.04247	0.00113
0.0038	0.00253	0.04179	0.00113
0.00462	0.00308	0.04123	0.00113
0.00523	0.00348	0.04125	0.00112
0.0058	0.00386	0.04127	0.00112
0.0066	0.0044	0.04125	0.00112
0.00024	0.00035	0.05209	0.00119
0.0003	0.00044	0.05095	0.00122
0.00039	0.00059	0.04929	0.00118
0.00053	0.00079	0.04782	0.00118
0.00066	0.00098	0.04653	0.00115
0.00081	0.00122	0.04539	0.00115
0.00097	0.00145	0.04443	0.00115
0.00115	0.00172	0.04353	0.00113
0.00138	0.00208	0.04244	0.00113
0.00167	0.00251	0.04188	0.00113
0.00222	0.00332	0.04147	0.00113
0.00273	0.0041	0.04147	0.00113
0.00322	0.00482	0.04149	0.00113
0.00364	0.00545	0.04149	0.00113
5e-05	0.00019	0.05295	0.00119
7e-05	0.0003	0.05122	0.00119
0.00011	0.00046	0.04959	0.00118
0.00017	0.0007	0.04797	0.00116
0.00026	0.00104	0.04637	0.00116
0.00036	0.00143	0.04519	0.00115
0.00049	0.00196	0.04403	0.00115
0.0006	0.00242	0.04341	0.00115
0.00077	0.00308	0.04303	0.00116
0.00095	0.00381	0.04301	0.00115
0.00113	0.00453	0.04303	0.00115
0.00131	0.00523	0.04302	0.00115
0.00148	0.00593	0.04302	0.00115
0.00169	0.00675	0.04303	0.00115
0	0.00039	0.0534	0.00119
0	0.00066	0.05	0.0012
0	0.00092	0.04762	0.00118
0	0.00124	0.0458	0.00118
0	0.00154	0.04426	0.00117
0	0.0019	0.04301	0.00116
0	0.00214	0.04205	0.00117
0	0.00243	0.04109	0.00116
0	0.00267	0.04052	0.00114
0	0.00296	0.03991	0.00115
0	0.00319	0.03934	0.00112
0	0.00391	0.03908	0.00111
0	0.00471	0.03905	0.00111
0	0.00547	0.039	0.00111
0	0.00596	0.0391	0.00111
0	0.00667	0.03901	0.00111

System: sodium deoxycholate + sodium chloride + water; phases: Liquid, Air at 1 atmosphere
Fixed: Solvent: Molality, mol/kg of sodium chloride = 0.1
Fixed: Temperature, K = 298.15
Property: Surface tension liquid-gas, N/m (Liquid); method: Ring tensiometer
Molality, mol/kg of sodium deoxycholate	Surface tension liquid-gas, N/m	uncertainty
0.00015	0.05293	0.00127
0.00036	0.05085	0.00126
0.00049	0.04971	0.00125
0.00073	0.04775	0.00124
0.00104	0.04607	0.00123
0.00143	0.04463	0.00122
0.00176	0.04356	0.00121
0.00228	0.04259	0.00119
0.00277	0.04206	0.00119
0.00314	0.04208	0.00118
0.00375	0.04208	0.00118
0.00433	0.0421	0.00118

System: sodium cholate + water; phases: Liquid, Air at 1 atmosphere
Fixed: Temperature, K = 298.15
Property: Surface tension liquid-gas, N/m (Liquid); method: Ring tensiometer
Molality, mol/kg of sodium cholate	Surface tension liquid-gas, N/m	uncertainty
0.00149	0.05548	0.00122
0.00232	0.05265	0.00121
0.00357	0.05	0.0012
0.00441	0.0485	0.0012
0.00523	0.047	0.0012
0.00682	0.046	0.0012
0.00758	0.04525	0.00118
0.00833	0.0445	0.00117
0.00914	0.04396	0.00115
0.00978	0.04375	0.00114
0.0112	0.0437	0.00113
0.0131	0.04378	0.00114
0.0142	0.0438	0.00114
0.0173	0.04375	0.00113
0.0184	0.04376	0.00113

System: sodium deoxycholate + water; phases: Liquid, Air at 1 atmosphere
Fixed: Temperature, K = 298.15
Property: Surface tension liquid-gas, N/m (Liquid); method: Ring tensiometer
Molality, mol/kg of sodium deoxycholate	Surface tension liquid-gas, N/m	uncertainty
0.00039	0.0534	0.0012
0.00066	0.05	0.0012
0.00092	0.04762	0.00118
0.00124	0.0458	0.00118
0.00154	0.04426	0.00117
0.0019	0.04301	0.00116
0.00214	0.04205	0.00117
0.00243	0.04109	0.00116
0.00267	0.04052	0.00114
0.00296	0.03991	0.00115
0.00319	0.03934	0.00112
0.00391	0.03908	0.00111
0.00471	0.03905	0.00111
0.00547	0.039	0.00111
0.00596	0.0391	0.00111
0.00667	0.03901	0.00111
