Measured thermophysical data. Quantitative Raman Spectroscopic Measurements of CO2 Solubility in NaCl Solution from (273.15 to 473.15) K at p = (10.0, 20.0, 30.0, and 40.0) MPa
Source: J. Chem. Eng. Data, 2016, 10.1021/acs.jced.5b00651
Compound 1: carbon dioxide, CO2, InChI=1S/CO2/c2-1-3, purity 99.99%
Compound 2: water, H2O, InChI=1S/H2O/h1H2, purity 99.9%
Compound 3: sodium chloride, ClNa, InChI=1S/ClH.Na/h1H;/q;+1/p-1, purity 99.95%

System: carbon dioxide + sodium chloride + water; phases: Liquid mixture 1, Fluid (supercritical or subcritical phases)
Property: Molality, mol/kg of carbon dioxide (Liquid mixture 1); method: Raman spectroscopy
Pressure, kPa	Temperature, K	Solvent: Molality, mol/kg of sodium chloride	Molality, mol/kg of carbon dioxide	uncertainty
10000	273.15	1	1.465	0.036
10000	278.15	1	1.405	0.038
10000	283.15	1	1.334	0.034
10000	288.15	1	1.267	0.036
10000	293.15	1	1.208	0.034
10000	298.15	1	1.162	0.032
10000	313.15	1	1.024	0.032
10000	333.15	1	0.854	0.024
10000	353.15	1	0.74	0.022
10000	373.15	1	0.658	0.016
10000	393.15	1	0.613	0.022
10000	413.15	1	0.592	0.02
10000	433.15	1	0.569	0.016
10000	453.15	1	0.551	0.014
10000	473.15	1	0.547	0.018
10000	273.15	3	1.007	0.025
10000	278.15	3	0.953	0.022
10000	283.15	3	0.912	0.024
10000	288.15	3	0.876	0.02
10000	293.15	3	0.842	0.022
10000	298.15	3	0.795	0.024
10000	313.15	3	0.702	0.018
10000	333.15	3	0.597	0.014
10000	353.15	3	0.517	0.014
10000	373.15	3	0.467	0.014
10000	393.15	3	0.433	0.014
10000	413.15	3	0.417	0.014
10000	433.15	3	0.4	0.01
10000	453.15	3	0.401	0.012
10000	473.15	3	0.402	0.018
10000	273.15	5	0.706	0.018
10000	278.15	5	0.669	0.018
10000	283.15	5	0.646	0.016
10000	288.15	5	0.632	0.016
10000	293.15	5	0.618	0.018
10000	298.15	5	0.597	0.018
10000	313.15	5	0.554	0.014
10000	333.15	5	0.491	0.014
10000	353.15	5	0.429	0.012
10000	373.15	5	0.39	0.01
10000	393.15	5	0.368	0.014
10000	413.15	5	0.345	0.01
10000	433.15	5	0.336	0.016
10000	453.15	5	0.33	0.014
10000	473.15	5	0.313	0.012
20000	273.15	1	1.604	0.044
20000	278.15	1	1.509	0.042
20000	283.15	1	1.422	0.036
20000	288.15	1	1.347	0.05
20000	293.15	1	1.27	0.034
20000	298.15	1	1.223	0.032
20000	313.15	1	1.102	0.03
20000	333.15	1	1.009	0.03
20000	353.15	1	0.948	0.028
20000	373.15	1	0.937	0.026
20000	393.15	1	0.926	0.034
20000	413.15	1	0.935	0.028
20000	433.15	1	0.952	0.026
20000	453.15	1	0.99	0.01
20000	473.15	1	1.029	0.032
20000	273.15	3	1.089	0.027
20000	278.15	3	1.042	0.024
20000	283.15	3	0.99	0.011
20000	288.15	3	0.955	0.022
20000	293.15	3	0.885	0.022
20000	298.15	3	0.852	0.026
20000	313.15	3	0.768	0.02
20000	333.15	3	0.723	0.02
20000	353.15	3	0.695	0.018
20000	373.15	3	0.681	0.018
20000	393.15	3	0.671	0.018
20000	413.15	3	0.682	0.018
20000	433.15	3	0.683	0.018
20000	453.15	3	0.693	0.02
20000	473.15	3	0.722	0.018
20000	273.15	5	0.743	0.02
20000	278.15	5	0.718	0.016
20000	283.15	5	0.686	0.016
20000	288.15	5	0.675	0.016
20000	293.15	5	0.652	0.018
20000	298.15	5	0.645	0.02
20000	313.15	5	0.613	0.018
20000	333.15	5	0.571	0.014
20000	353.15	5	0.553	0.016
20000	373.15	5	0.547	0.016
20000	393.15	5	0.533	0.016
20000	413.15	5	0.535	0.022
20000	433.15	5	0.537	0.012
20000	453.15	5	0.541	0.016
20000	473.15	5	0.553	0.012
30000	273.15	3	1.167	0.028
30000	278.15	3	1.11	0.028
30000	283.15	3	1.058	0.026
30000	288.15	3	1.019	0.024
30000	293.15	3	0.982	0.018
30000	298.15	3	0.944	0.026
30000	313.15	3	0.843	0.022
30000	333.15	3	0.805	0.024
30000	353.15	3	0.781	0.02
30000	373.15	3	0.764	0.022
30000	393.15	3	0.786	0.02
30000	413.15	3	0.805	0.02
30000	433.15	3	0.846	0.022
30000	453.15	3	0.896	0.022
30000	473.15	3	0.945	0.032
30000	273.15	1	1.672	0.04
30000	278.15	1	1.588	0.044
30000	283.15	1	1.503	0.036
30000	288.15	1	1.422	0.04
30000	293.15	1	1.364	0.036
30000	298.15	1	1.313	0.034
30000	313.15	1	1.189	0.032
30000	333.15	1	1.107	0.032
30000	353.15	1	1.084	0.03
30000	373.15	1	1.075	0.028
30000	393.15	1	1.105	0.036
30000	413.15	1	1.16	0.034
30000	433.15	1	1.23	0.032
30000	453.15	1	1.304	0.034
30000	473.15	1	1.385	0.044
30000	273.15	5	0.796	0.018
30000	278.15	5	0.767	0.02
30000	283.15	5	0.737	0.018
30000	288.15	5	0.711	0.016
30000	293.15	5	0.7	0.018
30000	298.15	5	0.687	0.018
30000	313.15	5	0.647	0.016
30000	333.15	5	0.626	0.018
30000	353.15	5	0.612	0.016
30000	373.15	5	0.618	0.016
30000	393.15	5	0.633	0.018
30000	413.15	5	0.657	0.018
30000	433.15	5	0.675	0.016
30000	453.15	5	0.701	0.018
30000	473.15	5	0.728	0.018
40000	273.15	1	1.755	0.043
40000	278.15	1	1.659	0.046
40000	283.15	1	1.569	0.038
40000	288.15	1	1.492	0.042
40000	293.15	1	1.429	0.036
40000	298.15	1	1.394	0.036
40000	313.15	1	1.27	0.036
40000	333.15	1	1.19	0.034
40000	353.15	1	1.165	0.032
40000	373.15	1	1.177	0.03
40000	393.15	1	1.228	0.042
40000	413.15	1	1.313	0.038
40000	433.15	1	1.425	0.038
40000	453.15	1	1.54	0.041
40000	473.15	1	1.691	0.053
40000	273.15	3	1.181	0.029
40000	278.15	3	1.115	0.026
40000	283.15	3	1.068	0.026
40000	288.15	3	1.023	0.024
40000	293.15	3	0.996	0.005
40000	298.15	3	0.969	0.03
40000	313.15	3	0.92	0.022
40000	333.15	3	0.862	0.022
40000	353.15	3	0.852	0.022
40000	373.15	3	0.821	0.02
40000	393.15	3	0.867	0.026
40000	413.15	3	0.905	0.028
40000	433.15	3	0.966	0.022
40000	453.15	3	1.038	0.026
40000	473.15	3	1.122	0.045
40000	273.15	5	0.822	0.02
40000	278.15	5	0.801	0.02
40000	283.15	5	0.776	0.02
40000	288.15	5	0.763	0.02
40000	293.15	5	0.743	0.018
40000	298.15	5	0.73	0.02
40000	313.15	5	0.703	0.018
40000	333.15	5	0.679	0.022
40000	353.15	5	0.671	0.016
40000	373.15	5	0.68	0.02
40000	393.15	5	0.709	0.018
40000	413.15	5	0.731	0.02
40000	433.15	5	0.759	0.018
40000	453.15	5	0.806	0.022
40000	473.15	5	0.852	0.02
