Measured thermophysical data. Salting-out Effect of Ionic Liquid, 1-Butyl-3-methyl Imidazolium Chloride on Aqueous d-Fructose or Sucrose Solutions at T = 298.15 K: Vapor-Liquid Equilibrium Study
Source: J. Chem. Eng. Data, 2018, 10.1021/acs.jced.7b00682
Compound 1: 1-butyl-3-methylimidazolium chloride, C8H15ClN2, InChI=1S/C8H15N2.ClH/c1-3-4-5-10-7-6-9(2)8-10;/h6-8H,3-5H2,1-2H3;1H/q+1;/p-1
Compound 2: D-fructose, C6H12O6, InChI=1S/C6H12O6/c7-1-3(9)5(11)6(12)4(10)2-8/h3,5-9,11-12H,1-2H2/t3-,5-,6-/m1/s1, purity 99.5%
Compound 3: D-sucrose, C12H22O11, InChI=1S/C12H22O11/c13-1-4-6(16)8(18)9(19)11(21-4)23-12(3-15)10(20)7(17)5(2-14)22-12/h4-11,13-20H,1-3H2/t4-,5-,6-,7-,8+,9-,10+,11-,12+/m1/s1, purity 99.5%
Compound 4: water, H2O, InChI=1S/H2O/h1H2, purity 99.8%

System: 1-butyl-3-methylimidazolium chloride + water; phases: Liquid
Fixed: Pressure, kPa = 85
Fixed: Temperature, K = 298.15
Property: (Relative) activity of water (Liquid); method: ISOPIE
Molality, mol/kg of 1-butyl-3-methylimidazolium chloride	(Relative) activity of water	uncertainty
0.339	0.9902	0.0387
0.376	0.9891	0.0387
0.401	0.9886	0.0387
0.413	0.9884	0.0387
0.441	0.9875	0.0387
0.469	0.9867	0.0387
0.474	0.9865	0.0387
0.499	0.9857	0.0387
0.544	0.9844	0.0387
0.656	0.9813	0.0387
0.7065	0.98015	0.03874
0.741	0.9791	0.0387

System: D-fructose + 1-butyl-3-methylimidazolium chloride + water; phases: Liquid
Fixed: Pressure, kPa = 85
Fixed: Temperature, K = 298.15
Property: (Relative) activity of water (Liquid); method: ISOPIE
Molality, mol/kg of 1-butyl-3-methylimidazolium chloride	Molality, mol/kg of D-fructose	(Relative) activity of water	uncertainty
0.376	0	0.9891	0.0387
0.293	0.127	0.9891	0.0387
0.163	0.338	0.9891	0.0387
0	0.6021	0.9891	0.0387
0.441	0	0.9875	0.0387
0.338	0.1464	0.9875	0.0387
0.185	0.3846	0.9875	0.0387
0	0.6814	0.9875	0.0387
0.469	0	0.9867	0.0387
0.361	0.1563	0.9867	0.0387
0.197	0.4097	0.9867	0.0387
0	0.7238	0.9867	0.0387
0.474	0	0.9865	0.0387
0.364	0.1576	0.9865	0.0387
0.202	0.42	0.9865	0.0387
0	0.7424	0.9865	0.0387
0.478	0	0.9864	0.0387
0.367	0.1589	0.9864	0.0387
0.203	0.422	0.9864	0.0387
0	0.7478	0.9864	0.0387
0.499	0	0.9857	0.0387
0.401	0.1736	0.9857	0.0387
0.216	0.4489	0.9857	0.0387
0	0.7776	0.9857	0.0387
0.656	0	0.9813	0.0387
0.503	0.2177	0.9813	0.0387
0.275	0.5719	0.9813	0.0387
0	1.0121	0.9813	0.0387
0.707	0	0.9801	0.0387
0.516	0.2838	0.9801	0.0387
0.3	0.6239	0.9801	0.0387
0	1.058	0.9801	0.0387

System: D-sucrose + 1-butyl-3-methylimidazolium chloride + water; phases: Liquid
Fixed: Pressure, kPa = 85
Fixed: Temperature, K = 298.15
Property: (Relative) activity of water (Liquid); method: ISOPIE
Molality, mol/kg of 1-butyl-3-methylimidazolium chloride	Molality, mol/kg of D-sucrose	(Relative) activity of water	uncertainty
0.339	0	0.9902	0.0387
0.317	0.0381	0.9902	0.0387
0.153	0.2905	0.9902	0.0387
0	0.5202	0.9902	0.0387
0.401	0	0.9886	0.0387
0.377	0.0452	0.9886	0.0387
0.173	0.3281	0.9886	0.0387
0	0.5858	0.9886	0.0387
0.413	0	0.9884	0.0387
0.4	0.0479	0.9884	0.0387
0.185	0.3523	0.9884	0.0387
0	0.6226	0.9884	0.0387
0.498	0	0.9857	0.0387
0.465	0.0556	0.9857	0.0387
0.21	0.3989	0.9857	0.0387
0	0.7235	0.9857	0.0387
0.544	0	0.9844	0.0387
0.457	0.0946	0.9844	0.0387
0.309	0.3586	0.9844	0.0387
0	0.7816	0.9844	0.0387
0.706	0	0.9802	0.0387
0.656	0.0794	0.9802	0.0387
0.295	0.56	0.9802	0.0387
0	0.9648	0.9802	0.0387
0.741	0	0.9791	0.0387
0.639	0.1321	0.9791	0.0387
0.414	0.4802	0.9791	0.0387
0	1.0253	0.9791	0.0387

System: D-fructose + water; phases: Liquid
Fixed: Pressure, kPa = 85
Fixed: Temperature, K = 298.15
Property: (Relative) activity of water (Liquid); method: ISOPIE
Molality, mol/kg of D-fructose	(Relative) activity of water	uncertainty
0.6021	0.9891	0.0387
0.6021	0.9875	0.0387
0.7238	0.9867	0.0387
0.7424	0.9865	0.0387
1.058	0.9801	0.0387
0.7478	0.9864	0.0387
0.7776	0.9857	0.0387
1.0121	0.9813	0.0387

System: D-sucrose + water; phases: Liquid
Fixed: Pressure, kPa = 85
Fixed: Temperature, K = 298.15
Property: (Relative) activity of water (Liquid); method: ISOPIE
Molality, mol/kg of D-sucrose	(Relative) activity of water	uncertainty
0.5202	0.9902	0.0387
0.5858	0.9886	0.0387
0.6226	0.9884	0.0387
0.7235	0.9857	0.0387
0.7816	0.9844	0.0387
0.9648	0.9802	0.0387
1.0253	0.9791	0.0387
