Measured thermophysical data. Determination and Correlation of the Solubility of l-Fucose in Four Binary Solvent Systems at the Temperature Range from 288.15 to 308.15 K
Source: J. Chem. Eng. Data, 2018, 10.1021/acs.jced.8b00361
Compound 1: L-fucose, C6H12O5, InChI=1S/C6H12O5/c1-3(8)5(10)6(11)4(9)2-7/h2-6,8-11H,1H3/t3-,4+,5+,6-/m0/s1, purity 99%
Compound 2: methanol, CH4O, InChI=1S/CH4O/c1-2/h2H,1H3, purity 99.7%
Compound 3: ethanol, C2H6O, InChI=1S/C2H6O/c1-2-3/h3H,2H2,1H3, purity 99.7%
Compound 4: propan-2-ol, C3H8O, InChI=1S/C3H8O/c1-3(2)4/h3-4H,1-2H3, purity 99.7%
Compound 5: acetone, C3H6O, InChI=1S/C3H6O/c1-3(2)4/h1-2H3, purity 99.7%
Compound 6: water, H2O, InChI=1S/H2O/h1H2, purity 99.9%
Compound 7: L-arginine, C6H14N4O2, InChI=1S/C6H14N4O2/c7-4(5(11)12)2-1-3-10-6(8)9/h4H,1-3,7H2,(H,11,12)(H4,8,9,10)/t4-/m0/s1, purity 98.5%

System: L-fucose + methanol + water; phases: Liquid, Crystal
Fixed: Pressure, kPa = 100
Property: Mole fraction of L-fucose (Liquid); method: gravimetric
Temperature, K	Solvent: Mole fraction of water	Mole fraction of L-fucose	uncertainty
288.15	0	0.00216	0.00065
288.15	0.1	0.00252	0.00076
288.15	0.2	0.00593	0.00178
288.15	0.3	0.00688	0.00206
288.15	0.4	0.00907	0.00272
288.15	0.5	0.01194	0.00358
288.15	0.6	0.01492	0.00448
288.15	0.7	0.02049	0.00615
288.15	0.8	0.02467	0.0074
288.15	0.9	0.03692	0.01108
288.15	1	0.0512	0.01536
293.15	0	0.00244	0.00073
293.15	0.1	0.00327	0.00098
293.15	0.2	0.00783	0.00235
293.15	0.3	0.00904	0.00271
293.15	0.4	0.01223	0.00367
293.15	0.5	0.01646	0.00494
293.15	0.6	0.02132	0.0064
293.15	0.7	0.02935	0.00881
293.15	0.8	0.03717	0.01116
293.15	0.9	0.05387	0.01617
293.15	1	0.06986	0.02096
298.15	0	0.00275	0.00083
298.15	0.1	0.00392	0.00118
298.15	0.2	0.01	0.003
298.15	0.3	0.01291	0.00387
298.15	0.4	0.01709	0.00513
298.15	0.5	0.02356	0.00707
298.15	0.6	0.03181	0.00955
298.15	0.7	0.04422	0.01327
298.15	0.8	0.05394	0.01619
298.15	0.9	0.07781	0.02335
298.15	1	0.09786	0.02936
303.15	0	0.00307	0.00092
303.15	0.1	0.00469	0.00141
303.15	0.2	0.01356	0.00407
303.15	0.3	0.01728	0.00519
303.15	0.4	0.02468	0.00741
303.15	0.5	0.0355	0.01066
303.15	0.6	0.05008	0.01503
303.15	0.7	0.0667	0.02002
303.15	0.8	0.08905	0.02673
303.15	0.9	0.11038	0.03312
303.15	1	0.12898	0.0387
308.15	0	0.00345	0.00104
308.15	0.1	0.0058	0.00174
308.15	0.2	0.01664	0.00499
308.15	0.3	0.02669	0.00801
308.15	0.4	0.03937	0.01182
308.15	0.5	0.05942	0.01783
308.15	0.6	0.0758	0.02275
308.15	0.7	0.10435	0.03132
308.15	0.8	0.13151	0.03946
308.15	0.9	0.15216	0.04566
308.15	1	0.17422	0.05228

System: L-fucose + ethanol + water; phases: Liquid, Crystal
Fixed: Pressure, kPa = 100
Property: Mole fraction of L-fucose (Liquid); method: gravimetric
Temperature, K	Solvent: Mole fraction of water	Mole fraction of L-fucose	uncertainty
288.15	0	0.00032	0.0001
288.15	0.1	0.00095	0.00029
288.15	0.2	0.00104	0.00031
288.15	0.3	0.00239	0.00072
288.15	0.4	0.00301	0.0009
288.15	0.5	0.00455	0.00137
288.15	0.6	0.00797	0.00239
288.15	0.7	0.01171	0.00351
288.15	0.8	0.0188	0.00564
288.15	0.9	0.02741	0.00822
288.15	1	0.0512	0.01536
293.15	0	0.00038	0.00011
293.15	0.1	0.00114	0.00034
293.15	0.2	0.00138	0.00041
293.15	0.3	0.0035	0.00105
293.15	0.4	0.00391	0.00117
293.15	0.5	0.00618	0.00185
293.15	0.6	0.01089	0.00327
293.15	0.7	0.01687	0.00506
293.15	0.8	0.02756	0.00827
293.15	0.9	0.03884	0.01166
293.15	1	0.06986	0.02096
298.15	0	0.00043	0.00013
298.15	0.1	0.00142	0.00043
298.15	0.2	0.00171	0.00051
298.15	0.3	0.00377	0.00113
298.15	0.4	0.00517	0.00155
298.15	0.5	0.00861	0.00258
298.15	0.6	0.01563	0.00469
298.15	0.7	0.02414	0.00725
298.15	0.8	0.04199	0.0126
298.15	0.9	0.05673	0.01703
298.15	1	0.09786	0.02936
303.15	0	0.00057	0.00017
303.15	0.1	0.00196	0.00059
303.15	0.2	0.00265	0.0008
303.15	0.3	0.00479	0.00144
303.15	0.4	0.00754	0.00226
303.15	0.5	0.01253	0.00376
303.15	0.6	0.02347	0.00705
303.15	0.7	0.0396	0.01189
303.15	0.8	0.06509	0.01953
303.15	0.9	0.08445	0.02534
303.15	1	0.12898	0.0387
308.15	0	0.00071	0.00021
308.15	0.1	0.00197	0.00059
308.15	0.2	0.0041	0.00123
308.15	0.3	0.00708	0.00212
308.15	0.4	0.01102	0.00331
308.15	0.5	0.02009	0.00603
308.15	0.6	0.03765	0.0113
308.15	0.7	0.06401	0.01921
308.15	0.8	0.09412	0.02824
308.15	0.9	0.11852	0.03557
308.15	1	0.17422	0.05228

System: L-fucose + propan-2-ol + water; phases: Liquid, Crystal
Fixed: Pressure, kPa = 100
Property: Mole fraction of L-fucose (Liquid); method: gravimetric
Temperature, K	Solvent: Mole fraction of water	Mole fraction of L-fucose	uncertainty
288.15	0	0.00014	4e-05
288.15	0.1	0.00058	0.00017
288.15	0.2	0.00072	0.00022
288.15	0.3	0.0013	0.00039
288.15	0.4	0.00241	0.00072
288.15	0.5	0.00402	0.00121
288.15	0.6	0.0067	0.00201
288.15	0.7	0.01116	0.00335
288.15	0.8	0.01607	0.00482
288.15	0.9	0.02876	0.00863
288.15	1	0.0512	0.01536
293.15	0	0.00024	7e-05
293.15	0.1	0.00089	0.00027
293.15	0.2	0.00092	0.00028
293.15	0.3	0.00167	0.0005
293.15	0.4	0.003	0.0009
293.15	0.5	0.00529	0.00159
293.15	0.6	0.00899	0.0027
293.15	0.7	0.01517	0.00455
293.15	0.8	0.02364	0.00709
293.15	0.9	0.04444	0.01334
293.15	1	0.06986	0.02096
298.15	0	0.00032	0.0001
298.15	0.1	0.00101	0.0003
298.15	0.2	0.00125	0.00038
298.15	0.3	0.00208	0.00062
298.15	0.4	0.00392	0.00118
298.15	0.5	0.00688	0.00206
298.15	0.6	0.01242	0.00373
298.15	0.7	0.02166	0.0065
298.15	0.8	0.035	0.01051
298.15	0.9	0.06207	0.01863
298.15	1	0.09786	0.02936
303.15	0	0.00043	0.00013
303.15	0.1	0.00128	0.00038
303.15	0.2	0.00159	0.00048
303.15	0.3	0.00262	0.00079
303.15	0.4	0.00524	0.00157
303.15	0.5	0.00949	0.00285
303.15	0.6	0.01765	0.0053
303.15	0.7	0.03183	0.00956
303.15	0.8	0.06034	0.01811
303.15	0.9	0.08788	0.02637
303.15	1	0.12898	0.0387
308.15	0	0.00056	0.00017
308.15	0.1	0.00149	0.00045
308.15	0.2	0.00209	0.00063
308.15	0.3	0.00354	0.00106
308.15	0.4	0.00722	0.00217
308.15	0.5	0.01354	0.00407
308.15	0.6	0.02612	0.00784
308.15	0.7	0.05252	0.01576
308.15	0.8	0.07828	0.02349
308.15	0.9	0.13222	0.03968
308.15	1	0.17422	0.05228

System: L-fucose + acetone + water; phases: Liquid, Crystal
Fixed: Pressure, kPa = 100
Property: Mole fraction of L-fucose (Liquid); method: gravimetric
Temperature, K	Solvent: Mole fraction of water	Mole fraction of L-fucose	uncertainty
288.15	0	0.00023	7e-05
288.15	0.1	0.00033	0.0001
288.15	0.2	0.00044	0.00013
288.15	0.3	0.0006	0.00018
288.15	0.4	0.00134	0.0004
288.15	0.5	0.00238	0.00071
288.15	0.6	0.00438	0.00131
288.15	0.7	0.00785	0.00236
288.15	0.8	0.01392	0.00418
288.15	0.9	0.02691	0.00807
288.15	1	0.0512	0.01536
293.15	0	0.00025	8e-05
293.15	0.1	0.00036	0.00011
293.15	0.2	0.00052	0.00016
293.15	0.3	0.00069	0.00021
293.15	0.4	0.0016	0.00048
293.15	0.5	0.00287	0.00086
293.15	0.6	0.0056	0.00168
293.15	0.7	0.01063	0.00319
293.15	0.8	0.01936	0.00581
293.15	0.9	0.03778	0.01134
293.15	1	0.06986	0.02096
298.15	0	0.00028	8e-05
298.15	0.1	0.00041	0.00012
298.15	0.2	0.00062	0.00019
298.15	0.3	0.00091	0.00027
298.15	0.4	0.00198	0.00059
298.15	0.5	0.00371	0.00111
298.15	0.6	0.00742	0.00223
298.15	0.7	0.01433	0.0043
298.15	0.8	0.02736	0.00821
298.15	0.9	0.05177	0.01554
298.15	1	0.09786	0.02936
303.15	0	0.00032	0.0001
303.15	0.1	0.00047	0.00014
303.15	0.2	0.0008	0.00024
303.15	0.3	0.00122	0.00037
303.15	0.4	0.00238	0.00071
303.15	0.5	0.00488	0.00146
303.15	0.6	0.01048	0.00315
303.15	0.7	0.0203	0.00609
303.15	0.8	0.03895	0.01169
303.15	0.9	0.07335	0.02202
303.15	1	0.12898	0.0387
308.15	0	0.00038	0.00011
308.15	0.1	0.00054	0.00016
308.15	0.2	0.00099	0.0003
308.15	0.3	0.00147	0.00044
308.15	0.4	0.00305	0.00092
308.15	0.5	0.00642	0.00193
308.15	0.6	0.01617	0.00485
308.15	0.7	0.0312	0.00937
308.15	0.8	0.05958	0.01789
308.15	0.9	0.11626	0.03489
308.15	1	0.17422	0.05228

System: L-fucose + methanol; phases: Liquid, Crystal
Fixed: Pressure, kPa = 100
Property: Mole fraction of L-fucose (Liquid); method: gravimetric
Temperature, K	Mole fraction of L-fucose	uncertainty
288.15	0.00216	0.00065
293.15	0.00244	0.00073
298.15	0.00275	0.00083
303.15	0.00307	0.00092
308.15	0.00345	0.00104

System: L-fucose + water; phases: Liquid, Crystal
Fixed: Pressure, kPa = 100
Property: Mole fraction of L-fucose (Liquid); method: gravimetric
Temperature, K	Mole fraction of L-fucose	uncertainty
288.15	0.0512	0.01536
293.15	0.06986	0.02096
298.15	0.09786	0.02936
303.15	0.12898	0.0387
308.15	0.17422	0.05228

System: L-fucose + ethanol; phases: Liquid, Crystal
Fixed: Pressure, kPa = 100
Property: Mole fraction of L-fucose (Liquid); method: gravimetric
Temperature, K	Mole fraction of L-fucose	uncertainty
288.15	0.00032	0.0001
293.15	0.00038	0.00011
298.15	0.00043	0.00013
303.15	0.00057	0.00017
308.15	0.00071	0.00021

System: L-fucose + propan-2-ol; phases: Liquid, Crystal
Fixed: Pressure, kPa = 100
Property: Mole fraction of L-fucose (Liquid); method: gravimetric
Temperature, K	Mole fraction of L-fucose	uncertainty
288.15	0.00014	4e-05
293.15	0.00024	7e-05
298.15	0.00032	0.0001
303.15	0.00043	0.00013
308.15	0.00056	0.00017

System: L-fucose + acetone; phases: Liquid, Crystal
Fixed: Pressure, kPa = 100
Property: Mole fraction of L-fucose (Liquid); method: gravimetric
Temperature, K	Mole fraction of L-fucose	uncertainty
288.15	0.00023	7e-05
293.15	0.00025	8e-05
298.15	0.00028	8e-05
303.15	0.00032	0.0001
308.15	0.00038	0.00011

System: L-arginine + ethanol + water; phases: Liquid, Crystal
Fixed: Temperature, K = 298.15
Fixed: Pressure, kPa = 100
Property: Mole fraction of L-arginine (Liquid); method: gravimetric
Solvent: Mole fraction of water	Mole fraction of L-arginine	uncertainty
0	0.0001595	4.79e-05
0.4602	0.0017714	0.0005315
0.7189	0.0076629	0.002299
0.8847	0.0156357	0.0046908
1	0.0215044	0.0064515

System: L-arginine + water; phases: Liquid, Crystal
Property: Mole fraction of L-arginine (Liquid); method: gravimetric
Temperature, K	Pressure, kPa	Mole fraction of L-arginine	uncertainty
298.15	100	0.0215044	0.0064515

System: L-arginine + ethanol; phases: Liquid, Crystal
Property: Mole fraction of L-arginine (Liquid); method: gravimetric
Temperature, K	Pressure, kPa	Mole fraction of L-arginine	uncertainty
298.15	100	0.0001595	4.79e-05
