Measured thermophysical data. Thermodynamic Parameters of a New Synthesized Tricationic Ionic Liquid Stationary Phase by Inverse Gas Chromatography
Source: J. Chem. Eng. Data, 2018, 10.1021/acs.jced.8b00601
Compound 1: 3,3',3''-(benzene-1,3,5-triyltris(methylene))tris(1-(naphthalen-2-yl)imidazolium) tris(bis((trifluoromethyl)sulfonyl)amide), C54H39F18N9O12S6, InChI=1S/C48H39N6.3C2F6NO4S2/c1-4-10-43-28-46(16-13-40(43)7-1)52-22-19-49(34-52)31-37-25-38(32-50-20-23-53(35-50)47-17-14-41-8-2-5-11-44(41)29-47)27-39(26-37)33-51-21-24-54(36-51)48-18-15-42-9-3-6-12-45(42)30-48;3*3-1(4,5)14(10,11)9-15(12,13)2(6,7)8/h1-30,34-36H,31-33H2;;;/q+3;3*-1, purity 95%
Compound 2: tetrachloromethane, CCl4, InChI=1S/CCl4/c2-1(3,4)5, purity 99%
Compound 3: 1,2-dichloroethane, C2H4Cl2, InChI=1S/C2H4Cl2/c3-1-2-4/h1-2H2, purity 99%
Compound 4: 1,4-dioxane, C4H8O2, InChI=1S/C4H8O2/c1-2-6-4-3-5-1/h1-4H2, purity 98%
Compound 5: ethyl acetate, C4H8O2, InChI=1S/C4H8O2/c1-3-6-4(2)5/h3H2,1-2H3, purity 99%
Compound 6: heptane, C7H16, InChI=1S/C7H16/c1-3-5-7-6-4-2/h3-7H2,1-2H3, purity 99.5%
Compound 7: octane, C8H18, InChI=1S/C8H18/c1-3-5-7-8-6-4-2/h3-8H2,1-2H3, purity 99%
Compound 8: cyclohexane, C6H12, InChI=1S/C6H12/c1-2-4-6-5-3-1/h1-6H2, purity 99.8%
Compound 9: benzene, C6H6, InChI=1S/C6H6/c1-2-4-6-5-3-1/h1-6H, purity 99%
Compound 10: toluene, C7H8, InChI=1S/C7H8/c1-7-5-3-2-4-6-7/h2-6H,1H3, purity 99.8%
Compound 11: 1,2-dimethylbenzene, C8H10, InChI=1S/C8H10/c1-7-5-3-4-6-8(7)2/h3-6H,1-2H3, purity 99%
Compound 12: 1,3-dimethylbenzene, C8H10, InChI=1S/C8H10/c1-7-4-3-5-8(2)6-7/h3-6H,1-2H3, purity 99%
Compound 13: 1,4-dimethylbenzene, C8H10, InChI=1S/C8H10/c1-7-3-5-8(2)6-4-7/h3-6H,1-2H3, purity 99%
Compound 14: ethanol, C2H6O, InChI=1S/C2H6O/c1-2-3/h3H,2H2,1H3, purity 99%
Compound 15: propan-1-ol, C3H8O, InChI=1S/C3H8O/c1-2-3-4/h4H,2-3H2,1H3, purity 99%
Compound 16: propan-2-ol, C3H8O, InChI=1S/C3H8O/c1-3(2)4/h3-4H,1-2H3, purity 99.7%
Compound 17: butanal, C4H8O, InChI=1S/C4H8O/c1-2-3-4-5/h4H,2-3H2,1H3, purity 99%
Compound 18: benzaldehyde, C7H6O, InChI=1S/C7H6O/c8-6-7-4-2-1-3-5-7/h1-6H, purity 99%
Compound 19: pentan-2-one, C5H10O, InChI=1S/C5H10O/c1-3-4-5(2)6/h3-4H2,1-2H3, purity 99.8%
Compound 20: cyclopentanone, C5H8O, InChI=1S/C5H8O/c6-5-3-1-2-4-5/h1-4H2, purity 99%
Compound 21: cyclohexanone, C6H10O, InChI=1S/C6H10O/c7-6-4-2-1-3-5-6/h1-5H2, purity 99.5%
Compound 22: pyridine, C5H5N, InChI=1S/C5H5N/c1-2-4-6-5-3-1/h1-5H, purity 99.8%
Compound 23: acetonitrile, C2H3N, InChI=1S/C2H3N/c1-2-3/h1H3, purity 99%

System: 3,3',3''-(benzene-1,3,5-triyltris(methylene))tris(1-(naphthalen-2-yl)imidazolium) tris(bis((trifluoromethyl)sulfonyl)amide) + heptane; phases: Liquid
Fixed: Mole fraction of heptane = 0
Fixed: Pressure, kPa = 101.325
Property: Activity coefficient of heptane (Liquid); method: Chromatography
Temperature, K	Activity coefficient of heptane	uncertainty
313	12.158	1.346
323	10.057	1.187
333	6.766	0.817
343	6.033	0.651

System: 3,3',3''-(benzene-1,3,5-triyltris(methylene))tris(1-(naphthalen-2-yl)imidazolium) tris(bis((trifluoromethyl)sulfonyl)amide) + octane; phases: Liquid
Fixed: Mole fraction of octane = 0
Fixed: Pressure, kPa = 101.325
Property: Activity coefficient of octane (Liquid); method: Chromatography
Temperature, K	Activity coefficient of octane	uncertainty
313	28.404	3.489
323	19.41	2.491
333	14.133	1.79
343	9.431	1.367

System: 3,3',3''-(benzene-1,3,5-triyltris(methylene))tris(1-(naphthalen-2-yl)imidazolium) tris(bis((trifluoromethyl)sulfonyl)amide) + cyclohexane; phases: Liquid
Fixed: Mole fraction of cyclohexane = 0
Fixed: Pressure, kPa = 101.325
Property: Activity coefficient of cyclohexane (Liquid); method: Chromatography
Temperature, K	Activity coefficient of cyclohexane	uncertainty
313	11.684	1.328
323	9.163	1.028
333	8.093	0.899
343	6.253	0.753

System: 3,3',3''-(benzene-1,3,5-triyltris(methylene))tris(1-(naphthalen-2-yl)imidazolium) tris(bis((trifluoromethyl)sulfonyl)amide) + benzene; phases: Liquid
Fixed: Mole fraction of benzene = 0
Fixed: Pressure, kPa = 101.325
Property: Activity coefficient of benzene (Liquid); method: Chromatography
Temperature, K	Activity coefficient of benzene	uncertainty
313	2.58	0.305
323	1.875	0.232
333	1.35	0.165
343	0.994	0.124

System: 3,3',3''-(benzene-1,3,5-triyltris(methylene))tris(1-(naphthalen-2-yl)imidazolium) tris(bis((trifluoromethyl)sulfonyl)amide) + toluene; phases: Liquid
Fixed: Mole fraction of toluene = 0
Fixed: Pressure, kPa = 101.325
Property: Activity coefficient of toluene (Liquid); method: Chromatography
Temperature, K	Activity coefficient of toluene	uncertainty
313	3.818	0.43
323	3.046	0.349
333	2.416	0.288
343	1.692	0.228

System: 3,3',3''-(benzene-1,3,5-triyltris(methylene))tris(1-(naphthalen-2-yl)imidazolium) tris(bis((trifluoromethyl)sulfonyl)amide) + 1,2-dimethylbenzene; phases: Liquid
Fixed: Mole fraction of 1,2-dimethylbenzene = 0
Fixed: Pressure, kPa = 101.325
Property: Activity coefficient of 1,2-dimethylbenzene (Liquid); method: Chromatography
Temperature, K	Activity coefficient of 1,2-dimethylbenzene	uncertainty
313	3.347	0.414
323	2.252	0.298
333	1.538	0.2
343	1.042	0.145

System: 3,3',3''-(benzene-1,3,5-triyltris(methylene))tris(1-(naphthalen-2-yl)imidazolium) tris(bis((trifluoromethyl)sulfonyl)amide) + 1,3-dimethylbenzene; phases: Liquid
Fixed: Mole fraction of 1,3-dimethylbenzene = 0
Fixed: Pressure, kPa = 101.325
Property: Activity coefficient of 1,3-dimethylbenzene (Liquid); method: Chromatography
Temperature, K	Activity coefficient of 1,3-dimethylbenzene	uncertainty
313	3.415	0.421
323	2.31	0.308
333	1.525	0.19
343	1.257	0.14

System: 3,3',3''-(benzene-1,3,5-triyltris(methylene))tris(1-(naphthalen-2-yl)imidazolium) tris(bis((trifluoromethyl)sulfonyl)amide) + 1,4-dimethylbenzene; phases: Liquid
Fixed: Mole fraction of 1,4-dimethylbenzene = 0
Fixed: Pressure, kPa = 101.325
Property: Activity coefficient of 1,4-dimethylbenzene (Liquid); method: Chromatography
Temperature, K	Activity coefficient of 1,4-dimethylbenzene	uncertainty
313	4.466	0.56
323	2.942	0.39
333	2.093	0.262
343	1.511	0.195

System: 3,3',3''-(benzene-1,3,5-triyltris(methylene))tris(1-(naphthalen-2-yl)imidazolium) tris(bis((trifluoromethyl)sulfonyl)amide) + ethanol; phases: Liquid
Fixed: Mole fraction of ethanol = 0
Fixed: Pressure, kPa = 101.325
Property: Activity coefficient of ethanol (Liquid); method: Chromatography
Temperature, K	Activity coefficient of ethanol	uncertainty
313	0.927	0.103
323	0.724	0.082
333	0.611	0.066
343	0.606	0.064

System: 3,3',3''-(benzene-1,3,5-triyltris(methylene))tris(1-(naphthalen-2-yl)imidazolium) tris(bis((trifluoromethyl)sulfonyl)amide) + propan-1-ol; phases: Liquid
Fixed: Mole fraction of propan-1-ol = 0
Fixed: Pressure, kPa = 101.325
Property: Activity coefficient of propan-1-ol (Liquid); method: Chromatography
Temperature, K	Activity coefficient of propan-1-ol	uncertainty
313	1.398	0.156
323	1.104	0.126
333	0.842	0.094
343	0.73	0.079

System: 3,3',3''-(benzene-1,3,5-triyltris(methylene))tris(1-(naphthalen-2-yl)imidazolium) tris(bis((trifluoromethyl)sulfonyl)amide) + propan-2-ol; phases: Liquid
Fixed: Mole fraction of propan-2-ol = 0
Fixed: Pressure, kPa = 101.325
Property: Activity coefficient of propan-2-ol (Liquid); method: Chromatography
Temperature, K	Activity coefficient of propan-2-ol	uncertainty
313	1.893	0.237
323	1.243	0.158
333	0.965	0.113
343	0.693	0.091

System: 3,3',3''-(benzene-1,3,5-triyltris(methylene))tris(1-(naphthalen-2-yl)imidazolium) tris(bis((trifluoromethyl)sulfonyl)amide) + butanal; phases: Liquid
Fixed: Mole fraction of butanal = 0
Fixed: Pressure, kPa = 101.325
Property: Activity coefficient of butanal (Liquid); method: Chromatography
Temperature, K	Activity coefficient of butanal	uncertainty
313	0.425	0.049
323	0.415	0.048
333	0.396	0.047
343	0.324	0.043

System: 3,3',3''-(benzene-1,3,5-triyltris(methylene))tris(1-(naphthalen-2-yl)imidazolium) tris(bis((trifluoromethyl)sulfonyl)amide) + benzaldehyde; phases: Liquid
Fixed: Mole fraction of benzaldehyde = 0
Fixed: Pressure, kPa = 101.325
Property: Activity coefficient of benzaldehyde (Liquid); method: Chromatography
Temperature, K	Activity coefficient of benzaldehyde	uncertainty
313	1	0.102
323	0.999	0.101
333	1	0.102
343	1.001	0.102

System: 3,3',3''-(benzene-1,3,5-triyltris(methylene))tris(1-(naphthalen-2-yl)imidazolium) tris(bis((trifluoromethyl)sulfonyl)amide) + pentan-2-one; phases: Liquid
Fixed: Mole fraction of pentan-2-one = 0
Fixed: Pressure, kPa = 101.325
Property: Activity coefficient of pentan-2-one (Liquid); method: Chromatography
Temperature, K	Activity coefficient of pentan-2-one	uncertainty
313	0.54	0.062
323	0.441	0.053
333	0.365	0.045
343	0.341	0.042

System: 3,3',3''-(benzene-1,3,5-triyltris(methylene))tris(1-(naphthalen-2-yl)imidazolium) tris(bis((trifluoromethyl)sulfonyl)amide) + cyclopentanone; phases: Liquid
Fixed: Mole fraction of cyclopentanone = 0
Fixed: Pressure, kPa = 101.325
Property: Activity coefficient of cyclopentanone (Liquid); method: Chromatography
Temperature, K	Activity coefficient of cyclopentanone	uncertainty
313	0.303	0.039
323	0.296	0.04
333	0.22	0.035
343	0.211	0.034

System: 3,3',3''-(benzene-1,3,5-triyltris(methylene))tris(1-(naphthalen-2-yl)imidazolium) tris(bis((trifluoromethyl)sulfonyl)amide) + cyclohexanone; phases: Liquid
Fixed: Mole fraction of cyclohexanone = 0
Fixed: Pressure, kPa = 101.325
Property: Activity coefficient of cyclohexanone (Liquid); method: Chromatography
Temperature, K	Activity coefficient of cyclohexanone	uncertainty
313	1	0.102
323	0.999	0.101
333	1.001	0.102
343	1.002	0.102

System: 3,3',3''-(benzene-1,3,5-triyltris(methylene))tris(1-(naphthalen-2-yl)imidazolium) tris(bis((trifluoromethyl)sulfonyl)amide) + pyridine; phases: Liquid
Fixed: Mole fraction of pyridine = 0
Fixed: Pressure, kPa = 101.325
Property: Activity coefficient of pyridine (Liquid); method: Chromatography
Temperature, K	Activity coefficient of pyridine	uncertainty
323	0.164	0.031
333	0.173	0.032
343	0.198	0.033

System: 3,3',3''-(benzene-1,3,5-triyltris(methylene))tris(1-(naphthalen-2-yl)imidazolium) tris(bis((trifluoromethyl)sulfonyl)amide) + tetrachloromethane; phases: Liquid
Fixed: Mole fraction of tetrachloromethane = 0
Fixed: Pressure, kPa = 101.325
Property: Activity coefficient of tetrachloromethane (Liquid); method: Chromatography
Temperature, K	Activity coefficient of tetrachloromethane	uncertainty
313	4.725	0.505
323	4.27	0.471
333	3.293	0.384
343	2.597	0.306

System: 3,3',3''-(benzene-1,3,5-triyltris(methylene))tris(1-(naphthalen-2-yl)imidazolium) tris(bis((trifluoromethyl)sulfonyl)amide) + 1,2-dichloroethane; phases: Liquid
Fixed: Mole fraction of 1,2-dichloroethane = 0
Fixed: Pressure, kPa = 101.325
Property: Activity coefficient of 1,2-dichloroethane (Liquid); method: Chromatography
Temperature, K	Activity coefficient of 1,2-dichloroethane	uncertainty
313	0.758	0.079
323	0.738	0.077
333	0.677	0.071
343	0.679	0.071

System: 3,3',3''-(benzene-1,3,5-triyltris(methylene))tris(1-(naphthalen-2-yl)imidazolium) tris(bis((trifluoromethyl)sulfonyl)amide) + 1,4-dioxane; phases: Liquid
Fixed: Mole fraction of 1,4-dioxane = 0
Fixed: Pressure, kPa = 101.325
Property: Activity coefficient of 1,4-dioxane (Liquid); method: Chromatography
Temperature, K	Activity coefficient of 1,4-dioxane	uncertainty
313	0.481	0.06
323	0.34	0.047
333	0.276	0.038
343	0.262	0.037

System: 3,3',3''-(benzene-1,3,5-triyltris(methylene))tris(1-(naphthalen-2-yl)imidazolium) tris(bis((trifluoromethyl)sulfonyl)amide) + acetonitrile; phases: Liquid
Fixed: Mole fraction of acetonitrile = 0
Fixed: Pressure, kPa = 101.325
Property: Activity coefficient of acetonitrile (Liquid); method: Chromatography
Temperature, K	Activity coefficient of acetonitrile	uncertainty
313	0.263	0.038
323	0.217	0.035
333	0.189	0.033
343	0.181	0.032

System: 3,3',3''-(benzene-1,3,5-triyltris(methylene))tris(1-(naphthalen-2-yl)imidazolium) tris(bis((trifluoromethyl)sulfonyl)amide) + ethyl acetate; phases: Liquid
Fixed: Mole fraction of ethyl acetate = 0
Fixed: Pressure, kPa = 101.325
Property: Activity coefficient of ethyl acetate (Liquid); method: Chromatography
Temperature, K	Activity coefficient of ethyl acetate	uncertainty
313	1.017	0.114
323	0.776	0.093
333	0.544	0.068
343	0.443	0.054
