Measured thermophysical data. Thermodynamic Study of the Ternary System KCl-CuCl2-H2O at 298.15 K by the Electromotive Force Method
Source: J. Chem. Eng. Data, 2019, 10.1021/acs.jced.9b00569
Compound 1: water, H2O, InChI=1S/H2O/h1H2, purity 99.9%
Compound 2: potassium chloride, ClK, InChI=1S/ClH.K/h1H;/q;+1/p-1, purity 99.8%
Compound 3: copper chloride, Cl2Cu, InChI=1S/2ClH.Cu/h2*1H;/q;;+2/p-2, purity 99%

System: potassium chloride + copper chloride + water; phases: Liquid
Fixed: Temperature, K = 298.15
Fixed: Pressure, kPa = 94.77
Property: Mean ionic activity coefficient of potassium chloride (Liquid); method: cell potential
Molality, mol/kg of potassium chloride	Molality, mol/kg of copper chloride	Mean ionic activity coefficient of potassium chloride	uncertainty
0.0079	0.0006	0.878	0.05
0.006	0.0014	0.8538	0.0501
0.004	0.002	0.8368	0.05
0.0021	0.0026	0.8206	0.05
0.04	0.0034	0.7967	0.05
0.0301	0.0068	0.782	0.05
0.0201	0.01	0.7654	0.05
0.01	0.0133	0.7421	0.05
0.08	0.0065	0.7488	0.05
0.0602	0.0133	0.723	0.05
0.0402	0.0201	0.7041	0.05
0.0203	0.0267	0.69	0.05
0.16	0.0134	0.7002	0.05
0.1201	0.0267	0.6769	0.05
0.0804	0.04	0.6585	0.05
0.0401	0.0534	0.6466	0.05
0.2398	0.02	0.6676	0.05
0.1803	0.0401	0.6455	0.05
0.1204	0.0601	0.6251	0.05
0.0605	0.0803	0.6108	0.05
0.3205	0.0267	0.6438	0.05
0.2404	0.0534	0.6177	0.05
0.1604	0.0802	0.5949	0.05
0.0804	0.1071	0.5762	0.05
0.4002	0.0334	0.6222	0.05
0.3007	0.0669	0.5949	0.05
0.2007	0.1004	0.5741	0.05
0.1006	0.1339	0.5482	0.05
0.4808	0.0401	0.5985	0.05
0.361	0.0802	0.5751	0.05
0.241	0.1205	0.5502	0.05
0.1206	0.1609	0.5272	0.05
0.5609	0.0468	0.5835	0.05
0.4212	0.0935	0.5507	0.05
0.2814	0.1407	0.5224	0.05
0.1409	0.1879	0.4934	0.05
0.6412	0.0535	0.567	0.05
0.4819	0.1071	0.5231	0.05
0.3218	0.1609	0.4906	0.05
0.1611	0.2149	0.4644	0.05
0.7217	0.0601	0.5519	0.05
0.5425	0.1205	0.499	0.05
0.3612	0.1805	0.4639	0.05
0.187	0.2422	0.4315	0.05
0.8017	0.0669	0.5345	0.05
0.6022	0.1339	0.4742	0.05
0.4028	0.2013	0.4329	0.05
0.2017	0.269	0.3999	0.05
