Measured thermophysical data. Densities and Viscosities for the Ternary System of Cyclopropanemethanol (1) + n-Dodecane (2) + Butylcyclohexane (3) and Corresponding Binaries at T = 293.15 343.15 K
Source: J. Chem. Eng. Data, 2017, 10.1021/acs.jced.7b00201
Compound 1: cyclopropylmethanol, C4H8O, InChI=1S/C4H8O/c5-3-4-1-2-4/h4-5H,1-3H2, purity 98%
Compound 2: dodecane, C12H26, InChI=1S/C12H26/c1-3-5-7-9-11-12-10-8-6-4-2/h3-12H2,1-2H3, purity 99%
Compound 3: butylcyclohexane, C10H20, InChI=1S/C10H20/c1-2-3-7-10-8-5-4-6-9-10/h10H,2-9H2,1H3, purity 99%

System: cyclopropylmethanol; phases: Liquid
Fixed: Pressure, kPa = 100
Property: Mass density, kg/m3 (Liquid); method: Vibrating tube method
Temperature, K	Mass density, kg/m3	uncertainty
293.15	912.99	1.01
298.15	908.94	1.01
303.15	904.85	1.01
308.15	900.74	1.01
313.15	896.58	1.01
318.15	892.38	1.01
323.15	888.13	1.01
328.15	883.84	1.01
333.15	879.49	1.01
338.15	875.07	1.01
343.15	870.62	1.01

System: cyclopropylmethanol; phases: Liquid
Fixed: Pressure, kPa = 100
Property: Viscosity, Pa*s (Liquid); method: Falling or rolling sphere viscometry
Temperature, K	Viscosity, Pa*s	uncertainty
293.15	0.004029	8.6e-05
298.15	0.003485	7.5e-05
303.15	0.003037	6.5e-05
308.15	0.002661	5.7e-05
313.15	0.002344	5e-05
318.15	0.002074	4.4e-05
323.15	0.001843	4e-05
328.15	0.001646	3.5e-05
333.15	0.001476	3.2e-05
338.15	0.001328	2.8e-05
343.15	0.001201	2.6e-05

System: dodecane; phases: Liquid
Fixed: Pressure, kPa = 100
Property: Mass density, kg/m3 (Liquid); method: Vibrating tube method
Temperature, K	Mass density, kg/m3	uncertainty
293.15	748.83	1.01
298.15	745.23	1.01
303.15	741.6	1.01
308.15	737.97	1.01
313.15	734.33	1.01
318.15	730.68	1.01
323.15	727.01	1.01
328.15	723.35	1.01
333.15	719.67	1.01
338.15	715.98	1.01
343.15	712.28	1.01

System: dodecane; phases: Liquid
Fixed: Pressure, kPa = 100
Property: Viscosity, Pa*s (Liquid); method: Falling or rolling sphere viscometry
Temperature, K	Viscosity, Pa*s	uncertainty
293.15	0.001481	3.1e-05
298.15	0.001355	2.9e-05
303.15	0.001244	2.6e-05
308.15	0.001151	2.4e-05
313.15	0.001066	2.3e-05
318.15	0.000992	2.1e-05
323.15	0.000926	2e-05
328.15	0.000867	1.8e-05
333.15	0.000814	1.7e-05
338.15	0.000765	1.6e-05
343.15	0.000724	1.5e-05

System: butylcyclohexane; phases: Liquid
Fixed: Pressure, kPa = 100
Property: Mass density, kg/m3 (Liquid); method: Vibrating tube method
Temperature, K	Mass density, kg/m3	uncertainty
293.15	799.34	1.01
298.15	795.59	1.01
303.15	791.84	1.01
308.15	788.07	1.01
313.15	784.3	1.01
318.15	780.52	1.01
323.15	776.74	1.01
328.15	772.93	1.01
333.15	769.13	1.01
338.15	765.3	1.01
343.15	761.47	1.01

System: butylcyclohexane; phases: Liquid
Fixed: Pressure, kPa = 100
Property: Viscosity, Pa*s (Liquid); method: Falling or rolling sphere viscometry
Temperature, K	Viscosity, Pa*s	uncertainty
293.15	0.001305	2.8e-05
298.15	0.001202	2.6e-05
303.15	0.001112	2.4e-05
308.15	0.001033	2.2e-05
313.15	0.000963	2.1e-05
318.15	0.000901	1.9e-05
323.15	0.000844	1.8e-05
328.15	0.000794	1.7e-05
333.15	0.000749	1.6e-05
338.15	0.000708	1.5e-05
343.15	0.00067	1.4e-05

System: cyclopropylmethanol + dodecane; phases: Liquid
Fixed: Pressure, kPa = 100
Property: Mass density, kg/m3 (Liquid); method: Vibrating tube method
Mole fraction of cyclopropylmethanol	Temperature, K	Mass density, kg/m3	uncertainty
0	293.15	748.83	1.01
0.1135	293.15	754.8	1.01
0.2127	293.15	761.38	1.01
0.3059	293.15	768.71	1.01
0.3804	293.15	775.49	1.01
0.5067	293.15	789.46	1.01
0.6019	293.15	802.62	1.01
0.7011	293.15	819.64	1.01
0.7921	293.15	839.53	1.01
0.8991	293.15	870.68	1.02
1	293.15	912.99	1.01
0	298.15	745.23	1.01
0.1135	298.15	751.08	1.01
0.2127	298.15	757.63	1.01
0.3059	298.15	764.92	1.01
0.3804	298.15	771.68	1.01
0.5067	298.15	785.59	1.01
0.6019	298.15	798.72	1.01
0.7011	298.15	815.7	1.01
0.7921	298.15	835.57	1.01
0.8991	298.15	866.69	1.02
1	298.15	908.94	1.01
0	303.15	741.6	1.01
0.1135	303.15	747.35	1.01
0.2127	303.15	753.86	1.01
0.3059	303.15	761.1	1.01
0.3804	303.15	767.83	1.01
0.5067	303.15	781.69	1.01
0.6019	303.15	794.79	1.01
0.7011	303.15	811.73	1.01
0.7921	303.15	831.56	1.01
0.8991	303.15	862.66	1.02
1	303.15	904.85	1.01
0	308.15	737.97	1.01
0.1135	308.15	743.6	1.01
0.2127	308.15	750.06	1.01
0.3059	308.15	757.26	1.01
0.3804	308.15	763.96	1.01
0.5067	308.15	777.76	1.01
0.6019	308.15	790.82	1.01
0.7011	308.15	807.72	1.01
0.7921	308.15	827.52	1.01
0.8991	308.15	858.59	1.02
1	308.15	900.74	1.01
0	313.15	734.33	1.01
0.1135	313.15	739.84	1.01
0.2127	313.15	746.24	1.01
0.3059	313.15	753.4	1.01
0.3804	313.15	760.06	1.01
0.5067	313.15	773.81	1.01
0.6019	313.15	786.82	1.01
0.7011	313.15	803.68	1.01
0.7921	313.15	823.45	1.01
0.8991	313.15	854.48	1.02
1	313.15	896.58	1.01
0	318.15	730.68	1.01
0.1135	318.15	736.06	1.01
0.2127	318.15	742.4	1.01
0.3059	318.15	749.51	1.01
0.3804	318.15	756.13	1.01
0.5067	318.15	769.82	1.01
0.6019	318.15	782.78	1.01
0.7011	318.15	799.61	1.01
0.7921	318.15	819.33	1.01
0.8991	318.15	850.32	1.02
1	318.15	892.38	1.01
0	323.15	727.01	1.01
0.1135	323.15	732.26	1.01
0.2127	323.15	738.54	1.01
0.3059	323.15	745.6	1.01
0.3804	323.15	752.18	1.01
0.5067	323.15	765.79	1.01
0.6019	323.15	778.71	1.01
0.7011	323.15	795.48	1.01
0.7921	323.15	815.17	1.01
0.8991	323.15	846.12	1.02
1	323.15	888.13	1.01
0	328.15	723.35	1.01
0.1135	328.15	728.45	1.01
0.2127	328.15	734.66	1.01
0.3059	328.15	741.65	1.01
0.3804	328.15	748.19	1.01
0.5067	328.15	761.73	1.01
0.6019	328.15	774.6	1.01
0.7011	328.15	791.32	1.01
0.7921	328.15	810.96	1.01
0.8991	328.15	841.86	1.02
1	328.15	883.84	1.01
0	333.15	719.67	1.01
0.1135	333.15	724.62	1.01
0.2127	333.15	730.75	1.01
0.3059	333.15	737.68	1.01
0.3804	333.15	744.17	1.01
0.5067	333.15	757.64	1.01
0.6019	333.15	770.44	1.01
0.7011	333.15	787.11	1.01
0.7921	333.15	806.7	1.01
0.8991	333.15	837.56	1.02
1	333.15	879.49	1.01
0	338.15	715.98	1.01
0.1135	338.15	720.77	1.01
0.2127	338.15	726.81	1.01
0.3059	338.15	733.68	1.01
0.3804	338.15	740.12	1.01
0.5067	338.15	753.5	1.01
0.6019	338.15	766.25	1.01
0.7011	338.15	782.85	1.01
0.7921	338.15	802.39	1.01
0.8991	338.15	833.19	1.02
1	338.15	875.07	1.01
0	343.15	712.28	1.01
0.1135	343.15	716.91	1.01
0.2127	343.15	722.85	1.01
0.3059	343.15	729.64	1.01
0.3804	343.15	736.03	1.01
0.5067	343.15	749.32	1.01
0.6019	343.15	762	1.01
0.7011	343.15	778.54	1.01
0.7921	343.15	798.03	1.01
0.8991	343.15	828.77	1.02
1	343.15	870.62	1.01

System: cyclopropylmethanol + dodecane; phases: Liquid
Fixed: Pressure, kPa = 100
Property: Viscosity, Pa*s (Liquid); method: Falling or rolling sphere viscometry
Mole fraction of cyclopropylmethanol	Temperature, K	Viscosity, Pa*s	uncertainty
0	293.15	0.001481	3.1e-05
0.1039	293.15	0.001484	3.2e-05
0.2032	293.15	0.001521	3.2e-05
0.3022	293.15	0.001605	3.4e-05
0.3997	293.15	0.001683	3.6e-05
0.4993	293.15	0.001884	4e-05
0.5994	293.15	0.002084	4.4e-05
0.7	293.15	0.002335	5e-05
0.797	293.15	0.002671	5.7e-05
0.9004	293.15	0.003205	6.9e-05
1	293.15	0.004029	8.6e-05
0	298.15	0.001355	2.9e-05
0.1039	298.15	0.001354	2.9e-05
0.2032	298.15	0.001382	2.9e-05
0.3022	298.15	0.001455	3.1e-05
0.3997	298.15	0.00152	3.2e-05
0.4993	298.15	0.001688	3.6e-05
0.5994	298.15	0.001854	4e-05
0.7	298.15	0.002068	4.4e-05
0.797	298.15	0.00235	5e-05
0.9004	298.15	0.002801	6e-05
1	298.15	0.003485	7.5e-05
0	303.15	0.001244	2.6e-05
0.1039	303.15	0.001241	2.6e-05
0.2032	303.15	0.001276	2.7e-05
0.3022	303.15	0.001325	2.8e-05
0.3997	303.15	0.00138	2.9e-05
0.4993	303.15	0.001521	3.2e-05
0.5994	303.15	0.001662	3.5e-05
0.7	303.15	0.001842	3.9e-05
0.797	303.15	0.002081	4.5e-05
0.9004	303.15	0.002463	5.3e-05
1	303.15	0.003037	6.5e-05
0	308.15	0.001151	2.4e-05
0.1039	308.15	0.001142	2.4e-05
0.2032	308.15	0.001171	2.5e-05
0.3022	308.15	0.001213	2.6e-05
0.3997	308.15	0.001258	2.7e-05
0.4993	308.15	0.001378	2.9e-05
0.5994	308.15	0.001497	3.2e-05
0.7	308.15	0.00165	3.5e-05
0.797	308.15	0.001853	4e-05
0.9004	308.15	0.002176	4.7e-05
1	308.15	0.002661	5.7e-05
0	313.15	0.001066	2.3e-05
0.1039	313.15	0.001055	2.2e-05
0.2032	313.15	0.001079	2.3e-05
0.3022	313.15	0.001114	2.4e-05
0.3997	313.15	0.001153	2.5e-05
0.4993	313.15	0.001254	2.7e-05
0.5994	313.15	0.001355	2.9e-05
0.7	313.15	0.001485	3.2e-05
0.797	313.15	0.001658	3.5e-05
0.9004	313.15	0.001933	4.1e-05
1	313.15	0.002344	5e-05
0	318.15	0.000992	2.1e-05
0.1039	318.15	0.000977	2.1e-05
0.2032	318.15	0.000998	2.1e-05
0.3022	318.15	0.001028	2.2e-05
0.3997	318.15	0.00106	2.3e-05
0.4993	318.15	0.001146	2.4e-05
0.5994	318.15	0.001232	2.6e-05
0.7	318.15	0.001343	2.9e-05
0.797	318.15	0.001491	3.2e-05
0.9004	318.15	0.001725	3.7e-05
1	318.15	0.002074	4.4e-05
0	323.15	0.000926	2e-05
0.1039	323.15	0.000909	1.9e-05
0.2032	323.15	0.000927	2e-05
0.3022	323.15	0.000952	2e-05
0.3997	323.15	0.000979	2.1e-05
0.4993	323.15	0.001052	2.2e-05
0.5994	323.15	0.001125	2.4e-05
0.7	323.15	0.00122	2.6e-05
0.797	323.15	0.001346	2.9e-05
0.9004	323.15	0.001546	3.3e-05
1	323.15	0.001843	4e-05
0	328.15	0.000867	1.8e-05
0.1039	328.15	0.000849	1.8e-05
0.2032	328.15	0.000864	1.8e-05
0.3022	328.15	0.000884	1.9e-05
0.3997	328.15	0.000907	1.9e-05
0.4993	328.15	0.000969	2.1e-05
0.5994	328.15	0.001031	2.2e-05
0.7	328.15	0.001112	2.4e-05
0.797	328.15	0.001221	2.6e-05
0.9004	328.15	0.001391	3e-05
1	328.15	0.001646	3.5e-05
0	333.15	0.000814	1.7e-05
0.1039	333.15	0.000794	1.7e-05
0.2032	333.15	0.000806	1.7e-05
0.3022	333.15	0.000823	1.8e-05
0.3997	333.15	0.000843	1.8e-05
0.4993	333.15	0.000896	1.9e-05
0.5994	333.15	0.000948	2e-05
0.7	333.15	0.001018	2.2e-05
0.797	333.15	0.001111	2.4e-05
0.9004	333.15	0.001257	2.7e-05
1	333.15	0.001476	3.2e-05
0	338.15	0.000765	1.6e-05
0.1039	338.15	0.000745	1.6e-05
0.2032	338.15	0.000755	1.6e-05
0.3022	338.15	0.000769	1.6e-05
0.3997	338.15	0.000785	1.7e-05
0.4993	338.15	0.000831	1.8e-05
0.5994	338.15	0.000875	1.9e-05
0.7	338.15	0.000935	2e-05
0.797	338.15	0.001015	2.2e-05
0.9004	338.15	0.001141	2.4e-05
1	338.15	0.001328	2.8e-05
0	343.15	0.000724	1.5e-05
0.1039	343.15	0.000702	1.5e-05
0.2032	343.15	0.000709	1.5e-05
0.3022	343.15	0.000721	1.5e-05
0.3997	343.15	0.000734	1.6e-05
0.4993	343.15	0.000773	1.7e-05
0.5994	343.15	0.000811	1.7e-05
0.7	343.15	0.000862	1.8e-05
0.797	343.15	0.000931	2e-05
0.9004	343.15	0.001039	2.2e-05
1	343.15	0.001201	2.6e-05

System: cyclopropylmethanol + butylcyclohexane; phases: Liquid
Fixed: Pressure, kPa = 100
Property: Mass density, kg/m3 (Liquid); method: Vibrating tube method
Mole fraction of cyclopropylmethanol	Temperature, K	Mass density, kg/m3	uncertainty
0	293.15	799.34	1.01
0.1039	293.15	803.82	1.01
0.2031	293.15	809.39	1.01
0.3022	293.15	815.9	1.01
0.3997	293.15	823.34	1.01
0.4993	293.15	832.12	1.01
0.5994	293.15	842.55	1.01
0.7	293.15	855.1	1.01
0.797	293.15	869.68	1.01
0.9004	293.15	889.05	1.01
1	293.15	912.99	1.01
0	298.15	795.59	1.01
0.1039	298.15	800.02	1.01
0.2031	298.15	805.52	1.01
0.3022	298.15	812	1.01
0.3997	298.15	819.39	1.01
0.4993	298.15	828.15	1.01
0.5994	298.15	838.56	1.01
0.7	298.15	851.09	1.01
0.797	298.15	865.66	1.01
0.9004	298.15	885.02	1.01
1	298.15	908.94	1.01
0	303.15	791.84	1.01
0.1039	303.15	796.16	1.01
0.2031	303.15	801.61	1.01
0.3022	303.15	808.04	1.01
0.3997	303.15	815.4	1.01
0.4993	303.15	824.14	1.01
0.5994	303.15	834.52	1.01
0.7	303.15	847.04	1.01
0.797	303.15	861.6	1.01
0.9004	303.15	880.95	1.01
1	303.15	904.85	1.01
0	308.15	788.07	1.01
0.1039	308.15	792.28	1.01
0.2031	308.15	797.68	1.01
0.3022	308.15	804.06	1.01
0.3997	308.15	811.39	1.01
0.4993	308.15	820.09	1.01
0.5994	308.15	830.45	1.01
0.7	308.15	842.95	1.01
0.797	308.15	857.5	1.01
0.9004	308.15	876.84	1.01
1	308.15	900.74	1.01
0	313.15	784.3	1.01
0.1039	313.15	788.38	1.01
0.2031	313.15	793.72	1.01
0.3022	313.15	800.06	1.01
0.3997	313.15	807.34	1.01
0.4993	313.15	816.02	1.01
0.5994	313.15	826.34	1.01
0.7	313.15	838.82	1.01
0.797	313.15	853.35	1.01
0.9004	313.15	872.69	1.01
1	313.15	896.58	1.01
0	318.15	780.52	1.01
0.1039	318.15	784.47	1.01
0.2031	318.15	789.74	1.01
0.3022	318.15	796.03	1.01
0.3997	318.15	803.27	1.01
0.4993	318.15	811.9	1.01
0.5994	318.15	822.19	1.01
0.7	318.15	834.65	1.01
0.797	318.15	849.17	1.01
0.9004	318.15	868.5	1.01
1	318.15	892.38	1.01
0	323.15	776.74	1.01
0.1039	323.15	780.53	1.01
0.2031	323.15	785.74	1.01
0.3022	323.15	791.97	1.01
0.3997	323.15	799.16	1.01
0.4993	323.15	807.75	1.01
0.5994	323.15	818.01	1.01
0.7	323.15	830.44	1.01
0.797	323.15	844.94	1.01
0.9004	323.15	864.26	1.01
1	323.15	888.13	1.01
0	328.15	772.93	1.01
0.1039	328.15	776.57	1.01
0.2031	328.15	781.71	1.01
0.3022	328.15	787.87	1.01
0.3997	328.15	795.01	1.01
0.4993	328.15	803.56	1.01
0.5994	328.15	813.78	1.01
0.7	328.15	826.18	1.01
0.797	328.15	840.66	1.01
0.9004	328.15	859.97	1.01
1	328.15	883.84	1.01
0	333.15	769.13	1.01
0.1039	333.15	772.6	1.01
0.2031	333.15	777.65	1.01
0.3022	333.15	783.75	1.01
0.3997	333.15	790.83	1.01
0.4993	333.15	799.33	1.01
0.5994	333.15	809.5	1.01
0.7	333.15	821.87	1.01
0.797	333.15	836.33	1.01
0.9004	333.15	855.62	1.01
1	333.15	879.49	1.01
0	338.15	765.3	1.01
0.1039	338.15	768.6	1.01
0.2031	338.15	773.56	1.01
0.3022	338.15	779.59	1.01
0.3997	338.15	786.61	1.01
0.4993	338.15	795.05	1.01
0.5994	338.15	805.18	1.01
0.7	338.15	817.51	1.01
0.797	338.15	831.94	1.01
0.9004	338.15	851.21	1.01
1	338.15	875.07	1.01
0	343.15	761.47	1.01
0.1039	343.15	764.58	1.01
0.2031	343.15	769.4	1.01
0.3022	343.15	775.39	1.01
0.3997	343.15	782.35	1.01
0.4993	343.15	790.73	1.01
0.5994	343.15	800.8	1.01
0.7	343.15	813.09	1.01
0.797	343.15	827.49	1.01
0.9004	343.15	846.74	1.01
1	343.15	870.62	1.01

System: cyclopropylmethanol + butylcyclohexane; phases: Liquid
Fixed: Pressure, kPa = 100
Property: Viscosity, Pa*s (Liquid); method: Falling or rolling sphere viscometry
Mole fraction of cyclopropylmethanol	Temperature, K	Viscosity, Pa*s	uncertainty
0	293.15	0.001305	2.8e-05
0.1039	293.15	0.001319	2.8e-05
0.2031	293.15	0.001383	2.9e-05
0.3022	293.15	0.001475	3.1e-05
0.3997	293.15	0.001602	3.4e-05
0.4993	293.15	0.001778	3.8e-05
0.5994	293.15	0.002006	4.3e-05
0.7	293.15	0.002299	4.9e-05
0.797	293.15	0.00267	5.7e-05
0.9004	293.15	0.00323	6.9e-05
1	293.15	0.004029	8.6e-05
0	298.15	0.001202	2.6e-05
0.1039	298.15	0.001212	2.6e-05
0.2031	298.15	0.001265	2.7e-05
0.3022	298.15	0.001343	2.9e-05
0.3997	298.15	0.001451	3.1e-05
0.4993	298.15	0.001601	3.4e-05
0.5994	298.15	0.00179	3.8e-05
0.7	298.15	0.002038	4.4e-05
0.797	298.15	0.002355	5e-05
0.9004	298.15	0.002821	6e-05
1	298.15	0.003485	7.5e-05
0	303.15	0.001112	2.4e-05
0.1039	303.15	0.001117	2.4e-05
0.2031	303.15	0.001162	2.5e-05
0.3022	303.15	0.001228	2.6e-05
0.3997	303.15	0.001319	2.8e-05
0.4993	303.15	0.001448	3.1e-05
0.5994	303.15	0.001607	3.4e-05
0.7	303.15	0.001817	3.9e-05
0.797	303.15	0.002084	4.5e-05
0.9004	303.15	0.00248	5.3e-05
1	303.15	0.003037	6.5e-05
0	308.15	0.001033	2.2e-05
0.1039	308.15	0.001034	2.2e-05
0.2031	308.15	0.001072	2.3e-05
0.3022	308.15	0.001128	2.4e-05
0.3997	308.15	0.001205	2.6e-05
0.4993	308.15	0.001315	2.8e-05
0.5994	308.15	0.00145	3.1e-05
0.7	308.15	0.001628	3.5e-05
0.797	308.15	0.001855	4e-05
0.9004	308.15	0.002192	4.7e-05
1	308.15	0.002661	5.7e-05
0	313.15	0.000963	2.1e-05
0.1039	313.15	0.00096	2e-05
0.2031	313.15	0.000984	2.1e-05
0.3022	313.15	0.00104	2.2e-05
0.3997	313.15	0.001106	2.4e-05
0.4993	313.15	0.001198	2.6e-05
0.5994	313.15	0.001314	2.8e-05
0.7	313.15	0.001466	3.1e-05
0.797	313.15	0.001659	3.6e-05
0.9004	313.15	0.001947	4.2e-05
1	313.15	0.002344	5e-05
0	318.15	0.000901	1.9e-05
0.1039	318.15	0.000895	1.9e-05
0.2031	318.15	0.000919	2e-05
0.3022	318.15	0.000963	2.1e-05
0.3997	318.15	0.001019	2.2e-05
0.4993	318.15	0.001098	2.3e-05
0.5994	318.15	0.001197	2.6e-05
0.7	318.15	0.001327	2.8e-05
0.797	318.15	0.001491	3.2e-05
0.9004	318.15	0.001735	3.7e-05
1	318.15	0.002074	4.4e-05
0	323.15	0.000844	1.8e-05
0.1039	323.15	0.000837	1.8e-05
0.2031	323.15	0.000861	1.8e-05
0.3022	323.15	0.000894	1.9e-05
0.3997	323.15	0.000941	2e-05
0.4993	323.15	0.00101	2.2e-05
0.5994	323.15	0.001094	2.3e-05
0.7	323.15	0.001205	2.6e-05
0.797	323.15	0.001345	2.9e-05
0.9004	323.15	0.001555	3.3e-05
1	323.15	0.001843	4e-05
0	328.15	0.000794	1.7e-05
0.1039	328.15	0.000784	1.7e-05
0.2031	328.15	0.000808	1.7e-05
0.3022	328.15	0.000832	1.8e-05
0.3997	328.15	0.000873	1.9e-05
0.4993	328.15	0.000931	2e-05
0.5994	328.15	0.001003	2.1e-05
0.7	328.15	0.001098	2.3e-05
0.797	328.15	0.00122	2.6e-05
0.9004	328.15	0.001399	3e-05
1	328.15	0.001646	3.5e-05
0	333.15	0.000749	1.6e-05
0.1039	333.15	0.000736	1.6e-05
0.2031	333.15	0.000758	1.6e-05
0.3022	333.15	0.000777	1.7e-05
0.3997	333.15	0.000812	1.7e-05
0.4993	333.15	0.000862	1.8e-05
0.5994	333.15	0.000923	2e-05
0.7	333.15	0.001005	2.2e-05
0.797	333.15	0.001109	2.4e-05
0.9004	333.15	0.001264	2.7e-05
1	333.15	0.001476	3.2e-05
0	338.15	0.000708	1.5e-05
0.1039	338.15	0.000697	1.5e-05
0.2031	338.15	0.000718	1.5e-05
0.3022	338.15	0.000733	1.6e-05
0.3997	338.15	0.000767	1.6e-05
0.4993	338.15	0.000801	1.7e-05
0.5994	338.15	0.000853	1.8e-05
0.7	338.15	0.000923	2e-05
0.797	338.15	0.001012	2.2e-05
0.9004	338.15	0.001146	2.5e-05
1	338.15	0.001328	2.8e-05
0	343.15	0.00067	1.4e-05
0.1039	343.15	0.000656	1.4e-05
0.2031	343.15	0.000668	1.4e-05
0.3022	343.15	0.000684	1.5e-05
0.3997	343.15	0.000709	1.5e-05
0.4993	343.15	0.000746	1.6e-05
0.5994	343.15	0.00079	1.7e-05
0.7	343.15	0.00085	1.8e-05
0.797	343.15	0.000928	2e-05
0.9004	343.15	0.001043	2.2e-05
1	343.15	0.001201	2.6e-05

System: dodecane + butylcyclohexane; phases: Liquid
Fixed: Pressure, kPa = 100
Property: Mass density, kg/m3 (Liquid); method: Vibrating tube method
Mole fraction of dodecane	Temperature, K	Mass density, kg/m3	uncertainty
0	293.15	799.34	1.01
0.1017	293.15	792.77	1.01
0.1996	293.15	786.82	1.01
0.2951	293.15	781.36	1.01
0.4221	293.15	774.55	1.01
0.5126	293.15	769.99	1.01
0.6256	293.15	764.59	1.01
0.7002	293.15	761.2	1.01
0.7989	293.15	756.92	1.01
0.9012	293.15	752.7	1.01
1	293.15	748.83	1.01
0	298.15	795.59	1.01
0.1017	298.15	789.05	1.01
0.1996	298.15	783.12	1.01
0.2951	298.15	777.68	1.01
0.4221	298.15	770.9	1.01
0.5126	298.15	766.35	1.01
0.6256	298.15	760.96	1.01
0.7002	298.15	757.57	1.01
0.7989	298.15	753.3	1.01
0.9012	298.15	749.09	1.01
1	298.15	745.23	1.01
0	303.15	791.84	1.01
0.1017	303.15	785.32	1.01
0.1996	303.15	779.41	1.01
0.2951	303.15	773.99	1.01
0.4221	303.15	767.22	1.01
0.5126	303.15	762.68	1.01
0.6256	303.15	757.3	1.01
0.7002	303.15	753.92	1.01
0.7989	303.15	749.66	1.01
0.9012	303.15	745.45	1.01
1	303.15	741.6	1.01
0	308.15	788.07	1.01
0.1017	308.15	781.58	1.01
0.1996	308.15	775.69	1.01
0.2951	308.15	770.28	1.01
0.4221	308.15	763.53	1.01
0.5126	308.15	759.01	1.01
0.6256	308.15	753.64	1.01
0.7002	308.15	750.27	1.01
0.7989	308.15	746.01	1.01
0.9012	308.15	741.81	1.01
1	308.15	737.97	1.01
0	313.15	784.3	1.01
0.1017	313.15	777.82	1.01
0.1996	313.15	771.96	1.01
0.2951	313.15	766.57	1.01
0.4221	313.15	759.84	1.01
0.5126	313.15	755.32	1.01
0.6256	313.15	749.97	1.01
0.7002	313.15	746.6	1.01
0.7989	313.15	742.35	1.01
0.9012	313.15	738.16	1.01
1	313.15	734.33	1.01
0	318.15	780.52	1.01
0.1017	318.15	774.07	1.01
0.1996	318.15	768.22	1.01
0.2951	318.15	762.85	1.01
0.4221	318.15	756.14	1.01
0.5126	318.15	751.63	1.01
0.6256	318.15	746.29	1.01
0.7002	318.15	742.93	1.01
0.7989	318.15	738.69	1.01
0.9012	318.15	734.5	1.01
1	318.15	730.68	1.01
0	323.15	776.74	1.01
0.1017	323.15	770.3	1.01
0.1996	323.15	764.47	1.01
0.2951	323.15	759.12	1.01
0.4221	323.15	752.42	1.01
0.5126	323.15	747.93	1.01
0.6256	323.15	742.6	1.01
0.7002	323.15	739.25	1.01
0.7989	323.15	735.02	1.01
0.9012	323.15	730.84	1.01
1	323.15	727.01	1.01
0	328.15	772.93	1.01
0.1017	328.15	766.52	1.01
0.1996	328.15	760.71	1.01
0.2951	328.15	755.37	1.01
0.4221	328.15	748.7	1.01
0.5126	328.15	744.22	1.01
0.6256	328.15	738.9	1.01
0.7002	328.15	735.56	1.01
0.7989	328.15	731.33	1.01
0.9012	328.15	727.16	1.01
1	328.15	723.35	1.01
0	333.15	769.13	1.01
0.1017	333.15	762.73	1.01
0.1996	333.15	756.94	1.01
0.2951	333.15	751.62	1.01
0.4221	333.15	744.96	1.01
0.5126	333.15	740.49	1.01
0.6256	333.15	735.19	1.01
0.7002	333.15	731.86	1.01
0.7989	333.15	727.64	1.01
0.9012	333.15	723.48	1.01
1	333.15	719.67	1.01
0	338.15	765.3	1.01
0.1017	338.15	758.93	1.01
0.1996	338.15	753.16	1.01
0.2951	338.15	747.85	1.01
0.4221	338.15	741.21	1.01
0.5126	338.15	736.75	1.01
0.6256	338.15	731.47	1.01
0.7002	338.15	728.14	1.01
0.7989	338.15	723.94	1.01
0.9012	338.15	719.78	1.01
1	338.15	715.98	1.01
0	343.15	761.47	1.01
0.1017	343.15	755.12	1.01
0.1996	343.15	749.37	1.01
0.2951	343.15	744.07	1.01
0.4221	343.15	737.45	1.01
0.5126	343.15	733	1.01
0.6256	343.15	727.73	1.01
0.7002	343.15	724.41	1.01
0.7989	343.15	720.22	1.01
0.9012	343.15	716.08	1.01
1	343.15	712.28	1.01

System: dodecane + butylcyclohexane; phases: Liquid
Fixed: Pressure, kPa = 100
Property: Viscosity, Pa*s (Liquid); method: Falling or rolling sphere viscometry
Mole fraction of dodecane	Temperature, K	Viscosity, Pa*s	uncertainty
0	293.15	0.001305	2.8e-05
0.1017	293.15	0.001319	2.8e-05
0.1996	293.15	0.001334	2.8e-05
0.2951	293.15	0.001348	2.9e-05
0.4221	293.15	0.001369	2.9e-05
0.5126	293.15	0.001384	2.9e-05
0.6256	293.15	0.001404	3e-05
0.7002	293.15	0.001418	3e-05
0.7989	293.15	0.001437	3.1e-05
0.9012	293.15	0.001457	3.1e-05
1	293.15	0.001481	3.1e-05
0	298.15	0.001202	2.6e-05
0.1017	298.15	0.001215	2.6e-05
0.1996	298.15	0.001228	2.6e-05
0.2951	298.15	0.001241	2.6e-05
0.4221	298.15	0.001258	2.7e-05
0.5126	298.15	0.001272	2.7e-05
0.6256	298.15	0.001289	2.7e-05
0.7002	298.15	0.0013	2.8e-05
0.7989	298.15	0.001318	2.8e-05
0.9012	298.15	0.001335	2.8e-05
1	298.15	0.001355	2.9e-05
0	303.15	0.001112	2.4e-05
0.1017	303.15	0.001123	2.4e-05
0.1996	303.15	0.001135	2.4e-05
0.2951	303.15	0.001146	2.4e-05
0.4221	303.15	0.001162	2.5e-05
0.5126	303.15	0.001173	2.5e-05
0.6256	303.15	0.001187	2.5e-05
0.7002	303.15	0.001197	2.5e-05
0.7989	303.15	0.001211	2.6e-05
0.9012	303.15	0.001226	2.6e-05
1	303.15	0.001244	2.6e-05
0	308.15	0.001033	2.2e-05
0.1017	308.15	0.001043	2.2e-05
0.1996	308.15	0.001053	2.2e-05
0.2951	308.15	0.001063	2.3e-05
0.4221	308.15	0.001076	2.3e-05
0.5126	308.15	0.001086	2.3e-05
0.6256	308.15	0.0011	2.3e-05
0.7002	308.15	0.001108	2.4e-05
0.7989	308.15	0.001122	2.4e-05
0.9012	308.15	0.001137	2.4e-05
1	308.15	0.001151	2.4e-05
0	313.15	0.000963	2.1e-05
0.1017	313.15	0.000971	2.1e-05
0.1996	313.15	0.00098	2.1e-05
0.2951	313.15	0.000989	2.1e-05
0.4221	313.15	0.001001	2.1e-05
0.5126	313.15	0.001009	2.1e-05
0.6256	313.15	0.001021	2.2e-05
0.7002	313.15	0.001029	2.2e-05
0.7989	313.15	0.001041	2.2e-05
0.9012	313.15	0.001054	2.2e-05
1	313.15	0.001066	2.3e-05
0	318.15	0.000901	1.9e-05
0.1017	318.15	0.000908	1.9e-05
0.1996	318.15	0.000915	1.9e-05
0.2951	318.15	0.000923	2e-05
0.4221	318.15	0.000934	2e-05
0.5126	318.15	0.000942	2e-05
0.6256	318.15	0.000952	2e-05
0.7002	318.15	0.000959	2e-05
0.7989	318.15	0.000969	2.1e-05
0.9012	318.15	0.00098	2.1e-05
1	318.15	0.000992	2.1e-05
0	323.15	0.000844	1.8e-05
0.1017	323.15	0.000851	1.8e-05
0.1996	323.15	0.000858	1.8e-05
0.2951	323.15	0.000864	1.8e-05
0.4221	323.15	0.000874	1.9e-05
0.5126	323.15	0.000881	1.9e-05
0.6256	323.15	0.00089	1.9e-05
0.7002	323.15	0.000896	1.9e-05
0.7989	323.15	0.000905	1.9e-05
0.9012	323.15	0.000915	1.9e-05
1	323.15	0.000926	2e-05
0	328.15	0.000794	1.7e-05
0.1017	328.15	0.0008	1.7e-05
0.1996	328.15	0.000806	1.7e-05
0.2951	328.15	0.000812	1.7e-05
0.4221	328.15	0.000821	1.7e-05
0.5126	328.15	0.000827	1.8e-05
0.6256	328.15	0.000834	1.8e-05
0.7002	328.15	0.00084	1.8e-05
0.7989	328.15	0.000848	1.8e-05
0.9012	328.15	0.000858	1.8e-05
1	328.15	0.000867	1.8e-05
0	333.15	0.000749	1.6e-05
0.1017	333.15	0.000754	1.6e-05
0.1996	333.15	0.000759	1.6e-05
0.2951	333.15	0.000763	1.6e-05
0.4221	333.15	0.000771	1.6e-05
0.5126	333.15	0.000775	1.7e-05
0.6256	333.15	0.000781	1.7e-05
0.7002	333.15	0.000787	1.7e-05
0.7989	333.15	0.000794	1.7e-05
0.9012	333.15	0.000803	1.7e-05
1	333.15	0.000814	1.7e-05
0	338.15	0.000708	1.5e-05
0.1017	338.15	0.000712	1.5e-05
0.1996	338.15	0.000716	1.5e-05
0.2951	338.15	0.000721	1.5e-05
0.4221	338.15	0.000728	1.6e-05
0.5126	338.15	0.000733	1.6e-05
0.6256	338.15	0.000738	1.6e-05
0.7002	338.15	0.000742	1.6e-05
0.7989	338.15	0.000749	1.6e-05
0.9012	338.15	0.000756	1.6e-05
1	338.15	0.000765	1.6e-05
0	343.15	0.00067	1.4e-05
0.1017	343.15	0.000674	1.4e-05
0.1996	343.15	0.000678	1.4e-05
0.2951	343.15	0.000682	1.5e-05
0.4221	343.15	0.000687	1.5e-05
0.5126	343.15	0.000691	1.5e-05
0.6256	343.15	0.000696	1.5e-05
0.7002	343.15	0.000701	1.5e-05
0.7989	343.15	0.000708	1.5e-05
0.9012	343.15	0.000715	1.5e-05
1	343.15	0.000724	1.5e-05

System: cyclopropylmethanol + dodecane + butylcyclohexane; phases: Liquid
Fixed: Pressure, kPa = 100
Property: Mass density, kg/m3 (Liquid); method: Vibrating tube method
Mole fraction of cyclopropylmethanol	Mole fraction of dodecane	Temperature, K	Mass density, kg/m3	uncertainty
0.1032	0.0997	293.15	796.95	1.01
0.1023	0.1995	293.15	790.41	1.01
0.1012	0.2989	293.15	784.23	1.01
0.0978	0.4022	293.15	778.13	1.01
0.1034	0.4979	293.15	773.15	1.01
0.1031	0.5971	293.15	768.04	1.01
0.1013	0.6885	293.15	763.47	1.01
0.1007	0.7982	293.15	758.49	1.01
0.2016	0.0995	293.15	801.7	1
0.2032	0.199	293.15	794.84	1.01
0.2003	0.2993	293.15	788.11	1.01
0.203	0.3979	293.15	782.09	1.01
0.2015	0.499	293.15	776.14	1.01
0.2004	0.5982	293.15	770.62	1.01
0.213	0.6879	293.15	766.37	1.01
0.3005	0.1005	293.15	807.42	1.01
0.3014	0.1991	293.15	799.9	1
0.2985	0.3012	293.15	792.41	1.01
0.3003	0.3991	293.15	785.98	1.01
0.3085	0.4943	293.15	780.12	1.01
0.294	0.5831	293.15	774.55	1.01
0.3989	0.1007	293.15	813.96	1.01
0.3994	0.2009	293.15	805.48	1.01
0.399	0.3036	293.15	797.44	1.01
0.4035	0.3978	293.15	790.94	1.01
0.401	0.5006	293.15	783.84	1.01
0.5013	0.1	293.15	822.06	1.01
0.4991	0.2028	293.15	812.36	1.01
0.5003	0.2994	293.15	803.92	1.01
0.4941	0.3973	293.15	795.97	1.01
0.5974	0.1031	293.15	830.61	1.01
0.6007	0.1996	293.15	820.84	1.01
0.5998	0.3017	293.15	811.21	1.01
0.696	0.1023	293.15	841.23	1.01
0.6972	0.2016	293.15	829.79	1.01
0.7991	0.0999	293.15	855.03	1.01
0.1032	0.0997	298.15	793.13	1.01
0.1023	0.1995	298.15	786.6	1
0.1012	0.2989	298.15	780.47	1.01
0.0978	0.4022	298.15	774.37	1.01
0.1034	0.4979	298.15	769.41	1.01
0.1031	0.5971	298.15	764.32	1.01
0.1013	0.6885	298.15	759.78	1.01
0.1007	0.7982	298.15	754.78	1.01
0.2016	0.0995	298.15	797.84	1.01
0.2032	0.199	298.15	791.02	1.01
0.2003	0.2993	298.15	784.31	1.01
0.203	0.3979	298.15	778.3	1
0.2015	0.499	298.15	772.38	1.01
0.2004	0.5982	298.15	766.86	1.01
0.213	0.6879	298.15	762.62	1.01
0.3005	0.1005	298.15	803.54	1.01
0.3014	0.1991	298.15	796.04	1.01
0.2985	0.3012	298.15	788.61	1.01
0.3003	0.3991	298.15	782.16	1.01
0.3085	0.4943	298.15	776.52	1.01
0.294	0.5831	298.15	770.74	1.01
0.3989	0.1007	298.15	810.04	1.01
0.3994	0.2009	298.15	801.6	1
0.399	0.3036	298.15	793.57	1.01
0.4035	0.3978	298.15	787.09	1.01
0.401	0.5006	298.15	780.01	1.01
0.5013	0.1	298.15	818.13	1.01
0.4991	0.2028	298.15	808.44	1.01
0.5003	0.2994	298.15	800.16	1.01
0.4941	0.3973	298.15	792.09	1.01
0.5974	0.1031	298.15	826.65	1.01
0.6007	0.1996	298.15	816.91	1.01
0.5998	0.3017	298.15	807.3	1
0.696	0.1023	298.15	837.25	1.01
0.6972	0.2016	298.15	825.84	1.01
0.7991	0.0999	298.15	851.03	1.01
0.1032	0.0997	303.15	789.29	1.01
0.1023	0.1995	303.15	782.79	1.01
0.1012	0.2989	303.15	776.67	1.01
0.0978	0.4022	303.15	770.59	1.01
0.1034	0.4979	303.15	765.64	1.01
0.1031	0.5971	303.15	760.56	1.01
0.1013	0.6885	303.15	756.04	1.01
0.1007	0.7982	303.15	751.04	1.01
0.2016	0.0995	303.15	793.96	1.01
0.2032	0.199	303.15	787.16	1.01
0.2003	0.2993	303.15	780.47	1.01
0.203	0.3979	303.15	774.48	1.01
0.2015	0.499	303.15	768.57	1.01
0.2004	0.5982	303.15	763.07	1.01
0.213	0.6879	303.15	758.84	1.01
0.3005	0.1005	303.15	799.62	1.01
0.3014	0.1991	303.15	792.14	1.01
0.2985	0.3012	303.15	784.74	1.01
0.3003	0.3991	303.15	778.3	1
0.3085	0.4943	303.15	772.61	1.01
0.294	0.5831	303.15	766.92	1.01
0.3989	0.1007	303.15	806.1	1
0.3994	0.2009	303.15	797.67	1.01
0.399	0.3036	303.15	789.68	1.01
0.4035	0.3978	303.15	783.21	1.01
0.401	0.5006	303.15	776.14	1.01
0.5013	0.1	303.15	814.14	1.01
0.4991	0.2028	303.15	804.48	1.01
0.5003	0.2994	303.15	796.26	1.01
0.4941	0.3973	303.15	788.18	1.01
0.5974	0.1031	303.15	822.65	1.01
0.6007	0.1996	303.15	812.93	1.01
0.5998	0.3017	303.15	803.34	1.01
0.696	0.1023	303.15	833.24	1.01
0.6972	0.2016	303.15	821.86	1.01
0.7991	0.0999	303.15	847	1
0.1032	0.0997	308.15	785.43	1.01
0.1023	0.1995	308.15	778.95	1.01
0.1012	0.2989	308.15	772.86	1.01
0.0978	0.4022	308.15	766.8	1
0.1034	0.4979	308.15	761.86	1.01
0.1031	0.5971	308.15	756.8	1
0.1013	0.6885	308.15	752.28	1.01
0.1007	0.7982	308.15	747.3	1
0.2016	0.0995	308.15	790.06	1.01
0.2032	0.199	308.15	783.28	1.01
0.2003	0.2993	308.15	776.61	1.01
0.203	0.3979	308.15	770.64	1.01
0.2015	0.499	308.15	764.75	1.01
0.2004	0.5982	308.15	759.27	1.01
0.213	0.6879	308.15	755.03	1.01
0.3005	0.1005	308.15	795.68	1.01
0.3014	0.1991	308.15	788.23	1.01
0.2985	0.3012	308.15	780.84	1.01
0.3003	0.3991	308.15	774.43	1.01
0.3085	0.4943	308.15	768.71	1.01
0.294	0.5831	308.15	763.07	1.01
0.3989	0.1007	308.15	802.12	1.01
0.3994	0.2009	308.15	793.72	1.01
0.399	0.3036	308.15	785.74	1.01
0.4035	0.3978	308.15	779.3	1
0.401	0.5006	308.15	772.24	1.01
0.5013	0.1	308.15	810.13	1.01
0.4991	0.2028	308.15	800.5	1
0.5003	0.2994	308.15	792.3	1
0.4941	0.3973	308.15	784.24	1.01
0.5974	0.1031	308.15	818.62	1.01
0.6007	0.1996	308.15	808.93	1.01
0.5998	0.3017	308.15	799.36	1.01
0.696	0.1023	308.15	829.19	1.01
0.6972	0.2016	308.15	817.83	1.01
0.7991	0.0999	308.15	842.93	1.01
0.1032	0.0997	313.15	781.56	1.01
0.1023	0.1995	313.15	775.1	1
0.1012	0.2989	313.15	769.03	1.01
0.0978	0.4022	313.15	762.99	1.01
0.1034	0.4979	313.15	758.06	1.01
0.1031	0.5971	313.15	753.01	1.01
0.1013	0.6885	313.15	748.51	1.01
0.1007	0.7982	313.15	743.53	1.01
0.2016	0.0995	313.15	786.13	1.01
0.2032	0.199	313.15	779.37	1.01
0.2003	0.2993	313.15	772.73	1.01
0.203	0.3979	313.15	766.77	1.01
0.2015	0.499	313.15	760.9	1
0.2004	0.5982	313.15	755.43	1.01
0.213	0.6879	313.15	751.2	1
0.3005	0.1005	313.15	791.7	1
0.3014	0.1991	313.15	784.28	1.01
0.2985	0.3012	313.15	776.92	1.01
0.3003	0.3991	313.15	770.53	1.01
0.3085	0.4943	313.15	764.82	1.01
0.294	0.5831	313.15	759.2	1
0.3989	0.1007	313.15	798.1	1
0.3994	0.2009	313.15	789.73	1.01
0.399	0.3036	313.15	781.78	1.01
0.4035	0.3978	313.15	775.35	1.01
0.401	0.5006	313.15	768.32	1.01
0.5013	0.1	313.15	806.08	1.01
0.4991	0.2028	313.15	796.48	1.01
0.5003	0.2994	313.15	788.31	1.01
0.4941	0.3973	313.15	780.27	1.01
0.5974	0.1031	313.15	814.54	1.01
0.6007	0.1996	313.15	804.88	1.01
0.5998	0.3017	313.15	795.34	1.01
0.696	0.1023	313.15	825.1	1
0.6972	0.2016	313.15	813.76	1.01
0.7991	0.0999	313.15	838.82	1.01
0.1032	0.0997	318.15	777.66	1.01
0.1023	0.1995	318.15	771.23	1.01
0.1012	0.2989	318.15	765.18	1.01
0.0978	0.4022	318.15	759.18	1.01
0.1034	0.4979	318.15	754.24	1.01
0.1031	0.5971	318.15	749.21	1.01
0.1013	0.6885	318.15	744.72	1.01
0.1007	0.7982	318.15	739.75	1.01
0.2016	0.0995	318.15	782.18	1.01
0.2032	0.199	318.15	775.44	1.01
0.2003	0.2993	318.15	768.82	1.01
0.203	0.3979	318.15	762.89	1.01
0.2015	0.499	318.15	757.03	1.01
0.2004	0.5982	318.15	751.58	1.01
0.213	0.6879	318.15	747.35	1.01
0.3005	0.1005	318.15	787.7	1
0.3014	0.1991	318.15	780.31	1.01
0.2985	0.3012	318.15	772.97	1.01
0.3003	0.3991	318.15	766.6	1
0.3085	0.4943	318.15	760.91	1.01
0.294	0.5831	318.15	755.3	1
0.3989	0.1007	318.15	794.06	1.01
0.3994	0.2009	318.15	785.71	1.01
0.399	0.3036	318.15	777.79	1.01
0.4035	0.3978	318.15	771.38	1.01
0.401	0.5006	318.15	764.36	1.01
0.5013	0.1	318.15	802	1
0.4991	0.2028	318.15	792.43	1.01
0.5003	0.2994	318.15	784.28	1.01
0.4941	0.3973	318.15	776.27	1.01
0.5974	0.1031	318.15	810.43	1.01
0.6007	0.1996	318.15	800.8	1
0.5998	0.3017	318.15	791.29	1.01
0.696	0.1023	318.15	820.97	1.01
0.6972	0.2016	318.15	809.66	1.01
0.7991	0.0999	318.15	834.67	1.01
0.1032	0.0997	323.15	773.75	1.01
0.1023	0.1995	323.15	767.34	1.01
0.1012	0.2989	323.15	761.31	1.01
0.0978	0.4022	323.15	755.31	1.01
0.1034	0.4979	323.15	750.4	1
0.1031	0.5971	323.15	745.38	1.01
0.1013	0.6885	323.15	740.91	1.01
0.1007	0.7982	323.15	735.95	1.01
0.2016	0.0995	323.15	778.2	1
0.2032	0.199	323.15	771.49	1.01
0.2003	0.2993	323.15	764.89	1.01
0.203	0.3979	323.15	758.97	1.01
0.2015	0.499	323.15	753.13	1.01
0.2004	0.5982	323.15	747.7	1
0.213	0.6879	323.15	743.48	1.01
0.3005	0.1005	323.15	783.68	1.01
0.3014	0.1991	323.15	776.31	1.01
0.2985	0.3012	323.15	768.99	1.01
0.3003	0.3991	323.15	762.64	1.01
0.3085	0.4943	323.15	756.98	1.01
0.294	0.5831	323.15	751.37	1.01
0.3989	0.1007	323.15	789.99	1.01
0.3994	0.2009	323.15	781.67	1.01
0.399	0.3036	323.15	773.77	1.01
0.4035	0.3978	323.15	767.38	1.01
0.401	0.5006	323.15	760.38	1.01
0.5013	0.1	323.15	797.89	1.01
0.4991	0.2028	323.15	788.34	1.01
0.5003	0.2994	323.15	780.22	1.01
0.4941	0.3973	323.15	772.23	1.01
0.5974	0.1031	323.15	806.28	1.01
0.6007	0.1996	323.15	796.68	1.01
0.5998	0.3017	323.15	787.19	1.01
0.696	0.1023	323.15	816.79	1.01
0.6972	0.2016	323.15	805.52	1.01
0.7991	0.0999	323.15	830.47	1.01
0.1032	0.0997	328.15	769.82	1.01
0.1023	0.1995	328.15	763.42	1.01
0.1012	0.2989	328.15	757.42	1.01
0.0978	0.4022	328.15	751.44	1.01
0.1034	0.4979	328.15	746.54	1.01
0.1031	0.5971	328.15	741.54	1.01
0.1013	0.6885	328.15	737.08	1.01
0.1007	0.7982	328.15	732.14	1.01
0.2016	0.0995	328.15	774.2	1
0.2032	0.199	328.15	767.51	1.01
0.2003	0.2993	328.15	760.94	1.01
0.203	0.3979	328.15	755.03	1.01
0.2015	0.499	328.15	749.21	1.01
0.2004	0.5982	328.15	743.79	1.01
0.213	0.6879	328.15	739.58	1.01
0.3005	0.1005	328.15	779.62	1.01
0.3014	0.1991	328.15	772.27	1.01
0.2985	0.3012	328.15	764.98	1.01
0.3003	0.3991	328.15	758.65	1.01
0.3085	0.4943	328.15	752.98	1.01
0.294	0.5831	328.15	747.42	1.01
0.3989	0.1007	328.15	785.87	1.01
0.3994	0.2009	328.15	777.59	1.01
0.399	0.3036	328.15	769.71	1.01
0.4035	0.3978	328.15	763.34	1.01
0.401	0.5006	328.15	756.36	1.01
0.5013	0.1	328.15	793.73	1.01
0.4991	0.2028	328.15	784.22	1.01
0.5003	0.2994	328.15	776.12	1.01
0.4941	0.3973	328.15	768.15	1.01
0.5974	0.1031	328.15	802.09	1.01
0.6007	0.1996	328.15	792.52	1.01
0.5998	0.3017	328.15	783.06	1.01
0.696	0.1023	328.15	812.57	1.01
0.6972	0.2016	328.15	801.33	1.01
0.7991	0.0999	328.15	826.23	1.01
0.1032	0.0997	333.15	765.86	1.01
0.1023	0.1995	333.15	759.5	1
0.1012	0.2989	333.15	753.52	1.01
0.0978	0.4022	333.15	747.56	1.01
0.1034	0.4979	333.15	742.67	1.01
0.1031	0.5971	333.15	737.68	1.01
0.1013	0.6885	333.15	733.23	1.01
0.1007	0.7982	333.15	728.3	1
0.2016	0.0995	333.15	770.16	1.01
0.2032	0.199	333.15	763.5	1
0.2003	0.2993	333.15	756.95	1.01
0.203	0.3979	333.15	751.07	1.01
0.2015	0.499	333.15	745.26	1.01
0.2004	0.5982	333.15	739.87	1.01
0.213	0.6879	333.15	735.66	1.01
0.3005	0.1005	333.15	775.52	1.01
0.3014	0.1991	333.15	768.2	1
0.2985	0.3012	333.15	760.94	1.01
0.3003	0.3991	333.15	754.63	1.01
0.3085	0.4943	333.15	748.98	1.01
0.294	0.5831	333.15	743.43	1.01
0.3989	0.1007	333.15	781.73	1.01
0.3994	0.2009	333.15	773.47	1.01
0.399	0.3036	333.15	765.62	1.01
0.4035	0.3978	333.15	759.27	1.01
0.401	0.5006	333.15	752.31	1.01
0.5013	0.1	333.15	789.54	1.01
0.4991	0.2028	333.15	780.05	1.01
0.5003	0.2994	333.15	771.98	1.01
0.4941	0.3973	333.15	764.04	1.01
0.5974	0.1031	333.15	797.86	1.01
0.6007	0.1996	333.15	788.31	1.01
0.5998	0.3017	333.15	778.88	1.01
0.696	0.1023	333.15	808.3	1
0.6972	0.2016	333.15	797.09	1.01
0.7991	0.0999	333.15	821.93	1.01
0.1032	0.0997	338.15	761.89	1.01
0.1023	0.1995	338.15	755.54	1.01
0.1012	0.2989	338.15	749.59	1.01
0.0978	0.4022	338.15	743.65	1.01
0.1034	0.4979	338.15	738.78	1.01
0.1031	0.5971	338.15	733.81	1.01
0.1013	0.6885	338.15	729.37	1.01
0.1007	0.7982	338.15	724.46	1.01
0.2016	0.0995	338.15	766.1	1
0.2032	0.199	338.15	759.46	1.01
0.2003	0.2993	338.15	752.94	1.01
0.203	0.3979	338.15	747.07	1.01
0.2015	0.499	338.15	741.29	1.01
0.2004	0.5982	338.15	735.91	1.01
0.213	0.6879	338.15	731.71	1.01
0.3005	0.1005	338.15	771.4	1
0.3014	0.1991	338.15	764.1	1
0.2985	0.3012	338.15	756.86	1.01
0.3003	0.3991	338.15	750.57	1.01
0.3085	0.4943	338.15	744.93	1.01
0.294	0.5831	338.15	739.41	1.01
0.3989	0.1007	338.15	777.54	1.01
0.3994	0.2009	338.15	769.31	1.01
0.399	0.3036	338.15	761.49	1.01
0.4035	0.3978	338.15	755.16	1.01
0.401	0.5006	338.15	748.22	1.01
0.5013	0.1	338.15	785.3	1
0.4991	0.2028	338.15	775.84	1.01
0.5003	0.2994	338.15	767.8	1
0.4941	0.3973	338.15	759.88	1.01
0.5974	0.1031	338.15	793.58	1.01
0.6007	0.1996	338.15	784.06	1.01
0.5998	0.3017	338.15	774.66	1.01
0.696	0.1023	338.15	803.98	1.01
0.6972	0.2016	338.15	792.8	1
0.7991	0.0999	338.15	817.58	1.01
0.1032	0.0997	343.15	757.9	1
0.1023	0.1995	343.15	751.58	1.01
0.1012	0.2989	343.15	745.65	1.01
0.0978	0.4022	343.15	739.73	1.01
0.1034	0.4979	343.15	734.87	1.01
0.1031	0.5971	343.15	729.91	1.01
0.1013	0.6885	343.15	725.49	1.01
0.1007	0.7982	343.15	720.59	1.01
0.2016	0.0995	343.15	762.01	1.01
0.2032	0.199	343.15	755.4	1
0.2003	0.2993	343.15	748.9	1
0.203	0.3979	343.15	743.05	1.01
0.2015	0.499	343.15	737.29	1.01
0.2004	0.5982	343.15	731.93	1.01
0.213	0.6879	343.15	727.73	1.01
0.3005	0.1005	343.15	767.23	1.01
0.3014	0.1991	343.15	759.97	1.01
0.2985	0.3012	343.15	752.76	1.01
0.3003	0.3991	343.15	746.49	1.01
0.3085	0.4943	343.15	740.86	1.01
0.294	0.5831	343.15	735.37	1.01
0.3989	0.1007	343.15	773.32	1.01
0.3994	0.2009	343.15	765.12	1.01
0.399	0.3036	343.15	757.32	1.01
0.4035	0.3978	343.15	751.01	1.01
0.401	0.5006	343.15	744.1	1
0.5013	0.1	343.15	781.01	1.01
0.4991	0.2028	343.15	771.59	1.01
0.5003	0.2994	343.15	763.58	1.01
0.4941	0.3973	343.15	755.69	1.01
0.5974	0.1031	343.15	789.24	1.01
0.6007	0.1996	343.15	779.76	1.01
0.5998	0.3017	343.15	770.38	1.01
0.696	0.1023	343.15	799.6	1
0.6972	0.2016	343.15	788.46	1.01
0.7991	0.0999	343.15	813.18	1.01

System: cyclopropylmethanol + dodecane + butylcyclohexane; phases: Liquid
Fixed: Pressure, kPa = 100
Property: Viscosity, Pa*s (Liquid); method: Falling or rolling sphere viscometry
Mole fraction of cyclopropylmethanol	Mole fraction of dodecane	Temperature, K	Viscosity, Pa*s	uncertainty
0.1032	0.0997	293.15	0.001337	2.8e-05
0.1023	0.1995	293.15	0.001351	2.9e-05
0.1012	0.2989	293.15	0.001371	2.9e-05
0.0978	0.4022	293.15	0.001386	3e-05
0.1034	0.4979	293.15	0.001403	3e-05
0.1031	0.5971	293.15	0.001418	3e-05
0.1013	0.6885	293.15	0.001438	3.1e-05
0.1007	0.7982	293.15	0.001458	3.1e-05
0.2016	0.0995	293.15	0.001391	3e-05
0.2032	0.199	293.15	0.001409	3e-05
0.2003	0.2993	293.15	0.001425	3e-05
0.203	0.3979	293.15	0.001446	3.1e-05
0.2015	0.499	293.15	0.001466	3.1e-05
0.2004	0.5982	293.15	0.001477	3.1e-05
0.213	0.6879	293.15	0.001511	3.2e-05
0.3005	0.1005	293.15	0.001482	3.2e-05
0.3014	0.1991	293.15	0.001501	3.2e-05
0.2985	0.3012	293.15	0.001515	3.2e-05
0.3003	0.3991	293.15	0.001537	3.3e-05
0.3085	0.4943	293.15	0.001568	3.3e-05
0.294	0.5831	293.15	0.001534	3.3e-05
0.3989	0.1007	293.15	0.001612	3.4e-05
0.3994	0.2009	293.15	0.00163	4e-05
0.399	0.3036	293.15	0.001647	3.5e-05
0.4035	0.3978	293.15	0.001673	3.6e-05
0.401	0.5006	293.15	0.00169	4e-05
0.5013	0.1	293.15	0.001791	3.8e-05
0.4991	0.2028	293.15	0.001802	3.8e-05
0.5003	0.2994	293.15	0.001821	3.9e-05
0.4941	0.3973	293.15	0.00183	4e-05
0.5974	0.1031	293.15	0.002002	4.3e-05
0.6007	0.1996	293.15	0.002029	4.3e-05
0.5998	0.3017	293.15	0.002054	4.4e-05
0.696	0.1023	293.15	0.002288	4.9e-05
0.6972	0.2016	293.15	0.002309	4.9e-05
0.7991	0.0999	293.15	0.002672	5.7e-05
0.1032	0.0997	298.15	0.001226	2.6e-05
0.1023	0.1995	298.15	0.00124	3e-05
0.1012	0.2989	298.15	0.001257	2.7e-05
0.0978	0.4022	298.15	0.001269	2.7e-05
0.1034	0.4979	298.15	0.001284	2.7e-05
0.1031	0.5971	298.15	0.001299	2.8e-05
0.1013	0.6885	298.15	0.001316	2.8e-05
0.1007	0.7982	298.15	0.001331	2.8e-05
0.2016	0.0995	298.15	0.001272	2.7e-05
0.2032	0.199	298.15	0.001288	2.7e-05
0.2003	0.2993	298.15	0.001302	2.8e-05
0.203	0.3979	298.15	0.00132	3e-05
0.2015	0.499	298.15	0.001337	2.8e-05
0.2004	0.5982	298.15	0.001347	2.9e-05
0.213	0.6879	298.15	0.001375	2.9e-05
0.3005	0.1005	298.15	0.00135	3e-05
0.3014	0.1991	298.15	0.001366	2.9e-05
0.2985	0.3012	298.15	0.001378	2.9e-05
0.3003	0.3991	298.15	0.001396	3e-05
0.3085	0.4943	298.15	0.001423	3e-05
0.294	0.5831	298.15	0.001426	3e-05
0.3989	0.1007	298.15	0.00146	3e-05
0.3994	0.2009	298.15	0.001475	3.1e-05
0.399	0.3036	298.15	0.001489	3.2e-05
0.4035	0.3978	298.15	0.001511	3.2e-05
0.401	0.5006	298.15	0.001524	3.2e-05
0.5013	0.1	298.15	0.00161	3e-05
0.4991	0.2028	298.15	0.001619	3.5e-05
0.5003	0.2994	298.15	0.001635	3.5e-05
0.4941	0.3973	298.15	0.001642	3.5e-05
0.5974	0.1031	298.15	0.001784	3.8e-05
0.6007	0.1996	298.15	0.00181	4e-05
0.5998	0.3017	298.15	0.00183	4e-05
0.696	0.1023	298.15	0.002029	4.3e-05
0.6972	0.2016	298.15	0.002046	4.4e-05
0.7991	0.0999	298.15	0.002353	5e-05
0.1032	0.0997	303.15	0.001131	2.4e-05
0.1023	0.1995	303.15	0.001142	2.4e-05
0.1012	0.2989	303.15	0.001159	2.5e-05
0.0978	0.4022	303.15	0.001169	2.5e-05
0.1034	0.4979	303.15	0.001182	2.5e-05
0.1031	0.5971	303.15	0.001193	2.5e-05
0.1013	0.6885	303.15	0.00121	3e-05
0.1007	0.7982	303.15	0.001222	2.6e-05
0.2016	0.0995	303.15	0.001169	2.5e-05
0.2032	0.199	303.15	0.001183	2.5e-05
0.2003	0.2993	303.15	0.001195	2.5e-05
0.203	0.3979	303.15	0.00121	3e-05
0.2015	0.499	303.15	0.001226	2.6e-05
0.2004	0.5982	303.15	0.001235	2.6e-05
0.213	0.6879	303.15	0.001257	2.7e-05
0.3005	0.1005	303.15	0.001235	2.6e-05
0.3014	0.1991	303.15	0.001249	2.7e-05
0.2985	0.3012	303.15	0.00126	3e-05
0.3003	0.3991	303.15	0.001276	2.7e-05
0.3085	0.4943	303.15	0.001298	2.8e-05
0.294	0.5831	303.15	0.001301	2.8e-05
0.3989	0.1007	303.15	0.001328	2.8e-05
0.3994	0.2009	303.15	0.001341	2.9e-05
0.399	0.3036	303.15	0.001353	2.9e-05
0.4035	0.3978	303.15	0.001372	2.9e-05
0.401	0.5006	303.15	0.001384	3e-05
0.5013	0.1	303.15	0.001454	3.1e-05
0.4991	0.2028	303.15	0.001463	3.1e-05
0.5003	0.2994	303.15	0.001476	3.2e-05
0.4941	0.3973	303.15	0.001483	3.2e-05
0.5974	0.1031	303.15	0.001605	3.4e-05
0.6007	0.1996	303.15	0.001625	3.5e-05
0.5998	0.3017	303.15	0.001642	3.5e-05
0.696	0.1023	303.15	0.00181	4e-05
0.6972	0.2016	303.15	0.001824	3.9e-05
0.7991	0.0999	303.15	0.002085	4.5e-05
0.1032	0.0997	308.15	0.001047	2.2e-05
0.1023	0.1995	308.15	0.001057	2.3e-05
0.1012	0.2989	308.15	0.00107	2e-05
0.0978	0.4022	308.15	0.00108	2e-05
0.1034	0.4979	308.15	0.001091	2.3e-05
0.1031	0.5971	308.15	0.001102	2.3e-05
0.1013	0.6885	308.15	0.001116	2.4e-05
0.1007	0.7982	308.15	0.001126	2.4e-05
0.2016	0.0995	308.15	0.001078	2.3e-05
0.2032	0.199	308.15	0.001091	2.3e-05
0.2003	0.2993	308.15	0.001102	2.3e-05
0.203	0.3979	308.15	0.001114	2.4e-05
0.2015	0.499	308.15	0.001129	2.4e-05
0.2004	0.5982	308.15	0.001136	2.4e-05
0.213	0.6879	308.15	0.001156	2.5e-05
0.3005	0.1005	308.15	0.001134	2.4e-05
0.3014	0.1991	308.15	0.001147	2.4e-05
0.2985	0.3012	308.15	0.001157	2.5e-05
0.3003	0.3991	308.15	0.001171	2.5e-05
0.3085	0.4943	308.15	0.001189	2.5e-05
0.294	0.5831	308.15	0.001193	2.5e-05
0.3989	0.1007	308.15	0.001214	2.6e-05
0.3994	0.2009	308.15	0.001224	2.6e-05
0.399	0.3036	308.15	0.001234	2.6e-05
0.4035	0.3978	308.15	0.001252	2.7e-05
0.401	0.5006	308.15	0.001262	2.7e-05
0.5013	0.1	308.15	0.001321	2.8e-05
0.4991	0.2028	308.15	0.001328	2.8e-05
0.5003	0.2994	308.15	0.00134	3e-05
0.4941	0.3973	308.15	0.001345	2.9e-05
0.5974	0.1031	308.15	0.001449	3.1e-05
0.6007	0.1996	308.15	0.001465	3.1e-05
0.5998	0.3017	308.15	0.001479	3.2e-05
0.696	0.1023	308.15	0.001623	3.5e-05
0.6972	0.2016	308.15	0.001635	3.5e-05
0.7991	0.0999	308.15	0.001857	4e-05
0.1032	0.0997	313.15	0.000972	2.1e-05
0.1023	0.1995	313.15	0.000981	2.1e-05
0.1012	0.2989	313.15	0.000993	2.1e-05
0.0978	0.4022	313.15	0.001002	2.1e-05
0.1034	0.4979	313.15	0.001012	2.2e-05
0.1031	0.5971	313.15	0.00102	2e-05
0.1013	0.6885	313.15	0.001034	2.2e-05
0.1007	0.7982	313.15	0.001042	2.2e-05
0.2016	0.0995	313.15	0.000998	2.1e-05
0.2032	0.199	313.15	0.00101	2e-05
0.2003	0.2993	313.15	0.001019	2.2e-05
0.203	0.3979	313.15	0.00103	2e-05
0.2015	0.499	313.15	0.001043	2.2e-05
0.2004	0.5982	313.15	0.001049	2.2e-05
0.213	0.6879	313.15	0.001066	2.3e-05
0.3005	0.1005	313.15	0.001047	2.2e-05
0.3014	0.1991	313.15	0.001058	2.3e-05
0.2985	0.3012	313.15	0.001066	2.3e-05
0.3003	0.3991	313.15	0.001078	2.3e-05
0.3085	0.4943	313.15	0.001094	2.3e-05
0.294	0.5831	313.15	0.001099	2.3e-05
0.3989	0.1007	313.15	0.001114	2.4e-05
0.3994	0.2009	313.15	0.001123	2.4e-05
0.399	0.3036	313.15	0.001132	2.4e-05
0.4035	0.3978	313.15	0.001147	2.4e-05
0.401	0.5006	313.15	0.001155	2.5e-05
0.5013	0.1	313.15	0.001206	2.6e-05
0.4991	0.2028	313.15	0.001211	2.6e-05
0.5003	0.2994	313.15	0.001221	2.6e-05
0.4941	0.3973	313.15	0.001226	2.6e-05
0.5974	0.1031	313.15	0.001312	2.8e-05
0.6007	0.1996	313.15	0.001328	2.8e-05
0.5998	0.3017	313.15	0.00134	3e-05
0.696	0.1023	313.15	0.001462	3.1e-05
0.6972	0.2016	313.15	0.001473	3.1e-05
0.7991	0.0999	313.15	0.001663	3.6e-05
0.1032	0.0997	318.15	0.000904	1.9e-05
0.1023	0.1995	318.15	0.000913	1.9e-05
0.1012	0.2989	318.15	0.000924	2e-05
0.0978	0.4022	318.15	0.000932	2e-05
0.1034	0.4979	318.15	0.000941	2e-05
0.1031	0.5971	318.15	0.000948	2e-05
0.1013	0.6885	318.15	0.000961	2e-05
0.1007	0.7982	318.15	0.000967	2.1e-05
0.2016	0.0995	318.15	0.000927	2e-05
0.2032	0.199	318.15	0.000938	2e-05
0.2003	0.2993	318.15	0.000946	2e-05
0.203	0.3979	318.15	0.000956	2e-05
0.2015	0.499	318.15	0.000967	2.1e-05
0.2004	0.5982	318.15	0.000972	2.1e-05
0.213	0.6879	318.15	0.000987	2.1e-05
0.3005	0.1005	318.15	0.000968	2.1e-05
0.3014	0.1991	318.15	0.000978	2.1e-05
0.2985	0.3012	318.15	0.000986	2.1e-05
0.3003	0.3991	318.15	0.000997	2.1e-05
0.3085	0.4943	318.15	0.001011	2.2e-05
0.294	0.5831	318.15	0.001014	2.2e-05
0.3989	0.1007	318.15	0.001026	2.2e-05
0.3994	0.2009	318.15	0.001034	2.2e-05
0.399	0.3036	318.15	0.001042	2.2e-05
0.4035	0.3978	318.15	0.001055	2.3e-05
0.401	0.5006	318.15	0.001063	2.3e-05
0.5013	0.1	318.15	0.001104	2.4e-05
0.4991	0.2028	318.15	0.001109	2.4e-05
0.5003	0.2994	318.15	0.001118	2.4e-05
0.4941	0.3973	318.15	0.001122	2.4e-05
0.5974	0.1031	318.15	0.001197	2.6e-05
0.6007	0.1996	318.15	0.001208	2.6e-05
0.5998	0.3017	318.15	0.001219	2.6e-05
0.696	0.1023	318.15	0.001323	2.8e-05
0.6972	0.2016	318.15	0.001332	2.8e-05
0.7991	0.0999	318.15	0.001495	3.2e-05
0.1032	0.0997	323.15	0.000846	1.8e-05
0.1023	0.1995	323.15	0.000853	1.8e-05
0.1012	0.2989	323.15	0.000863	1.8e-05
0.0978	0.4022	323.15	0.00087	2e-05
0.1034	0.4979	323.15	0.000878	1.9e-05
0.1031	0.5971	323.15	0.000884	1.9e-05
0.1013	0.6885	323.15	0.000897	1.9e-05
0.1007	0.7982	323.15	0.000901	1.9e-05
0.2016	0.0995	323.15	0.000864	1.8e-05
0.2032	0.199	323.15	0.000873	1.9e-05
0.2003	0.2993	323.15	0.000881	1.9e-05
0.203	0.3979	323.15	0.000889	1.9e-05
0.2015	0.499	323.15	0.000899	1.9e-05
0.2004	0.5982	323.15	0.000904	1.9e-05
0.213	0.6879	323.15	0.000917	2e-05
0.3005	0.1005	323.15	0.000899	1.9e-05
0.3014	0.1991	323.15	0.000908	1.9e-05
0.2985	0.3012	323.15	0.000914	1.9e-05
0.3003	0.3991	323.15	0.000926	2e-05
0.3085	0.4943	323.15	0.000937	2e-05
0.294	0.5831	323.15	0.00094	2e-05
0.3989	0.1007	323.15	0.000948	2e-05
0.3994	0.2009	323.15	0.000956	2e-05
0.399	0.3036	323.15	0.000962	2.1e-05
0.4035	0.3978	323.15	0.000974	2.1e-05
0.401	0.5006	323.15	0.000981	2.1e-05
0.5013	0.1	323.15	0.001015	2.2e-05
0.4991	0.2028	323.15	0.00102	2e-05
0.5003	0.2994	323.15	0.001027	2.2e-05
0.4941	0.3973	323.15	0.001031	2.2e-05
0.5974	0.1031	323.15	0.001094	2.3e-05
0.6007	0.1996	323.15	0.001104	2.4e-05
0.5998	0.3017	323.15	0.001114	2.4e-05
0.696	0.1023	323.15	0.001202	2.6e-05
0.6972	0.2016	323.15	0.00121	3e-05
0.7991	0.0999	323.15	0.001349	2.9e-05
0.1032	0.0997	328.15	0.000793	1.7e-05
0.1023	0.1995	328.15	0.000799	1.7e-05
0.1012	0.2989	328.15	0.000809	1.7e-05
0.0978	0.4022	328.15	0.000814	1.7e-05
0.1034	0.4979	328.15	0.000821	1.7e-05
0.1031	0.5971	328.15	0.000827	1.8e-05
0.1013	0.6885	328.15	0.000839	1.8e-05
0.1007	0.7982	328.15	0.000842	1.8e-05
0.2016	0.0995	328.15	0.000807	1.7e-05
0.2032	0.199	328.15	0.000815	1.7e-05
0.2003	0.2993	328.15	0.000822	1.8e-05
0.203	0.3979	328.15	0.00083	2e-05
0.2015	0.499	328.15	0.000839	1.8e-05
0.2004	0.5982	328.15	0.000843	1.8e-05
0.213	0.6879	328.15	0.000855	1.8e-05
0.3005	0.1005	328.15	0.000837	1.8e-05
0.3014	0.1991	328.15	0.000845	1.8e-05
0.2985	0.3012	328.15	0.000851	1.8e-05
0.3003	0.3991	328.15	0.000861	1.8e-05
0.3085	0.4943	328.15	0.000871	1.9e-05
0.294	0.5831	328.15	0.000875	1.9e-05
0.3989	0.1007	328.15	0.000879	1.9e-05
0.3994	0.2009	328.15	0.000886	1.9e-05
0.399	0.3036	328.15	0.000892	1.9e-05
0.4035	0.3978	328.15	0.000902	1.9e-05
0.401	0.5006	328.15	0.000908	1.9e-05
0.5013	0.1	328.15	0.000936	2e-05
0.4991	0.2028	328.15	0.00094	2e-05
0.5003	0.2994	328.15	0.000947	2e-05
0.4941	0.3973	328.15	0.000951	2e-05
0.5974	0.1031	328.15	0.001002	2.1e-05
0.6007	0.1996	328.15	0.001013	2.2e-05
0.5998	0.3017	328.15	0.001022	2.2e-05
0.696	0.1023	328.15	0.001097	2.3e-05
0.6972	0.2016	328.15	0.001103	2.4e-05
0.7991	0.0999	328.15	0.001223	2.6e-05
0.1032	0.0997	333.15	0.000744	1.6e-05
0.1023	0.1995	333.15	0.000751	1.6e-05
0.1012	0.2989	333.15	0.000759	1.6e-05
0.0978	0.4022	333.15	0.000765	1.6e-05
0.1034	0.4979	333.15	0.00077	2e-05
0.1031	0.5971	333.15	0.000776	1.7e-05
0.1013	0.6885	333.15	0.000787	1.7e-05
0.1007	0.7982	333.15	0.000789	1.7e-05
0.2016	0.0995	333.15	0.000756	1.6e-05
0.2032	0.199	333.15	0.000764	1.6e-05
0.2003	0.2993	333.15	0.000771	1.6e-05
0.203	0.3979	333.15	0.000776	1.7e-05
0.2015	0.499	333.15	0.000785	1.7e-05
0.2004	0.5982	333.15	0.000789	1.7e-05
0.213	0.6879	333.15	0.000799	1.7e-05
0.3005	0.1005	333.15	0.000781	1.7e-05
0.3014	0.1991	333.15	0.00079	2e-05
0.2985	0.3012	333.15	0.000794	1.7e-05
0.3003	0.3991	333.15	0.000804	1.7e-05
0.3085	0.4943	333.15	0.000812	1.7e-05
0.294	0.5831	333.15	0.000816	1.7e-05
0.3989	0.1007	333.15	0.000818	1.7e-05
0.3994	0.2009	333.15	0.000824	1.8e-05
0.399	0.3036	333.15	0.00083	2e-05
0.4035	0.3978	333.15	0.000839	1.8e-05
0.401	0.5006	333.15	0.000844	1.8e-05
0.5013	0.1	333.15	0.000866	1.9e-05
0.4991	0.2028	333.15	0.00087	2e-05
0.5003	0.2994	333.15	0.000876	1.9e-05
0.4941	0.3973	333.15	0.00088	2e-05
0.5974	0.1031	333.15	0.000924	2e-05
0.6007	0.1996	333.15	0.000932	2e-05
0.5998	0.3017	333.15	0.00094	2e-05
0.696	0.1023	333.15	0.001004	2.1e-05
0.6972	0.2016	333.15	0.00101	2e-05
0.7991	0.0999	333.15	0.001112	2.4e-05
0.1032	0.0997	338.15	0.000701	1.5e-05
0.1023	0.1995	338.15	0.000707	1.5e-05
0.1012	0.2989	338.15	0.000715	1.5e-05
0.0978	0.4022	338.15	0.00072	2e-05
0.1034	0.4979	338.15	0.000725	1.5e-05
0.1031	0.5971	338.15	0.00073	2e-05
0.1013	0.6885	338.15	0.000741	1.6e-05
0.1007	0.7982	338.15	0.000741	1.6e-05
0.2016	0.0995	338.15	0.00071	2e-05
0.2032	0.199	338.15	0.000718	1.5e-05
0.2003	0.2993	338.15	0.000723	1.5e-05
0.203	0.3979	338.15	0.000729	1.6e-05
0.2015	0.499	338.15	0.000736	1.6e-05
0.2004	0.5982	338.15	0.00074	2e-05
0.213	0.6879	338.15	0.000749	1.6e-05
0.3005	0.1005	338.15	0.000732	1.6e-05
0.3014	0.1991	338.15	0.00074	2e-05
0.2985	0.3012	338.15	0.000744	1.6e-05
0.3003	0.3991	338.15	0.000752	1.6e-05
0.3085	0.4943	338.15	0.000759	1.6e-05
0.294	0.5831	338.15	0.000763	1.6e-05
0.3989	0.1007	338.15	0.000763	1.6e-05
0.3994	0.2009	338.15	0.000769	1.6e-05
0.399	0.3036	338.15	0.000774	1.7e-05
0.4035	0.3978	338.15	0.000782	1.7e-05
0.401	0.5006	338.15	0.000786	1.7e-05
0.5013	0.1	338.15	0.000804	1.7e-05
0.4991	0.2028	338.15	0.000808	1.7e-05
0.5003	0.2994	338.15	0.000813	1.7e-05
0.4941	0.3973	338.15	0.000817	1.7e-05
0.5974	0.1031	338.15	0.000854	1.8e-05
0.6007	0.1996	338.15	0.000861	1.8e-05
0.5998	0.3017	338.15	0.000869	1.9e-05
0.696	0.1023	338.15	0.000923	2e-05
0.6972	0.2016	338.15	0.000928	2e-05
0.7991	0.0999	338.15	0.001016	2.2e-05
0.1032	0.0997	343.15	0.000663	1.4e-05
0.1023	0.1995	343.15	0.000668	1.4e-05
0.1012	0.2989	343.15	0.000675	1.4e-05
0.0978	0.4022	343.15	0.00068	2e-05
0.1034	0.4979	343.15	0.000684	1.5e-05
0.1031	0.5971	343.15	0.000689	1.5e-05
0.1013	0.6885	343.15	0.000699	1.5e-05
0.1007	0.7982	343.15	0.000698	1.5e-05
0.2016	0.0995	343.15	0.000669	1.4e-05
0.2032	0.199	343.15	0.000676	1.4e-05
0.2003	0.2993	343.15	0.000681	1.5e-05
0.203	0.3979	343.15	0.000686	1.5e-05
0.2015	0.499	343.15	0.000693	1.5e-05
0.2004	0.5982	343.15	0.000695	1.5e-05
0.213	0.6879	343.15	0.000704	1.5e-05
0.3005	0.1005	343.15	0.000687	1.5e-05
0.3014	0.1991	343.15	0.000695	1.5e-05
0.2985	0.3012	343.15	0.000698	1.5e-05
0.3003	0.3991	343.15	0.000706	1.5e-05
0.3085	0.4943	343.15	0.000712	1.5e-05
0.294	0.5831	343.15	0.000716	1.5e-05
0.3989	0.1007	343.15	0.000714	1.5e-05
0.3994	0.2009	343.15	0.000719	1.5e-05
0.399	0.3036	343.15	0.000724	1.5e-05
0.4035	0.3978	343.15	0.000731	1.6e-05
0.401	0.5006	343.15	0.000735	1.6e-05
0.5013	0.1	343.15	0.00075	2e-05
0.4991	0.2028	343.15	0.000752	1.6e-05
0.5003	0.2994	343.15	0.000757	1.6e-05
0.4941	0.3973	343.15	0.00076	2e-05
0.5974	0.1031	343.15	0.000791	1.7e-05
0.6007	0.1996	343.15	0.000799	1.7e-05
0.5998	0.3017	343.15	0.000805	1.7e-05
0.696	0.1023	343.15	0.000851	1.8e-05
0.6972	0.2016	343.15	0.000856	1.8e-05
0.7991	0.0999	343.15	0.000931	2e-05
