Measured thermophysical data. Phase Equilibrium and Liquid Viscosity of CO2 + n-Dodecane Mixtures between 283 and 353 K
Source: J. Chem. Eng. Data, 2019, 10.1021/acs.jced.9b00187
Compound 1: carbon dioxide, CO2, InChI=1S/CO2/c2-1-3, purity 99.99%
Compound 2: dodecane, C12H26, InChI=1S/C12H26/c1-3-5-7-9-11-12-10-8-6-4-2/h3-12H2,1-2H3, purity 99%
Compound 3: chlorodifluoromethane, CHClF2, InChI=1S/CHClF2/c2-1(3)4/h1H, purity 99%

System: carbon dioxide; phases: Liquid, Gas
Property: Vapor or sublimation pressure, kPa (Liquid); method: Closed cell (Static) method
Temperature, K	Vapor or sublimation pressure, kPa	uncertainty
282.15	4392	54
287.11	4961	54
291.84	5555	55
296.64	6214	56
301.38	6928	57

System: dodecane; phases: Liquid
Property: Viscosity, Pa*s (Liquid); method: Moving piston method
Temperature, K	Pressure, kPa	Viscosity, Pa*s	uncertainty
284.6	670	0.00175	5e-05
284.7	2710	0.00179	5e-05
284.7	4240	0.00182	5e-05
350.5	690	0.00066	3e-05
350.5	4250	0.00068	3e-05
350.5	8310	0.00072	3e-05
294	8310	0.00163	5e-05
322.3	4240	0.00098	4e-05
284.6	2190	0.00178	5e-05
353.1	8320	0.00069	3e-05

System: carbon dioxide + dodecane; phases: Liquid, Gas
Property: Vapor or sublimation pressure, kPa (Liquid); method: Closed cell (Static) method
Mole fraction of carbon dioxide	Temperature, K	Vapor or sublimation pressure, kPa	uncertainty
0.2009	283.3	1270	50
0.2009	304.87	1650	50
0.2009	328.73	2090	60
0.2009	350.06	2480	60
0.2009	283.29	1280	50
0.4011	283.12	2500	50
0.4011	305.06	3370	50
0.4011	329.13	4390	60
0.4011	350.92	5320	60
0.4011	283.06	2480	50
0.5999	283.13	3620	50
0.5999	304.98	5250	50
0.5999	328.33	7180	60
0.5999	350.88	9020	60
0.5999	283.12	3640	50
0.8	283.09	4270	50
0.8	303.73	6650	60
0.8	328.16	10250	60
0.8	352.75	14000	70
0.8	282.35	4190	50

System: carbon dioxide + dodecane; phases: Liquid
Property: Viscosity, Pa*s (Liquid); method: Moving piston method
Mole fraction of carbon dioxide	Temperature, K	Pressure, kPa	Viscosity, Pa*s	uncertainty
0.2009	284.6	1460	0.001227	5.2e-05
0.2009	305.69	1730	0.00086	4.3e-05
0.2009	329.3	2050	0.000585	4.6e-05
0.2009	351.33	2490	0.000437	3.1e-05
0.2009	305.64	1770	0.000865	4.4e-05
0.401	284.41	2630	0.00096	3.7e-05
0.401	305.65	3610	0.000667	3.3e-05
0.401	328.99	4470	0.000493	2.9e-05
0.401	350.19	5510	0.000397	2.8e-05
0.401	284.44	2530	0.000972	3.8e-05
0.5999	284.33	3710	0.000578	3.6e-05
0.5999	305.43	5410	0.000487	3e-05
0.5999	328.86	7350	0.000373	2.8e-05
0.5999	350.95	9320	0.000305	2.7e-05
0.5999	305.44	5360	0.000498	3e-05
0.8	283.7	4630	0.000353	3.9e-05
0.8	305.82	6880	0.000272	2.7e-05
0.8	328.83	10780	0.000236	2.6e-05
0.8	350.49	14270	0.000208	2.6e-05
0.8	283.97	4610	0.000362	3.6e-05

System: carbon dioxide + chlorodifluoromethane; phases: Liquid, Gas
Fixed: Mole fraction of carbon dioxide = 0.416
Property: Vapor or sublimation pressure, kPa (Liquid); method: Closed cell (Static) method
Temperature, K	Vapor or sublimation pressure, kPa	uncertainty
302.56	2996	94
312.86	3731	95
323.77	4537	98
333.8	5393	101
343.38	6253	104
