Measured thermophysical data. Densities, viscosities and conductivities of the imidazolium ionic liquids [Emim][Ac], [Emim][FAP], [Bmim][BETI], [Bmim][FSI], [Hmim][TFSI], and [Omim][TFSI]
Source: J. Chem. Eng. Data, 2015, 10.1021/acs.jced.5b00285
Compound 1: 1-ethyl-3-methylimidazolium acetate, C8H14N2O2, InChI=1S/C6H11N2.C2H4O2/c1-3-8-5-4-7(2)6-8;1-2(3)4/h4-6H,3H2,1-2H3;1H3,(H,3,4)/q+1;/p-1, purity 95%
Compound 2: 1-ethyl-3-methylimidazolium tris(pentafluoroethyl)trifluorophosphate, C12H11F18N2P, InChI=1S/C6F18P.C6H11N2/c7-1(8,9)4(16,17)25(22,23,24,5(18,19)2(10,11)12)6(20,21)3(13,14)15;1-3-8-5-4-7(2)6-8/h;4-6H,3H2,1-2H3/q-1;+1, purity 99.9%
Compound 3: 1-butyl-3-methylimidazolium bis(perfluoroethylsulfonyl)imide, C12H15F10N3O4S2, InChI=1S/C8H15N2.C4F10NO4S2/c1-3-4-5-10-7-6-9(2)8-10;5-1(6,7)3(11,12)20(16,17)15-21(18,19)4(13,14)2(8,9)10/h6-8H,3-5H2,1-2H3;/q+1;-1, purity 99%
Compound 4: 1-butyl-3-methylimidazolium bis(fluorosulfonyl)imide, C8H15F2N3O4S2, InChI=1S/C8H15N2.F2NO4S2/c1-3-4-5-10-7-6-9(2)8-10;1-8(4,5)3-9(2,6)7/h6-8H,3-5H2,1-2H3;/q+1;-1, purity 99%
Compound 5: 1-hexyl-3-methylimidazolium bis[(trifluoromethyl)sulfonyl]imide, C12H19F6N3O4S2, InChI=1S/C10H19N2.C2F6NO4S2/c1-3-4-5-6-7-12-9-8-11(2)10-12;3-1(4,5)14(10,11)9-15(12,13)2(6,7)8/h8-10H,3-7H2,1-2H3;/q+1;-1, purity 99%
Compound 6: 1-octyl-3-methylimidazolium bis[(trifluoromethyl)sulfonyl]imide, C14H23F6N3O4S2, InChI=1S/C12H23N2.C2F6NO4S2/c1-3-4-5-6-7-8-9-14-11-10-13(2)12-14;3-1(4,5)14(10,11)9-15(12,13)2(6,7)8/h10-12H,3-9H2,1-2H3;/q+1;-1, purity 99%

System: 1-ethyl-3-methylimidazolium acetate; phases: Liquid
Fixed: Pressure, kPa = 101.325
Property: Mass density, kg/m3 (Liquid); method: Vibrating tube method
Temperature, K	Mass density, kg/m3	uncertainty
278.15	1111.95	12.69
288.15	1105.67	12.6
298.15	1099.44	12.52
308.15	1093.24	12.43
318.15	1087.13	12.34
328.15	1081.09	12.26
338.15	1075.11	12.18
348.15	1069.17	12.09
358.15	1063.3	12.01

System: 1-ethyl-3-methylimidazolium acetate; phases: Liquid
Fixed: Pressure, kPa = 101.325
Property: Viscosity, Pa*s (Liquid); method: SPHERE:UFactor:8
Temperature, K	Viscosity, Pa*s	uncertainty
278.15	0.7012	0.4987
288.15	0.288	0.136
298.15	0.1411	0.0396
308.15	0.07827	0.00969
318.15	0.04769	0.00331
328.15	0.03126	0.00216
338.15	0.02177	0.0015
348.15	0.01601	0.00111
358.15	0.01219	0.00084
368.15	0.009558	0.000659
378.15	0.00771	0.000531
388.15	0.006362	0.000438
398.15	0.005356	0.000369
408.15	0.004589	0.000316

System: 1-ethyl-3-methylimidazolium acetate; phases: Liquid
Fixed: Pressure, kPa = 101.325
Property: Electrical conductivity, S/m (Liquid); method: Alternating current cell with electrodes
Temperature, K	Electrical conductivity, S/m	uncertainty
298.15	0.2776	0.0056
308.15	0.4709	0.0094
318.15	0.7329	0.0147
328.15	1.068	0.0214
338.15	1.477	0.0295
348.15	1.956	0.0391
358.15	2.503	0.0501
368.15	3.114	0.0623
378.15	3.802	0.076
388.15	4.531	0.0906
398.15	5.31	0.1062
408.15	6.126	0.1225
418.15	6.917	0.1383

System: 1-ethyl-3-methylimidazolium tris(pentafluoroethyl)trifluorophosphate; phases: Liquid
Fixed: Pressure, kPa = 101.325
Property: Mass density, kg/m3 (Liquid); method: Vibrating tube method
Temperature, K	Mass density, kg/m3	uncertainty
278.15	1732.93	0.46
288.15	1720.83	0.45
298.15	1708.84	0.45
308.15	1696.96	0.44
318.15	1685.16	0.44
328.15	1673.43	0.44
338.15	1661.79	0.43
348.15	1650.23	0.43
358.15	1638.73	0.42

System: 1-ethyl-3-methylimidazolium tris(pentafluoroethyl)trifluorophosphate; phases: Liquid
Fixed: Pressure, kPa = 101.325
Property: Viscosity, Pa*s (Liquid); method: SPHERE:UFactor:2
Temperature, K	Viscosity, Pa*s	uncertainty
278.15	0.1681	0.0138
288.15	0.09654	0.00498
298.15	0.06053	0.00203
308.15	0.04082	0.00139
318.15	0.02898	0.00098
328.15	0.02141	0.00072
338.15	0.01629	0.00055
348.15	0.01278	0.00043
358.15	0.01023	0.00034
368.15	0.008367	0.00028
378.15	0.006967	0.000232
388.15	0.005892	0.000196
398.15	0.005045	0.000168

System: 1-ethyl-3-methylimidazolium tris(pentafluoroethyl)trifluorophosphate; phases: Liquid
Fixed: Pressure, kPa = 101.325
Property: Electrical conductivity, S/m (Liquid); method: Alternating current cell with electrodes
Temperature, K	Electrical conductivity, S/m	uncertainty
278.15	0.224	0.005
288.15	0.362	0.007
298.15	0.539	0.011
308.15	0.757	0.015
318.15	1.018	0.02
328.15	1.318	0.026
338.15	1.658	0.033
348.15	2.028	0.041
358.15	2.429	0.049
368.15	2.856	0.057
378.15	3.308	0.066
388.15	3.781	0.076
398.15	4.275	0.086
408.15	4.786	0.096
418.15	5.309	0.106
428.15	5.847	0.117
438.15	6.399	0.128
448.15	6.963	0.139
458.15	7.533	0.151
468.15	8.112	0.162

System: 1-butyl-3-methylimidazolium bis(perfluoroethylsulfonyl)imide; phases: Liquid
Fixed: Pressure, kPa = 101.325
Property: Mass density, kg/m3 (Liquid); method: Vibrating tube method
Temperature, K	Mass density, kg/m3	uncertainty
273.15	1539.6	3.15
278.15	1534	3.14
283.15	1528.5	3.12
288.15	1523.88	3.11
293.15	1518.55	3.1
298.15	1513.25	3.09
303.15	1507.96	3.08
313.15	1497.47	3.06
323.15	1487.06	3.03
333.15	1476.73	3.01
343.15	1466.47	2.99
353.15	1456.27	2.97
363.15	1446.14	2.95

System: 1-butyl-3-methylimidazolium bis(perfluoroethylsulfonyl)imide; phases: Liquid
Fixed: Pressure, kPa = 101.325
Property: Viscosity, Pa*s (Liquid); method: CONCYL:UFactor:2
Temperature, K	Viscosity, Pa*s	uncertainty
273.15	0.5791	0.04262
278.15	0.3988	0.02665
283.15	0.2822	0.01702
288.15	0.2053	0.01125
293.15	0.1533	0.00771
298.15	0.1159	0.00541
303.15	0.08972	0.00392
313.15	0.05657	0.00235
323.15	0.03786	0.00157
333.15	0.02663	0.0011
343.15	0.01948	0.0008
353.15	0.01474	0.00061
363.15	0.01148	0.00047

System: 1-butyl-3-methylimidazolium bis(perfluoroethylsulfonyl)imide; phases: Liquid
Fixed: Pressure, kPa = 101.325
Property: Electrical conductivity, S/m (Liquid); method: Alternating current cell with electrodes
Temperature, K	Electrical conductivity, S/m	uncertainty
273.15	0.03243	0.0013
278.15	0.04599	0.00184
283.15	0.06341	0.00254
288.15	0.08528	0.00341
293.15	0.1122	0.00449
298.15	0.145	0.0058
303.15	0.1829	0.00732
308.15	0.2274	0.00455
313.15	0.2781	0.01112
318.15	0.3364	0.00673
323.15	0.4	0.016
328.15	0.4747	0.00949
333.15	0.5489	0.02196
338.15	0.6382	0.01276
343.15	0.7244	0.02898
348.15	0.8307	0.01661
353.15	0.9282	0.03713
358.15	1.05	0.021
368.15	1.293	0.02586
378.15	1.564	0.03128
388.15	1.856	0.03712
398.15	2.163	0.04326
408.15	2.488	0.04976
418.15	2.827	0.05654
428.15	3.186	0.06372
438.15	3.561	0.07122
448.15	3.937	0.07874
458.15	4.335	0.0867
468.15	4.719	0.09438

System: 1-butyl-3-methylimidazolium bis(fluorosulfonyl)imide; phases: Liquid
Fixed: Pressure, kPa = 101.325
Property: Mass density, kg/m3 (Liquid); method: Vibrating tube method
Temperature, K	Mass density, kg/m3	uncertainty
273.15	1379.2	2.8
278.15	1374.73	2.8
283.15	1370.3	2.79
288.15	1365.9	2.78
293.15	1361.53	2.77
298.15	1357.17	2.76
303.15	1352.85	2.75
313.15	1344.27	2.73
323.15	1335.79	2.71
333.15	1327.38	2.7
343.15	1319.05	2.68
353.15	1310.8	2.66
363.15	1302.61	2.64

System: 1-butyl-3-methylimidazolium bis(fluorosulfonyl)imide; phases: Liquid
Fixed: Pressure, kPa = 101.325
Property: Viscosity, Pa*s (Liquid); method: CONCYL:UFactor:2
Temperature, K	Viscosity, Pa*s	uncertainty
273.15	0.09881	0.00441
278.15	0.07648	0.00328
283.15	0.06041	0.00251
288.15	0.0486	0.00202
293.15	0.03971	0.00165
298.15	0.03293	0.00136
303.15	0.02764	0.00114
313.15	0.02022	0.00083
323.15	0.01535	0.00063
333.15	0.01201	0.00049
343.15	0.009651	0.000396
353.15	0.007918	0.000325
363.15	0.006626	0.000272

System: 1-butyl-3-methylimidazolium bis(fluorosulfonyl)imide; phases: Liquid
Fixed: Pressure, kPa = 101.325
Property: Electrical conductivity, S/m (Liquid); method: Alternating current cell with electrodes
Temperature, K	Electrical conductivity, S/m	uncertainty
273.15	0.2915	0.0117
278.15	0.3704	0.0148
283.15	0.4622	0.0185
288.15	0.561	0.0224
293.15	0.6815	0.0273
298.15	0.8164	0.0327
303.15	0.9534	0.0381
308.15	1.117	0.0223
313.15	1.273	0.0509
318.15	1.465	0.0293
323.15	1.636	0.0654
328.15	1.861	0.0372
333.15	2.038	0.0815
338.15	2.293	0.0459
343.15	2.475	0.099
348.15	2.767	0.0553
353.15	2.944	0.1178
358.15	3.28	0.0656
368.15	3.826	0.0765
378.15	4.398	0.088
388.15	4.99	0.0998
398.15	5.601	0.112
408.15	6.229	0.1246
418.15	6.872	0.1374
428.15	7.531	0.1506
438.15	8.201	0.164
448.15	8.892	0.1778
458.15	9.618	0.1924
468.15	10.28	0.2056

System: 1-hexyl-3-methylimidazolium bis[(trifluoromethyl)sulfonyl]imide; phases: Liquid
Fixed: Pressure, kPa = 101.325
Property: Mass density, kg/m3 (Liquid); method: Vibrating tube method
Temperature, K	Mass density, kg/m3	uncertainty
278.15	1391.02	2.83
283.15	1386.34	2.82
288.15	1381.65	2.81
293.15	1376.98	2.8
298.15	1372.35	2.79
303.15	1367.74	2.78
308.15	1363.15	2.77
313.15	1358.58	2.76
318.15	1354.02	2.75
323.15	1349.49	2.74
328.15	1344.97	2.73
333.15	1340.47	2.72
338.15	1335.98	2.71
343.15	1331.51	2.7
348.15	1327.05	2.69
353.15	1322.61	2.69
358.15	1318.18	2.68
363.15	1313.77	2.67

System: 1-hexyl-3-methylimidazolium bis[(trifluoromethyl)sulfonyl]imide; phases: Liquid
Fixed: Pressure, kPa = 101.325
Property: Viscosity, Pa*s (Liquid); method: CONCYL:UFactor:2
Temperature, K	Viscosity, Pa*s	uncertainty
278.15	0.2106	0.0115
288.15	0.1167	0.0055
298.15	0.07051	0.00299
308.15	0.04551	0.0019
318.15	0.03103	0.00129
328.15	0.02214	0.00091
338.15	0.0164	0.00068
348.15	0.01259	0.00052
358.15	0.009957	0.000409
368.15	0.008066	0.000331
378.15	0.006673	0.000274
388.15	0.005623	0.000231
398.15	0.004819	0.000198
408.15	0.00419	0.000172

System: 1-hexyl-3-methylimidazolium bis[(trifluoromethyl)sulfonyl]imide; phases: Liquid
Fixed: Pressure, kPa = 101.325
Property: Electrical conductivity, S/m (Liquid); method: Alternating current cell with electrodes
Temperature, K	Electrical conductivity, S/m	uncertainty
278.15	0.07762	0.00155
288.15	0.1359	0.00272
298.15	0.2178	0.00436
308.15	0.3275	0.00655
318.15	0.466	0.00932
328.15	0.6337	0.01267
338.15	0.8303	0.01661
348.15	1.054	0.02108
358.15	1.304	0.02608
368.15	1.579	0.03158
378.15	1.875	0.0375
388.15	2.192	0.04384
398.15	2.526	0.05052
408.15	2.878	0.05756
418.15	3.243	0.06486
428.15	3.622	0.07244
438.15	4.012	0.08024
448.15	4.414	0.08828
458.15	4.822	0.09644
468.15	5.237	0.10474

System: 1-octyl-3-methylimidazolium bis[(trifluoromethyl)sulfonyl]imide; phases: Liquid
Fixed: Pressure, kPa = 101.325
Property: Electrical conductivity, S/m (Liquid); method: Alternating current cell with electrodes
Temperature, K	Electrical conductivity, S/m	uncertainty
273.15	0.03083	0.00123
278.15	0.0432	0.00173
283.15	0.05895	0.00236
288.15	0.07844	0.00314
293.15	0.1023	0.00409
298.15	0.1311	0.00524
303.15	0.1639	0.00656
308.15	0.2039	0.00408
313.15	0.2463	0.00985
318.15	0.2979	0.00596
323.15	0.3512	0.01405
328.15	0.4151	0.0083
333.15	0.4785	0.01914
338.15	0.5563	0.01113
343.15	0.6271	0.02508
348.15	0.7201	0.0144
353.15	0.8009	0.03204
358.15	0.9064	0.01813
368.15	1.114	0.02228
378.15	1.34	0.0268
388.15	1.588	0.03176
398.15	1.85	0.037
408.15	2.126	0.04252
418.15	2.419	0.04838
428.15	2.722	0.05444
438.15	3.036	0.06072
448.15	3.359	0.06718
458.15	3.691	0.07382
468.15	4.029	0.08058
