Measured thermophysical data. Liquid-Liquid Equilibrium of Isobutyl Acetate + Isobutyl Alcohol + Imidazolium-Based Ionic Liquids at 298.15 and 308.15 K
Source: J. Chem. Eng. Data, 2019, 10.1021/acs.jced.8b01045
Compound 1: 2-methylpropyl ethanoate, C6H12O2, InChI=1S/C6H12O2/c1-5(2)4-8-6(3)7/h5H,4H2,1-3H3, purity 99.7%
Compound 2: 2-methyl-1-propanol, C4H10O, InChI=1S/C4H10O/c1-4(2)3-5/h4-5H,3H2,1-2H3, purity 99.5%
Compound 3: 1-hexyl-3-methylimidazolium hexafluorophosphate, C10H19F6N2P, InChI=1S/C10H19N2.F6P/c1-3-4-5-6-7-12-9-8-11(2)10-12;1-7(2,3,4,5)6/h8-10H,3-7H2,1-2H3;/q+1;-1, purity 98%
Compound 4: 1-octyl-3-methylimidazolium hexafluorophosphate, C12H23F6N2P, InChI=1S/C12H23N2.F6P/c1-3-4-5-6-7-8-9-14-11-10-13(2)12-14;1-7(2,3,4,5)6/h10-12H,3-9H2,1-2H3;/q+1;-1, purity 98%

System: 2-methylpropyl ethanoate + 2-methyl-1-propanol + 1-hexyl-3-methylimidazolium hexafluorophosphate; phases: Liquid mixture 2, Liquid mixture 1
Fixed: Pressure, kPa = 101.3
Property: Mole fraction of 2-methyl-1-propanol (Liquid mixture 2); method: Chromatography
Property: Mole fraction of 2-methyl-1-propanol (Liquid mixture 1); method: Chromatography
Property: Mole fraction of 2-methylpropyl ethanoate (Liquid mixture 1); method: Chromatography
Temperature, K	Mole fraction of 2-methylpropyl ethanoate	Mole fraction of 2-methyl-1-propanol	uncertainty	Mole fraction of 2-methyl-1-propanol	uncertainty	Mole fraction of 2-methylpropyl ethanoate	uncertainty
298.15	0.3435	0.4102	0.0299	0.641	0.0382	0.3402	
298.15	0.3065	0.3856	0.0269	0.7018	0.0373	0.2882	
298.15	0.2649	0.3781	0.0253	0.7526	0.0361	0.2403	
298.15	0.2273	0.3726	0.025	0.8001	0.0358	0.1952	
298.15	0.1811	0.372	0.0253	0.8467	0.0356	0.15	
298.15	0.1434	0.3578	0.0255	0.8832	0.0355	0.1143	
298.15	0.1058	0.3559	0.0255	0.923	0.0353	0.0753	
298.15	0.0494	0.3378	0.0256	0.9641	0.0351	0.0346	
298.15	0	0.3305	0.0249	0.9985	0.0015	0	
308.15	0.3485	0.445	0.0253	0.6292	0.0361	0.3489	
308.15	0.3001	0.438	0.0252	0.6945	0.0369	0.2868	
308.15	0.2611	0.4346	0.0253	0.7491	0.0372	0.24	
308.15	0.2188	0.425	0.0256	0.8013	0.0361	0.191	
308.15	0.1725	0.4141	0.0254	0.8456	0.0361	0.1486	
308.15	0.1312	0.409	0.0254	0.8864	0.0357	0.1104	
308.15	0.0959	0.3988	0.0251	0.9266	0.0354	0.0705	
308.15	0.0487	0.3996	0.0251	0.9627	0.0339	0.0353	
308.15	0	0.3885	0.025	0.9922	0.0078	0	

System: 2-methylpropyl ethanoate + 2-methyl-1-propanol + 1-octyl-3-methylimidazolium hexafluorophosphate; phases: Liquid mixture 1, Liquid mixture 2
Fixed: Pressure, kPa = 101.3
Property: Mole fraction of 2-methyl-1-propanol (Liquid mixture 1); method: Chromatography
Property: Mole fraction of 2-methyl-1-propanol (Liquid mixture 2); method: Chromatography
Property: Mole fraction of 2-methylpropyl ethanoate (Liquid mixture 2); method: Chromatography
Temperature, K	Mole fraction of 2-methylpropyl ethanoate	Mole fraction of 2-methyl-1-propanol	uncertainty	Mole fraction of 2-methyl-1-propanol	uncertainty	Mole fraction of 2-methylpropyl ethanoate	uncertainty
298.15	0.1563	0.8239	0.0412	0.586	0.0318	0.1885	
308.15	0.1272	0.8337	0.0498	0.6877	0.0507	0.1477	
308.15	0.1211	0.8464	0.0482	0.6564	0.0374	0.1457	
308.15	0.1113	0.8686	0.0401	0.6377	0.031	0.1425	
308.15	0.0935	0.8924	0.0421	0.6265	0.033	0.1235	
308.15	0.073	0.9173	0.0387	0.6088	0.0316	0.1034	
308.15	0.0535	0.9399	0.0376	0.5872	0.0293	0.0784	
308.15	0.034	0.9612	0.0355	0.577	0.0255	0.0522	
308.15	0.0197	0.9762	0.0238	0.572	0.0256	0.0319	
308.15	0	0.992	0.008	0.5703	0.025	0	
298.15	0.1298	0.859	0.0389	0.5738	0.0308	0.1691	
298.15	0.1106	0.8813	0.0384	0.5555	0.0306	0.1501	
298.15	0.0896	0.9048	0.0369	0.5421	0.03	0.1255	
298.15	0.0702	0.9255	0.0363	0.5255	0.028	0.1039	
298.15	0.0532	0.9434	0.0359	0.5153	0.028	0.0813	
298.15	0.034	0.9633	0.0349	0.5076	0.0262	0.055	
298.15	0.0169	0.981	0.019	0.4994	0.0261	0.0292	
298.15	0	0.9949	0.0051	0.4916	0.0251	0	

System: 2-methyl-1-propanol + 1-hexyl-3-methylimidazolium hexafluorophosphate; phases: Liquid mixture 2, Liquid mixture 1
Fixed: Pressure, kPa = 101.3
Property: Mole fraction of 2-methyl-1-propanol (Liquid mixture 2); method: Chromatography
Temperature, K	Mole fraction of 2-methyl-1-propanol	uncertainty
308.15	0.3885	0.025
298.15	0.3305	0.0249

System: 2-methyl-1-propanol + 1-hexyl-3-methylimidazolium hexafluorophosphate; phases: Liquid mixture 1, Liquid mixture 2
Fixed: Pressure, kPa = 101.3
Property: Mole fraction of 2-methyl-1-propanol (Liquid mixture 1); method: Chromatography
Temperature, K	Mole fraction of 2-methyl-1-propanol	uncertainty
308.15	0.9922	0.0078
298.15	0.9985	0.0015

System: 2-methyl-1-propanol + 1-octyl-3-methylimidazolium hexafluorophosphate; phases: Liquid mixture 1, Liquid mixture 2
Fixed: Pressure, kPa = 101.3
Property: Mole fraction of 2-methyl-1-propanol (Liquid mixture 1); method: Chromatography
Temperature, K	Mole fraction of 2-methyl-1-propanol	uncertainty
308.15	0.992	0.008
298.15	0.9949	0.0051

System: 2-methyl-1-propanol + 1-octyl-3-methylimidazolium hexafluorophosphate; phases: Liquid mixture 2, Liquid mixture 1
Fixed: Pressure, kPa = 101.3
Property: Mole fraction of 2-methyl-1-propanol (Liquid mixture 2); method: Chromatography
Temperature, K	Mole fraction of 2-methyl-1-propanol	uncertainty
308.15	0.5703	0.025
298.15	0.4916	0.0251
