Measured thermophysical data. Solubility Measurement and Correlation for 2-  Naphthaldehyde in Pure Organic Solvents and Methanol +  Ethanol Mixtures
Source: J. Chem. Eng. Data, 2015, 10.1021/acs.jced.5b00377
Compound 1: methanol, CH4O, InChI=1S/CH4O/c1-2/h2H,1H3, purity 99.5%
Compound 2: ethanol, C2H6O, InChI=1S/C2H6O/c1-2-3/h3H,2H2,1H3, purity 99.5%
Compound 3: propan-2-ol, C3H8O, InChI=1S/C3H8O/c1-3(2)4/h3-4H,1-2H3, purity 99.5%
Compound 4: butan-1-ol, C4H10O, InChI=1S/C4H10O/c1-2-3-4-5/h5H,2-4H2,1H3, purity 99.5%
Compound 5: heptane, C7H16, InChI=1S/C7H16/c1-3-5-7-6-4-2/h3-7H2,1-2H3, purity 99.5%
Compound 6: hexane, C6H14, InChI=1S/C6H14/c1-3-5-6-4-2/h3-6H2,1-2H3, purity 99.5%
Compound 7: .beta.-naphthaldehyde, C11H8O, InChI=1S/C11H8O/c12-8-9-5-6-10-3-1-2-4-11(10)7-9/h1-8H, purity 99.9%

System: .beta.-naphthaldehyde; phases: Crystal, Liquid, Air at 1 atmosphere
Property: Normal melting temperature, K (Crystal); method: DTA
Normal melting temperature, K	uncertainty
333.27	2.03

System: .beta.-naphthaldehyde; phases: Crystal, Liquid, Air at 1 atmosphere
Property: Molar enthalpy of transition or fusion, kJ/mol (Crystal); method: DSC
Molar enthalpy of transition or fusion, kJ/mol	uncertainty
15.66485	1.05871

System: .beta.-naphthaldehyde + methanol; phases: Liquid, Crystal
Fixed: Pressure, kPa = 100
Property: Mole fraction of .beta.-naphthaldehyde (Liquid); method: Chromatography
Temperature, K	Mole fraction of .beta.-naphthaldehyde	uncertainty
283.15	0.00592	0.000475
288.15	0.00987	0.000791
293.15	0.01627	0.001304
298.15	0.02737	0.002193
303.15	0.04183	0.003352
308.15	0.06963	0.005577

System: ethanol + .beta.-naphthaldehyde; phases: Liquid, Crystal
Fixed: Pressure, kPa = 100
Property: Mole fraction of .beta.-naphthaldehyde (Liquid); method: Chromatography
Temperature, K	Mole fraction of .beta.-naphthaldehyde	uncertainty
283.15	0.01614	0.001293
288.15	0.02446	0.001959
293.15	0.03773	0.003024
298.15	0.06532	0.005235
303.15	0.1098	0.008801
308.15	0.1906	0.015267

System: .beta.-naphthaldehyde + propan-2-ol; phases: Liquid, Crystal
Fixed: Pressure, kPa = 100
Property: Mole fraction of .beta.-naphthaldehyde (Liquid); method: Chromatography
Temperature, K	Mole fraction of .beta.-naphthaldehyde	uncertainty
283.15	0.01148	0.00092
288.15	0.02007	0.00161
293.15	0.04045	0.00324
298.15	0.05566	0.00446
303.15	0.0908	0.00728
308.15	0.1439	0.01153
313.15	0.2369	0.01897

System: .beta.-naphthaldehyde + butan-1-ol; phases: Liquid, Crystal
Fixed: Pressure, kPa = 100
Property: Mole fraction of .beta.-naphthaldehyde (Liquid); method: Chromatography
Temperature, K	Mole fraction of .beta.-naphthaldehyde	uncertainty
283.15	0.01947	0.00156
288.15	0.02813	0.00225
293.15	0.04251	0.0034
298.15	0.05613	0.00449
303.15	0.07581	0.00607
308.15	0.1169	0.00936
313.15	0.164	0.01313

System: .beta.-naphthaldehyde + heptane; phases: Liquid, Crystal
Fixed: Pressure, kPa = 100
Property: Mole fraction of .beta.-naphthaldehyde (Liquid); method: Chromatography
Temperature, K	Mole fraction of .beta.-naphthaldehyde	uncertainty
283.15	0.00944	0.000756
288.15	0.01282	0.001026
293.15	0.01644	0.001316
298.15	0.0192	0.001537
303.15	0.0255	0.002042
308.15	0.03455	0.002766
313.15	0.04151	0.003322

System: .beta.-naphthaldehyde + hexane; phases: Liquid, Crystal
Fixed: Pressure, kPa = 100
Property: Mole fraction of .beta.-naphthaldehyde (Liquid); method: Chromatography
Temperature, K	Mole fraction of .beta.-naphthaldehyde	uncertainty
283.15	0.00727	0.000582
288.15	0.00923	0.000739
293.15	0.01279	0.001024
298.15	0.01586	0.001269
303.15	0.01888	0.001511
308.15	0.02599	0.002081
313.15	0.03139	0.002512

System: ethanol + .beta.-naphthaldehyde + methanol; phases: Liquid, Crystal
Fixed: Pressure, kPa = 100
Property: Mole fraction of .beta.-naphthaldehyde (Liquid); method: Chromatography
Temperature, K	Solvent: Mole fraction of methanol	Mole fraction of .beta.-naphthaldehyde	uncertainty
283.15	1	0.00592	0.000475
288.15	1	0.00987	0.000791
293.15	1	0.01627	0.001304
298.15	1	0.02737	0.002193
303.15	1	0.04183	0.003352
308.15	1	0.06963	0.005577
283.15	0.8519	0.01022	0.000819
288.15	0.8519	0.01546	0.001238
293.15	0.8519	0.02167	0.001736
298.15	0.8519	0.03247	0.002601
303.15	0.8519	0.04829	0.003868
308.15	0.8519	0.07473	0.005985
283.15	0.6832	0.01343	0.001076
288.15	0.6832	0.01882	0.001507
293.15	0.6832	0.02556	0.002047
298.15	0.6832	0.0366	0.002931
303.15	0.6832	0.0523	0.00419
308.15	0.6832	0.0847	0.006784
283.15	0.4891	0.01466	0.001174
288.15	0.4891	0.01977	0.001583
293.15	0.4891	0.02692	0.002156
298.15	0.4891	0.04001	0.003205
303.15	0.4891	0.05995	0.004805
308.15	0.4891	0.1062	0.008506
283.15	0.2641	0.01796	0.001439
288.15	0.2641	0.0244	0.001953
293.15	0.2641	0.02973	0.002381
298.15	0.2641	0.04596	0.003683
303.15	0.2641	0.07778	0.006232
308.15	0.2641	0.1241	0.009943
283.15	0	0.01614	0.001293
288.15	0	0.02446	0.001959
293.15	0	0.03773	0.003024
298.15	0	0.06532	0.005235
303.15	0	0.1098	0.008801
308.15	0	0.1906	0.015267
