Measured thermophysical data. Densities and Viscosities for the Ternary System of Decalin + Methylcyclohexane + Cyclopentanol and Corresponding Binaries at T = 293.15 to 343.15 K
Source: J. Chem. Eng. Data, 2019, 10.1021/acs.jced.8b01004
Compound 1: cis-decahydronaphthalene, C10H18, InChI=1S/C10H18/c1-2-6-10-8-4-3-7-9(10)5-1/h9-10H,1-8H2/t9-,10+, purity 99%
Compound 2: trans-decahydronaphthalene, C10H18, InChI=1S/C10H18/c1-2-6-10-8-4-3-7-9(10)5-1/h9-10H,1-8H2/t9-,10-, purity 99%
Compound 3: methylcyclohexane, C7H14, InChI=1S/C7H14/c1-7-5-3-2-4-6-7/h7H,2-6H2,1H3, purity 99%
Compound 4: cyclopentanol, C5H10O, InChI=1S/C5H10O/c6-5-3-1-2-4-5/h5-6H,1-4H2, purity 99%

System: methylcyclohexane; phases: Liquid
Fixed: Pressure, kPa = 100
Property: Mass density, kg/m3 (Liquid); method: Vibrating tube method
Temperature, K	Mass density, kg/m3	uncertainty
293.15	769.35	1.24
298.15	765	1.24
303.15	760.65	1.23
308.15	756.3	1.22
313.15	751.93	1.22
318.15	747.56	1.21
323.15	743.16	1.2
328.15	738.74	1.2
333.15	734.29	1.19
338.15	729.82	1.18
343.15	725.32	1.18

System: methylcyclohexane; phases: Liquid
Fixed: Pressure, kPa = 100
Property: Viscosity, Pa*s (Liquid); method: Falling or rolling sphere viscometry
Temperature, K	Viscosity, Pa*s	uncertainty
293.15	0.000735	1.6e-05
298.15	0.000689	1.5e-05
303.15	0.000647	1.4e-05
308.15	0.000611	1.3e-05
313.15	0.000577	1.2e-05
318.15	0.000547	1.2e-05
323.15	0.000519	1.1e-05
328.15	0.000495	1.1e-05
333.15	0.000473	1e-05
338.15	0.000453	1e-05
343.15	0.000434	9e-06

System: cyclopentanol; phases: Liquid
Fixed: Pressure, kPa = 100
Property: Mass density, kg/m3 (Liquid); method: Vibrating tube method
Temperature, K	Mass density, kg/m3	uncertainty
293.15	946.99	1.52
298.15	943.05	1.51
303.15	939.05	1.5
308.15	935.01	1.5
313.15	930.91	1.49
318.15	926.75	1.48
323.15	922.53	1.48
328.15	918.24	1.47
333.15	913.89	1.46
338.15	909.48	1.46
343.15	904.99	1.45

System: cyclopentanol; phases: Liquid
Fixed: Pressure, kPa = 100
Property: Viscosity, Pa*s (Liquid); method: Falling or rolling sphere viscometry
Temperature, K	Viscosity, Pa*s	uncertainty
293.15	0.011883	0.000253
298.15	0.009722	0.000207
303.15	0.008068	0.000172
308.15	0.007077	0.000151
313.15	0.00604	0.000129
318.15	0.00519	0.00011
323.15	0.004441	9.5e-05
328.15	0.00383	8.2e-05
333.15	0.003312	7e-05
338.15	0.002886	6.1e-05
343.15	0.00253	5.4e-05

System: cis-decahydronaphthalene + trans-decahydronaphthalene; phases: Liquid
Fixed: Mole fraction of cis-decahydronaphthalene = 0.5
Fixed: Pressure, kPa = 100
Property: Mass density, kg/m3 (Liquid); method: Vibrating tube method
Temperature, K	Mass density, kg/m3	uncertainty
293.15	880.41	44.04
298.15	876.64	43.85
303.15	872.86	43.67
308.15	869.1	43.48
313.15	865.33	43.29
318.15	861.56	43.1
323.15	857.8	42.91
328.15	854.02	42.72
333.15	850.25	42.53
338.15	846.47	42.35
343.15	842.68	42.16

System: cis-decahydronaphthalene + trans-decahydronaphthalene; phases: Liquid
Fixed: Mole fraction of cis-decahydronaphthalene = 0.5
Fixed: Pressure, kPa = 100
Property: Viscosity, Pa*s (Liquid); method: Falling or rolling sphere viscometry
Temperature, K	Viscosity, Pa*s	uncertainty
293.15	0.002488	5.4e-05
298.15	0.002255	4.9e-05
303.15	0.002054	4.4e-05
308.15	0.00188	4e-05
313.15	0.001727	3.7e-05
318.15	0.001592	3.4e-05
323.15	0.001473	3.2e-05
328.15	0.001367	2.9e-05
333.15	0.001272	2.7e-05
338.15	0.001188	2.6e-05
343.15	0.001111	2.4e-05

System: cis-decahydronaphthalene + trans-decahydronaphthalene + methylcyclohexane; phases: Liquid
Fixed: Pressure, kPa = 100
Fixed: Solvent: Mole fraction of cis-decahydronaphthalene = 0.5
Property: Mass density, kg/m3 (Liquid); method: Vibrating tube method
Temperature, K	Mole fraction of methylcyclohexane	Mass density, kg/m3	uncertainty
293.15	1	769.35	1.24
293.15	0.9004	783.13	1.27
293.15	0.8002	796.3	1.29
293.15	0.6995	808.89	1.31
293.15	0.5995	820.76	1.32
293.15	0.4998	831.88	1.34
293.15	0.3997	842.53	1.36
293.15	0.3002	852.66	1.37
293.15	0.2006	862.3	1.39
293.15	0.1003	871.55	1.4
293.15	0	880.41	1.42
298.15	1	765	1.24
298.15	0.9004	778.88	1.26
298.15	0.8002	792.12	1.28
298.15	0.6995	804.78	1.3
298.15	0.5995	816.7	1.32
298.15	0.4998	827.89	1.33
298.15	0.3997	838.59	1.35
298.15	0.3002	848.76	1.37
298.15	0.2006	858.46	1.38
298.15	0.1003	867.75	1.4
298.15	0	876.64	1.41
303.15	1	760.65	1.23
303.15	0.9004	774.61	1.25
303.15	0.8002	787.93	1.27
303.15	0.6995	800.66	1.29
303.15	0.5995	812.63	1.31
303.15	0.4998	823.88	1.33
303.15	0.3997	834.64	1.35
303.15	0.3002	844.85	1.36
303.15	0.2006	854.61	1.38
303.15	0.1003	863.94	1.39
303.15	0	872.86	1.4
308.15	1	756.3	1.22
308.15	0.9004	770.34	1.25
308.15	0.8002	783.73	1.27
308.15	0.6995	796.53	1.29
308.15	0.5995	808.57	1.3
308.15	0.4998	819.88	1.32
308.15	0.3997	830.68	1.34
308.15	0.3002	840.95	1.35
308.15	0.2006	850.75	1.37
308.15	0.1003	860.13	1.38
308.15	0	869.1	1.4
313.15	1	751.93	1.22
313.15	0.9004	766.05	1.24
313.15	0.8002	779.52	1.26
313.15	0.6995	792.39	1.28
313.15	0.5995	804.49	1.3
313.15	0.4998	815.86	1.32
313.15	0.3997	826.72	1.33
313.15	0.3002	837.04	1.35
313.15	0.2006	846.9	1.36
313.15	0.1003	856.32	1.38
313.15	0	865.33	1.39
318.15	1	747.56	1.21
318.15	0.9004	761.75	1.23
318.15	0.8002	775.3	1.25
318.15	0.6995	788.24	1.27
318.15	0.5995	800.41	1.29
318.15	0.4998	811.84	1.31
318.15	0.3997	822.75	1.33
318.15	0.3002	833.13	1.34
318.15	0.2006	843.04	1.36
318.15	0.1003	852.51	1.37
318.15	0	861.56	1.39
323.15	1	743.16	1.2
323.15	0.9004	757.44	1.23
323.15	0.8002	771.06	1.25
323.15	0.6995	784.08	1.27
323.15	0.5995	796.32	1.29
323.15	0.4998	807.81	1.3
323.15	0.3997	818.78	1.32
323.15	0.3002	829.22	1.34
323.15	0.2006	839.18	1.35
323.15	0.1003	848.7	1.37
323.15	0	857.8	1.38
328.15	1	738.74	1.19
328.15	0.9004	753.11	1.22
328.15	0.8002	766.81	1.24
328.15	0.6995	779.91	1.26
328.15	0.5995	792.21	1.28
328.15	0.4998	803.77	1.3
328.15	0.3997	814.81	1.31
328.15	0.3002	825.3	1.33
328.15	0.2006	835.31	1.35
328.15	0.1003	844.88	1.36
328.15	0	854.02	1.37
333.15	1	734.29	1.19
333.15	0.9004	748.76	1.21
333.15	0.8002	762.55	1.23
333.15	0.6995	775.73	1.25
333.15	0.5995	788.1	1.27
333.15	0.4998	799.73	1.29
333.15	0.3997	810.82	1.31
333.15	0.3002	821.37	1.32
333.15	0.2006	831.43	1.34
333.15	0.1003	841.06	1.36
333.15	0	850.25	1.37
338.15	1	729.82	1.18
338.15	0.9004	744.38	1.21
338.15	0.8002	758.26	1.23
338.15	0.6995	771.52	1.25
338.15	0.5995	783.97	1.27
338.15	0.4998	795.67	1.28
338.15	0.3997	806.83	1.3
338.15	0.3002	817.44	1.32
338.15	0.2006	827.55	1.33
338.15	0.1003	837.23	1.35
338.15	0	846.47	1.36
343.15	1	725.32	1.17
343.15	0.9004	739.98	1.2
343.15	0.8002	753.96	1.22
343.15	0.6995	767.31	1.24
343.15	0.5995	779.83	1.26
343.15	0.4998	791.61	1.28
343.15	0.3997	802.84	1.3
343.15	0.3002	813.5	1.31
343.15	0.2006	823.66	1.33
343.15	0.1003	833.39	1.34
343.15	0	842.68	1.36

System: cis-decahydronaphthalene + trans-decahydronaphthalene + methylcyclohexane; phases: Liquid
Fixed: Pressure, kPa = 100
Fixed: Solvent: Mole fraction of cis-decahydronaphthalene = 0.5
Property: Viscosity, Pa*s (Liquid); method: Falling or rolling sphere viscometry
Temperature, K	Mole fraction of methylcyclohexane	Viscosity, Pa*s	uncertainty
293.15	1	0.000735	1.6e-05
293.15	0.9004	0.000845	1.8e-05
293.15	0.8002	0.000956	2.1e-05
293.15	0.6995	0.001078	2.3e-05
293.15	0.5995	0.001221	2.6e-05
293.15	0.4998	0.001375	3e-05
293.15	0.3997	0.001551	3.3e-05
293.15	0.3002	0.001747	3.8e-05
293.15	0.2006	0.001971	4.2e-05
293.15	0.1003	0.002218	4.8e-05
293.15	0	0.002488	5.4e-05
298.15	1	0.000689	1.5e-05
298.15	0.9004	0.000792	1.7e-05
298.15	0.8002	0.000891	1.9e-05
298.15	0.6995	0.001001	2.2e-05
298.15	0.5995	0.00113	2.4e-05
298.15	0.4998	0.001268	2.7e-05
298.15	0.3997	0.001425	3.1e-05
298.15	0.3002	0.001604	3.5e-05
298.15	0.2006	0.0018	3.9e-05
298.15	0.1003	0.002018	4.3e-05
298.15	0	0.002255	4.9e-05
303.15	1	0.000647	1.4e-05
303.15	0.9004	0.000742	1.6e-05
303.15	0.8002	0.000832	1.8e-05
303.15	0.6995	0.000932	2e-05
303.15	0.5995	0.001049	2.3e-05
303.15	0.4998	0.001174	2.5e-05
303.15	0.3997	0.001315	2.8e-05
303.15	0.3002	0.001477	3.2e-05
303.15	0.2006	0.00165	3.6e-05
303.15	0.1003	0.001844	4e-05
303.15	0	0.002054	4.4e-05
308.15	1	0.000611	1.3e-05
308.15	0.9004	0.000697	1.5e-05
308.15	0.8002	0.00078	1.7e-05
308.15	0.6995	0.000871	1.9e-05
308.15	0.5995	0.000977	2.1e-05
308.15	0.4998	0.001091	2.4e-05
308.15	0.3997	0.001218	2.6e-05
308.15	0.3002	0.001365	2.9e-05
308.15	0.2006	0.00152	3.3e-05
308.15	0.1003	0.001693	3.6e-05
308.15	0	0.00188	4.1e-05
313.15	1	0.000577	1.2e-05
313.15	0.9004	0.000657	1.4e-05
313.15	0.8002	0.000733	1.6e-05
313.15	0.6995	0.000816	1.8e-05
313.15	0.5995	0.000913	2e-05
313.15	0.4998	0.001016	2.2e-05
313.15	0.3997	0.001132	2.4e-05
313.15	0.3002	0.001265	2.7e-05
313.15	0.2006	0.001404	3e-05
313.15	0.1003	0.00156	3.4e-05
313.15	0	0.001727	3.7e-05
318.15	1	0.000547	1.2e-05
318.15	0.9004	0.00062	1.3e-05
318.15	0.8002	0.00069	1.5e-05
318.15	0.6995	0.000766	1.7e-05
318.15	0.5995	0.000855	1.8e-05
318.15	0.4998	0.000949	2e-05
318.15	0.3997	0.001055	2.3e-05
318.15	0.3002	0.001177	2.5e-05
318.15	0.2006	0.001302	2.8e-05
318.15	0.1003	0.001444	3.1e-05
318.15	0	0.001592	3.4e-05
323.15	1	0.000519	1.1e-05
323.15	0.9004	0.000588	1.3e-05
323.15	0.8002	0.000652	1.4e-05
323.15	0.6995	0.000721	1.6e-05
323.15	0.5995	0.000803	1.7e-05
323.15	0.4998	0.00089	1.9e-05
323.15	0.3997	0.000986	2.1e-05
323.15	0.3002	0.001098	2.4e-05
323.15	0.2006	0.001211	2.6e-05
323.15	0.1003	0.001339	2.9e-05
323.15	0	0.001473	3.2e-05
328.15	1	0.000495	1.1e-05
328.15	0.9004	0.000558	1.2e-05
328.15	0.8002	0.000617	1.3e-05
328.15	0.6995	0.000681	1.5e-05
328.15	0.5995	0.000757	1.6e-05
328.15	0.4998	0.000836	1.8e-05
328.15	0.3997	0.000924	2e-05
328.15	0.3002	0.001027	2.2e-05
328.15	0.2006	0.001129	2.4e-05
328.15	0.1003	0.001246	2.7e-05
328.15	0	0.001367	2.9e-05
333.15	1	0.000473	1e-05
333.15	0.9004	0.000531	1.1e-05
333.15	0.8002	0.000586	1.3e-05
333.15	0.6995	0.000645	1.4e-05
333.15	0.5995	0.000715	1.5e-05
333.15	0.4998	0.000787	1.7e-05
333.15	0.3997	0.000868	1.9e-05
333.15	0.3002	0.000962	2.1e-05
333.15	0.2006	0.001057	2.3e-05
333.15	0.1003	0.001163	2.5e-05
333.15	0	0.001272	2.7e-05
338.15	1	0.000453	1e-05
338.15	0.9004	0.000507	1.1e-05
338.15	0.8002	0.000558	1.2e-05
338.15	0.6995	0.000612	1.3e-05
338.15	0.5995	0.000676	1.5e-05
338.15	0.4998	0.000743	1.6e-05
338.15	0.3997	0.000818	1.8e-05
338.15	0.3002	0.000904	1.9e-05
338.15	0.2006	0.000991	2.1e-05
338.15	0.1003	0.001088	2.3e-05
338.15	0	0.001188	2.6e-05
343.15	1	0.000434	9e-06
343.15	0.9004	0.000484	1e-05
343.15	0.8002	0.000533	1.2e-05
343.15	0.6995	0.000581	1.3e-05
343.15	0.5995	0.000641	1.4e-05
343.15	0.4998	0.000703	1.5e-05
343.15	0.3997	0.000772	1.7e-05
343.15	0.3002	0.000851	1.8e-05
343.15	0.2006	0.000931	2e-05
343.15	0.1003	0.00102	2.2e-05
343.15	0	0.001111	2.4e-05

System: cis-decahydronaphthalene + trans-decahydronaphthalene + cyclopentanol; phases: Liquid
Fixed: Pressure, kPa = 100
Fixed: Solvent: Mole fraction of cis-decahydronaphthalene = 0.5
Property: Mass density, kg/m3 (Liquid); method: Vibrating tube method
Temperature, K	Mole fraction of cyclopentanol	Mass density, kg/m3	uncertainty
293.15	1	946.99	1.52
293.15	0.8994	936.16	1.5
293.15	0.7987	926.59	1.49
293.15	0.6999	918.22	1.47
293.15	0.6031	910.89	1.46
293.15	0.5058	904.31	1.45
293.15	0.4003	898.01	1.44
293.15	0.3007	892.77	1.43
293.15	0.2029	888.14	1.43
293.15	0.1046	883.99	1.42
293.15	0	880.41	1.41
298.15	1	943.05	1.51
298.15	0.8994	932.17	1.5
298.15	0.7987	922.57	1.48
298.15	0.6999	914.19	1.47
298.15	0.6031	906.87	1.46
298.15	0.5058	900.32	1.45
298.15	0.4003	894.06	1.44
298.15	0.3007	888.83	1.43
298.15	0.2029	884.24	1.42
298.15	0.1046	880.13	1.41
298.15	0	876.64	1.41
303.15	1	939.05	1.51
303.15	0.8994	928.12	1.49
303.15	0.7987	918.5	1.47
303.15	0.6999	910.13	1.46
303.15	0.6031	902.83	1.45
303.15	0.5058	896.3	1.44
303.15	0.4003	890.07	1.43
303.15	0.3007	884.89	1.42
303.15	0.2029	880.32	1.41
303.15	0.1046	876.25	1.41
303.15	0	872.86	1.4
308.15	1	935	1.5
308.15	0.8994	924.03	1.48
308.15	0.7987	914.39	1.47
308.15	0.6999	906.02	1.45
308.15	0.6031	898.75	1.44
308.15	0.5058	892.26	1.43
308.15	0.4003	886.07	1.42
308.15	0.3007	880.92	1.41
308.15	0.2029	876.39	1.41
308.15	0.1046	872.37	1.4
308.15	0	869.1	1.4
313.15	1	930.91	1.49
313.15	0.8994	919.9	1.48
313.15	0.7987	910.24	1.46
313.15	0.6999	901.88	1.45
313.15	0.6031	894.64	1.44
313.15	0.5058	888.19	1.43
313.15	0.4003	882.04	1.42
313.15	0.3007	876.93	1.41
313.15	0.2029	872.44	1.4
313.15	0.1046	868.47	1.39
313.15	0	865.33	1.39
318.15	1	926.75	1.49
318.15	0.8994	915.7	1.47
318.15	0.7987	906.04	1.45
318.15	0.6999	897.7	1.44
318.15	0.6031	890.5	1.43
318.15	0.5058	884.08	1.42
318.15	0.4003	877.98	1.41
318.15	0.3007	872.91	1.4
318.15	0.2029	868.47	1.39
318.15	0.1046	864.56	1.39
318.15	0	861.56	1.38
323.15	1	922.53	1.48
323.15	0.8994	911.46	1.46
323.15	0.7987	901.79	1.45
323.15	0.6999	893.48	1.43
323.15	0.6031	886.31	1.42
323.15	0.5058	879.94	1.41
323.15	0.4003	873.89	1.4
323.15	0.3007	868.87	1.4
323.15	0.2029	864.48	1.39
323.15	0.1046	860.63	1.38
323.15	0	857.8	1.38
328.15	1	918.24	1.47
328.15	0.8994	907.15	1.46
328.15	0.7987	897.5	1.44
328.15	0.6999	889.22	1.43
328.15	0.6031	882.09	1.42
328.15	0.5058	875.76	1.41
328.15	0.4003	869.77	1.4
328.15	0.3007	864.81	1.39
328.15	0.2029	860.47	1.38
328.15	0.1046	856.7	1.38
328.15	0	854.02	1.37
333.15	1	913.89	1.47
333.15	0.8994	902.79	1.45
333.15	0.7987	893.16	1.43
333.15	0.6999	884.91	1.42
333.15	0.6031	877.83	1.41
333.15	0.5058	871.56	1.4
333.15	0.4003	865.62	1.39
333.15	0.3007	860.71	1.38
333.15	0.2029	856.44	1.38
333.15	0.1046	852.75	1.37
333.15	0	850.25	1.37
338.15	1	909.48	1.46
338.15	0.8994	898.37	1.44
338.15	0.7987	888.76	1.43
338.15	0.6999	880.56	1.41
338.15	0.6031	873.53	1.4
338.15	0.5058	867.31	1.39
338.15	0.4003	861.44	1.38
338.15	0.3007	856.59	1.38
338.15	0.2029	852.38	1.37
338.15	0.1046	848.79	1.36
338.15	0	846.47	1.36
343.15	1	904.99	1.45
343.15	0.8994	893.89	1.44
343.15	0.7987	884.31	1.42
343.15	0.6999	876.15	1.41
343.15	0.6031	869.18	1.4
343.15	0.5058	863.02	1.39
343.15	0.4003	857.21	1.38
343.15	0.3007	852.43	1.37
343.15	0.2029	848.3	1.36
343.15	0.1046	844.81	1.36
343.15	0	842.68	1.35

System: cis-decahydronaphthalene + trans-decahydronaphthalene + cyclopentanol; phases: Liquid
Fixed: Pressure, kPa = 100
Fixed: Solvent: Mole fraction of cis-decahydronaphthalene = 0.5
Property: Viscosity, Pa*s (Liquid); method: Falling or rolling sphere viscometry
Temperature, K	Mole fraction of cyclopentanol	Viscosity, Pa*s	uncertainty
293.15	1	0.011883	0.000254
293.15	0.8994	0.008771	0.000188
293.15	0.7987	0.00671	0.000144
293.15	0.6999	0.005338	0.000114
293.15	0.6031	0.004398	9.4e-05
293.15	0.5058	0.003753	8e-05
293.15	0.4003	0.003264	7e-05
293.15	0.3007	0.002959	6.3e-05
293.15	0.2029	0.002737	5.9e-05
293.15	0.1046	0.00257	5.5e-05
293.15	0	0.002488	5.3e-05
298.15	1	0.009722	0.000208
298.15	0.8994	0.007272	0.000156
298.15	0.7987	0.005648	0.000121
298.15	0.6999	0.004565	9.8e-05
298.15	0.6031	0.003816	8.2e-05
298.15	0.5058	0.003296	7.1e-05
298.15	0.4003	0.0029	6.2e-05
298.15	0.3007	0.002648	5.7e-05
298.15	0.2029	0.002461	5.3e-05
298.15	0.1046	0.002319	5e-05
298.15	0	0.002255	4.8e-05
303.15	1	0.008068	0.000173
303.15	0.8994	0.006094	0.000131
303.15	0.7987	0.004808	0.000103
303.15	0.6999	0.003944	8.5e-05
303.15	0.6031	0.00334	7.2e-05
303.15	0.5058	0.002917	6.2e-05
303.15	0.4003	0.002594	5.6e-05
303.15	0.3007	0.002384	5.1e-05
303.15	0.2029	0.002225	4.8e-05
303.15	0.1046	0.002103	4.5e-05
303.15	0	0.002054	4.4e-05
308.15	1	0.007077	0.000152
308.15	0.8994	0.005153	0.000111
308.15	0.7987	0.004126	8.8e-05
308.15	0.6999	0.003433	7.4e-05
308.15	0.6031	0.002942	6.3e-05
308.15	0.5058	0.002598	5.6e-05
308.15	0.4003	0.002331	5e-05
308.15	0.3007	0.002154	4.6e-05
308.15	0.2029	0.002019	4.3e-05
308.15	0.1046	0.001917	4.1e-05
308.15	0	0.00188	4e-05
313.15	1	0.00604	0.000129
313.15	0.8994	0.004389	9.4e-05
313.15	0.7987	0.003567	7.6e-05
313.15	0.6999	0.003007	6.4e-05
313.15	0.6031	0.002608	5.6e-05
313.15	0.5058	0.002327	5e-05
313.15	0.4003	0.002104	4.5e-05
313.15	0.3007	0.001954	4.2e-05
313.15	0.2029	0.00184	3.9e-05
313.15	0.1046	0.001754	3.8e-05
313.15	0	0.001727	3.7e-05
318.15	1	0.00519	0.000111
318.15	0.8994	0.003767	8.1e-05
318.15	0.7987	0.003105	6.7e-05
318.15	0.6999	0.00265	5.7e-05
318.15	0.6031	0.002325	5e-05
318.15	0.5058	0.002093	4.5e-05
318.15	0.4003	0.001906	4.1e-05
318.15	0.3007	0.001782	3.8e-05
318.15	0.2029	0.001684	3.6e-05
318.15	0.1046	0.00161	3.4e-05
318.15	0	0.001592	3.4e-05
323.15	1	0.004441	9.5e-05
323.15	0.8994	0.003257	7e-05
323.15	0.7987	0.00272	5.8e-05
323.15	0.6999	0.002351	5e-05
323.15	0.6031	0.002083	4.5e-05
323.15	0.5058	0.00189	4e-05
323.15	0.4003	0.001734	3.7e-05
323.15	0.3007	0.001629	3.5e-05
323.15	0.2029	0.001546	3.3e-05
323.15	0.1046	0.001483	3.2e-05
323.15	0	0.001473	3.2e-05
328.15	1	0.00383	8.2e-05
328.15	0.8994	0.002834	6.1e-05
328.15	0.7987	0.002397	5.1e-05
328.15	0.6999	0.002095	4.5e-05
328.15	0.6031	0.001874	4e-05
328.15	0.5058	0.001714	3.7e-05
328.15	0.4003	0.001583	3.4e-05
328.15	0.3007	0.001494	3.2e-05
328.15	0.2029	0.001424	3.1e-05
328.15	0.1046	0.001371	2.9e-05
328.15	0	0.001367	2.9e-05
333.15	1	0.003312	7.1e-05
333.15	0.8994	0.002482	5.3e-05
333.15	0.7987	0.002125	4.6e-05
333.15	0.6999	0.001877	4e-05
333.15	0.6031	0.001694	3.6e-05
333.15	0.5058	0.00156	3.3e-05
333.15	0.4003	0.00145	3.1e-05
333.15	0.3007	0.001376	2.9e-05
333.15	0.2029	0.001314	2.8e-05
333.15	0.1046	0.00127	2.7e-05
333.15	0	0.001272	2.7e-05
338.15	1	0.002886	6.2e-05
338.15	0.8994	0.002187	4.7e-05
338.15	0.7987	0.001894	4.1e-05
338.15	0.6999	0.001689	3.6e-05
338.15	0.6031	0.001537	3.3e-05
338.15	0.5058	0.001425	3.1e-05
338.15	0.4003	0.001331	2.9e-05
338.15	0.3007	0.00127	2.7e-05
338.15	0.2029	0.001218	2.6e-05
338.15	0.1046	0.001181	2.5e-05
338.15	0	0.001188	2.5e-05
343.15	1	0.00253	5.4e-05
343.15	0.8994	0.001937	4.2e-05
343.15	0.7987	0.001696	3.6e-05
343.15	0.6999	0.001527	3.3e-05
343.15	0.6031	0.001399	3e-05
343.15	0.5058	0.001305	2.8e-05
343.15	0.4003	0.001226	2.6e-05
343.15	0.3007	0.001175	2.5e-05
343.15	0.2029	0.001131	2.4e-05
343.15	0.1046	0.0011	2.4e-05
343.15	0	0.001111	2.4e-05

System: methylcyclohexane + cyclopentanol; phases: Liquid
Fixed: Pressure, kPa = 100
Property: Mass density, kg/m3 (Liquid); method: Vibrating tube method
Mole fraction of methylcyclohexane	Temperature, K	Mass density, kg/m3	uncertainty
0	293.15	946.99	1.52
0.0995	293.15	924.17	1.48
0.2005	293.15	902.36	1.45
0.2971	293.15	882.38	1.42
0.4001	293.15	862.34	1.39
0.5014	293.15	843.89	1.36
0.5994	293.15	827.06	1.33
0.6828	293.15	813.6	1.31
0.7949	293.15	796.76	1.29
0.8975	293.15	782.42	1.26
1	293.15	769.35	1.24
0	298.15	943.05	1.51
0.0995	298.15	920.12	1.48
0.2005	298.15	898.22	1.44
0.2971	298.15	878.17	1.41
0.4001	298.15	858.07	1.38
0.5014	298.15	839.58	1.35
0.5994	298.15	822.73	1.33
0.6828	298.15	809.25	1.3
0.7949	298.15	792.38	1.28
0.8975	298.15	778.04	1.26
1	298.15	765	1.24
0	303.15	939.05	1.5
0.0995	303.15	916.02	1.47
0.2005	303.15	894.03	1.44
0.2971	303.15	873.91	1.4
0.4001	303.15	853.76	1.37
0.5014	303.15	835.24	1.34
0.5994	303.15	818.37	1.32
0.6828	303.15	804.87	1.3
0.7949	303.15	787.97	1.27
0.8975	303.15	773.63	1.25
1	303.15	760.65	1.23
0	308.15	935	1.5
0.0995	308.15	911.87	1.46
0.2005	308.15	889.79	1.43
0.2971	308.15	869.61	1.4
0.4001	308.15	849.41	1.37
0.5014	308.15	830.86	1.34
0.5994	308.15	813.97	1.31
0.6828	308.15	800.45	1.29
0.7949	308.15	783.54	1.27
0.8975	308.15	769.19	1.24
1	308.15	756.3	1.22
0	313.15	930.91	1.49
0.0995	313.15	907.67	1.46
0.2005	313.15	885.51	1.42
0.2971	313.15	865.27	1.39
0.4001	313.15	845.02	1.36
0.5014	313.15	826.44	1.33
0.5994	313.15	809.53	1.3
0.6828	313.15	796	1.28
0.7949	313.15	779.07	1.26
0.8975	313.15	764.73	1.24
1	313.15	751.93	1.22
0	318.15	926.75	1.48
0.0995	318.15	903.41	1.45
0.2005	318.15	881.17	1.42
0.2971	318.15	860.88	1.38
0.4001	318.15	840.59	1.35
0.5014	318.15	821.99	1.32
0.5994	318.15	805.06	1.3
0.6828	318.15	791.51	1.28
0.7949	318.15	774.57	1.25
0.8975	318.15	760.23	1.23
1	318.15	747.56	1.21
0	323.15	922.53	1.48
0.0995	323.15	899.09	1.44
0.2005	323.15	876.78	1.41
0.2971	323.15	856.11	1.38
0.4001	323.15	836.11	1.35
0.5014	323.15	817.49	1.32
0.5994	323.15	800.54	1.29
0.6828	323.15	786.98	1.27
0.7949	323.15	770.03	1.24
0.8975	323.15	755.7	1.22
1	323.15	743.16	1.2
0	328.15	918.24	1.47
0.0995	328.15	894.72	1.44
0.2005	328.15	872.33	1.4
0.2971	328.15	851.95	1.37
0.4001	328.15	831.58	1.34
0.5014	328.15	812.94	1.31
0.5994	328.15	795.97	1.28
0.6828	328.15	782.41	1.26
0.7949	328.15	765.45	1.24
0.8975	328.15	751.14	1.22
1	328.15	738.74	1.2
0	333.15	913.89	1.46
0.0995	333.15	890.28	1.43
0.2005	333.15	867.83	1.39
0.2971	333.15	847.4	1.36
0.4001	333.15	827	1.33
0.5014	333.15	808.34	1.3
0.5994	333.15	791.36	1.28
0.6828	333.15	777.79	1.26
0.7949	333.15	760.84	1.23
0.8975	333.15	746.55	1.21
1	333.15	734.29	1.19
0	338.15	909.48	1.46
0.0995	338.15	885.78	1.42
0.2005	338.15	863.28	1.39
0.2971	338.15	842.8	1.36
0.4001	338.15	822.37	1.32
0.5014	338.15	803.69	1.29
0.5994	338.15	786.71	1.27
0.6828	338.15	773.13	1.25
0.7949	338.15	756.2	1.22
0.8975	338.15	741.93	1.2
1	338.15	729.82	1.18
0	343.15	904.99	1.45
0.0995	343.15	881.21	1.42
0.2005	343.15	858.67	1.38
0.2971	343.15	838.13	1.35
0.4001	343.15	817.69	1.32
0.5014	343.15	799	1.29
0.5994	343.15	782.01	1.26
0.6828	343.15	768.43	1.24
0.7949	343.15	751.51	1.22
0.8975	343.15	737.27	1.19
1	343.15	725.32	1.18

System: methylcyclohexane + cyclopentanol; phases: Liquid
Fixed: Pressure, kPa = 100
Property: Viscosity, Pa*s (Liquid); method: Falling or rolling sphere viscometry
Mole fraction of methylcyclohexane	Temperature, K	Viscosity, Pa*s	uncertainty
0	293.15	0.011883	0.000253
0.0995	293.15	0.007639	0.000163
0.2005	293.15	0.004929	0.000107
0.2971	293.15	0.003505	7.6e-05
0.4001	293.15	0.00241	5.2e-05
0.5014	293.15	0.001793	3.9e-05
0.5994	293.15	0.001396	3e-05
0.6828	293.15	0.001166	2.5e-05
0.7949	293.15	0.00096	2.1e-05
0.8975	293.15	0.000826	1.8e-05
1	293.15	0.000735	1.6e-05
0	298.15	0.009722	0.000207
0.0995	298.15	0.006316	0.000135
0.2005	298.15	0.004183	8.9e-05
0.2971	298.15	0.00303	6.5e-05
0.4001	298.15	0.002123	4.5e-05
0.5014	298.15	0.001602	3.4e-05
0.5994	298.15	0.001268	2.7e-05
0.6828	298.15	0.001071	2.3e-05
0.7949	298.15	0.00089	1.9e-05
0.8975	298.15	0.000772	1.7e-05
1	298.15	0.000689	1.5e-05
0	303.15	0.008068	0.000172
0.0995	303.15	0.00548	0.000117
0.2005	303.15	0.003587	7.7e-05
0.2971	303.15	0.002644	5.7e-05
0.4001	303.15	0.001885	4e-05
0.5014	303.15	0.001445	3.1e-05
0.5994	303.15	0.00116	2.5e-05
0.6828	303.15	0.000989	2.1e-05
0.7949	303.15	0.000827	1.8e-05
0.8975	303.15	0.000722	1.6e-05
1	303.15	0.000647	1.4e-05
0	308.15	0.007077	0.000151
0.0995	308.15	0.00466	9.9e-05
0.2005	308.15	0.003099	6.6e-05
0.2971	308.15	0.002324	5e-05
0.4001	308.15	0.001685	3.6e-05
0.5014	308.15	0.001312	2.8e-05
0.5994	308.15	0.001065	2.3e-05
0.6828	308.15	0.000916	2e-05
0.7949	308.15	0.000771	1.7e-05
0.8975	308.15	0.000677	1.5e-05
1	308.15	0.000611	1.3e-05
0	313.15	0.00604	0.000129
0.0995	313.15	0.004046	8.6e-05
0.2005	313.15	0.002695	5.8e-05
0.2971	313.15	0.002055	4.4e-05
0.4001	313.15	0.001514	3.2e-05
0.5014	313.15	0.001196	2.6e-05
0.5994	313.15	0.000982	2.1e-05
0.6828	313.15	0.000851	1.8e-05
0.7949	313.15	0.000721	1.6e-05
0.8975	313.15	0.000636	1.4e-05
1	313.15	0.000577	1.2e-05
0	318.15	0.00519	0.00011
0.0995	318.15	0.003487	7.4e-05
0.2005	318.15	0.002361	5e-05
0.2971	318.15	0.001828	3.9e-05
0.4001	318.15	0.001368	2.9e-05
0.5014	318.15	0.001093	2.3e-05
0.5994	318.15	0.000907	1.9e-05
0.6828	318.15	0.000793	1.7e-05
0.7949	318.15	0.000677	1.5e-05
0.8975	318.15	0.0006	1.3e-05
1	318.15	0.000547	1.2e-05
0	323.15	0.004441	9.5e-05
0.0995	323.15	0.003037	6.5e-05
0.2005	323.15	0.002081	4.4e-05
0.2971	323.15	0.001635	3.5e-05
0.4001	323.15	0.001241	2.7e-05
0.5014	323.15	0.001004	2.2e-05
0.5994	323.15	0.000842	1.8e-05
0.6828	323.15	0.00074	1.6e-05
0.7949	323.15	0.000636	1.4e-05
0.8975	323.15	0.000566	1.2e-05
1	323.15	0.000519	1.1e-05
0	328.15	0.00383	8.2e-05
0.0995	328.15	0.002674	5.7e-05
0.2005	328.15	0.001843	3.9e-05
0.2971	328.15	0.001472	3.1e-05
0.4001	328.15	0.00113	2.4e-05
0.5014	328.15	0.000924	2e-05
0.5994	328.15	0.000782	1.7e-05
0.6828	328.15	0.000692	1.5e-05
0.7949	328.15	0.000599	1.3e-05
0.8975	328.15	0.000537	1.2e-05
1	328.15	0.000495	1.1e-05
0	333.15	0.003312	7e-05
0.0995	333.15	0.002366	5e-05
0.2005	333.15	0.001642	3.5e-05
0.2971	333.15	0.001329	2.8e-05
0.4001	333.15	0.001033	2.2e-05
0.5014	333.15	0.000853	1.8e-05
0.5994	333.15	0.000731	1.6e-05
0.6828	333.15	0.00065	1.4e-05
0.7949	333.15	0.000566	1.2e-05
0.8975	333.15	0.00051	1.1e-05
1	333.15	0.000473	1e-05
0	338.15	0.002886	6.1e-05
0.0995	338.15	0.002109	4.5e-05
0.2005	338.15	0.001471	3.1e-05
0.2971	338.15	0.001205	2.6e-05
0.4001	338.15	0.000948	2e-05
0.5014	338.15	0.00079	1.7e-05
0.5994	338.15	0.000683	1.5e-05
0.6828	338.15	0.000611	1.3e-05
0.7949	338.15	0.000536	1.2e-05
0.8975	338.15	0.000486	1.1e-05
1	338.15	0.000453	1e-05
0	343.15	0.00253	5.4e-05
0.0995	343.15	0.001879	4e-05
0.2005	343.15	0.001326	2.9e-05
0.2971	343.15	0.001108	2.4e-05
0.4001	343.15	0.000873	1.9e-05
0.5014	343.15	0.000734	1.6e-05
0.5994	343.15	0.000641	1.4e-05
0.6828	343.15	0.000577	1.2e-05
0.7949	343.15	0.000517	1.1e-05
0.8975	343.15	0.000464	1e-05
1	343.15	0.000434	9e-06
