Measured thermophysical data. Solubility Determination and Modeling for 4-Nitrobenzonitrile in Binary Solvent Mixtures of Ethyl Acetate Plus (Methanol, Ethanol, n-Propanol, and Isopropanol)
Source: J. Chem. Eng. Data, 2018, 10.1021/acs.jced.8b00555
Compound 1: p-nitrobenzonitrile, C7H4N2O2, InChI=1S/C7H4N2O2/c8-5-6-1-3-7(4-2-6)9(10)11/h1-4H, purity 97%
Compound 2: methanol, CH4O, InChI=1S/CH4O/c1-2/h2H,1H3, purity 99.3%
Compound 3: ethanol, C2H6O, InChI=1S/C2H6O/c1-2-3/h3H,2H2,1H3, purity 99.5%
Compound 4: propan-1-ol, C3H8O, InChI=1S/C3H8O/c1-2-3-4/h4H,2-3H2,1H3, purity 99.4%
Compound 5: propan-2-ol, C3H8O, InChI=1S/C3H8O/c1-3(2)4/h3-4H,1-2H3, purity 99.4%
Compound 6: ethyl acetate, C4H8O2, InChI=1S/C4H8O2/c1-3-6-4(2)5/h3H2,1-2H3, purity 99.5%

System: p-nitrobenzonitrile + ethyl acetate + methanol; phases: Liquid, Crystal
Fixed: Pressure, kPa = 101.1
Property: Mole fraction of p-nitrobenzonitrile (Liquid); method: Chromatography
Temperature, K	Solvent: Mass fraction of ethyl acetate	Mole fraction of p-nitrobenzonitrile	uncertainty
278.15	0	0.003201	0.00032
283.15	0	0.003699	0.00037
288.15	0	0.004478	0.000448
293.15	0	0.005407	0.000541
298.15	0	0.00652	0.000652
303.15	0	0.007878	0.000788
308.15	0	0.00955	0.000955
313.15	0	0.01145	0.00115
318.15	0	0.01346	0.00135
278.15	0.1	0.00652	0.00065
283.15	0.1	0.00747	0.00075
288.15	0.1	0.00894	0.00089
293.15	0.1	0.01066	0.00107
298.15	0.1	0.01271	0.00127
303.15	0.1	0.0152	0.0015
308.15	0.1	0.01826	0.00183
313.15	0.1	0.02173	0.00217
318.15	0.1	0.02542	0.00254
278.15	0.2	0.0105	0.0011
283.15	0.2	0.01197	0.0012
288.15	0.2	0.01422	0.00142
293.15	0.2	0.01681	0.00168
298.15	0.2	0.0199	0.00199
303.15	0.2	0.02364	0.00236
308.15	0.2	0.02826	0.00283
313.15	0.2	0.0335	0.00335
318.15	0.2	0.03913	0.00391
278.15	0.3	0.01456	0.00146
283.15	0.3	0.01656	0.00166
288.15	0.3	0.01956	0.00196
293.15	0.3	0.02299	0.0023
298.15	0.3	0.02709	0.00271
303.15	0.3	0.03204	0.00321
308.15	0.3	0.03818	0.00382
313.15	0.3	0.04519	0.00452
318.15	0.3	0.05281	0.00528
278.15	0.4	0.01825	0.00183
283.15	0.4	0.02074	0.00207
288.15	0.4	0.02441	0.00244
293.15	0.4	0.02857	0.00286
298.15	0.4	0.03356	0.00336
303.15	0.4	0.03958	0.00396
308.15	0.4	0.04709	0.00471
313.15	0.4	0.05573	0.00557
318.15	0.4	0.06526	0.00653
278.15	0.5	0.02152	0.00215
283.15	0.5	0.02448	0.00245
288.15	0.5	0.02873	0.00287
293.15	0.5	0.03351	0.00335
298.15	0.5	0.03929	0.00393
303.15	0.5	0.04624	0.00463
308.15	0.5	0.05498	0.0055
313.15	0.5	0.0651	0.00651
318.15	0.5	0.07642	0.00764
278.15	0.6	0.02301	0.0023
283.15	0.6	0.02777	0.00278
288.15	0.6	0.03329	0.00333
293.15	0.6	0.03967	0.00397
298.15	0.6	0.04699	0.0047
303.15	0.6	0.05535	0.00554
308.15	0.6	0.06485	0.00649
313.15	0.6	0.0756	0.00756
318.15	0.6	0.08771	0.00877
278.15	0.7	0.02654	0.00265
283.15	0.7	0.03201	0.0032
288.15	0.7	0.03835	0.00384
293.15	0.7	0.04567	0.00457
298.15	0.7	0.05407	0.00541
303.15	0.7	0.06366	0.00637
308.15	0.7	0.07455	0.00746
313.15	0.7	0.08687	0.00869
318.15	0.7	0.1007	0.0101
278.15	0.8	0.03318	0.00332
283.15	0.8	0.03783	0.00378
288.15	0.8	0.04412	0.00441
293.15	0.8	0.05099	0.0051
298.15	0.8	0.05947	0.00595
303.15	0.8	0.06964	0.00697
308.15	0.8	0.08273	0.00828
313.15	0.8	0.09821	0.00982
318.15	0.8	0.1163	0.0116
278.15	0.9	0.03415	0.00342
283.15	0.9	0.04117	0.00412
288.15	0.9	0.0493	0.00493
293.15	0.9	0.05868	0.00587
298.15	0.9	0.06943	0.00695
303.15	0.9	0.0817	0.00817
308.15	0.9	0.09563	0.00957
313.15	0.9	0.1114	0.0111
318.15	0.9	0.1291	0.0129
278.15	1	0.04044	0.00405
283.15	1	0.04627	0.00463
288.15	1	0.05381	0.00538
293.15	1	0.0619	0.00619
298.15	1	0.07205	0.00721
303.15	1	0.0842	0.00842
308.15	1	0.1001	0.01
313.15	1	0.1192	0.0119
318.15	1	0.1422	0.0142

System: p-nitrobenzonitrile + ethyl acetate + ethanol; phases: Liquid, Crystal
Fixed: Pressure, kPa = 101.1
Property: Mole fraction of p-nitrobenzonitrile (Liquid); method: Chromatography
Temperature, K	Solvent: Mass fraction of ethyl acetate	Mole fraction of p-nitrobenzonitrile	uncertainty
278.15	0	0.002552	0.000255
283.15	0	0.003023	0.000302
288.15	0	0.003758	0.000376
293.15	0	0.004537	0.000454
298.15	0	0.005564	0.000557
303.15	0	0.006724	0.000673
308.15	0	0.008213	0.000822
313.15	0	0.009841	0.000984
318.15	0	0.01159	0.00116
278.15	0.1	0.00568	0.00057
283.15	0.1	0.006642	0.000664
288.15	0.1	0.00814	0.00081
293.15	0.1	0.009697	0.00097
298.15	0.1	0.01172	0.00117
303.15	0.1	0.014	0.0014
308.15	0.1	0.01693	0.00169
313.15	0.1	0.02012	0.00201
318.15	0.1	0.02355	0.00236
278.15	0.2	0.009619	0.000962
283.15	0.2	0.01116	0.00112
288.15	0.2	0.01353	0.00135
293.15	0.2	0.01597	0.0016
298.15	0.2	0.01912	0.00191
303.15	0.2	0.02268	0.00227
308.15	0.2	0.02725	0.00273
313.15	0.2	0.03225	0.00323
318.15	0.2	0.03767	0.00377
278.15	0.3	0.01366	0.00137
283.15	0.3	0.01578	0.00158
288.15	0.3	0.01897	0.0019
293.15	0.3	0.02226	0.00223
298.15	0.3	0.02648	0.00265
303.15	0.3	0.03128	0.00313
308.15	0.3	0.03742	0.00374
313.15	0.3	0.04423	0.00442
318.15	0.3	0.05168	0.00517
278.15	0.4	0.01729	0.00173
283.15	0.4	0.01991	0.00199
288.15	0.4	0.02378	0.00238
293.15	0.4	0.02779	0.00278
298.15	0.4	0.03293	0.00329
303.15	0.4	0.03878	0.00388
308.15	0.4	0.04631	0.00463
313.15	0.4	0.05473	0.00547
318.15	0.4	0.06408	0.00641
278.15	0.5	0.02047	0.00205
283.15	0.5	0.02353	0.00235
288.15	0.5	0.02798	0.0028
293.15	0.5	0.0326	0.00326
298.15	0.5	0.03848	0.00385
303.15	0.5	0.04525	0.00453
308.15	0.5	0.05397	0.0054
313.15	0.5	0.06383	0.00639
318.15	0.5	0.07494	0.0075
278.15	0.6	0.02381	0.00238
283.15	0.6	0.02734	0.00273
288.15	0.6	0.03235	0.00324
293.15	0.6	0.03759	0.00376
298.15	0.6	0.04424	0.00443
303.15	0.6	0.05194	0.0052
308.15	0.6	0.06189	0.00619
313.15	0.6	0.07328	0.00733
318.15	0.6	0.08628	0.00863
278.15	0.6998	0.02577	0.00258
283.15	0.6998	0.03113	0.00311
288.15	0.6998	0.03736	0.00374
293.15	0.6998	0.04455	0.00446
298.15	0.6998	0.05282	0.00528
303.15	0.6998	0.06228	0.00623
308.15	0.6998	0.07303	0.00731
313.15	0.6998	0.0852	0.00852
318.15	0.6998	0.09892	0.00989
278.15	0.8	0.02983	0.00298
283.15	0.8	0.036	0.0036
288.15	0.8	0.04316	0.00432
293.15	0.8	0.05142	0.00514
298.15	0.8	0.06091	0.00609
303.15	0.8	0.07175	0.00718
308.15	0.8	0.08407	0.00841
313.15	0.8	0.098	0.0098
318.15	0.8	0.1137	0.0114
278.15	0.9	0.03389	0.00339
283.15	0.9	0.04087	0.00409
288.15	0.9	0.04897	0.0049
293.15	0.9	0.05831	0.00583
298.15	0.9	0.06902	0.0069
303.15	0.9	0.08126	0.00813
308.15	0.9	0.09515	0.00952
313.15	0.9	0.1109	0.0111
318.15	0.9	0.1286	0.0129
278.15	1	0.04044	0.00405
283.15	1	0.04627	0.00463
288.15	1	0.05381	0.00538
293.15	1	0.0619	0.00619
298.15	1	0.07205	0.00721
303.15	1	0.0842	0.00842
308.15	1	0.1001	0.01
313.15	1	0.1192	0.0119
318.15	1	0.1422	0.0142

System: p-nitrobenzonitrile + ethyl acetate + propan-1-ol; phases: Liquid, Crystal
Fixed: Pressure, kPa = 101.1
Property: Mole fraction of p-nitrobenzonitrile (Liquid); method: Chromatography
Temperature, K	Solvent: Mass fraction of ethyl acetate	Mole fraction of p-nitrobenzonitrile	uncertainty
278.15	0	0.002265	0.000227
283.15	0	0.002714	0.000271
288.15	0	0.0033	0.00033
293.15	0	0.00407	0.000407
298.15	0	0.00505	0.000505
303.15	0	0.006193	0.00062
308.15	0	0.007585	0.000759
313.15	0	0.009085	0.000909
318.15	0	0.01082	0.00108
278.15	0.1	0.005325	0.000533
283.15	0.1	0.006268	0.000627
288.15	0.1	0.007524	0.000753
293.15	0.1	0.00913	0.000913
298.15	0.1	0.01116	0.00112
303.15	0.1	0.01349	0.00135
308.15	0.1	0.01635	0.00164
313.15	0.1	0.0194	0.00194
318.15	0.1	0.02293	0.00229
278.15	0.2	0.009269	0.000927
283.15	0.2	0.01081	0.00108
288.15	0.2	0.01286	0.00129
293.15	0.2	0.01543	0.00154
298.15	0.2	0.01866	0.00187
303.15	0.2	0.02236	0.00224
308.15	0.2	0.02692	0.00269
313.15	0.2	0.03179	0.00318
318.15	0.2	0.03745	0.00375
278.15	0.3	0.01333	0.00133
283.15	0.3	0.01546	0.00155
288.15	0.3	0.01828	0.00183
293.15	0.3	0.02175	0.00218
298.15	0.3	0.0261	0.00261
303.15	0.3	0.0311	0.00311
308.15	0.3	0.03727	0.00373
313.15	0.3	0.04396	0.0044
318.15	0.3	0.05175	0.00518
278.15	0.4	0.01692	0.00169
283.15	0.4	0.01956	0.00196
288.15	0.4	0.02305	0.00231
293.15	0.4	0.02725	0.00273
298.15	0.4	0.03251	0.00325
303.15	0.4	0.03858	0.00386
308.15	0.4	0.04614	0.00462
313.15	0.4	0.05443	0.00544
318.15	0.4	0.06413	0.00641
278.15	0.5	0.02004	0.002
283.15	0.5	0.02312	0.00231
288.15	0.5	0.02717	0.00272
293.15	0.5	0.03197	0.0032
298.15	0.5	0.03797	0.0038
303.15	0.5	0.04493	0.00449
308.15	0.5	0.05365	0.00537
313.15	0.5	0.06337	0.00634
318.15	0.5	0.07478	0.00748
278.15	0.6	0.0217	0.0022
283.15	0.6	0.02631	0.00263
288.15	0.6	0.03169	0.00317
293.15	0.6	0.03793	0.00379
298.15	0.6	0.04513	0.00451
303.15	0.6	0.05338	0.00534
308.15	0.6	0.0628	0.00628
313.15	0.6	0.0735	0.00735
318.15	0.6	0.0856	0.00856
278.15	0.7	0.02526	0.00253
283.15	0.7	0.03058	0.00306
288.15	0.7	0.03678	0.00368
293.15	0.7	0.04395	0.0044
298.15	0.7	0.0522	0.00522
303.15	0.7	0.06166	0.00617
308.15	0.7	0.07243	0.00725
313.15	0.7	0.08466	0.00847
318.15	0.7	0.09846	0.00985
278.15	0.8	0.02945	0.00295
283.15	0.8	0.03559	0.00356
288.15	0.8	0.04272	0.00427
293.15	0.8	0.05097	0.0051
298.15	0.8	0.06046	0.00605
303.15	0.8	0.0713	0.00713
308.15	0.8	0.08364	0.00837
313.15	0.8	0.09761	0.00976
318.15	0.8	0.1134	0.0113
278.15	0.9	0.03699	0.0037
283.15	0.9	0.04235	0.00424
288.15	0.9	0.04931	0.00493
293.15	0.9	0.05693	0.00569
298.15	0.9	0.06648	0.00665
303.15	0.9	0.07783	0.00779
308.15	0.9	0.09254	0.00926
313.15	0.9	0.1099	0.011
318.15	0.9	0.1307	0.0131
278.15	1	0.04044	0.00405
283.15	1	0.04627	0.00463
288.15	1	0.05381	0.00538
293.15	1	0.0619	0.00619
298.15	1	0.07205	0.00721
303.15	1	0.0842	0.00842
308.15	1	0.1001	0.01
313.15	1	0.1192	0.0119
318.15	1	0.1422	0.0142

System: p-nitrobenzonitrile + ethyl acetate + propan-2-ol; phases: Liquid, Crystal
Fixed: Pressure, kPa = 101.1
Property: Mole fraction of p-nitrobenzonitrile (Liquid); method: Chromatography
Temperature, K	Solvent: Mass fraction of ethyl acetate	Mole fraction of p-nitrobenzonitrile	uncertainty
278.15	0	0.001624	0.000162
283.15	0	0.001958	0.000196
288.15	0	0.00246	0.00025
293.15	0	0.003039	0.000304
298.15	0	0.003744	0.000375
303.15	0	0.004597	0.00046
308.15	0	0.005722	0.000572
313.15	0	0.007077	0.000708
318.15	0	0.008765	0.000877
278.15	0.1	0.004473	0.000447
283.15	0.1	0.005316	0.000532
288.15	0.1	0.006543	0.000655
293.15	0.1	0.007937	0.000794
298.15	0.1	0.009604	0.000961
303.15	0.1	0.01163	0.00116
308.15	0.1	0.01425	0.00143
313.15	0.1	0.01739	0.00174
318.15	0.1	0.02123	0.00212
278.15	0.2	0.008459	0.000846
283.15	0.2	0.009942	0.000995
288.15	0.2	0.01208	0.00121
293.15	0.2	0.01447	0.00145
298.15	0.2	0.01733	0.00173
303.15	0.2	0.02077	0.00208
308.15	0.2	0.02522	0.00252
313.15	0.2	0.03052	0.00305
318.15	0.2	0.03697	0.0037
278.15	0.3	0.01257	0.00126
283.15	0.3	0.01468	0.00147
288.15	0.3	0.01767	0.00177
293.15	0.3	0.021	0.0021
298.15	0.3	0.02497	0.0025
303.15	0.3	0.02975	0.00298
308.15	0.3	0.03591	0.00359
313.15	0.3	0.04325	0.00433
318.15	0.3	0.05214	0.00522
278.15	0.4	0.01606	0.00161
283.15	0.4	0.01867	0.00187
288.15	0.4	0.02234	0.00223
293.15	0.4	0.02638	0.00264
298.15	0.4	0.03124	0.00313
303.15	0.4	0.03707	0.00371
308.15	0.4	0.0446	0.00446
313.15	0.4	0.05358	0.00536
318.15	0.4	0.06442	0.00644
278.15	0.5	0.01899	0.0019
283.15	0.5	0.02201	0.0022
288.15	0.5	0.02621	0.00262
293.15	0.5	0.03081	0.00308
298.15	0.5	0.03637	0.00364
303.15	0.5	0.04304	0.00431
308.15	0.5	0.05167	0.00517
313.15	0.5	0.06196	0.0062
318.15	0.5	0.07438	0.00744
278.15	0.6	0.02037	0.00204
283.15	0.6	0.02487	0.00249
288.15	0.6	0.03015	0.00302
293.15	0.6	0.0363	0.00363
298.15	0.6	0.04345	0.00435
303.15	0.6	0.05169	0.00517
308.15	0.6	0.06116	0.00612
313.15	0.6	0.07197	0.0072
318.15	0.6	0.08425	0.00843
278.15	0.7	0.02402	0.0024
283.15	0.7	0.02922	0.00292
288.15	0.7	0.03531	0.00353
293.15	0.7	0.04239	0.00424
298.15	0.7	0.05058	0.00506
303.15	0.7	0.06001	0.006
308.15	0.7	0.07079	0.00708
313.15	0.7	0.08308	0.00831
318.15	0.7	0.09701	0.0097
278.15	0.8	0.02858	0.00286
283.15	0.8	0.03465	0.00347
288.15	0.8	0.04173	0.00417
293.15	0.8	0.04994	0.005
298.15	0.8	0.05941	0.00594
303.15	0.8	0.07026	0.00703
308.15	0.8	0.08265	0.00827
313.15	0.8	0.09672	0.00967
318.15	0.8	0.1126	0.0113
278.15	0.9	0.03673	0.00367
283.15	0.9	0.04209	0.00421
288.15	0.9	0.04913	0.00491
293.15	0.9	0.05672	0.00567
298.15	0.9	0.06615	0.00662
303.15	0.9	0.07743	0.00775
308.15	0.9	0.09215	0.00922
313.15	0.9	0.1098	0.011
318.15	0.9	0.131	0.0131
278.15	1	0.04044	0.00405
283.15	1	0.04627	0.00463
288.15	1	0.05381	0.00538
293.15	1	0.0619	0.00619
298.15	1	0.07205	0.00721
303.15	1	0.0842	0.00842
308.15	1	0.1001	0.01
313.15	1	0.1192	0.0119
318.15	1	0.1422	0.0142

System: p-nitrobenzonitrile + methanol; phases: Liquid, Crystal
Fixed: Pressure, kPa = 101.1
Property: Mole fraction of p-nitrobenzonitrile (Liquid); method: Chromatography
Temperature, K	Mole fraction of p-nitrobenzonitrile	uncertainty
278.15	0.003201	0.00032
283.15	0.003699	0.00037
288.15	0.004478	0.000448
293.15	0.005407	0.000541
298.15	0.00652	0.000652
303.15	0.007878	0.000788
308.15	0.00955	0.000955
313.15	0.01145	0.00115
318.15	0.01346	0.00135

System: p-nitrobenzonitrile + ethyl acetate; phases: Liquid, Crystal
Fixed: Pressure, kPa = 101.1
Property: Mole fraction of p-nitrobenzonitrile (Liquid); method: Chromatography
Temperature, K	Mole fraction of p-nitrobenzonitrile	uncertainty
278.15	0.04044	0.00405
283.15	0.04627	0.00463
288.15	0.05381	0.00538
293.15	0.0619	0.00619
298.15	0.07205	0.00721
303.15	0.0842	0.00842
308.15	0.1001	0.01
313.15	0.1192	0.0119
318.15	0.1422	0.0142

System: p-nitrobenzonitrile + ethanol; phases: Liquid, Crystal
Fixed: Pressure, kPa = 101.1
Property: Mole fraction of p-nitrobenzonitrile (Liquid); method: Chromatography
Temperature, K	Mole fraction of p-nitrobenzonitrile	uncertainty
278.15	0.002552	0.000255
283.15	0.003023	0.000302
288.15	0.003758	0.000376
293.15	0.004537	0.000454
298.15	0.005564	0.000557
303.15	0.006724	0.000673
308.15	0.008213	0.000822
313.15	0.009841	0.000984
318.15	0.01159	0.00116

System: p-nitrobenzonitrile + propan-1-ol; phases: Liquid, Crystal
Fixed: Pressure, kPa = 101.1
Property: Mole fraction of p-nitrobenzonitrile (Liquid); method: Chromatography
Temperature, K	Mole fraction of p-nitrobenzonitrile	uncertainty
278.15	0.002265	0.000227
283.15	0.002714	0.000271
288.15	0.0033	0.00033
293.15	0.00407	0.000407
298.15	0.00505	0.000505
303.15	0.006193	0.00062
308.15	0.007585	0.000759
313.15	0.009085	0.000909
318.15	0.01082	0.00108

System: p-nitrobenzonitrile + propan-2-ol; phases: Liquid, Crystal
Fixed: Pressure, kPa = 101.1
Property: Mole fraction of p-nitrobenzonitrile (Liquid); method: Chromatography
Temperature, K	Mole fraction of p-nitrobenzonitrile	uncertainty
278.15	0.001624	0.000162
283.15	0.001958	0.000196
288.15	0.00246	0.00025
293.15	0.003039	0.000304
298.15	0.003744	0.000375
303.15	0.004597	0.00046
308.15	0.005722	0.000572
313.15	0.007077	0.000708
318.15	0.008765	0.000877
