Measured thermophysical data. Liquid Liquid Equilibrium data for the ternary systems of Water, Isopropyl alcohol, and selected entrainers
Source: J. Chem. Eng. Data, 2016, 10.1021/acs.jced.5b00542
Compound 1: water, H2O, InChI=1S/H2O/h1H2
Compound 2: propan-2-ol, C3H8O, InChI=1S/C3H8O/c1-3(2)4/h3-4H,1-2H3, purity 99.5%
Compound 3: benzene, C6H6, InChI=1S/C6H6/c1-2-4-6-5-3-1/h1-6H, purity 99.8%
Compound 4: cyclohexane, C6H12, InChI=1S/C6H12/c1-2-4-6-5-3-1/h1-6H2, purity 99.9%
Compound 5: hexane, C6H14, InChI=1S/C6H14/c1-3-5-6-4-2/h3-6H2,1-2H3, purity 99.9%

System: propan-2-ol; phases: Liquid
Property: Mass density, kg/m3 (Liquid); method: Vibrating tube method
Temperature, K	Pressure, kPa	Mass density, kg/m3	uncertainty
298.15	101.325	798	20

System: benzene; phases: Liquid
Property: Mass density, kg/m3 (Liquid); method: Vibrating tube method
Temperature, K	Pressure, kPa	Mass density, kg/m3	uncertainty
298.15	101.325	874	20

System: cyclohexane; phases: Liquid
Property: Mass density, kg/m3 (Liquid); method: Vibrating tube method
Temperature, K	Pressure, kPa	Mass density, kg/m3	uncertainty
298.15	101.325	779	20

System: hexane; phases: Liquid
Property: Mass density, kg/m3 (Liquid); method: Vibrating tube method
Temperature, K	Pressure, kPa	Mass density, kg/m3	uncertainty
298.15	101.325	659	20

System: propan-2-ol + hexane + water; phases: Liquid mixture 2, Liquid mixture 1
Fixed: Pressure, kPa = 101.3
Property: Mole fraction of propan-2-ol (Liquid mixture 2); method: Chromatography
Property: Mole fraction of hexane (Liquid mixture 1); method: Chromatography
Property: Mole fraction of propan-2-ol (Liquid mixture 1); method: Chromatography
Temperature, K	Mole fraction of hexane	Mole fraction of propan-2-ol	uncertainty	Mole fraction of hexane	uncertainty	Mole fraction of propan-2-ol	uncertainty
303	0.991	0.006	0.006	0.004	0.004	0.016	
303	0.309	0.412	0.041	0.204	0.106	0.423	
313	0.991	0.006	0.006	0.014	0.014	0.015	
313	0.972	0.02	0.02	0.01	0.01	0.058	
313	0.854	0.12	0.051	0.012	0.012	0.142	
313	0.726	0.219	0.049	0.024	0.024	0.226	
313	0.613	0.285	0.045	0.029	0.029	0.326	
313	0.499	0.338	0.044	0.052	0.052	0.375	
313	0.437	0.369	0.044	0.069	0.062	0.405	
313	0.389	0.388	0.042	0.095	0.079	0.42	
313	0.337	0.397	0.041	0.129	0.097	0.417	
303	0.969	0.024	0.024	0		0.059	
313	0.282	0.416	0.042	0.177	0.11	0.423	
323	0.991	0.006	0.006	0.008	0.008	0.035	
323	0.895	0.085	0.053	0.014	0.014	0.107	
323	0.797	0.171	0.05	0.029	0.029	0.186	
323	0.682	0.249	0.047	0.024	0.024	0.27	
323	0.576	0.305	0.045	0.039	0.039	0.322	
323	0.532	0.327	0.043	0.069	0.045	0.357	
323	0.459	0.35	0.043	0.071	0.045	0.383	
323	0.367	0.386	0.042	0.094	0.045	0.404	
323	0.306	0.403	0.042	0.145	0.069	0.411	
303	0.873	0.109	0.052	0.001	0.001	0.114	
323	0.286	0.404	0.041	0.187	0.095	0.412	
303	0.768	0.188	0.049	0.003	0.003	0.185	
303	0.644	0.273	0.047	0.013	0.013	0.285	
303	0.51	0.343	0.043	0.042	0.042	0.357	
303	0.471	0.357	0.043	0.072	0.046	0.39	
303	0.112	0.42	0.04	0.374	0.136	0.396	
303	0.155	0.42	0.04	0.346	0.279	0.401	

System: propan-2-ol + cyclohexane + water; phases: Liquid mixture 2, Liquid mixture 1
Fixed: Pressure, kPa = 101.325
Property: Mole fraction of propan-2-ol (Liquid mixture 2); method: Chromatography
Property: Mole fraction of propan-2-ol (Liquid mixture 1); method: Chromatography
Property: Mole fraction of cyclohexane (Liquid mixture 1); method: Chromatography
Temperature, K	Mole fraction of cyclohexane	Mole fraction of propan-2-ol	uncertainty	Mole fraction of propan-2-ol	uncertainty	Mole fraction of cyclohexane	uncertainty
303	0.23	0.394	0.04	0.375	0.046	0.126	
303	0.979	0.016	0.016	0.004	0.004	0.001	
313	0.001	0.004	0.004	0.015	0.015	0.969	
313	0.006	0.031	0.031	0.116	0.055	0.882	
313	0.008	0.08	0.052	0.144	0.048	0.831	
313	0.009	0.141	0.049	0.177	0.048	0.799	
313	0.029	0.203	0.086	0.253	0.047	0.676	
313	0.036	0.29	0.059	0.32	0.044	0.557	
313	0.067	0.326	0.095	0.348	0.043	0.461	
313	0.085	0.349	0.051	0.379	0.042	0.397	
313	0.115	0.366	0.049	0.391	0.04	0.327	
303	0.316	0.386	0.041	0.358	0.057	0.092	
313	0.159	0.389	0.041	0.395	0.04	0.249	
323	0.001	0.005	0.005	0.015	0.015	0.959	
323	0.006	0.031	0.031	0.08	0.057	0.897	
323	0.008	0.07	0.055	0.151	0.051	0.823	
323	0.016	0.116	0.072	0.19	0.052	0.787	
323	0.04	0.19	0.1	0.237	0.046	0.703	
323	0.049	0.261	0.111	0.283	0.043	0.624	
323	0.066	0.303	0.106	0.332	0.042	0.47	
323	0.074	0.347	0.109	0.367	0.041	0.382	
323	0.119	0.371	0.045	0.378	0.04	0.297	
303	0.406	0.363	0.042	0.336	0.072	0.056	
323	0.148	0.376	0.043	0.385	0.04	0.224	
303	0.486	0.337	0.041	0.312	0.146	0.046	
303	0.571	0.319	0.044	0.28	0.058	0.032	
303	0.661	0.261	0.046	0.194	0.062	0.014	
303	0.807	0.179	0.043	0.122	0.076	0.013	
303	0.84	0.154	0.043	0.087	0.062	0.009	
303	0.891	0.102	0.044	0.041	0.041	0.002	

System: propan-2-ol + benzene + water; phases: Liquid mixture 1, Liquid mixture 2
Fixed: Pressure, kPa = 101.325
Property: Mole fraction of propan-2-ol (Liquid mixture 1); method: Chromatography
Property: Mole fraction of benzene (Liquid mixture 2); method: Chromatography
Property: Mole fraction of propan-2-ol (Liquid mixture 2); method: Chromatography
Temperature, K	Mole fraction of benzene	Mole fraction of propan-2-ol	uncertainty	Mole fraction of benzene	uncertainty	Mole fraction of propan-2-ol	uncertainty
303	0.992	0.005	0.005	0.002	0.002	0.015	
313	0.962	0.022	0.022	0.007	0.007	0.029	
313	0.913	0.067	0.051	0.013	0.013	0.049	
313	0.83	0.128	0.047	0.019	0.019	0.066	
313	0.66	0.228	0.047	0.026	0.026	0.08	
313	0.56	0.29	0.044	0.025	0.025	0.1	
313	0.388	0.348	0.042	0.029	0.029	0.122	
313	0.319	0.37	0.045	0.028	0.028	0.144	
323	0.99	0.005	0.005	0.015	0.015	0.005	
323	0.944	0.034	0.034	0.024	0.024	0.023	
323	0.823	0.113	0.049	0.033	0.033	0.038	
303	0.973	0.022	0.022	0.003	0.003	0.029	
323	0.648	0.237	0.047	0.037	0.037	0.07	
323	0.539	0.288	0.044	0.038	0.038	0.091	
323	0.411	0.342	0.043	0.038	0.038	0.124	
323	0.299	0.382	0.043	0.039	0.039	0.144	
303	0.92	0.066	0.051	0.001	0.001	0.049	
303	0.838	0.13	0.049	0.002	0.002	0.065	
303	0.706	0.219	0.046	0.003	0.003	0.076	
303	0.538	0.308	0.044	0.004	0.004	0.09	
303	0.384	0.358	0.043	0.006	0.006	0.102	
303	0.309	0.405	0.047	0.008	0.008	0.117	
313	0.993	0.005	0.005	0.003	0.003	0.015	
