Measured thermophysical data. Density and Rheology of Tris(2-ethylhexyl) Trimellitate (TOTM)
Source: J. Chem. Eng. Data, 2018, 10.1021/acs.jced.7b00939
Compound 1: tris(2-ethylhexyl) trimellitate, C33H54O6, InChI=1S/C33H54O6/c1-7-13-16-25(10-4)22-37-31(34)28-19-20-29(32(35)38-23-26(11-5)17-14-8-2)30(21-28)33(36)39-24-27(12-6)18-15-9-3/h19-21,25-27H,7-18,22-24H2,1-6H3

System: tris(2-ethylhexyl) trimellitate; phases: Liquid
Property: Mass density, kg/m3 (Liquid); method: Vibrating tube method
Temperature, K	Pressure, kPa	Mass density, kg/m3	uncertainty
328.15	5110	965.697	1.947
328.15	10110	968.884	1.954
328.15	20120	974.939	1.966
328.15	30110	980.701	1.978
333.15	100	959.012	1.933
333.15	100	959.026	1.933
333.15	100	959.014	1.933
333.15	100	958.996	1.933
353.15	100	944.616	1.906
353.15	100	944.621	1.906
353.15	100	944.46	1.905
353.15	100	944.566	1.906
363.15	100	937.285	1.891
363.15	100	937.369	1.891
363.15	5110	941.043	1.9
363.15	10110	944.715	1.908
363.15	20120	951.677	1.923
363.15	30130	958.176	1.937
363.15	40130	964.291	1.949
363.15	50140	969.983	1.961
373.15	100	930.229	1.877
373.15	100	930.252	1.877
383.15	100	923.009	1.863
383.15	100	923.041	1.863
383.15	100	923.028	1.863
393.15	100	915.76	1.85
393.15	100	915.768	1.85
403.15	100	908.475	1.836
403.15	100	908.487	1.836
403.15	5110	912.879	1.847
403.15	10110	917.229	1.856
403.15	20110	925.405	1.875
403.15	30120	932.929	1.892
403.15	40120	939.962	1.907
403.15	50130	946.45	1.921
403.15	68140	957.148	1.943
413.15	100	901.142	1.821
413.15	100	901.152	1.821
423.15	100	893.777	1.808
423.15	100	893.78	1.808
423.15	100	893.78	1.808
423.15	2590	896.162	1.814
423.15	5100	898.654	1.82
423.15	7590	901.053	1.826
423.15	10100	903.407	1.831
423.15	20110	912.286	1.852
423.15	30120	920.442	1.87
423.15	40120	927.911	1.887
423.15	50120	934.915	1.902
423.15	68140	946.287	1.927

System: tris(2-ethylhexyl) trimellitate; phases: Liquid
Property: Mass density, kg/m3 (Liquid); method: Vibrating tube method
Temperature, K	Pressure, kPa	Mass density, kg/m3	uncertainty
388.15	100	919.579	1.857
388.15	2640	921.672	1.862
388.15	5170	923.804	1.867
388.15	7730	925.892	1.872
388.15	10170	927.866	1.876
388.15	15260	931.875	1.885
388.15	20280	935.659	1.893
388.15	30390	942.915	1.909
388.15	40500	949.605	1.924
388.15	50560	955.87	1.937
388.15	68700	966.125	1.957
403.15	100	908.679	1.837
403.15	2640	910.921	1.842
403.15	5170	913.199	1.847
403.15	7690	915.392	1.852
403.15	10220	917.585	1.857
403.15	15270	921.805	1.867
403.15	20320	925.852	1.876
403.15	30380	933.471	1.893
403.15	40430	940.482	1.908
403.15	50540	947.085	1.922
403.15	68470	957.846	1.944
