Measured thermophysical data. Speed of Sound, Density, and Related Thermodynamic Excess Properties of Binary Mixtures of 2-Pyrrolidone and N-Methyl-2-pyrrolidone with Acetonitrile and Chloroform
Source: J. Chem. Eng. Data, 2016, 10.1021/acs.jced.5b00474
Compound 1: 2-pyrrolidinone, C4H7NO, InChI=1S/C4H7NO/c6-4-2-1-3-5-4/h1-3H2,(H,5,6), purity 98%
Compound 2: N-methylpyrrolidone, C5H9NO, InChI=1S/C5H9NO/c1-6-4-2-3-5(6)7/h2-4H2,1H3, purity 98%
Compound 3: acetonitrile, C2H3N, InChI=1S/C2H3N/c1-2-3/h1H3, purity 98%
Compound 4: trichloromethane, CHCl3, InChI=1S/CHCl3/c2-1(3)4/h1H, purity 98%

System: 2-pyrrolidinone; phases: Metastable liquid
Fixed: Pressure, kPa = 101
Property: Mass density, kg/m3 (Metastable liquid); method: Vibrating tube method
Temperature, K	Mass density, kg/m3	uncertainty
293.151	1111.441	0.511
298.153	1107.352	0.511
301.155	1104.885	0.511
303.154	1103.258	0.511
308.154	1099.168	0.511
313.155	1095.081	0.511
318.156	1090.998	0.511
323.156	1086.918	0.51

System: 2-pyrrolidinone; phases: Metastable liquid
Fixed: Pressure, kPa = 101
Fixed: Frequency, MHz = 3
Property: Speed of sound, m/s (Metastable liquid); method: Sing-around technique in a fixed-path interferometer
Temperature, K	Speed of sound, m/s	uncertainty
293.151	1649.3	0.94
298.153	1632.93	0.94
303.154	1616.67	0.93
308.154	1600.51	0.93
313.155	1584.49	0.92
318.156	1568.57	0.92
323.156	1552.77	0.91

System: N-methylpyrrolidone; phases: Liquid
Fixed: Pressure, kPa = 101
Property: Mass density, kg/m3 (Liquid); method: Vibrating tube method
Temperature, K	Mass density, kg/m3	uncertainty
293.151	1032.25	0.509
298.149	1027.794	0.509
303.154	1023.332	0.509
308.155	1018.871	0.509
313.155	1014.41	0.509
318.155	1009.948	0.509
323.157	1005.483	0.509
293.154	1032.513	0.51
298.145	1028.066	0.509
303.145	1023.611	0.509
308.146	1019.153	0.509

System: N-methylpyrrolidone; phases: Liquid
Fixed: Pressure, kPa = 101
Fixed: Frequency, MHz = 3
Property: Speed of sound, m/s (Liquid); method: Sing-around technique in a fixed-path interferometer
Temperature, K	Speed of sound, m/s	uncertainty
298.149	1544.64	0.94
303.154	1525.29	0.93
308.155	1505.97	0.93
313.155	1486.79	0.92
318.155	1467.78	0.92
323.157	1448.9	0.91
293.154	1564.74	0.94
298.145	1545.48	0.94
303.145	1526.13	0.93
308.146	1506.88	0.93

System: acetonitrile; phases: Liquid
Fixed: Pressure, kPa = 101
Property: Mass density, kg/m3 (Liquid); method: Vibrating tube method
Temperature, K	Mass density, kg/m3	uncertainty
298.155	776.609	0.523
303.155	771.183	0.524
308.155	765.722	0.524
313.154	760.231	0.525
318.155	754.709	0.525
323.156	749.15	0.526
293.151	781.989	0.523
298.151	776.616	0.523
303.154	771.178	0.524
308.154	765.719	0.524
313.154	760.223	0.525
318.156	754.702	0.525
323.156	749.144	0.526

System: acetonitrile; phases: Liquid
Fixed: Pressure, kPa = 101
Fixed: Frequency, MHz = 3
Property: Speed of sound, m/s (Liquid); method: Sing-around technique in a fixed-path interferometer
Temperature, K	Speed of sound, m/s	uncertainty
298.155	1278.88	0.88
303.155	1258.99	0.88
308.155	1239.11	0.87
313.154	1219.27	0.86
318.155	1199.47	0.86
323.156	1179.61	0.84
298.151	1278.58	0.88
303.154	1258.41	0.88
308.154	1238.27	0.87
313.154	1218.16	0.86
318.156	1198.07	0.86
323.156	1178	0.86

System: trichloromethane; phases: Liquid
Fixed: Pressure, kPa = 101
Property: Mass density, kg/m3 (Liquid); method: Vibrating tube method
Temperature, K	Mass density, kg/m3	uncertainty
293.151	1487.52	0.573
295.153	1483.736	0.573
297.152	1479.933	0.572
298.154	1478.024	0.572
303.154	1468.468	0.568
308.156	1458.85	0.578
293.151	1488.55	0.592
298.154	1479.07	0.547
303.159	1469.517	0.568
308.154	1459.91	0.571

System: trichloromethane; phases: Liquid
Fixed: Pressure, kPa = 101
Fixed: Frequency, MHz = 3
Property: Speed of sound, m/s (Liquid); method: Sing-around technique in a fixed-path interferometer
Temperature, K	Speed of sound, m/s	uncertainty
293.151	1001.53	0.79
298.154	984.65	0.78
303.154	967.76	0.78
308.156	950.87	0.77
293.151	1000.94	0.78
298.154	984.33	0.78
303.159	967.53	0.78
308.154	950.62	0.78

System: acetonitrile + 2-pyrrolidinone; phases: Liquid
Fixed: Pressure, kPa = 101
Property: Mass density, kg/m3 (Liquid); method: Vibrating tube method
Mole fraction of 2-pyrrolidinone	Temperature, K	Mass density, kg/m3	uncertainty
0	298.155	776.609	0.523
0	303.155	771.183	0.524
0	308.155	765.722	0.524
0	313.154	760.231	0.525
0	318.155	754.709	0.525
0	323.156	749.15	0.526
0.1025	298.155	827.196	0.516
0.1025	303.155	821.985	0.521
0.1025	308.154	816.754	0.522
0.1025	313.155	811.493	0.522
0.1025	318.155	806.204	0.523
0.1025	323.156	800.887	0.529
0.1865	298.153	864.997	0.513
0.1865	303.154	859.946	0.518
0.1865	308.155	854.873	0.518
0.1865	313.155	849.779	0.519
0.1865	318.155	844.673	0.519
0.1865	323.157	839.54	0.527
0.3069	298.149	913.434	0.51
0.3069	303.154	908.581	0.515
0.3069	308.154	903.718	0.515
0.3069	313.154	898.84	0.515
0.3069	318.156	893.944	0.516
0.3069	323.156	889.032	0.521
0.3976	298.149	946.686	0.509
0.3976	303.154	941.969	0.513
0.3976	308.155	937.251	0.513
0.3976	313.156	932.515	0.513
0.3976	318.155	927.77	0.513
0.3976	323.156	923.008	0.518
0.4974	298.155	979.551	0.508
0.4974	303.154	974.979	0.511
0.4974	308.155	970.394	0.511
0.4974	313.156	965.8	0.511
0.4974	318.156	961.2	0.511
0.4974	323.156	956.587	0.515
0.605	298.153	1012.169	0.507
0.605	303.154	1007.721	0.51
0.605	308.156	1003.268	0.51
0.605	313.154	998.811	0.51
0.605	318.155	994.35	0.51
0.605	323.156	989.88	0.514
0.695	298.154	1036.849	0.508
0.695	303.154	1032.505	0.51
0.695	308.155	1028.154	0.51
0.695	313.156	1023.8	0.51
0.695	318.155	1019.441	0.51
0.695	323.156	1015.077	0.512
0.7932	298.155	1061.579	0.508
0.7932	303.154	1057.326	0.51
0.7932	308.156	1053.072	0.51
0.7932	313.155	1048.817	0.51
0.7932	318.155	1044.559	0.51
0.7932	323.156	1040.298	0.512
0.8972	298.153	1085.626	0.511
0.8972	303.154	1081.458	0.511
0.8972	308.155	1077.29	0.511
0.8972	313.155	1073.125	0.511
0.8972	318.155	1068.96	0.51
0.8972	323.155	1064.798	0.51

System: acetonitrile + 2-pyrrolidinone; phases: Liquid
Fixed: Pressure, kPa = 101
Fixed: Frequency, MHz = 3
Property: Speed of sound, m/s (Liquid); method: Sing-around technique in a fixed-path interferometer
Mole fraction of 2-pyrrolidinone	Temperature, K	Speed of sound, m/s	uncertainty
0	298.155	1278.88	0.88
0	303.155	1258.99	0.87
0	308.155	1239.11	0.87
0	313.154	1219.27	0.86
0	318.155	1199.47	0.86
0	323.156	1179.61	0.85
0.1025	298.155	1311.16	0.88
0.1865	298.153	1337	0.9
0.1865	303.154	1317.82	0.88
0.1865	308.155	1298.8	0.87
0.1865	313.155	1280.1	0.87
0.1865	318.155	1261.42	0.86
0.1865	323.157	1242.81	0.84
0.3069	298.149	1380.17	0.89
0.3069	303.154	1362.3	0.88
0.3069	308.154	1344.44	0.88
0.3069	313.154	1326.65	0.87
0.3069	318.156	1308.81	0.87
0.3069	323.156	1290.49	0.86
0.3976	298.149	1414.4	0.89
0.3976	303.154	1396.82	0.89
0.3976	308.155	1379.34	0.88
0.3976	313.156	1361.93	0.88
0.3976	318.155	1344.59	0.87
0.3976	323.156	1327.32	0.87
0.4974	298.155	1451.9	0.9
0.4974	303.154	1434.85	0.89
0.4974	308.155	1417.72	0.89
0.4974	313.156	1400.66	0.88
0.4974	318.156	1383.69	0.88
0.4974	323.156	1366.78	0.88
0.605	298.153	1492.87	0.9
0.605	303.154	1476.04	0.9
0.605	308.156	1459.19	0.9
0.605	313.154	1442.44	0.89
0.605	318.155	1425.68	0.89
0.605	323.156	1408.89	0.89
0.695	298.154	1526.13	0.91
0.695	303.154	1509.49	0.91
0.695	308.155	1492.43	0.91
0.695	313.156	1475.54	0.9
0.695	318.155	1458.66	0.9
0.695	323.156	1441.83	0.89
0.7932	298.155	1561.59	0.92
0.7932	303.154	1545.17	0.92
0.7932	308.156	1528.7	0.91
0.7932	313.155	1512.33	0.91
0.7932	318.155	1496.08	0.9
0.7932	323.156	1479.93	0.9
0.8972	298.153	1598.14	0.93
0.8972	303.154	1582.07	0.93
0.8972	308.155	1565.91	0.92
0.8972	313.155	1549.8	0.92
0.8972	318.155	1533.78	0.91
0.8972	323.155	1517.86	0.91

System: trichloromethane + 2-pyrrolidinone; phases: Liquid
Fixed: Pressure, kPa = 101
Property: Mass density, kg/m3 (Liquid); method: Vibrating tube method
Mole fraction of 2-pyrrolidinone	Temperature, K	Mass density, kg/m3	uncertainty
0	293.151	1487.52	0.573
0	295.153	1483.736	0.573
0	297.152	1479.933	0.572
0	298.154	1478.024	0.572
0	303.154	1468.468	0.571
0	308.156	1458.85	0.57
0.1002	293.152	1457.636	0.558
0.1002	298.155	1449.068	0.563
0.1002	303.155	1440.461	0.563
0.1002	308.155	1431.811	0.57
0.199	293.153	1424.667	0.547
0.199	295.152	1421.543	0.553
0.199	298.154	1416.869	0.554
0.199	303.154	1409.065	0.554
0.199	308.154	1401.222	0.558
0.3019	293.149	1388.179	0.542
0.3019	295.152	1385.334	0.547
0.3019	298.154	1381.099	0.547
0.3019	303.154	1374.002	0.547
0.3019	308.156	1366.883	0.549
0.4027	293.153	1350.998	0.537
0.4027	295.152	1348.405	0.54
0.4027	298.155	1344.531	0.54
0.4027	303.154	1338.048	0.54
0.4027	308.154	1331.553	0.541
0.5022	293.154	1313.309	0.531
0.5022	295.152	1310.935	0.534
0.5022	298.154	1307.378	0.534
0.5022	303.154	1301.432	0.534
0.5022	308.154	1295.474	0.536
0.6054	293.156	1272.912	0.525
0.6054	295.151	1270.721	0.528
0.6054	298.153	1267.473	0.528
0.6054	303.159	1262.003	0.528
0.6054	308.154	1256.522	0.53
0.697	293.152	1235.751	0.525
0.697	295.153	1233.711	0.524
0.697	298.153	1230.665	0.524
0.697	303.155	1225.575	0.524
0.697	308.155	1220.479	0.523
0.7992	293.153	1194.433	0.518
0.7992	295.152	1192.542	0.52
0.7992	298.159	1189.718	0.52
0.7992	303.154	1184.995	0.52
0.7992	308.155	1180.277	0.52
0.9	293.153	1152.994	0.515
0.9	295.152	1151.23	0.516
0.9	298.158	1148.604	0.516
0.9	303.154	1144.208	0.516
0.9	308.155	1139.819	0.516
1	293.151	1111.441	0.511
1	298.153	1107.352	0.511
1	301.155	1104.885	0.511
1	303.154	1103.258	0.511
1	308.154	1099.168	0.511
1	313.155	1095.081	1.066
1	318.156	1090.998	0.511
1	323.156	1086.918	0.51

System: trichloromethane + 2-pyrrolidinone; phases: Liquid
Fixed: Pressure, kPa = 101
Fixed: Frequency, MHz = 3
Property: Speed of sound, m/s (Liquid); method: Sing-around technique in a fixed-path interferometer
Mole fraction of 2-pyrrolidinone	Temperature, K	Speed of sound, m/s	uncertainty
0	293.151	1001.53	0.79
0	298.154	984.65	0.78
0	303.154	967.76	0.78
0	308.156	950.87	0.78
0.1002	293.152	1033.39	0.82
0.1002	298.155	1017.36	0.78
0.1002	303.155	1001.46	0.78
0.1002	308.155	985.52	0.75
0.199	293.153	1074.62	0.81
0.199	298.154	1059.56	0.79
0.199	303.154	1043.95	0.79
0.199	308.154	1028.33	0.77
0.3019	293.149	1124.85	0.82
0.3019	298.154	1109.78	0.8
0.3019	303.154	1094.68	0.8
0.3019	308.156	1079.46	0.78
0.4027	293.153	1179.01	0.83
0.4027	298.155	1164.48	0.81
0.4027	303.154	1149.51	0.81
0.4027	308.154	1134.39	0.79
0.5022	293.154	1238.71	0.85
0.5022	298.154	1223.68	0.83
0.5022	303.154	1208.6	0.82
0.5022	308.154	1193.47	0.8
0.6054	293.156	1307.24	0.86
0.6054	298.153	1292.92	0.84
0.6054	303.159	1278.23	0.84
0.6054	308.154	1263.13	0.83
0.697	293.152	1374.49	0.89
0.697	298.153	1358.87	0.87
0.697	303.155	1343.07	0.86
0.697	308.155	1327.08	0.83
0.7992	293.153	1457.34	0.91
0.7992	298.159	1442.25	0.89
0.7992	303.154	1426.55	0.88
0.7992	308.155	1411.03	0.86
0.9	293.153	1548.79	0.94
0.9	298.158	1533.33	0.91
0.9	303.154	1517.29	0.91
0.9	308.155	1501.54	0.89
1	293.151	1649.3	0.94
1	298.153	1632.93	0.94
1	303.154	1616.67	0.93
1	308.154	1600.51	0.93
1	313.155	1584.49	1.75
1	318.156	1568.57	0.92
1	323.156	1552.77	0.91

System: acetonitrile + N-methylpyrrolidone; phases: Liquid
Fixed: Pressure, kPa = 101
Property: Mass density, kg/m3 (Liquid); method: Vibrating tube method
Mole fraction of N-methylpyrrolidone	Temperature, K	Mass density, kg/m3	uncertainty
0	293.151	781.989	0.523
0	298.151	776.616	0.523
0	303.154	771.178	0.524
0	308.154	765.719	0.524
0	313.154	760.223	0.525
0	318.156	754.702	0.525
0	323.156	749.144	0.526
0.0997	293.151	826.597	0.513
0.0997	298.149	821.365	0.521
0.0997	303.154	816.101	0.521
0.0997	308.154	810.812	0.522
0.0997	313.154	805.495	0.522
0.0997	318.155	800.149	0.523
0.0997	323.156	794.775	0.536
0.2019	293.151	865.011	0.512
0.2019	298.153	859.919	0.518
0.2019	303.154	854.802	0.518
0.2019	308.154	849.665	0.518
0.2019	313.155	844.503	0.519
0.2019	318.155	839.318	0.519
0.2019	323.156	834.109	0.528
0.2953	293.151	895.168	0.51
0.2953	298.155	890.188	0.515
0.2953	303.154	885.193	0.516
0.2953	308.154	880.18	0.516
0.2953	313.154	875.146	0.516
0.2953	318.155	870.091	0.517
0.2953	323.156	865.017	0.524
0.4033	293.151	925.343	0.509
0.4033	298.15	920.48	0.513
0.4033	303.154	915.6	0.514
0.4033	308.154	910.709	0.514
0.4033	313.154	905.801	0.514
0.4033	318.156	900.875	0.514
0.4033	323.155	895.938	0.52
0.4999	293.15	948.634	0.51
0.4999	298.154	943.847	0.512
0.4999	303.154	939.067	0.512
0.4999	308.155	934.271	0.512
0.4999	313.155	929.461	0.513
0.4999	318.155	924.64	0.513
0.4999	323.156	919.805	0.516
0.5645	293.151	962.588	0.509
0.5645	298.152	957.857	0.511
0.5645	303.153	953.126	0.511
0.5645	308.155	948.386	0.512
0.5645	313.154	943.637	0.512
0.5645	318.156	938.874	0.512
0.5645	323.156	934.1	0.515
0.6971	293.151	987.869	0.506
0.6971	298.154	983.231	0.51
0.6971	303.154	978.597	0.51
0.6971	308.155	973.957	0.51
0.6971	313.154	969.311	0.511
0.6971	318.156	964.657	0.511
0.6971	323.156	959.996	0.516
0.7909	293.151	1002.678	0.509
0.7909	298.155	998.089	0.509
0.7909	303.154	993.514	0.51
0.7909	308.154	988.935	0.51
0.7909	313.155	984.35	0.51
0.7909	318.154	979.759	0.51
0.7909	323.156	975.164	0.51
0.8906	293.151	1018.291	0.506
0.8906	298.151	1013.762	0.51
0.8906	303.154	1009.245	0.509
0.8906	308.154	1004.726	0.509
0.8906	313.154	1000.205	0.509
0.8906	318.155	995.681	0.509
0.8906	323.156	991.156	0.513
1	293.151	1032.25	0.51
1	298.149	1027.794	0.509
1	303.154	1023.332	0.509
1	308.155	1018.871	0.509
1	313.155	1014.41	0.509
1	318.155	1009.948	0.509
1	323.157	1005.483	0.509

System: acetonitrile + N-methylpyrrolidone; phases: Liquid
Fixed: Pressure, kPa = 101
Fixed: Frequency, MHz = 3
Property: Speed of sound, m/s (Liquid); method: Sing-around technique in a fixed-path interferometer
Mole fraction of N-methylpyrrolidone	Temperature, K	Speed of sound, m/s	uncertainty
0	298.151	1278.58	0.88
0	303.154	1258.41	0.88
0	308.154	1238.27	0.87
0	313.154	1218.16	0.87
0	318.156	1198.07	0.86
0	323.156	1178	0.86
0.0997	298.149	1311.57	0.88
0.0997	303.154	1291.84	0.88
0.0997	308.154	1271.98	0.88
0.0997	313.154	1252.16	0.87
0.0997	318.155	1232.38	0.87
0.0997	323.156	1212.63	0.86
0.2019	298.153	1345.36	0.89
0.2019	303.154	1325.69	0.89
0.2019	308.154	1306.01	0.88
0.2019	313.155	1286.39	0.88
0.2019	318.155	1266.83	0.87
0.2019	323.156	1247.32	0.87
0.2953	298.155	1375	0.89
0.2953	303.154	1355.43	0.89
0.2953	308.154	1335.85	0.89
0.2953	313.154	1316.35	0.88
0.2953	318.155	1296.92	0.88
0.2953	323.156	1277.56	0.89
0.4033	298.15	1407.57	0.9
0.4033	303.154	1387.91	0.91
0.4033	308.154	1367.73	0.9
0.4033	313.154	1347.57	0.9
0.4033	318.156	1327.39	0.89
0.4033	323.155	1307.52	0.88
0.4999	298.154	1434.37	0.91
0.4999	303.154	1414.85	0.91
0.4999	308.155	1394.79	0.91
0.4999	313.155	1374.74	0.9
0.4999	318.155	1354.79	0.9
0.4999	323.156	1335.03	0.9
0.5645	298.152	1450.83	0.92
0.5645	303.153	1430.68	0.92
0.5645	308.155	1410.42	0.91
0.5645	313.154	1390.25	0.91
0.5645	318.156	1370.21	0.9
0.5645	323.156	1350.35	0.89
0.6971	298.154	1483.74	0.92
0.6971	303.154	1463.63	0.93
0.6971	308.155	1443.44	0.92
0.6971	313.154	1423.32	0.92
0.6971	318.156	1403.28	0.91
0.6971	323.156	1383.41	0.92
0.7909	298.155	1503.33	0.94
0.7909	303.154	1483.15	0.93
0.7909	308.154	1462.85	0.93
0.7909	313.155	1442.63	0.92
0.7909	318.154	1422.44	0.92
0.7909	323.156	1402.37	0.9
0.8906	298.151	1524.8	0.93
0.8906	303.154	1505.08	0.93
0.8906	308.154	1485.25	0.93
0.8906	313.154	1465.5	0.92
0.8906	318.155	1445.91	0.92
0.8906	323.156	1426.45	0.92
1	298.149	1544.64	0.94
1	303.154	1525.29	0.93
1	308.155	1505.97	0.93
1	313.155	1486.79	0.92
1	318.155	1467.78	0.92
1	323.157	1448.9	0.91

System: trichloromethane + N-methylpyrrolidone; phases: Liquid
Fixed: Pressure, kPa = 101
Property: Mass density, kg/m3 (Liquid); method: Vibrating tube method
Mole fraction of N-methylpyrrolidone	Temperature, K	Mass density, kg/m3	uncertainty
0	293.151	1488.55	0.573
0	298.154	1479.07	0.572
0	303.159	1469.517	0.572
0	308.154	1459.91	0.571
0.1061	293.151	1438.959	0.564
0.1061	298.159	1430.504	0.563
0.1061	303.154	1422	0.563
0.1061	308.153	1413.446	0.562
0.1079	293.144	1437.791	0.564
0.1079	298.145	1429.339	0.563
0.1079	303.144	1420.852	0.563
0.1079	308.145	1412.319	0.562
0.2054	293.152	1390.745	0.552
0.2054	298.153	1383.073	0.552
0.2054	303.154	1375.364	0.551
0.2054	308.154	1367.626	0.551
0.2994	293.155	1345.236	0.543
0.2994	298.144	1338.242	0.543
0.2994	303.143	1331.204	0.543
0.2994	308.145	1324.138	0.544
0.4032	293.153	1294.056	0.539
0.4032	298.154	1287.661	0.535
0.4032	303.154	1281.238	0.535
0.4032	308.155	1274.788	0.533
0.4961	293.151	1249.813	0.532
0.4961	298.153	1243.851	0.529
0.4961	303.154	1237.894	0.53
0.4961	308.152	1231.598	0.528
0.6006	293.151	1201.325	0.526
0.6006	298.153	1195.783	0.524
0.6006	303.154	1190.221	0.524
0.6006	308.154	1184.644	0.522
0.6854	293.153	1163.121	0.523
0.6854	298.152	1157.849	0.52
0.6854	303.154	1152.567	0.52
0.6854	308.154	1147.276	0.517
0.7986	293.153	1114.368	0.521
0.7986	298.145	1109.428	0.516
0.7986	303.145	1104.477	0.516
0.7986	308.145	1099.52	0.512
1	293.154	1032.513	0.51
1	298.145	1028.066	0.509
1	303.145	1023.611	0.509
1	308.146	1019.153	0.509

System: trichloromethane + N-methylpyrrolidone; phases: Liquid
Fixed: Pressure, kPa = 101
Fixed: Frequency, MHz = 3
Property: Speed of sound, m/s (Liquid); method: Sing-around technique in a fixed-path interferometer
Mole fraction of N-methylpyrrolidone	Temperature, K	Speed of sound, m/s	uncertainty
0	293.151	1000.94	0.78
0	298.154	984.33	0.78
0	303.159	967.53	0.78
0	308.154	950.62	0.78
0.1061	293.151	1049.98	0.79
0.1061	298.159	1033.57	0.79
0.1061	303.154	1016.32	0.8
0.1061	308.153	999.25	0.8
0.1079	293.144	1051.57	0.8
0.1079	298.145	1034.93	0.79
0.1079	303.144	1018.32	0.8
0.1079	308.145	1001.81	0.78
0.2054	293.152	1098.57	0.81
0.2054	298.153	1082.07	0.81
0.2054	303.154	1065.24	0.8
0.2054	308.154	1048.29	0.79
0.2994	293.155	1146.04	0.81
0.2994	298.144	1130.17	0.81
0.2994	303.143	1114.1	0.81
0.2994	308.145	1098.07	0.82
0.4032	293.153	1198.37	0.84
0.4032	298.154	1181.94	0.83
0.4032	303.154	1165.23	0.83
0.4032	308.155	1148.51	0.81
0.4961	293.151	1248.43	0.85
0.4961	298.153	1231.87	0.84
0.4961	303.154	1215.16	0.84
0.4961	308.152	1198.58	0.83
0.6006	293.151	1307.85	0.87
0.6006	298.153	1290.68	0.86
0.6006	303.154	1273.46	0.86
0.6006	308.154	1256.29	0.84
0.6854	293.153	1359.76	0.88
0.6854	298.152	1342.1	0.88
0.6854	303.154	1324.2	0.87
0.6854	308.154	1306.24	0.86
0.7986	293.153	1430.75	0.92
0.7986	298.145	1412.95	0.9
0.7986	303.145	1395.08	0.89
0.7986	308.145	1377.29	0.88
1	293.154	1564.74	0.94
1	298.145	1545.48	0.94
1	303.145	1526.13	0.93
1	308.146	1506.88	0.93
