Measured thermophysical data. Solubility Measurement and Correlation of Probenecid in 12 Pure Organic Solvents and Thermodynamic Properties of Mixing of Solutions
Source: J. Chem. Eng. Data, 2019, 10.1021/acs.jced.8b00863
Compound 1: 4-(N,N-dipropylsulfamoyl)benzoic acid, C13H19NO4S, InChI=1S/C13H19NO4S/c1-3-9-14(10-4-2)19(17,18)12-7-5-11(6-8-12)13(15)16/h5-8H,3-4,9-10H2,1-2H3,(H,15,16), purity 98%
Compound 2: Sulfachlorpyridazine, C10H9ClN4O2S, InChI=1S/C10H9ClN4O2S/c11-9-5-6-10(14-13-9)15-18(16,17)8-3-1-7(12)2-4-8/h1-6H,12H2,(H,14,15), purity 98%
Compound 3: methanol, CH4O, InChI=1S/CH4O/c1-2/h2H,1H3, purity 99.5%
Compound 4: ethanol, C2H6O, InChI=1S/C2H6O/c1-2-3/h3H,2H2,1H3, purity 99.5%
Compound 5: propan-1-ol, C3H8O, InChI=1S/C3H8O/c1-2-3-4/h4H,2-3H2,1H3, purity 99.5%
Compound 6: propan-2-ol, C3H8O, InChI=1S/C3H8O/c1-3(2)4/h3-4H,1-2H3, purity 99.5%
Compound 7: butan-1-ol, C4H10O, InChI=1S/C4H10O/c1-2-3-4-5/h5H,2-4H2,1H3, purity 99.5%
Compound 8: 2-methyl-1-propanol, C4H10O, InChI=1S/C4H10O/c1-4(2)3-5/h4-5H,3H2,1-2H3, purity 99.5%
Compound 9: pentan-1-ol, C5H12O, InChI=1S/C5H12O/c1-2-3-4-5-6/h6H,2-5H2,1H3, purity 99.5%
Compound 10: methyl ethanoate, C3H6O2, InChI=1S/C3H6O2/c1-3(4)5-2/h1-2H3, purity 99.5%
Compound 11: ethyl acetate, C4H8O2, InChI=1S/C4H8O2/c1-3-6-4(2)5/h3H2,1-2H3, purity 99.5%
Compound 12: butyl ethanoate, C6H12O2, InChI=1S/C6H12O2/c1-3-4-5-8-6(2)7/h3-5H2,1-2H3, purity 99.5%
Compound 13: acetone, C3H6O, InChI=1S/C3H6O/c1-3(2)4/h1-2H3, purity 99.5%
Compound 14: 2-methoxy-2-methylpropane, C5H12O, InChI=1S/C5H12O/c1-5(2,3)6-4/h1-4H3, purity 99.5%

System: Sulfachlorpyridazine + methanol; phases: Liquid, Crystal
Fixed: Pressure, kPa = 100
Property: Mole fraction of Sulfachlorpyridazine (Liquid); method: gravimetric
Temperature, K	Mole fraction of Sulfachlorpyridazine	uncertainty
283.15	0.004863	0.000487
293.15	0.005706	0.000571
303.15	0.006985	0.000699
313.15	0.008693	0.00087
323.15	0.01097	0.0011

System: Sulfachlorpyridazine + ethanol; phases: Liquid, Crystal
Fixed: Pressure, kPa = 100
Property: Mole fraction of Sulfachlorpyridazine (Liquid); method: gravimetric
Temperature, K	Mole fraction of Sulfachlorpyridazine	uncertainty
283.15	0.003852	0.000386
293.15	0.004847	0.000485
303.15	0.006165	0.000617
313.15	0.007798	0.000781
323.15	0.01013	0.00101

System: 4-(N,N-dipropylsulfamoyl)benzoic acid + methanol; phases: Liquid, Crystal
Fixed: Pressure, kPa = 100
Property: Mole fraction of 4-(N,N-dipropylsulfamoyl)benzoic acid (Liquid); method: gravimetric
Temperature, K	Mole fraction of 4-(N,N-dipropylsulfamoyl)benzoic acid	uncertainty
283.15	0.003655	0.000369
288.15	0.004855	0.000488
293.15	0.006085	0.000612
298.15	0.008039	0.000809
303.15	0.01052	0.00106
308.15	0.01325	0.00133
313.15	0.01664	0.00167
318.15	0.02015	0.00202
323.15	0.02475	0.00248

System: 4-(N,N-dipropylsulfamoyl)benzoic acid + ethanol; phases: Liquid, Crystal
Fixed: Pressure, kPa = 100
Property: Mole fraction of 4-(N,N-dipropylsulfamoyl)benzoic acid (Liquid); method: gravimetric
Temperature, K	Mole fraction of 4-(N,N-dipropylsulfamoyl)benzoic acid	uncertainty
283.15	0.005056	0.000508
288.15	0.006145	0.000617
293.15	0.007973	0.0008
298.15	0.009606	0.000964
303.15	0.0117	0.00118
308.15	0.01504	0.00151
313.15	0.0191	0.00192
318.15	0.02304	0.00231
323.15	0.02788	0.0028

System: 4-(N,N-dipropylsulfamoyl)benzoic acid + propan-1-ol; phases: Liquid, Crystal
Fixed: Pressure, kPa = 100
Property: Mole fraction of 4-(N,N-dipropylsulfamoyl)benzoic acid (Liquid); method: gravimetric
Temperature, K	Mole fraction of 4-(N,N-dipropylsulfamoyl)benzoic acid	uncertainty
283.15	0.005439	0.000546
288.15	0.006561	0.000659
293.15	0.008412	0.000846
298.15	0.01076	0.00108
303.15	0.0135	0.00135
308.15	0.01628	0.00163
313.15	0.02069	0.00208
318.15	0.0246	0.00247
323.15	0.02893	0.0029

System: 4-(N,N-dipropylsulfamoyl)benzoic acid + propan-2-ol; phases: Liquid, Crystal
Fixed: Pressure, kPa = 100
Property: Mole fraction of 4-(N,N-dipropylsulfamoyl)benzoic acid (Liquid); method: gravimetric
Temperature, K	Mole fraction of 4-(N,N-dipropylsulfamoyl)benzoic acid	uncertainty
283.15	0.006274	0.00063
288.15	0.00759	0.000761
293.15	0.008895	0.000892
298.15	0.01064	0.00107
303.15	0.0122	0.00122
308.15	0.01503	0.00151
313.15	0.01803	0.00181
318.15	0.02098	0.0021
323.15	0.02579	0.00259

System: 4-(N,N-dipropylsulfamoyl)benzoic acid + butan-1-ol; phases: Liquid, Crystal
Fixed: Pressure, kPa = 100
Property: Mole fraction of 4-(N,N-dipropylsulfamoyl)benzoic acid (Liquid); method: gravimetric
Temperature, K	Mole fraction of 4-(N,N-dipropylsulfamoyl)benzoic acid	uncertainty
283.15	0.007436	0.000746
288.15	0.008905	0.000893
293.15	0.01086	0.00109
298.15	0.01309	0.00131
303.15	0.01585	0.00159
308.15	0.01857	0.00186
313.15	0.02195	0.0022
318.15	0.02602	0.00261
323.15	0.03026	0.00303

System: 4-(N,N-dipropylsulfamoyl)benzoic acid + 2-methyl-1-propanol; phases: Liquid, Crystal
Fixed: Pressure, kPa = 100
Property: Mole fraction of 4-(N,N-dipropylsulfamoyl)benzoic acid (Liquid); method: gravimetric
Temperature, K	Mole fraction of 4-(N,N-dipropylsulfamoyl)benzoic acid	uncertainty
283.15	0.003626	0.000365
288.15	0.004535	0.000456
293.15	0.005728	0.000575
298.15	0.007163	0.00072
303.15	0.009041	0.000907
308.15	0.01084	0.00109
313.15	0.01301	0.00131
318.15	0.01583	0.00159
323.15	0.0199	0.002

System: 4-(N,N-dipropylsulfamoyl)benzoic acid + pentan-1-ol; phases: Liquid, Crystal
Fixed: Pressure, kPa = 100
Property: Mole fraction of 4-(N,N-dipropylsulfamoyl)benzoic acid (Liquid); method: gravimetric
Temperature, K	Mole fraction of 4-(N,N-dipropylsulfamoyl)benzoic acid	uncertainty
283.15	0.008792	0.000881
288.15	0.01031	0.00103
293.15	0.01235	0.00124
298.15	0.01465	0.00147
303.15	0.01706	0.00171
308.15	0.01936	0.00194
313.15	0.02282	0.00229
318.15	0.02638	0.00264
323.15	0.03102	0.00311

System: 4-(N,N-dipropylsulfamoyl)benzoic acid + methyl ethanoate; phases: Liquid, Crystal
Fixed: Pressure, kPa = 100
Property: Mole fraction of 4-(N,N-dipropylsulfamoyl)benzoic acid (Liquid); method: gravimetric
Temperature, K	Mole fraction of 4-(N,N-dipropylsulfamoyl)benzoic acid	uncertainty
283.15	0.004485	0.00045
288.15	0.00544	0.000546
293.15	0.006556	0.000658
298.15	0.007937	0.000796
303.15	0.009446	0.000947
308.15	0.0112	0.00112
313.15	0.0129	0.00129
318.15	0.01521	0.00152
323.15	0.01788	0.00179

System: 4-(N,N-dipropylsulfamoyl)benzoic acid + ethyl acetate; phases: Liquid, Crystal
Fixed: Pressure, kPa = 100
Property: Mole fraction of 4-(N,N-dipropylsulfamoyl)benzoic acid (Liquid); method: gravimetric
Temperature, K	Mole fraction of 4-(N,N-dipropylsulfamoyl)benzoic acid	uncertainty
283.15	0.00382	0.000383
288.15	0.004586	0.00046
293.15	0.005476	0.000549
298.15	0.006592	0.000662
303.15	0.008209	0.000824
308.15	0.00992	0.000995
313.15	0.01185	0.00119
318.15	0.01381	0.00138
323.15	0.01638	0.00164

System: 4-(N,N-dipropylsulfamoyl)benzoic acid + butyl ethanoate; phases: Liquid, Crystal
Fixed: Pressure, kPa = 100
Property: Mole fraction of 4-(N,N-dipropylsulfamoyl)benzoic acid (Liquid); method: gravimetric
Temperature, K	Mole fraction of 4-(N,N-dipropylsulfamoyl)benzoic acid	uncertainty
283.15	0.003082	0.00031
288.15	0.003796	0.000381
293.15	0.004737	0.000475
298.15	0.005624	0.000564
303.15	0.006534	0.000655
308.15	0.007729	0.000776
313.15	0.00972	0.000976
318.15	0.01184	0.00119
323.15	0.01402	0.00141

System: 4-(N,N-dipropylsulfamoyl)benzoic acid + 2-methoxy-2-methylpropane; phases: Liquid, Crystal
Fixed: Pressure, kPa = 100
Property: Mole fraction of 4-(N,N-dipropylsulfamoyl)benzoic acid (Liquid); method: gravimetric
Temperature, K	Mole fraction of 4-(N,N-dipropylsulfamoyl)benzoic acid	uncertainty
283.15	0.004612	0.000462
288.15	0.00531	0.000533
293.15	0.006654	0.000668
298.15	0.008007	0.000803
303.15	0.009528	0.000955
308.15	0.01106	0.00111
313.15	0.01291	0.00129
318.15	0.01557	0.00156
323.15	0.0185	0.00185

System: 4-(N,N-dipropylsulfamoyl)benzoic acid + acetone; phases: Liquid, Crystal
Fixed: Pressure, kPa = 100
Property: Mole fraction of 4-(N,N-dipropylsulfamoyl)benzoic acid (Liquid); method: gravimetric
Temperature, K	Mole fraction of 4-(N,N-dipropylsulfamoyl)benzoic acid	uncertainty
283.15	0.01302	0.0013
288.15	0.01479	0.00148
293.15	0.01757	0.00176
298.15	0.02014	0.00202
303.15	0.02336	0.00234
308.15	0.0268	0.00269
313.15	0.03124	0.00313
318.15	0.03495	0.0035
323.15	0.04093	0.0041
