Measured thermophysical data. Solubility Measurement, Modeling, and Thermodynamic Functions for para-Methoxyphenylacetic Acid in Pure and Mixed Organic and Aqueous Systems
Source: J. Chem. Eng. Data, 2018, 10.1021/acs.jced.8b00271
Compound 1: propan-2-ol, C3H8O, InChI=1S/C3H8O/c1-3(2)4/h3-4H,1-2H3, purity 99.8%
Compound 2: toluene, C7H8, InChI=1S/C7H8/c1-7-5-3-2-4-6-7/h2-6H,1H3, purity 99.8%
Compound 3: tetrahydro-1,4-oxazine, C4H9NO, InChI=1S/C4H9NO/c1-3-6-4-2-5-1/h5H,1-4H2, purity 99%
Compound 4: acetonitrile, C2H3N, InChI=1S/C2H3N/c1-2-3/h1H3, purity 99.5%
Compound 5: anisole, C7H8O, InChI=1S/C7H8O/c1-8-7-5-3-2-4-6-7/h2-6H,1H3, purity 99%
Compound 6: water, H2O, InChI=1S/H2O/h1H2, purity 99.9%
Compound 7: (4-methoxyphenyl)ethanoic acid, C9H10O3, InChI=1S/C9H10O3/c1-12-8-4-2-7(3-5-8)6-9(10)11/h2-5H,6H2,1H3,(H,10,11), purity 99%

System: (4-methoxyphenyl)ethanoic acid; phases: Crystal, Liquid, Air at 1 atmosphere
Property: Normal melting temperature, K (Crystal); method: DTA
Normal melting temperature, K	uncertainty
358.05	1.06

System: (4-methoxyphenyl)ethanoic acid; phases: Crystal, Liquid, Air at 1 atmosphere
Property: Molar enthalpy of transition or fusion, kJ/mol (Crystal); method: DSC
Molar enthalpy of transition or fusion, kJ/mol	uncertainty
21.8	0.6

System: (4-methoxyphenyl)ethanoic acid + propan-2-ol; phases: Liquid, Crystal
Fixed: Pressure, kPa = 94.9
Property: Mole fraction of (4-methoxyphenyl)ethanoic acid (Liquid); method: Chromatography
Temperature, K	Mole fraction of (4-methoxyphenyl)ethanoic acid	uncertainty
283.15	0.114	0.0456
288.15	0.1416	0.0566
293.15	0.1691	0.0676
298.15	0.1982	0.0793
303.15	0.2275	0.091
308.15	0.2581	0.1032
313.15	0.2886	0.1154
318.15	0.3227	0.1291
323.15	0.3509	0.1404

System: (4-methoxyphenyl)ethanoic acid + toluene; phases: Liquid, Crystal
Fixed: Pressure, kPa = 94.9
Property: Mole fraction of (4-methoxyphenyl)ethanoic acid (Liquid); method: Chromatography
Temperature, K	Mole fraction of (4-methoxyphenyl)ethanoic acid	uncertainty
283.15	0.0166	0.0066
288.15	0.0209	0.0084
293.15	0.0264	0.0106
298.15	0.0337	0.0135
303.15	0.0415	0.0166
308.15	0.0522	0.0209
313.15	0.0641	0.0256
318.15	0.0784	0.0314
323.15	0.0941	0.0376

System: (4-methoxyphenyl)ethanoic acid + tetrahydro-1,4-oxazine; phases: Liquid, Crystal
Fixed: Pressure, kPa = 94.9
Property: Mole fraction of (4-methoxyphenyl)ethanoic acid (Liquid); method: Chromatography
Temperature, K	Mole fraction of (4-methoxyphenyl)ethanoic acid	uncertainty
283.15	0.0094	0.0038
288.15	0.0139	0.0056
293.15	0.0185	0.0074
298.15	0.0239	0.0096
303.15	0.0293	0.0117
308.15	0.0348	0.0139
313.15	0.0404	0.0162
318.15	0.0459	0.0184
323.15	0.0503	0.0201

System: (4-methoxyphenyl)ethanoic acid + acetonitrile; phases: Liquid, Crystal
Fixed: Pressure, kPa = 94.9
Property: Mole fraction of (4-methoxyphenyl)ethanoic acid (Liquid); method: Chromatography
Temperature, K	Mole fraction of (4-methoxyphenyl)ethanoic acid	uncertainty
283.15	0.0423	0.0169
288.15	0.0499	0.02
293.15	0.0587	0.0235
298.15	0.0687	0.0275
303.15	0.0803	0.0321
308.15	0.0941	0.0376
313.15	0.1115	0.0446
318.15	0.1347	0.0539
323.15	0.1658	0.0663

System: (4-methoxyphenyl)ethanoic acid + anisole; phases: Liquid, Crystal
Fixed: Pressure, kPa = 94.9
Property: Mole fraction of (4-methoxyphenyl)ethanoic acid (Liquid); method: Chromatography
Temperature, K	Mole fraction of (4-methoxyphenyl)ethanoic acid	uncertainty
283.15	0.0323	0.0129
288.15	0.0425	0.017
293.15	0.0519	0.0208
298.15	0.0626	0.025
303.15	0.0737	0.0295
308.15	0.0858	0.0343
313.15	0.0999	0.04
318.15	0.1178	0.0471
323.15	0.1388	0.0555

System: (4-methoxyphenyl)ethanoic acid + water; phases: Liquid, Crystal
Fixed: Pressure, kPa = 94.9
Property: Mole fraction of (4-methoxyphenyl)ethanoic acid (Liquid); method: Chromatography
Temperature, K	Mole fraction of (4-methoxyphenyl)ethanoic acid	uncertainty
283.15	0.0011	0.0004
288.15	0.002	0.0008
293.15	0.0031	0.0012
298.15	0.0043	0.0017
303.15	0.0057	0.0023
308.15	0.0069	0.0028
313.15	0.0079	0.0032
318.15	0.0092	0.0037
323.15	0.0105	0.0042

System: (4-methoxyphenyl)ethanoic acid + propan-2-ol + water; phases: Liquid, Crystal
Fixed: Pressure, kPa = 94.9
Property: Mole fraction of (4-methoxyphenyl)ethanoic acid (Liquid); method: Chromatography
Temperature, K	Solvent: Mole fraction of propan-2-ol	Mole fraction of (4-methoxyphenyl)ethanoic acid	uncertainty
283.15	0.0501	0.0038	0.0015
288.15	0.0501	0.0048	0.0019
293.15	0.0501	0.0057	0.0023
298.15	0.0501	0.0069	0.0028
303.15	0.0501	0.0082	0.0033
308.15	0.0501	0.0098	0.0039
313.15	0.0501	0.0118	0.0047
318.15	0.0501	0.0141	0.0056
323.15	0.0501	0.017	0.0068
283.15	0.0999	0.0084	0.0034
288.15	0.0999	0.0102	0.0041
293.15	0.0999	0.0124	0.005
298.15	0.0999	0.0149	0.006
303.15	0.0999	0.018	0.0072
308.15	0.0999	0.0216	0.0086
313.15	0.0999	0.0259	0.0104
318.15	0.0999	0.031	0.0124
323.15	0.0999	0.0369	0.0148
283.15	0.1996	0.0239	0.0096
288.15	0.1996	0.0287	0.0115
293.15	0.1996	0.035	0.014
298.15	0.1996	0.0425	0.017
303.15	0.1996	0.0514	0.0206
308.15	0.1996	0.0619	0.0248
313.15	0.1996	0.0744	0.0298
318.15	0.1996	0.089	0.0356
323.15	0.1996	0.1061	0.0425
283.15	0.3001	0.0513	0.0205
288.15	0.3001	0.0614	0.0246
293.15	0.3001	0.0736	0.0294
298.15	0.3001	0.0877	0.0351
303.15	0.3001	0.1047	0.0419
308.15	0.3001	0.1242	0.0497
313.15	0.3001	0.1462	0.0585
318.15	0.3001	0.1731	0.0693
323.15	0.3001	0.2011	0.0805
283.15	0.3995	0.095	0.038
288.15	0.3995	0.1199	0.048
293.15	0.3995	0.1526	0.061
298.15	0.3995	0.1931	0.0773
303.15	0.3995	0.2413	0.0965
308.15	0.3995	0.2974	0.119
313.15	0.3995	0.3613	0.1445
318.15	0.3995	0.4329	0.1732
323.15	0.3995	0.5124	0.1951
283.15	0	0.0011	0.0007
288.15	0	0.002	0.0012
293.15	0	0.0031	0.0019
298.15	0	0.0043	0.0026
303.15	0	0.0057	0.0034
308.15	0	0.0069	0.0041
313.15	0	0.0079	0.0047
318.15	0	0.0092	0.0055
323.15	0	0.0105	0.0063
283.15	1	0.114	0.0456
288.15	1	0.1416	0.0566
293.15	1	0.1691	0.0676
298.15	1	0.1982	0.0793
303.15	1	0.2275	0.091
308.15	1	0.2581	0.1032
313.15	1	0.2886	0.1154
318.15	1	0.3227	0.1291
323.15	1	0.3509	0.1404

System: (4-methoxyphenyl)ethanoic acid + propan-2-ol + toluene; phases: Liquid, Crystal
Fixed: Pressure, kPa = 94.9
Property: Mole fraction of (4-methoxyphenyl)ethanoic acid (Liquid); method: Chromatography
Temperature, K	Solvent: Mole fraction of propan-2-ol	Mole fraction of (4-methoxyphenyl)ethanoic acid	uncertainty
283.15	0.0976	0.0302	0.0121
288.15	0.0976	0.0385	0.0154
293.15	0.0976	0.0482	0.0193
298.15	0.0976	0.0588	0.0235
303.15	0.0976	0.0709	0.0284
308.15	0.0976	0.0904	0.0362
313.15	0.0976	0.1111	0.0444
318.15	0.0976	0.1385	0.0554
323.15	0.0976	0.1752	0.0701
283.15	0.2029	0.0322	0.0129
288.15	0.2029	0.0428	0.0171
293.15	0.2029	0.0528	0.0211
298.15	0.2029	0.0635	0.0254
303.15	0.2029	0.0788	0.0315
308.15	0.2029	0.0986	0.0394
313.15	0.2029	0.1253	0.0501
318.15	0.2029	0.1595	0.0638
323.15	0.2029	0.2068	0.0827
283.15	0.3001	0.0485	0.0194
288.15	0.3001	0.0533	0.0213
293.15	0.3001	0.0615	0.0246
298.15	0.3001	0.0734	0.0294
303.15	0.3001	0.0896	0.0358
308.15	0.3001	0.1106	0.0442
313.15	0.3001	0.1371	0.0548
318.15	0.3001	0.1694	0.0678
323.15	0.3001	0.2183	0.0873
283.15	0.3993	0.0664	0.0266
288.15	0.3993	0.078	0.0312
293.15	0.3993	0.0924	0.037
298.15	0.3993	0.11	0.044
303.15	0.3993	0.1316	0.0526
308.15	0.3993	0.1584	0.0634
313.15	0.3993	0.1914	0.0766
318.15	0.3993	0.2322	0.0929
323.15	0.3993	0.2828	0.1131
283.15	0.5001	0.0898	0.0359
288.15	0.5001	0.1058	0.0423
293.15	0.5001	0.1247	0.0499
298.15	0.5001	0.1473	0.0589
303.15	0.5001	0.1742	0.0697
308.15	0.5001	0.2061	0.0824
313.15	0.5001	0.2441	0.0976
318.15	0.5001	0.2893	0.1157
323.15	0.5001	0.3431	0.1372
283.15	0.6012	0.0844	0.0338
288.15	0.6012	0.0978	0.0391
293.15	0.6012	0.1167	0.0467
298.15	0.6012	0.1364	0.0546
303.15	0.6012	0.1625	0.065
308.15	0.6012	0.1932	0.0773
313.15	0.6012	0.228	0.0912
318.15	0.6012	0.2682	0.1073
323.15	0.6012	0.3197	0.1279
283.15	0.6995	0.0761	0.0304
288.15	0.6995	0.0895	0.0358
293.15	0.6995	0.1057	0.0423
298.15	0.6995	0.1255	0.0502
303.15	0.6995	0.1494	0.0598
308.15	0.6995	0.1786	0.0714
313.15	0.6995	0.2141	0.0856
318.15	0.6995	0.2574	0.103
323.15	0.6995	0.3051	0.122
283.15	0.8002	0.0682	0.0273
288.15	0.8002	0.0815	0.0326
293.15	0.8002	0.0973	0.0389
298.15	0.8002	0.116	0.0464
303.15	0.8002	0.1383	0.0553
308.15	0.8002	0.1649	0.066
313.15	0.8002	0.1968	0.0787
318.15	0.8002	0.235	0.094
323.15	0.8002	0.2781	0.1113
283.15	1	0.114	0.0456
288.15	1	0.1416	0.0566
293.15	1	0.1691	0.0676
298.15	1	0.1982	0.0793
303.15	1	0.2275	0.091
308.15	1	0.2581	0.1032
313.15	1	0.2886	0.1154
318.15	1	0.3227	0.1291
323.15	1	0.3509	0.1404
283.15	0	0.0166	0.0066
288.15	0	0.0209	0.0084
293.15	0	0.0264	0.0106
298.15	0	0.0337	0.0135
303.15	0	0.0415	0.0166
308.15	0	0.0522	0.0209
313.15	0	0.0641	0.0256
318.15	0	0.0784	0.0314
323.15	0	0.0941	0.0376
