Measured thermophysical data. Volumetric and refractive properties of the mixtures of 1,1,3,3-tetramethyl-1,3-diphenyldisiloxane with various organosilicon compounds at T = (308.15 to 328.15) K
Source: J. Chem. Eng. Data, 2016, 10.1021/acs.jced.5b00820
Compound 1: octamethylcyclotetrasiloxane, C8H24O4Si4, InChI=1S/C8H24O4Si4/c1-13(2)9-14(3,4)11-16(7,8)12-15(5,6)10-13/h1-8H3, purity 99.5%
Compound 2: 2,4,6,8-tetramethyl-2,4,6,8-tetravinylcycloterasiloxane, C12H24O4Si4, InChI=1S/C12H24O4Si4/c1-9-17(5)13-18(6,10-2)15-20(8,12-4)16-19(7,11-3)14-17/h9-12H,1-4H2,5-8H3, purity 99.9%
Compound 3: 2,4,6-trimethyl-2,4,6-tris(3,3,3-trifluoropropyl)-1,3,5,2,4,6-trioxatrisilinane, C12H21F9O3Si3, InChI=1S/C12H21F9O3Si3/c1-25(7-4-10(13,14)15)22-26(2,8-5-11(16,17)18)24-27(3,23-25)9-6-12(19,20)21/h4-9H2,1-3H3, purity 99.9%
Compound 4: 1,3-diethenyl-1,1,3,3-tetramethyldisiloxane, C8H18OSi2, InChI=1S/C8H18OSi2/c1-7-10(3,4)9-11(5,6)8-2/h7-8H,1-2H2,3-6H3, purity 99.6%
Compound 5: 1,3-diphenyltetramethyldisiloxane, C16H22OSi2, InChI=1S/C16H22OSi2/c1-18(2,15-11-7-5-8-12-15)17-19(3,4)16-13-9-6-10-14-16/h5-14H,1-4H3, purity 99.8%

System: octamethylcyclotetrasiloxane; phases: Liquid
Fixed: Pressure, kPa = 102.2
Property: Mass density, kg/m3 (Liquid); method: Vibrating tube method
Temperature, K	Mass density, kg/m3	uncertainty
308.15	938.88	0.22
313.15	933.06	0.22
318.15	927.34	0.22
323.15	921.59	0.22
328.15	915.8	0.22

System: octamethylcyclotetrasiloxane; phases: Liquid
Fixed: Pressure, kPa = 102.2
Property: Refractive index (Na D-line) (Liquid); method: Standard Abbe refractometry
Temperature, K	Refractive index (Na D-line)	uncertainty
308.15	1.38924	0.00036
313.15	1.38671	0.00036
318.15	1.38419	0.00036
323.15	1.38168	0.00036
328.15	1.37916	0.00036

System: 2,4,6,8-tetramethyl-2,4,6,8-tetravinylcycloterasiloxane; phases: Liquid
Fixed: Pressure, kPa = 102.2
Property: Mass density, kg/m3 (Liquid); method: Vibrating tube method
Temperature, K	Mass density, kg/m3	uncertainty
308.15	972.64	0.21
313.15	967.49	0.21
318.15	962.36	0.21
323.15	957.2	0.21
328.15	952.03	0.21

System: 2,4,6,8-tetramethyl-2,4,6,8-tetravinylcycloterasiloxane; phases: Liquid
Fixed: Pressure, kPa = 102.2
Property: Refractive index (Na D-line) (Liquid); method: Standard Abbe refractometry
Temperature, K	Refractive index (Na D-line)	uncertainty
308.15	1.42751	0.00035
313.15	1.42514	0.00035
318.15	1.42275	0.00035
323.15	1.4204	0.0004
328.15	1.41802	0.00035

System: 2,4,6-trimethyl-2,4,6-tris(3,3,3-trifluoropropyl)-1,3,5,2,4,6-trioxatrisilinane; phases: Liquid
Fixed: Pressure, kPa = 102.2
Property: Mass density, kg/m3 (Liquid); method: Vibrating tube method
Temperature, K	Mass density, kg/m3	uncertainty
308.15	1236.82	0.23
313.15	1230.2	0.23
318.15	1223.61	0.23
323.15	1217.06	0.23
328.15	1210.43	0.23

System: 2,4,6-trimethyl-2,4,6-tris(3,3,3-trifluoropropyl)-1,3,5,2,4,6-trioxatrisilinane; phases: Liquid
Fixed: Pressure, kPa = 102.2
Property: Refractive index (Na D-line) (Liquid); method: Standard Abbe refractometry
Temperature, K	Refractive index (Na D-line)	uncertainty
308.15	1.36015	0.00035
313.15	1.35814	0.00035
318.15	1.35614	0.00035
323.15	1.35413	0.00035
328.15	1.35215	0.00035

System: 1,3-diethenyl-1,1,3,3-tetramethyldisiloxane; phases: Liquid
Fixed: Pressure, kPa = 102.2
Property: Mass density, kg/m3 (Liquid); method: Vibrating tube method
Temperature, K	Mass density, kg/m3	uncertainty
308.15	797.99	0.23
313.15	793.04	0.23
318.15	788.05	0.24
323.15	783.06	0.24
328.15	778.04	0.24

System: 1,3-diethenyl-1,1,3,3-tetramethyldisiloxane; phases: Liquid
Fixed: Pressure, kPa = 102.2
Property: Refractive index (Na D-line) (Liquid); method: Standard Abbe refractometry
Temperature, K	Refractive index (Na D-line)	uncertainty
308.15	1.40445	0.00036
313.15	1.40178	0.00036
318.15	1.39912	0.00036
323.15	1.39644	0.00036
328.15	1.39378	0.00036

System: 1,3-diphenyltetramethyldisiloxane; phases: Liquid
Fixed: Pressure, kPa = 102.2
Property: Mass density, kg/m3 (Liquid); method: Vibrating tube method
Temperature, K	Mass density, kg/m3	uncertainty
308.15	968.05	0.21
313.15	963.92	0.21
318.15	959.8	0.21
323.15	955.69	0.21
328.15	951.58	0.21
313.15	963.94	0.21
318.15	959.84	0.21
323.15	955.74	0.21
328.15	951.65	0.21
308.15	967.9	0.21
313.15	963.8	0.21
318.15	959.75	0.21
323.15	955.65	0.21
328.15	951.57	0.21
308.15	967.99	0.21
313.15	963.87	0.21
318.15	959.76	0.21
323.15	955.68	0.21

System: 1,3-diphenyltetramethyldisiloxane; phases: Liquid
Fixed: Pressure, kPa = 102.2
Property: Refractive index (Na D-line) (Liquid); method: Standard Abbe refractometry
Temperature, K	Refractive index (Na D-line)	uncertainty
308.15	1.51064	0.00035
313.15	1.50832	0.00035
318.15	1.50605	0.00035
323.15	1.50377	0.00035
328.15	1.50144	0.00035
308.15	1.51066	0.00035
313.15	1.50836	0.00035
318.15	1.5061	0.0004
323.15	1.50381	0.00035
328.15	1.5015	0.0004
308.15	1.51009	0.00035
313.15	1.50782	0.00035
318.15	1.50561	0.00035
323.15	1.50332	0.00035
328.15	1.501	0.00035
308.15	1.51052	0.00035
313.15	1.5082	0.0004
318.15	1.50593	0.00035
323.15	1.50366	0.00035
328.15	1.50133	0.00035

System: 1,3-diphenyltetramethyldisiloxane + octamethylcyclotetrasiloxane; phases: Liquid
Fixed: Pressure, kPa = 102.2
Property: Mass density, kg/m3 (Liquid); method: Vibrating tube method
Temperature, K	Mole fraction of 1,3-diphenyltetramethyldisiloxane	Mass density, kg/m3	uncertainty
308.15	0	938.88	0.22
308.15	0.05	940.79	0.22
308.15	0.0999	942.6	0.22
308.15	0.1503	944.43	0.22
308.15	0.2005	946.19	0.22
308.15	0.2507	947.88	0.22
308.15	0.2963	949.39	0.21
308.15	0.3509	951.16	0.21
308.15	0.4001	952.67	0.21
308.15	0.4471	954.04	0.21
308.15	0.4968	955.6	0.21
308.15	0.5512	957.17	0.21
308.15	0.6003	958.51	0.21
308.15	0.6502	959.83	0.21
308.15	0.7001	961.15	0.21
308.15	0.7497	962.4	0.21
308.15	0.8	963.64	0.21
308.15	0.85	964.8	0.21
308.15	0.896	965.82	0.21
308.15	0.9497	967	0.21
308.15	1	968.05	0.21
313.15	0	933.06	0.22
313.15	0.05	935.08	0.22
313.15	0.0999	937.01	0.22
313.15	0.1503	938.95	0.22
313.15	0.2005	940.8	0.22
313.15	0.2507	942.59	0.22
313.15	0.2963	944.19	0.21
313.15	0.3509	946.05	0.21
313.15	0.4001	947.66	0.21
313.15	0.4471	949.1	0.21
313.15	0.4968	950.74	0.21
313.15	0.5512	952.39	0.21
313.15	0.6003	953.82	0.21
313.15	0.6502	955.22	0.21
313.15	0.7001	956.6	0.21
313.15	0.7497	957.92	0.21
313.15	0.8	959.25	0.21
313.15	0.85	960.48	0.21
313.15	0.896	961.53	0.21
313.15	0.9497	962.79	0.21
313.15	1	963.92	0.21
318.15	0	927.34	0.22
318.15	0.05	929.44	0.22
318.15	0.0999	931.46	0.22
318.15	0.1503	933.49	0.22
318.15	0.2005	935.45	0.22
318.15	0.2507	937.33	0.22
318.15	0.2963	939.02	0.22
318.15	0.3509	940.97	0.21
318.15	0.4001	942.65	0.21
318.15	0.4471	944.16	0.21
318.15	0.4968	945.91	0.21
318.15	0.5512	947.64	0.21
318.15	0.6003	949.15	0.21
318.15	0.6502	950.62	0.21
318.15	0.7001	952.09	0.21
318.15	0.7497	953.48	0.21
318.15	0.8	954.87	0.21
318.15	0.85	956.18	0.21
318.15	0.896	957.3	0.21
318.15	0.9497	958.63	0.21
318.15	1	959.8	0.21
323.15	0	921.59	0.22
323.15	0.05	923.79	0.22
323.15	0.0999	925.91	0.22
323.15	0.1503	928.04	0.22
323.15	0.2005	930.1	0.22
323.15	0.2507	932.06	0.22
323.15	0.2963	933.84	0.22
323.15	0.3509	935.88	0.21
323.15	0.4001	937.65	0.21
323.15	0.4471	939.26	0.21
323.15	0.4968	941.08	0.21
323.15	0.5512	942.9	0.21
323.15	0.6003	944.46	0.21
323.15	0.6502	946.01	0.21
323.15	0.7001	947.56	0.21
323.15	0.7497	949.04	0.21
323.15	0.8	950.49	0.21
323.15	0.85	951.88	0.21
323.15	0.896	953.03	0.21
323.15	0.9497	954.45	0.21
323.15	1	955.69	0.21
328.15	0	915.8	0.22
328.15	0.05	918.1	0.22
328.15	0.0999	920.32	0.22
328.15	0.1503	922.57	0.22
328.15	0.2005	924.72	0.22
328.15	0.2507	926.77	0.22
328.15	0.2963	928.63	0.22
328.15	0.3509	930.78	0.22
328.15	0.4001	932.62	0.21
328.15	0.4471	934.29	0.21
328.15	0.4968	936.23	0.21
328.15	0.5512	938.15	0.21
328.15	0.6003	939.79	0.21
328.15	0.6502	941.41	0.21
328.15	0.7001	943.03	0.21
328.15	0.7497	944.59	0.21
328.15	0.8	946.11	0.21
328.15	0.85	947.58	0.21
328.15	0.896	948.8	0.21
328.15	0.9497	950.29	0.21
328.15	1	951.58	0.21

System: 1,3-diphenyltetramethyldisiloxane + octamethylcyclotetrasiloxane; phases: Liquid
Fixed: Pressure, kPa = 102.2
Property: Refractive index (Na D-line) (Liquid); method: Standard Abbe refractometry
Temperature, K	Mole fraction of 1,3-diphenyltetramethyldisiloxane	Refractive index (Na D-line)	uncertainty
308.15	0	1.38924	0.00036
308.15	0.05	1.3951	0.00036
308.15	0.0999	1.40098	0.00036
308.15	0.1503	1.40694	0.00036
308.15	0.2005	1.41292	0.00036
308.15	0.2507	1.41891	0.00036
308.15	0.2963	1.42436	0.00036
308.15	0.3509	1.43091	0.00036
308.15	0.4001	1.43683	0.00036
308.15	0.4471	1.44251	0.00036
308.15	0.4968	1.44855	0.00035
308.15	0.5512	1.45518	0.00035
308.15	0.6003	1.46117	0.00035
308.15	0.6502	1.46727	0.00035
308.15	0.7001	1.47342	0.00035
308.15	0.7497	1.47954	0.00035
308.15	0.8	1.48577	0.00035
308.15	0.85	1.49197	0.00035
308.15	0.896	1.49768	0.00035
308.15	0.9497	1.50436	0.00035
308.15	1	1.51064	0.00035
313.15	0	1.38671	0.00036
313.15	0.05	1.39261	0.00036
313.15	0.0999	1.39849	0.00036
313.15	0.1503	1.40447	0.00036
313.15	0.2005	1.41044	0.00036
313.15	0.2507	1.41644	0.00036
313.15	0.2963	1.42193	0.00036
313.15	0.3509	1.42847	0.00036
313.15	0.4001	1.4344	0.00036
313.15	0.4471	1.44009	0.00036
313.15	0.4968	1.44616	0.00035
313.15	0.5512	1.45281	0.00035
313.15	0.6003	1.45878	0.00035
313.15	0.6502	1.46493	0.00035
313.15	0.7001	1.47107	0.00035
313.15	0.7497	1.47718	0.00035
313.15	0.8	1.48342	0.00035
313.15	0.85	1.48966	0.00035
313.15	0.896	1.49532	0.00035
313.15	0.9497	1.50202	0.00035
313.15	1	1.50832	0.00035
318.15	0	1.38419	0.00036
318.15	0.05	1.3901	0.0004
318.15	0.0999	1.39602	0.00036
318.15	0.1503	1.40199	0.00036
318.15	0.2005	1.40799	0.00036
318.15	0.2507	1.41401	0.00036
318.15	0.2963	1.41951	0.00036
318.15	0.3509	1.42607	0.00036
318.15	0.4001	1.43201	0.00036
318.15	0.4471	1.4377	0.0004
318.15	0.4968	1.44376	0.00035
318.15	0.5512	1.45043	0.00035
318.15	0.6003	1.45644	0.00035
318.15	0.6502	1.46256	0.00035
318.15	0.7001	1.46872	0.00035
318.15	0.7497	1.47488	0.00035
318.15	0.8	1.48109	0.00035
318.15	0.85	1.48733	0.00035
318.15	0.896	1.49303	0.00035
318.15	0.9497	1.49976	0.00035
318.15	1	1.50605	0.00035
323.15	0	1.38168	0.00036
323.15	0.05	1.38762	0.00036
323.15	0.0999	1.39357	0.00036
323.15	0.1503	1.39957	0.00036
323.15	0.2005	1.40557	0.00036
323.15	0.2507	1.41159	0.00036
323.15	0.2963	1.41708	0.00036
323.15	0.3509	1.42366	0.00036
323.15	0.4001	1.42964	0.00036
323.15	0.4471	1.4353	0.0004
323.15	0.4968	1.44142	0.00035
323.15	0.5512	1.44806	0.00035
323.15	0.6003	1.45407	0.00035
323.15	0.6502	1.46023	0.00035
323.15	0.7001	1.46638	0.00035
323.15	0.7497	1.47255	0.00035
323.15	0.8	1.47882	0.00035
323.15	0.85	1.48504	0.00035
323.15	0.896	1.49072	0.00035
323.15	0.9497	1.49748	0.00035
323.15	1	1.50377	0.00035
328.15	0	1.37916	0.00036
328.15	0.05	1.38512	0.00036
328.15	0.0999	1.39102	0.00036
328.15	0.1503	1.39707	0.00036
328.15	0.2005	1.40311	0.00036
328.15	0.2507	1.40913	0.00036
328.15	0.2963	1.41464	0.00036
328.15	0.3509	1.42126	0.00036
328.15	0.4001	1.42721	0.00036
328.15	0.4471	1.4329	0.00036
328.15	0.4968	1.43901	0.00035
328.15	0.5512	1.44571	0.00035
328.15	0.6003	1.45173	0.00035
328.15	0.6502	1.45785	0.00035
328.15	0.7001	1.46407	0.00035
328.15	0.7497	1.47021	0.00035
328.15	0.8	1.47646	0.00035
328.15	0.85	1.48273	0.00035
328.15	0.896	1.48841	0.00035
328.15	0.9497	1.49518	0.00035
328.15	1	1.50144	0.00035

System: 1,3-diphenyltetramethyldisiloxane + 2,4,6,8-tetramethyl-2,4,6,8-tetravinylcycloterasiloxane; phases: Liquid
Fixed: Pressure, kPa = 102.2
Property: Mass density, kg/m3 (Liquid); method: Vibrating tube method
Temperature, K	Mole fraction of 1,3-diphenyltetramethyldisiloxane	Mass density, kg/m3	uncertainty
308.15	0	972.64	0.21
308.15	0.0511	972.67	0.21
308.15	0.1004	972.68	0.21
308.15	0.1503	972.67	0.21
308.15	0.2	972.66	0.21
308.15	0.2537	972.63	0.21
308.15	0.3001	972.56	0.21
308.15	0.3507	972.42	0.21
308.15	0.4002	972.3	0.21
308.15	0.4503	972.13	0.21
308.15	0.4999	971.87	0.21
308.15	0.5501	971.69	0.21
308.15	0.597	971.42	0.21
308.15	0.6498	971.17	0.21
308.15	0.7005	970.8	0.21
308.15	0.7492	970.45	0.21
308.15	0.8001	970.05	0.21
308.15	0.8497	969.63	0.21
308.15	0.8999	969.05	0.21
308.15	0.9502	968.57	0.21
308.15	1	968.05	0.21
313.15	0	967.49	0.21
313.15	0.0511	967.57	0.21
313.15	0.1004	967.63	0.21
313.15	0.1503	967.67	0.21
313.15	0.2	967.72	0.21
313.15	0.2537	967.74	0.21
313.15	0.3001	967.72	0.21
313.15	0.3507	967.63	0.21
313.15	0.4002	967.56	0.21
313.15	0.4503	967.44	0.21
313.15	0.4999	967.23	0.21
313.15	0.5501	967.12	0.21
313.15	0.597	966.89	0.21
313.15	0.6498	966.7	0.21
313.15	0.7005	966.35	0.21
313.15	0.7492	966.08	0.21
313.15	0.8001	965.73	0.21
313.15	0.8497	965.36	0.21
313.15	0.8999	964.82	0.21
313.15	0.9502	964.4	0.21
313.15	1	963.94	0.21
318.15	0	962.36	0.21
318.15	0.0511	962.46	0.21
318.15	0.1004	962.58	0.21
318.15	0.1503	962.67	0.21
318.15	0.2	962.77	0.21
318.15	0.2537	962.86	0.21
318.15	0.3001	962.9	0.21
318.15	0.3507	962.84	0.21
318.15	0.4002	962.83	0.21
318.15	0.4503	962.77	0.21
318.15	0.4999	962.58	0.21
318.15	0.5501	962.54	0.21
318.15	0.597	962.34	0.21
318.15	0.6498	962.23	0.21
318.15	0.7005	961.92	0.21
318.15	0.7492	961.71	0.21
318.15	0.8001	961.41	0.21
318.15	0.8497	961.11	0.21
318.15	0.8999	960.59	0.21
318.15	0.9502	960.23	0.21
318.15	1	959.84	0.21
323.15	0	957.2	0.21
323.15	0.0511	957.29	0.21
323.15	0.1004	957.53	0.21
323.15	0.1503	957.67	0.21
323.15	0.2	957.83	0.21
323.15	0.2537	957.97	0.21
323.15	0.3001	958.06	0.21
323.15	0.3507	958.04	0.21
323.15	0.4002	958.06	0.21
323.15	0.4503	958.08	0.21
323.15	0.4999	957.92	0.21
323.15	0.5501	957.94	0.21
323.15	0.597	957.8	0.21
323.15	0.6498	957.76	0.21
323.15	0.7005	957.49	0.21
323.15	0.7492	957.33	0.21
323.15	0.8001	957.09	0.21
323.15	0.8497	956.85	0.21
323.15	0.8999	956.35	0.21
323.15	0.9502	956.03	0.21
323.15	1	955.74	0.21
328.15	0	952.03	0.21
328.15	0.0511	952.25	0.21
328.15	0.1004	952.52	0.21
328.15	0.1503	952.66	0.21
328.15	0.2	952.88	0.21
328.15	0.2537	953.1	0.21
328.15	0.3001	953.26	0.21
328.15	0.3507	953.25	0.21
328.15	0.4002	953.33	0.21
328.15	0.4503	953.42	0.21
328.15	0.4999	953.25	0.21
328.15	0.5501	953.39	0.21
328.15	0.597	953.24	0.21
328.15	0.6498	953.3	0.21
328.15	0.7005	953.06	0.21
328.15	0.7492	952.96	0.21
328.15	0.8001	952.78	0.21
328.15	0.8497	952.59	0.21
328.15	0.8999	952.09	0.21
328.15	0.9502	951.87	0.21
328.15	1	951.65	0.21

System: 1,3-diphenyltetramethyldisiloxane + 2,4,6,8-tetramethyl-2,4,6,8-tetravinylcycloterasiloxane; phases: Liquid
Fixed: Pressure, kPa = 102.2
Property: Refractive index (Na D-line) (Liquid); method: Standard Abbe refractometry
Temperature, K	Mole fraction of 1,3-diphenyltetramethyldisiloxane	Refractive index (Na D-line)	uncertainty
308.15	0	1.42751	0.00035
308.15	0.0511	1.43117	0.00035
308.15	0.1004	1.43477	0.00035
308.15	0.1503	1.43849	0.00035
308.15	0.2	1.44222	0.00035
308.15	0.2537	1.4463	0.00035
308.15	0.3001	1.4499	0.00035
308.15	0.3507	1.45386	0.00035
308.15	0.4002	1.4578	0.00035
308.15	0.4503	1.46186	0.00035
308.15	0.4999	1.4659	0.00035
308.15	0.5501	1.47011	0.00035
308.15	0.597	1.47406	0.00035
308.15	0.6498	1.47861	0.00035
308.15	0.7005	1.48302	0.00035
308.15	0.7492	1.48734	0.00035
308.15	0.8001	1.49193	0.00035
308.15	0.8497	1.49647	0.00035
308.15	0.8999	1.50106	0.00035
308.15	0.9502	1.50586	0.00035
308.15	1	1.51066	0.00035
313.15	0	1.42514	0.00035
313.15	0.0511	1.4288	0.0004
313.15	0.1004	1.43241	0.00035
313.15	0.1503	1.4361	0.00035
313.15	0.2	1.43984	0.00035
313.15	0.2537	1.44393	0.00035
313.15	0.3001	1.44754	0.00035
313.15	0.3507	1.4515	0.00035
313.15	0.4002	1.45544	0.00035
313.15	0.4503	1.45951	0.00035
313.15	0.4999	1.46356	0.00035
313.15	0.5501	1.46778	0.00035
313.15	0.597	1.47174	0.00035
313.15	0.6498	1.47627	0.00035
313.15	0.7005	1.48067	0.00035
313.15	0.7492	1.48502	0.00035
313.15	0.8001	1.48963	0.00035
313.15	0.8497	1.49417	0.00035
313.15	0.8999	1.49877	0.00035
313.15	0.9502	1.50356	0.00035
313.15	1	1.50836	0.00035
318.15	0	1.42275	0.00035
318.15	0.0511	1.42643	0.00035
318.15	0.1004	1.43005	0.00035
318.15	0.1503	1.43374	0.00035
318.15	0.2	1.4375	0.00035
318.15	0.2537	1.44162	0.00035
318.15	0.3001	1.44521	0.00035
318.15	0.3507	1.44918	0.00035
318.15	0.4002	1.45312	0.00035
318.15	0.4503	1.45719	0.00035
318.15	0.4999	1.46122	0.00035
318.15	0.5501	1.46545	0.00035
318.15	0.597	1.46939	0.00035
318.15	0.6498	1.47398	0.00035
318.15	0.7005	1.47836	0.00035
318.15	0.7492	1.48271	0.00035
318.15	0.8001	1.4873	0.00035
318.15	0.8497	1.49187	0.00035
318.15	0.8999	1.49645	0.00035
318.15	0.9502	1.50122	0.00035
318.15	1	1.5061	0.0004
323.15	0	1.4204	0.0004
323.15	0.0511	1.42402	0.00035
323.15	0.1004	1.42765	0.00035
323.15	0.1503	1.43138	0.00035
323.15	0.2	1.43511	0.00035
323.15	0.2537	1.43922	0.00035
323.15	0.3001	1.44282	0.00035
323.15	0.3507	1.44682	0.00035
323.15	0.4002	1.45075	0.00035
323.15	0.4503	1.45481	0.00035
323.15	0.4999	1.45885	0.00035
323.15	0.5501	1.46309	0.00035
323.15	0.597	1.46705	0.00035
323.15	0.6498	1.47166	0.00035
323.15	0.7005	1.47601	0.00035
323.15	0.7492	1.48037	0.00035
323.15	0.8001	1.48499	0.00035
323.15	0.8497	1.4896	0.00035
323.15	0.8999	1.49415	0.00035
323.15	0.9502	1.49894	0.00035
323.15	1	1.50381	0.00035
328.15	0	1.41802	0.00035
328.15	0.0511	1.42168	0.00035
328.15	0.1004	1.42534	0.00035
328.15	0.1503	1.42904	0.00035
328.15	0.2	1.43277	0.00035
328.15	0.2537	1.43688	0.00035
328.15	0.3001	1.44051	0.00035
328.15	0.3507	1.44446	0.00035
328.15	0.4002	1.4484	0.00035
328.15	0.4503	1.45253	0.00035
328.15	0.4999	1.45654	0.00035
328.15	0.5501	1.46081	0.00035
328.15	0.597	1.46474	0.00035
328.15	0.6498	1.46934	0.00035
328.15	0.7005	1.47373	0.00035
328.15	0.7492	1.47809	0.00035
328.15	0.8001	1.48269	0.00035
328.15	0.8497	1.48727	0.00035
328.15	0.8999	1.4918	0.0004
328.15	0.9502	1.49665	0.00035
328.15	1	1.5015	0.0004

System: 1,3-diphenyltetramethyldisiloxane + 2,4,6-trimethyl-2,4,6-tris(3,3,3-trifluoropropyl)-1,3,5,2,4,6-trioxatrisilinane; phases: Liquid
Fixed: Pressure, kPa = 102.2
Property: Mass density, kg/m3 (Liquid); method: Vibrating tube method
Temperature, K	Mole fraction of 1,3-diphenyltetramethyldisiloxane	Mass density, kg/m3	uncertainty
308.15	0	1236.82	0.23
308.15	0.0501	1225.8	0.23
308.15	0.1001	1214.52	0.23
308.15	0.1499	1203.4	0.23
308.15	0.2005	1191.71	0.23
308.15	0.2497	1180.12	0.23
308.15	0.3	1167.98	0.23
308.15	0.3431	1157.27	0.23
308.15	0.4001	1142.74	0.22
308.15	0.45	1130.1	0.22
308.15	0.4998	1117.1	0.22
308.15	0.5482	1104.11	0.22
308.15	0.5996	1089.99	0.22
308.15	0.6501	1075.78	0.22
308.15	0.7	1061.47	0.22
308.15	0.75	1046.74	0.22
308.15	0.8001	1031.67	0.21
308.15	0.8499	1016.33	0.21
308.15	0.8998	1000.6	0.21
308.15	0.95	984.46	0.21
308.15	1	967.9	0.21
313.15	0	1230.2	0.23
313.15	0.0501	1219.39	0.23
313.15	0.1001	1208.2	0.23
313.15	0.1499	1197.13	0.23
313.15	0.2005	1185.57	0.23
313.15	0.2497	1174.1	0.23
313.15	0.3	1162.08	0.23
313.15	0.3431	1151.54	0.22
313.15	0.4001	1137.19	0.22
313.15	0.45	1124.64	0.22
313.15	0.4998	1111.69	0.22
313.15	0.5482	1098.84	0.22
313.15	0.5996	1084.84	0.22
313.15	0.6501	1070.7	0.22
313.15	0.7	1056.57	0.22
313.15	0.75	1041.96	0.22
313.15	0.8001	1027.02	0.21
313.15	0.8499	1011.73	0.21
313.15	0.8998	996.22	0.21
313.15	0.95	980.22	0.22
313.15	1	963.8	0.21
318.15	0	1223.61	0.23
318.15	0.0501	1212.88	0.23
318.15	0.1001	1201.82	0.23
318.15	0.1499	1190.88	0.23
318.15	0.2005	1179.46	0.23
318.15	0.2497	1168.1	0.23
318.15	0.3	1156.21	0.22
318.15	0.3431	1145.79	0.22
318.15	0.4001	1131.56	0.22
318.15	0.45	1119.13	0.22
318.15	0.4998	1106.32	0.22
318.15	0.5482	1093.55	0.22
318.15	0.5996	1079.71	0.22
318.15	0.6501	1065.65	0.22
318.15	0.7	1051.69	0.22
318.15	0.75	1037.22	0.21
318.15	0.8001	1022.41	0.21
318.15	0.8499	1007.33	0.21
318.15	0.8998	991.87	0.21
318.15	0.95	976.02	0.22
318.15	1	959.75	0.21
323.15	0	1217.06	0.23
323.15	0.0501	1206.4	0.23
323.15	0.1001	1195.45	0.23
323.15	0.1499	1184.63	0.23
323.15	0.2005	1173.35	0.23
323.15	0.2497	1162.13	0.23
323.15	0.3	1150.35	0.22
323.15	0.3431	1140.01	0.22
323.15	0.4001	1125.93	0.22
323.15	0.45	1113.61	0.22
323.15	0.4998	1100.93	0.22
323.15	0.5482	1088.31	0.22
323.15	0.5996	1074.57	0.22
323.15	0.6501	1060.62	0.22
323.15	0.7	1046.82	0.21
323.15	0.75	1032.47	0.21
323.15	0.8001	1017.79	0.21
323.15	0.8499	1002.84	0.21
323.15	0.8998	987.37	0.21
323.15	0.95	971.79	0.22
323.15	1	955.65	0.21
328.15	0	1210.43	0.23
328.15	0.0501	1199.88	0.23
328.15	0.1001	1189.07	0.23
328.15	0.1499	1178.37	0.23
328.15	0.2005	1167.25	0.23
328.15	0.2497	1156.13	0.22
328.15	0.3	1144.49	0.22
328.15	0.3431	1134.24	0.22
328.15	0.4001	1120.32	0.22
328.15	0.45	1108.09	0.22
328.15	0.4998	1095.54	0.22
328.15	0.5482	1083.03	0.22
328.15	0.5996	1069.43	0.22
328.15	0.6501	1055.6	0.22
328.15	0.7	1041.93	0.21
328.15	0.75	1027.7	0.21
328.15	0.8001	1013.17	0.21
328.15	0.8499	998.35	0.21
328.15	0.8998	983.15	0.21
328.15	0.95	967.58	0.22
328.15	1	951.57	0.21

System: 1,3-diphenyltetramethyldisiloxane + 2,4,6-trimethyl-2,4,6-tris(3,3,3-trifluoropropyl)-1,3,5,2,4,6-trioxatrisilinane; phases: Liquid
Fixed: Pressure, kPa = 102.2
Property: Refractive index (Na D-line) (Liquid); method: Standard Abbe refractometry
Temperature, K	Mole fraction of 1,3-diphenyltetramethyldisiloxane	Refractive index (Na D-line)	uncertainty
308.15	0	1.36015	0.00035
308.15	0.0501	1.36577	0.00035
308.15	0.1001	1.37152	0.00035
308.15	0.1499	1.37745	0.00035
308.15	0.2005	1.38359	0.00035
308.15	0.2497	1.38975	0.00035
308.15	0.3	1.39624	0.00035
308.15	0.3431	1.40191	0.00035
308.15	0.4001	1.40958	0.00035
308.15	0.45	1.41665	0.00035
308.15	0.4998	1.42386	0.00035
308.15	0.5482	1.43101	0.00035
308.15	0.5996	1.43889	0.00035
308.15	0.6501	1.44686	0.00035
308.15	0.7	1.45499	0.00035
308.15	0.75	1.4634	0.00035
308.15	0.8001	1.4721	0.00035
308.15	0.8499	1.48104	0.00035
308.15	0.8998	1.49033	0.00035
308.15	0.95	1.5001	0.00035
308.15	1	1.51009	0.00035
313.15	0	1.35814	0.00035
313.15	0.0501	1.36376	0.00035
313.15	0.1001	1.36949	0.00035
313.15	0.1499	1.37541	0.00035
313.15	0.2005	1.38155	0.00035
313.15	0.2497	1.38769	0.00035
313.15	0.3	1.39416	0.00035
313.15	0.3431	1.39984	0.00035
313.15	0.4001	1.40754	0.00035
313.15	0.45	1.41456	0.00035
313.15	0.4998	1.42173	0.00035
313.15	0.5482	1.42892	0.00035
313.15	0.5996	1.43676	0.00035
313.15	0.6501	1.44469	0.00035
313.15	0.7	1.45282	0.00035
313.15	0.75	1.4612	0.00035
313.15	0.8001	1.46989	0.00035
313.15	0.8499	1.47886	0.00035
313.15	0.8998	1.48806	0.00035
313.15	0.95	1.49782	0.00035
313.15	1	1.50782	0.00035
318.15	0	1.35614	0.00035
318.15	0.0501	1.36177	0.00035
318.15	0.1001	1.36745	0.00035
318.15	0.1499	1.37337	0.00035
318.15	0.2005	1.3795	0.00035
318.15	0.2497	1.38565	0.00035
318.15	0.3	1.39207	0.00035
318.15	0.3431	1.39775	0.00035
318.15	0.4001	1.40546	0.00035
318.15	0.45	1.41246	0.00035
318.15	0.4998	1.41969	0.00035
318.15	0.5482	1.42678	0.00035
318.15	0.5996	1.43456	0.00035
318.15	0.6501	1.44253	0.00035
318.15	0.7	1.45064	0.00035
318.15	0.75	1.459	0.00035
318.15	0.8001	1.46772	0.00035
318.15	0.8499	1.47659	0.00035
318.15	0.8998	1.48584	0.00035
318.15	0.95	1.49555	0.00035
318.15	1	1.50561	0.00035
323.15	0	1.35413	0.00035
323.15	0.0501	1.35973	0.00035
323.15	0.1001	1.36544	0.00035
323.15	0.1499	1.37133	0.00035
323.15	0.2005	1.37746	0.00035
323.15	0.2497	1.38355	0.00035
323.15	0.3	1.39	0.00035
323.15	0.3431	1.39565	0.00035
323.15	0.4001	1.40337	0.00035
323.15	0.45	1.41033	0.00035
323.15	0.4998	1.4175	0.00035
323.15	0.5482	1.42465	0.00035
323.15	0.5996	1.43246	0.00035
323.15	0.6501	1.44035	0.00035
323.15	0.7	1.44846	0.00035
323.15	0.75	1.45683	0.00035
323.15	0.8001	1.4655	0.00035
323.15	0.8499	1.47441	0.00035
323.15	0.8998	1.48362	0.00035
323.15	0.95	1.49332	0.00035
323.15	1	1.50332	0.00035
328.15	0	1.35215	0.00035
328.15	0.0501	1.3577	0.0004
328.15	0.1001	1.36339	0.00035
328.15	0.1499	1.36931	0.00035
328.15	0.2005	1.37541	0.00035
328.15	0.2497	1.38148	0.00035
328.15	0.3	1.38792	0.00035
328.15	0.3431	1.3936	0.00035
328.15	0.4001	1.40125	0.00035
328.15	0.45	1.40824	0.00035
328.15	0.4998	1.41538	0.00035
328.15	0.5482	1.42246	0.00035
328.15	0.5996	1.43032	0.00035
328.15	0.6501	1.43816	0.00035
328.15	0.7	1.44627	0.00035
328.15	0.75	1.4546	0.0004
328.15	0.8001	1.46326	0.00035
328.15	0.8499	1.47215	0.00035
328.15	0.8998	1.48135	0.00035
328.15	0.95	1.49106	0.00035
328.15	1	1.501	0.00035

System: 1,3-diphenyltetramethyldisiloxane + 1,3-diethenyl-1,1,3,3-tetramethyldisiloxane; phases: Liquid
Fixed: Pressure, kPa = 102.2
Property: Mass density, kg/m3 (Liquid); method: Vibrating tube method
Temperature, K	Mole fraction of 1,3-diphenyltetramethyldisiloxane	Mass density, kg/m3	uncertainty
308.15	0	797.99	0.23
308.15	0.0502	809.57	0.24
308.15	0.1	820.63	0.23
308.15	0.1487	831.07	0.23
308.15	0.2002	841.7	0.23
308.15	0.2498	851.61	0.23
308.15	0.3	861.28	0.22
308.15	0.3503	870.64	0.22
308.15	0.3994	879.46	0.22
308.15	0.4502	888.32	0.22
308.15	0.5001	896.73	0.22
308.15	0.5498	904.84	0.22
308.15	0.6002	912.8	0.22
308.15	0.6502	920.47	0.21
308.15	0.7004	927.9	0.21
308.15	0.7504	935.1	0.21
308.15	0.8003	942.07	0.21
308.15	0.8498	948.8	0.21
308.15	0.8986	955.23	0.21
308.15	0.9502	961.82	0.21
308.15	1	967.99	0.21
313.15	0	793.04	0.23
313.15	0.0502	804.7	0.24
313.15	0.1	815.84	0.23
313.15	0.1487	826.38	0.23
313.15	0.2002	837.11	0.23
313.15	0.2498	847.08	0.23
313.15	0.3	856.78	0.23
313.15	0.3503	866.2	0.22
313.15	0.3994	875.05	0.22
313.15	0.4502	883.96	0.22
313.15	0.5001	892.42	0.22
313.15	0.5498	900.61	0.22
313.15	0.6002	908.56	0.22
313.15	0.6502	916.26	0.21
313.15	0.7004	923.73	0.21
313.15	0.7504	930.94	0.21
313.15	0.8003	937.9	0.21
313.15	0.8498	944.66	0.21
313.15	0.8986	951.09	0.21
313.15	0.9502	957.69	0.21
313.15	1	963.87	0.21
318.15	0	788.05	0.24
318.15	0.0502	799.79	0.24
318.15	0.1	811.01	0.23
318.15	0.1487	821.62	0.23
318.15	0.2002	832.41	0.23
318.15	0.2498	842.45	0.23
318.15	0.3	852.19	0.23
318.15	0.3503	861.68	0.22
318.15	0.3994	870.55	0.22
318.15	0.4502	879.52	0.22
318.15	0.5001	888.02	0.22
318.15	0.5498	896.23	0.22
318.15	0.6002	904.21	0.22
318.15	0.6502	911.95	0.21
318.15	0.7004	919.47	0.21
318.15	0.7504	926.72	0.21
318.15	0.8003	933.7	0.21
318.15	0.8498	940.48	0.21
318.15	0.8986	946.94	0.21
318.15	0.9502	953.57	0.21
318.15	1	959.76	0.21
323.15	0	783.06	0.24
323.15	0.0502	794.89	0.24
323.15	0.1	806.21	0.24
323.15	0.1487	816.9	0.23
323.15	0.2002	827.77	0.23
323.15	0.2498	837.87	0.23
323.15	0.3	847.66	0.23
323.15	0.3503	857.2	0.22
323.15	0.3994	866.12	0.22
323.15	0.4502	875.17	0.22
323.15	0.5001	883.7	0.22
323.15	0.5498	891.95	0.22
323.15	0.6002	899.93	0.22
323.15	0.6502	907.71	0.22
323.15	0.7004	915.27	0.21
323.15	0.7504	922.51	0.21
323.15	0.8003	929.52	0.21
323.15	0.8498	936.33	0.21
323.15	0.8986	942.83	0.21
323.15	0.9502	949.47	0.21
323.15	1	955.68	0.21
328.15	0	778.04	0.24
328.15	0.0502	789.94	0.24
328.15	0.1	801.35	0.24
328.15	0.1487	812.12	0.23
328.15	0.2002	823.05	0.23
328.15	0.2498	833.22	0.23
328.15	0.3	843.06	0.23
328.15	0.3503	852.68	0.23
328.15	0.3994	861.63	0.22
328.15	0.4502	870.72	0.22
328.15	0.5001	879.29	0.22
328.15	0.5498	887.57	0.22
328.15	0.6002	895.59	0.22
328.15	0.6502	903.38	0.22
328.15	0.7004	911	0.21
328.15	0.7504	918.26	0.21
328.15	0.8003	925.3	0.21
328.15	0.8498	932.14	0.21
328.15	0.8986	938.64	0.21
328.15	0.9502	945.33	0.21
328.15	1	951.57	0.21

System: 1,3-diphenyltetramethyldisiloxane + 1,3-diethenyl-1,1,3,3-tetramethyldisiloxane; phases: Liquid
Fixed: Pressure, kPa = 102.2
Property: Refractive index (Na D-line) (Liquid); method: Standard Abbe refractometry
Temperature, K	Mole fraction of 1,3-diphenyltetramethyldisiloxane	Refractive index (Na D-line)	uncertainty
308.15	0	1.40445	0.00036
308.15	0.0502	1.41155	0.00036
308.15	0.1	1.41834	0.00036
308.15	0.1487	1.42478	0.00036
308.15	0.2002	1.43134	0.00035
308.15	0.2498	1.43748	0.00035
308.15	0.3	1.44347	0.00035
308.15	0.3503	1.4493	0.00035
308.15	0.3994	1.45477	0.00035
308.15	0.4502	1.46032	0.00035
308.15	0.5001	1.46558	0.00035
308.15	0.5498	1.47066	0.00035
308.15	0.6002	1.47565	0.00035
308.15	0.6502	1.48048	0.00035
308.15	0.7004	1.48515	0.00035
308.15	0.7504	1.48971	0.00035
308.15	0.8003	1.4941	0.0004
308.15	0.8498	1.49836	0.00035
308.15	0.8986	1.50242	0.00035
308.15	0.9502	1.50659	0.00035
308.15	1	1.51052	0.00035
313.15	0	1.40178	0.00036
313.15	0.0502	1.40892	0.00036
313.15	0.1	1.41574	0.00036
313.15	0.1487	1.42224	0.00036
313.15	0.2002	1.42886	0.00035
313.15	0.2498	1.43501	0.00035
313.15	0.3	1.44103	0.00035
313.15	0.3503	1.44687	0.00035
313.15	0.3994	1.45239	0.00035
313.15	0.4502	1.45792	0.00035
313.15	0.5001	1.46321	0.00035
313.15	0.5498	1.46834	0.00035
313.15	0.6002	1.47332	0.00035
313.15	0.6502	1.47816	0.00035
313.15	0.7004	1.48285	0.00035
313.15	0.7504	1.48739	0.00035
313.15	0.8003	1.49177	0.00035
313.15	0.8498	1.49606	0.00035
313.15	0.8986	1.50013	0.00035
313.15	0.9502	1.50428	0.00035
313.15	1	1.5082	0.0004
318.15	0	1.39912	0.00036
318.15	0.0502	1.40628	0.00036
318.15	0.1	1.41315	0.00036
318.15	0.1487	1.41967	0.00036
318.15	0.2002	1.42631	0.00035
318.15	0.2498	1.43251	0.00035
318.15	0.3	1.43853	0.00035
318.15	0.3503	1.4444	0.00035
318.15	0.3994	1.44994	0.00035
318.15	0.4502	1.45549	0.00035
318.15	0.5001	1.46081	0.00035
318.15	0.5498	1.46594	0.00035
318.15	0.6002	1.47093	0.00035
318.15	0.6502	1.47577	0.00035
318.15	0.7004	1.48049	0.00035
318.15	0.7504	1.48506	0.00035
318.15	0.8003	1.48948	0.00035
318.15	0.8498	1.49375	0.00035
318.15	0.8986	1.49781	0.00035
318.15	0.9502	1.50198	0.00035
318.15	1	1.50593	0.00035
323.15	0	1.39644	0.00036
323.15	0.0502	1.40366	0.00036
323.15	0.1	1.41057	0.00036
323.15	0.1487	1.41713	0.00036
323.15	0.2002	1.42381	0.00035
323.15	0.2498	1.43004	0.00035
323.15	0.3	1.43607	0.00035
323.15	0.3503	1.44199	0.00035
323.15	0.3994	1.44752	0.00035
323.15	0.4502	1.45314	0.00035
323.15	0.5001	1.45844	0.00035
323.15	0.5498	1.4636	0.00035
323.15	0.6002	1.46859	0.00035
323.15	0.6502	1.47346	0.00035
323.15	0.7004	1.47821	0.00035
323.15	0.7504	1.48275	0.00035
323.15	0.8003	1.48715	0.00035
323.15	0.8498	1.49142	0.00035
323.15	0.8986	1.49552	0.00035
323.15	0.9502	1.49974	0.00035
323.15	1	1.50366	0.00035
328.15	0	1.39378	0.00036
328.15	0.0502	1.40099	0.00036
328.15	0.1	1.40797	0.00036
328.15	0.1487	1.41456	0.00036
328.15	0.2002	1.42128	0.00035
328.15	0.2498	1.4275	0.00035
328.15	0.3	1.43356	0.00035
328.15	0.3503	1.43951	0.00035
328.15	0.3994	1.44508	0.00035
328.15	0.4502	1.45071	0.00035
328.15	0.5001	1.45605	0.00035
328.15	0.5498	1.4612	0.00035
328.15	0.6002	1.46619	0.00035
328.15	0.6502	1.47107	0.00035
328.15	0.7004	1.47583	0.00035
328.15	0.7504	1.48038	0.00035
328.15	0.8003	1.48483	0.00035
328.15	0.8498	1.48912	0.00035
328.15	0.8986	1.4932	0.00035
328.15	0.9502	1.49743	0.00035
328.15	1	1.50133	0.00035
