Measured thermophysical data. Vapor Liquid Phase Equilibrium for Azeotropic Isobutane + trans-1,3,3,3-Tetrafluoropropene + Trifluoroiodomethane System at Temperatures from 243.150 to 283.150 K
Source: J. Chem. Eng. Data, 2018, 10.1021/acs.jced.7b00964
Compound 1: 2-methylpropane, C4H10, InChI=1S/C4H10/c1-4(2)3/h4H,1-3H3, purity 99.9%
Compound 2: trans-1,3,3,3-tetrafluoropropene, C3H2F4, InChI=1S/C3H2F4/c4-2-1-3(5,6)7/h1-2H/b2-1+, purity 99.9%
Compound 3: trifluoroiodomethane, CF3I, InChI=1S/CF3I/c2-1(3,4)5, purity 99.5%

System: 2-methylpropane; phases: Liquid, Gas
Property: Vapor or sublimation pressure, kPa (Liquid); method: Closed cell (Static) method
Temperature, K	Vapor or sublimation pressure, kPa	uncertainty
243.15	46.7	1
253.15	72.6	1
263.15	108.7	1
273.15	157.4	1
283.15	221	1.1

System: trans-1,3,3,3-tetrafluoropropene; phases: Liquid, Gas
Property: Vapor or sublimation pressure, kPa (Liquid); method: Closed cell (Static) method
Temperature, K	Vapor or sublimation pressure, kPa	uncertainty
243.15	61	1
253.15	97	1
263.15	147.7	1
273.15	216.4	1.1
283.15	308.3	1.1

System: trifluoroiodomethane; phases: Liquid, Gas
Property: Vapor or sublimation pressure, kPa (Liquid); method: Closed cell (Static) method
Temperature, K	Vapor or sublimation pressure, kPa	uncertainty
243.15	71.7	1
253.15	109	1
263.15	160.4	1
273.15	228.2	1.1
283.15	316.3	1.1

System: 2-methylpropane + trans-1,3,3,3-tetrafluoropropene + trifluoroiodomethane; phases: Liquid, Gas
Property: Mole fraction of trans-1,3,3,3-tetrafluoropropene (Liquid); method: Chromatography
Property: Mole fraction of trans-1,3,3,3-tetrafluoropropene (Gas); method: Chromatography
Property: Mole fraction of 2-methylpropane (Gas); method: Chromatography
Temperature, K	Pressure, kPa	Mole fraction of 2-methylpropane	Mole fraction of trans-1,3,3,3-tetrafluoropropene	uncertainty	Mole fraction of trans-1,3,3,3-tetrafluoropropene	uncertainty	Mole fraction of 2-methylpropane	uncertainty
243.15	70.4	0.669	0.129	0.01	0.276	0.01	0.498	
243.15	72	0.571	0.112	0.01	0.231	0.01	0.442	
243.15	73.2	0.504	0.096	0.01	0.192	0.01	0.379	
243.15	73.5	0.383	0.087	0.01	0.148	0.01	0.301	
243.15	74.6	0.246	0.069	0.01	0.123	0.01	0.248	
243.15	73.1	0.307	0.055	0.01	0.092	0.01	0.248	
243.15	78.8	0.312	0.262	0.01	0.328	0.01	0.258	
243.15	79	0.277	0.35	0.01	0.39	0.011	0.244	
243.15	79.3	0.258	0.4	0.01	0.423	0.011	0.236	
243.15	79.5	0.209	0.518	0.011	0.492	0.011	0.219	
243.15	77	0.135	0.685	0.01	0.606	0.011	0.186	
243.15	74.5	0.099	0.792	0.01	0.683	0.01	0.159	
243.15	80.5	0.268	0.553	0.011	0.52	0.011	0.273	
243.15	79.6	0.465	0.389	0.01	0.461	0.011	0.399	
263.15	155.6	0.765	0.166	0.01	0.329	0.01	0.592	
263.15	156.9	0.664	0.136	0.01	0.276	0.01	0.511	
263.15	160.6	0.569	0.122	0.01	0.222	0.01	0.442	
263.15	163.1	0.459	0.104	0.01	0.198	0.01	0.401	
263.15	163.6	0.373	0.088	0.01	0.145	0.01	0.3	
263.15	165.8	0.254	0.062	0.01	0.11	0.01	0.238	
263.15	163.5	0.302	0.05	0.01	0.083	0.01	0.246	
263.15	176	0.302	0.269	0.01	0.338	0.01	0.249	
263.15	178.4	0.27	0.35	0.01	0.402	0.011	0.233	
263.15	179.4	0.249	0.403	0.01	0.437	0.011	0.224	
263.15	179.6	0.204	0.513	0.011	0.489	0.011	0.219	
263.15	176.5	0.128	0.694	0.01	0.629	0.011	0.164	
263.15	171.7	0.093	0.778	0.01	0.701	0.01	0.136	
263.15	180.4	0.262	0.552	0.011	0.545	0.011	0.264	
263.15	177.1	0.465	0.389	0.01	0.462	0.011	0.393	
263.15	170.2	0.657	0.252	0.01	0.399	0.011	0.496	
283.15	305	0.774	0.169	0.01	0.319	0.01	0.621	
283.15	306.2	0.664	0.136	0.01	0.254	0.01	0.523	
283.15	311.6	0.569	0.122	0.01	0.213	0.01	0.457	
283.15	320.6	0.492	0.106	0.01	0.18	0.01	0.397	
283.15	323.3	0.373	0.086	0.01	0.14	0.01	0.308	
283.15	325.7	0.28	0.067	0.01	0.104	0.01	0.235	
283.15	321.1	0.309	0.048	0.01	0.08	0.01	0.251	
283.15	345.7	0.309	0.271	0.01	0.34	0.01	0.254	
283.15	353.5	0.27	0.349	0.01	0.402	0.011	0.234	
283.15	355.2	0.25	0.401	0.01	0.441	0.011	0.223	
283.15	357.9	0.206	0.519	0.011	0.523	0.011	0.198	
283.15	353.9	0.13	0.688	0.01	0.649	0.01	0.153	
283.15	346.9	0.091	0.781	0.01	0.726	0.01	0.122	
283.15	360.3	0.26	0.548	0.011	0.554	0.011	0.253	
283.15	350.3	0.48	0.375	0.01	0.456	0.011	0.401	
283.15	331.7	0.651	0.248	0.01	0.389	0.011	0.508	
283.15	310.5	0.626	0.121	0.01	0.229	0.01	0.491	
283.15	320.8	0.392	0.089	0.01	0.156	0.01	0.297	
