Measured thermophysical data. Determination of CO2 Solubility in Water and NaCl Solutions under Geological Sequestration Conditions Using a Fused Silica Capillary Cell with in Situ Raman Spectroscopy
Source: J. Chem. Eng. Data, 2019, 10.1021/acs.jced.9b00013
Compound 1: water, H2O, InChI=1S/H2O/h1H2, purity 99.9%
Compound 2: sodium chloride, ClNa, InChI=1S/ClH.Na/h1H;/q;+1/p-1
Compound 3: carbon dioxide, CO2, InChI=1S/CO2/c2-1-3

System: carbon dioxide + water + sodium chloride; phases: Liquid, Gas
Property: Molality, mol/kg of carbon dioxide (Liquid); method: Raman spectroscopy
Temperature, K	Pressure, kPa	Solvent: Molality, mol/kg of sodium chloride	Molality, mol/kg of carbon dioxide	uncertainty
303.15	3000	0	0.745	0.026
303.15	3500	0	0.855	0.022
303.15	4000	0	0.94	0.034
303.15	4500	0	1.006	0.018
303.15	5000	0	1.085	0.016
303.15	5500	0	1.155	0.016
303.15	6000	0	1.205	0.014
303.15	6500	0	1.258	0.014
303.15	7000	0	1.303	0.024
313.15	3000	0	0.616	0.024
313.15	3500	0	0.697	0.02
313.15	4000	0	0.767	0.022
313.15	4500	0	0.827	0.034
313.15	5000	0	0.889	0.016
313.15	5500	0	0.946	0.014
313.15	6000	0	1.003	0.016
313.15	6500	0	1.053	0.006
313.15	7000	0	1.099	0.022
313.15	7500	0	1.152	0.022
313.15	8000	0	1.195	0.016
313.15	8500	0	1.217	0.034
313.15	9000	0	1.229	0.014
313.15	9500	0	1.244	0.01
313.15	10000	0	1.257	0.012
313.15	10500	0	1.265	0.028
313.15	11000	0	1.271	0.012
313.15	11500	0	1.281	0.012
313.15	12000	0	1.289	0.008
313.15	12500	0	1.295	0.028
313.15	13000	0	1.3	0.006
313.15	13500	0	1.309	0.018
313.15	15000	0	1.321	0.01
313.15	15500	0	1.326	0.016
313.15	17000	0	1.337	0.005
313.15	17500	0	1.344	0.006
313.15	20000	0	1.365	0.016
313.15	21000	0	1.373	0.012
313.15	23000	0	1.386	0.028
313.15	24000	0	1.393	0.006
313.15	26000	0	1.409	0.007
313.15	27000	0	1.416	0.01
313.15	30000	0	1.446	0.007
323.15	3000	0	0.525	0.022
323.15	3500	0	0.597	0.016
323.15	4000	0	0.657	0.01
323.15	4500	0	0.721	0.018
323.15	5000	0	0.773	0.026
323.15	5500	0	0.819	0.01
323.15	6000	0	0.868	0.036
323.15	6500	0	0.909	0.018
323.15	7000	0	0.954	0.008
323.15	7500	0	0.999	0.001
323.15	8000	0	1.039	0.006
323.15	8500	0	1.075	0.012
323.15	9000	0	1.111	0.026
323.15	9500	0	1.139	0.02
323.15	10000	0	1.172	0.012
323.15	10500	0	1.187	0.024
323.15	11000	0	1.199	0.012
323.15	11500	0	1.205	0.012
323.15	12000	0	1.213	0.012
323.15	12500	0	1.222	0.026
323.15	13000	0	1.23	0.012
323.15	13500	0	1.237	0.008
323.15	15000	0	1.248	0.01
323.15	15500	0	1.257	0.014
323.15	17000	0	1.273	0.01
323.15	17500	0	1.277	0.028
323.15	20000	0	1.301	0.036
323.15	21000	0	1.308	0.014
323.15	23000	0	1.324	0.02
323.15	24000	0	1.333	0.014
323.15	26000	0	1.348	0.028
323.15	27000	0	1.356	0.01
323.15	30000	0	1.378	0.005
333.15	3000	0	0.448	0.012
333.15	3500	0	0.516	0.012
333.15	4000	0	0.571	0.014
333.15	4500	0	0.628	0.026
333.15	5000	0	0.682	0.024
333.15	5500	0	0.727	0.032
333.15	6000	0	0.775	0.034
333.15	6500	0	0.812	0.026
333.15	7000	0	0.855	0.03
333.15	7500	0	0.893	0.012
333.15	8000	0	0.928	0.008
333.15	8500	0	0.962	0.008
333.15	9000	0	0.996	0.004
333.15	9500	0	1.025	0.008
333.15	10000	0	1.062	0.018
333.15	10500	0	1.087	0.012
333.15	11000	0	1.112	0.022
333.15	11500	0	1.13	0.008
333.15	12000	0	1.142	0.018
333.15	12500	0	1.15	0.034
333.15	13000	0	1.158	0.012
333.15	13500	0	1.165	0.036
333.15	15000	0	1.185	0.018
333.15	15500	0	1.19	0.018
333.15	17000	0	1.207	0.008
333.15	17500	0	1.214	0.024
333.15	20000	0	1.243	0.028
333.15	21000	0	1.252	0.016
333.15	23000	0	1.273	0.02
333.15	24000	0	1.278	0.006
333.15	26000	0	1.295	0.048
333.15	27000	0	1.3	0.01
333.15	30000	0	1.326	0.026
343.15	3000	0	0.4	0.01
343.15	3500	0	0.452	0.028
343.15	4000	0	0.508	0.014
343.15	4500	0	0.554	0.026
343.15	5000	0	0.608	0.014
343.15	5500	0	0.65	0.022
343.15	6000	0	0.695	0.008
343.15	6500	0	0.737	0.02
343.15	7000	0	0.781	0.008
343.15	7500	0	0.821	0.022
343.15	8000	0	0.855	0.024
343.15	8500	0	0.886	0.02
343.15	9000	0	0.916	0.01
343.15	9500	0	0.944	0.024
343.15	10000	0	0.975	0.022
343.15	10500	0	0.997	0.003
343.15	11000	0	1.021	0.01
343.15	11500	0	1.042	0.018
343.15	12000	0	1.059	0.02
343.15	12500	0	1.071	0.022
343.15	13000	0	1.084	0.012
343.15	13500	0	1.095	0.026
343.15	15000	0	1.119	0.006
343.15	15500	0	1.13	0.034
343.15	17000	0	1.149	0.014
343.15	17500	0	1.154	0.03
343.15	20000	0	1.188	0.022
343.15	21000	0	1.202	0.018
343.15	23000	0	1.225	0.032
343.15	24000	0	1.237	0.01
343.15	26000	0	1.254	0.024
343.15	27000	0	1.261	0.008
343.15	30000	0	1.286	0.006
353.15	3000	0	0.352	0.018
353.15	3500	0	0.406	0.01
353.15	4000	0	0.453	0.02
353.15	4500	0	0.499	0.016
353.15	5000	0	0.548	0.022
353.15	5500	0	0.595	0.012
353.15	6000	0	0.63	0.012
353.15	6500	0	0.669	0.024
353.15	7000	0	0.706	0.028
353.15	7500	0	0.746	0.026
353.15	8000	0	0.781	0.004
353.15	8500	0	0.82	0.014
353.15	9000	0	0.845	0.02
353.15	9500	0	0.873	0.008
353.15	10000	0	0.899	0.006
353.15	10500	0	0.927	0.014
353.15	11000	0	0.946	0.026
353.15	11500	0	0.969	0.014
353.15	12000	0	0.987	0.013
353.15	12500	0	1.005	0.026
353.15	13000	0	1.025	0.016
353.15	13500	0	1.034	0.012
353.15	15000	0	1.056	0.02
353.15	15500	0	1.076	0.03
353.15	17000	0	1.1	0.008
353.15	17500	0	1.111	0.03
353.15	20000	0	1.15	0.034
353.15	21000	0	1.172	0.016
353.15	23000	0	1.193	0.026
353.15	24000	0	1.207	0.012
353.15	26000	0	1.23	0.014
353.15	27000	0	1.24	0.018
353.15	30000	0	1.268	0.028
303.15	3000	1	0.604	0.013
303.15	4000	1	0.743	0.031
303.15	5000	1	0.865	0.018
303.15	6000	1	0.966	0.02
303.15	7000	1	1.038	0.018
313.15	3000	1	0.498	0.019
313.15	4000	1	0.623	0.023
313.15	5000	1	0.722	0.021
313.15	6000	1	0.812	0.025
313.15	7000	1	0.893	0.029
313.15	8000	1	0.951	0.023
313.15	9000	1	0.978	0.02
313.15	10000	1	0.995	0.01
313.15	11000	1	1.005	0.033
313.15	12000	1	1.014	0.026
313.15	13000	1	1.031	0.02
313.15	15000	1	1.05	0.031
313.15	17000	1	1.07	0.017
313.15	20000	1	1.096	0.026
313.15	23000	1	1.122	0.024
313.15	26000	1	1.151	0.017
313.15	30000	1	1.194	0.045
323.15	3000	1	0.435	0.013
323.15	4000	1	0.537	0.011
323.15	5000	1	0.618	0.027
323.15	6000	1	0.702	0.027
323.15	7000	1	0.767	0.025
323.15	8000	1	0.832	0.025
323.15	9000	1	0.885	0.019
323.15	10000	1	0.93	0.037
323.15	11000	1	0.94	0.035
323.15	12000	1	0.953	0.013
323.15	13000	1	0.965	0.015
323.15	15000	1	0.987	0.015
323.15	17000	1	1.013	0.018
323.15	20000	1	1.038	0.024
323.15	23000	1	1.066	0.033
323.15	26000	1	1.092	0.017
323.15	30000	1	1.138	0.024
333.15	3000	1	0.376	0.014
333.15	4000	1	0.471	0.024
333.15	5000	1	0.549	0.027
333.15	6000	1	0.614	0.015
333.15	7000	1	0.683	0.025
333.15	8000	1	0.738	0.021
333.15	9000	1	0.79	0.021
333.15	10000	1	0.835	0.025
333.15	11000	1	0.876	0.021
333.15	12000	1	0.904	0.014
333.15	13000	1	0.916	0.033
333.15	15000	1	0.944	0.027
333.15	17000	1	0.97	0.031
333.15	20000	1	0.998	0.008
333.15	23000	1	1.027	0.027
333.15	26000	1	1.05	0.025
333.15	30000	1	1.096	0.02
343.15	3000	1	0.339	0.018
343.15	4000	1	0.427	0.026
343.15	5000	1	0.485	0.015
343.15	6000	1	0.559	0.021
343.15	7000	1	0.62	0.017
343.15	8000	1	0.679	0.019
343.15	9000	1	0.723	0.027
343.15	10000	1	0.761	0.016
343.15	11000	1	0.804	0.018
343.15	12000	1	0.83	0.029
343.15	13000	1	0.851	0.016
343.15	15000	1	0.894	0.016
343.15	17000	1	0.923	0.014
343.15	20000	1	0.965	0.014
343.15	23000	1	1.001	0.016
343.15	26000	1	1.029	0.041
343.15	30000	1	1.069	0.037
353.15	3000	1	0.306	0.014
353.15	4000	1	0.373	0.013
353.15	5000	1	0.44	0.009
353.15	6000	1	0.511	0.008
353.15	7000	1	0.566	0.015
353.15	8000	1	0.621	0.015
353.15	9000	1	0.677	0.029
353.15	10000	1	0.71	0.025
353.15	11000	1	0.752	0.019
353.15	12000	1	0.786	0.023
353.15	13000	1	0.81	0.025
353.15	15000	1	0.857	0.023
353.15	17000	1	0.891	0.014
353.15	20000	1	0.933	0.016
353.15	23000	1	0.968	0.033
353.15	26000	1	1.003	0.029
353.15	30000	1	1.044	0.027
303.15	3000	2	0.506	0.009
303.15	4000	2	0.622	0.013
303.15	5000	2	0.722	0.014
303.15	6000	2	0.794	0.015
303.15	7000	2	0.849	0.02
313.15	3000	2	0.422	0.01
313.15	4000	2	0.515	0.018
313.15	5000	2	0.592	0.013
313.15	6000	2	0.67	0.012
313.15	7000	2	0.736	0.013
313.15	8000	2	0.786	0.016
313.15	9000	2	0.808	0.013
313.15	10000	2	0.82	0.013
313.15	11000	2	0.83	0.014
313.15	12000	2	0.84	0.02
313.15	13000	2	0.85	0.014
313.15	15000	2	0.868	0.019
313.15	17000	2	0.886	0.017
313.15	20000	2	0.909	0.017
313.15	23000	2	0.93	0.014
313.15	26000	2	0.949	0.017
313.15	30000	2	0.972	0.02
323.15	3000	2	0.363	0.011
323.15	4000	2	0.447	0.019
323.15	5000	2	0.514	0.018
323.15	6000	2	0.585	0.011
323.15	7000	2	0.641	0.015
323.15	8000	2	0.694	0.01
323.15	9000	2	0.743	0.013
323.15	10000	2	0.772	0.016
323.15	11000	2	0.786	0.021
323.15	12000	2	0.797	0.023
323.15	13000	2	0.808	0.013
323.15	15000	2	0.826	0.013
323.15	17000	2	0.843	0.021
323.15	20000	2	0.867	0.017
323.15	23000	2	0.888	0.014
323.15	26000	2	0.908	0.015
323.15	30000	2	0.931	0.018
333.15	3000	2	0.317	0.011
333.15	4000	2	0.393	0.012
333.15	5000	2	0.455	0.019
333.15	6000	2	0.518	0.018
333.15	7000	2	0.57	0.009
333.15	8000	2	0.617	0.01
333.15	9000	2	0.658	0.017
333.15	10000	2	0.696	0.014
333.15	11000	2	0.73	0.014
333.15	12000	2	0.757	0.014
333.15	13000	2	0.769	0.014
333.15	15000	2	0.789	0.019
333.15	17000	2	0.807	0.014
333.15	20000	2	0.836	0.02
333.15	23000	2	0.858	0.013
333.15	26000	2	0.883	0.015
333.15	30000	2	0.905	0.015
343.15	3000	2	0.283	0.017
343.15	4000	2	0.347	0.013
343.15	5000	2	0.407	0.013
343.15	6000	2	0.466	0.019
343.15	7000	2	0.513	0.018
343.15	8000	2	0.558	0.011
343.15	9000	2	0.603	0.015
343.15	10000	2	0.641	0.016
343.15	11000	2	0.67	0.017
343.15	12000	2	0.697	0.017
343.15	13000	2	0.719	0.014
343.15	15000	2	0.751	0.014
343.15	17000	2	0.774	0.014
343.15	20000	2	0.807	0.016
343.15	23000	2	0.837	0.019
343.15	26000	2	0.862	0.013
343.15	30000	2	0.885	0.015
353.15	3000	2	0.255	0.016
353.15	4000	2	0.315	0.02
353.15	5000	2	0.372	0.017
353.15	6000	2	0.425	0.008
353.15	7000	2	0.472	0.019
353.15	8000	2	0.518	0.021
353.15	9000	2	0.562	0.011
353.15	10000	2	0.596	0.014
353.15	11000	2	0.627	0.012
353.15	12000	2	0.657	0.012
353.15	13000	2	0.678	0.013
353.15	15000	2	0.715	0.013
353.15	17000	2	0.747	0.024
353.15	20000	2	0.787	0.016
353.15	23000	2	0.819	0.021
353.15	26000	2	0.845	0.021
353.15	30000	2	0.868	0.017
303.15	3000	3	0.426	0.017
303.15	4000	3	0.53	0.017
303.15	5000	3	0.61	0.019
303.15	6000	3	0.678	0.018
303.15	7000	3	0.72	0.017
313.15	3000	3	0.366	0.014
313.15	4000	3	0.444	0.016
313.15	5000	3	0.52	0.02
313.15	6000	3	0.585	0.023
313.15	7000	3	0.632	0.014
313.15	8000	3	0.673	0.028
313.15	9000	3	0.69	0.019
313.15	10000	3	0.703	0.021
313.15	11000	3	0.713	0.023
313.15	12000	3	0.723	0.017
313.15	13000	3	0.731	0.025
313.15	15000	3	0.745	0.027
313.15	17000	3	0.76	0.024
313.15	20000	3	0.779	0.02
313.15	23000	3	0.8	0.017
313.15	26000	3	0.82	0.018
313.15	30000	3	0.842	0.016
323.15	3000	3	0.32	0.011
323.15	4000	3	0.391	0.018
323.15	5000	3	0.454	0.025
323.15	6000	3	0.507	0.024
323.15	7000	3	0.556	0.017
323.15	8000	3	0.596	0.015
323.15	9000	3	0.631	0.023
323.15	10000	3	0.66	0.025
323.15	11000	3	0.671	0.017
323.15	12000	3	0.683	0.016
323.15	13000	3	0.692	0.015
323.15	15000	3	0.71	0.02
323.15	17000	3	0.723	0.019
323.15	20000	3	0.744	0.019
323.15	23000	3	0.766	0.017
323.15	26000	3	0.782	0.02
323.15	30000	3	0.806	0.015
333.15	3000	3	0.275	0.011
333.15	4000	3	0.335	0.017
333.15	5000	3	0.396	0.011
333.15	6000	3	0.448	0.022
333.15	7000	3	0.493	0.015
333.15	8000	3	0.534	0.013
333.15	9000	3	0.572	0.018
333.15	10000	3	0.601	0.015
333.15	11000	3	0.627	0.019
333.15	12000	3	0.652	0.017
333.15	13000	3	0.663	0.021
333.15	15000	3	0.685	0.018
333.15	17000	3	0.698	0.024
333.15	20000	3	0.717	0.021
333.15	23000	3	0.739	0.016
333.15	26000	3	0.756	0.015
333.15	30000	3	0.782	0.022
343.15	3000	3	0.244	0.008
343.15	4000	3	0.305	0.015
343.15	5000	3	0.356	0.012
343.15	6000	3	0.406	0.018
343.15	7000	3	0.449	0.014
343.15	8000	3	0.487	0.022
343.15	9000	3	0.524	0.024
343.15	10000	3	0.556	0.021
343.15	11000	3	0.581	0.015
343.15	12000	3	0.606	0.019
343.15	13000	3	0.62	0.015
343.15	15000	3	0.652	0.024
343.15	17000	3	0.671	0.029
343.15	20000	3	0.701	0.017
343.15	23000	3	0.724	0.015
343.15	26000	3	0.744	0.018
343.15	30000	3	0.767	0.02
353.15	3000	3	0.214	0.009
353.15	4000	3	0.28	0.01
353.15	5000	3	0.325	0.019
353.15	6000	3	0.375	0.012
353.15	7000	3	0.419	0.019
353.15	8000	3	0.456	0.016
353.15	9000	3	0.492	0.012
353.15	10000	3	0.522	0.019
353.15	11000	3	0.548	0.014
353.15	12000	3	0.572	0.018
353.15	13000	3	0.593	0.023
353.15	15000	3	0.62	0.013
353.15	17000	3	0.648	0.02
353.15	20000	3	0.68	0.018
353.15	23000	3	0.706	0.017
353.15	26000	3	0.727	0.015
353.15	30000	3	0.755	0.02

System: carbon dioxide + water + sodium chloride; phases: Liquid mixture 1, Liquid mixture 2
Fixed: Temperature, K = 303.15
Property: Molality, mol/kg of carbon dioxide (Liquid mixture 1); method: Raman spectroscopy
Pressure, kPa	Solvent: Molality, mol/kg of sodium chloride	Molality, mol/kg of carbon dioxide	uncertainty
7500	0	1.312	0.009
8000	0	1.326	0.01
8500	0	1.334	0.01
9000	0	1.341	0.01
9500	0	1.346	0.01
10000	0	1.354	0.011
10500	0	1.361	0.011
11000	0	1.37	0.011
11500	0	1.376	0.011
12000	0	1.382	0.011
12500	0	1.388	0.012
13000	0	1.394	0.012
13500	0	1.399	0.012
15000	0	1.415	0.012
15500	0	1.42	0.013
17000	0	1.43	0.013
17500	0	1.437	0.013
20000	0	1.456	0.014
21000	0	1.462	0.014
23000	0	1.476	0.014
24000	0	1.482	0.014
26000	0	1.496	0.015
27000	0	1.502	0.015
30000	0	1.519	0.016
8000	1	1.054	0.009
9000	1	1.068	0.009
10000	1	1.083	0.01
11000	1	1.093	0.01
12000	1	1.106	0.01
13000	1	1.119	0.01
15000	1	1.138	0.011
17000	1	1.159	0.011
20000	1	1.188	0.011
23000	1	1.22	0.012
26000	1	1.243	0.012
30000	1	1.277	0.013
8000	2	0.865	0.013
9000	2	0.879	0.013
10000	2	0.89	0.013
11000	2	0.9	0.014
12000	2	0.909	0.014
13000	2	0.917	0.014
15000	2	0.933	0.014
17000	2	0.95	0.014
20000	2	0.971	0.014
23000	2	0.991	0.015
26000	2	1.009	0.015
30000	2	1.032	0.015
8000	3	0.735	0.018
9000	3	0.747	0.018
10000	3	0.757	0.018
11000	3	0.764	0.018
12000	3	0.773	0.018
13000	3	0.784	0.017
15000	3	0.798	0.017
17000	3	0.807	0.018
20000	3	0.831	0.018
23000	3	0.848	0.018
26000	3	0.867	0.018
30000	3	0.891	0.017

System: carbon dioxide + water; phases: Liquid, Gas
Property: Boiling temperature at pressure P, K (Liquid); method: Raman spectroscopy
Molality, mol/kg of carbon dioxide	Pressure, kPa	Boiling temperature at pressure P, K	uncertainty
0.745	3000	303.15	3.53
0.855	3500	303.15	2.48
0.94	4000	303.15	2.77
1.006	4500	303.15	2.46
1.085	5000	303.15	2.16
1.155	5500	303.15	2.24
1.205	6000	303.15	2.3
1.258	6500	303.15	1.66
1.303	7000	303.15	1.54
0.616	3000	313.15	4.23
0.697	3500	313.15	3.9
0.767	4000	313.15	3.81
0.827	4500	313.15	4.21
0.889	5000	313.15	3.33
0.946	5500	313.15	3.08
1.003	6000	313.15	3.17
1.053	6500	313.15	3.09
1.099	7000	313.15	3.54
1.152	7500	313.15	2.99
1.195	8000	313.15	2.78
1.217	8500	313.15	3.81
1.229	9000	313.15	2.35
1.244	9500	313.15	2.34
1.257	10000	313.15	2.57
1.265	10500	313.15	3.8
1.271	11000	313.15	2.19
1.281	11500	313.15	2.45
1.289	12000	313.15	1.81
1.295	12500	313.15	4.06
1.3	13000	313.15	1.67
1.309	13500	313.15	3.62
1.321	15000	313.15	2.1
1.326	15500	313.15	2.9
1.337	17000	313.15	2.95
1.344	17500	313.15	2.97
1.365	20000	313.15	3.16
1.373	21000	313.15	2.56
1.386	23000	313.15	4.89
1.393	24000	313.15	2.39
1.409	26000	313.15	2.51
1.416	27000	313.15	2.95
1.446	30000	313.15	3.53
0.525	3000	323.15	4.69
0.597	3500	323.15	4.1
0.657	4000	323.15	4.13
0.721	4500	323.15	3.98
0.773	5000	323.15	4.98
0.819	5500	323.15	4.08
0.868	6000	323.15	5.55
0.909	6500	323.15	4.6
0.954	7000	323.15	3.99
0.999	7500	323.15	3.97
1.039	8000	323.15	3.79
1.075	8500	323.15	4.03
1.111	9000	323.15	4.29
1.139	9500	323.15	3.82
1.172	10000	323.15	2.79
1.187	10500	323.15	3.76
1.199	11000	323.15	2.79
1.205	11500	323.15	2.18
1.213	12000	323.15	2.94
1.222	12500	323.15	4.13
1.23	13000	323.15	2.75
1.237	13500	323.15	2.32
1.248	15000	323.15	2.43
1.257	15500	323.15	3.99
1.273	17000	323.15	2.44
1.277	17500	323.15	4.85
1.301	20000	323.15	6.03
1.308	21000	323.15	3.54
1.324	23000	323.15	3.91
1.333	24000	323.15	4.22
1.348	26000	323.15	5.25
1.356	27000	323.15	3.78
1.378	30000	323.15	3.57
0.448	3000	333.15	4.63
0.516	3500	333.15	4.7
0.571	4000	333.15	4.95
0.628	4500	333.15	5.49
0.682	5000	333.15	5.12
0.727	5500	333.15	6.12
0.775	6000	333.15	6.25
0.812	6500	333.15	5.88
0.855	7000	333.15	5.99
0.893	7500	333.15	5.5
0.928	8000	333.15	5.29
0.962	8500	333.15	4.87
0.996	9000	333.15	5.1
1.025	9500	333.15	4.77
1.062	10000	333.15	4.54
1.087	10500	333.15	3.93
1.112	11000	333.15	4.19
1.13	11500	333.15	3.84
1.142	12000	333.15	4.3
1.15	12500	333.15	5.11
1.158	13000	333.15	2.68
1.165	13500	333.15	5.55
1.185	15000	333.15	3.53
1.19	15500	333.15	3.96
1.207	17000	333.15	2.24
1.214	17500	333.15	5.26
1.243	20000	333.15	5.42
1.252	21000	333.15	4.73
1.273	23000	333.15	4.29
1.278	24000	333.15	3.68
1.295	26000	333.15	10.17
1.3	27000	333.15	4.69
1.326	30000	333.15	7.54
0.4	3000	343.15	5.63
0.452	3500	343.15	7.06
0.508	4000	343.15	6.12
0.554	4500	343.15	6.92
0.608	5000	343.15	6.13
0.65	5500	343.15	6.58
0.695	6000	343.15	5.15
0.737	6500	343.15	6.17
0.781	7000	343.15	5.74
0.821	7500	343.15	6.54
0.855	8000	343.15	6.98
0.886	8500	343.15	6.85
0.916	9000	343.15	6.28
0.944	9500	343.15	5.76
0.975	10000	343.15	5.29
0.997	10500	343.15	5.68
1.021	11000	343.15	4.95
1.042	11500	343.15	4.35
1.059	12000	343.15	5.11
1.071	12500	343.15	4.15
1.084	13000	343.15	4.36
1.095	13500	343.15	5.05
1.119	15000	343.15	3.72
1.13	15500	343.15	6.92
1.149	17000	343.15	2.79
1.154	17500	343.15	7.31
1.188	20000	343.15	5.43
1.202	21000	343.15	7.22
1.225	23000	343.15	8.42
1.237	24000	343.15	7.46
1.254	26000	343.15	7.27
1.261	27000	343.15	7.86
1.286	30000	343.15	6.36
0.352	3000	353.15	2.7
0.406	3500	353.15	6.5
0.453	4000	353.15	7.28
0.499	4500	353.15	6.52
0.548	5000	353.15	7.88
0.595	5500	353.15	6.68
0.63	6000	353.15	6.56
0.669	6500	353.15	7.02
0.706	7000	353.15	7.25
0.746	7500	353.15	7.37
0.781	8000	353.15	6.22
0.82	8500	353.15	6.82
0.845	9000	353.15	6.62
0.873	9500	353.15	6.12
0.899	10000	353.15	6.1
0.927	10500	353.15	6.59
0.946	11000	353.15	6.78
0.969	11500	353.15	5.78
0.987	12000	353.15	5.68
1.005	12500	353.15	6.71
1.025	13000	353.15	5.65
1.034	13500	353.15	3.66
1.056	15000	353.15	4.17
1.076	15500	353.15	6.9
1.1	17000	353.15	6.13
1.111	17500	353.15	9.84
1.15	20000	353.15	10.53
1.172	21000	353.15	9.28
1.193	23000	353.15	10.65
1.207	24000	353.15	9.55
1.23	26000	353.15	9.52
1.24	27000	353.15	13.14
1.268	30000	353.15	18.91

System: carbon dioxide + water; phases: Liquid mixture 1, Liquid mixture 2
Property: Liquid-liquid equilibrium temperature, K (Liquid mixture 1); method: Raman spectroscopy
Molality, mol/kg of carbon dioxide	Pressure, kPa	Liquid-liquid equilibrium temperature, K	uncertainty
1.312	7500	303.15	0.39
1.326	8000	303.15	0.39
1.334	8500	303.15	0.39
1.341	9000	303.15	0.39
1.346	9500	303.15	0.39
1.354	10000	303.15	0.39
1.361	10500	303.15	0.39
1.37	11000	303.15	0.39
1.376	11500	303.15	0.39
1.382	12000	303.15	0.39
1.388	12500	303.15	0.39
1.394	13000	303.15	0.39
1.399	13500	303.15	0.39
1.415	15000	303.15	0.39
1.42	15500	303.15	0.39
1.43	17000	303.15	0.39
1.437	17500	303.15	0.39
1.456	20000	303.15	0.39
1.462	21000	303.15	0.39
1.476	23000	303.15	0.39
1.482	24000	303.15	0.39
1.496	26000	303.15	0.39
1.502	27000	303.15	0.39
1.519	30000	303.15	0.39
