Measured thermophysical data. Determination and Correlation of Dipyridamole p-Toluene Sulfonate Solubility in Seven Alcohol Solvents and Three Binary Solvents
Source: J. Chem. Eng. Data, 2018, 10.1021/acs.jced.7b00825
Compound 1: dipyridamole p-toluenesulfonate, C38H56N8O10S2, InChI=1S/C24H40N8O4.2C7H8O3S/c33-15-11-31(12-16-34)23-26-20-19(21(27-23)29-7-3-1-4-8-29)25-24(32(13-17-35)14-18-36)28-22(20)30-9-5-2-6-10-30;2*1-6-2-4-7(5-3-6)11(8,9)10/h33-36H,1-18H2;2*2-5H,1H3,(H,8,9,10), purity 99%
Compound 2: methanol, CH4O, InChI=1S/CH4O/c1-2/h2H,1H3, purity 99.5%
Compound 3: ethanol, C2H6O, InChI=1S/C2H6O/c1-2-3/h3H,2H2,1H3, purity 99.5%
Compound 4: propan-1-ol, C3H8O, InChI=1S/C3H8O/c1-2-3-4/h4H,2-3H2,1H3, purity 99.5%
Compound 5: propan-2-ol, C3H8O, InChI=1S/C3H8O/c1-3(2)4/h3-4H,1-2H3, purity 99.5%
Compound 6: butan-1-ol, C4H10O, InChI=1S/C4H10O/c1-2-3-4-5/h5H,2-4H2,1H3, purity 99.5%
Compound 7: 2-methyl-1-propanol, C4H10O, InChI=1S/C4H10O/c1-4(2)3-5/h4-5H,3H2,1-2H3, purity 99.5%
Compound 8: butan-2-ol, C4H10O, InChI=1S/C4H10O/c1-3-4(2)5/h4-5H,3H2,1-2H3, purity 99.5%

System: dipyridamole p-toluenesulfonate + methanol; phases: Liquid, Crystal
Fixed: Pressure, kPa = 100
Property: Mole fraction of dipyridamole p-toluenesulfonate (Liquid); method: gravimetric
Temperature, K	Mole fraction of dipyridamole p-toluenesulfonate	uncertainty
288.15	0.00154	0.000154
293.15	0.001838	0.000185
298.15	0.002404	0.000241
303.15	0.002782	0.000279
308.15	0.003083	0.000309
313.15	0.003729	0.000374
318.15	0.004432	0.000444
323.15	0.005324	0.000534
328.15	0.006511	0.000653

System: dipyridamole p-toluenesulfonate + ethanol; phases: Liquid, Crystal
Fixed: Pressure, kPa = 100
Property: Mole fraction of dipyridamole p-toluenesulfonate (Liquid); method: gravimetric
Temperature, K	Mole fraction of dipyridamole p-toluenesulfonate	uncertainty
288.15	0.00048	4.8e-05
293.15	0.000622	6.2e-05
298.15	0.000738	7.4e-05
303.15	0.000881	8.8e-05
308.15	0.00103	0.000103
313.15	0.001262	0.000126
318.15	0.00138	0.000138
323.15	0.001695	0.00017
328.15	0.001983	0.000199

System: dipyridamole p-toluenesulfonate + propan-1-ol; phases: Liquid, Crystal
Fixed: Pressure, kPa = 100
Property: Mole fraction of dipyridamole p-toluenesulfonate (Liquid); method: gravimetric
Temperature, K	Mole fraction of dipyridamole p-toluenesulfonate	uncertainty
288.15	0.000371	3.7e-05
293.15	0.000419	4.2e-05
298.15	0.000466	4.7e-05
303.15	0.000602	6e-05
308.15	0.000673	6.7e-05
313.15	0.000798	8e-05
318.15	0.000956	9.6e-05
323.15	0.001383	0.000139
328.15	0.001696	0.00017

System: dipyridamole p-toluenesulfonate + propan-2-ol; phases: Liquid, Crystal
Fixed: Pressure, kPa = 100
Property: Mole fraction of dipyridamole p-toluenesulfonate (Liquid); method: gravimetric
Temperature, K	Mole fraction of dipyridamole p-toluenesulfonate	uncertainty
288.15	0.000174	1.8e-05
293.15	0.000218	2.2e-05
298.15	0.000273	2.7e-05
303.15	0.000305	3.1e-05
308.15	0.000369	3.7e-05
313.15	0.000425	4.3e-05
318.15	0.000495	5e-05
323.15	0.000622	6.2e-05
328.15	0.000727	7.3e-05

System: dipyridamole p-toluenesulfonate + butan-1-ol; phases: Liquid, Crystal
Fixed: Pressure, kPa = 100
Property: Mole fraction of dipyridamole p-toluenesulfonate (Liquid); method: gravimetric
Temperature, K	Mole fraction of dipyridamole p-toluenesulfonate	uncertainty
288.15	0.000208	2.1e-05
293.15	0.000232	2.3e-05
298.15	0.00031	3.1e-05
303.15	0.00037	3.7e-05
308.15	0.000437	4.4e-05
313.15	0.000522	5.2e-05
318.15	0.000598	6e-05
323.15	0.000728	7.3e-05
328.15	0.000876	8.8e-05

System: dipyridamole p-toluenesulfonate + 2-methyl-1-propanol; phases: Liquid, Crystal
Fixed: Pressure, kPa = 100
Property: Mole fraction of dipyridamole p-toluenesulfonate (Liquid); method: gravimetric
Temperature, K	Mole fraction of dipyridamole p-toluenesulfonate	uncertainty
288.15	0.000249	2.5e-05
293.15	0.000287	2.9e-05
298.15	0.000334	3.4e-05
303.15	0.000421	4.2e-05
308.15	0.00052	5.2e-05
313.15	0.00059	5.9e-05
318.15	0.000609	6.1e-05
323.15	0.000735	7.4e-05
328.15	0.00084	8.4e-05

System: dipyridamole p-toluenesulfonate + butan-2-ol; phases: Liquid, Crystal
Fixed: Pressure, kPa = 100
Property: Mole fraction of dipyridamole p-toluenesulfonate (Liquid); method: gravimetric
Temperature, K	Mole fraction of dipyridamole p-toluenesulfonate	uncertainty
288.15	0.000122	1.2e-05
293.15	0.000149	1.5e-05
298.15	0.00018	1.8e-05
303.15	0.000231	2.3e-05
308.15	0.000301	3e-05
313.15	0.000384	3.8e-05
318.15	0.000427	4.3e-05
323.15	0.0005	5e-05
328.15	0.000602	6e-05

System: dipyridamole p-toluenesulfonate + methanol + ethanol; phases: Liquid, Crystal
Fixed: Pressure, kPa = 100
Property: Mole fraction of dipyridamole p-toluenesulfonate (Liquid); method: Gravimetric
Temperature, K	Solvent: Mole fraction of methanol	Mole fraction of dipyridamole p-toluenesulfonate	uncertainty
288.15	0.1	0.000573	5.7e-05
288.15	0.2	0.000626	6.3e-05
288.15	0.3	0.000701	7e-05
288.15	0.4	0.000841	8.5e-05
288.15	0.5	0.000892	8.9e-05
288.15	0.6	0.00101	0.000101
288.15	0.7	0.001124	0.000113
288.15	0.8	0.001293	0.00013
288.15	0.9	0.001399	0.00014
288.15	1	0.00154	0.000154
288.15	0	0.00048	4.8e-05
293.15	0	0.000622	6.2e-05
293.15	0.1	0.000673	6.7e-05
293.15	0.2	0.000731	7.3e-05
293.15	0.3	0.000859	8.6e-05
293.15	0.4	0.001014	0.000102
293.15	0.5	0.001059	0.000106
293.15	0.6	0.001208	0.000121
293.15	0.7	0.001382	0.000139
293.15	0.8	0.001503	0.000151
293.15	0.9	0.001622	0.000163
293.15	1	0.001838	0.000185
298.15	0	0.000738	7.4e-05
298.15	0.1	0.00081	8.1e-05
298.15	0.2	0.000902	9.1e-05
298.15	0.3	0.001069	0.000107
298.15	0.4	0.001167	0.000117
298.15	0.5	0.001266	0.000127
298.15	0.6	0.001337	0.000134
298.15	0.7	0.001566	0.000157
298.15	0.8	0.001689	0.000169
298.15	0.9	0.002011	0.000202
298.15	1	0.002404	0.000241
303.15	0	0.000881	8.8e-05
303.15	0.1	0.001008	0.000101
303.15	0.2	0.001138	0.000114
303.15	0.3	0.001265	0.000127
303.15	0.4	0.001342	0.000135
303.15	0.5	0.001424	0.000143
303.15	0.6	0.001535	0.000154
303.15	0.7	0.001752	0.000176
303.15	0.8	0.002026	0.000203
303.15	0.9	0.002308	0.000231
303.15	1	0.002782	0.000279
308.15	0	0.00103	0.000103
308.15	0.1	0.001194	0.00012
308.15	0.2	0.001331	0.000133
308.15	0.3	0.001404	0.000141
308.15	0.4	0.001591	0.000159
308.15	0.5	0.001724	0.000173
308.15	0.6	0.001943	0.000195
308.15	0.7	0.002131	0.000214
308.15	0.8	0.002388	0.000239
308.15	0.9	0.002714	0.000272
308.15	1	0.003083	0.000309
313.15	0	0.001262	0.000126
313.15	0.1	0.001377	0.000138
313.15	0.2	0.00154	0.000154
313.15	0.3	0.001671	0.000167
313.15	0.4	0.001861	0.000186
313.15	0.5	0.002083	0.000209
313.15	0.6	0.002308	0.000231
313.15	0.7	0.002605	0.000261
313.15	0.8	0.002864	0.000287
313.15	0.9	0.003171	0.000318
313.15	1	0.003729	0.000374
318.15	0	0.00138	0.000138
318.15	0.1	0.001528	0.000153
318.15	0.2	0.00175	0.000175
318.15	0.3	0.001936	0.000194
318.15	0.4	0.002138	0.000214
318.15	0.5	0.002309	0.000231
318.15	0.6	0.002607	0.000261
318.15	0.7	0.003028	0.000304
318.15	0.8	0.00342	0.000343
318.15	0.9	0.003967	0.000398
318.15	1	0.004432	0.000444
323.15	0	0.001695	0.00017
323.15	0.1	0.001887	0.000189
323.15	0.2	0.002028	0.000203
323.15	0.3	0.002301	0.000231
323.15	0.4	0.002509	0.000251
323.15	0.5	0.002755	0.000276
323.15	0.6	0.003121	0.000313
323.15	0.7	0.003575	0.000358
323.15	0.8	0.004069	0.000408
323.15	0.9	0.004577	0.000459
323.15	1	0.005324	0.000534
328.15	0	0.001983	0.000199
328.15	0.1	0.002191	0.000219
328.15	0.2	0.002394	0.00024
328.15	0.3	0.00262	0.000262
328.15	0.4	0.002924	0.000293
328.15	0.5	0.003277	0.000329
328.15	0.6	0.003717	0.000373
328.15	0.7	0.004181	0.000419
328.15	0.8	0.004886	0.00049
328.15	0.9	0.005774	0.000579
328.15	1	0.006511	0.000653

System: dipyridamole p-toluenesulfonate + methanol + propan-1-ol; phases: Liquid, Crystal
Fixed: Pressure, kPa = 100
Property: Mole fraction of dipyridamole p-toluenesulfonate (Liquid); method: Gravimetric
Temperature, K	Solvent: Mole fraction of methanol	Mole fraction of dipyridamole p-toluenesulfonate	uncertainty
288.15	0	0.000371	3.7e-05
288.15	0.1	0.000412	4.1e-05
288.15	0.2	0.000429	4.3e-05
288.15	0.3	0.000517	5.2e-05
288.15	0.4	0.000599	6e-05
288.15	0.5	0.000737	7.4e-05
288.15	0.6	0.000887	8.9e-05
288.15	0.7	0.001003	0.000101
288.15	0.8	0.001218	0.000122
288.15	0.9	0.001353	0.000136
288.15	1	0.00154	0.000154
293.15	0	0.000419	4.2e-05
293.15	0.1	0.00046	4.6e-05
293.15	0.2	0.000514	5.2e-05
293.15	0.3	0.00059	5.9e-05
293.15	0.4	0.000703	7.1e-05
293.15	0.5	0.00085	8.5e-05
293.15	0.6	0.00103	0.000103
293.15	0.7	0.001198	0.00012
293.15	0.8	0.001427	0.000143
293.15	0.9	0.001649	0.000165
293.15	1	0.001838	0.000185
298.15	0	0.000466	4.7e-05
298.15	0.1	0.000551	5.5e-05
298.15	0.2	0.00061	6.1e-05
298.15	0.3	0.000713	7.2e-05
298.15	0.4	0.000834	8.4e-05
298.15	0.5	0.001009	0.000101
298.15	0.6	0.001177	0.000118
298.15	0.7	0.001397	0.00014
298.15	0.8	0.001662	0.000167
298.15	0.9	0.001919	0.000192
298.15	1	0.002404	0.000241
303.15	0	0.000602	6e-05
303.15	0.1	0.000622	6.2e-05
303.15	0.2	0.000708	7.1e-05
303.15	0.3	0.000847	8.5e-05
303.15	0.4	0.000993	0.0001
303.15	0.5	0.001214	0.000122
303.15	0.6	0.001392	0.00014
303.15	0.7	0.001633	0.000164
303.15	0.8	0.001972	0.000198
303.15	0.9	0.002296	0.00023
303.15	1	0.002782	0.000279
308.15	0	0.000673	6.7e-05
308.15	0.1	0.000755	7.6e-05
308.15	0.2	0.000851	8.5e-05
308.15	0.3	0.001038	0.000104
308.15	0.4	0.001162	0.000117
308.15	0.5	0.001372	0.000138
308.15	0.6	0.001646	0.000165
308.15	0.7	0.00193	0.000194
308.15	0.8	0.002303	0.000231
308.15	0.9	0.002706	0.000271
308.15	1	0.003083	0.000309
313.15	0	0.000798	8e-05
313.15	0.1	0.000928	9.3e-05
313.15	0.2	0.001071	0.000108
313.15	0.3	0.001231	0.000124
313.15	0.4	0.001436	0.000144
313.15	0.5	0.00167	0.000168
313.15	0.6	0.001956	0.000196
313.15	0.7	0.002247	0.000225
313.15	0.8	0.002708	0.000272
313.15	0.9	0.003139	0.000315
313.15	1	0.003729	0.000374
318.15	0	0.000956	9.6e-05
318.15	0.1	0.001102	0.000111
318.15	0.2	0.001307	0.000131
318.15	0.3	0.001546	0.000155
318.15	0.4	0.001726	0.000173
318.15	0.5	0.002001	0.000201
318.15	0.6	0.002293	0.000231
318.15	0.7	0.002763	0.000278
318.15	0.8	0.00329	0.00033
318.15	0.9	0.003875	0.000389
318.15	1	0.004432	0.000444
323.15	0	0.001383	0.000139
323.15	0.1	0.001446	0.000145
323.15	0.2	0.001593	0.00016
323.15	0.3	0.001827	0.000183
323.15	0.4	0.002134	0.000214
323.15	0.5	0.002528	0.000254
323.15	0.6	0.003033	0.000305
323.15	0.7	0.003525	0.000354
323.15	0.8	0.004177	0.00042
323.15	0.9	0.004856	0.000488
323.15	1	0.005324	0.000534
328.15	0	0.001696	0.00017
328.15	0.1	0.001698	0.00017
328.15	0.2	0.001885	0.000189
328.15	0.3	0.002076	0.000208
328.15	0.4	0.002491	0.00025
328.15	0.5	0.002952	0.000296
328.15	0.6	0.003509	0.000352
328.15	0.7	0.004204	0.000422
328.15	0.8	0.005183	0.00052
328.15	0.9	0.00602	0.000604
328.15	1	0.006511	0.000653

System: dipyridamole p-toluenesulfonate + methanol + butan-1-ol; phases: Liquid, Crystal
Fixed: Pressure, kPa = 100
Property: Mole fraction of dipyridamole p-toluenesulfonate (Liquid); method: Gravimetric
Temperature, K	Solvent: Mole fraction of methanol	Mole fraction of dipyridamole p-toluenesulfonate	uncertainty
288.15	0	0.000208	6.2e-05
288.15	0.1	0.000301	9e-05
288.15	0.2	0.000423	0.000127
288.15	0.3	0.000504	0.000151
288.15	0.4	0.000652	0.000196
288.15	0.5	0.000771	0.000231
288.15	0.6	0.000907	0.000272
288.15	0.7	0.001107	0.000332
288.15	0.8	0.001315	0.000395
288.15	0.9	0.00144	0.000432
288.15	1	0.00154	0.000462
293.15	0	0.000232	7e-05
293.15	0.1	0.00045	0.000135
293.15	0.2	0.000556	0.000167
293.15	0.3	0.000653	0.000196
293.15	0.4	0.000818	0.000246
293.15	0.5	0.000938	0.000282
293.15	0.6	0.001121	0.000336
293.15	0.7	0.001309	0.000393
293.15	0.8	0.001555	0.000467
293.15	0.9	0.001703	0.000511
293.15	1	0.001838	0.000552
298.15	0	0.00031	9.3e-05
298.15	0.1	0.000536	0.000161
298.15	0.2	0.000689	0.000207
298.15	0.3	0.000813	0.000244
298.15	0.4	0.000956	0.000287
298.15	0.5	0.001143	0.000343
298.15	0.6	0.001323	0.000397
298.15	0.7	0.001612	0.000484
298.15	0.8	0.001912	0.000574
298.15	0.9	0.002111	0.000633
298.15	1	0.002404	0.000721
303.15	0	0.00037	0.000111
303.15	0.1	0.000679	0.000204
303.15	0.2	0.000726	0.000218
303.15	0.3	0.000992	0.000298
303.15	0.4	0.00119	0.000357
303.15	0.5	0.001318	0.000395
303.15	0.6	0.001517	0.000455
303.15	0.7	0.001875	0.000563
303.15	0.8	0.002187	0.000656
303.15	0.9	0.002393	0.000718
303.15	1	0.002782	0.000835
308.15	0	0.000437	0.000131
308.15	0.1	0.000707	0.000212
308.15	0.2	0.00081	0.000243
308.15	0.3	0.001029	0.000309
308.15	0.4	0.001275	0.000383
308.15	0.5	0.001435	0.000431
308.15	0.6	0.001668	0.000501
308.15	0.7	0.002076	0.000623
308.15	0.8	0.002432	0.00073
308.15	0.9	0.002771	0.000832
308.15	1	0.003083	0.000925
313.15	0	0.000522	0.000157
313.15	0.1	0.000792	0.000238
313.15	0.2	0.000879	0.000264
313.15	0.3	0.001139	0.000342
313.15	0.4	0.001397	0.000419
313.15	0.5	0.001566	0.00047
313.15	0.6	0.001876	0.000563
313.15	0.7	0.002322	0.000697
313.15	0.8	0.002861	0.000859
313.15	0.9	0.003273	0.000982
313.15	1	0.003729	0.001119
318.15	0	0.000598	0.000179
318.15	0.1	0.000851	0.000255
318.15	0.2	0.001071	0.000321
318.15	0.3	0.0013	0.00039
318.15	0.4	0.001505	0.000452
318.15	0.5	0.001786	0.000536
318.15	0.6	0.0022	0.00066
318.15	0.7	0.002732	0.00082
318.15	0.8	0.003359	0.001008
318.15	0.9	0.003835	0.001151
318.15	1	0.004432	0.00133
323.15	0	0.000728	0.000218
323.15	0.1	0.000969	0.000291
323.15	0.2	0.001196	0.000359
323.15	0.3	0.001495	0.000449
323.15	0.4	0.001739	0.000522
323.15	0.5	0.002071	0.000622
323.15	0.6	0.002568	0.000771
323.15	0.7	0.003173	0.000952
323.15	0.8	0.003808	0.001143
323.15	0.9	0.004413	0.001324
323.15	1	0.005324	0.001598
328.15	0	0.000876	0.000263
328.15	0.1	0.001182	0.000355
328.15	0.2	0.001338	0.000402
328.15	0.3	0.001681	0.000504
328.15	0.4	0.00201	0.000603
328.15	0.5	0.002492	0.000748
328.15	0.6	0.002933	0.00088
328.15	0.7	0.003668	0.001101
328.15	0.8	0.00453	0.001359
328.15	0.9	0.005601	0.001681
328.15	1	0.006511	0.001954
