Measured thermophysical data. Synthesis and Characterization of Diethyl Citrate and Phase Equilibria in Mixtures with Ethanol and Water
Source: J. Chem. Eng. Data, 2018, 10.1021/acs.jced.7b01060
Compound 1: ethanol, C2H6O, InChI=1S/C2H6O/c1-2-3/h3H,2H2,1H3
Compound 2: triethyl citrate, C12H20O7, InChI=1S/C12H20O7/c1-4-17-9(13)7-12(16,11(15)19-6-3)8-10(14)18-5-2/h16H,4-8H2,1-3H3, purity 95%

System: triethyl citrate + ethanol; phases: Liquid, Gas
Fixed: Temperature, K = 313
Property: Vapor or sublimation pressure, kPa (Liquid); method: Ebulliometric method (Recirculating still)
Mole fraction of triethyl citrate	Vapor or sublimation pressure, kPa	uncertainty
0.905	2.84	0.08
0.784	6.29	0.15
0.742	7.29	0.17
0.698	8.28	0.19
0.649	8.83	0.2
0.578	9.92	0.22
0.551	10.36	0.23
0.539	10.73	0.24
0.506	11.11	0.25
0.493	11.72	0.26
0.345	13.77	0.3
0.299	14.04	0.31
0.307	14.04	0.31
0.282	14.48	0.32
0.246	14.77	0.32
0.186	15.43	0.33
0.201	15.43	0.33
0.181	15.57	0.34
0.149	15.71	0.34
0.159	15.71	0.34
0.074	16.47	0.35
0.04	16.88	0.36
0.041	16.89	0.36
