Measured thermophysical data. Compressed Liquid Density and Vapor Phase PvT Measurements of cis-1,2,3,3,3-Pentafluoroprop-1-ene (R1225ye(Z))
Source: J. Chem. Eng. Data, 2015, 10.1021/acs.jced.5b00562
Compound 1: (Z)-1,2,3,3,3-pentafluoro-1-propene, C3HF5, InChI=1S/C3HF5/c4-1-2(5)3(6,7)8/h1H/b2-1-, purity 97%

System: (Z)-1,2,3,3,3-pentafluoro-1-propene; phases: Liquid
Property: Mass density, kg/m3 (Liquid); method: Vibrating tube method
Temperature, K	Pressure, kPa	Mass density, kg/m3	uncertainty
283.16	35004	1442.4	2.5
283.16	32498	1436.2	2.4
283.16	29999	1430.3	2.4
283.16	27503	1423.9	2.3
283.15	25000	1417	2.2
283.15	22497	1409.9	2.2
283.15	20001	1402.5	2.1
283.15	17501	1395	2
283.15	15001	1387	2
283.14	12501	1378.7	1.9
283.15	9998	1369.8	1.9
283.15	7499	1360.3	1.8
283.15	5000	1350.2	1.8
283.15	2500	1339.1	1.7
283.15	1997	1336.8	1.7
283.15	1499	1334.5	1.7
283.15	1003	1332	1.7
283.15	604	1330.1	1.7
283.15	510	1329.6	1.7
293.15	34999	1418.5	2.4
293.15	32500	1412	2.3
293.15	30000	1405.4	2.3
293.15	27499	1398.5	2.2
293.15	25000	1391.4	2.1
293.15	22500	1383.9	2.1
293.15	20000	1376	2
293.15	17500	1367.8	1.9
293.15	14999	1359	1.9
293.15	12500	1349.7	1.8
293.15	10001	1339.8	1.8
293.15	7500	1329	1.7
293.15	5000	1317.4	1.7
293.15	2500	1304.6	1.6
293.15	2000	1301.9	1.6
293.15	1500	1299.1	1.6
293.15	1000	1296.2	1.6
293.15	598	1293.9	1.6
293.15	470	1293.2	1.6
323.15	35001	1347.7	2.1
323.15	32501	1340	2
323.15	30001	1331.8	2
323.15	27500	1323.2	1.9
323.15	25001	1314.1	1.9
323.15	22500	1304.4	1.8
323.15	19999	1294	1.8
323.15	17499	1282.9	1.7
323.15	15000	1270.8	1.7
323.15	12499	1257.6	1.6
323.15	10001	1243.3	1.6
323.15	7500	1226.8	1.5
323.16	4998	1207.9	1.5
323.16	2502	1185.5	1.4
323.16	2000	1180.3	1.4
323.16	1499	1175.1	1.4
323.15	1296	1172.9	1.4
333.15	35000	1326.3	2
333.15	32500	1317.8	2
333.15	29999	1308.2	1.9
333.15	27500	1298.8	1.9
333.15	25003	1288.8	1.8
333.15	22500	1278.1	1.8
333.15	20000	1266.6	1.7
333.15	17500	1255	1.7
333.15	15000	1240.4	1.6
333.15	12500	1225.4	1.5
333.15	10000	1208.6	1.5
333.15	7500	1189.4	1.4
333.15	5000	1166.8	1.4
333.15	2500	1138.6	1.3
333.15	1999	1132	1.3
333.15	1502	1124.9	1.3
303.16	35000	1395.6	2.3
303.16	32500	1388.8	2.2
303.16	30000	1381.8	2.2
303.15	27500	1374.4	2.1
303.15	24999	1366	2
303.15	22501	1357.8	2
303.15	20000	1349.2	1.9
303.16	17500	1340.2	1.9
303.16	14996	1330.5	1.8
303.15	12500	1320.1	1.8
303.15	9999	1308.8	1.7
303.15	7500	1296.6	1.7
303.16	5000	1283.2	1.6
303.16	2499	1267.8	1.6
303.15	2000	1264.3	1.6
303.15	1500	1260.9	1.5
303.15	1000	1257.4	1.5
303.15	700	1255.3	1.5
313.15	35000	1371	2.2
313.15	32500	1363.7	2.1
313.15	30001	1356.1	2.1
313.15	27500	1348.1	2
313.15	25000	1339.7	1.9
313.15	22500	1330.8	1.9
313.15	20000	1321.4	1.8
313.15	17497	1311.3	1.8
313.15	15000	1300.5	1.7
313.15	12501	1288.9	1.7
313.14	10000	1276.1	1.6
313.14	7500	1262.1	1.6
313.15	5000	1246.4	1.5
313.16	2501	1228.3	1.5
313.15	2008	1224.6	1.5
313.15	1500	1220.4	1.5
313.15	1000	1216.2	1.5
343.15	35000	1302.5	1.9
343.15	32500	1293.3	1.9
343.15	30000	1283.5	1.8
343.15	27500	1273.2	1.8
343.16	25000	1262.3	1.7
343.15	22500	1250.3	1.7
343.15	20000	1237.6	1.6
343.15	17500	1223.8	1.6
343.15	15000	1208.5	1.5
343.15	12500	1191.5	1.5
343.15	10001	1172	1.4
343.15	7500	1149.2	1.4
343.15	5001	1121.1	1.3
343.15	2500	1083.8	1.3
343.15	2000	1074.1	1.3
343.15	1800	1070	1.2
353.16	35001	1279.2	1.9
353.15	32502	1269.4	1.8
353.15	30000	1259	1.8
353.15	27500	1247.9	1.7
353.15	25000	1235.9	1.7
353.15	22500	1223	1.6
353.14	20000	1209	1.6
353.15	17500	1193.5	1.5
353.15	15000	1176.3	1.5
353.15	12500	1156.8	1.4
353.15	10000	1134	1.4
353.15	7500	1106.5	1.3
353.15	5000	1070.7	1.2
353.16	2500	1016.9	1.2

System: (Z)-1,2,3,3,3-pentafluoro-1-propene; phases: Gas
Property: Specific volume, m3/kg (Gas); method: ISOCHOR
Temperature, K	Pressure, kPa	Specific volume, m3/kg	uncertainty
263.15	135.2	0.115	0.005
268.15	138.3	0.115	0.005
273.14	141.3	0.116	0.005
278.15	144.3	0.116	0.005
283.16	147.3	0.116	0.005
288.15	150.2	0.116	0.005
293.15	152.7	0.116	0.005
298.15	155.7	0.116	0.005
303.15	158.7	0.116	0.005
308.14	161.7	0.116	0.005
313.15	164.2	0.116	0.005
318.15	166.8	0.116	0.005
323.15	169.7	0.116	0.005
323.15	169.7	0.116	0.005
328.15	172.6	0.116	0.005
333.15	174.9	0.116	0.005
338.15	177.9	0.116	0.005
343.15	181	0.116	0.005
348.15	183.8	0.116	0.005
353.15	186.6	0.116	0.005
358.15	189.5	0.116	0.005
363.16	192.3	0.116	0.005
368.15	194.3	0.116	0.005
273.15	202.4	0.079	0.005
278.15	207	0.079	0.005
283.15	211.5	0.079	0.005
288.15	215.6	0.079	0.005
293.15	220	0.079	0.005
298.15	224.3	0.079	0.005
303.15	228.2	0.079	0.005
308.15	232.8	0.079	0.005
312.86	236.9	0.079	0.005
318.15	241.3	0.079	0.005
323.15	245.6	0.079	0.005
328.15	249.7	0.079	0.005
333.15	253.9	0.079	0.005
338.15	257.7	0.079	0.005
343.15	262.4	0.079	0.005
297.14	418.9	0.04	0.005
303.15	430	0.04	0.005
308.15	439	0.04	0.005
313.15	447.9	0.04	0.005
318.15	457	0.04	0.005
323.16	466.1	0.04	0.005
328.15	475.1	0.04	0.005
333.15	483.9	0.04	0.005
338.15	492.8	0.04	0.005
343.15	501.5	0.04	0.005
348.15	510.2	0.04	0.005
353.15	518.9	0.04	0.005
358.15	527.6	0.04	0.005
363.16	536.1	0.04	0.005
368.15	544.7	0.04	0.005
298.15	498.5	0.032	0.005
303.14	510.2	0.032	0.005
308.12	522.1	0.032	0.005
313.13	533.4	0.032	0.005
318.23	544.9	0.033	0.005
323.14	555.9	0.033	0.005
328.07	566.8	0.033	0.005
333.1	578.2	0.033	0.005
338.08	589.4	0.033	0.005
343.08	600.4	0.033	0.005
348.06	611.4	0.033	0.005
353.11	622.8	0.033	0.005
358.17	633.7	0.033	0.005
363.14	644.4	0.033	0.005
368.16	655.3	0.033	0.005
348.15	266.6	0.079	0.005
353.15	270.7	0.079	0.005
358.15	274.5	0.079	0.005
363.14	278.7	0.079	0.005
368.16	282.9	0.079	0.005
282.83	301.1	0.054	0.005
287.91	307.5	0.054	0.005
292.78	314.1	0.054	0.005
298.47	320.7	0.054	0.005
303.14	327	0.054	0.005
308.15	333.9	0.054	0.005
313.16	340.4	0.054	0.005
318.14	346.9	0.054	0.005
323.14	353.4	0.054	0.005
328.11	360.1	0.054	0.005
333.1	365.4	0.054	0.005
338.14	371.5	0.054	0.005
343.09	377.8	0.054	0.005
348.07	383.7	0.054	0.005
353.05	390.1	0.054	0.005
358.11	397.3	0.054	0.005
363.29	404	0.054	0.005
368.03	409.8	0.054	0.005
308.14	612.3	0.027	0.005
313.14	627	0.027	0.005
318.14	641.3	0.027	0.005
323.14	655.2	0.027	0.005
328.14	669.2	0.027	0.005
333.13	682.7	0.027	0.005
338.08	696.3	0.027	0.005
343.13	710	0.027	0.005
348.14	723.7	0.027	0.005
353.13	737.3	0.027	0.005
358.15	750.7	0.027	0.005
363.13	764	0.027	0.005
368.1	777.4	0.027	0.005
