Measured thermophysical data. Determination and Correlation of the Solubility for Berberine Chloride in Pure Imidazolium-Based Ionic Liquids
Source: J. Chem. Eng. Data, 2016, 10.1021/acs.jced.5b01017
Compound 1: 1-butyl-3-methylimidazolium nitrate, C8H15N3O3, InChI=1S/C8H15N2.NO3/c1-3-4-5-10-7-6-9(2)8-10;2-1(3)4/h6-8H,3-5H2,1-2H3;/q+1;-1
Compound 2: 1-hexyl-3-methylimidazolium nitrate, C10H19N3O3, InChI=1S/C10H19N2.NO3/c1-3-4-5-6-7-12-9-8-11(2)10-12;2-1(3)4/h8-10H,3-7H2,1-2H3;/q+1;-1
Compound 3: 1-methyl-3-octylimidazolium nitrate, C12H23N3O3, InChI=1S/C12H23N2.NO3/c1-3-4-5-6-7-8-9-14-11-10-13(2)12-14;2-1(3)4/h10-12H,3-9H2,1-2H3;/q+1;-1
Compound 4: 1-ethyl-3-methylimidazolium tetrafluoroborate, C6H11BF4N2, InChI=1S/C6H11N2.BF4/c1-3-8-5-4-7(2)6-8;2-1(3,4)5/h4-6H,3H2,1-2H3;/q+1;-1
Compound 5: 1-butyl-3-methylimidazolium tetrafluoroborate, C8H15BF4N2, InChI=1S/C8H15N2.BF4/c1-3-4-5-10-7-6-9(2)8-10;2-1(3,4)5/h6-8H,3-5H2,1-2H3;/q+1;-1
Compound 6: 1-hexyl-3-methylimidazolium tetrafluoroborate, C10H19BF4N2, InChI=1S/C10H19N2.BF4/c1-3-4-5-6-7-12-9-8-11(2)10-12;2-1(3,4)5/h8-10H,3-7H2,1-2H3;/q+1;-1
Compound 7: 1-methyl-3-octylimidazolium tetrafluoroborate, C12H23BF4N2, InChI=1S/C12H23N2.BF4/c1-3-4-5-6-7-8-9-14-11-10-13(2)12-14;2-1(3,4)5/h10-12H,3-9H2,1-2H3;/q+1;-1
Compound 8: 1-butyl-3-methylimidazolium hexafluorophosphate, C8H15F6N2P, InChI=1S/C8H15N2.F6P/c1-3-4-5-10-7-6-9(2)8-10;1-7(2,3,4,5)6/h6-8H,3-5H2,1-2H3;/q+1;-1
Compound 9: 1-hexyl-3-methylimidazolium hexafluorophosphate, C10H19F6N2P, InChI=1S/C10H19N2.F6P/c1-3-4-5-6-7-12-9-8-11(2)10-12;1-7(2,3,4,5)6/h8-10H,3-7H2,1-2H3;/q+1;-1
Compound 10: 1-octyl-3-methylimidazolium hexafluorophosphate, C12H23F6N2P, InChI=1S/C12H23N2.F6P/c1-3-4-5-6-7-8-9-14-11-10-13(2)12-14;1-7(2,3,4,5)6/h10-12H,3-9H2,1-2H3;/q+1;-1
Compound 11: 1-butyl-3-methylimidazolium bis(trifluoromethylsulfonyl)imide, C10H15F6N3O4S2, InChI=1S/C8H15N2.C2F6NO4S2/c1-3-4-5-10-7-6-9(2)8-10;3-1(4,5)14(10,11)9-15(12,13)2(6,7)8/h6-8H,3-5H2,1-2H3;/q+1;-1
Compound 12: 1-hexyl-3-methylimidazolium bis[(trifluoromethyl)sulfonyl]imide, C12H19F6N3O4S2, InChI=1S/C10H19N2.C2F6NO4S2/c1-3-4-5-6-7-12-9-8-11(2)10-12;3-1(4,5)14(10,11)9-15(12,13)2(6,7)8/h8-10H,3-7H2,1-2H3;/q+1;-1
Compound 13: 1-octyl-3-methylimidazolium bis[(trifluoromethyl)sulfonyl]imide, C14H23F6N3O4S2, InChI=1S/C12H23N2.C2F6NO4S2/c1-3-4-5-6-7-8-9-14-11-10-13(2)12-14;3-1(4,5)14(10,11)9-15(12,13)2(6,7)8/h10-12H,3-9H2,1-2H3;/q+1;-1
Compound 14: 9,10-dimethoxy-5,6-dihydro[1,3]dioxolo[4,5-g]isoquino[3,2-a]isoquinolinium chloride, C20H18ClNO4, InChI=1S/C20H18NO4.ClH/c1-22-17-4-3-12-7-16-14-9-19-18(24-11-25-19)8-13(14)5-6-21(16)10-15(12)20(17)23-2;/h3-4,7-10H,5-6,11H2,1-2H3;1H/q+1;/p-1, purity 98%

System: 9,10-dimethoxy-5,6-dihydro[1,3]dioxolo[4,5-g]isoquino[3,2-a]isoquinolinium chloride + 1-ethyl-3-methylimidazolium tetrafluoroborate; phases: Liquid, Crystal
Fixed: Pressure, kPa = 100
Property: Mole fraction of 9,10-dimethoxy-5,6-dihydro[1,3]dioxolo[4,5-g]isoquino[3,2-a]isoquinolinium chloride (Liquid); method: Visual
Temperature, K	Mole fraction of 9,10-dimethoxy-5,6-dihydro[1,3]dioxolo[4,5-g]isoquino[3,2-a]isoquinolinium chloride	uncertainty
327.55	0.00022611	3.168e-05
337.15	0.00032869	4.604e-05
343.95	0.00043306	6.065e-05
351.35	0.00054467	7.629e-05
354.85	0.00064628	9.053e-05
359.25	0.00075875	0.00010627

System: 9,10-dimethoxy-5,6-dihydro[1,3]dioxolo[4,5-g]isoquino[3,2-a]isoquinolinium chloride + 1-butyl-3-methylimidazolium tetrafluoroborate; phases: Liquid, Crystal
Fixed: Pressure, kPa = 100
Property: Mole fraction of 9,10-dimethoxy-5,6-dihydro[1,3]dioxolo[4,5-g]isoquino[3,2-a]isoquinolinium chloride (Liquid); method: Visual
Temperature, K	Mole fraction of 9,10-dimethoxy-5,6-dihydro[1,3]dioxolo[4,5-g]isoquino[3,2-a]isoquinolinium chloride	uncertainty
299.45	0.00012908	1.808e-05
323.95	0.00026448	3.704e-05
335.45	0.00038186	5.348e-05
342.05	0.00048759	6.83e-05
350.35	0.00069898	9.79e-05
355.35	0.0008226	0.00011521
358.55	0.00093775	0.00013135

System: 9,10-dimethoxy-5,6-dihydro[1,3]dioxolo[4,5-g]isoquino[3,2-a]isoquinolinium chloride + 1-hexyl-3-methylimidazolium tetrafluoroborate; phases: Liquid, Crystal
Fixed: Pressure, kPa = 100
Property: Mole fraction of 9,10-dimethoxy-5,6-dihydro[1,3]dioxolo[4,5-g]isoquino[3,2-a]isoquinolinium chloride (Liquid); method: Visual
Temperature, K	Mole fraction of 9,10-dimethoxy-5,6-dihydro[1,3]dioxolo[4,5-g]isoquino[3,2-a]isoquinolinium chloride	uncertainty
322.55	0.00023081	3.232e-05
328.95	0.00027174	3.806e-05
334.25	0.0003294	4.614e-05
339.35	0.00040013	5.604e-05
346.55	0.00046431	6.502e-05
349.55	0.00053562	7.504e-05
352.95	0.00062057	8.694e-05
355.35	0.00071383	0.00010002

System: 9,10-dimethoxy-5,6-dihydro[1,3]dioxolo[4,5-g]isoquino[3,2-a]isoquinolinium chloride + 1-methyl-3-octylimidazolium tetrafluoroborate; phases: Liquid, Crystal
Fixed: Pressure, kPa = 100
Property: Mole fraction of 9,10-dimethoxy-5,6-dihydro[1,3]dioxolo[4,5-g]isoquino[3,2-a]isoquinolinium chloride (Liquid); method: Visual
Temperature, K	Mole fraction of 9,10-dimethoxy-5,6-dihydro[1,3]dioxolo[4,5-g]isoquino[3,2-a]isoquinolinium chloride	uncertainty
326.45	0.00025503	3.573e-05
332.45	0.0003306	4.631e-05
336.55	0.0004125	5.779e-05
340.95	0.00048875	6.846e-05
345.15	0.00058828	8.24e-05
349.65	0.00069555	9.742e-05
353.55	0.00080703	0.00011304
355.85	0.0008945	0.00012529
359.35	0.00099677	0.00013959

System: 9,10-dimethoxy-5,6-dihydro[1,3]dioxolo[4,5-g]isoquino[3,2-a]isoquinolinium chloride + 1-butyl-3-methylimidazolium nitrate; phases: Liquid, Crystal
Fixed: Pressure, kPa = 100
Property: Mole fraction of 9,10-dimethoxy-5,6-dihydro[1,3]dioxolo[4,5-g]isoquino[3,2-a]isoquinolinium chloride (Liquid); method: Visual
Temperature, K	Mole fraction of 9,10-dimethoxy-5,6-dihydro[1,3]dioxolo[4,5-g]isoquino[3,2-a]isoquinolinium chloride	uncertainty
313.75	0.00088343	0.00012372
317.85	0.00098077	0.00013735
322.95	0.00112299	0.00015727
326.25	0.0012577	0.00017614
330.55	0.00142322	0.00019932
334.35	0.00162327	0.00022735
338.95	0.00189703	0.00026568
341.95	0.00208195	0.00029159
347.15	0.00244972	0.00034308
351.75	0.0027967	0.00039169
355.15	0.00317885	0.00044523

System: 9,10-dimethoxy-5,6-dihydro[1,3]dioxolo[4,5-g]isoquino[3,2-a]isoquinolinium chloride + 1-hexyl-3-methylimidazolium nitrate; phases: Liquid, Crystal
Fixed: Pressure, kPa = 100
Property: Mole fraction of 9,10-dimethoxy-5,6-dihydro[1,3]dioxolo[4,5-g]isoquino[3,2-a]isoquinolinium chloride (Liquid); method: Visual
Temperature, K	Mole fraction of 9,10-dimethoxy-5,6-dihydro[1,3]dioxolo[4,5-g]isoquino[3,2-a]isoquinolinium chloride	uncertainty
328.75	0.00132708	0.00018585
331.85	0.00144413	0.00020225
334.95	0.00159229	0.00022301
337.55	0.00173718	0.00024331
341.15	0.00197428	0.0002765
345.55	0.00222842	0.00031208
349.35	0.00249315	0.00034916
352.95	0.0027813	0.0003896
356.95	0.00329934	0.00046214

System: 9,10-dimethoxy-5,6-dihydro[1,3]dioxolo[4,5-g]isoquino[3,2-a]isoquinolinium chloride + 1-methyl-3-octylimidazolium nitrate; phases: Liquid, Crystal
Fixed: Pressure, kPa = 100
Property: Mole fraction of 9,10-dimethoxy-5,6-dihydro[1,3]dioxolo[4,5-g]isoquino[3,2-a]isoquinolinium chloride (Liquid); method: Visual
Temperature, K	Mole fraction of 9,10-dimethoxy-5,6-dihydro[1,3]dioxolo[4,5-g]isoquino[3,2-a]isoquinolinium chloride	uncertainty
302.35	0.00051967	7.281e-05
319.35	0.00095094	0.00013317
325.25	0.00111479	0.00015613
330.55	0.00135335	0.00018954
336.95	0.00162501	0.00022758
340.75	0.00185621	0.00025997
344.95	0.00212641	0.00029781
348.65	0.00238461	0.00033396
352.55	0.00266873	0.00037374
355.75	0.00293375	0.00041086

System: 9,10-dimethoxy-5,6-dihydro[1,3]dioxolo[4,5-g]isoquino[3,2-a]isoquinolinium chloride + 1-butyl-3-methylimidazolium hexafluorophosphate; phases: Liquid, Crystal
Fixed: Pressure, kPa = 100
Property: Mole fraction of 9,10-dimethoxy-5,6-dihydro[1,3]dioxolo[4,5-g]isoquino[3,2-a]isoquinolinium chloride (Liquid); method: Visual
Temperature, K	Mole fraction of 9,10-dimethoxy-5,6-dihydro[1,3]dioxolo[4,5-g]isoquino[3,2-a]isoquinolinium chloride	uncertainty
306.45	0.00022716	3.182e-05
315.85	0.00029829	4.178e-05
320.25	0.00036746	5.146e-05
327.65	0.00043857	6.142e-05
331.95	0.00050445	7.065e-05

System: 9,10-dimethoxy-5,6-dihydro[1,3]dioxolo[4,5-g]isoquino[3,2-a]isoquinolinium chloride + 1-hexyl-3-methylimidazolium hexafluorophosphate; phases: Liquid, Crystal
Fixed: Pressure, kPa = 100
Property: Mole fraction of 9,10-dimethoxy-5,6-dihydro[1,3]dioxolo[4,5-g]isoquino[3,2-a]isoquinolinium chloride (Liquid); method: Visual
Temperature, K	Mole fraction of 9,10-dimethoxy-5,6-dihydro[1,3]dioxolo[4,5-g]isoquino[3,2-a]isoquinolinium chloride	uncertainty
299.75	0.00015932	2.232e-05
312.35	0.00025734	3.604e-05
321.75	0.00033574	4.702e-05
328.55	0.00043372	6.075e-05
333.75	0.00053087	7.435e-05

System: 9,10-dimethoxy-5,6-dihydro[1,3]dioxolo[4,5-g]isoquino[3,2-a]isoquinolinium chloride + 1-octyl-3-methylimidazolium hexafluorophosphate; phases: Liquid, Crystal
Fixed: Pressure, kPa = 100
Property: Mole fraction of 9,10-dimethoxy-5,6-dihydro[1,3]dioxolo[4,5-g]isoquino[3,2-a]isoquinolinium chloride (Liquid); method: Visual
Temperature, K	Mole fraction of 9,10-dimethoxy-5,6-dihydro[1,3]dioxolo[4,5-g]isoquino[3,2-a]isoquinolinium chloride	uncertainty
301.65	0.00014067	1.972e-05
312.35	0.00024554	3.439e-05
322.35	0.00033088	4.634e-05
336.05	0.00053239	7.456e-05
340.95	0.00064855	9.083e-05
348.15	0.00078986	0.00011061

System: 9,10-dimethoxy-5,6-dihydro[1,3]dioxolo[4,5-g]isoquino[3,2-a]isoquinolinium chloride + 1-butyl-3-methylimidazolium bis(trifluoromethylsulfonyl)imide; phases: Liquid, Crystal
Fixed: Pressure, kPa = 100
Property: Mole fraction of 9,10-dimethoxy-5,6-dihydro[1,3]dioxolo[4,5-g]isoquino[3,2-a]isoquinolinium chloride (Liquid); method: Visual
Temperature, K	Mole fraction of 9,10-dimethoxy-5,6-dihydro[1,3]dioxolo[4,5-g]isoquino[3,2-a]isoquinolinium chloride	uncertainty
321.95	0.00255164	0.00035756
333.55	0.00421376	0.00059053
335.55	0.00471901	0.00066141
337.75	0.00545947	0.0007649
341.75	0.00644139	0.00090235
343.95	0.00727395	0.00101908
347.15	0.00835584	0.00117063
348.95	0.00930667	0.00130389
351.35	0.0102901	0.0014414
354.55	0.0116127	0.0016265

System: 9,10-dimethoxy-5,6-dihydro[1,3]dioxolo[4,5-g]isoquino[3,2-a]isoquinolinium chloride + 1-hexyl-3-methylimidazolium bis[(trifluoromethyl)sulfonyl]imide; phases: Liquid, Crystal
Fixed: Pressure, kPa = 100
Property: Mole fraction of 9,10-dimethoxy-5,6-dihydro[1,3]dioxolo[4,5-g]isoquino[3,2-a]isoquinolinium chloride (Liquid); method: Visual
Temperature, K	Mole fraction of 9,10-dimethoxy-5,6-dihydro[1,3]dioxolo[4,5-g]isoquino[3,2-a]isoquinolinium chloride	uncertainty
336.45	0.00503774	0.00070576
338.95	0.0056254	0.00078812
341.95	0.00652716	0.00091442
345.35	0.00757836	0.00106174
347.85	0.00873605	0.0012239
350.95	0.00993022	0.00139112
353.25	0.0111951	0.0015683
355.75	0.0123897	0.0017354
358.95	0.0139377	0.0019521

System: 9,10-dimethoxy-5,6-dihydro[1,3]dioxolo[4,5-g]isoquino[3,2-a]isoquinolinium chloride + 1-octyl-3-methylimidazolium bis[(trifluoromethyl)sulfonyl]imide; phases: Liquid, Crystal
Fixed: Pressure, kPa = 100
Property: Mole fraction of 9,10-dimethoxy-5,6-dihydro[1,3]dioxolo[4,5-g]isoquino[3,2-a]isoquinolinium chloride (Liquid); method: Visual
Temperature, K	Mole fraction of 9,10-dimethoxy-5,6-dihydro[1,3]dioxolo[4,5-g]isoquino[3,2-a]isoquinolinium chloride	uncertainty
342.15	0.00672295	0.00094189
344.05	0.00734552	0.00102903
346.95	0.00832399	0.00116608
350.75	0.00981005	0.00137431
353.75	0.011431	0.0016015
356.55	0.0129832	0.0018189
360.05	0.0153033	0.0021439
361.55	0.0166859	0.0023381
