Measured thermophysical data. Liquid Liquid Equilibrium Data for the Separation of Acetone from n-Heptane Using Four Imidazolium-Based Ionic Liquids
Source: J. Chem. Eng. Data, 2019, 10.1021/acs.jced.8b01105
Compound 1: acetone, C3H6O, InChI=1S/C3H6O/c1-3(2)4/h1-2H3, purity 99%
Compound 2: heptane, C7H16, InChI=1S/C7H16/c1-3-5-7-6-4-2/h3-7H2,1-2H3, purity 99.8%
Compound 3: 1-butyl-3-methylimidazolium trifluoromethanesulfonate, C9H15F3N2O3S, InChI=1S/C8H15N2.CHF3O3S/c1-3-4-5-10-7-6-9(2)8-10;2-1(3,4)8(5,6)7/h6-8H,3-5H2,1-2H3;(H,5,6,7)/q+1;/p-1, purity 98%
Compound 4: 1-hexyl-3-methylimidazolium trifluoromethanesulfonate, C11H19F3N2O3S, InChI=1S/C10H19N2.CHF3O3S/c1-3-4-5-6-7-12-9-8-11(2)10-12;2-1(3,4)8(5,6)7/h8-10H,3-7H2,1-2H3;(H,5,6,7)/q+1;/p-1, purity 98%
Compound 5: 1-butyl-3-methylimidazolium bis(trifluoromethylsulfonyl)imide, C10H15F6N3O4S2, InChI=1S/C8H15N2.C2F6NO4S2/c1-3-4-5-10-7-6-9(2)8-10;3-1(4,5)14(10,11)9-15(12,13)2(6,7)8/h6-8H,3-5H2,1-2H3;/q+1;-1, purity 98%
Compound 6: 1-butyl-3-methylimidazolium hexafluorophosphate, C8H15F6N2P, InChI=1S/C8H15N2.F6P/c1-3-4-5-10-7-6-9(2)8-10;1-7(2,3,4,5)6/h6-8H,3-5H2,1-2H3;/q+1;-1, purity 98%

System: heptane + acetone + 1-butyl-3-methylimidazolium trifluoromethanesulfonate; phases: Liquid mixture 2, Liquid mixture 1
Fixed: Temperature, K = 298.15
Fixed: Pressure, kPa = 101.325
Property: Mole fraction of heptane (Liquid mixture 2); method: OTHER
Property: Mole fraction of acetone (Liquid mixture 1); method: OTHER
Property: Mole fraction of heptane (Liquid mixture 1); method: OTHER
Mole fraction of acetone	Mole fraction of heptane	uncertainty	Mole fraction of acetone	uncertainty	Mole fraction of heptane	uncertainty
0.171	0.014	0.006	0.011	0.008	0.989	
0.348	0.016	0.006	0.037	0.008	0.962	
0.527	0.022	0.006	0.095	0.009	0.904	
0.633	0.034	0.006	0.174	0.009	0.825	
0.701	0.042	0.006	0.28	0.01	0.719	
0.772	0.059	0.006	0.385	0.012	0.614	
0.797	0.076	0.007	0.451	0.013	0.547	

System: heptane + acetone + 1-hexyl-3-methylimidazolium trifluoromethanesulfonate; phases: Liquid mixture 1, Liquid mixture 2
Fixed: Temperature, K = 298.15
Fixed: Pressure, kPa = 101.325
Property: Mole fraction of heptane (Liquid mixture 1); method: OTHER
Property: Mole fraction of heptane (Liquid mixture 2); method: OTHER
Property: Mole fraction of acetone (Liquid mixture 2); method: OTHER
Mole fraction of acetone	Mole fraction of heptane	uncertainty	Mole fraction of heptane	uncertainty	Mole fraction of acetone	uncertainty
0.139	0.048	0.006	0.992	0.008	0.008	
0.275	0.059	0.006	0.97	0.009	0.03	
0.412	0.062	0.006	0.944	0.009	0.055	
0.492	0.064	0.006	0.91	0.009	0.089	
0.628	0.075	0.006	0.847	0.009	0.153	
0.701	0.087	0.007	0.757	0.01	0.242	
0.738	0.117	0.008	0.652	0.011	0.347	

System: heptane + acetone + 1-butyl-3-methylimidazolium bis(trifluoromethylsulfonyl)imide; phases: Liquid mixture 1, Liquid mixture 2
Fixed: Temperature, K = 298.15
Fixed: Pressure, kPa = 101.325
Property: Mole fraction of heptane (Liquid mixture 1); method: OTHER
Property: Mole fraction of heptane (Liquid mixture 2); method: OTHER
Property: Mole fraction of acetone (Liquid mixture 2); method: OTHER
Mole fraction of acetone	Mole fraction of heptane	uncertainty	Mole fraction of heptane	uncertainty	Mole fraction of acetone	uncertainty
0.164	0.044	0.006	0.984	0.009	0.016	
0.346	0.051	0.006	0.961	0.009	0.038	
0.496	0.053	0.006	0.935	0.009	0.065	
0.554	0.054	0.006	0.911	0.009	0.088	
0.69	0.08	0.006	0.847	0.009	0.152	
0.732	0.094	0.007	0.785	0.01	0.214	
0.768	0.129	0.009	0.699	0.011	0.3	
0.781	0.148	0.011	0.615	0.012	0.381	

System: heptane + acetone + 1-butyl-3-methylimidazolium hexafluorophosphate; phases: Liquid mixture 1, Liquid mixture 2
Fixed: Temperature, K = 298.15
Fixed: Pressure, kPa = 101.325
Property: Mole fraction of heptane (Liquid mixture 1); method: OTHER
Property: Mole fraction of heptane (Liquid mixture 2); method: OTHER
Property: Mole fraction of acetone (Liquid mixture 2); method: OTHER
Mole fraction of acetone	Mole fraction of heptane	uncertainty	Mole fraction of heptane	uncertainty	Mole fraction of acetone	uncertainty
0.161	0.017	0.006	0.992	0.008	0.008	
0.318	0.018	0.006	0.968	0.009	0.032	
0.432	0.021	0.006	0.94	0.009	0.06	
0.521	0.024	0.006	0.91	0.009	0.09	
0.542	0.025	0.006	0.891	0.009	0.109	
0.716	0.04	0.006	0.745	0.01	0.255	
0.777	0.053	0.006	0.661	0.011	0.339	
0.808	0.061	0.006	0.59	0.012	0.409	
