Measured thermophysical data. Solid-Liquid Phase Equilibria of the Ternary System (2-Naphthaldehyde + 4-Methylphthalic Anhydride + Ethyl Acetate) at (288.15, 298.15, and 308.15) K
Source: J. Chem. Eng. Data, 2018, 10.1021/acs.jced.8b00170
Compound 1: .beta.-naphthaldehyde, C11H8O, InChI=1S/C11H8O/c12-8-9-5-6-10-3-1-2-4-11(10)7-9/h1-8H
Compound 2: 4-methylphthalic anhydride, C9H6O3, InChI=1S/C9H6O3/c1-5-2-3-6-7(4-5)9(11)12-8(6)10/h2-4H,1H3
Compound 3: ethyl acetate, C4H8O2, InChI=1S/C4H8O2/c1-3-6-4(2)5/h3H2,1-2H3, purity 99.5%
Compound 4: benzoic acid, C7H6O2, InChI=1S/C7H6O2/c8-7(9)6-4-2-1-3-5-6/h1-5H,(H,8,9), purity 99.6%
Compound 5: toluene, C7H8, InChI=1S/C7H8/c1-7-5-3-2-4-6-7/h2-6H,1H3, purity 99.5%

System: 4-methylphthalic anhydride; phases: Crystal, Liquid, Air at 1 atmosphere
Property: Normal melting temperature, K (Crystal); method: DTA
Normal melting temperature, K	uncertainty
361.3	2.03

System: 4-methylphthalic anhydride; phases: Crystal, Liquid, Air at 1 atmosphere
Property: Molar enthalpy of transition or fusion, kJ/mol (Crystal); method: DSC
Molar enthalpy of transition or fusion, kJ/mol	uncertainty
18.841	1.079

System: benzoic acid + toluene; phases: Liquid, Crystal
Fixed: Pressure, kPa = 101.3
Property: Mole fraction of benzoic acid (Liquid); method: Chromatography
Temperature, K	Mole fraction of benzoic acid	uncertainty
283.15	0.0421	0.0025
293.15	0.0627	0.0038
298.15	0.0732	0.0044
303.15	0.0907	0.0054
313.15	0.1265	0.0076
323.15	0.1804	0.0108

System: .beta.-naphthaldehyde + ethyl acetate; phases: Liquid, Crystal
Fixed: Pressure, kPa = 101.3
Property: Mole fraction of .beta.-naphthaldehyde (Liquid); method: Chromatography
Temperature, K	Mole fraction of .beta.-naphthaldehyde	uncertainty
283.15	0.148	0.0089
288.15	0.1837	0.011
293.15	0.2212	0.0133
298.15	0.2681	0.0161
303.15	0.3316	0.0199
308.15	0.4266	0.0256
313.15	0.5347	0.0279

System: .beta.-naphthaldehyde + ethyl acetate; phases: Liquid, Crystal
Fixed: Pressure, kPa = 101.3
Property: Solid-liquid equilibrium temperature, K (Liquid); method: VISOBS
Mass fraction of .beta.-naphthaldehyde	Solid-liquid equilibrium temperature, K	uncertainty
0.2851	288.15	1.58
0.3937	298.15	1.64
0.5686	308.15	1.49

System: .beta.-naphthaldehyde + ethyl acetate; phases: Liquid
Fixed: Pressure, kPa = 101.3
Property: Mass density, kg/m3 (Liquid); method: Pycnometric method
Temperature, K	Mass fraction of .beta.-naphthaldehyde	Mass density, kg/m3	uncertainty
288.15	0.2851	944	18
298.15	0.3937	957	19
308.15	0.5686	975	18

System: 4-methylphthalic anhydride + ethyl acetate; phases: Liquid, Crystal
Fixed: Pressure, kPa = 101.3
Property: Mole fraction of 4-methylphthalic anhydride (Liquid); method: Chromatography
Temperature, K	Mole fraction of 4-methylphthalic anhydride	uncertainty
283.15	0.111	0.0067
288.15	0.133	0.008
293.15	0.1514	0.0091
298.15	0.18	0.0108
303.15	0.2052	0.0123
308.15	0.2346	0.0141
313.15	0.2686	0.0161

System: 4-methylphthalic anhydride + ethyl acetate; phases: Liquid, Crystal
Fixed: Pressure, kPa = 101.3
Property: Mass fraction of 4-methylphthalic anhydride (Liquid); method: Chromatography
Temperature, K	Mass fraction of 4-methylphthalic anhydride	uncertainty
288.15	0.2202	0.0132
298.15	0.2878	0.0173
308.15	0.3605	0.0216

System: 4-methylphthalic anhydride + ethyl acetate; phases: Liquid
Fixed: Pressure, kPa = 101.3
Property: Mass density, kg/m3 (Liquid); method: Pycnometric method
Temperature, K	Mass fraction of 4-methylphthalic anhydride	Mass density, kg/m3	uncertainty
288.15	0.2202	933	18
298.15	0.2878	948	18
308.15	0.3605	964	19

System: .beta.-naphthaldehyde + 4-methylphthalic anhydride + ethyl acetate; phases: Liquid, Crystal
Fixed: Pressure, kPa = 101.3
Property: Mass fraction of 4-methylphthalic anhydride (Liquid); method: Chromatography
Temperature, K	Mass fraction of .beta.-naphthaldehyde	Mass fraction of 4-methylphthalic anhydride	uncertainty
288.15	0	0.2202	0.0132
288.15	0.04698	0.2249	0.0135
288.15	0.09502	0.2305	0.0138
288.15	0.1309	0.2311	0.0139
288.15	0.1662	0.2326	0.014
288.15	0.2094	0.2369	0.0143
288.15	0.2694	0.2439	0.0147
288.15	0.3406	0.2457	0.0148
298.15	0	0.2878	0.0173
298.15	0.05686	0.2923	0.0176
298.15	0.1174	0.2977	0.0179
298.15	0.1998	0.3052	0.0184
298.15	0.2396	0.3129	0.0188
298.15	0.2986	0.3158	0.019
298.15	0.3791	0.3107	0.0188
298.15	0.4474	0.2995	0.0185
308.15	0	0.3605	0.0216
308.15	0.06339	0.3616	0.0217
308.15	0.1159	0.3659	0.022
308.15	0.1661	0.3688	0.0222
308.15	0.2054	0.3728	0.0224
308.15	0.2596	0.3785	0.0228
308.15	0.368	0.3865	0.0232
308.15	0.452	0.3897	0.0234

System: .beta.-naphthaldehyde + 4-methylphthalic anhydride + ethyl acetate; phases: Liquid, Crystal
Fixed: Pressure, kPa = 101.3
Property: Mass fraction of 4-methylphthalic anhydride (Liquid); method: Chromatography
Temperature, K	Mass fraction of .beta.-naphthaldehyde	Mass fraction of 4-methylphthalic anhydride	uncertainty
288.15	0.3406	0.2457	0.1047
288.15	0.3322	0.2031	0.1134
288.15	0.3276	0.1711	0.0954
288.15	0.3163	0.124	0.0788
288.15	0.2995	0.05497	0.05497
288.15	0.2851	0	
298.15	0.4474	0.2995	0.2608
298.15	0.4448	0.2743	0.2743
298.15	0.4421	0.2337	0.2337
298.15	0.4393	0.1918	0.1918
298.15	0.4356	0.1522	0.1522
298.15	0.4199	0.08313	0.08313
298.15	0.3937	0	
308.15	0.452	0.3897	0.0253
308.15	0.5215	0.3651	0.0308
308.15	0.5417	0.3095	0.0949
308.15	0.5557	0.2477	0.2477
308.15	0.5688	0.1846	0.1846
308.15	0.5748	0.1195	0.1195
308.15	0.5725	0.07682	0.07682
308.15	0.5686	0	

System: .beta.-naphthaldehyde + 4-methylphthalic anhydride + ethyl acetate; phases: Liquid
Fixed: Pressure, kPa = 101.3
Property: Mass density, kg/m3 (Liquid); method: Pycnometric method
Temperature, K	Mass fraction of .beta.-naphthaldehyde	Mass fraction of 4-methylphthalic anhydride	Mass density, kg/m3	uncertainty
288.15	0	0.2202	933	18
288.15	0.04698	0.2249	942	18
288.15	0.09502	0.2305	953	18
288.15	0.1309	0.2311	961	18
288.15	0.1662	0.2326	968	18
288.15	0.2094	0.2369	976	18
288.15	0.2694	0.2439	986	18
288.15	0.3406	0.2457	994	18
288.15	0.3322	0.2031	985	18
288.15	0.3276	0.1711	978	18
288.15	0.3163	0.124	967	18
288.15	0.2995	0.05497	955	18
288.15	0.2851	0	944	18
298.15	0	0.2878	948	18
298.15	0.05686	0.2923	960	18
298.15	0.1174	0.2977	972	87
298.15	0.1998	0.3052	986	18
298.15	0.2396	0.3129	992	18
298.15	0.2986	0.3158	999	18
298.15	0.3791	0.3107	1007	18
298.15	0.4474	0.2995	1013	19
298.15	0.4448	0.2743	1008	18
298.15	0.4421	0.2337	1004	18
298.15	0.4393	0.1918	997	18
298.15	0.4356	0.1522	991	18
298.15	0.4199	0.08313	978	18
298.15	0.3937	0	957	19
308.15	0	0.3605	964	19
308.15	0.06339	0.3616	978	20
308.15	0.1159	0.3659	988	40
308.15	0.1661	0.3688	996	26
308.15	0.2054	0.3728	1002	45
308.15	0.2596	0.3785	1010	43
308.15	0.368	0.3865	1021	19
308.15	0.452	0.3897	1028	18
308.15	0.5215	0.3651	1032	19
308.15	0.5417	0.3095	1025	19
308.15	0.5557	0.2477	1014	18
308.15	0.5688	0.1846	1003	18
308.15	0.5748	0.1195	992	19
308.15	0.5725	0.07682	983	19
308.15	0.5686	0	975	18
