Measured thermophysical data. Measurement and Correlation of Solubility of Calcium Formate (Form alpha) in Different Binary Solvent Mixtures at Temperatures from 283.15 to 323.15 K
Source: J. Chem. Eng. Data, 2019, 10.1021/acs.jced.9b00009
Compound 1: methanol, CH4O, InChI=1S/CH4O/c1-2/h2H,1H3, purity 99.5%
Compound 2: ethanol, C2H6O, InChI=1S/C2H6O/c1-2-3/h3H,2H2,1H3, purity 99.5%
Compound 3: propan-1-ol, C3H8O, InChI=1S/C3H8O/c1-2-3-4/h4H,2-3H2,1H3, purity 99.5%
Compound 4: acetone, C3H6O, InChI=1S/C3H6O/c1-3(2)4/h1-2H3, purity 99.5%
Compound 5: water, H2O, InChI=1S/H2O/h1H2, purity 99.9%
Compound 6: calcium formate, C2H2CaO4, InChI=1S/2CH2O2.Ca/c2*2-1-3;/h2*1H,(H,2,3);/q;;+2/p-2, purity 98%

System: calcium formate + methanol + water; phases: Liquid, Crystal 1
Fixed: Pressure, kPa = 100
Property: Mole fraction of calcium formate (Liquid); method: gravimetric
Temperature, K	Solvent: Mole fraction of methanol	Mole fraction of calcium formate	uncertainty
283.15	0	0.0224771	0.0009004
283.15	0.047	0.0170164	0.0006817
283.15	0.1	0.012603	0.0005049
283.15	0.161	0.0092031	0.0003687
283.15	0.229	0.006672	0.0002673
283.15	0.309	0.0046401	0.0001859
283.15	0.401	0.0030535	0.0001224
288.15	0	0.0226434	0.000907
288.15	0.047	0.0173526	0.0006952
288.15	0.1	0.0129759	0.00052
288.15	0.161	0.0095499	0.0003828
288.15	0.229	0.0068517	0.0002746
288.15	0.309	0.0047761	0.0001914
288.15	0.401	0.0031266	0.0001253
293.15	0	0.0227336	0.0009106
293.15	0.047	0.0176249	0.0007061
293.15	0.1	0.0133011	0.000533
293.15	0.161	0.0098373	0.0003942
293.15	0.229	0.007079	0.0002837
293.15	0.309	0.0048918	0.000196
293.15	0.401	0.0031687	0.000127
298.15	0	0.0228808	0.0009165
298.15	0.047	0.0178466	0.0007149
298.15	0.1	0.0136775	0.000548
298.15	0.161	0.0100631	0.0004032
298.15	0.229	0.0072568	0.0002908
298.15	0.309	0.004999	0.0002003
298.15	0.401	0.0032047	0.0001284
303.15	0	0.0230236	0.0009223
303.15	0.047	0.0180992	0.000725
303.15	0.1	0.0138705	0.0005557
303.15	0.161	0.0103239	0.0004137
303.15	0.229	0.0074191	0.0002973
303.15	0.309	0.0051198	0.0002051
303.15	0.401	0.0032578	0.0001305
308.15	0	0.0232301	0.0009305
308.15	0.047	0.0182962	0.0007329
308.15	0.1	0.0141142	0.0005654
308.15	0.161	0.0105234	0.0004216
308.15	0.229	0.0076072	0.0003048
308.15	0.309	0.0051851	0.0002077
308.15	0.401	0.0032871	0.0001317
313.15	0	0.0233803	0.0009365
313.15	0.047	0.0185928	0.0007448
313.15	0.1	0.0143469	0.0005748
313.15	0.161	0.0107365	0.0004301
313.15	0.229	0.0077485	0.0003104
313.15	0.309	0.0052922	0.000212
313.15	0.401	0.003334	0.0001336
318.15	0	0.0235603	0.0009438
318.15	0.047	0.018732	0.0007504
318.15	0.1	0.0145422	0.0005826
318.15	0.161	0.0108851	0.0004361
318.15	0.229	0.0078884	0.000316
318.15	0.309	0.0053656	0.000215
318.15	0.401	0.0033764	0.0001353
323.15	0	0.0237196	0.0009501
323.15	0.047	0.0189988	0.0007614
323.15	0.1	0.0147228	0.0005902
323.15	0.161	0.0111138	0.0004457
323.15	0.229	0.0080113	0.0003214
323.15	0.309	0.0054093	0.0002172
323.15	0.401	0.003409	0.0001366

System: calcium formate + ethanol + water; phases: Liquid, Crystal 1
Fixed: Pressure, kPa = 100
Property: Mole fraction of calcium formate (Liquid); method: Chromatography
Temperature, K	Solvent: Mole fraction of ethanol	Mole fraction of calcium formate	uncertainty
283.15	0	0.0224771	0.0009004
283.15	0.033	0.0164712	0.0006599
283.15	0.072	0.0115118	0.0004612
283.15	0.117	0.0079022	0.0003166
283.15	0.171	0.0054911	0.00022
283.15	0.236	0.0037691	0.000151
283.15	0.317	0.002405	9.65e-05
288.15	0	0.0226434	0.000907
288.15	0.033	0.016777	0.0006722
288.15	0.072	0.0119902	0.0004807
288.15	0.117	0.0084124	0.0003376
288.15	0.171	0.0059076	0.0002371
288.15	0.236	0.0040623	0.000163
288.15	0.317	0.0025514	0.0001023
293.15	0	0.0227336	0.0009106
293.15	0.033	0.0171626	0.0006876
293.15	0.072	0.0125255	0.000502
293.15	0.117	0.008904	0.000357
293.15	0.171	0.006261	0.0002511
293.15	0.236	0.0042749	0.0001714
293.15	0.317	0.0026249	0.0001052
298.15	0	0.0228808	0.0009165
298.15	0.033	0.0173182	0.0006938
298.15	0.072	0.0127309	0.0005101
298.15	0.117	0.0091614	0.0003671
298.15	0.171	0.0065348	0.000262
298.15	0.236	0.0044328	0.0001777
298.15	0.317	0.0027333	0.0001096
303.15	0	0.0230236	0.0009223
303.15	0.033	0.0175819	0.0007044
303.15	0.072	0.0131568	0.0005272
303.15	0.117	0.009436	0.0003783
303.15	0.171	0.0068294	0.0002738
303.15	0.236	0.0046065	0.0001847
303.15	0.317	0.0028036	0.0001124
308.15	0	0.0232301	0.0009305
308.15	0.033	0.0179284	0.0007183
308.15	0.072	0.0134727	0.0005398
308.15	0.117	0.0099367	0.0003984
308.15	0.171	0.0071205	0.0002854
308.15	0.236	0.0047834	0.0001917
308.15	0.317	0.002883	0.0001156
313.15	0	0.0233803	0.0009365
313.15	0.033	0.018199	0.000729
313.15	0.072	0.0137257	0.0005499
313.15	0.117	0.0102515	0.0004108
313.15	0.171	0.0072942	0.0002923
313.15	0.236	0.0049145	0.0001969
313.15	0.317	0.0029449	0.000118
318.15	0	0.0235603	0.0009438
318.15	0.033	0.0183568	0.0007353
318.15	0.072	0.0139667	0.0005596
318.15	0.117	0.0104465	0.0004186
318.15	0.171	0.0074255	0.0002976
318.15	0.236	0.005034	0.0002017
318.15	0.317	0.003007	0.0001205
323.15	0	0.0237196	0.0009501
323.15	0.033	0.0184923	0.0007413
323.15	0.072	0.0142649	0.0005721
323.15	0.117	0.0107811	0.0004327
323.15	0.171	0.0077095	0.0003098
323.15	0.236	0.0051223	0.0002059
323.15	0.317	0.0030575	0.0001225

System: calcium formate + propan-1-ol + water; phases: Liquid, Crystal 1
Fixed: Pressure, kPa = 100
Property: Mole fraction of calcium formate (Liquid); method: Chromatography
Temperature, K	Solvent: Mole fraction of propan-1-ol	Mole fraction of calcium formate	uncertainty
283.15	0	0.0224771	0.0009004
283.15	0.026	0.0168535	0.0006753
283.15	0.057	0.0127573	0.0005112
283.15	0.093	0.010544	0.0004224
283.15	0.138	0.0086612	0.0003471
283.15	0.194	0.0068264	0.0002736
283.15	0.265	0.0049202	0.0001972
288.15	0	0.0226434	0.000907
288.15	0.026	0.0172207	0.0006899
288.15	0.057	0.0132377	0.0005306
288.15	0.093	0.0110138	0.0004415
288.15	0.138	0.009049	0.0003628
288.15	0.194	0.0071892	0.0002882
288.15	0.265	0.0050999	0.0002044
293.15	0	0.0227336	0.0009106
293.15	0.026	0.0175272	0.0007022
293.15	0.057	0.0136724	0.0005479
293.15	0.093	0.0114189	0.0004577
293.15	0.138	0.0094604	0.0003793
293.15	0.194	0.0074106	0.000297
293.15	0.265	0.0052593	0.0002108
298.15	0	0.0228808	0.0009165
298.15	0.026	0.0177722	0.000712
298.15	0.057	0.0140432	0.0005628
298.15	0.093	0.0118169	0.0004736
298.15	0.138	0.0098066	0.000393
298.15	0.194	0.0076568	0.0003069
298.15	0.265	0.0054219	0.0002173
303.15	0	0.0230236	0.0009223
303.15	0.026	0.0181361	0.0007265
303.15	0.057	0.0144843	0.0005803
303.15	0.093	0.0122122	0.0004893
303.15	0.138	0.0100961	0.0004045
303.15	0.194	0.0079969	0.0003205
303.15	0.265	0.0055408	0.000222
308.15	0	0.0232301	0.0009305
308.15	0.026	0.0182913	0.0007327
308.15	0.057	0.0147105	0.0005894
308.15	0.093	0.0124172	0.0004975
308.15	0.138	0.0102424	0.0004104
308.15	0.194	0.0081353	0.0003259
308.15	0.265	0.0056138	0.0002249
313.15	0	0.0233803	0.0009365
313.15	0.026	0.0185723	0.000744
313.15	0.057	0.0151302	0.0006062
313.15	0.093	0.0128082	0.0005132
313.15	0.138	0.0105443	0.0004225
313.15	0.194	0.0082737	0.0003315
313.15	0.265	0.0057246	0.0002294
318.15	0	0.0235603	0.0009438
318.15	0.026	0.0187948	0.0007529
318.15	0.057	0.0154038	0.0006171
318.15	0.093	0.0130752	0.0005238
318.15	0.138	0.0107026	0.0004288
318.15	0.194	0.0084319	0.0003378
318.15	0.265	0.0057689	0.0002311
323.15	0	0.0237196	0.0009501
323.15	0.026	0.0190369	0.0007634
323.15	0.057	0.0155558	0.0006237
323.15	0.093	0.0132739	0.0005319
323.15	0.138	0.0109176	0.0004376
323.15	0.194	0.0085505	0.0003426
323.15	0.265	0.0058353	0.0002338

System: calcium formate + acetone + water; phases: Liquid, Crystal 1
Fixed: Pressure, kPa = 100
Property: Mole fraction of calcium formate (Liquid); method: Chromatography
Temperature, K	Solvent: Mole fraction of acetone	Mole fraction of calcium formate	uncertainty
283.15	0	0.0224771	0.0009004
283.15	0.027	0.0171296	0.0006862
283.15	0.059	0.0124977	0.0005007
283.15	0.097	0.0085273	0.0003416
283.15	0.143	0.0055052	0.0002207
283.15	0.2	0.0031286	0.0001257
283.15	0.273	0.0015142	6.08e-05
288.15	0	0.0226434	0.000907
288.15	0.027	0.0174047	0.0006972
288.15	0.059	0.0128121	0.0005133
288.15	0.097	0.008914	0.0003573
288.15	0.143	0.0057345	0.0002299
288.15	0.2	0.0032992	0.0001324
288.15	0.273	0.0016074	6.45e-05
293.15	0	0.0227336	0.0009106
293.15	0.027	0.0176074	0.0007053
293.15	0.059	0.0130486	0.0005228
293.15	0.097	0.0091249	0.0003656
293.15	0.143	0.0058985	0.0002364
293.15	0.2	0.0034763	0.0001394
293.15	0.273	0.0016808	6.75e-05
298.15	0	0.0228808	0.0009165
298.15	0.027	0.0177956	0.0007129
298.15	0.059	0.0132923	0.0005325
298.15	0.097	0.0093452	0.0003744
298.15	0.143	0.0061156	0.0002451
298.15	0.2	0.0036008	0.0001443
298.15	0.273	0.0017653	7.08e-05
303.15	0	0.0230236	0.0009223
303.15	0.027	0.0180285	0.0007222
303.15	0.059	0.0134397	0.0005384
303.15	0.097	0.0095452	0.0003824
303.15	0.143	0.0062353	0.0002498
303.15	0.2	0.0037141	0.0001489
303.15	0.273	0.0018153	7.28e-05
308.15	0	0.0232301	0.0009305
308.15	0.027	0.0182484	0.000731
308.15	0.059	0.0136648	0.0005474
308.15	0.097	0.0097429	0.0003904
308.15	0.143	0.0063541	0.0002546
308.15	0.2	0.0038471	0.0001542
308.15	0.273	0.0018738	7.52e-05
313.15	0	0.0233803	0.0009365
313.15	0.027	0.0184549	0.0007393
313.15	0.059	0.0138811	0.0005561
313.15	0.097	0.0099434	0.0003984
313.15	0.143	0.0065148	0.0002611
313.15	0.2	0.0039266	0.0001573
313.15	0.273	0.0019426	7.79e-05
318.15	0	0.0235603	0.0009438
318.15	0.027	0.0186509	0.0007471
318.15	0.059	0.0140201	0.0005616
318.15	0.097	0.0101076	0.000405
318.15	0.143	0.006724	0.0002694
318.15	0.2	0.0040043	0.0001605
318.15	0.273	0.0020059	8.04e-05
323.15	0	0.0237196	0.0009501
323.15	0.027	0.0188908	0.000757
323.15	0.059	0.0141402	0.0005671
323.15	0.097	0.0104266	0.0004183
323.15	0.143	0.0068322	0.0002749
323.15	0.2	0.0041617	0.0001681
323.15	0.273	0.0020746	8.32e-05

System: calcium formate + water; phases: Liquid, Crystal 1
Fixed: Pressure, kPa = 100
Property: Mole fraction of calcium formate (Liquid); method: gravimetric
Temperature, K	Mole fraction of calcium formate	uncertainty
283.15	0.0224771	0.0009004
288.15	0.0226434	0.000907
293.15	0.0227336	0.0009106
298.15	0.0228808	0.0009165
303.15	0.0230236	0.0009223
308.15	0.0232301	0.0009305
313.15	0.0233803	0.0009365
318.15	0.0235603	0.0009438
323.15	0.0237196	0.0009501
