Measured thermophysical data. Densities, Viscosities, and Refractive Indices of Dimethyl Carbonate + 1-Hexanol/1-Octanol Binary Mixtures at Different Temperatures
Source: J. Chem. Eng. Data, 2016, 10.1021/acs.jced.5b00830
Compound 1: dimethyl carbonate, C3H6O3, InChI=1S/C3H6O3/c1-5-3(4)6-2/h1-2H3, purity 99%
Compound 2: hexan-1-ol, C6H14O, InChI=1S/C6H14O/c1-2-3-4-5-6-7/h7H,2-6H2,1H3, purity 99.9%
Compound 3: octan-1-ol, C8H18O, InChI=1S/C8H18O/c1-2-3-4-5-6-7-8-9/h9H,2-8H2,1H3, purity 99.7%

System: dimethyl carbonate; phases: Liquid
Fixed: Pressure, kPa = 100
Property: Mass density, kg/m3 (Liquid); method: Vibrating tube method
Temperature, K	Mass density, kg/m3	uncertainty
293.15	1069.6	2.2
298.15	1062.8	2.1
303.15	1056.2	2.1
308.15	1049.8	2.1
313.15	1042.5	2.1
318.15	1035.6	2.1
323.15	1028.4	2.1

System: dimethyl carbonate; phases: Liquid
Fixed: Pressure, kPa = 100
Property: Viscosity, Pa*s (Liquid); method: Capillary tube (Ostwald; Ubbelohde) method
Temperature, K	Viscosity, Pa*s	uncertainty
293.15	0.00062	0.00011
298.15	0.00058	0.0001
303.15	0.0005	9e-05
308.15	0.00047	8e-05
313.15	0.00045	8e-05
318.15	0.00043	8e-05
323.15	0.00038	7e-05

System: dimethyl carbonate; phases: Liquid
Fixed: Pressure, kPa = 100
Property: Refractive index (Na D-line) (Liquid); method: Standard Abbe refractometry
Temperature, K	Refractive index (Na D-line)	uncertainty
303.15	1.3652	0.0191
308.15	1.3643	0.0191
313.15	1.3624	0.0191
318.15	1.3622	0.0191
323.15	1.3591	0.019
293.15	1.3699	0.0192
298.15	1.3661	0.0191
308.15	1.3644	0.0191

System: hexan-1-ol; phases: Liquid
Fixed: Pressure, kPa = 100
Property: Mass density, kg/m3 (Liquid); method: Vibrating tube method
Temperature, K	Mass density, kg/m3	uncertainty
293.15	818	1.6
298.15	814.9	1.6
303.15	811.3	1.6
308.15	807.6	1.6
313.15	803.9	1.6
318.15	800.1	1.6
323.15	796.2	1.6

System: hexan-1-ol; phases: Liquid
Fixed: Pressure, kPa = 100
Property: Viscosity, Pa*s (Liquid); method: Capillary tube (Ostwald; Ubbelohde) method
Temperature, K	Viscosity, Pa*s	uncertainty
293.15	0.00536	0.00097
298.15	0.00445	0.0008
303.15	0.0039	0.0007
308.15	0.00335	0.0006
313.15	0.0029	0.00052
318.15	0.00252	0.00045
323.15	0.0022	0.0004

System: hexan-1-ol; phases: Liquid
Fixed: Pressure, kPa = 100
Property: Refractive index (Na D-line) (Liquid); method: Standard Abbe refractometry
Temperature, K	Refractive index (Na D-line)	uncertainty
293.15	1.4172	0.0198
298.15	1.4159	0.0198
303.15	1.4143	0.0198
308.15	1.4123	0.0198
313.15	1.4105	0.0197
318.15	1.4177	0.0198
323.15	1.4148	0.0198

System: octan-1-ol; phases: Liquid
Fixed: Pressure, kPa = 100
Property: Mass density, kg/m3 (Liquid); method: Vibrating tube method
Temperature, K	Mass density, kg/m3	uncertainty
293.15	824.6	1.7
298.15	820.7	1.6
303.15	817.2	1.6
308.15	813.8	1.6
313.15	810.6	1.6
318.15	806.9	1.6
323.15	803.9	1.6

System: octan-1-ol; phases: Liquid
Fixed: Pressure, kPa = 100
Property: Viscosity, Pa*s (Liquid); method: Capillary tube (Ostwald; Ubbelohde) method
Temperature, K	Viscosity, Pa*s	uncertainty
293.15	0.0092	0.00166
298.15	0.00767	0.00138
303.15	0.00631	0.00114
308.15	0.00537	0.00097
313.15	0.00461	0.00083
318.15	0.00397	0.00071
323.15	0.00344	0.00062

System: octan-1-ol; phases: Liquid
Fixed: Pressure, kPa = 100
Property: Refractive index (Na D-line) (Liquid); method: Standard Abbe refractometry
Temperature, K	Refractive index (Na D-line)	uncertainty
293.15	1.4285	0.02
298.15	1.4268	0.02
303.15	1.4261	0.02
308.15	1.4237	0.0199
313.15	1.4217	0.0199
318.15	1.4299	0.02
323.15	1.4277	0.02

System: hexan-1-ol + dimethyl carbonate; phases: Liquid
Fixed: Pressure, kPa = 100
Property: Mass density, kg/m3 (Liquid); method: Vibrating tube method
Temperature, K	Mole fraction of dimethyl carbonate	Mass density, kg/m3	uncertainty
293.15	0	818	1.6
293.15	0.1003	833.8	1.7
293.15	0.1998	850.9	1.7
293.15	0.3011	869.7	1.8
293.15	0.4001	889.5	1.8
293.15	0.5007	911.8	1.8
293.15	0.5987	935.6	1.9
293.15	0.7003	963.4	2
293.15	0.8013	994.5	2
293.15	0.9002	1028.9	2.1
293.15	1	1069.6	2.2
298.15	0	814.9	1.6
298.15	0.1003	830.3	1.7
298.15	0.1998	847.2	1.7
298.15	0.3011	865.5	1.7
298.15	0.4001	885	1.8
298.15	0.5007	906.9	1.8
298.15	0.5987	930.3	1.9
298.15	0.7003	957.7	1.9
298.15	0.8013	988.4	2
298.15	0.9002	1022.4	2.1
298.15	1	1062.8	2.1
303.15	0	811.3	1.6
303.15	0.1003	826.4	1.7
303.15	0.1998	842.9	1.7
303.15	0.3011	861	1.7
303.15	0.4001	880.1	1.8
303.15	0.5007	901.7	1.8
303.15	0.5987	924.8	1.9
303.15	0.7003	951.8	1.9
303.15	0.8013	982.2	2
303.15	0.9002	1016.1	2.1
303.15	1	1056.2	2.1
308.15	0	807.6	1.6
308.15	0.1003	822.4	1.7
308.15	0.1998	838.8	1.7
308.15	0.3011	856.6	1.7
308.15	0.4001	875.4	1.8
308.15	0.5007	896.7	1.8
308.15	0.5987	919.6	1.9
308.15	0.7003	946.2	1.9
308.15	0.8013	976.4	2
308.15	0.9002	1009.9	2.1
308.15	1	1049.8	2.1
313.15	0	803.9	1.6
313.15	0.1003	818.4	1.6
313.15	0.1998	834.5	1.7
313.15	0.3011	851.9	1.7
313.15	0.4001	870.4	1.8
313.15	0.5007	891.4	1.8
313.15	0.5987	913.9	1.8
313.15	0.7003	940	1.9
313.15	0.8013	969.9	2
313.15	0.9002	1003	2
313.15	1	1042.5	2.1
318.15	0	800.1	1.6
318.15	0.1003	814.3	1.6
318.15	0.1998	830.2	1.7
318.15	0.3011	847.2	1.7
318.15	0.4001	865.3	1.7
318.15	0.5007	886.1	1.8
318.15	0.5987	908.3	1.8
318.15	0.7003	934	1.9
318.15	0.8013	963.5	2
318.15	0.9002	996.4	2
318.15	1	1035.6	2.1
323.15	0	796.2	1.6
323.15	0.1003	810.1	1.6
323.15	0.1998	825.7	1.7
323.15	0.3011	842.4	1.7
323.15	0.4001	860.1	1.7
323.15	0.5007	880.6	1.8
323.15	0.5987	902.5	1.8
323.15	0.7003	927.8	1.9
323.15	0.8013	957	1.9
323.15	0.9002	989.6	2
323.15	1	1028.4	2.1

System: hexan-1-ol + dimethyl carbonate; phases: Liquid
Fixed: Pressure, kPa = 100
Property: Viscosity, Pa*s (Liquid); method: Capillary tube (Ostwald; Ubbelohde) method
Temperature, K	Mole fraction of dimethyl carbonate	Viscosity, Pa*s	uncertainty
293.15	0	0.00536	0.00097
293.15	0.1003	0.00353	0.00064
293.15	0.1998	0.00247	0.00044
293.15	0.3011	0.00187	0.00034
293.15	0.4001	0.00151	0.00027
293.15	0.5007	0.00124	0.00022
293.15	0.5987	0.00095	0.00017
293.15	0.7003	0.00077	0.00014
293.15	0.8013	0.00071	0.00013
293.15	0.9002	0.00061	0.00011
293.15	1	0.00062	0.00011
298.15	0	0.00445	0.0008
298.15	0.1003	0.00306	0.00055
298.15	0.1998	0.00217	0.00039
298.15	0.3011	0.00166	0.0003
298.15	0.4001	0.00134	0.00024
298.15	0.5007	0.00112	0.0002
298.15	0.5987	0.00092	0.00017
298.15	0.7003	0.00077	0.00014
298.15	0.8013	0.00066	0.00012
298.15	0.9002	0.00057	0.0001
298.15	1	0.00058	0.0001
303.15	0	0.0039	0.0007
303.15	0.1003	0.00267	0.00048
303.15	0.1998	0.00193	0.00035
303.15	0.3011	0.00148	0.00027
303.15	0.4001	0.00123	0.00022
303.15	0.5007	0.00102	0.00018
303.15	0.5987	0.00084	0.00015
303.15	0.7003	0.00072	0.00013
303.15	0.8013	0.00061	0.00011
303.15	0.9002	0.00054	0.0001
303.15	1	0.0005	9e-05
308.15	0	0.00335	0.0006
308.15	0.1003	0.00235	0.00042
308.15	0.1998	0.00171	0.00031
308.15	0.3011	0.00133	0.00024
308.15	0.4001	0.00107	0.00019
308.15	0.5007	0.00093	0.00017
308.15	0.5987	0.00078	0.00014
308.15	0.7003	0.00067	0.00012
308.15	0.8013	0.00057	0.0001
308.15	0.9002	0.00053	0.0001
308.15	1	0.00047	8e-05
313.15	0	0.0029	0.00052
313.15	0.1003	0.00207	0.00037
313.15	0.1998	0.00153	0.00028
313.15	0.3011	0.00121	0.00022
313.15	0.4001	0.00099	0.00018
313.15	0.5007	0.00086	0.00016
313.15	0.5987	0.00072	0.00013
313.15	0.7003	0.00062	0.00011
313.15	0.8013	0.00053	0.0001
313.15	0.9002	0.00048	9e-05
313.15	1	0.00045	8e-05
318.15	0	0.00252	0.00045
318.15	0.1003	0.00183	0.00033
318.15	0.1998	0.00137	0.00025
318.15	0.3011	0.00109	0.0002
318.15	0.4001	0.00091	0.00016
318.15	0.5007	0.00079	0.00014
318.15	0.5987	0.00067	0.00012
318.15	0.7003	0.00058	0.0001
318.15	0.8013	0.00051	9e-05
318.15	0.9002	0.00046	8e-05
318.15	1	0.00043	8e-05
323.15	0	0.0022	0.0004
323.15	0.1003	0.00163	0.00029
323.15	0.1998	0.00124	0.00022
323.15	0.3011	0.00099	0.00018
323.15	0.4001	0.00084	0.00015
323.15	0.5007	0.00073	0.00013
323.15	0.5987	0.00063	0.00011
323.15	0.7003	0.00055	0.0001
323.15	0.8013	0.00048	9e-05
323.15	0.9002	0.00043	8e-05
323.15	1	0.00038	7e-05

System: hexan-1-ol + dimethyl carbonate; phases: Liquid
Fixed: Pressure, kPa = 100
Property: Refractive index (Na D-line) (Liquid); method: Standard Abbe refractometry
Temperature, K	Mole fraction of dimethyl carbonate	Refractive index (Na D-line)	uncertainty
293.15	0	1.4172	0.0198
293.15	0.1003	1.4128	0.0198
293.15	0.1998	1.4083	0.0197
293.15	0.3011	1.4039	0.0197
293.15	0.4001	1.3995	0.0196
293.15	0.5007	1.3949	0.0195
293.15	0.5987	1.3903	0.0195
293.15	0.7003	1.3855	0.0194
293.15	0.8013	1.3807	0.0193
293.15	0.9002	1.3758	0.0193
293.15	1	1.3699	0.0192
298.15	0	1.4159	0.0198
298.15	0.1003	1.4114	0.0198
298.15	0.1998	1.4067	0.0197
298.15	0.3011	1.4021	0.0196
298.15	0.4001	1.3976	0.0196
298.15	0.5007	1.3927	0.0195
298.15	0.5987	1.3878	0.0194
298.15	0.7003	1.3828	0.0194
298.15	0.8013	1.3776	0.0193
298.15	0.9002	1.3724	0.0192
298.15	1	1.3661	0.0191
303.15	0	1.4143	0.0198
303.15	0.1003	1.4099	0.0197
303.15	0.1998	1.4053	0.0197
303.15	0.3011	1.4009	0.0196
303.15	0.4001	1.3964	0.0196
303.15	0.5007	1.3917	0.0195
303.15	0.5987	1.3868	0.0194
303.15	0.7003	1.3818	0.0193
303.15	0.8013	1.3768	0.0193
303.15	0.9002	1.3716	0.0192
303.15	1	1.3652	0.0191
308.15	0	1.4123	0.0198
308.15	0.1003	1.408	0.0197
308.15	0.1998	1.4036	0.0197
308.15	0.3011	1.3992	0.0196
308.15	0.4001	1.3949	0.0195
308.15	0.5007	1.3903	0.0195
308.15	0.5987	1.3855	0.0194
308.15	0.7003	1.3806	0.0193
308.15	0.8013	1.3757	0.0193
308.15	0.9002	1.3706	0.0192
308.15	1	1.3644	0.0191
313.15	0	1.4105	0.0197
313.15	0.1003	1.4063	0.0197
313.15	0.1998	1.4018	0.0196
313.15	0.3011	1.3974	0.0196
313.15	0.4001	1.3931	0.0195
313.15	0.5007	1.3885	0.0194
313.15	0.5987	1.3837	0.0194
313.15	0.7003	1.3788	0.0193
313.15	0.8013	1.3739	0.0192
313.15	0.9002	1.3687	0.0192
313.15	1	1.3624	0.0191
318.15	0	1.4177	0.0198
318.15	0.1003	1.413	0.0198
318.15	0.1998	1.4081	0.0197
318.15	0.3011	1.4032	0.0196
318.15	0.4001	1.3982	0.0196
318.15	0.5007	1.3929	0.0195
318.15	0.5987	1.3873	0.0194
318.15	0.7003	1.3817	0.0193
318.15	0.8013	1.3758	0.0193
318.15	0.9002	1.3697	0.0192
318.15	1	1.3622	0.0191
323.15	0	1.4148	0.0198
323.15	0.1003	1.4102	0.0197
323.15	0.1998	1.4053	0.0197
323.15	0.3011	1.4004	0.0196
323.15	0.4001	1.3954	0.0195
323.15	0.5007	1.39	0.0195
323.15	0.5987	1.3844	0.0194
323.15	0.7003	1.3788	0.0193
323.15	0.8013	1.3729	0.0192
323.15	0.9002	1.3666	0.0191
323.15	1	1.3591	0.019

System: octan-1-ol + dimethyl carbonate; phases: Liquid
Fixed: Pressure, kPa = 100
Property: Mass density, kg/m3 (Liquid); method: Vibrating tube method
Temperature, K	Mole fraction of dimethyl carbonate	Mass density, kg/m3	uncertainty
293.15	0	824.6	1.7
293.15	0.1003	836.4	1.7
293.15	0.2001	849.9	1.7
293.15	0.2997	865	1.7
293.15	0.4005	882.3	1.8
293.15	0.5004	902.2	1.8
293.15	0.5996	924.9	1.9
293.15	0.7001	951.8	2
293.15	0.8001	983.1	2
293.15	0.9005	1020.8	2.2
293.15	1	1069.6	2.2
298.15	0	820.7	1.6
298.15	0.1003	832.2	1.7
298.15	0.2001	845.5	1.7
298.15	0.2997	860.4	1.7
298.15	0.4005	877.4	1.8
298.15	0.5004	896.9	1.8
298.15	0.5996	919.4	1.9
298.15	0.7001	946	1.9
298.15	0.8001	977.1	2
298.15	0.9005	1014.4	2.2
298.15	1	1062.8	2.1
303.15	0	817.2	1.6
303.15	0.1003	828.5	1.7
303.15	0.2001	841.6	1.7
303.15	0.2997	856.1	1.7
303.15	0.4005	872.7	1.8
303.15	0.5004	891.9	1.8
303.15	0.5996	913.9	1.9
303.15	0.7001	940.3	1.9
303.15	0.8001	971.1	2
303.15	0.9005	1008.1	2.2
303.15	1	1056.2	2.1
308.15	0	813.8	1.6
308.15	0.1003	824.8	1.7
308.15	0.2001	837.7	1.7
308.15	0.2997	852	1.7
308.15	0.4005	868.3	1.7
308.15	0.5004	887.1	1.8
308.15	0.5996	908.9	1.8
308.15	0.7001	935	1.9
308.15	0.8001	965.4	2
308.15	0.9005	1002.1	2.2
308.15	1	1049.8	2.1
313.15	0	810.6	1.6
313.15	0.1003	821.2	1.6
313.15	0.2001	833.9	1.7
313.15	0.2997	847.9	1.7
313.15	0.4005	863.8	1.7
313.15	0.5004	882.2	1.8
313.15	0.5996	903.6	1.8
313.15	0.7001	929.3	1.9
313.15	0.8001	959.2	2
313.15	0.9005	995.4	2.1
313.15	1	1042.5	2.1
318.15	0	806.9	1.6
318.15	0.1003	817.2	1.6
318.15	0.2001	829.6	1.7
318.15	0.2997	843.3	1.7
318.15	0.4005	858.9	1.7
318.15	0.5004	877.1	1.8
318.15	0.5996	897.9	1.8
318.15	0.7001	923.3	1.9
318.15	0.8001	952.9	2
318.15	0.9005	988.9	2.1
318.15	1	1035.6	2.1
323.15	0	803.9	1.6
323.15	0.1003	813.8	1.6
323.15	0.2001	826	1.7
323.15	0.2997	839.4	1.7
323.15	0.4005	854.6	1.7
323.15	0.5004	872.4	1.8
323.15	0.5996	892.9	1.8
323.15	0.7001	917.8	1.9
323.15	0.8001	946.8	2
323.15	0.9005	982.4	2.1
323.15	1	1028.4	2.1

System: octan-1-ol + dimethyl carbonate; phases: Liquid
Fixed: Pressure, kPa = 100
Property: Viscosity, Pa*s (Liquid); method: Capillary tube (Ostwald; Ubbelohde) method
Temperature, K	Mole fraction of dimethyl carbonate	Viscosity, Pa*s	uncertainty
293.15	0	0.0092	0.00166
293.15	0.1003	0.00622	0.00112
293.15	0.2001	0.0044	0.00079
293.15	0.2997	0.00328	0.00059
293.15	0.4005	0.00244	0.00044
293.15	0.5004	0.00183	0.00033
293.15	0.5996	0.00139	0.00025
293.15	0.7001	0.00108	0.00019
293.15	0.8001	0.00085	0.00015
293.15	0.9005	0.00066	0.00012
293.15	1	0.00062	0.00011
298.15	0	0.00767	0.00138
298.15	0.1003	0.00535	0.00096
298.15	0.2001	0.00386	0.0007
298.15	0.2997	0.00287	0.00052
298.15	0.4005	0.00214	0.00039
298.15	0.5004	0.00163	0.00029
298.15	0.5996	0.00125	0.00023
298.15	0.7001	0.00098	0.00018
298.15	0.8001	0.00078	0.00014
298.15	0.9005	0.00061	0.00011
298.15	1	0.00058	0.0001
303.15	0	0.00631	0.00114
303.15	0.1003	0.00458	0.00082
303.15	0.2001	0.00345	0.00062
303.15	0.2997	0.00252	0.00045
303.15	0.4005	0.0019	0.00034
303.15	0.5004	0.00146	0.00026
303.15	0.5996	0.00113	0.0002
303.15	0.7001	0.0009	0.00016
303.15	0.8001	0.00072	0.00013
303.15	0.9005	0.00058	0.0001
303.15	1	0.0005	9e-05
308.15	0	0.00537	0.00097
308.15	0.1003	0.00394	0.00071
308.15	0.2001	0.00293	0.00053
308.15	0.2997	0.00222	0.0004
308.15	0.4005	0.00169	0.0003
308.15	0.5004	0.00131	0.00024
308.15	0.5996	0.00103	0.00019
308.15	0.7001	0.00083	0.00015
308.15	0.8001	0.00067	0.00012
308.15	0.9005	0.00054	0.0001
308.15	1	0.00047	8e-05
313.15	0	0.00461	0.00083
313.15	0.1003	0.00341	0.00061
313.15	0.2001	0.00261	0.00047
313.15	0.2997	0.00197	0.00035
313.15	0.4005	0.0015	0.00027
313.15	0.5004	0.00118	0.00021
313.15	0.5996	0.00094	0.00017
313.15	0.7001	0.00077	0.00014
313.15	0.8001	0.00062	0.00011
313.15	0.9005	0.00051	9e-05
313.15	1	0.00045	8e-05
318.15	0	0.00397	0.00071
318.15	0.1003	0.00297	0.00053
318.15	0.2001	0.00224	0.0004
318.15	0.2997	0.00176	0.00032
318.15	0.4005	0.00135	0.00024
318.15	0.5004	0.00108	0.00019
318.15	0.5996	0.00086	0.00016
318.15	0.7001	0.00071	0.00013
318.15	0.8001	0.00058	0.0001
318.15	0.9005	0.00048	9e-05
318.15	1	0.00043	8e-05
323.15	0	0.00344	0.00062
323.15	0.1003	0.00261	0.00047
323.15	0.2001	0.00199	0.00036
323.15	0.2997	0.00158	0.00028
323.15	0.4005	0.00122	0.00022
323.15	0.5004	0.00098	0.00018
323.15	0.5996	0.0008	0.00014
323.15	0.7001	0.00066	0.00012
323.15	0.8001	0.00054	0.0001
323.15	0.9005	0.00045	8e-05
323.15	1	0.00038	7e-05

System: octan-1-ol + dimethyl carbonate; phases: Liquid
Fixed: Pressure, kPa = 100
Property: Refractive index (Na D-line) (Liquid); method: Standard Abbe refractometry
Temperature, K	Mole fraction of dimethyl carbonate	Refractive index (Na D-line)	uncertainty
293.15	0	1.4285	0.02
293.15	0.1003	1.4242	0.0199
293.15	0.2001	1.4199	0.0199
293.15	0.2997	1.4155	0.0198
293.15	0.4005	1.4108	0.0198
293.15	0.5004	1.4055	0.0197
293.15	0.5996	1.3998	0.0196
293.15	0.7001	1.3933	0.0195
293.15	0.8001	1.3862	0.0194
293.15	0.9005	1.3786	0.0193
293.15	1	1.3699	0.0192
298.15	0	1.4268	0.02
298.15	0.1003	1.4224	0.0199
298.15	0.2001	1.418	0.0199
298.15	0.2997	1.4135	0.0198
298.15	0.4005	1.4086	0.0197
298.15	0.5004	1.4032	0.0196
298.15	0.5996	1.3973	0.0196
298.15	0.7001	1.3905	0.0195
298.15	0.8001	1.3831	0.0194
298.15	0.9005	1.3752	0.0193
298.15	1	1.3661	0.0191
303.15	0	1.4261	0.02
303.15	0.1003	1.4217	0.0199
303.15	0.2001	1.4173	0.0198
303.15	0.2997	1.4128	0.0198
303.15	0.4005	1.4079	0.0197
303.15	0.5004	1.4025	0.0196
303.15	0.5996	1.3966	0.0196
303.15	0.7001	1.3898	0.0195
303.15	0.8001	1.3824	0.0194
303.15	0.9005	1.3745	0.0192
303.15	1	1.3652	0.0191
308.15	0	1.4237	0.0199
308.15	0.1003	1.4196	0.0199
308.15	0.2001	1.4153	0.0198
308.15	0.2997	1.4109	0.0198
308.15	0.4005	1.4061	0.0197
308.15	0.5004	1.4008	0.0196
308.15	0.5996	1.3951	0.0195
308.15	0.7001	1.3884	0.0194
308.15	0.8001	1.3812	0.0193
308.15	0.9005	1.3734	0.0192
308.15	1	1.3644	0.0191
313.15	0	1.4217	0.0199
313.15	0.1003	1.4176	0.0198
313.15	0.2001	1.4133	0.0198
313.15	0.2997	1.4089	0.0197
313.15	0.4005	1.4042	0.0197
313.15	0.5004	1.3989	0.0196
313.15	0.5996	1.3932	0.0195
313.15	0.7001	1.3865	0.0194
313.15	0.8001	1.3793	0.0193
313.15	0.9005	1.3715	0.0192
313.15	1	1.3624	0.0191
318.15	0	1.4299	0.02
318.15	0.1003	1.4255	0.02
318.15	0.2001	1.4206	0.0199
318.15	0.2997	1.4157	0.0198
318.15	0.4005	1.4103	0.0197
318.15	0.5004	1.4044	0.0197
318.15	0.5996	1.3978	0.0196
318.15	0.7001	1.3902	0.0195
318.15	0.8001	1.3819	0.0193
318.15	0.9005	1.3729	0.0192
318.15	1	1.3622	0.0191
323.15	0	1.4277	0.02
323.15	0.1003	1.4232	0.0199
323.15	0.2001	1.4184	0.0199
323.15	0.2997	1.4134	0.0198
323.15	0.4005	1.4079	0.0197
323.15	0.5004	1.4019	0.0196
323.15	0.5996	1.3952	0.0195
323.15	0.7001	1.3876	0.0194
323.15	0.8001	1.3792	0.0193
323.15	0.9005	1.37	0.0192
323.15	1	1.3591	0.019
