Measured thermophysical data. Measurement of Critical Properties for Binary and Ternary Mixtures Containing n-Butanol and n-Alkane
Source: J. Chem. Eng. Data, 2018, 10.1021/acs.jced.8b00585
Compound 1: butan-1-ol, C4H10O, InChI=1S/C4H10O/c1-2-3-4-5/h5H,2-4H2,1H3, purity 99.5%
Compound 2: hexane, C6H14, InChI=1S/C6H14/c1-3-5-6-4-2/h3-6H2,1-2H3, purity 99.5%
Compound 3: heptane, C7H16, InChI=1S/C7H16/c1-3-5-7-6-4-2/h3-7H2,1-2H3, purity 99.5%
Compound 4: octane, C8H18, InChI=1S/C8H18/c1-3-5-7-8-6-4-2/h3-8H2,1-2H3, purity 99.5%
Compound 5: nonane, C9H20, InChI=1S/C9H20/c1-3-5-7-9-8-6-4-2/h3-9H2,1-2H3, purity 99.5%
Compound 6: decane, C10H22, InChI=1S/C10H22/c1-3-5-7-9-10-8-6-4-2/h3-10H2,1-2H3, purity 99.5%

System: butan-1-ol; phases: Liquid, Gas
Property: Critical temperature, K (Liquid); method: Visual observation in an unstirred cell
Critical temperature, K	uncertainty
563	0.4

System: butan-1-ol; phases: Liquid, Gas
Property: Critical pressure, kPa (Liquid); method: Direct measurement
Critical pressure, kPa	uncertainty
4406	22

System: hexane; phases: Liquid, Gas
Property: Critical temperature, K (Liquid); method: Visual observation in an unstirred cell
Critical temperature, K	uncertainty
507.8	0.4

System: hexane; phases: Liquid, Gas
Property: Critical pressure, kPa (Liquid); method: Direct measurement
Critical pressure, kPa	uncertainty
3033	18

System: heptane; phases: Liquid, Gas
Property: Critical temperature, K (Liquid); method: Visual observation in an unstirred cell
Critical temperature, K	uncertainty
540.1	0.4

System: heptane; phases: Liquid, Gas
Property: Critical pressure, kPa (Liquid); method: Direct measurement
Critical pressure, kPa	uncertainty
2736	17

System: octane; phases: Liquid, Gas
Property: Critical temperature, K (Liquid); method: Visual observation in an unstirred cell
Critical temperature, K	uncertainty
568.9	0.4

System: octane; phases: Liquid, Gas
Property: Critical pressure, kPa (Liquid); method: Direct measurement
Critical pressure, kPa	uncertainty
2496	16

System: nonane; phases: Liquid, Gas
Property: Critical temperature, K (Liquid); method: Visual observation in an unstirred cell
Critical temperature, K	uncertainty
594.5	0.4

System: nonane; phases: Liquid, Gas
Property: Critical pressure, kPa (Liquid); method: Direct measurement
Critical pressure, kPa	uncertainty
2278	16

System: decane; phases: Liquid, Gas
Property: Critical temperature, K (Liquid); method: Visual observation in an unstirred cell
Critical temperature, K	uncertainty
617.7	0.4

System: decane; phases: Liquid, Gas
Property: Critical pressure, kPa (Liquid); method: Direct measurement
Critical pressure, kPa	uncertainty
2106	15

System: butan-1-ol + hexane; phases: Liquid, Gas
Property: Critical temperature, K (Liquid); method: Visual observation in an unstirred cell
Mass fraction of butan-1-ol	Critical temperature, K	uncertainty
0.1	509.6	0.5
0.2	511.5	0.5
0.3	515	0.7
0.4	521.2	0.9
0.5	528.3	0.9
0.6	534.4	0.9
0.7	542.1	0.9
0.8	548.5	1.1
0.9	558.1	1.2

System: butan-1-ol + hexane; phases: Liquid, Gas
Property: Critical pressure, kPa (Liquid); method: Direct measurement
Mass fraction of butan-1-ol	Critical pressure, kPa	uncertainty
0.1	3145	18
0.2	3262	19
0.3	3396	20
0.4	3534	23
0.5	3719	24
0.6	3887	21
0.7	4003	20
0.8	4146	21
0.9	4291	21

System: butan-1-ol + heptane; phases: Liquid, Gas
Property: Critical temperature, K (Liquid); method: Visual observation in an unstirred cell
Mass fraction of butan-1-ol	Critical temperature, K	uncertainty
0.1	537.1	0.5
0.2	535.3	0.4
0.3	535.2	0.4
0.4	537	0.5
0.5	538.4	0.5
0.6	542.3	0.7
0.7	547.3	0.7
0.8	551.1	0.7
0.9	556.1	0.7

System: butan-1-ol + heptane; phases: Liquid, Gas
Property: Critical pressure, kPa (Liquid); method: Direct measurement
Mass fraction of butan-1-ol	Critical pressure, kPa	uncertainty
0.1	2945	20
0.2	3077	21
0.3	3235	22
0.4	3384	20
0.5	3512	23
0.6	3706	24
0.7	3863	26
0.8	4084	25
0.9	4232	21

System: butan-1-ol + octane; phases: Liquid, Gas
Property: Critical temperature, K (Liquid); method: Visual observation in an unstirred cell
Mass fraction of butan-1-ol	Critical temperature, K	uncertainty
0.1	562.8	0.9
0.2	556.3	0.7
0.3	554.3	0.5
0.4	553.1	0.4
0.5	552.1	0.4
0.6	552.5	0.4
0.7	553.5	0.5
0.8	554.9	0.5
0.9	558.9	0.6

System: butan-1-ol + octane; phases: Liquid, Gas
Property: Critical pressure, kPa (Liquid); method: Direct measurement
Mass fraction of butan-1-ol	Critical pressure, kPa	uncertainty
0.1	2771	26
0.2	2962	25
0.3	3136	25
0.4	3325	26
0.5	3514	23
0.6	3655	23
0.7	3844	27
0.8	4059	28
0.9	4260	27

System: butan-1-ol + nonane; phases: Liquid, Gas
Property: Critical temperature, K (Liquid); method: Visual observation in an unstirred cell
Mass fraction of butan-1-ol	Critical temperature, K	uncertainty
0.1	585.3	1.1
0.2	576.7	1
0.3	570.7	0.7
0.4	566.7	0.6
0.5	563.6	0.5
0.6	562.1	0.4
0.7	561.5	0.4
0.8	561.7	0.4
0.9	562.6	0.4

System: butan-1-ol + nonane; phases: Liquid, Gas
Property: Critical pressure, kPa (Liquid); method: Direct measurement
Mass fraction of butan-1-ol	Critical pressure, kPa	uncertainty
0.1	2652	37
0.2	2941	35
0.3	3205	29
0.4	3374	23
0.5	3528	23
0.6	3706	22
0.7	3842	24
0.8	4045	26
0.9	4224	25

System: butan-1-ol + decane; phases: Liquid, Gas
Property: Critical temperature, K (Liquid); method: Visual observation in an unstirred cell
Mass fraction of butan-1-ol	Critical temperature, K	uncertainty
0.1	603.3	1.2
0.2	593.7	1.1
0.3	586.9	0.9
0.4	580.6	0.8
0.5	574.8	0.8
0.6	570	0.7
0.7	566.2	0.6
0.8	564	0.5
0.9	563.7	0.4

System: butan-1-ol + decane; phases: Liquid, Gas
Property: Critical pressure, kPa (Liquid); method: Direct measurement
Mass fraction of butan-1-ol	Critical pressure, kPa	uncertainty
0.1	2562	42
0.2	2899	40
0.3	3194	33
0.4	3405	29
0.5	3634	26
0.6	3786	22
0.7	3948	21
0.8	4080	23
0.9	4275	26

System: butan-1-ol + hexane + heptane; phases: Liquid, Gas
Property: Critical temperature, K (Liquid); method: Visual observation in an unstirred cell
Mass fraction of butan-1-ol	Mass fraction of hexane	Critical temperature, K	uncertainty
0.1	0.1	535.2	0.6
0.1	0.2	532.4	0.6
0.1	0.3	528.6	0.6
0.1	0.4	525	0.6
0.1	0.5	521.7	0.6
0.1	0.6	520.1	0.6
0.1	0.7	515.2	0.6
0.1	0.8	512.9	0.5
0.2	0.1	532.8	0.6
0.2	0.2	530.1	0.6
0.2	0.3	527.4	0.6
0.2	0.4	524.5	0.6
0.2	0.5	520.6	0.5
0.2	0.6	519.2	0.6
0.2	0.7	514.4	0.7
0.3	0.1	532.1	0.7
0.3	0.2	529.1	0.6
0.3	0.3	526.1	0.5
0.3	0.4	524.2	0.6
0.3	0.5	520	0.6
0.3	0.6	516.7	0.7
0.4	0.1	536	0.6
0.4	0.2	533.6	0.8
0.4	0.3	527.8	0.8
0.4	0.4	526.2	0.7
0.4	0.5	522.1	0.7
0.5	0.1	537.6	0.6
0.5	0.2	536.1	0.7
0.5	0.3	533.6	0.7
0.5	0.4	531.3	0.8
0.6	0.1	542.3	0.7
0.6	0.2	541.9	0.8
0.6	0.3	536.2	0.9
0.7	0.1	547	0.7
0.7	0.2	545.5	0.6
0.8	0.1	550.6	0.6

System: butan-1-ol + hexane + heptane; phases: Liquid, Gas
Property: Critical pressure, kPa (Liquid); method: Direct measurement
Mass fraction of butan-1-ol	Mass fraction of hexane	Critical pressure, kPa	uncertainty
0.1	0.1	2974	19
0.1	0.2	2994	24
0.1	0.3	3032	24
0.1	0.4	3052	22
0.1	0.5	3101	21
0.1	0.6	3116	21
0.1	0.7	3145	21
0.1	0.8	3159	20
0.2	0.1	3096	22
0.2	0.2	3170	23
0.2	0.3	3194	21
0.2	0.4	3210	22
0.2	0.5	3234	21
0.2	0.6	3264	21
0.2	0.7	3282	20
0.3	0.1	3261	24
0.3	0.2	3298	21
0.3	0.3	3321	21
0.3	0.4	3356	22
0.3	0.5	3377	23
0.3	0.6	3395	20
0.4	0.1	3428	24
0.4	0.2	3449	23
0.4	0.3	3487	24
0.4	0.4	3506	24
0.4	0.5	3556	25
0.5	0.1	3613	24
0.5	0.2	3624	24
0.5	0.3	3657	25
0.5	0.4	3693	26
0.6	0.1	3776	22
0.6	0.2	3798	29
0.6	0.3	3852	27
0.7	0.1	3924	29
0.7	0.2	4060	37
0.8	0.1	4167	35

System: butan-1-ol + heptane + octane; phases: Liquid, Gas
Property: Critical temperature, K (Liquid); method: Visual observation in an unstirred cell
Mass fraction of butan-1-ol	Mass fraction of heptane	Critical temperature, K	uncertainty
0.1	0.1	559.4	0.7
0.1	0.2	557.6	0.8
0.1	0.3	554	0.8
0.1	0.4	551.7	0.7
0.1	0.5	547.9	0.8
0.1	0.6	545.5	0.6
0.1	0.7	542.9	0.8
0.1	0.8	540.3	0.8
0.2	0.1	555.2	0.7
0.2	0.2	552.5	0.7
0.2	0.3	550	0.7
0.2	0.4	547.8	0.7
0.2	0.5	544	0.6
0.2	0.6	542.3	0.7
0.2	0.7	538.3	0.8
0.3	0.1	552.1	0.6
0.3	0.2	549.4	0.6
0.3	0.3	546.9	0.6
0.3	0.4	544	0.6
0.3	0.5	541.9	0.6
0.3	0.6	538.8	0.7
0.4	0.1	550.4	0.5
0.4	0.2	548.9	0.5
0.4	0.3	544.7	0.6
0.4	0.4	542.8	0.5
0.4	0.5	539.9	0.6
0.5	0.1	551.1	0.5
0.5	0.2	549.1	0.5
0.5	0.3	545.9	0.5
0.5	0.4	544.7	0.5
0.6	0.1	552.1	0.5
0.6	0.2	549.5	0.6
0.6	0.3	546.1	0.6
0.7	0.1	552.3	0.6
0.7	0.2	549.8	0.5
0.8	0.1	554.1	0.6

System: butan-1-ol + heptane + octane; phases: Liquid, Gas
Property: Critical pressure, kPa (Liquid); method: Direct measurement
Mass fraction of butan-1-ol	Mass fraction of heptane	Critical pressure, kPa	uncertainty
0.1	0.1	2776	28
0.1	0.2	2812	25
0.1	0.3	2842	28
0.1	0.4	2858	26
0.1	0.5	2884	25
0.1	0.6	2886	25
0.1	0.7	2905	25
0.1	0.8	2921	25
0.2	0.1	2980	26
0.2	0.2	2987	25
0.2	0.3	3049	24
0.2	0.4	3056	23
0.2	0.5	3061	24
0.2	0.6	3074	26
0.2	0.7	3085	25
0.3	0.1	3166	26
0.3	0.2	3172	26
0.3	0.3	3183	23
0.3	0.4	3192	23
0.3	0.5	3224	23
0.3	0.6	3265	26
0.4	0.1	3358	24
0.4	0.2	3365	24
0.4	0.3	3374	24
0.4	0.4	3376	24
0.4	0.5	3387	23
0.5	0.1	3508	22
0.5	0.2	3515	22
0.5	0.3	3526	23
0.5	0.4	3531	22
0.6	0.1	3666	24
0.6	0.2	3679	25
0.6	0.3	3706	25
0.7	0.1	3857	27
0.7	0.2	3875	26
0.8	0.1	4067	28
