Measured thermophysical data. Speed of sound of oxygen in supercritical states up to 500 K and 100 MPa
Source: J. Chem. Eng. Data, 2016, 10.1021/acs.jced.5b01007
Compound 1: oxygen, O2, InChI=1S/O2/c1-2, purity 99.9985%

System: oxygen; phases: Fluid (supercritical or subcritical phases)
Fixed: Frequency, MHz = 8
Property: Speed of sound, m/s (Fluid (supercritical or subcritical phases)); method: Pulse-echo method
Temperature, K	Pressure, kPa	Speed of sound, m/s	uncertainty
499.027	4920	434.71	0.42
399.092	4960	388.03	0.4
499.031	5910	436.52	0.42
449.941	6010	414.33	0.41
399.091	6020	389.77	0.4
499.026	7820	440.23	0.42
399.09	7950	393.26	0.4
449.948	8010	418.16	0.41
349.978	8030	367.01	0.39
299.967	9920	340.22	0.38
449.936	9970	422.01	0.41
399.109	9980	397.34	0.4
498.943	10000	444.64	0.43
349.988	10070	370.9	0.39
299.965	14860	352.65	0.38
499.016	14940	455.31	0.43
349.99	14980	382.53	0.4
449.944	15000	433.26	0.42
399.095	15010	408.72	0.41
349.988	19640	396.03	0.4
399.064	19900	421.58	0.42
449.943	20010	445.6	1.11
299.969	20050	370.99	1.63
499.037	20070	467.39	1.06
499.014	24900	479.52	1.12
449.938	24940	458.85	1.19
349.988	24980	414.2	1.5
399.092	25010	436.72	1.3
299.97	25030	392.82	1.91
399.089	29900	452.47	1.4
498.999	29910	492.81	1.17
299.971	29960	417.33	2.1
349.977	29990	433.29	1.63
449.935	30000	473.4	1.26
499	34730	506.11	1.21
399.084	34890	469.6	1.47
299.972	34960	443.87	2.2
449.934	35030	488.6	1.31
349.987	35080	454.09	1.72
299.969	39960	471.2	2.23
399.081	39970	487.82	1.52
498.99	40010	521.13	1.24
449.934	40050	504.35	1.35
350.033	40050	475.39	1.78
499.004	44900	535.41	1.27
399.083	44980	506.29	1.55
349.986	45020	497.15	1.82
299.967	45030	498.92	2.22
449.94	45090	520.58	1.38
349.983	49900	518.73	1.83
449.939	49910	536.52	1.4
499.026	49930	550.29	1.28
299.966	50010	525.82	2.18
399.086	50090	525.43	1.57
499.03	54810	564.89	1.3
399.08	54970	543.88	1.59
449.896	55090	553.54	1.4
349.985	55110	541.66	1.82
299.966	55140	552.86	2.13
349.988	59910	562.59	1.8
498.888	60010	580.54	1.3
449.896	60070	570.12	1.42
399.077	60070	563.14	1.58
299.968	60160	578.47	2.07
399.082	64900	581.28	1.58
350.03	64930	584.11	1.82
299.966	64960	602.28	2.01
498.895	65000	595.63	1.31
449.888	65180	587.16	1.42
349.987	68690	600.07	1.7
299.966	69690	624.95	1.96
498.833	69940	610.55	1.31
399.083	70100	600.65	1.55
449.887	70120	603.58	1.41
299.997	74030	645.07	1.93
399.072	74590	617.2	1.55
498.908	74960	625.69	1.31
449.877	75270	620.61	1.4
349.976	78850	641.85	1.73
399.066	79990	636.78	1.54
498.918	79990	640.74	1.3
449.867	80010	636.12	1.4
399.051	83180	648.15	1.52
498.925	84890	655.27	1.29
449.883	85020	652.33	1.39
449.794	87520	660.32	1.38
449.95	88050	662.01	1.38
498.906	90000	670.28	1.29
498.901	95000	684.96	1.28
498.908	100060	699.53	1.28
