Measured thermophysical data. Solubility Measurement and Correlation of 2-Oxindole in 12 Pure Organic Solvents
Source: J. Chem. Eng. Data, 2019, 10.1021/acs.jced.9b00308
Compound 1: indolin-2-one, C8H7NO, InChI=1S/C8H7NO/c10-8-5-6-3-1-2-4-7(6)9-8/h1-4H,5H2,(H,9,10), purity 97%
Compound 2: acetonitrile, C2H3N, InChI=1S/C2H3N/c1-2-3/h1H3, purity 99.5%
Compound 3: dichloromethane, CH2Cl2, InChI=1S/CH2Cl2/c2-1-3/h1H2, purity 99.5%
Compound 4: 1,4-dioxane, C4H8O2, InChI=1S/C4H8O2/c1-2-6-4-3-5-1/h1-4H2, purity 99.5%
Compound 5: ethyl acetate, C4H8O2, InChI=1S/C4H8O2/c1-3-6-4(2)5/h3H2,1-2H3, purity 99.5%
Compound 6: acetone, C3H6O, InChI=1S/C3H6O/c1-3(2)4/h1-2H3, purity 99.5%
Compound 7: toluene, C7H8, InChI=1S/C7H8/c1-7-5-3-2-4-6-7/h2-6H,1H3, purity 99.5%
Compound 8: methanol, CH4O, InChI=1S/CH4O/c1-2/h2H,1H3, purity 99.5%
Compound 9: ethanol, C2H6O, InChI=1S/C2H6O/c1-2-3/h3H,2H2,1H3, purity 99.5%
Compound 10: propan-2-ol, C3H8O, InChI=1S/C3H8O/c1-3(2)4/h3-4H,1-2H3, purity 99.5%
Compound 11: tetrahydrofuran, C4H8O, InChI=1S/C4H8O/c1-2-4-5-3-1/h1-4H2, purity 99.5%
Compound 12: butan-1-ol, C4H10O, InChI=1S/C4H10O/c1-2-3-4-5/h5H,2-4H2,1H3, purity 99.5%
Compound 13: propan-1-ol, C3H8O, InChI=1S/C3H8O/c1-2-3-4/h4H,2-3H2,1H3, purity 99.5%

System: indolin-2-one; phases: Crystal 1, Liquid, Air at 1 atmosphere
Property: Triple point temperature, K (Crystal 1); method: DSC
Triple point temperature, K	uncertainty
393.93	4.06

System: indolin-2-one; phases: Crystal 1, Liquid, Air at 1 atmosphere
Property: Molar enthalpy of transition or fusion, kJ/mol (Crystal 1); method: DSC
Molar enthalpy of transition or fusion, kJ/mol	uncertainty
16.47	3.02

System: indolin-2-one + acetonitrile; phases: Liquid, Crystal 2
Fixed: Pressure, kPa = 100
Property: Mole fraction of indolin-2-one (Liquid); method: Titration method
Temperature, K	Mole fraction of indolin-2-one	uncertainty
287.15	0.05081	0.00509
292.15	0.06281	0.00629
296.15	0.07483	0.00749
300.15	0.08688	0.0087
304.15	0.101	0.0101
308.65	0.1234	0.0124
311.65	0.1457	0.0146
315.35	0.1708	0.0171
319.05	0.1959	0.0196
323.15	0.227	0.0227
328.15	0.2848	0.0285

System: indolin-2-one + dichloromethane; phases: Liquid, Crystal 2
Fixed: Pressure, kPa = 100
Property: Mole fraction of indolin-2-one (Liquid); method: Titration method
Temperature, K	Mole fraction of indolin-2-one	uncertainty
288.15	0.03527	0.00353
292.15	0.03833	0.00383
296.15	0.04194	0.0042
300.15	0.04519	0.00452
304.15	0.04853	0.00485
308.65	0.0519	0.00519
311.65	0.05521	0.00552

System: indolin-2-one + 1,4-dioxane; phases: Liquid, Crystal 1
Fixed: Pressure, kPa = 100
Property: Mole fraction of indolin-2-one (Liquid); method: Titration method
Temperature, K	Mole fraction of indolin-2-one	uncertainty
287.15	0.2755	0.0276
292.15	0.3094	0.031
296.15	0.3357	0.0336
300.15	0.3634	0.0364
304.15	0.3936	0.0394
308.65	0.421	0.0421
311.65	0.4479	0.0448
315.35	0.4754	0.0476
319.05	0.502	0.0498
323.15	0.5286	0.0472
328.15	0.5672	0.0433

System: indolin-2-one + ethyl acetate; phases: Liquid, Crystal 2
Fixed: Pressure, kPa = 100
Property: Mole fraction of indolin-2-one (Liquid); method: Titration method
Temperature, K	Mole fraction of indolin-2-one	uncertainty
287.15	0.1405	0.0141
292.15	0.1559	0.0156
296.15	0.1689	0.0169
300.15	0.1836	0.0184
304.15	0.1977	0.0198
308.65	0.2151	0.0215
311.65	0.2327	0.0233
315.35	0.2475	0.0248
319.05	0.2703	0.027
323.15	0.2874	0.0288
328.15	0.3202	0.032

System: indolin-2-one + acetone; phases: Liquid, Crystal 1
Fixed: Pressure, kPa = 100
Property: Mole fraction of indolin-2-one (Liquid); method: Titration method
Temperature, K	Mole fraction of indolin-2-one	uncertainty
288.15	0.04983	0.00499
294.05	0.06025	0.00603
299.35	0.07065	0.00707
304.55	0.08119	0.00812
309.65	0.09194	0.0092
314.45	0.1023	0.0102
319.55	0.1122	0.0112
325.55	0.1223	0.0122
328.25	0.1267	0.0127

System: indolin-2-one + toluene; phases: Liquid, Crystal 1
Fixed: Pressure, kPa = 100
Property: Mole fraction of indolin-2-one (Liquid); method: Titration method
Temperature, K	Mole fraction of indolin-2-one	uncertainty
291.95	0.003185	0.00032
297.95	0.005264	0.000528
302.95	0.007965	0.0008
307.65	0.01207	0.00121
312.55	0.01798	0.0018
317.45	0.0258	0.00259
322.15	0.0389	0.00391
327.35	0.06147	0.00617
332.05	0.08476	0.00849

System: indolin-2-one + methanol; phases: Liquid, Crystal 1
Fixed: Pressure, kPa = 100
Property: Mole fraction of indolin-2-one (Liquid); method: Titration method
Temperature, K	Mole fraction of indolin-2-one	uncertainty
291.95	0.004408	0.000441
297.95	0.005626	0.000563
302.95	0.00688	0.000689
307.65	0.008211	0.000822
312.55	0.009769	0.000978
317.45	0.01192	0.00119
322.15	0.01365	0.00137
327.35	0.01628	0.00163
332.35	0.01898	0.0019

System: indolin-2-one + ethanol; phases: Liquid, Crystal 1
Fixed: Pressure, kPa = 100
Property: Mole fraction of indolin-2-one (Liquid); method: Titration method
Temperature, K	Mole fraction of indolin-2-one	uncertainty
291.95	0.008422	0.000846
297.95	0.01342	0.00135
302.95	0.01864	0.00187
307.65	0.02528	0.00253
312.55	0.03237	0.00324
318.05	0.04583	0.00459
322.65	0.05685	0.00569
327.95	0.07419	0.00743
332.65	0.09522	0.00953

System: indolin-2-one + propan-2-ol; phases: Liquid, Crystal 2
Fixed: Pressure, kPa = 100
Property: Mole fraction of indolin-2-one (Liquid); method: Titration method
Temperature, K	Mole fraction of indolin-2-one	uncertainty
291.95	0.006735	0.000675
297.95	0.009192	0.000921
303.05	0.01216	0.00122
308.35	0.01549	0.00155
313.15	0.01925	0.00193
317.45	0.02323	0.00233
322.15	0.02866	0.00287
328.35	0.0355	0.00355
333.35	0.04426	0.00443

System: indolin-2-one + tetrahydrofuran; phases: Liquid, Crystal 1
Fixed: Pressure, kPa = 100
Property: Mole fraction of indolin-2-one (Liquid); method: Titration method
Temperature, K	Mole fraction of indolin-2-one	uncertainty
293.85	0.01162	0.00116
298.65	0.01329	0.00133
302.95	0.01549	0.00155
307.25	0.01806	0.00181
312.55	0.021	0.0021
317.05	0.02432	0.00243
321.35	0.02762	0.00276
327.35	0.03271	0.00327
333.95	0.03972	0.00397

System: indolin-2-one + butan-1-ol; phases: Liquid, Crystal 1
Fixed: Pressure, kPa = 100
Property: Mole fraction of indolin-2-one (Liquid); method: Titration method
Temperature, K	Mole fraction of indolin-2-one	uncertainty
293.85	0.002965	0.000297
298.65	0.003793	0.00038
302.95	0.004677	0.000468
307.25	0.005456	0.000546
312.55	0.006737	0.000674
317.05	0.007927	0.000794
321.35	0.009524	0.000953
327.35	0.01146	0.00115
333.95	0.01433	0.00143

System: indolin-2-one + propan-1-ol; phases: Liquid, Crystal 2
Fixed: Pressure, kPa = 100
Property: Mole fraction of indolin-2-one (Liquid); method: Titration method
Temperature, K	Mole fraction of indolin-2-one	uncertainty
293.15	0.03875	0.00388
299.35	0.04763	0.00477
303.05	0.05228	0.00523
308.35	0.05993	0.006
313.15	0.0677	0.00677
317.05	0.07439	0.00744
320.75	0.08145	0.00815
328.35	0.09763	0.00977
333.35	0.1094	0.0109
