Measured thermophysical data. Influence of Ions and Temperature on Aqueous Biphasic Systems Containing Ionic Liquid and Ammonium Sulfate
Source: J. Chem. Eng. Data, 2019, 10.1021/acs.jced.9b00226
Compound 1: 1-butyl-4-methylpyridinium tetrafluoroborate, C10H16BF4N, InChI=1S/C10H16N.BF4/c1-3-4-7-11-8-5-10(2)6-9-11;2-1(3,4)5/h5-6,8-9H,3-4,7H2,1-2H3;/q+1;-1, purity 99%
Compound 2: 1-butylpyridinium trifluoromethanesulfonate, C10H14F3NO3S, InChI=1S/C9H14N.CHF3O3S/c1-2-3-7-10-8-5-4-6-9-10;2-1(3,4)8(5,6)7/h4-6,8-9H,2-3,7H2,1H3;(H,5,6,7)/q+1;/p-1, purity 99%
Compound 3: ammonium sulfate, H8N2O4S, InChI=1S/2H3N.H2O4S/c;;1-5(2,3)4/h2*1H3;(H2,1,2,3,4), purity 99%
Compound 4: water, H2O, InChI=1S/H2O/h1H2, purity 99.9%

System: 1-butyl-4-methylpyridinium tetrafluoroborate + ammonium sulfate + water; phases: Liquid mixture 1, Liquid mixture 2
Fixed: Pressure, kPa = 100
Property: Mass fraction of ammonium sulfate (Liquid mixture 1); method: Titration method
Temperature, K	Mass fraction of 1-butyl-4-methylpyridinium tetrafluoroborate	Mass fraction of ammonium sulfate	uncertainty
308.15	0.7822	0.0069	0.002
308.15	0.6667	0.0113	0.002
308.15	0.5656	0.0149	0.002
308.15	0.5294	0.0171	0.0021
308.15	0.4669	0.0206	0.0021
308.15	0.4228	0.0245	0.0021
308.15	0.406	0.0269	0.0022
308.15	0.3838	0.0289	0.0022
308.15	0.364	0.0308	0.0022
308.15	0.3463	0.0324	0.0022
308.15	0.3304	0.0341	0.0022
308.15	0.3157	0.0354	0.0023
308.15	0.3046	0.0371	0.0023
308.15	0.292	0.0382	0.0023
308.15	0.2843	0.04	0.0023
308.15	0.2749	0.0416	0.0023
308.15	0.2644	0.0429	0.0024
308.15	0.2563	0.0441	0.0024
308.15	0.2502	0.0454	0.0024
308.15	0.2443	0.0466	0.0024
308.15	0.2376	0.0476	0.0024
308.15	0.2321	0.0489	0.0025
308.15	0.227	0.05	0.0025
308.15	0.2221	0.051	0.0025
308.15	0.2177	0.0521	0.0026
308.15	0.2133	0.0533	0.0026
308.15	0.209	0.0542	0.0026
308.15	0.2058	0.0553	0.0026
308.15	0.2018	0.0563	0.0026
308.15	0.1988	0.0574	0.0027
308.15	0.1951	0.0583	0.0027
308.15	0.1933	0.0597	0.0028
308.15	0.1908	0.0607	0.0027
308.15	0.1873	0.0615	0.0027
308.15	0.1849	0.0624	0.0028
308.15	0.1825	0.0634	0.0029
308.15	0.1809	0.0646	0.0029
308.15	0.1787	0.0654	0.0028
308.15	0.1764	0.0663	0.0028
308.15	0.1735	0.0669	0.0028
308.15	0.1713	0.0679	0.0029
308.15	0.1687	0.0687	0.0029
308.15	0.1665	0.0699	0.003
308.15	0.1646	0.0707	0.003
308.15	0.1633	0.0717	0.003
308.15	0.1614	0.0724	0.003
308.15	0.1578	0.0741	0.0031
308.15	0.1566	0.0747	0.0031
308.15	0.1555	0.0756	0.0031
308.15	0.1544	0.0765	0.0031
308.15	0.1522	0.0768	0.0031
308.15	0.1506	0.0775	0.0031
308.15	0.1495	0.0784	0.0032
308.15	0.1479	0.079	0.0033
308.15	0.1469	0.0798	0.0032
308.15	0.1458	0.0807	0.0032
308.15	0.1443	0.0814	0.0032
308.15	0.1421	0.0822	0.0033
308.15	0.1408	0.0828	0.0033
308.15	0.1396	0.0843	0.0033
308.15	0.1387	0.0851	0.0033
308.15	0.1342	0.0866	0.0033
308.15	0.132	0.088	0.0033
308.15	0.1307	0.0885	0.0034
308.15	0.1292	0.0886	0.0035
308.15	0.1275	0.0903	0.0037
308.15	0.1263	0.0919	0.004
308.15	0.1253	0.0935	0.0037
308.15	0.1239	0.0943	0.0035
308.15	0.1223	0.0947	0.0035
308.15	0.1209	0.0949	0.0037
308.15	0.1199	0.0963	0.0037
308.15	0.1138	0.1009	0.0039
308.15	0.1124	0.1021	0.004
308.15	0.1118	0.1033	0.0041
308.15	0.1109	0.1045	0.0046
308.15	0.1102	0.1057	0.0047
308.15	0.1095	0.1068	0.0047
308.15	0.1091	0.1086	0.0048
308.15	0.1072	0.11	0.0044
308.15	0.1067	0.1111	0.004
308.15	0.1048	0.1122	0.004
308.15	0.1027	0.1132	0.0043
308.15	0.1015	0.1147	0.0043
308.15	0.101	0.1166	0.0044
308.15	0.0987	0.1183	0.0044
308.15	0.0975	0.1197	0.0045
308.15	0.0962	0.1213	0.0047
308.15	0.0952	0.1228	0.0048
308.15	0.0939	0.1244	0.0047
308.15	0.0923	0.1263	0.0048
308.15	0.0905	0.1281	0.0048
308.15	0.0892	0.1299	0.0048
308.15	0.0873	0.1319	0.0049
308.15	0.0858	0.1338	0.005
308.15	0.0842	0.1359	0.0052
308.15	0.0828	0.1379	0.0052
308.15	0.0814	0.1399	0.0051
308.15	0.0799	0.1421	0.0054
308.15	0.0781	0.1434	0.0057
308.15	0.077	0.1465	0.0058
308.15	0.0758	0.1495	0.0062
308.15	0.0742	0.152	0.0059
308.15	0.0725	0.1547	0.0057
308.15	0.0706	0.1573	0.0061
308.15	0.0686	0.16	0.0063
308.15	0.0672	0.1643	0.0065
308.15	0.0655	0.1684	0.0069
308.15	0.0628	0.1729	0.0074
308.15	0.0608	0.1806	0.0075
308.15	0.0567	0.19	0.007
308.15	0.052	0.1962	0.0074
308.15	0.0497	0.2043	0.009
308.15	0.0473	0.2108	0.0094
308.15	0.0449	0.2198	0.008
308.15	0.039	0.2278	0.0083
308.15	0.036	0.2384	0.014
308.15	0.0348	0.2503	0.0141
308.15	0.0326	0.2647	0.0169
308.15	0.0302	0.2834	0.021
308.15	0.028	0.3077	0.0246
318.15	0.7769	0.0064	0.002
318.15	0.6756	0.012	0.002
318.15	0.5832	0.0167	0.0021
318.15	0.5348	0.0196	0.0021
318.15	0.5002	0.0224	0.0021
318.15	0.4738	0.0236	0.0021
318.15	0.4455	0.0259	0.0021
318.15	0.4249	0.0286	0.0022
318.15	0.406	0.0312	0.0022
318.15	0.387	0.0344	0.0023
318.15	0.3726	0.0365	0.0023
318.15	0.3582	0.0384	0.0023
318.15	0.3455	0.0396	0.0023
318.15	0.3354	0.0414	0.0024
318.15	0.3257	0.0431	0.0024
318.15	0.3158	0.0445	0.0024
318.15	0.3063	0.046	0.0024
318.15	0.2961	0.0472	0.0024
318.15	0.2884	0.0485	0.0025
318.15	0.2813	0.0498	0.0025
318.15	0.2746	0.0508	0.0025
318.15	0.268	0.0523	0.0026
318.15	0.2612	0.0535	0.0025
318.15	0.2552	0.0547	0.0026
318.15	0.2496	0.0558	0.0026
318.15	0.2441	0.057	0.0026
318.15	0.2388	0.058	0.0028
318.15	0.235	0.0594	0.0026
318.15	0.2299	0.0607	0.0027
318.15	0.2254	0.0615	0.0027
318.15	0.2221	0.0626	0.0029
318.15	0.2189	0.0637	0.003
318.15	0.2158	0.0647	0.0027
318.15	0.2123	0.0666	0.0028
318.15	0.2069	0.0666	0.0029
318.15	0.2048	0.0679	0.0028
318.15	0.2031	0.069	0.0033
318.15	0.2006	0.0695	0.0029
318.15	0.1981	0.0704	0.0029
318.15	0.1956	0.0712	0.0029
318.15	0.193	0.0721	0.0029
318.15	0.1904	0.0729	0.0029
318.15	0.1882	0.0736	0.003
318.15	0.1866	0.0748	0.0031
318.15	0.1841	0.0757	0.003
318.15	0.1826	0.0767	0.0033
318.15	0.1803	0.0774	0.003
318.15	0.1782	0.0782	0.003
318.15	0.1756	0.0801	0.0035
318.15	0.1734	0.0807	0.0031
318.15	0.172	0.0816	0.0034
318.15	0.1703	0.083	0.0032
318.15	0.1684	0.0832	0.0035
318.15	0.1671	0.0841	0.0033
318.15	0.1657	0.0851	0.0033
318.15	0.164	0.0856	0.0034
318.15	0.1629	0.0865	0.0032
318.15	0.1615	0.0874	0.0033
318.15	0.1597	0.0879	0.0033
318.15	0.1585	0.0888	0.0035
318.15	0.1574	0.0895	0.0034
318.15	0.1553	0.0907	0.0033
318.15	0.1541	0.0916	0.0036
318.15	0.1532	0.0923	0.0037
318.15	0.1521	0.093	0.0037
318.15	0.151	0.0938	0.0035
318.15	0.1495	0.0943	0.0035
318.15	0.1484	0.0952	0.0055
318.15	0.1474	0.0959	0.0051
318.15	0.1239	0.1197	0.0044
318.15	0.123	0.1205	0.0045
318.15	0.1219	0.1214	0.0046
318.15	0.1208	0.1225	0.0044
318.15	0.1199	0.1233	0.0045
318.15	0.1189	0.1242	0.0045
318.15	0.1177	0.1253	0.0046
318.15	0.1166	0.1263	0.0045
318.15	0.1155	0.1274	0.0044
318.15	0.1145	0.1285	0.0046
318.15	0.1134	0.1295	0.0048
318.15	0.1123	0.1306	0.0048
318.15	0.1067	0.1367	0.005
318.15	0.0956	0.1504	0.0055
318.15	0.0927	0.1545	0.0056
318.15	0.0917	0.1561	0.0056
318.15	0.0899	0.1588	0.0056
318.15	0.0883	0.1613	0.0055
318.15	0.0859	0.1652	0.006
318.15	0.0832	0.1699	0.0065
318.15	0.0817	0.1728	0.0065
318.15	0.0806	0.1748	0.0068
318.15	0.0796	0.1768	0.0068
318.15	0.078	0.1802	0.0071
318.15	0.077	0.1823	0.0073
318.15	0.0754	0.1858	0.007
318.15	0.0743	0.1883	0.0075
318.15	0.0733	0.1906	0.0083
318.15	0.0724	0.193	0.0082
318.15	0.0715	0.1953	0.0077
318.15	0.0692	0.2013	0.0088
318.15	0.0672	0.2072	0.0079
318.15	0.0663	0.2101	0.009
318.15	0.0649	0.2148	0.0107
318.15	0.0641	0.2178	0.0101
318.15	0.0628	0.2226	0.008
318.15	0.062	0.2257	0.011
318.15	0.0602	0.2333	0.0131
318.15	0.0586	0.2414	0.012
318.15	0.0571	0.2499	0.0106
318.15	0.0558	0.2584	0.0202
318.15	0.055	0.2652	0.0276
318.15	0.054	0.2753	0.0093
318.15	0.0536	0.2802	0.0166
318.15	0.0544	0.2949	0.0475
328.15	0.7819	0.0086	0.002
328.15	0.732	0.0129	0.002
328.15	0.6502	0.0178	0.0021
328.15	0.5871	0.0214	0.0021
328.15	0.5512	0.0252	0.0021
328.15	0.518	0.0287	0.0022
328.15	0.4881	0.0322	0.0022
328.15	0.4632	0.0347	0.0022
328.15	0.4404	0.0361	0.0023
328.15	0.4197	0.0378	0.0023
328.15	0.4043	0.0399	0.0023
328.15	0.3899	0.0418	0.0024
328.15	0.3765	0.0443	0.0024
328.15	0.3637	0.0466	0.0024
328.15	0.3548	0.0487	0.0025
328.15	0.3437	0.0507	0.0025
328.15	0.3329	0.0522	0.0025
328.15	0.3225	0.0534	0.0025
328.15	0.315	0.0553	0.0026
328.15	0.3058	0.0566	0.0026
328.15	0.2973	0.0576	0.0026
328.15	0.2911	0.0593	0.0027
328.15	0.2852	0.0605	0.0027
328.15	0.2769	0.0629	0.0028
328.15	0.2727	0.0642	0.0029
328.15	0.2696	0.0663	0.0031
328.15	0.268	0.0681	0.0031
328.15	0.2658	0.0687	0.0029
328.15	0.2606	0.0703	0.0029
328.15	0.2569	0.0715	0.0029
328.15	0.2535	0.0726	0.003
328.15	0.2502	0.0736	0.003
328.15	0.2499	0.0738	0.003
328.15	0.2457	0.0751	0.003
328.15	0.2431	0.076	0.003
328.15	0.2406	0.0769	0.0031
328.15	0.2377	0.078	0.0031
328.15	0.2351	0.0789	0.0031
328.15	0.2317	0.0802	0.0031
328.15	0.2298	0.0809	0.0032
328.15	0.2295	0.081	0.0032
328.15	0.2271	0.0819	0.0032
328.15	0.2248	0.0828	0.0032
328.15	0.221	0.0843	0.0032
328.15	0.22	0.0847	0.0033
328.15	0.2182	0.0854	0.0033
328.15	0.2161	0.0863	0.0033
328.15	0.2155	0.0865	0.0033
328.15	0.214	0.0872	0.0033
328.15	0.2119	0.0881	0.0033
328.15	0.2117	0.0882	0.0033
328.15	0.2105	0.0886	0.0033
328.15	0.2088	0.0894	0.0034
328.15	0.2065	0.0904	0.0034
328.15	0.206	0.0907	0.0034
328.15	0.2047	0.0913	0.0034
328.15	0.2045	0.0913	0.0034
328.15	0.2023	0.0923	0.0034
328.15	0.2023	0.0923	0.0034
328.15	0.2015	0.0927	0.0035
328.15	0.198	0.0943	0.0035
328.15	0.1932	0.0967	0.0036
328.15	0.1906	0.098	0.0036
328.15	0.1886	0.099	0.0036
328.15	0.1866	0.1	0.0036
328.15	0.1864	0.1001	0.0036
328.15	0.185	0.1008	0.0037
328.15	0.1843	0.1012	0.0037
328.15	0.1824	0.1022	0.0037
328.15	0.1806	0.1032	0.0037
328.15	0.1796	0.1038	0.0038
328.15	0.1742	0.1068	0.0038
328.15	0.1707	0.1089	0.0039
328.15	0.1672	0.111	0.004
328.15	0.1653	0.1122	0.004
328.15	0.1634	0.1134	0.004
328.15	0.1633	0.1134	0.004
328.15	0.1619	0.1144	0.0041
328.15	0.1611	0.1148	0.0041
328.15	0.1599	0.1157	0.0041
328.15	0.1586	0.1165	0.0041
328.15	0.1576	0.1172	0.0041
328.15	0.1566	0.1179	0.0041
328.15	0.1566	0.1179	0.0041
328.15	0.154	0.1196	0.0042
328.15	0.1533	0.1202	0.0042
328.15	0.1516	0.1213	0.0043
328.15	0.1516	0.1213	0.0043
328.15	0.1501	0.1224	0.0043
328.15	0.1496	0.1228	0.0043
328.15	0.1481	0.1239	0.0043
328.15	0.1475	0.1243	0.0043
328.15	0.1469	0.1247	0.0044
328.15	0.1439	0.127	0.0044
328.15	0.1402	0.13	0.0045
328.15	0.1369	0.1326	0.0046
328.15	0.1292	0.1393	0.0048
328.15	0.1229	0.1452	0.005
328.15	0.1202	0.1479	0.0051
328.15	0.1182	0.15	0.0051
328.15	0.1143	0.154	0.0053
328.15	0.1085	0.1607	0.0052
328.15	0.1012	0.1645	0.0058
328.15	0.0994	0.1687	0.0064
328.15	0.0987	0.1759	0.0084
328.15	0.0934	0.1901	0.0065
328.15	0.0832	0.1979	0.0067
328.15	0.0816	0.2057	0.0078
328.15	0.0789	0.2117	0.0071
328.15	0.0741	0.216	0.0074
328.15	0.0701	0.2253	0.0087
328.15	0.0656	0.2379	0.0085
328.15	0.0602	0.2465	0.0085
328.15	0.0563	0.2555	0.0099
328.15	0.0514	0.2727	0.0119
328.15	0.0464	0.2969	0.0127
328.15	0.0428	0.31	0.0121

System: 1-butylpyridinium trifluoromethanesulfonate + ammonium sulfate + water; phases: Liquid mixture 1, Liquid mixture 2
Fixed: Temperature, K = 308.15
Fixed: Pressure, kPa = 100
Property: Mass fraction of ammonium sulfate (Liquid mixture 1); method: Titration method
Mass fraction of 1-butylpyridinium trifluoromethanesulfonate	Mass fraction of ammonium sulfate	uncertainty
0.7658	0.0131	0.002
0.6534	0.0214	0.0021
0.5411	0.0264	0.0021
0.5025	0.0307	0.0022
0.4617	0.0351	0.0022
0.4219	0.0404	0.0023
0.3899	0.0453	0.0024
0.3663	0.0504	0.0025
0.345	0.0543	0.0025
0.3262	0.0571	0.0026
0.3094	0.0597	0.0026
0.2963	0.0626	0.0027
0.2848	0.0648	0.0027
0.2714	0.0667	0.0028
0.2613	0.0691	0.0028
0.2524	0.0712	0.0029
0.2438	0.0732	0.0029
0.2353	0.0752	0.003
0.23	0.0771	0.003
0.2229	0.079	0.0031
0.2163	0.0809	0.0031
0.2121	0.0829	0.0032
0.2103	0.083	0.0032
0.2097	0.0836	0.0031
0.2071	0.0838	0.0032
0.2063	0.0839	0.0032
0.2046	0.0854	0.0033
0.2032	0.0858	0.0033
0.2023	0.0861	0.0032
0.2017	0.0863	0.0032
0.2008	0.0867	0.0034
0.1994	0.0868	0.0034
0.1992	0.0879	0.0034
0.1982	0.0891	0.0034
0.1928	0.0911	0.0033
0.1924	0.0912	0.0033
0.1914	0.0916	0.0034
0.1892	0.0925	0.0034
0.1881	0.0929	0.0034
0.1837	0.0947	0.0034
0.1822	0.0953	0.0035
0.1798	0.0963	0.0035
0.1796	0.0964	0.0035
0.179	0.0966	0.0035
0.1787	0.0968	0.0035
0.177	0.0975	0.0035
0.1751	0.0983	0.0035
0.1733	0.0991	0.0035
0.1731	0.0992	0.0036
0.1705	0.1003	0.0036
0.1697	0.1007	0.0036
0.1677	0.1016	0.0036
0.1633	0.1036	0.0037
0.1604	0.1049	0.0037
0.1588	0.1057	0.0037
0.1576	0.1063	0.0037
0.1569	0.1066	0.0037
0.1564	0.1069	0.0038
0.1536	0.1082	0.0038
0.1518	0.1092	0.0038
0.1514	0.1094	0.0038
0.1502	0.11	0.0038
0.1485	0.1109	0.0039
0.1469	0.1117	0.0039
0.1464	0.112	0.0039
0.1439	0.1133	0.0039
0.1414	0.1146	0.004
0.1399	0.1155	0.004
0.1376	0.1167	0.004
0.1356	0.1179	0.0041
0.1346	0.1184	0.0041
0.1318	0.1201	0.0041
0.1302	0.121	0.0041
0.1274	0.1227	0.0042
0.1263	0.1234	0.0042
0.1244	0.1246	0.0042
0.1232	0.1253	0.0043
0.1225	0.1258	0.0043
0.1141	0.1311	0.0044
0.1135	0.1317	0.0045
0.1132	0.1325	0.0045
0.1129	0.1329	0.0044
0.1117	0.1335	0.0048
0.1108	0.1342	0.0047
0.1102	0.1356	0.0048
0.1097	0.1361	0.0047
0.1085	0.1369	0.0048
0.108	0.1379	0.0047
0.1067	0.1386	0.0048
0.106	0.1393	0.0049
0.105	0.14	0.0048
0.1048	0.141	0.0048
0.1042	0.1417	0.005
0.1025	0.1429	0.0046
0.102	0.1436	0.0046
0.1006	0.1444	0.0047
0.0967	0.1456	0.0047
0.0953	0.1464	0.0047
0.0939	0.1473	0.0049
0.0927	0.1484	0.0051
0.0915	0.1497	0.005
0.0904	0.1513	0.005
0.088	0.1525	0.005
0.0876	0.1536	0.0051
0.0867	0.1562	0.0051
0.082	0.1582	0.0051
0.0812	0.1589	0.0052
0.0808	0.1596	0.0052
0.0804	0.1612	0.0052
0.0798	0.162	0.0057
0.0782	0.1631	0.0051
0.0774	0.1643	0.0051
0.0726	0.165	0.0052
0.0723	0.166	0.0052
0.0717	0.1669	0.0053
0.07	0.1684	0.0058
0.0695	0.1701	0.0058
0.0687	0.1711	0.0058
0.0669	0.1725	0.0059
0.0662	0.1733	0.0059
0.0655	0.1744	0.0061
0.0649	0.1759	0.0062
0.0641	0.177	0.0065
0.0635	0.1787	0.0065
0.0628	0.1798	0.0065
0.0613	0.1817	0.0061
0.0605	0.1834	0.0062
0.0594	0.1836	0.0064
0.0586	0.1845	0.0064
0.0577	0.186	0.0064
0.0563	0.189	0.0073
0.0555	0.1907	0.0071
0.0549	0.1926	0.0069
0.0538	0.195	0.0069
0.0519	0.1976	0.0069
0.0504	0.1988	0.0068
0.0496	0.2009	0.0069
0.0487	0.2023	0.0069
0.0476	0.2043	0.0077
0.0465	0.2057	0.0073
0.0459	0.2089	0.0073
0.045	0.2108	0.0073
0.0411	0.2154	0.0072
0.0388	0.2189	0.0086
0.0361	0.2285	0.0106
0.0349	0.2335	0.01
0.0338	0.2388	0.01
0.0313	0.2446	0.0096
0.0292	0.2523	0.0099
0.0259	0.2612	0.0104
0.0235	0.2712	0.0135
0.021	0.2871	0.0135
0.0174	0.3027	0.0128
0.2059	0.0845	0.0032
0.165	0.1028	0.0036
0.1146	0.1306	0.0044
0.0871	0.1548	0.0051
0.0574	0.1879	0.0067
