Measured thermophysical data. Solid-Liquid Equilibria in the Ternary Systems NaCl SrCl2 H2O and KCl SrCl2 H2O at 348 K
Source: J. Chem. Eng. Data, 2015, 10.1021/acs.jced.5b00094
Compound 1: strontium chloride, Cl2Sr, InChI=1S/2ClH.Sr/h2*1H;/q;;+2/p-2, purity 99%
Compound 2: sodium chloride, ClNa, InChI=1S/ClH.Na/h1H;/q;+1/p-1, purity 99.5%
Compound 3: potassium chloride, ClK, InChI=1S/ClH.K/h1H;/q;+1/p-1, purity 99.5%
Compound 4: water, H2O, InChI=1S/H2O/h1H2, purity 99.8%

System: sodium chloride + water + strontium chloride; phases: Liquid, Crystal of intercomponent compound 1
Fixed: Temperature, K = 348
Fixed: Pressure, kPa = 101
Property: Mass fraction of sodium chloride (Liquid); method: Titration method
Mass fraction of strontium chloride	Mass fraction of sodium chloride	uncertainty
0.4775	0	
0.4676	0.0122	0.0064
0.466	0.0195	0.0064
0.4649	0.0217	0.0064
0.4603	0.0296	0.0064
0.4554	0.0312	0.0064

System: sodium chloride + water + strontium chloride; phases: Liquid, Crystal
Fixed: Temperature, K = 348
Fixed: Pressure, kPa = 101
Property: Mass fraction of sodium chloride (Liquid); method: Titration method
Mass fraction of strontium chloride	Mass fraction of sodium chloride	uncertainty
0.4486	0.033	0.0081
0.4437	0.0333	0.0077
0.4402	0.0336	0.0079
0.433	0.038	0.0075
0.3927	0.0475	0.009
0.3014	0.0903	0.0089
0.2011	0.124	0.0277
0.1834	0.1546	0.0146
0.1246	0.1932	0.012
0.0906	0.2148	0.011
0.0659	0.2264	0.0117
0.0346	0.2496	0.0131
0	0.2745	0.0064
0.4554	0.0312	0.008

System: sodium chloride + water + strontium chloride; phases: Liquid, Crystal, Crystal of intercomponent compound 1
Property: Mass fraction of strontium chloride (Liquid); method: Titration method
Temperature, K	Pressure, kPa	Mass fraction of strontium chloride	uncertainty
348	101	0.4554	0.0156

System: sodium chloride + water + strontium chloride; phases: Liquid, Crystal, Crystal of intercomponent compound 1
Property: Mass fraction of sodium chloride (Liquid); method: Titration method
Temperature, K	Pressure, kPa	Mass fraction of sodium chloride	uncertainty
348	101	0.0312	0.0064

System: sodium chloride + water + strontium chloride; phases: Liquid
Fixed: Pressure, kPa = 101
Fixed: Temperature, K = 348
Property: Mass density, kg/m3 (Liquid); method: Pycnometric method
Mass fraction of strontium chloride	Mass fraction of sodium chloride	Mass density, kg/m3	uncertainty
0.4775	0	1620.5	21
0.4676	0.0122	1617.1	16.6
0.466	0.0195	1612.6	15.5
0.4649	0.0217	1608.7	23.8
0.4603	0.0296	1599.8	35.2
0.4554	0.0312	1591.2	29.2
0.4486	0.033	1589.3	49.6
0.4437	0.0333	1563.1	34.3
0.4402	0.0336	1567.5	24.1
0.433	0.038	1548.2	49.6
0.3927	0.0475	1525	11.3
0.3014	0.0903	1443.7	8.9
0.2011	0.124	1371.2	8.9
0.1834	0.1546	1339.8	8.9
0.1246	0.1932	1294.4	23.5
0.0906	0.2148	1243.2	53.3
0.0659	0.2264	1230.8	19.5
0.0346	0.2496	1193.5	19.5
0	0.2745	1183	1.4

System: potassium chloride + water + strontium chloride; phases: Liquid, Crystal of intercomponent compound 1
Fixed: Temperature, K = 348
Fixed: Pressure, kPa = 101
Property: Mass fraction of potassium chloride (Liquid); method: Titration method
Mass fraction of strontium chloride	Mass fraction of potassium chloride	uncertainty
0.4775	0	
0.4737	0.0181	0.0108
0.4702	0.0275	0.0108
0.4642	0.0509	0.0108
0.4525	0.0788	0.0108
0.4488	0.0819	0.0108
0.4458	0.0839	0.0108
0.4404	0.0857	0.0108

System: potassium chloride + water + strontium chloride; phases: Liquid, Crystal
Fixed: Temperature, K = 348
Fixed: Pressure, kPa = 101
Property: Mass fraction of potassium chloride (Liquid); method: Titration method
Mass fraction of strontium chloride	Mass fraction of potassium chloride	uncertainty
0.4404	0.0857	0.0118
0.4218	0.0914	0.011
0.3707	0.0966	0.0112
0.2951	0.114	0.0127
0.2494	0.1514	0.0158
0.1607	0.2143	0.0157
0.1265	0.2412	0.0157
0.0695	0.2809	0.015
0.0383	0.2993	0.0158
0	0.332	0.0108

System: potassium chloride + water + strontium chloride; phases: Liquid, Crystal, Crystal of intercomponent compound 1
Property: Mass fraction of strontium chloride (Liquid); method: Titration method
Temperature, K	Pressure, kPa	Mass fraction of strontium chloride	uncertainty
348	101	0.4404	0.0156

System: potassium chloride + water + strontium chloride; phases: Liquid, Crystal, Crystal of intercomponent compound 1
Property: Mass fraction of potassium chloride (Liquid); method: Titration method
Temperature, K	Pressure, kPa	Mass fraction of potassium chloride	uncertainty
348	101	0.0857	0.0108

System: potassium chloride + water + strontium chloride; phases: Liquid
Fixed: Pressure, kPa = 101
Fixed: Temperature, K = 348
Property: Mass density, kg/m3 (Liquid); method: Pycnometric method
Mass fraction of strontium chloride	Mass fraction of potassium chloride	Mass density, kg/m3	uncertainty
0.4775	0	1620.5	18.5
0.4737	0.0181	1626.4	19.5
0.4702	0.0275	1633.1	22.6
0.4642	0.0509	1644.2	20.4
0.4525	0.0788	1649.5	13.2
0.4488	0.0819	1659.4	25.6
0.4458	0.0839	1665.4	35
0.4404	0.0857	1669.4	52
0.4218	0.0914	1632.5	28.5
0.3707	0.0966	1568.9	23.3
0.2951	0.114	1470.5	23
0.2494	0.1514	1425.4	21.8
0.1607	0.2143	1329.6	10
0.1265	0.2412	1308	43.9
0.0695	0.2809	1260.7	10.5
0.0383	0.2993	1235.7	11.7
0	0.332	1204	1.6

System: water + strontium chloride; phases: Liquid, Crystal of intercomponent compound 1
Property: Mass fraction of strontium chloride (Liquid); method: Titration method
Pressure, kPa	Temperature, K	Mass fraction of strontium chloride	uncertainty
101	348	0.4775	0.0156

System: water + strontium chloride; phases: Liquid
Property: Mass density, kg/m3 (Liquid); method: Pycnometric method
Mass fraction of strontium chloride	Pressure, kPa	Temperature, K	Mass density, kg/m3	uncertainty
0.4775	101	348	1620.5	21

System: sodium chloride + water; phases: Liquid, Crystal
Property: Mass fraction of sodium chloride (Liquid); method: Titration method
Pressure, kPa	Temperature, K	Mass fraction of sodium chloride	uncertainty
101	348	0.2745	0.0064

System: sodium chloride + water; phases: Liquid
Property: Mass density, kg/m3 (Liquid); method: Pycnometric method
Mass fraction of sodium chloride	Pressure, kPa	Temperature, K	Mass density, kg/m3	uncertainty
0.2745	101	348	1183	1.4

System: potassium chloride + water; phases: Liquid, Crystal
Property: Mass fraction of potassium chloride (Liquid); method: Titration method
Pressure, kPa	Temperature, K	Mass fraction of potassium chloride	uncertainty
101	348	0.332	0.0108

System: potassium chloride + water; phases: Liquid
Property: Mass density, kg/m3 (Liquid); method: Pycnometric method
Mass fraction of potassium chloride	Pressure, kPa	Temperature, K	Mass density, kg/m3	uncertainty
0.332	101	348	1204	1.6
