Measured thermophysical data. Physical Properties of the Pure Deep Eutectic Solvent, [ChCl]:[Lev] (1:2) DES, and Its Binary Mixtures with Alcohols
Source: J. Chem. Eng. Data, 2016, 10.1021/acs.jced.6b00563
Compound 1: choline chloride, C5H14ClNO, InChI=1S/C5H14NO.ClH/c1-6(2,3)4-5-7;/h7H,4-5H2,1-3H3;1H/q+1;/p-1, purity 99.5%
Compound 2: 4-oxopentanoic acid, C5H8O3, InChI=1S/C5H8O3/c1-4(6)2-3-5(7)8/h2-3H2,1H3,(H,7,8), purity 99%
Compound 3: ethanol, C2H6O, InChI=1S/C2H6O/c1-2-3/h3H,2H2,1H3, purity 99.9%
Compound 4: propan-1-ol, C3H8O, InChI=1S/C3H8O/c1-2-3-4/h4H,2-3H2,1H3, purity 99.7%
Compound 5: butan-1-ol, C4H10O, InChI=1S/C4H10O/c1-2-3-4-5/h5H,2-4H2,1H3, purity 99.8%
Compound 6: pentan-1-ol, C5H12O, InChI=1S/C5H12O/c1-2-3-4-5-6/h6H,2-5H2,1H3, purity 99.4%

System: ethanol; phases: Liquid
Fixed: Pressure, kPa = 100
Property: Mass density, kg/m3 (Liquid); method: Vibrating tube method
Temperature, K	Mass density, kg/m3	uncertainty
298.15	785.06	0.79
308.15	776.4	0.78
318.15	767.6	0.78

System: ethanol; phases: Liquid
Fixed: Pressure, kPa = 100
Property: Speed of sound, m/s (Liquid); method: Sing-around technique in a fixed-path interferometer
Temperature, K	Speed of sound, m/s	uncertainty
298.15	1143	2
308.15	1109	2
318.15	1075	2

System: ethanol; phases: Liquid
Fixed: Pressure, kPa = 100
Property: Viscosity, Pa*s (Liquid); method: Falling or rolling sphere viscometry
Temperature, K	Viscosity, Pa*s	uncertainty
298.15	0.001083	1.3e-05
308.15	0.000901	1.1e-05
318.15	0.000758	9e-06

System: ethanol; phases: Liquid
Fixed: Pressure, kPa = 100
Property: Refractive index (Na D-line) (Liquid); method: Standard Abbe refractometry
Temperature, K	Refractive index (Na D-line)	uncertainty
298.15	1.35905	0.00031
308.15	1.35501	0.00031
318.15	1.35083	0.00031

System: propan-1-ol; phases: Liquid
Fixed: Pressure, kPa = 100
Property: Mass density, kg/m3 (Liquid); method: Vibrating tube method
Temperature, K	Mass density, kg/m3	uncertainty
298.15	799.69	0.81
308.15	792.76	0.8
318.15	784.45	0.79

System: propan-1-ol; phases: Liquid
Fixed: Pressure, kPa = 100
Property: Speed of sound, m/s (Liquid); method: Sing-around technique in a fixed-path interferometer
Temperature, K	Speed of sound, m/s	uncertainty
298.15	1209	2
308.15	1175	2
318.15	1141	2

System: propan-1-ol; phases: Liquid
Fixed: Pressure, kPa = 100
Property: Viscosity, Pa*s (Liquid); method: Falling or rolling sphere viscometry
Temperature, K	Viscosity, Pa*s	uncertainty
298.15	0.001943	2.4e-05
308.15	0.001549	1.9e-05
318.15	0.001252	1.6e-05

System: propan-1-ol; phases: Liquid
Fixed: Pressure, kPa = 100
Property: Refractive index (Na D-line) (Liquid); method: Standard Abbe refractometry
Temperature, K	Refractive index (Na D-line)	uncertainty
298.15	1.38275	0.00032
308.15	1.37857	0.00032
318.15	1.37421	0.00032

System: butan-1-ol; phases: Liquid
Fixed: Pressure, kPa = 100
Property: Mass density, kg/m3 (Liquid); method: Vibrating tube method
Temperature, K	Mass density, kg/m3	uncertainty
298.15	805.75	0.81
308.15	798.06	0.81
318.15	790.22	0.8

System: butan-1-ol; phases: Liquid
Fixed: Pressure, kPa = 100
Property: Speed of sound, m/s (Liquid); method: Sing-around technique in a fixed-path interferometer
Temperature, K	Speed of sound, m/s	uncertainty
298.15	1240	2
308.15	1206	2
318.15	1173	2

System: butan-1-ol; phases: Liquid
Fixed: Pressure, kPa = 100
Property: Viscosity, Pa*s (Liquid); method: Falling or rolling sphere viscometry
Temperature, K	Viscosity, Pa*s	uncertainty
298.15	0.002568	3.2e-05
308.15	0.001998	2.5e-05
318.15	0.001578	1.9e-05

System: butan-1-ol; phases: Liquid
Fixed: Pressure, kPa = 100
Property: Refractive index (Na D-line) (Liquid); method: Standard Abbe refractometry
Temperature, K	Refractive index (Na D-line)	uncertainty
298.15	1.39697	0.00031
308.15	1.39281	0.00031
318.15	1.38857	0.00031

System: pentan-1-ol; phases: Liquid
Fixed: Pressure, kPa = 100
Property: Mass density, kg/m3 (Liquid); method: Vibrating tube method
Temperature, K	Mass density, kg/m3	uncertainty
298.15	810.88	0.82
308.15	803.5	0.82
318.15	795.98	0.81

System: pentan-1-ol; phases: Liquid
Fixed: Pressure, kPa = 100
Property: Speed of sound, m/s (Liquid); method: Sing-around technique in a fixed-path interferometer
Temperature, K	Speed of sound, m/s	uncertainty
298.15	1276	2
308.15	1242	2
318.15	1209	2

System: pentan-1-ol; phases: Liquid
Fixed: Pressure, kPa = 100
Property: Viscosity, Pa*s (Liquid); method: Falling or rolling sphere viscometry
Temperature, K	Viscosity, Pa*s	uncertainty
298.15	0.003502	4.4e-05
308.15	0.002662	3.4e-05
318.15	0.002061	2.6e-05

System: pentan-1-ol; phases: Liquid
Fixed: Pressure, kPa = 100
Property: Refractive index (Na D-line) (Liquid); method: Standard Abbe refractometry
Temperature, K	Refractive index (Na D-line)	uncertainty
298.15	1.40752	0.00033
308.15	1.40352	0.00033
318.15	1.39942	0.00033

System: choline chloride + 4-oxopentanoic acid; phases: Liquid
Fixed: Pressure, kPa = 100
Fixed: Amount ratio of solute to solvent of 4-oxopentanoic acid = 2
Property: Mass density, kg/m3 (Liquid); method: Vibrating tube method
Temperature, K	Mass density, kg/m3	uncertainty
293.15	1141.05	1.16
298.15	1137.7	1.16
303.15	1134.34	1.15
308.15	1130.99	1.15
313.15	1127.63	1.15
318.15	1124.3	1.14
323.15	1120.98	1.14
328.15	1117.68	1.13
333.15	1114.69	1.13
338.15	1111.41	1.13
343.15	1108.1	1.1

System: choline chloride + 4-oxopentanoic acid; phases: Liquid
Fixed: Pressure, kPa = 100
Fixed: Amount ratio of solute to solvent of 4-oxopentanoic acid = 2
Property: Speed of sound, m/s (Liquid); method: Sing-around technique in a fixed-path interferometer
Temperature, K	Speed of sound, m/s	uncertainty
293.15	1764	2
298.15	1749	2
303.15	1734	2
308.15	1720	2
313.15	1707	2
318.15	1693	2
323.15	1680	2
328.15	1667	2
333.15	1654	2
338.15	1641	2
343.15	1628	2

System: choline chloride + 4-oxopentanoic acid; phases: Liquid
Fixed: Pressure, kPa = 100
Fixed: Amount ratio of solute to solvent of 4-oxopentanoic acid = 2
Property: Refractive index (Na D-line) (Liquid); method: Standard Abbe refractometry
Temperature, K	Refractive index (Na D-line)	uncertainty
293.15	1.46987	0.00034
298.15	1.46867	0.00034
303.15	1.4673	0.00034
308.15	1.46595	0.00034
313.15	1.46457	0.00034
318.15	1.4632	0.00034
323.15	1.4618	0.00034
328.15	1.46041	0.00034
333.15	1.45902	0.00034
338.15	1.45761	0.00034
343.15	1.45623	0.00034

System: choline chloride + 4-oxopentanoic acid; phases: Liquid
Fixed: Pressure, kPa = 100
Fixed: Amount ratio of solute to solvent of 4-oxopentanoic acid = 2
Property: Viscosity, Pa*s (Liquid); method: Falling or rolling sphere viscometry
Temperature, K	Viscosity, Pa*s	uncertainty
293.15	0.3653	0.0245
298.15	0.2558	0.0141
303.15	0.1855	0.0082
308.15	0.1365	0.0046
313.15	0.1037	0.0026
318.15	0.0815	0.0015
323.15	0.0648	0.0009
328.15	0.0517	0.0006
333.15	0.043	0.0006
338.15	0.0341	0.0004
343.15	0.0286	0.0004

System: ethanol + choline chloride + 4-oxopentanoic acid; phases: Liquid
Fixed: Pressure, kPa = 100
Property: Mass density, kg/m3 (Liquid); method: Vibrating tube method
Temperature, K	Mole fraction of choline chloride	Mole fraction of ethanol	Mass density, kg/m3	uncertainty
298.15	0	1	785.06	0.79
298.15	0.04446	0.86662	820.47	5.05
298.15	0.06882	0.79355	840.68	5.05
298.15	0.12996	0.61012	895.72	6.09
298.15	0.17891	0.46327	944.82	6.73
298.15	0.2132	0.36039	982.89	6.73
298.15	0.2503	0.2491	1026.99	7.66
298.15	0.26933	0.19201	1051.07	7.88
298.15	0.28767	0.137	1074.93	8.14
298.15	0.30398	0.08805	1096.86	8.4
298.15	0.3199	0.04031	1118.96	8.86
298.15	0.32763	0.0171	1130.28	7.91
298.15	0.33333	0	1137.71	7.91
308.15	0	1	776.4	0.78
308.15	0.04446	0.86662	812.08	5.09
308.15	0.06882	0.79355	832.44	5.08
308.15	0.12996	0.61012	887.93	6.13
308.15	0.17891	0.46327	937.4	6.73
308.15	0.2132	0.36039	975.36	6.71
308.15	0.2503	0.2491	1019.73	7.69
308.15	0.26933	0.19201	1043.88	7.91
308.15	0.28767	0.137	1067.86	8.18
308.15	0.30398	0.08805	1089.91	8.43
308.15	0.3199	0.04031	1112.1	8.92
308.15	0.32763	0.0171	1123.52	7.93
308.15	0.33333	0	1130.99	7.96
318.15	0	1	767.6	0.78
318.15	0.04446	0.86662	803.58	5.13
318.15	0.06882	0.79355	824.14	5.13
318.15	0.12996	0.61012	880.04	6.15
318.15	0.17891	0.46327	929.69	6.74
318.15	0.2132	0.36039	967.81	6.74
318.15	0.2503	0.2491	1012.43	7.72
318.15	0.26933	0.19201	1036.71	7.96
318.15	0.28767	0.137	1060.82	8.23
318.15	0.30398	0.08805	1082.99	8.48
318.15	0.3199	0.04031	1105.29	9.01
318.15	0.32763	0.0171	1116.81	7.98
318.15	0.33333	0	1124.31	7.98

System: ethanol + choline chloride + 4-oxopentanoic acid; phases: Liquid
Fixed: Pressure, kPa = 100
Property: Speed of sound, m/s (Liquid); method: Sing-around technique in a fixed-path interferometer
Temperature, K	Mole fraction of choline chloride	Mole fraction of ethanol	Speed of sound, m/s	uncertainty
298.15	0	1	1143	2
298.15	0.04446	0.86662	1191	7
298.15	0.06882	0.79355	1218	7
298.15	0.12996	0.61012	1297	10
298.15	0.17891	0.46327	1375	12
298.15	0.2132	0.36039	1440	12
298.15	0.2503	0.2491	1524	15
298.15	0.26933	0.19201	1571	25
298.15	0.28767	0.137	1648	6
298.15	0.30398	0.08805	1663	17
298.15	0.3199	0.04031	1709	19
298.15	0.32763	0.0171	1733	17
298.15	0.33333	0	1749	17
308.15	0	1	1109	2
308.15	0.04446	0.86662	1159	7
308.15	0.06882	0.79355	1187	7
308.15	0.12996	0.61012	1266	10
308.15	0.17891	0.46327	1344	12
308.15	0.2132	0.36039	1411	12
308.15	0.2503	0.2491	1494	15
308.15	0.26933	0.19201	1542	16
308.15	0.28767	0.137	1590	13
308.15	0.30398	0.08805	1635	17
308.15	0.3199	0.04031	1681	18
308.15	0.32763	0.0171	1704	16
308.15	0.33333	0	1720	18
318.15	0	1	1075	2
318.15	0.04446	0.86662	1126	7
318.15	0.06882	0.79355	1155	7
318.15	0.12996	0.61012	1236	10
318.15	0.17891	0.46327	1315	12
318.15	0.2132	0.36039	1381	12
318.15	0.2503	0.2491	1466	15
318.15	0.26933	0.19201	1514	16
318.15	0.28767	0.137	1562	17
318.15	0.30398	0.08805	1608	17
318.15	0.3199	0.04031	1654	18
318.15	0.32763	0.0171	1677	17
318.15	0.33333	0	1693	17

System: ethanol + choline chloride + 4-oxopentanoic acid; phases: Liquid
Fixed: Pressure, kPa = 100
Property: Viscosity, Pa*s (Liquid); method: Falling or rolling sphere viscometry
Temperature, K	Mole fraction of choline chloride	Mole fraction of ethanol	Viscosity, Pa*s	uncertainty
298.15	0	1	0.001083	1.3e-05
298.15	0.04446	0.86662	0.001436	1.8e-05
298.15	0.06882	0.79355	0.001679	2.1e-05
298.15	0.12996	0.61012	0.002739	3.4e-05
298.15	0.17891	0.46327	0.004599	5.9e-05
298.15	0.2132	0.36039	0.007486	9.6e-05
298.15	0.2503	0.2491	0.01509	0.000227
298.15	0.26933	0.19201	0.02432	0.000389
298.15	0.28767	0.137	0.0403	0.000723
298.15	0.30398	0.08805	0.069	0.001526
298.15	0.3199	0.04031	0.129	0.004832
298.15	0.32763	0.0171	0.1889	0.009315
298.15	0.33333	0	0.2558	0.014623
308.15	0	1	0.000901	1.1e-05
308.15	0.04446	0.86662	0.001198	1.5e-05
308.15	0.06882	0.79355	0.001401	1.7e-05
308.15	0.12996	0.61012	0.002213	2.8e-05
308.15	0.17891	0.46327	0.003748	4.8e-05
308.15	0.2132	0.36039	0.005708	7.3e-05
308.15	0.2503	0.2491	0.0108	0.000155
308.15	0.26933	0.19201	0.01681	0.000249
308.15	0.28767	0.137	0.02646	0.000424
308.15	0.30398	0.08805	0.04286	0.000761
308.15	0.3199	0.04031	0.07419	0.001494
308.15	0.32763	0.0171	0.1046	0.002824
308.15	0.33333	0	0.1365	0.0056
318.15	0	1	0.000758	9e-06
318.15	0.04446	0.86662	0.001008	1.2e-05
318.15	0.06882	0.79355	0.00117	1.4e-05
318.15	0.12996	0.61012	0.001825	2.3e-05
318.15	0.17891	0.46327	0.002992	3.8e-05
318.15	0.2132	0.36039	0.004494	5.7e-05
318.15	0.2503	0.2491	0.008057	0.000116
318.15	0.26933	0.19201	0.01218	0.000181
318.15	0.28767	0.137	0.0185	0.000295
318.15	0.30398	0.08805	0.02846	0.000506
318.15	0.3199	0.04031	0.04674	0.000907
318.15	0.32763	0.0171	0.06306	0.001342
318.15	0.33333	0	0.08154	0.00186

System: ethanol + choline chloride + 4-oxopentanoic acid; phases: Liquid
Fixed: Pressure, kPa = 100
Property: Refractive index (Na D-line) (Liquid); method: Standard Abbe refractometry
Temperature, K	Mole fraction of choline chloride	Mole fraction of ethanol	Refractive index (Na D-line)	uncertainty
298.15	0	1	1.35905	0.00031
298.15	0.04446	0.86662	1.37028	0.00163
298.15	0.06882	0.79355	1.37677	0.00163
298.15	0.12996	0.61012	1.39445	0.00199
298.15	0.17891	0.46327	1.41048	0.00202
298.15	0.2132	0.36039	1.4219	0.00203
298.15	0.2503	0.2491	1.43559	0.00237
298.15	0.26933	0.19201	1.44304	0.00239
298.15	0.28767	0.137	1.45026	0.00255
298.15	0.30398	0.08805	1.45712	0.00244
298.15	0.3199	0.04031	1.46354	0.00221
298.15	0.32763	0.0171	1.46635	0.00247
298.15	0.33333	0	1.46867	0.00247
308.15	0	1	1.35501	0.00031
308.15	0.04446	0.86662	1.36665	0.00157
308.15	0.06882	0.79355	1.37319	0.00183
308.15	0.12996	0.61012	1.39119	0.00186
308.15	0.17891	0.46327	1.40704	0.00198
308.15	0.2132	0.36039	1.41897	0.00213
308.15	0.2503	0.2491	1.43306	0.00289
308.15	0.26933	0.19201	1.44191	0.002
308.15	0.28767	0.137	1.4472	0.00245
308.15	0.30398	0.08805	1.45391	0.0025
308.15	0.3199	0.04031	1.46055	0.00247
308.15	0.32763	0.0171	1.46371	0.00238
308.15	0.33333	0	1.46595	0.00237
318.15	0	1	1.35083	0.00031
318.15	0.04446	0.86662	1.36392	0.00199
318.15	0.06882	0.79355	1.37189	0.00199
318.15	0.12996	0.61012	1.39072	0.0019
318.15	0.17891	0.46327	1.40597	0.00183
318.15	0.2132	0.36039	1.41627	0.00183
318.15	0.2503	0.2491	1.42978	0.00279
318.15	0.26933	0.19201	1.43858	0.00195
318.15	0.28767	0.137	1.44446	0.00241
318.15	0.30398	0.08805	1.45094	0.00253
318.15	0.3199	0.04031	1.45759	0.00274
318.15	0.32763	0.0171	1.46109	0.00225
318.15	0.33333	0	1.4632	0.00225

System: choline chloride + propan-1-ol + 4-oxopentanoic acid; phases: Liquid
Fixed: Pressure, kPa = 100
Property: Mass density, kg/m3 (Liquid); method: Vibrating tube method
Temperature, K	Mole fraction of choline chloride	Mole fraction of propan-1-ol	Mass density, kg/m3	uncertainty
298.15	0	1	799.69	0.81
298.15	0.0412	0.8764	823.95	0.97
298.15	0.07447	0.7766	845.13	0.99
298.15	0.13605	0.59186	890.84	1.05
298.15	0.18031	0.45908	930.17	1.11
298.15	0.2162	0.3514	967.54	1.16
298.15	0.25287	0.2414	1011.66	1.24
298.15	0.27412	0.17763	1040.91	1.29
298.15	0.28831	0.13506	1062.01	1.32
298.15	0.30484	0.08548	1088.08	1.38
298.15	0.32083	0.03752	1115.22	1.44
298.15	0.32682	0.01953	1125.93	1.46
298.15	0.33333	0	1137.71	1.31
308.15	0	1	792.76	0.8
308.15	0.0412	0.8764	815.95	0.96
308.15	0.07447	0.7766	837.26	0.98
308.15	0.13605	0.59186	883.11	1.04
308.15	0.18031	0.45908	922.74	1.1
308.15	0.2162	0.3514	960.22	1.15
308.15	0.25287	0.2414	1004.42	1.23
308.15	0.27412	0.17763	1033.78	1.28
308.15	0.28831	0.13506	1054.97	1.31
308.15	0.30484	0.08548	1081.17	1.38
308.15	0.32083	0.03752	1108.52	1.43
308.15	0.32682	0.01953	1119.17	1.45
308.15	0.33333	0	1130.99	1.3
318.15	0	1	784.45	0.79
318.15	0.0412	0.8764	807.83	0.95
318.15	0.07447	0.7766	829.3	0.97
318.15	0.13605	0.59186	875.31	1.03
318.15	0.18031	0.45908	915.31	1.09
318.15	0.2162	0.3514	952.8	1.14
318.15	0.25287	0.2414	997.18	1.22
318.15	0.27412	0.17763	1026.69	1.27
318.15	0.28831	0.13506	1047.96	1.31
318.15	0.30484	0.08548	1074.26	1.37
318.15	0.32083	0.03752	1101.78	1.42
318.15	0.32682	0.01953	1112.46	1.44
318.15	0.33333	0	1124.31	1.3

System: choline chloride + propan-1-ol + 4-oxopentanoic acid; phases: Liquid
Fixed: Pressure, kPa = 100
Property: Speed of sound, m/s (Liquid); method: Sing-around technique in a fixed-path interferometer
Temperature, K	Mole fraction of choline chloride	Mole fraction of propan-1-ol	Speed of sound, m/s	uncertainty
298.15	0	1	1209	2
298.15	0.0412	0.8764	1235	2
298.15	0.07447	0.7766	1260	2
298.15	0.13605	0.59186	1317	2
298.15	0.18031	0.45908	1369	2
298.15	0.2162	0.3514	1427	2
298.15	0.25287	0.2414	1501	2
298.15	0.27412	0.17763	1555	2
298.15	0.28831	0.13506	1594	2
298.15	0.30484	0.08548	1646	3
298.15	0.32083	0.03752	1703	3
298.15	0.32682	0.01953	1725	3
298.15	0.33333	0	1749	3
308.15	0	1	1175	2
308.15	0.0412	0.8764	1202	2
308.15	0.07447	0.7766	1227	2
308.15	0.13605	0.59186	1285	2
308.15	0.18031	0.45908	1338	2
308.15	0.2162	0.3514	1397	2
308.15	0.25287	0.2414	1471	2
308.15	0.27412	0.17763	1526	2
308.15	0.28831	0.13506	1565	2
308.15	0.30484	0.08548	1618	3
308.15	0.32083	0.03752	1674	3
308.15	0.32682	0.01953	1696	3
308.15	0.33333	0	1720	3
318.15	0	1	1141	2
318.15	0.0412	0.8764	1169	2
318.15	0.07447	0.7766	1195	2
318.15	0.13605	0.59186	1254	2
318.15	0.18031	0.45908	1307	2
318.15	0.2162	0.3514	1367	2
318.15	0.25287	0.2414	1442	2
318.15	0.27412	0.17763	1498	2
318.15	0.28831	0.13506	1537	2
318.15	0.30484	0.08548	1590	3
318.15	0.32083	0.03752	1647	3
318.15	0.32682	0.01953	1669	3
318.15	0.33333	0	1693	3

System: choline chloride + propan-1-ol + 4-oxopentanoic acid; phases: Liquid
Fixed: Pressure, kPa = 100
Property: Viscosity, Pa*s (Liquid); method: Falling or rolling sphere viscometry
Temperature, K	Mole fraction of choline chloride	Mole fraction of propan-1-ol	Viscosity, Pa*s	uncertainty
298.15	0	1	0.001943	2.4e-05
298.15	0.0412	0.8764	0.00235	2.9e-05
298.15	0.07447	0.7766	0.002816	3.5e-05
298.15	0.13605	0.59186	0.004334	5.5e-05
298.15	0.18031	0.45908	0.006721	8.7e-05
298.15	0.2162	0.3514	0.01055	0.000136
298.15	0.25287	0.2414	0.02027	0.000288
298.15	0.27412	0.17763	0.03096	0.000487
298.15	0.28831	0.13506	0.04555	0.000656
298.15	0.30484	0.08548	0.07487	0.001696
298.15	0.32083	0.03752	0.1361	0.005206
298.15	0.32682	0.01953	0.1809	0.008234
298.15	0.33333	0	0.2558	0.014602
308.15	0	1	0.001549	1.9e-05
308.15	0.0412	0.8764	0.001858	2.3e-05
308.15	0.07447	0.7766	0.002213	2.8e-05
308.15	0.13605	0.59186	0.003336	4.2e-05
308.15	0.18031	0.45908	0.00505	6.5e-05
308.15	0.2162	0.3514	0.00769	0.0001
308.15	0.25287	0.2414	0.01402	0.000196
308.15	0.27412	0.17763	0.02082	0.000304
308.15	0.28831	0.13506	0.02944	0.000442
308.15	0.30484	0.08548	0.0459	0.000787
308.15	0.32083	0.03752	0.07786	0.001517
308.15	0.32682	0.01953	0.1002	0.00307
308.15	0.33333	0	0.1365	0.005511
318.15	0	1	0.001252	1.6e-05
318.15	0.0412	0.8764	0.002286	2.8e-05
318.15	0.07447	0.7766	0.002718	3.4e-05
318.15	0.13605	0.59186	0.002935	3.7e-05
318.15	0.18031	0.45908	0.004461	5.8e-05
318.15	0.2162	0.3514	0.007227	9.3e-05
318.15	0.25287	0.2414	0.00795	0.000125
318.15	0.27412	0.17763	0.01394	0.000228
318.15	0.28831	0.13506	0.02128	0.000311
318.15	0.30484	0.08548	0.03123	0.00052
318.15	0.32083	0.03752	0.04844	0.000798
318.15	0.32682	0.01953	0.05764	0.000843
318.15	0.33333	0	0.08154	0.001947

System: choline chloride + propan-1-ol + 4-oxopentanoic acid; phases: Liquid
Fixed: Pressure, kPa = 100
Property: Refractive index (Na D-line) (Liquid); method: Standard Abbe refractometry
Temperature, K	Mole fraction of choline chloride	Mole fraction of propan-1-ol	Refractive index (Na D-line)	uncertainty
298.15	0	1	1.38275	0.00032
298.15	0.0412	0.8764	1.38912	0.00032
298.15	0.07447	0.7766	1.39486	0.00032
298.15	0.13605	0.59186	1.40679	0.00033
298.15	0.18031	0.45908	1.4176	0.00033
298.15	0.2162	0.3514	1.42671	0.00034
298.15	0.25287	0.2414	1.43845	0.00035
298.15	0.27412	0.17763	1.44531	0.00036
298.15	0.28831	0.13506	1.45069	0.00036
298.15	0.30484	0.08548	1.45698	0.00037
298.15	0.32083	0.03752	1.46366	0.00037
298.15	0.32682	0.01953	1.46573	0.00037
298.15	0.33333	0	1.46867	0.00038
308.15	0	1	1.37857	0.00032
308.15	0.0412	0.8764	1.38505	0.00032
308.15	0.07447	0.7766	1.39092	0.00032
308.15	0.13605	0.59186	1.40309	0.00033
308.15	0.18031	0.45908	1.41405	0.00033
308.15	0.2162	0.3514	1.42355	0.00034
308.15	0.25287	0.2414	1.43504	0.00035
308.15	0.27412	0.17763	1.44213	0.00036
308.15	0.28831	0.13506	1.44756	0.00036
308.15	0.30484	0.08548	1.45395	0.00037
308.15	0.32083	0.03752	1.46066	0.00037
308.15	0.32682	0.01953	1.46311	0.00037
308.15	0.33333	0	1.46595	0.00038
318.15	0	1	1.37421	0.00032
318.15	0.0412	0.8764	1.38097	0.00032
318.15	0.07447	0.7766	1.3881	0.00032
318.15	0.13605	0.59186	1.40047	0.00033
318.15	0.18031	0.45908	1.41166	0.00033
318.15	0.2162	0.3514	1.42064	0.00034
318.15	0.25287	0.2414	1.43185	0.00035
318.15	0.27412	0.17763	1.43899	0.00036
318.15	0.28831	0.13506	1.44445	0.00036
318.15	0.30484	0.08548	1.45124	0.00037
318.15	0.32083	0.03752	1.45771	0.00038
318.15	0.32682	0.01953	1.46031	0.00038
318.15	0.33333	0	1.4632	0.00038

System: choline chloride + butan-1-ol + 4-oxopentanoic acid; phases: Liquid
Fixed: Pressure, kPa = 100
Property: Mass density, kg/m3 (Liquid); method: Vibrating tube method
Temperature, K	Mole fraction of choline chloride	Mole fraction of butan-1-ol	Mass density, kg/m3	uncertainty
298.15	0	1	805.75	0.81
298.15	0.04321	0.87036	825.55	0.97
298.15	0.07331	0.78008	841.05	0.99
298.15	0.14168	0.57496	884.84	1.04
298.15	0.21513	0.3546	949.87	1.14
298.15	0.24472	0.26585	984.4	1.2
298.15	0.26774	0.19677	1016	1.26
298.15	0.28833	0.135	1048.55	1.34
298.15	0.30649	0.08054	1081.47	1.42
298.15	0.32042	0.03875	1109.57	1.48
298.15	0.32705	0.01885	1123.66	1.52
298.15	0.33333	0	1137.71	1.38
308.15	0	1	798.06	0.81
308.15	0.04321	0.87036	817.9	0.96
308.15	0.07331	0.78008	833.57	0.98
308.15	0.14168	0.57496	877.33	1.03
308.15	0.21513	0.3546	942.55	1.13
308.15	0.24472	0.26585	977.19	1.19
308.15	0.26774	0.19677	1008.91	1.26
308.15	0.28833	0.135	1041.48	1.33
308.15	0.30649	0.08054	1074.55	1.41
308.15	0.32042	0.03875	1102.74	1.47
308.15	0.32705	0.01885	1116.88	1.51
308.15	0.33333	0	1130.99	1.38
318.15	0	1	790.22	0.8
318.15	0.04321	0.87036	810.14	0.95
318.15	0.07331	0.78008	825.92	0.97
318.15	0.14168	0.57496	869.76	1.02
318.15	0.21513	0.3546	935.2	1.13
318.15	0.24472	0.26585	969.99	1.19
318.15	0.26774	0.19677	1001.82	1.25
318.15	0.28833	0.135	1034.47	1.32
318.15	0.30649	0.08054	1067.68	1.4
318.15	0.32042	0.03875	1095.96	1.46
318.15	0.32705	0.01885	1110.15	1.51
318.15	0.33333	0	1124.31	1.37

System: choline chloride + butan-1-ol + 4-oxopentanoic acid; phases: Liquid
Fixed: Pressure, kPa = 100
Property: Speed of sound, m/s (Liquid); method: Sing-around technique in a fixed-path interferometer
Temperature, K	Mole fraction of choline chloride	Mole fraction of butan-1-ol	Speed of sound, m/s	uncertainty
298.15	0	1	1240	2
298.15	0.04321	0.87036	1260	2
298.15	0.07331	0.78008	1282	2
298.15	0.14168	0.57496	1323	2
298.15	0.21513	0.3546	1404	2
298.15	0.24472	0.26585	1454	2
298.15	0.26774	0.19677	1506	2
298.15	0.28833	0.135	1553	3
298.15	0.30649	0.08054	1630	3
298.15	0.32042	0.03875	1689	3
298.15	0.32705	0.01885	1718	3
298.15	0.33333	0	1749	3
308.15	0	1	1206	2
308.15	0.04321	0.87036	1228	2
308.15	0.07331	0.78008	1244	2
308.15	0.14168	0.57496	1292	2
308.15	0.21513	0.3546	1374	2
308.15	0.24472	0.26585	1425	2
308.15	0.26774	0.19677	1477	2
308.15	0.28833	0.135	1525	3
308.15	0.30649	0.08054	1602	3
308.15	0.32042	0.03875	1661	3
308.15	0.32705	0.01885	1690	3
308.15	0.33333	0	1720	3
318.15	0	1	1173	2
318.15	0.04321	0.87036	1195	2
318.15	0.07331	0.78008	1211	2
318.15	0.14168	0.57496	1260	2
318.15	0.21513	0.3546	1344	2
318.15	0.24472	0.26585	1396	2
318.15	0.26774	0.19677	1449	2
318.15	0.28833	0.135	1497	3
318.15	0.30649	0.08054	1574	3
318.15	0.32042	0.03875	1634	3
318.15	0.32705	0.01885	1663	3
318.15	0.33333	0	1693	3

System: choline chloride + butan-1-ol + 4-oxopentanoic acid; phases: Liquid
Fixed: Pressure, kPa = 100
Property: Viscosity, Pa*s (Liquid); method: Falling or rolling sphere viscometry
Temperature, K	Mole fraction of choline chloride	Mole fraction of butan-1-ol	Viscosity, Pa*s	uncertainty
298.15	0	1	0.002568	3.2e-05
298.15	0.04321	0.87036	0.002991	3.7e-05
298.15	0.07331	0.78008	0.003674	4.6e-05
298.15	0.14168	0.57496	0.005241	6.6e-05
298.15	0.21513	0.3546	0.01103	0.000148
298.15	0.24472	0.26585	0.01792	0.000248
298.15	0.26774	0.19677	0.02728	0.000387
298.15	0.28833	0.135	0.04018	0.000776
298.15	0.30649	0.08054	0.07675	0.001746
298.15	0.32042	0.03875	0.1295	0.00466
298.15	0.32705	0.01885	0.1721	0.008411
298.15	0.33333	0	0.2558	0.014774
308.15	0	1	0.001998	2.5e-05
308.15	0.04321	0.87036	0.002328	2.9e-05
308.15	0.07331	0.78008	0.002851	3.5e-05
308.15	0.14168	0.57496	0.003985	5e-05
308.15	0.21513	0.3546	0.008013	0.000106
308.15	0.24472	0.26585	0.0127	0.000171
308.15	0.26774	0.19677	0.01853	0.000252
308.15	0.28833	0.135	0.02633	0.00045
308.15	0.30649	0.08054	0.04691	0.000792
308.15	0.32042	0.03875	0.07471	0.001358
308.15	0.32705	0.01885	0.09572	0.002615
308.15	0.33333	0	0.1365	0.005704
318.15	0	1	0.001578	1.9e-05
318.15	0.04321	0.87036	0.00184	2.3e-05
318.15	0.07331	0.78008	0.002253	2.8e-05
318.15	0.14168	0.57496	0.003105	3.9e-05
318.15	0.21513	0.3546	0.006028	8e-05
318.15	0.24472	0.26585	0.009402	0.000127
318.15	0.26774	0.19677	0.01336	0.000182
318.15	0.28833	0.135	0.01817	0.000307
318.15	0.30649	0.08054	0.03075	0.000531
318.15	0.32042	0.03875	0.04682	0.000814
318.15	0.32705	0.01885	0.05806	0.001402
318.15	0.33333	0	0.08154	0.001961

System: choline chloride + butan-1-ol + 4-oxopentanoic acid; phases: Liquid
Fixed: Pressure, kPa = 100
Property: Refractive index (Na D-line) (Liquid); method: Standard Abbe refractometry
Temperature, K	Mole fraction of choline chloride	Mole fraction of butan-1-ol	Refractive index (Na D-line)	uncertainty
298.15	0	1	1.39697	0.00031
298.15	0.04321	0.87036	1.40149	0.00032
298.15	0.07331	0.78008	1.40626	0.00032
298.15	0.14168	0.57496	1.41466	0.00032
298.15	0.21513	0.3546	1.42918	0.00034
298.15	0.24472	0.26585	1.43675	0.00034
298.15	0.26774	0.19677	1.44292	0.00035
298.15	0.28833	0.135	1.44854	0.00037
298.15	0.30649	0.08054	1.4577	0.00037
298.15	0.32042	0.03875	1.46327	0.00037
298.15	0.32705	0.01885	1.46557	0.00039
298.15	0.33333	0	1.46867	0.00039
308.15	0	1	1.39281	0.00031
308.15	0.04321	0.87036	1.39746	0.00032
308.15	0.07331	0.78008	1.40128	0.00032
308.15	0.14168	0.57496	1.41093	0.00032
308.15	0.21513	0.3546	1.42576	0.00034
308.15	0.24472	0.26585	1.43345	0.00035
308.15	0.26774	0.19677	1.44041	0.00036
308.15	0.28833	0.135	1.44815	0.00037
308.15	0.30649	0.08054	1.45554	0.00037
308.15	0.32042	0.03875	1.46036	0.00037
308.15	0.32705	0.01885	1.46294	0.00039
308.15	0.33333	0	1.46595	0.00039
318.15	0	1	1.38857	0.00031
318.15	0.04321	0.87036	1.39335	0.00032
318.15	0.07331	0.78008	1.39735	0.00032
318.15	0.14168	0.57496	1.4073	0.00032
318.15	0.21513	0.3546	1.42226	0.00034
318.15	0.24472	0.26585	1.43003	0.00035
318.15	0.26774	0.19677	1.43714	0.00035
318.15	0.28833	0.135	1.44299	0.00037
318.15	0.30649	0.08054	1.45144	0.00037
318.15	0.32042	0.03875	1.45742	0.00037
318.15	0.32705	0.01885	1.46012	0.00039
318.15	0.33333	0	1.4632	0.00039

System: choline chloride + pentan-1-ol + 4-oxopentanoic acid; phases: Liquid
Fixed: Pressure, kPa = 100
Property: Mass density, kg/m3 (Liquid); method: Vibrating tube method
Temperature, K	Mole fraction of choline chloride	Mole fraction of pentan-1-ol	Mass density, kg/m3	uncertainty
298.15	0	1	810.88	0.82
298.15	0.03506	0.89483	824.07	0.97
298.15	0.08197	0.75408	843.9	0.99
298.15	0.13637	0.59088	873.86	1.03
298.15	0.16676	0.49972	894.87	1.06
298.15	0.21727	0.34819	939.34	1.13
298.15	0.24861	0.25417	975.78	1.2
298.15	0.27174	0.18479	1009.11	1.27
298.15	0.29017	0.1295	1040.56	1.35
298.15	0.30649	0.08054	1073.1	1.45
298.15	0.3211	0.0367	1106.67	1.54
298.15	0.32642	0.02075	1120	1.56
298.15	0.33333	0	1137.71	1.44
308.15	0	1	803.5	0.82
308.15	0.03506	0.89483	824.07	0.97
308.15	0.08197	0.75408	836.61	0.99
308.15	0.13637	0.59088	866.68	1.02
308.15	0.16676	0.49972	887.69	1.05
308.15	0.21727	0.34819	932.23	1.13
308.15	0.24861	0.25417	968.74	1.19
308.15	0.27174	0.18479	1002.04	1.27
308.15	0.29017	0.1295	1033.69	1.35
308.15	0.30649	0.08054	1066.24	1.44
308.15	0.3211	0.0367	1099.89	1.53
308.15	0.32642	0.02075	1113.24	1.55
308.15	0.33333	0	1130.99	1.44
318.15	0	1	795.98	0.81
318.15	0.03506	0.89483	809.26	0.95
318.15	0.08197	0.75408	829.21	0.98
318.15	0.13637	0.59088	859.38	1.02
318.15	0.16676	0.49972	880.46	1.04
318.15	0.21727	0.34819	925.09	1.12
318.15	0.24861	0.25417	961.72	1.19
318.15	0.27174	0.18479	995.02	1.26
318.15	0.29017	0.1295	1026.75	1.34
318.15	0.30649	0.08054	1059.39	1.44
318.15	0.3211	0.0367	1093.16	1.52
318.15	0.32642	0.02075	1106.55	1.55
318.15	0.33333	0	1124.31	1.43

System: choline chloride + pentan-1-ol + 4-oxopentanoic acid; phases: Liquid
Fixed: Pressure, kPa = 100
Property: Speed of sound, m/s (Liquid); method: Sing-around technique in a fixed-path interferometer
Temperature, K	Mole fraction of choline chloride	Mole fraction of pentan-1-ol	Speed of sound, m/s	uncertainty
298.15	0	1	1276	2
298.15	0.03506	0.89483	1289	2
298.15	0.08197	0.75408	1304	2
298.15	0.13637	0.59088	1332	2
298.15	0.16676	0.49972	1353	2
298.15	0.21727	0.34819	1411	2
298.15	0.24861	0.25417	1449	2
298.15	0.27174	0.18479	1485	3
298.15	0.29017	0.1295	1559	3
298.15	0.30649	0.08054	1613	3
298.15	0.3211	0.0367	1686	3
298.15	0.32642	0.02075	1716	3
298.15	0.33333	0	1748.9	2.8
308.15	0	1	1242	2
308.15	0.03506	0.89483	1254	2
308.15	0.08197	0.75408	1272	2
308.15	0.13637	0.59088	1301	2
308.15	0.16676	0.49972	1321	2
308.15	0.21727	0.34819	1372	2
308.15	0.24861	0.25417	1381	2
308.15	0.27174	0.18479	1455	3
308.15	0.29017	0.1295	1522	3
308.15	0.30649	0.08054	1585	3
308.15	0.3211	0.0367	1657	3
308.15	0.32642	0.02075	1687	3
308.15	0.33333	0	1720	3
318.15	0	1	1209	2
318.15	0.03506	0.89483	1221	2
318.15	0.08197	0.75408	1240	2
318.15	0.13637	0.59088	1269	2
318.15	0.16676	0.49972	1291	2
318.15	0.21727	0.34819	1343	2
318.15	0.24861	0.25417	1390	2
318.15	0.27174	0.18479	1427	3
318.15	0.29017	0.1295	1494	3
318.15	0.30649	0.08054	1557	3
318.15	0.3211	0.0367	1630	3
318.15	0.32642	0.02075	1660	3
318.15	0.33333	0	1693	3

System: choline chloride + pentan-1-ol + 4-oxopentanoic acid; phases: Liquid
Fixed: Pressure, kPa = 100
Property: Viscosity, Pa*s (Liquid); method: Falling or rolling sphere viscometry
Temperature, K	Mole fraction of choline chloride	Mole fraction of pentan-1-ol	Viscosity, Pa*s	uncertainty
298.15	0	1	0.003502	4.4e-05
298.15	0.03506	0.89483	0.003863	4.9e-05
298.15	0.08197	0.75408	0.004615	5.9e-05
298.15	0.13637	0.59088	0.005012	6.5e-05
298.15	0.16676	0.49972	0.007907	0.000102
298.15	0.21727	0.34819	0.0136	0.000175
298.15	0.24861	0.25417	0.015	0.000244
298.15	0.27174	0.18479	0.02891	0.000474
298.15	0.29017	0.1295	0.04874	0.000816
298.15	0.30649	0.08054	0.07794	0.0018
298.15	0.3211	0.0367	0.1343	0.004997
298.15	0.32642	0.02075	0.1703	0.007396
298.15	0.33333	0	0.2558	0.014681
308.15	0	1	0.002662	3.4e-05
308.15	0.03506	0.89483	0.002943	3.7e-05
308.15	0.08197	0.75408	0.003505	4.5e-05
308.15	0.13637	0.59088	0.003794	4.9e-05
308.15	0.16676	0.49972	0.005842	7.6e-05
308.15	0.21727	0.34819	0.009789	0.000126
308.15	0.24861	0.25417	0.01081	0.000165
308.15	0.27174	0.18479	0.01954	0.000295
308.15	0.29017	0.1295	0.03122	0.000474
308.15	0.30649	0.08054	0.04772	0.00081
308.15	0.3211	0.0367	0.07728	0.001422
308.15	0.32642	0.02075	0.09494	0.002834
308.15	0.33333	0	0.1365	0.005555
318.15	0	1	0.002061	2.6e-05
318.15	0.03506	0.89483	0.002286	2.9e-05
318.15	0.08197	0.75408	0.002718	3.5e-05
318.15	0.13637	0.59088	0.002935	3.8e-05
318.15	0.16676	0.49972	0.004461	5.8e-05
318.15	0.21727	0.34819	0.007227	9.3e-05
318.15	0.24861	0.25417	0.00795	0.000121
318.15	0.27174	0.18479	0.01394	0.00021
318.15	0.29017	0.1295	0.02128	0.000327
318.15	0.30649	0.08054	0.03123	0.000542
318.15	0.3211	0.0367	0.04844	0.000839
318.15	0.32642	0.02075	0.05764	0.000881
318.15	0.33333	0	0.08154	0.001903

System: choline chloride + pentan-1-ol + 4-oxopentanoic acid; phases: Liquid
Fixed: Pressure, kPa = 100
Property: Refractive index (Na D-line) (Liquid); method: Standard Abbe refractometry
Temperature, K	Mole fraction of choline chloride	Mole fraction of pentan-1-ol	Refractive index (Na D-line)	uncertainty
298.15	0	1	1.40752	0.00033
298.15	0.03506	0.89483	1.41023	0.00033
298.15	0.08197	0.75408	1.41403	0.00034
298.15	0.13637	0.59088	1.41995	0.00034
298.15	0.16676	0.49972	1.42391	0.00034
298.15	0.21727	0.34819	1.43212	0.00035
298.15	0.24861	0.25417	1.43865	0.00035
298.15	0.27174	0.18479	1.44494	0.00036
298.15	0.29017	0.1295	1.45116	0.00037
298.15	0.30649	0.08054	1.45729	0.00037
298.15	0.3211	0.0367	1.46339	0.00038
298.15	0.32642	0.02075	1.46581	0.00038
298.15	0.33333	0	1.46867	0.00038
308.15	0	1	1.40352	0.00033
308.15	0.03506	0.89483	1.40621	0.00033
308.15	0.08197	0.75408	1.41015	0.00034
308.15	0.13637	0.59088	1.41608	0.00034
308.15	0.16676	0.49972	1.42023	0.00034
308.15	0.21727	0.34819	1.42868	0.00035
308.15	0.24861	0.25417	1.4354	0.00035
308.15	0.27174	0.18479	1.44173	0.00036
308.15	0.29017	0.1295	1.44798	0.00037
308.15	0.30649	0.08054	1.45422	0.00037
308.15	0.3211	0.0367	1.46063	0.00038
308.15	0.32642	0.02075	1.46287	0.00038
308.15	0.33333	0	1.46595	0.00038
318.15	0	1	1.39942	0.00033
318.15	0.03506	0.89483	1.40213	0.00033
318.15	0.08197	0.75408	1.40622	0.00034
318.15	0.13637	0.59088	1.41217	0.00034
318.15	0.16676	0.49972	1.41644	0.00034
318.15	0.21727	0.34819	1.42502	0.00035
318.15	0.24861	0.25417	1.43195	0.00035
318.15	0.27174	0.18479	1.43842	0.00036
318.15	0.29017	0.1295	1.44472	0.00037
318.15	0.30649	0.08054	1.45119	0.00038
318.15	0.3211	0.0367	1.45773	0.00038
318.15	0.32642	0.02075	1.45999	0.00038
318.15	0.33333	0	1.4632	0.00038
