Measured thermophysical data. Physical Behavior of the Phases from the Liquid-Liquid Equilibrium of Citrus Essential Oils Systems at 298.2 K
Source: J. Chem. Eng. Data, 2018, 10.1021/acs.jced.8b00086
Compound 1: (R)-1-methyl-4-(1-methylethenyl)cyclohexene, C10H16, InChI=1S/C10H16/c1-8(2)10-6-4-9(3)5-7-10/h4,10H,1,5-7H2,2-3H3/t10-/m0/s1
Compound 2: 1-methyl-4-(1-methylethyl)-1,4-cyclohexadiene, C10H16, InChI=1S/C10H16/c1-8(2)10-6-4-9(3)5-7-10/h4,7-8H,5-6H2,1-3H3
Compound 3: (1S,5S)-6,6-dimethyl-2-methylenebicyclo[3.1.1]heptane, C10H16, InChI=1S/C10H16/c1-7-4-5-8-6-9(7)10(8,2)3/h8-9H,1,4-6H2,2-3H3/t8-,9-/m0/s1
Compound 4: 3,7-dimethyl-1,6-octadien-3-ol, C10H18O, InChI=1S/C10H18O/c1-5-10(4,11)8-6-7-9(2)3/h5,7,11H,1,6,8H2,2-4H3
Compound 5: 3,7-dimethyl-2,6-octadienal (cis+trans), C10H16O, InChI=1S/C10H16O/c1-9(2)5-4-6-10(3)7-8-11/h5,7-8H,4,6H2,1-3H3
Compound 6: ethanol, C2H6O, InChI=1S/C2H6O/c1-2-3/h3H,2H2,1H3
Compound 7: water, H2O, InChI=1S/H2O/h1H2, purity 99.8%
Compound 8: octanal, C8H16O, InChI=1S/C8H16O/c1-2-3-4-5-6-7-8-9/h8H,2-7H2,1H3
Compound 9: octan-1-ol, C8H18O, InChI=1S/C8H18O/c1-2-3-4-5-6-7-8-9/h9H,2-8H2,1H3
Compound 10: 1-(1-methylethyl)-4-methylbenzene, C10H14, InChI=1S/C10H14/c1-8(2)10-6-4-9(3)5-7-10/h4-8H,1-3H3
Compound 11: (R)-2-pinene, C10H16, InChI=1S/C10H16/c1-7-4-5-8-6-9(7)10(8,2)3/h4,8-9H,5-6H2,1-3H3/t8-,9-/m1/s1
Compound 12: (.+-.)-citronellal, C10H18O, InChI=1S/C10H18O/c1-9(2)5-4-6-10(3)7-8-11/h5,8,10H,4,6-7H2,1-3H3
Compound 13: .alpha.,.alpha.,4-trimethyl-3-cyclohexene-1-methanol, C10H18O, InChI=1S/C10H18O/c1-8-4-6-9(7-5-8)10(2,3)11/h4,9,11H,5-7H2,1-3H3
Compound 14: (E)-3,7-dimethyl-2,6-octadien-1-ol, C10H18O, InChI=1S/C10H18O/c1-9(2)5-4-6-10(3)7-8-11/h5,7,11H,4,6,8H2,1-3H3/b10-7+
Compound 15: decanal, C10H20O, InChI=1S/C10H20O/c1-2-3-4-5-6-7-8-9-10-11/h10H,2-9H2,1H3

System: (R)-1-methyl-4-(1-methylethenyl)cyclohexene; phases: Liquid
Property: Mass density, kg/m3 (Liquid); method: Vibrating tube method
Temperature, K	Pressure, kPa	Mass density, kg/m3	uncertainty
298.2	101.325	841.35	2.03

System: (R)-1-methyl-4-(1-methylethenyl)cyclohexene; phases: Liquid
Property: Viscosity, Pa*s (Liquid); method: Falling or rolling sphere viscometry
Temperature, K	Pressure, kPa	Viscosity, Pa*s	uncertainty
298.2	101.325	0.000916	2e-05

System: (R)-1-methyl-4-(1-methylethenyl)cyclohexene; phases: Liquid, Gas
Property: Surface tension liquid-gas, N/m (Liquid); method: Ring tensiometer
Temperature, K	Surface tension liquid-gas, N/m	uncertainty
298.2	0.0276	0.002

System: 1-methyl-4-(1-methylethyl)-1,4-cyclohexadiene; phases: Liquid
Property: Mass density, kg/m3 (Liquid); method: Vibrating tube method
Temperature, K	Pressure, kPa	Mass density, kg/m3	uncertainty
298.2	101.325	845.16	2.16

System: 1-methyl-4-(1-methylethyl)-1,4-cyclohexadiene; phases: Liquid
Property: Viscosity, Pa*s (Liquid); method: Falling or rolling sphere viscometry
Temperature, K	Pressure, kPa	Viscosity, Pa*s	uncertainty
298.2	101.325	0.000852	2.1e-05

System: 1-methyl-4-(1-methylethyl)-1,4-cyclohexadiene; phases: Liquid, Gas
Property: Surface tension liquid-gas, N/m (Liquid); method: Ring tensiometer
Temperature, K	Surface tension liquid-gas, N/m	uncertainty
298.2	0.0253	0.0021

System: (1S,5S)-6,6-dimethyl-2-methylenebicyclo[3.1.1]heptane; phases: Liquid
Property: Mass density, kg/m3 (Liquid); method: Vibrating tube method
Temperature, K	Pressure, kPa	Mass density, kg/m3	uncertainty
298.2	101.325	866.95	2.01

System: (1S,5S)-6,6-dimethyl-2-methylenebicyclo[3.1.1]heptane; phases: Liquid
Property: Viscosity, Pa*s (Liquid); method: Falling or rolling sphere viscometry
Temperature, K	Pressure, kPa	Viscosity, Pa*s	uncertainty
298.2	101.325	0.001531	3.3e-05

System: (1S,5S)-6,6-dimethyl-2-methylenebicyclo[3.1.1]heptane; phases: Liquid, Gas
Property: Surface tension liquid-gas, N/m (Liquid); method: Ring tensiometer
Temperature, K	Surface tension liquid-gas, N/m	uncertainty
298.2	0.027	0.002

System: 3,7-dimethyl-1,6-octadien-3-ol; phases: Liquid
Property: Mass density, kg/m3 (Liquid); method: Vibrating tube method
Temperature, K	Pressure, kPa	Mass density, kg/m3	uncertainty
298.2	101.325	857.38	2.02

System: 3,7-dimethyl-1,6-octadien-3-ol; phases: Liquid
Property: Viscosity, Pa*s (Liquid); method: Falling or rolling sphere viscometry
Temperature, K	Pressure, kPa	Viscosity, Pa*s	uncertainty
298.2	101.325	0.004565	0.000103

System: 3,7-dimethyl-1,6-octadien-3-ol; phases: Liquid, Gas
Property: Surface tension liquid-gas, N/m (Liquid); method: Ring tensiometer
Temperature, K	Surface tension liquid-gas, N/m	uncertainty
298.2	0.0254	0.002

System: 3,7-dimethyl-2,6-octadienal (cis+trans); phases: Liquid
Property: Mass density, kg/m3 (Liquid); method: Vibrating tube method
Temperature, K	Pressure, kPa	Mass density, kg/m3	uncertainty
298.2	101.325	884.84	2.02

System: 3,7-dimethyl-2,6-octadienal (cis+trans); phases: Liquid
Property: Viscosity, Pa*s (Liquid); method: Falling or rolling sphere viscometry
Temperature, K	Pressure, kPa	Viscosity, Pa*s	uncertainty
298.2	101.325	0.00193	4.3e-05

System: 3,7-dimethyl-2,6-octadienal (cis+trans); phases: Liquid, Gas
Property: Surface tension liquid-gas, N/m (Liquid); method: Ring tensiometer
Temperature, K	Surface tension liquid-gas, N/m	uncertainty
298.2	0.0319	0.002

System: ethanol; phases: Liquid
Property: Mass density, kg/m3 (Liquid); method: Vibrating tube method
Temperature, K	Pressure, kPa	Mass density, kg/m3	uncertainty
298.2	101.325	785.18	2.01

System: ethanol; phases: Liquid
Property: Viscosity, Pa*s (Liquid); method: Falling or rolling sphere viscometry
Temperature, K	Pressure, kPa	Viscosity, Pa*s	uncertainty
298.2	101.325	0.001056	2.3e-05

System: ethanol; phases: Liquid, Gas
Property: Surface tension liquid-gas, N/m (Liquid); method: Ring tensiometer
Temperature, K	Surface tension liquid-gas, N/m	uncertainty
298.2	0.0216	0.002

System: water; phases: Liquid
Property: Mass density, kg/m3 (Liquid); method: Vibrating tube method
Temperature, K	Pressure, kPa	Mass density, kg/m3	uncertainty
298.2	101.325	997.04	2.01

System: water; phases: Liquid
Property: Viscosity, Pa*s (Liquid); method: Falling or rolling sphere viscometry
Temperature, K	Pressure, kPa	Viscosity, Pa*s	uncertainty
298.2	101.325	0.000873	1.9e-05

System: water; phases: Liquid, Gas
Property: Surface tension liquid-gas, N/m (Liquid); method: Ring tensiometer
Temperature, K	Surface tension liquid-gas, N/m	uncertainty
298.2	0.0711	0.0022

System: octanal; phases: Liquid
Property: Mass density, kg/m3 (Liquid); method: Vibrating tube method
Temperature, K	Pressure, kPa	Mass density, kg/m3	uncertainty
298.2	101.325	836.1	4

System: octanal; phases: Liquid
Property: Viscosity, Pa*s (Liquid); method: Falling or rolling sphere viscometry
Temperature, K	Pressure, kPa	Viscosity, Pa*s	uncertainty
298.2	101.325	0.002757	9.1e-05

System: octanal; phases: Liquid, Gas
Property: Surface tension liquid-gas, N/m (Liquid); method: Ring tensiometer
Temperature, K	Surface tension liquid-gas, N/m	uncertainty
298.2	0.023	0.0021

System: octan-1-ol; phases: Liquid
Property: Mass density, kg/m3 (Liquid); method: Vibrating tube method
Temperature, K	Pressure, kPa	Mass density, kg/m3	uncertainty
298.2	101.325	821.7	2.02

System: octan-1-ol; phases: Liquid
Property: Viscosity, Pa*s (Liquid); method: Falling or rolling sphere viscometry
Temperature, K	Pressure, kPa	Viscosity, Pa*s	uncertainty
298.2	101.325	0.007642	0.000178

System: octan-1-ol; phases: Liquid, Gas
Property: Surface tension liquid-gas, N/m (Liquid); method: Ring tensiometer
Temperature, K	Surface tension liquid-gas, N/m	uncertainty
298.2	0.0246	0.002

System: 1-(1-methylethyl)-4-methylbenzene; phases: Liquid
Property: Mass density, kg/m3 (Liquid); method: Vibrating tube method
Temperature, K	Pressure, kPa	Mass density, kg/m3	uncertainty
298.2	101.325	853.24	2.4

System: 1-(1-methylethyl)-4-methylbenzene; phases: Liquid
Property: Viscosity, Pa*s (Liquid); method: Falling or rolling sphere viscometry
Temperature, K	Pressure, kPa	Viscosity, Pa*s	uncertainty
298.2	101.325	0.000777	2e-05

System: 1-(1-methylethyl)-4-methylbenzene; phases: Liquid, Gas
Property: Surface tension liquid-gas, N/m (Liquid); method: Ring tensiometer
Temperature, K	Surface tension liquid-gas, N/m	uncertainty
298.2	0.0274	0.0021

System: (R)-2-pinene; phases: Liquid
Property: Mass density, kg/m3 (Liquid); method: Vibrating tube method
Temperature, K	Pressure, kPa	Mass density, kg/m3	uncertainty
298.2	101.325	854.69	2.02

System: (R)-2-pinene; phases: Liquid
Property: Viscosity, Pa*s (Liquid); method: Falling or rolling sphere viscometry
Temperature, K	Pressure, kPa	Viscosity, Pa*s	uncertainty
298.2	101.325	0.001284	2.8e-05

System: (R)-2-pinene; phases: Liquid, Gas
Property: Surface tension liquid-gas, N/m (Liquid); method: Ring tensiometer
Temperature, K	Surface tension liquid-gas, N/m	uncertainty
298.2	0.0259	0.002

System: (.+-.)-citronellal; phases: Liquid
Property: Mass density, kg/m3 (Liquid); method: Vibrating tube method
Temperature, K	Pressure, kPa	Mass density, kg/m3	uncertainty
298.2	101.325	856.3	2

System: (.+-.)-citronellal; phases: Liquid
Property: Viscosity, Pa*s (Liquid); method: Falling or rolling sphere viscometry
Temperature, K	Pressure, kPa	Viscosity, Pa*s	uncertainty
298.2	101.325	0.001688	3.7e-05

System: (.+-.)-citronellal; phases: Liquid, Gas
Property: Surface tension liquid-gas, N/m (Liquid); method: Ring tensiometer
Temperature, K	Surface tension liquid-gas, N/m	uncertainty
298.2	0.0225	0.002

System: .alpha.,.alpha.,4-trimethyl-3-cyclohexene-1-methanol; phases: Liquid
Property: Mass density, kg/m3 (Liquid); method: Vibrating tube method
Temperature, K	Pressure, kPa	Mass density, kg/m3	uncertainty
298.2	101.325	931.15	20.79

System: .alpha.,.alpha.,4-trimethyl-3-cyclohexene-1-methanol; phases: Liquid
Property: Viscosity, Pa*s (Liquid); method: Falling or rolling sphere viscometry
Temperature, K	Pressure, kPa	Viscosity, Pa*s	uncertainty
298.2	101.325	0.03732	0.00213

System: .alpha.,.alpha.,4-trimethyl-3-cyclohexene-1-methanol; phases: Liquid, Gas
Property: Surface tension liquid-gas, N/m (Liquid); method: Ring tensiometer
Temperature, K	Surface tension liquid-gas, N/m	uncertainty
298.2	0.0315	0.0026

System: (E)-3,7-dimethyl-2,6-octadien-1-ol; phases: Liquid
Property: Mass density, kg/m3 (Liquid); method: Vibrating tube method
Temperature, K	Pressure, kPa	Mass density, kg/m3	uncertainty
298.2	101.325	874.22	2.43

System: (E)-3,7-dimethyl-2,6-octadien-1-ol; phases: Liquid
Property: Viscosity, Pa*s (Liquid); method: Falling or rolling sphere viscometry
Temperature, K	Pressure, kPa	Viscosity, Pa*s	uncertainty
298.2	101.325	0.00669	0.000181

System: (E)-3,7-dimethyl-2,6-octadien-1-ol; phases: Liquid, Gas
Property: Surface tension liquid-gas, N/m (Liquid); method: Ring tensiometer
Temperature, K	Surface tension liquid-gas, N/m	uncertainty
298.2	0.0302	0.0021

System: decanal; phases: Liquid
Property: Mass density, kg/m3 (Liquid); method: Vibrating tube method
Temperature, K	Pressure, kPa	Mass density, kg/m3	uncertainty
298.2	101.325	838.37	4.06

System: decanal; phases: Liquid
Property: Viscosity, Pa*s (Liquid); method: Falling or rolling sphere viscometry
Temperature, K	Pressure, kPa	Viscosity, Pa*s	uncertainty
298.2	101.325	0.003039	0.000101

System: decanal; phases: Liquid, Gas
Property: Surface tension liquid-gas, N/m (Liquid); method: Ring tensiometer
Temperature, K	Surface tension liquid-gas, N/m	uncertainty
298.2	0.0244	0.0021

System: ethanol + water; phases: Liquid
Fixed: Temperature, K = 298.2
Fixed: Pressure, kPa = 100
Property: Mass density, kg/m3 (Liquid); method: Vibrating tube method
Mass fraction of water	Mass density, kg/m3	uncertainty
0.508	911.41	2.27
0.426	890.1	3.07
0.311	865.5	2.41
0.247	850.5	2.08
0.235	847.41	2.17
0.206	841.91	3.64

System: ethanol + water; phases: Liquid
Fixed: Temperature, K = 298.2
Fixed: Pressure, kPa = 100
Property: Viscosity, Pa*s (Liquid); method: Falling or rolling sphere viscometry
Mass fraction of water	Viscosity, Pa*s	uncertainty
0.508	0.002235	4.9e-05
0.426	0.00218	5.2e-05
0.311	0.001799	4.1e-05
0.247	0.001798	4e-05
0.235	0.001731	3.9e-05
0.206	0.001676	4.7e-05

System: ethanol + water; phases: Liquid, Gas
Fixed: Temperature, K = 298.2
Property: Surface tension liquid-gas, N/m (Liquid); method: Ring tensiometer
Mass fraction of water	Surface tension liquid-gas, N/m	uncertainty
0.508	0.0282	0.002
0.426	0.0267	0.002
0.311	0.0256	0.002
0.247	0.0253	0.002
0.235	0.0251	0.002
0.206	0.0248	0.002

System: ethanol + water + (R)-1-methyl-4-(1-methylethenyl)cyclohexene; phases: Liquid mixture 2, Liquid mixture 1
Fixed: Temperature, K = 298.2
Fixed: Pressure, kPa = 100
Property: Mass fraction of (R)-1-methyl-4-(1-methylethenyl)cyclohexene (Liquid mixture 2); method: Chromatography
Property: Mass fraction of ethanol (Liquid mixture 1); method: Chromatography
Property: Mass fraction of (R)-1-methyl-4-(1-methylethenyl)cyclohexene (Liquid mixture 1); method: Chromatography
Mass fraction of ethanol	Mass fraction of (R)-1-methyl-4-(1-methylethenyl)cyclohexene	uncertainty	Mass fraction of ethanol	uncertainty	Mass fraction of (R)-1-methyl-4-(1-methylethenyl)cyclohexene	uncertainty
0.712	0.074	0.002	0.019	0.002	0.979	
0.707	0.074	0.002	0.033	0.002	0.964	
0.706	0.073	0.002	0.033	0.002	0.965	
0.651	0.034	0.002	0.022	0.003	0.976	
0.659	0.017	0.002	0.022	0.003	0.975	
0.55	0.009	0.002	0.016	0.002	0.981	
0.568	0.011	0.002	0.017	0.002	0.981	

System: ethanol + water + (R)-1-methyl-4-(1-methylethenyl)cyclohexene; phases: Liquid
Fixed: Temperature, K = 298.2
Fixed: Pressure, kPa = 100
Property: Mass density, kg/m3 (Liquid); method: Vibrating tube method
Mass fraction of (R)-1-methyl-4-(1-methylethenyl)cyclohexene	Mass fraction of ethanol	Mass density, kg/m3	uncertainty
0.969	0.028	837.34	2.03
0.976	0.022	837.32	2.56
0.981	0.017	837.73	2.56
0.074	0.708	847.22	2.15
0.026	0.655	865.22	3.71
0.01	0.559	890.11	2.1

System: ethanol + water + (R)-1-methyl-4-(1-methylethenyl)cyclohexene; phases: Liquid
Fixed: Temperature, K = 298.2
Fixed: Pressure, kPa = 100
Property: Viscosity, Pa*s (Liquid); method: Falling or rolling sphere viscometry
Mass fraction of (R)-1-methyl-4-(1-methylethenyl)cyclohexene	Mass fraction of ethanol	Viscosity, Pa*s	uncertainty
0.969	0.028	0.00083	2e-05
0.976	0.022	0.000859	0.000146
0.981	0.017	0.000842	0.000146
0.074	0.708	0.001703	3.8e-05
0.026	0.655	0.001964	5.1e-05
0.01	0.559	0.002183	4.8e-05

System: ethanol + water + (R)-1-methyl-4-(1-methylethenyl)cyclohexene; phases: Liquid mixture 1, Liquid mixture 2
Fixed: Temperature, K = 298.2
Property: Interfacial tension, N/m (Liquid mixture 1); method: Ring tensiometer
Mass fraction of (R)-1-methyl-4-(1-methylethenyl)cyclohexene	Mass fraction of ethanol	Interfacial tension, N/m	uncertainty
0.969	0.028	0.0023	0.00035
0.976	0.022	0.00327	0.00212
0.981	0.017	0.00458	0.00057
