Measured thermophysical data. Measurements and Calculations of Stable Phase Equilibria in Ternary Systems MgSO4(Rb2SO4) + Cs2SO4 + H2O at T = 298.2 K
Source: J. Chem. Eng. Data, 2018, 10.1021/acs.jced.8b00302
Compound 1: rubidium sulfate, O4Rb2S, InChI=1S/H2O4S.2Rb/c1-5(2,3)4;;/h(H2,1,2,3,4);;/q;2*+1/p-2, purity 99.9%
Compound 2: cesium sulfate, Cs2O4S, InChI=1S/2Cs.H2O4S/c;;1-5(2,3)4/h;;(H2,1,2,3,4)/q2*+1;/p-2, purity 99.9%
Compound 3: magnesium sulfate, MgO4S, InChI=1S/Mg.H2O4S/c;1-5(2,3)4/h;(H2,1,2,3,4)/q+2;/p-2, purity 99%
Compound 4: water, H2O, InChI=1S/H2O/h1H2, purity 99.9%

System: cesium sulfate + magnesium sulfate + water; phases: Liquid
Fixed: Pressure, kPa = 100
Fixed: Temperature, K = 298.2
Property: Mass density, kg/m3 (Liquid); method: Gravity bottle method
Mass fraction of cesium sulfate	Mass fraction of magnesium sulfate	Mass density, kg/m3	uncertainty
0	0.2743	1293	11.8
0.0134	0.2705	1299.7	12.9
0.0266	0.2702	1313.3	17.1
0.0378	0.2713	1324.9	21.7
0.0514	0.2708	1355.5	21.8
0.0657	0.2619	1368.1	11.7
0.0887	0.2671	1390.3	11.4
0.1029	0.2593	1414.9	10.8
0.1113	0.2661	1424	17.7
0.1297	0.2672	1408.2	17.5
0.1597	0.2362	1440	15
0.1838	0.1932	1408.4	14.8
0.229	0.1414	1398.6	16.3
0.2538	0.1077	1408.4	16.9
0.3014	0.0729	1412.4	25.2
0.3675	0.0423	1465.3	30.6
0.419	0.0252	1539.9	29
0.465	0.0174	1621.3	31.8
0.5282	0.0076	1789	27.8
0.5915	0.0054	1902.3	19.2
0.6349	0.0033	1987.9	16
0.6427	0.0032	1980.3	15.8
0.6463	0	2016.2	15.4

System: cesium sulfate + magnesium sulfate + water; phases: Liquid, Crystal of intercomponent compound 1
Fixed: Temperature, K = 298.2
Fixed: Pressure, kPa = 100
Property: Mass fraction of magnesium sulfate (Liquid); method: Titration, gravimetry, and spectrometry
Mass fraction of cesium sulfate	Mass fraction of magnesium sulfate	uncertainty
0	0.2743	0.0082
0.0134	0.2705	0.0081
0.0266	0.2702	0.0081
0.0378	0.2713	0.0082
0.0514	0.2708	0.0082
0.0657	0.2619	0.0079
0.0887	0.2671	0.008
0.1029	0.2593	0.0078
0.1113	0.2661	0.008
0.1297	0.2672	0.008

System: cesium sulfate + magnesium sulfate + water; phases: Liquid, Crystal of intercomponent compound 2
Fixed: Temperature, K = 298.2
Fixed: Pressure, kPa = 100
Property: Mass fraction of magnesium sulfate (Liquid); method: Titration, gravimetry, and spectrometry
Mass fraction of cesium sulfate	Mass fraction of magnesium sulfate	uncertainty
0.1297	0.2672	0.009
0.1597	0.2362	0.0096
0.1838	0.1932	0.0094
0.229	0.1414	0.0094
0.2538	0.1077	0.0077
0.3014	0.0729	0.0056
0.3675	0.0423	0.0047
0.419	0.0252	0.0033
0.465	0.0174	0.0023
0.5282	0.0076	0.0014
0.5915	0.0054	0.0005
0.6349	0.0033	0.0002
0.6427	0.0032	0.0002

System: cesium sulfate + magnesium sulfate + water; phases: Liquid, Crystal
Fixed: Temperature, K = 298.2
Fixed: Pressure, kPa = 100
Property: Mass fraction of magnesium sulfate (Liquid); method: Titration, gravimetry, and spectrometry
Mass fraction of cesium sulfate	Mass fraction of magnesium sulfate	uncertainty
0.6427	0.0032	0.0032
0.6463	0	

System: rubidium sulfate + cesium sulfate + water; phases: Liquid, Crystal
Fixed: Temperature, K = 298.2
Fixed: Pressure, kPa = 100
Property: Mass fraction of rubidium sulfate (Liquid); method: Titration, gravimetry, and spectrometry
Mass fraction of cesium sulfate	Mass fraction of rubidium sulfate	uncertainty
0.6463	0	
0.6178	0.0095	0.0038

System: rubidium sulfate + cesium sulfate + water; phases: Liquid, Crystal
Fixed: Temperature, K = 298.2
Fixed: Pressure, kPa = 100
Property: Mass fraction of rubidium sulfate (Liquid); method: Titration, gravimetry, and spectrometry
Mass fraction of cesium sulfate	Mass fraction of rubidium sulfate	uncertainty
0.6178	0.0095	0.007
0.5933	0.0245	0.0108
0.5514	0.0672	0.0155
0.526	0.1021	0.013
0.502	0.1108	0.1031
0.501	0.1177	0.1034
0.4907	0.1358	0.0109
0.4534	0.154	0.0081
0.3754	0.1919	0.008
0.3268	0.2159	0.0077
0.2613	0.2399	0.008
0.2301	0.2606	0.008
0.1933	0.2571	0.0079
0.1597	0.2818	0.0092

System: rubidium sulfate + cesium sulfate + water; phases: Liquid, Crystal
Fixed: Temperature, K = 298.2
Fixed: Pressure, kPa = 100
Property: Mass fraction of rubidium sulfate (Liquid); method: Titration, gravimetry, and spectrometry
Mass fraction of cesium sulfate	Mass fraction of rubidium sulfate	uncertainty
0.1597	0.2818	0.0085
0.1107	0.2899	0.0088
0.0852	0.303	0.0092
0.0454	0.3145	0.0095
0.0135	0.3298	0.0099
0	0.3365	0.0101

System: rubidium sulfate + cesium sulfate + water; phases: Liquid
Fixed: Pressure, kPa = 100
Fixed: Temperature, K = 298.2
Property: Mass density, kg/m3 (Liquid); method: Gravity bottle method
Mass fraction of rubidium sulfate	Mass fraction of cesium sulfate	Mass density, kg/m3	uncertainty
0.6463	0	2016.2	10.5
0.6178	0.0095	2012.6	20.3
0.5933	0.0245	2038.4	17.1
0.5514	0.0672	2020	11
0.526	0.1021	2014	12.7
0.502	0.1108	2002.9	20.9
0.501	0.1177	2014.9	21.1
0.4907	0.1358	1973.9	37.2
0.4534	0.154	1867.5	41.2
0.3754	0.1919	1804.4	20.9
0.3268	0.2159	1725.3	23.4
0.2613	0.2399	1646	15.7
0.2301	0.2606	1602.7	14.6
0.1933	0.2571	1546	14.7
0.1597	0.2818	1518	11.1
0.1107	0.2899	1473.2	11.2
0.0852	0.303	1445.6	17.4
0.0454	0.3145	1416.5	36.9
0.0135	0.3298	1370.3	10.1
0	0.3365	1363.1	10.1

System: magnesium sulfate + water; phases: Liquid, Crystal of intercomponent compound 1
Property: Mass fraction of magnesium sulfate (Liquid); method: Titration, gravimetry, and spectrometry
Temperature, K	Pressure, kPa	Mass fraction of magnesium sulfate	uncertainty
298.2	100	0.2743	0.0082

System: magnesium sulfate + water; phases: Liquid
Property: Mass density, kg/m3 (Liquid); method: Gravity bottle method
Mass fraction of magnesium sulfate	Pressure, kPa	Temperature, K	Mass density, kg/m3	uncertainty
0.2743	100	298.2	1293	10.1

System: cesium sulfate + water; phases: Liquid, Crystal
Property: Mass fraction of cesium sulfate (Liquid); method: Titration, gravimetry, and spectrometry
Temperature, K	Pressure, kPa	Mass fraction of cesium sulfate	uncertainty
298.2	100	0.6463	0.0107

System: cesium sulfate + water; phases: Liquid
Fixed: Pressure, kPa = 100
Fixed: Temperature, K = 298.2
Property: Mass density, kg/m3 (Liquid); method: Gravity bottle method
Mass fraction of cesium sulfate	Mass density, kg/m3	uncertainty
0.6463	2016.2	10.3
0.3365	1363.1	10.1

System: rubidium sulfate + water; phases: Liquid, Crystal
Property: Mass fraction of rubidium sulfate (Liquid); method: Titration, gravimetry, and spectrometry
Temperature, K	Pressure, kPa	Mass fraction of rubidium sulfate	uncertainty
298.2	100	0.3365	0.0101

System: rubidium sulfate + water; phases: Liquid
Property: Mass density, kg/m3 (Liquid); method: Gravity bottle method
Mass fraction of rubidium sulfate	Pressure, kPa	Temperature, K	Mass density, kg/m3	uncertainty
0.6463	100	298.2	2016.2	10.3
