Measured thermophysical data. P-rho-T Data and Modeling for Propan-1-ol + n-Octane or n-Nonane or n-Decane from 313.15 K to 363.15 K and 1 MPa to 20 MPa
Source: J. Chem. Eng. Data, 2018, 10.1021/acs.jced.8b00554
Compound 1: octane, C8H18, InChI=1S/C8H18/c1-3-5-7-8-6-4-2/h3-8H2,1-2H3
Compound 2: nonane, C9H20, InChI=1S/C9H20/c1-3-5-7-9-8-6-4-2/h3-9H2,1-2H3
Compound 3: decane, C10H22, InChI=1S/C10H22/c1-3-5-7-9-10-8-6-4-2/h3-10H2,1-2H3
Compound 4: propan-1-ol, C3H8O, InChI=1S/C3H8O/c1-2-3-4/h4H,2-3H2,1H3

System: octane; phases: Liquid
Property: Refractive index (Na D-line) (Liquid); method: Standard Abbe refractometry
Temperature, K	Pressure, kPa	Refractive index (Na D-line)	uncertainty
298.15	101.325	1.398	0.004

System: octane; phases: Liquid
Property: Mass density, kg/m3 (Liquid); method: Vibrating tube method
Temperature, K	Pressure, kPa	Mass density, kg/m3	uncertainty
313.15	100	686.05	4.12
313.15	1030	687.19	4.13
313.15	1950	688.13	4.13
313.15	2950	689.08	4.14
313.15	3960	690	4.14
313.15	4960	690.87	4.15
313.15	5970	691.78	4.16
313.15	6970	692.65	4.16
313.15	7980	693.54	4.17
313.15	8980	694.38	4.17
313.15	9990	695.26	4.18
313.15	11030	696.11	4.18
313.15	11950	696.94	4.19
313.15	12950	697.75	4.2
313.15	13960	698.56	4.2
313.15	14960	699.37	4.21
313.15	15970	700.18	4.21
313.15	16970	700.99	4.22
313.15	17980	701.77	4.22
313.15	18980	702.53	4.23
313.15	19990	703.31	4.23
323.15	100	677.56	4.07
323.15	950	678.99	4.08
323.15	1960	680.02	4.08
323.15	2970	681.01	4.09
323.15	3980	681.99	4.1
323.15	4980	682.97	4.1
323.15	5980	683.91	4.11
323.15	6990	684.86	4.12
323.15	7990	685.78	4.12
323.15	9000	686.69	4.13
323.15	10090	687.59	4.13
323.15	10950	688.51	4.14
323.15	11960	689.4	4.15
323.15	12970	690.29	4.15
323.15	13980	691.16	4.16
323.15	14980	691.98	4.16
323.15	15980	692.86	4.17
323.15	16990	693.68	4.17
323.15	17990	694.53	4.18
323.15	19000	695.33	4.19
323.15	20090	696.18	4.19
333.15	100	669.13	4.02
333.15	1050	670.67	4.03
333.15	1940	671.75	4.03
333.15	2950	672.81	4.04
333.15	3950	673.87	4.05
333.15	4960	674.91	4.05
333.15	5960	675.95	4.06
333.15	6960	676.93	4.07
333.15	7990	677.93	4.07
333.15	8990	678.93	4.08
333.15	10000	679.89	4.09
333.15	11050	680.86	4.09
333.15	11940	681.81	4.1
333.15	12950	682.71	4.11
333.15	13950	683.67	4.11
333.15	14960	684.58	4.12
333.15	15960	685.48	4.13
333.15	16960	686.34	4.13
333.15	17990	687.26	4.14
333.15	18990	688.1	4.14
333.15	20000	688.97	4.15
343.15	100	661.02	3.97
343.15	960	662.23	3.98
343.15	1970	663.39	3.98
343.15	2980	664.55	3.99
343.15	3980	665.65	4
343.15	4990	666.79	4.01
343.15	5990	667.86	4.01
343.15	7000	668.94	4.02
343.15	8010	670.02	4.03
343.15	9010	671.05	4.03
343.15	10100	672.12	4.04
343.15	10960	673.13	4.05
343.15	11970	674.15	4.05
343.15	12980	675.12	4.06
343.15	13980	676.13	4.07
343.15	14990	677.1	4.07
343.15	15990	678.03	4.08
343.15	17000	678.97	4.09
343.15	18010	679.93	4.09
343.15	19010	680.86	4.1
343.15	20100	681.78	4.11
353.15	100	652.22	3.92
353.15	1060	653.65	3.93
353.15	1940	654.91	3.93
353.15	2950	656.12	3.94
353.15	3960	657.35	3.95
353.15	4960	658.54	3.96
353.15	5960	659.71	3.96
353.15	6970	660.9	3.97
353.15	7980	662.03	3.98
353.15	8980	663.17	3.99
353.15	9980	664.24	3.99
353.15	11060	665.33	4
353.15	11940	666.44	4.01
353.15	12950	667.49	4.02
353.15	13960	668.52	4.02
353.15	14960	669.56	4.03
353.15	15960	670.6	4.04
353.15	16970	671.6	4.04
353.15	17980	672.57	4.05
353.15	18980	673.56	4.06
353.15	19980	674.52	4.06
363.15	100	643.71	3.87
363.15	950	644.91	3.87
363.15	1960	646.3	3.88
363.15	2970	647.63	3.89
363.15	3970	648.92	3.9
363.15	4980	650.23	3.91
363.15	5980	651.49	3.92
363.15	6990	652.73	3.92
363.15	7990	653.97	3.93
363.15	8990	655.15	3.94
363.15	10090	656.34	3.95
363.15	10950	657.54	3.96
363.15	11960	658.66	3.96
363.15	12970	659.79	3.97
363.15	13970	660.94	3.98
363.15	14980	662.01	3.99
363.15	15980	663.09	3.99
363.15	16990	664.19	4
363.15	17990	665.21	4.01
363.15	18990	666.28	4.02
363.15	20090	667.28	4.02

System: nonane; phases: Liquid
Property: Refractive index (Na D-line) (Liquid); method: Standard Abbe refractometry
Temperature, K	Pressure, kPa	Refractive index (Na D-line)	uncertainty
293.15	101.325	1.4056	0.004

System: nonane; phases: Liquid
Property: Mass density, kg/m3 (Liquid); method: Vibrating tube method
Temperature, K	Pressure, kPa	Mass density, kg/m3	uncertainty
313.15	100	701.49	4.21
313.15	1050	702.34	4.22
313.15	2030	703.25	4.22
313.15	3030	704.17	4.23
313.15	4040	705.07	4.23
313.15	5050	705.96	4.24
313.15	5980	706.78	4.25
313.15	7050	707.7	4.25
313.15	8060	708.56	4.26
313.15	9060	709.4	4.26
313.15	10070	710.23	4.27
313.15	11050	710.92	4.27
313.15	12030	711.71	4.28
313.15	13030	712.51	4.28
313.15	14040	713.3	4.29
313.15	15050	714.09	4.29
313.15	15980	714.8	4.3
313.15	17050	715.61	4.3
313.15	18060	716.36	4.31
313.15	19060	717.1	4.31
313.15	20070	717.83	4.32
323.15	100	693.34	4.16
323.15	1030	694.03	4.17
323.15	2040	695.02	4.17
323.15	3030	695.98	4.18
323.15	4040	696.94	4.19
323.15	5040	697.88	4.19
323.15	6040	698.81	4.2
323.15	7050	699.74	4.2
323.15	8060	700.65	4.21
323.15	9060	701.55	4.22
323.15	10060	702.43	4.22
323.15	11030	703.16	4.23
323.15	12040	704.02	4.23
323.15	13030	704.87	4.24
323.15	14040	705.71	4.24
323.15	15040	706.54	4.25
323.15	16040	707.35	4.25
323.15	17050	708.16	4.26
323.15	18060	708.96	4.27
323.15	19060	709.74	4.27
323.15	20060	710.52	4.28
333.15	100	685.03	4.11
333.15	1030	685.98	4.12
333.15	2020	687	4.13
333.15	3020	688.03	4.13
333.15	4020	689.05	4.14
333.15	5030	690.05	4.15
333.15	6030	691.03	4.15
333.15	7030	692	4.16
333.15	8040	692.97	4.16
333.15	9040	693.91	4.17
333.15	10050	694.85	4.18
333.15	11030	695.64	4.18
333.15	12020	696.54	4.19
333.15	13020	697.44	4.19
333.15	14020	698.32	4.2
333.15	15030	699.2	4.21
333.15	16030	700.06	4.21
333.15	17030	700.91	4.22
333.15	18040	701.76	4.22
333.15	19040	702.59	4.23
333.15	20050	703.42	4.23
343.15	100	677.18	4.07
343.15	1000	678.15	4.07
343.15	2010	679.25	4.08
343.15	3010	680.33	4.09
343.15	4020	681.41	4.09
343.15	5030	682.46	4.1
343.15	6030	683.5	4.11
343.15	7040	684.52	4.11
343.15	8040	685.53	4.12
343.15	9050	686.53	4.13
343.15	10050	687.51	4.13
343.15	11000	688.33	4.14
343.15	12010	689.29	4.14
343.15	13010	690.24	4.15
343.15	14020	691.18	4.16
343.15	15030	692.1	4.16
343.15	16030	693.01	4.17
343.15	17040	693.91	4.18
343.15	18040	694.8	4.18
343.15	19050	695.68	4.19
343.15	20050	696.54	4.19
353.15	100	669.55	4.02
353.15	1000	670.57	4.03
353.15	2000	671.72	4.03
353.15	3010	672.85	4.04
353.15	4010	673.98	4.05
353.15	5020	675.08	4.06
353.15	6020	676.17	4.06
353.15	7020	677.25	4.07
353.15	8030	678.31	4.08
353.15	9030	679.35	4.08
353.15	10040	680.39	4.09
353.15	11000	681.26	4.1
353.15	12000	682.26	4.1
353.15	13010	683.26	4.11
353.15	14010	684.23	4.12
353.15	15020	685.21	4.12
353.15	16020	686.16	4.13
353.15	17020	687.1	4.14
353.15	18030	688.03	4.14
353.15	19030	688.95	4.15
353.15	20040	689.86	4.15
363.15	100	662.05	3.98
363.15	990	663.2	3.98
363.15	2000	664.41	3.99
363.15	3010	665.6	4
363.15	4010	666.77	4.01
363.15	5020	667.93	4.01
363.15	6020	669.07	4.02
363.15	7030	670.19	4.03
363.15	8030	671.3	4.04
363.15	9040	672.4	4.04
363.15	10040	673.47	4.05
363.15	10990	674.38	4.06
363.15	12000	675.44	4.06
363.15	13010	676.48	4.07
363.15	14010	677.5	4.08
363.15	15020	678.52	4.08
363.15	16020	679.51	4.09
363.15	17030	680.5	4.1
363.15	18030	681.47	4.1
363.15	19040	682.43	4.11
363.15	20040	683.38	4.12

System: decane; phases: Liquid
Property: Refractive index (Na D-line) (Liquid); method: Standard Abbe refractometry
Temperature, K	Pressure, kPa	Refractive index (Na D-line)	uncertainty
298.15	101.325	1.4091	0.004

System: decane; phases: Liquid
Property: Mass density, kg/m3 (Liquid); method: Vibrating tube method
Temperature, K	Pressure, kPa	Mass density, kg/m3	uncertainty
313.15	100	714.75	4.29
313.15	1010	715.53	4.3
313.15	2000	716.4	4.3
313.15	3000	717.27	4.31
313.15	4000	718.14	4.31
313.15	5000	718.99	4.32
313.15	6010	719.78	4.32
313.15	7010	720.66	4.33
313.15	7990	721.48	4.33
313.15	9000	722.28	4.34
313.15	10000	723.08	4.34
313.15	11000	723.91	4.35
313.15	12000	724.66	4.35
313.15	13000	725.42	4.36
313.15	14010	726.18	4.37
313.15	15010	726.93	4.37
313.15	16000	727.61	4.37
313.15	17010	728.38	4.38
313.15	18010	729.1	4.38
313.15	19000	729.81	4.39
313.15	20000	730.51	4.39
323.15	100	706.95	4.24
323.15	1000	707.77	4.25
323.15	1990	708.72	4.26
323.15	3000	709.63	4.26
323.15	4000	710.55	4.27
323.15	5010	711.46	4.27
323.15	5990	712.35	4.28
323.15	7000	713.23	4.28
323.15	8010	714.1	4.29
323.15	8990	714.96	4.3
323.15	10010	715.8	4.3
323.15	11000	716.66	4.31
323.15	12010	717.49	4.31
323.15	13010	718.29	4.32
323.15	14000	719.09	4.32
323.15	15010	719.88	4.33
323.15	16010	720.66	4.33
323.15	17010	721.43	4.34
323.15	17990	722.2	4.34
323.15	18990	722.94	4.35
323.15	20010	723.68	4.35
333.15	100	699.17	4.2
333.15	1000	700.04	4.2
333.15	2010	701.02	4.21
333.15	3000	702.01	4.22
333.15	4010	702.98	4.22
333.15	4990	703.93	4.23
333.15	5990	704.88	4.23
333.15	7000	705.81	4.24
333.15	8000	706.73	4.25
333.15	9010	707.63	4.25
333.15	9990	708.53	4.26
333.15	11000	709.45	4.26
333.15	12000	710.31	4.27
333.15	13010	711.16	4.28
333.15	14000	712.01	4.28
333.15	15000	712.85	4.29
333.15	16010	713.67	4.29
333.15	16990	714.48	4.3
333.15	18000	715.29	4.3
333.15	18990	716.08	4.31
333.15	20000	716.87	4.31
343.15	100	691.44	4.15
343.15	1010	692.33	4.16
343.15	2010	693.38	4.16
343.15	2990	694.42	4.17
343.15	4010	695.45	4.18
343.15	4990	696.46	4.18
343.15	6000	697.46	4.19
343.15	7000	698.44	4.2
343.15	8010	699.41	4.2
343.15	8990	700.37	4.21
343.15	10010	701.31	4.21
343.15	11010	702.25	4.22
343.15	12010	703.17	4.23
343.15	13000	704.08	4.23
343.15	14010	704.97	4.24
343.15	15000	705.86	4.25
343.15	16000	706.73	4.25
343.15	17010	707.59	4.26
343.15	18010	708.44	4.26
343.15	18990	709.28	4.27
343.15	19990	710.1	4.27
353.15	100	683.75	4.11
353.15	1010	684.69	4.11
353.15	2000	685.79	4.12
353.15	3010	686.88	4.13
353.15	4010	687.96	4.13
353.15	5010	689.03	4.14
353.15	5990	690.08	4.15
353.15	7000	691.11	4.15
353.15	8000	692.13	4.16
353.15	9000	693.13	4.17
353.15	10000	694.12	4.17
353.15	11010	695.12	4.18
353.15	12000	696.08	4.19
353.15	13000	697.04	4.19
353.15	13990	697.98	4.2
353.15	15000	698.91	4.2
353.15	16000	699.82	4.21
353.15	16990	700.72	4.22
353.15	18010	701.62	4.22
353.15	19000	702.5	4.23
353.15	20000	703.37	4.23
363.15	100	676.12	4.06
363.15	990	677.1	4.07
363.15	2010	678.26	4.07
363.15	3000	679.41	4.08
363.15	3990	680.54	4.09
363.15	5010	681.66	4.09
363.15	5990	682.76	4.1
363.15	7000	683.84	4.11
363.15	8010	684.91	4.12
363.15	9010	685.97	4.12
363.15	10010	687	4.13
363.15	11000	688.04	4.14
363.15	12010	689.05	4.14
363.15	13010	690.06	4.15
363.15	14000	691.04	4.16
363.15	15010	692.02	4.16
363.15	15990	692.98	4.17
363.15	17000	693.93	4.18
363.15	17990	694.86	4.18
363.15	19000	695.79	4.19
363.15	20000	696.7	4.2

System: propan-1-ol; phases: Liquid
Property: Refractive index (Na D-line) (Liquid); method: Standard Abbe refractometry
Temperature, K	Pressure, kPa	Refractive index (Na D-line)	uncertainty
293.15	101.325	1.3852	0.004

System: propan-1-ol; phases: Liquid
Property: Mass density, kg/m3 (Liquid); method: Vibrating tube method
Temperature, K	Pressure, kPa	Mass density, kg/m3	uncertainty
313.15	100	787.65	4.73
313.15	1020	788.65	4.73
313.15	2000	789.51	4.74
313.15	3010	790.39	4.74
313.15	4020	791.23	4.75
313.15	5020	792.09	4.75
313.15	6010	792.93	4.76
313.15	7020	793.75	4.77
313.15	8030	794.57	4.77
313.15	9010	795.39	4.78
313.15	10020	796.2	4.78
313.15	11010	796.99	4.79
313.15	12020	797.79	4.79
313.15	13010	798.57	4.8
313.15	14020	799.35	4.8
313.15	15030	800.12	4.81
313.15	16010	800.88	4.81
313.15	17020	801.63	4.81
313.15	18010	802.39	4.82
313.15	19020	803.13	4.82
313.15	20010	803.87	4.83
323.15	100	779.29	4.68
323.15	1020	780.33	4.68
323.15	2020	781.26	4.69
323.15	3010	782.17	4.69
323.15	4030	783.07	4.7
323.15	5010	783.96	4.71
323.15	6010	784.85	4.71
323.15	7000	785.72	4.72
323.15	8010	786.58	4.72
323.15	9020	787.44	4.73
323.15	10030	788.29	4.73
323.15	11020	789.12	4.74
323.15	12010	789.95	4.74
323.15	13020	790.78	4.75
323.15	14030	791.59	4.75
323.15	15030	792.41	4.76
323.15	16000	793.2	4.76
323.15	17010	794	4.77
323.15	18030	794.78	4.77
323.15	19030	795.56	4.78
323.15	20020	796.33	4.78
333.15	100	770.58	4.63
333.15	1030	771.74	4.63
333.15	2020	772.72	4.64
333.15	3020	773.69	4.64
333.15	4030	774.64	4.65
333.15	5020	775.59	4.66
333.15	6020	776.52	4.66
333.15	7010	777.45	4.67
333.15	8020	778.36	4.67
333.15	9010	779.27	4.68
333.15	10030	780.16	4.68
333.15	11020	781.05	4.69
333.15	12030	781.93	4.7
333.15	13010	782.79	4.7
333.15	14030	783.65	4.71
333.15	15030	784.5	4.71
333.15	16000	785.34	4.72
333.15	17030	786.17	4.72
333.15	18010	787	4.73
333.15	19020	787.81	4.73
333.15	20000	788.62	4.74
343.15	100	761.6	4.57
343.15	1010	762.86	4.58
343.15	2020	763.91	4.59
343.15	3000	764.93	4.59
343.15	4020	765.95	4.6
343.15	5020	766.96	4.6
343.15	6020	767.95	4.61
343.15	7030	768.93	4.62
343.15	8020	769.91	4.62
343.15	9000	770.86	4.63
343.15	10020	771.81	4.63
343.15	11030	772.74	4.64
343.15	12020	773.67	4.65
343.15	13010	774.59	4.65
343.15	14000	775.49	4.66
343.15	15010	776.39	4.66
343.15	16020	777.28	4.67
343.15	17020	778.16	4.68
343.15	18000	779.02	4.68
343.15	19020	779.89	4.69
343.15	20010	780.74	4.69
353.15	100	752.39	4.52
353.15	1010	753.65	4.52
353.15	2010	754.76	4.53
353.15	2990	755.86	4.54
353.15	4000	756.96	4.54
353.15	5000	758.04	4.55
353.15	6000	759.1	4.56
353.15	7010	760.14	4.56
353.15	7990	761.16	4.57
353.15	8990	762.2	4.58
353.15	9990	763.21	4.58
353.15	11010	764.2	4.59
353.15	12010	765.19	4.6
353.15	13000	766.16	4.6
353.15	14010	767.13	4.61
353.15	15010	768.07	4.61
353.15	16010	769.01	4.62
353.15	17010	769.94	4.63
353.15	17990	770.86	4.63
353.15	18990	771.76	4.64
353.15	19990	772.67	4.64
363.15	100	743.01	4.46
363.15	1020	744.08	4.47
363.15	2030	745.28	4.47
363.15	3030	746.48	4.48
363.15	4020	747.65	4.49
363.15	5000	748.81	4.5
363.15	6020	749.94	4.5
363.15	7020	751.07	4.51
363.15	8010	752.18	4.52
363.15	9000	753.27	4.52
363.15	10030	754.35	4.53
363.15	11010	755.41	4.54
363.15	12010	756.47	4.54
363.15	13010	757.5	4.55
363.15	14000	758.53	4.56
363.15	15020	759.54	4.56
363.15	16010	760.54	4.57
363.15	17030	761.52	4.58
363.15	18010	762.51	4.58
363.15	19000	763.47	4.59
363.15	20020	764.42	4.6

System: propan-1-ol + octane; phases: Liquid
Property: Mass density, kg/m3 (Liquid); method: Vibrating tube method
Mole fraction of propan-1-ol	Temperature, K	Pressure, kPa	Mass density, kg/m3	uncertainty
0.1631	313.15	100	693.18	4.44
0.1631	313.15	1000	694.31	4.45
0.1631	313.15	2010	695.26	4.45
0.1631	313.15	3020	696.19	4.46
0.1631	313.15	4020	697.09	4.47
0.1631	313.15	5000	698.01	4.47
0.1631	313.15	6020	698.89	4.48
0.1631	313.15	7020	699.79	4.48
0.1631	313.15	8000	700.66	4.49
0.1631	313.15	9010	701.54	4.5
0.1631	313.15	10010	702.41	4.5
0.1631	313.15	11000	703.29	4.51
0.1631	313.15	12010	704.11	4.51
0.1631	313.15	13010	704.97	4.52
0.1631	313.15	14020	705.8	4.53
0.1631	313.15	15020	706.63	4.53
0.1631	313.15	16000	707.41	4.54
0.1631	313.15	17020	708.23	4.54
0.1631	313.15	18000	709.02	4.55
0.1631	313.15	19020	709.81	4.55
0.1631	313.15	20010	710.59	4.56
0.1631	323.15	100	684.56	4.38
0.1631	323.15	1020	685.52	4.39
0.1631	323.15	2010	686.54	4.4
0.1631	323.15	3020	687.52	4.4
0.1631	323.15	4020	688.52	4.41
0.1631	323.15	5010	689.5	4.42
0.1631	323.15	6010	690.43	4.42
0.1631	323.15	7000	691.4	4.43
0.1631	323.15	8000	692.37	4.44
0.1631	323.15	9020	693.29	4.44
0.1631	323.15	10000	694.22	4.45
0.1631	323.15	11000	695.13	4.46
0.1631	323.15	12020	696.03	4.46
0.1631	323.15	13020	696.94	4.47
0.1631	323.15	14010	697.82	4.48
0.1631	323.15	15010	698.72	4.48
0.1631	323.15	16010	699.58	4.49
0.1631	323.15	17000	700.41	4.49
0.1631	323.15	18000	701.27	4.5
0.1631	323.15	19010	702.08	4.51
0.1631	323.15	20010	702.9	4.51
0.1631	333.15	100	675.2	4.32
0.1631	333.15	1010	676.35	4.33
0.1631	333.15	2010	677.44	4.34
0.1631	333.15	3010	678.49	4.35
0.1631	333.15	4020	679.56	4.35
0.1631	333.15	5020	680.6	4.36
0.1631	333.15	6020	681.62	4.37
0.1631	333.15	7000	682.67	4.37
0.1631	333.15	8010	683.7	4.38
0.1631	333.15	9010	684.68	4.39
0.1631	333.15	10020	685.68	4.4
0.1631	333.15	11010	686.66	4.4
0.1631	333.15	12020	687.66	4.41
0.1631	333.15	13020	688.62	4.42
0.1631	333.15	14020	689.54	4.42
0.1631	333.15	15000	690.49	4.43
0.1631	333.15	16000	691.42	4.44
0.1631	333.15	17020	692.33	4.44
0.1631	333.15	18000	693.25	4.45
0.1631	333.15	19000	694.12	4.46
0.1631	333.15	20000	694.96	4.46
0.1631	343.15	100	665.21	4.26
0.1631	343.15	1020	666.65	4.27
0.1631	343.15	2000	667.79	4.28
0.1631	343.15	3020	668.96	4.29
0.1631	343.15	4020	670.09	4.29
0.1631	343.15	5010	671.22	4.3
0.1631	343.15	6010	672.33	4.31
0.1631	343.15	7010	673.46	4.32
0.1631	343.15	8010	674.54	4.32
0.1631	343.15	9000	675.63	4.33
0.1631	343.15	10020	676.71	4.34
0.1631	343.15	11020	677.8	4.35
0.1631	343.15	12020	678.83	4.35
0.1631	343.15	13020	679.88	4.36
0.1631	343.15	14010	680.88	4.37
0.1631	343.15	15010	681.89	4.38
0.1631	343.15	16010	682.9	4.38
0.1631	343.15	17010	683.85	4.39
0.1631	343.15	18000	684.83	4.4
0.1631	343.15	19000	685.78	4.4
0.1631	343.15	20010	686.67	4.41
0.1631	353.15	100	654.7	4.19
0.1631	353.15	1010	656.23	4.2
0.1631	353.15	2020	657.52	4.21
0.1631	353.15	3000	658.76	4.22
0.1631	353.15	4020	659.99	4.23
0.1631	353.15	5010	661.2	4.24
0.1631	353.15	6020	662.41	4.25
0.1631	353.15	7010	663.61	4.25
0.1631	353.15	8010	664.82	4.26
0.1631	353.15	9000	666	4.27
0.1631	353.15	10010	667.15	4.28
0.1631	353.15	11000	668.3	4.29
0.1631	353.15	12010	669.46	4.29
0.1631	353.15	13010	670.56	4.3
0.1631	353.15	14000	671.69	4.31
0.1631	353.15	15010	672.77	4.32
0.1631	353.15	16010	673.82	4.33
0.1631	353.15	17000	674.88	4.33
0.1631	353.15	18010	675.92	4.34
0.1631	353.15	19000	676.89	4.35
0.1631	353.15	20010	677.88	4.35
0.1631	363.15	100	643.75	4.12
0.1631	363.15	1010	644.92	4.13
0.1631	363.15	2010	646.32	4.14
0.1631	363.15	3000	647.65	4.15
0.1631	363.15	4020	649	4.16
0.1631	363.15	5010	650.29	4.17
0.1631	363.15	6010	651.6	4.18
0.1631	363.15	7000	652.93	4.19
0.1631	363.15	8010	654.22	4.19
0.1631	363.15	9000	655.49	4.2
0.1631	363.15	10000	656.77	4.21
0.1631	363.15	11000	658.05	4.22
0.1631	363.15	12000	659.27	4.23
0.1631	363.15	13010	660.51	4.24
0.1631	363.15	14010	661.7	4.25
0.1631	363.15	15010	662.89	4.26
0.1631	363.15	16020	664	4.26
0.1631	363.15	17010	665.15	4.27
0.1631	363.15	18020	666.27	4.28
0.1631	363.15	19000	667.34	4.29
0.1631	363.15	20010	668.36	4.29
0.2111	313.15	100	695.76	4.46
0.2111	313.15	1010	696.95	4.46
0.2111	313.15	2010	697.87	4.47
0.2111	313.15	3000	698.81	4.48
0.2111	313.15	4000	699.72	4.48
0.2111	313.15	5010	700.64	4.49
0.2111	313.15	6010	701.53	4.49
0.2111	313.15	7020	702.4	4.5
0.2111	313.15	8020	703.3	4.51
0.2111	313.15	9020	704.17	4.51
0.2111	313.15	10000	705.02	4.52
0.2111	313.15	11020	705.91	4.52
0.2111	313.15	12010	706.77	4.53
0.2111	313.15	13020	707.6	4.54
0.2111	313.15	14020	708.41	4.54
0.2111	313.15	15010	709.26	4.55
0.2111	313.15	16020	710.08	4.55
0.2111	313.15	17020	710.85	4.56
0.2111	313.15	18010	711.64	4.57
0.2111	313.15	19010	712.43	4.57
0.2111	313.15	20000	713.22	4.58
0.2111	323.15	100	687.03	4.4
0.2111	323.15	1020	688.02	4.41
0.2111	323.15	2010	689.01	4.41
0.2111	323.15	3020	690	4.42
0.2111	323.15	4020	691	4.43
0.2111	323.15	5020	691.96	4.43
0.2111	323.15	6010	692.93	4.44
0.2111	323.15	7010	693.87	4.45
0.2111	323.15	8020	694.84	4.45
0.2111	323.15	9020	695.78	4.46
0.2111	323.15	10010	696.69	4.47
0.2111	323.15	11010	697.62	4.47
0.2111	323.15	12020	698.52	4.48
0.2111	323.15	13010	699.43	4.48
0.2111	323.15	14010	700.32	4.49
0.2111	323.15	15010	701.21	4.5
0.2111	323.15	16020	702.08	4.5
0.2111	323.15	17010	702.95	4.51
0.2111	323.15	18000	703.77	4.52
0.2111	323.15	19010	704.61	4.52
0.2111	323.15	20010	705.43	4.53
0.2111	333.15	100	677.49	4.34
0.2111	333.15	1000	678.54	4.35
0.2111	333.15	2010	679.63	4.35
0.2111	333.15	3000	680.7	4.36
0.2111	333.15	4010	681.76	4.37
0.2111	333.15	5010	682.8	4.37
0.2111	333.15	6000	683.81	4.38
0.2111	333.15	7000	684.85	4.39
0.2111	333.15	8020	685.89	4.4
0.2111	333.15	9010	686.89	4.4
0.2111	333.15	10000	687.87	4.41
0.2111	333.15	11020	688.87	4.42
0.2111	333.15	12000	689.87	4.42
0.2111	333.15	13020	690.84	4.43
0.2111	333.15	14010	691.78	4.44
0.2111	333.15	15000	692.73	4.44
0.2111	333.15	16010	693.66	4.45
0.2111	333.15	17010	694.6	4.46
0.2111	333.15	18020	695.49	4.46
0.2111	333.15	19010	696.36	4.47
0.2111	333.15	20000	697.38	4.48
0.2111	343.15	100	667.28	4.27
0.2111	343.15	1010	668.8	4.28
0.2111	343.15	2010	669.99	4.29
0.2111	343.15	3000	671.1	4.3
0.2111	343.15	4020	672.25	4.31
0.2111	343.15	5020	673.37	4.31
0.2111	343.15	6020	674.49	4.32
0.2111	343.15	7010	675.59	4.33
0.2111	343.15	8000	676.71	4.34
0.2111	343.15	9010	677.8	4.35
0.2111	343.15	10010	678.85	4.35
0.2111	343.15	11010	679.93	4.36
0.2111	343.15	12010	681	4.37
0.2111	343.15	13000	682.04	4.37
0.2111	343.15	14000	683.07	4.38
0.2111	343.15	15000	684.09	4.39
0.2111	343.15	16000	685.06	4.4
0.2111	343.15	17010	686.08	4.4
0.2111	343.15	18020	687.03	4.41
0.2111	343.15	19020	687.96	4.42
0.2111	343.15	20010	688.89	4.42
0.2111	353.15	100	656.5	4.2
0.2111	353.15	1010	658.1	4.22
0.2111	353.15	2010	659.4	4.22
0.2111	353.15	3020	660.63	4.23
0.2111	353.15	4010	661.88	4.24
0.2111	353.15	5000	663.08	4.25
0.2111	353.15	6020	664.26	4.26
0.2111	353.15	7010	665.47	4.27
0.2111	353.15	8020	666.69	4.27
0.2111	353.15	9010	667.86	4.28
0.2111	353.15	10010	669.02	4.29
0.2111	353.15	11020	670.17	4.3
0.2111	353.15	12000	671.35	4.31
0.2111	353.15	13020	672.46	4.31
0.2111	353.15	14010	673.57	4.32
0.2111	353.15	15020	674.7	4.33
0.2111	353.15	16010	675.76	4.34
0.2111	353.15	17020	676.83	4.35
0.2111	353.15	18010	677.86	4.35
0.2111	353.15	19010	678.87	4.36
0.2111	353.15	20020	679.82	4.37
0.2111	363.15	100	645.23	4.13
0.2111	363.15	1000	646.4	4.14
0.2111	363.15	2010	647.77	4.15
0.2111	363.15	3020	649.11	4.16
0.2111	363.15	4010	650.5	4.17
0.2111	363.15	5000	651.8	4.18
0.2111	363.15	6010	653.06	4.19
0.2111	363.15	7010	654.35	4.19
0.2111	363.15	8010	655.68	4.2
0.2111	363.15	9020	656.97	4.21
0.2111	363.15	10010	658.25	4.22
0.2111	363.15	11010	659.52	4.23
0.2111	363.15	12010	660.8	4.24
0.2111	363.15	13010	662.01	4.25
0.2111	363.15	14010	663.23	4.26
0.2111	363.15	15020	664.4	4.26
0.2111	363.15	16010	665.57	4.27
0.2111	363.15	17020	666.77	4.28
0.2111	363.15	18020	667.86	4.29
0.2111	363.15	19010	668.92	4.3
0.2111	363.15	20010	669.97	4.3
0.3158	313.15	100	701.99	4.49
0.3158	313.15	1010	703.21	4.5
0.3158	313.15	2010	704.14	4.51
0.3158	313.15	3010	705.04	4.52
0.3158	313.15	4010	705.98	4.52
0.3158	313.15	5000	706.86	4.53
0.3158	313.15	6020	707.76	4.53
0.3158	313.15	7000	708.66	4.54
0.3158	313.15	8010	709.55	4.55
0.3158	313.15	9000	710.41	4.55
0.3158	313.15	10020	711.31	4.56
0.3158	313.15	11010	712.17	4.56
0.3158	313.15	12010	712.99	4.57
0.3158	313.15	13010	713.85	4.58
0.3158	313.15	14010	714.67	4.58
0.3158	313.15	15010	715.49	4.59
0.3158	313.15	16020	716.32	4.59
0.3158	313.15	17020	717.13	4.6
0.3158	313.15	18010	717.91	4.61
0.3158	313.15	19000	718.69	4.61
0.3158	313.15	20010	719.47	4.62
0.3158	323.15	100	693.22	4.44
0.3158	323.15	1010	694.15	4.45
0.3158	323.15	2010	695.16	4.45
0.3158	323.15	3010	696.14	4.46
0.3158	323.15	4020	697.11	4.47
0.3158	323.15	5020	698.1	4.47
0.3158	323.15	6020	699.06	4.48
0.3158	323.15	7020	700.03	4.49
0.3158	323.15	8010	700.95	4.49
0.3158	323.15	9020	701.92	4.5
0.3158	323.15	10010	702.83	4.5
0.3158	323.15	11010	703.75	4.51
0.3158	323.15	12000	704.66	4.52
0.3158	323.15	13020	705.56	4.52
0.3158	323.15	14010	706.45	4.53
0.3158	323.15	15020	707.35	4.54
0.3158	323.15	16000	708.22	4.54
0.3158	323.15	17010	709.05	4.55
0.3158	323.15	18010	709.93	4.55
0.3158	323.15	19010	710.75	4.56
0.3158	323.15	20020	711.56	4.57
0.3158	333.15	100	683.44	4.38
0.3158	333.15	1000	684.58	4.38
0.3158	333.15	2010	685.64	4.39
0.3158	333.15	3000	686.7	4.4
0.3158	333.15	4000	687.78	4.41
0.3158	333.15	5020	688.8	4.41
0.3158	333.15	6010	689.87	4.42
0.3158	333.15	7000	690.9	4.43
0.3158	333.15	8020	691.91	4.43
0.3158	333.15	9010	692.93	4.44
0.3158	333.15	10010	693.93	4.45
0.3158	333.15	11000	694.92	4.46
0.3158	333.15	12020	695.9	4.46
0.3158	333.15	13010	696.87	4.47
0.3158	333.15	14010	697.84	4.48
0.3158	333.15	15020	698.76	4.48
0.3158	333.15	16010	699.72	4.49
0.3158	333.15	17010	700.63	4.5
0.3158	333.15	18010	701.51	4.5
0.3158	333.15	19000	702.41	4.51
0.3158	333.15	20010	703.29	4.51
0.3158	343.15	100	672.81	4.31
0.3158	343.15	1020	674.29	4.32
0.3158	343.15	2020	675.48	4.33
0.3158	343.15	3000	676.61	4.33
0.3158	343.15	4000	677.77	4.34
0.3158	343.15	5020	678.9	4.35
0.3158	343.15	6020	680.02	4.36
0.3158	343.15	7020	681.12	4.37
0.3158	343.15	8000	682.22	4.37
0.3158	343.15	9010	683.34	4.38
0.3158	343.15	10010	684.4	4.39
0.3158	343.15	11010	685.49	4.4
0.3158	343.15	12000	686.55	4.4
0.3158	343.15	13010	687.6	4.41
0.3158	343.15	14020	688.64	4.42
0.3158	343.15	15010	689.64	4.42
0.3158	343.15	16000	690.66	4.43
0.3158	343.15	17010	691.65	4.44
0.3158	343.15	18010	692.6	4.45
0.3158	343.15	19010	693.56	4.45
0.3158	343.15	20010	694.48	4.46
0.3158	353.15	100	661.43	4.24
0.3158	353.15	1000	663.09	4.25
0.3158	353.15	2010	664.39	4.26
0.3158	353.15	3010	665.6	4.26
0.3158	353.15	4010	666.84	4.27
0.3158	353.15	5010	668.06	4.28
0.3158	353.15	6010	669.31	4.29
0.3158	353.15	7020	670.48	4.3
0.3158	353.15	8010	671.68	4.31
0.3158	353.15	9010	672.89	4.31
0.3158	353.15	10010	674.1	4.32
0.3158	353.15	11020	675.25	4.33
0.3158	353.15	12000	676.4	4.34
0.3158	353.15	13000	677.55	4.35
0.3158	353.15	14000	678.66	4.35
0.3158	353.15	15020	679.74	4.36
0.3158	353.15	16010	680.86	4.37
0.3158	353.15	17000	681.92	4.38
0.3158	353.15	18020	682.96	4.38
0.3158	353.15	19010	683.98	4.39
0.3158	353.15	20010	684.96	4.4
0.3158	363.15	100	649.43	4.16
0.3158	363.15	1010	650.63	4.17
0.3158	363.15	2000	652.01	4.18
0.3158	363.15	3010	653.38	4.19
0.3158	363.15	4010	654.7	4.2
0.3158	363.15	5000	656.03	4.2
0.3158	363.15	6020	657.34	4.21
0.3158	363.15	7000	658.67	4.22
0.3158	363.15	8000	660	4.23
0.3158	363.15	9010	661.3	4.24
0.3158	363.15	10020	662.62	4.25
0.3158	363.15	11010	663.89	4.26
0.3158	363.15	12010	665.14	4.27
0.3158	363.15	13000	666.41	4.28
0.3158	363.15	14010	667.62	4.28
0.3158	363.15	15020	668.79	4.29
0.3158	363.15	16000	669.98	4.3
0.3158	363.15	17010	671.18	4.31
0.3158	363.15	18010	672.26	4.32
0.3158	363.15	19010	673.36	4.33
0.3158	363.15	20010	674.4	4.33
0.4411	313.15	100	711	4.55
0.4411	313.15	1000	712.19	4.56
0.4411	313.15	2010	713.12	4.57
0.4411	313.15	3000	714.05	4.57
0.4411	313.15	4000	714.95	4.58
0.4411	313.15	5020	715.86	4.59
0.4411	313.15	6010	716.76	4.59
0.4411	313.15	7020	717.65	4.6
0.4411	313.15	8010	718.55	4.6
0.4411	313.15	9000	719.39	4.61
0.4411	313.15	10010	720.29	4.62
0.4411	313.15	11020	721.14	4.62
0.4411	313.15	12020	722	4.63
0.4411	313.15	13000	722.85	4.63
0.4411	313.15	14020	723.68	4.64
0.4411	313.15	15000	724.48	4.64
0.4411	313.15	16010	725.31	4.65
0.4411	313.15	17020	726.11	4.66
0.4411	313.15	18000	726.91	4.66
0.4411	313.15	19010	727.68	4.67
0.4411	313.15	20000	728.45	4.67
0.4411	323.15	100	702.44	4.5
0.4411	323.15	1010	703	4.5
0.4411	323.15	2000	703.99	4.51
0.4411	323.15	3000	704.97	4.52
0.4411	323.15	4020	705.97	4.52
0.4411	323.15	5020	706.95	4.53
0.4411	323.15	6010	707.91	4.53
0.4411	323.15	7010	708.85	4.54
0.4411	323.15	8010	709.8	4.55
0.4411	323.15	9010	710.74	4.55
0.4411	323.15	10010	711.7	4.56
0.4411	323.15	11010	712.61	4.57
0.4411	323.15	12020	713.53	4.57
0.4411	323.15	13010	714.42	4.58
0.4411	323.15	14010	715.31	4.59
0.4411	323.15	15020	716.17	4.59
0.4411	323.15	16010	717.04	4.6
0.4411	323.15	17010	717.88	4.6
0.4411	323.15	18010	718.73	4.61
0.4411	323.15	19010	719.58	4.62
0.4411	323.15	20010	720.41	4.62
0.4411	333.15	100	692.56	4.43
0.4411	333.15	1010	694.32	4.45
0.4411	333.15	2010	695.36	4.45
0.4411	333.15	3020	696.43	4.46
0.4411	333.15	4000	697.47	4.47
0.4411	333.15	5020	698.53	4.47
0.4411	333.15	6010	699.54	4.48
0.4411	333.15	7010	700.57	4.49
0.4411	333.15	8020	701.57	4.5
0.4411	333.15	9000	702.6	4.5
0.4411	333.15	10020	703.57	4.51
0.4411	333.15	11010	704.56	4.52
0.4411	333.15	12000	705.54	4.52
0.4411	333.15	13020	706.46	4.53
0.4411	333.15	14010	707.42	4.54
0.4411	333.15	15010	708.36	4.54
0.4411	333.15	16000	709.26	4.55
0.4411	333.15	17010	710.16	4.56
0.4411	333.15	18010	711.06	4.56
0.4411	333.15	19020	711.94	4.57
0.4411	333.15	20020	711.91	4.57
0.4411	343.15	100	681.54	4.36
0.4411	343.15	1010	682.72	4.37
0.4411	343.15	2010	683.85	4.38
0.4411	343.15	3000	685.01	4.39
0.4411	343.15	4010	686.15	4.4
0.4411	343.15	5010	687.28	4.4
0.4411	343.15	6010	688.39	4.41
0.4411	343.15	7010	689.51	4.42
0.4411	343.15	8010	690.61	4.43
0.4411	343.15	9000	691.72	4.43
0.4411	343.15	10010	692.81	4.44
0.4411	343.15	11000	693.87	4.45
0.4411	343.15	12020	694.93	4.46
0.4411	343.15	13010	695.99	4.46
0.4411	343.15	14010	697.01	4.47
0.4411	343.15	15020	698	4.48
0.4411	343.15	16000	699.01	4.48
0.4411	343.15	17010	699.99	4.49
0.4411	343.15	18010	700.97	4.5
0.4411	343.15	19020	701.92	4.5
0.4411	343.15	20010	702.85	4.51
0.4411	353.15	100	669.56	4.29
0.4411	353.15	1010	671.12	4.3
0.4411	353.15	2000	672.33	4.31
0.4411	353.15	3010	673.58	4.32
0.4411	353.15	4010	674.84	4.32
0.4411	353.15	5000	676.07	4.33
0.4411	353.15	6000	677.27	4.34
0.4411	353.15	7020	678.5	4.35
0.4411	353.15	8010	679.69	4.36
0.4411	353.15	9010	680.87	4.36
0.4411	353.15	10010	682.1	4.37
0.4411	353.15	11010	683.25	4.38
0.4411	353.15	12000	684.41	4.39
0.4411	353.15	13020	685.53	4.4
0.4411	353.15	14000	686.68	4.4
0.4411	353.15	15000	687.73	4.41
0.4411	353.15	16020	688.85	4.42
0.4411	353.15	17000	689.88	4.43
0.4411	353.15	18010	690.94	4.43
0.4411	353.15	19010	691.96	4.44
0.4411	353.15	20010	692.97	4.45
0.4411	363.15	100	656.74	4.21
0.4411	363.15	1020	658.07	4.22
0.4411	363.15	2000	659.42	4.22
0.4411	363.15	3010	660.78	4.23
0.4411	363.15	4010	662.14	4.24
0.4411	363.15	5020	663.46	4.25
0.4411	363.15	6020	664.8	4.26
0.4411	363.15	7000	666.13	4.27
0.4411	363.15	8020	667.45	4.28
0.4411	363.15	9010	668.75	4.29
0.4411	363.15	10000	670.08	4.3
0.4411	363.15	11000	671.35	4.31
0.4411	363.15	12020	672.6	4.31
0.4411	363.15	13000	673.84	4.32
0.4411	363.15	14020	675.08	4.33
0.4411	363.15	15010	676.25	4.34
0.4411	363.15	16020	677.45	4.35
0.4411	363.15	17010	678.56	4.36
0.4411	363.15	18010	679.72	4.36
0.4411	363.15	19000	680.79	4.37
0.4411	363.15	20020	681.9	4.38
0.7301	313.15	100	740.14	4.74
0.7301	313.15	1010	741.33	4.75
0.7301	313.15	2000	742.25	4.75
0.7301	313.15	3000	743.18	4.76
0.7301	313.15	4010	744.05	4.76
0.7301	313.15	5010	744.95	4.77
0.7301	313.15	6010	745.83	4.78
0.7301	313.15	7010	746.74	4.78
0.7301	313.15	8010	747.6	4.79
0.7301	313.15	9000	748.46	4.79
0.7301	313.15	10010	749.32	4.8
0.7301	313.15	11010	750.16	4.81
0.7301	313.15	12010	751	4.81
0.7301	313.15	13010	751.83	4.82
0.7301	313.15	14020	752.64	4.82
0.7301	313.15	15010	753.46	4.83
0.7301	313.15	16010	754.27	4.83
0.7301	313.15	17020	755.05	4.84
0.7301	313.15	18020	755.85	4.85
0.7301	313.15	19000	756.62	4.85
0.7301	313.15	20010	757.39	4.86
0.7301	323.15	100	731.25	4.68
0.7301	323.15	1010	732.1	4.69
0.7301	323.15	2010	733.06	4.69
0.7301	323.15	3010	734.04	4.7
0.7301	323.15	4010	734.99	4.71
0.7301	323.15	5010	735.97	4.71
0.7301	323.15	6000	736.92	4.72
0.7301	323.15	7010	737.85	4.73
0.7301	323.15	8010	738.79	4.73
0.7301	323.15	9000	739.71	4.74
0.7301	323.15	10000	740.61	4.74
0.7301	323.15	11010	741.5	4.75
0.7301	323.15	12010	742.41	4.76
0.7301	323.15	13010	743.29	4.76
0.7301	323.15	14020	744.18	4.77
0.7301	323.15	15000	745.04	4.78
0.7301	323.15	16000	745.87	4.78
0.7301	323.15	17020	746.73	4.79
0.7301	323.15	18010	747.56	4.79
0.7301	323.15	19010	748.4	4.8
0.7301	323.15	20010	749.2	4.81
0.7301	333.15	100	721.13	4.62
0.7301	333.15	1020	722.21	4.62
0.7301	333.15	2010	723.26	4.63
0.7301	333.15	3010	724.3	4.64
0.7301	333.15	4000	725.32	4.65
0.7301	333.15	5020	726.33	4.65
0.7301	333.15	6010	727.35	4.66
0.7301	333.15	7020	728.39	4.67
0.7301	333.15	8010	729.39	4.67
0.7301	333.15	9010	730.37	4.68
0.7301	333.15	10010	731.35	4.69
0.7301	333.15	11010	732.33	4.69
0.7301	333.15	12020	733.28	4.7
0.7301	333.15	13020	734.24	4.71
0.7301	333.15	14020	735.17	4.71
0.7301	333.15	15020	736.09	4.72
0.7301	333.15	16020	737.02	4.72
0.7301	333.15	17010	737.93	4.73
0.7301	333.15	18010	738.78	4.74
0.7301	333.15	19000	739.68	4.74
0.7301	333.15	20010	740.54	4.75
0.7301	343.15	100	709.96	4.55
0.7301	343.15	1010	711.47	4.56
0.7301	343.15	2020	712.6	4.56
0.7301	343.15	3010	713.72	4.57
0.7301	343.15	4010	714.83	4.58
0.7301	343.15	5000	715.96	4.59
0.7301	343.15	6020	717.05	4.59
0.7301	343.15	7010	718.15	4.6
0.7301	343.15	8020	719.22	4.61
0.7301	343.15	9000	720.31	4.62
0.7301	343.15	10020	721.36	4.62
0.7301	343.15	11020	722.39	4.63
0.7301	343.15	12010	723.42	4.64
0.7301	343.15	13020	724.48	4.64
0.7301	343.15	14000	725.49	4.65
0.7301	343.15	15010	726.47	4.66
0.7301	343.15	16010	727.46	4.66
0.7301	343.15	17010	728.43	4.67
0.7301	343.15	18000	729.35	4.68
0.7301	343.15	19020	730.28	4.68
0.7301	343.15	20000	731.24	4.69
0.7301	353.15	100	697.88	4.47
0.7301	353.15	1020	699.6	4.48
0.7301	353.15	2020	700.81	4.49
0.7301	353.15	3000	702.03	4.5
0.7301	353.15	4010	703.25	4.5
0.7301	353.15	5010	704.44	4.51
0.7301	353.15	6000	705.64	4.52
0.7301	353.15	7000	706.83	4.53
0.7301	353.15	8010	708	4.54
0.7301	353.15	9010	709.2	4.54
0.7301	353.15	10010	710.33	4.55
0.7301	353.15	11000	711.46	4.56
0.7301	353.15	12000	712.61	4.57
0.7301	353.15	13020	713.71	4.58
0.7301	353.15	14000	714.83	4.58
0.7301	353.15	15020	715.89	4.59
0.7301	353.15	16010	716.98	4.6
0.7301	353.15	17010	718.02	4.61
0.7301	353.15	18010	719.02	4.61
0.7301	353.15	19010	720.02	4.62
0.7301	353.15	20000	721.02	4.63
0.7301	363.15	100	685.03	4.39
0.7301	363.15	1020	686.21	4.39
0.7301	363.15	2000	687.5	4.4
0.7301	363.15	3020	688.81	4.41
0.7301	363.15	4020	690.17	4.42
0.7301	363.15	5000	691.49	4.43
0.7301	363.15	6020	692.76	4.44
0.7301	363.15	7020	694.08	4.45
0.7301	363.15	8020	695.38	4.46
0.7301	363.15	9010	696.66	4.47
0.7301	363.15	10020	697.93	4.47
0.7301	363.15	11010	699.17	4.48
0.7301	363.15	12020	700.4	4.49
0.7301	363.15	13010	701.64	4.5
0.7301	363.15	14010	702.82	4.51
0.7301	363.15	15010	704	4.52
0.7301	363.15	16010	705.17	4.52
0.7301	363.15	17000	706.32	4.53
0.7301	363.15	18020	707.41	4.54
0.7301	363.15	19010	708.47	4.55
0.7301	363.15	20020	709.58	4.56
0.8823	313.15	100	763.46	4.89
0.8823	313.15	1010	764.37	4.89
0.8823	313.15	2010	765.24	4.9
0.8823	313.15	3020	766.13	4.91
0.8823	313.15	4020	767	4.91
0.8823	313.15	5000	767.9	4.92
0.8823	313.15	6010	768.74	4.92
0.8823	313.15	7020	769.63	4.93
0.8823	313.15	8010	770.46	4.93
0.8823	313.15	9020	771.29	4.94
0.8823	313.15	10020	772.16	4.95
0.8823	313.15	11000	772.97	4.95
0.8823	313.15	12020	773.81	4.96
0.8823	313.15	13000	774.61	4.96
0.8823	313.15	14020	775.41	4.97
0.8823	313.15	15010	776.2	4.97
0.8823	313.15	16010	776.98	4.98
0.8823	313.15	17000	777.78	4.98
0.8823	313.15	18010	778.53	4.99
0.8823	313.15	19010	779.29	4.99
0.8823	313.15	20020	780.06	5
0.8823	323.15	100	754.72	4.83
0.8823	323.15	1000	755.36	4.84
0.8823	323.15	2020	756.3	4.84
0.8823	323.15	3010	757.26	4.85
0.8823	323.15	4010	758.2	4.86
0.8823	323.15	5020	759.13	4.86
0.8823	323.15	6010	760.04	4.87
0.8823	323.15	7020	760.95	4.87
0.8823	323.15	8010	761.85	4.88
0.8823	323.15	9010	762.75	4.89
0.8823	323.15	10010	763.66	4.89
0.8823	323.15	11010	764.53	4.9
0.8823	323.15	12010	765.37	4.9
0.8823	323.15	13000	766.25	4.91
0.8823	323.15	14010	767.11	4.91
0.8823	323.15	15000	767.94	4.92
0.8823	323.15	16010	768.77	4.93
0.8823	323.15	17020	769.6	4.93
0.8823	323.15	18010	770.4	4.94
0.8823	323.15	19020	771.2	4.94
0.8823	323.15	20010	772.02	4.95
0.8823	333.15	100	744.98	4.77
0.8823	333.15	1010	745.82	4.78
0.8823	333.15	2010	746.82	4.78
0.8823	333.15	3020	747.84	4.79
0.8823	333.15	4010	748.84	4.8
0.8823	333.15	5000	749.83	4.8
0.8823	333.15	6010	750.8	4.81
0.8823	333.15	7010	751.79	4.82
0.8823	333.15	8000	752.76	4.82
0.8823	333.15	9010	753.69	4.83
0.8823	333.15	10000	754.64	4.83
0.8823	333.15	11010	755.6	4.84
0.8823	333.15	12010	756.54	4.85
0.8823	333.15	13000	757.44	4.85
0.8823	333.15	14010	758.35	4.86
0.8823	333.15	15020	759.26	4.87
0.8823	333.15	16010	760.14	4.87
0.8823	333.15	17020	761.01	4.88
0.8823	333.15	18010	761.87	4.88
0.8823	333.15	19000	762.72	4.89
0.8823	333.15	20010	763.55	4.89
0.8823	343.15	100	734.38	4.7
0.8823	343.15	1000	735.58	4.71
0.8823	343.15	2010	736.66	4.72
0.8823	343.15	3020	737.74	4.72
0.8823	343.15	4000	738.79	4.73
0.8823	343.15	5010	739.88	4.74
0.8823	343.15	6010	740.91	4.75
0.8823	343.15	7000	741.99	4.75
0.8823	343.15	8000	743	4.76
0.8823	343.15	9010	744.04	4.77
0.8823	343.15	10010	745.05	4.77
0.8823	343.15	11020	746.05	4.78
0.8823	343.15	12010	747.05	4.79
0.8823	343.15	13010	748.05	4.79
0.8823	343.15	14000	749.02	4.8
0.8823	343.15	15000	749.96	4.81
0.8823	343.15	16010	750.92	4.81
0.8823	343.15	17000	751.86	4.82
0.8823	343.15	18020	752.76	4.83
0.8823	343.15	19010	753.68	4.83
0.8823	343.15	20020	754.54	4.84
0.8823	353.15	100	723.05	4.63
0.8823	353.15	1010	724.42	4.64
0.8823	353.15	2020	725.57	4.65
0.8823	353.15	3010	726.72	4.65
0.8823	353.15	4000	727.86	4.66
0.8823	353.15	5020	729.03	4.67
0.8823	353.15	6020	730.16	4.68
0.8823	353.15	7000	731.28	4.68
0.8823	353.15	8020	732.4	4.69
0.8823	353.15	9020	733.54	4.7
0.8823	353.15	10000	734.63	4.71
0.8823	353.15	11000	735.72	4.71
0.8823	353.15	12020	736.81	4.72
0.8823	353.15	13010	737.84	4.73
0.8823	353.15	14010	738.9	4.74
0.8823	353.15	15000	739.94	4.74
0.8823	353.15	16010	740.94	4.75
0.8823	353.15	17020	741.94	4.76
0.8823	353.15	18010	742.92	4.76
0.8823	353.15	19010	743.88	4.77
0.8823	353.15	20000	744.83	4.78
0.8823	363.15	100	711.1	4.55
0.8823	363.15	1020	712.01	4.56
0.8823	363.15	2000	713.23	4.57
0.8823	363.15	3010	714.49	4.58
0.8823	363.15	4010	715.75	4.58
0.8823	363.15	5010	716.99	4.59
0.8823	363.15	6000	718.21	4.6
0.8823	363.15	7020	719.45	4.61
0.8823	363.15	8010	720.66	4.62
0.8823	363.15	9000	721.91	4.63
0.8823	363.15	10010	723.12	4.63
0.8823	363.15	11020	724.31	4.64
0.8823	363.15	12000	725.46	4.65
0.8823	363.15	13000	726.58	4.66
0.8823	363.15	14020	727.76	4.67
0.8823	363.15	15000	728.85	4.67
0.8823	363.15	16000	729.97	4.68
0.8823	363.15	17000	731.02	4.69
0.8823	363.15	18000	732.11	4.7
0.8823	363.15	19000	733.13	4.7
0.8823	363.15	20020	734.15	4.71

System: propan-1-ol + nonane; phases: Liquid
Property: Mass density, kg/m3 (Liquid); method: Vibrating tube method
Mole fraction of propan-1-ol	Temperature, K	Pressure, kPa	Mass density, kg/m3	uncertainty
0.1231	313.15	6020	666.76	4.27
0.1231	313.15	7000	667.99	4.28
0.1231	313.15	8000	669.23	4.29
0.1231	313.15	9000	670.48	4.3
0.1231	313.15	10010	671.75	4.31
0.1231	313.15	11010	672.98	4.32
0.1231	313.15	12000	674.18	4.32
0.1231	313.15	13010	675.41	4.33
0.1231	313.15	14000	676.57	4.34
0.1231	313.15	15010	677.73	4.35
0.1231	313.15	16010	678.86	4.43
0.1231	313.15	17020	679.98	4.36
0.1231	313.15	18020	681.03	4.37
0.1231	313.15	19010	682.1	4.45
0.1231	313.15	20010	683.05	4.39
0.1231	313.15	15010	717.43	4.6
0.1231	313.15	16020	718.2	4.68
0.1231	313.15	17010	718.99	4.61
0.1231	313.15	18010	719.75	4.62
0.1231	313.15	19010	720.5	4.69
0.1231	313.15	20000	721.22	4.89
0.1231	323.15	100	696.08	4.46
0.1231	323.15	1010	696.28	4.46
0.1231	323.15	2000	697.28	4.47
0.1231	323.15	3020	698.25	4.47
0.1231	323.15	4010	699.22	4.48
0.1231	323.15	5010	700.18	4.49
0.1231	323.15	6010	701.13	4.49
0.1231	323.15	7020	702.05	4.5
0.1231	323.15	8020	702.98	4.5
0.1231	323.15	9010	703.89	4.51
0.1231	323.15	10000	704.81	4.52
0.1231	323.15	11010	705.72	4.52
0.1231	323.15	12020	706.6	4.53
0.1231	323.15	13000	707.48	4.54
0.1231	323.15	14000	708.35	4.54
0.1231	323.15	15000	709.2	4.55
0.1231	323.15	16010	710.02	4.55
0.1231	323.15	17020	710.86	4.56
0.1231	323.15	18000	711.67	4.57
0.1231	323.15	19010	712.48	4.57
0.1231	323.15	20020	713.24	4.6
0.1231	333.15	100	686.98	4.4
0.1231	333.15	1020	687.08	4.4
0.1231	333.15	2010	688.14	4.41
0.1231	333.15	3000	689.17	4.41
0.1231	333.15	4010	690.19	4.42
0.1231	333.15	5020	691.22	4.43
0.1231	333.15	6020	692.22	4.44
0.1231	333.15	7010	693.22	4.44
0.1231	333.15	8010	694.22	4.45
0.1231	333.15	9020	695.19	4.46
0.1231	333.15	10010	696.17	4.46
0.1231	333.15	11010	697.14	4.47
0.1231	333.15	12000	698.08	4.48
0.1231	333.15	13010	699.03	4.48
0.1231	333.15	14010	699.96	4.49
0.1231	333.15	15010	700.86	4.5
0.1231	333.15	16010	701.75	4.5
0.1231	333.15	17020	702.63	4.51
0.1231	333.15	18010	703.52	4.51
0.1231	333.15	19000	704.35	4.52
0.1231	333.15	20020	705.18	4.53
0.1231	343.15	100	677.91	4.34
0.1231	343.15	1010	677.59	4.34
0.1231	343.15	2010	678.71	4.35
0.1231	343.15	3010	679.8	4.35
0.1231	343.15	4020	680.88	4.36
0.1231	343.15	5000	681.97	4.37
0.1231	343.15	6010	683.04	4.38
0.1231	343.15	7020	684.1	4.38
0.1231	343.15	8020	685.16	4.39
0.1231	343.15	9010	686.2	4.4
0.1231	343.15	10010	687.25	4.41
0.1231	343.15	11010	688.29	4.41
0.1231	343.15	12010	689.31	4.42
0.1231	343.15	13020	690.32	4.43
0.1231	343.15	14000	691.3	4.43
0.1231	343.15	15010	692.28	4.44
0.1231	343.15	16010	693.22	4.45
0.1231	343.15	17000	694.17	4.45
0.1231	343.15	18010	695.1	4.46
0.1231	343.15	19010	695.98	4.47
0.1231	343.15	20010	696.86	4.47
0.1231	353.15	100	666.99	4.27
0.1231	353.15	1010	667.83	4.28
0.1231	353.15	2000	668.99	4.29
0.1231	353.15	3020	670.15	4.29
0.1231	353.15	4010	671.29	4.3
0.1231	353.15	5010	672.43	4.31
0.1231	353.15	6000	673.56	4.32
0.1231	353.15	7020	674.7	4.32
0.1231	353.15	8010	675.84	4.33
0.1231	353.15	9000	676.94	4.34
0.1231	353.15	10010	678.03	4.35
0.1231	353.15	11000	679.16	4.36
0.1231	353.15	12010	680.24	4.36
0.1231	353.15	13010	681.32	4.37
0.1231	353.15	14010	682.37	4.38
0.1231	353.15	15010	683.4	4.38
0.1231	353.15	16010	684.41	4.39
0.1231	353.15	17010	685.42	4.4
0.1231	353.15	18010	686.41	4.41
0.1231	353.15	19010	687.34	4.41
0.1231	353.15	20000	688.24	4.42
0.1231	363.15	100	655.98	4.2
0.1231	363.15	1000	657.23	4.21
0.1231	363.15	2010	658.47	4.22
0.1231	363.15	3020	659.67	4.23
0.1231	363.15	4010	660.89	4.23
0.1231	363.15	5010	662.09	4.24
0.1231	363.15	6020	663.3	4.25
0.1231	363.15	7010	664.48	4.26
0.1231	363.15	8020	665.72	4.27
0.1231	363.15	9020	666.89	4.28
0.1231	363.15	10010	668.07	4.28
0.1231	363.15	11010	669.29	4.29
0.1231	363.15	12010	670.44	4.3
0.1231	363.15	13010	671.61	4.31
0.1231	363.15	14020	672.74	4.32
0.1231	363.15	15010	673.85	4.32
0.1231	363.15	16010	674.91	4.33
0.1231	363.15	17000	676	4.34
0.1231	363.15	18010	677.05	4.35
0.1231	363.15	19010	678.04	4.35
0.1231	363.15	20010	679	4.36
0.2315	313.15	6010	670.36	4.3
0.2315	313.15	7020	671.62	4.31
0.2315	313.15	8020	672.88	4.31
0.2315	313.15	9020	674.14	4.32
0.2315	313.15	10010	675.41	4.33
0.2315	313.15	11010	676.62	4.34
0.2315	313.15	12010	677.87	4.35
0.2315	313.15	13000	679.08	4.36
0.2315	313.15	14010	680.27	4.36
0.2315	313.15	15010	681.42	4.37
0.2315	313.15	16010	682.56	4.38
0.2315	313.15	17010	683.64	4.39
0.2315	313.15	18010	684.75	4.47
0.2315	313.15	19010	685.8	4.4
0.2315	313.15	20010	686.85	4.42
0.2315	313.15	15010	721.96	4.63
0.2315	313.15	16010	722.75	4.63
0.2315	313.15	17010	723.54	4.64
0.2315	313.15	18010	724.3	4.72
0.2315	313.15	19000	725.04	4.65
0.2315	313.15	20020	725.78	4.72
0.2315	323.15	100	700.11	4.48
0.2315	323.15	1010	700.63	4.49
0.2315	323.15	2010	701.62	4.49
0.2315	323.15	3010	702.6	4.5
0.2315	323.15	4000	703.57	4.51
0.2315	323.15	5010	704.52	4.51
0.2315	323.15	6010	705.46	4.52
0.2315	323.15	7020	706.4	4.53
0.2315	323.15	8020	707.34	4.53
0.2315	323.15	9000	708.26	4.54
0.2315	323.15	10020	709.17	4.54
0.2315	323.15	11010	710.07	4.55
0.2315	323.15	12020	710.98	4.56
0.2315	323.15	13010	711.85	4.56
0.2315	323.15	14000	712.73	4.57
0.2315	323.15	15020	713.58	4.58
0.2315	323.15	16020	714.42	4.58
0.2315	323.15	17000	715.27	4.59
0.2315	323.15	18010	716.08	4.59
0.2315	323.15	19010	716.87	4.6
0.2315	323.15	20010	717.66	4.61
0.2315	333.15	100	690.52	4.42
0.2315	333.15	1010	691.2	4.43
0.2315	333.15	2010	692.25	4.43
0.2315	333.15	3000	693.28	4.44
0.2315	333.15	4010	694.31	4.45
0.2315	333.15	5010	695.33	4.45
0.2315	333.15	6010	696.33	4.46
0.2315	333.15	7000	697.33	4.47
0.2315	333.15	8020	698.33	4.47
0.2315	333.15	9010	699.32	4.48
0.2315	333.15	10010	700.3	4.49
0.2315	333.15	11010	701.27	4.5
0.2315	333.15	12000	702.25	4.5
0.2315	333.15	13020	703.18	4.51
0.2315	333.15	14010	704.11	4.52
0.2315	333.15	15000	705.02	4.52
0.2315	333.15	16010	705.94	4.53
0.2315	333.15	17020	706.85	4.53
0.2315	333.15	18010	707.71	4.54
0.2315	333.15	19000	708.54	4.55
0.2315	333.15	20000	709.37	4.55
0.2315	343.15	100	680.7	4.36
0.2315	343.15	1000	681.31	4.36
0.2315	343.15	2010	682.42	4.37
0.2315	343.15	3020	683.53	4.38
0.2315	343.15	4010	684.63	4.39
0.2315	343.15	5020	685.69	4.39
0.2315	343.15	6020	686.75	4.4
0.2315	343.15	7010	687.82	4.41
0.2315	343.15	8000	688.91	4.42
0.2315	343.15	9010	689.96	4.42
0.2315	343.15	10000	690.99	4.43
0.2315	343.15	11020	692.04	4.44
0.2315	343.15	12010	693.08	4.44
0.2315	343.15	13020	694.1	4.45
0.2315	343.15	14010	695.1	4.46
0.2315	343.15	15020	696.09	4.47
0.2315	343.15	16020	697.06	4.47
0.2315	343.15	17020	698.04	4.48
0.2315	343.15	18010	698.96	4.49
0.2315	343.15	19000	699.84	4.49
0.2315	343.15	20010	700.72	4.5
0.2315	353.15	100	669.25	4.29
0.2315	353.15	1010	670.69	4.3
0.2315	353.15	2000	671.87	4.3
0.2315	353.15	3010	673.01	4.31
0.2315	353.15	4020	674.2	4.32
0.2315	353.15	5010	675.32	4.33
0.2315	353.15	6010	676.43	4.33
0.2315	353.15	7000	677.57	4.34
0.2315	353.15	8020	678.73	4.35
0.2315	353.15	9000	679.85	4.36
0.2315	353.15	10000	680.95	4.37
0.2315	353.15	11010	682.07	4.37
0.2315	353.15	12010	683.2	4.38
0.2315	353.15	13020	684.28	4.39
0.2315	353.15	14010	685.35	4.4
0.2315	353.15	15020	686.39	4.4
0.2315	353.15	16000	687.43	4.41
0.2315	353.15	17020	688.48	4.42
0.2315	353.15	18010	689.45	4.43
0.2315	353.15	19010	690.38	4.43
0.2315	353.15	20000	691.33	4.44
0.2315	363.15	100	657.04	4.21
0.2315	363.15	1010	659.34	4.22
0.2315	363.15	2010	660.57	4.23
0.2315	363.15	3010	661.79	4.24
0.2315	363.15	4020	663.04	4.25
0.2315	363.15	5010	664.23	4.26
0.2315	363.15	6010	665.41	4.26
0.2315	363.15	7010	666.62	4.27
0.2315	363.15	8020	667.87	4.28
0.2315	363.15	9000	669.09	4.29
0.2315	363.15	10010	670.27	4.3
0.2315	363.15	11010	671.48	4.31
0.2315	363.15	12010	672.7	4.31
0.2315	363.15	13020	673.89	4.32
0.2315	363.15	14020	675.04	4.33
0.2315	363.15	15000	676.17	4.34
0.2315	363.15	16000	677.27	4.35
0.2315	363.15	17010	678.41	4.36
0.2315	363.15	18010	679.45	4.36
0.2315	363.15	19000	680.43	4.37
0.2315	363.15	20010	681.42	4.38
0.3229	313.15	6000	689.86	4.42
0.3229	313.15	7000	691.15	4.43
0.3229	313.15	8000	692.44	4.44
0.3229	313.15	9010	693.71	4.45
0.3229	313.15	10010	694.96	4.46
0.3229	313.15	11020	696.2	4.46
0.3229	313.15	12000	697.42	4.47
0.3229	313.15	13010	698.65	4.48
0.3229	313.15	14010	699.83	4.52
0.3229	313.15	15020	700.99	4.5
0.3229	313.15	16020	702.15	4.54
0.3229	313.15	17020	703.28	4.51
0.3229	313.15	18010	704.37	4.52
0.3229	313.15	19000	705.41	4.53
0.3229	313.15	20020	706.48	4.62
0.3229	313.15	15010	726.26	4.66
0.3229	313.15	16020	727.04	4.69
0.3229	313.15	17010	727.83	4.67
0.3229	313.15	18010	728.61	4.67
0.3229	313.15	19020	729.37	4.68
0.3229	313.15	20020	730.09	4.72
0.3229	323.15	100	704.16	4.51
0.3229	323.15	1010	704.67	4.51
0.3229	323.15	2010	705.65	4.52
0.3229	323.15	3010	706.63	4.53
0.3229	323.15	4010	707.6	4.53
0.3229	323.15	5020	708.55	4.54
0.3229	323.15	6010	709.51	4.55
0.3229	323.15	7010	710.46	4.55
0.3229	323.15	8010	711.38	4.56
0.3229	323.15	9020	712.32	4.56
0.3229	323.15	10010	713.24	4.57
0.3229	323.15	11000	714.15	4.58
0.3229	323.15	12010	715.05	4.58
0.3229	323.15	13020	715.95	4.59
0.3229	323.15	14020	716.82	4.6
0.3229	323.15	15000	717.67	4.6
0.3229	323.15	16020	718.52	4.61
0.3229	323.15	17000	719.35	4.61
0.3229	323.15	18010	720.19	4.62
0.3229	323.15	19010	720.99	4.63
0.3229	323.15	20020	721.77	4.63
0.3229	333.15	100	694.34	4.45
0.3229	333.15	1010	694.86	4.45
0.3229	333.15	2000	695.92	4.46
0.3229	333.15	3020	696.96	4.46
0.3229	333.15	4020	697.98	4.47
0.3229	333.15	5010	699.01	4.48
0.3229	333.15	6020	700.03	4.48
0.3229	333.15	7010	701.03	4.49
0.3229	333.15	8000	702.03	4.5
0.3229	333.15	9010	703.05	4.51
0.3229	333.15	10010	704.04	4.51
0.3229	333.15	11010	705.01	4.52
0.3229	333.15	12000	705.98	4.53
0.3229	333.15	13000	706.94	4.53
0.3229	333.15	14000	707.87	4.54
0.3229	333.15	15010	708.79	4.55
0.3229	333.15	16010	709.71	4.55
0.3229	333.15	17000	710.61	4.56
0.3229	333.15	18000	711.48	4.56
0.3229	333.15	19010	712.34	4.57
0.3229	333.15	20020	713.17	4.58
0.3229	343.15	100	683.88	4.38
0.3229	343.15	1020	684.46	4.38
0.3229	343.15	2000	685.59	4.39
0.3229	343.15	3000	686.69	4.4
0.3229	343.15	4010	687.78	4.41
0.3229	343.15	5010	688.88	4.41
0.3229	343.15	6010	689.97	4.42
0.3229	343.15	7000	691.04	4.43
0.3229	343.15	8010	692.11	4.44
0.3229	343.15	9010	693.2	4.44
0.3229	343.15	10010	694.26	4.45
0.3229	343.15	11000	695.31	4.46
0.3229	343.15	12000	696.36	4.46
0.3229	343.15	13020	697.39	4.47
0.3229	343.15	14000	698.41	4.48
0.3229	343.15	15020	699.39	4.49
0.3229	343.15	16020	700.38	4.49
0.3229	343.15	17000	701.35	4.5
0.3229	343.15	18020	702.27	4.51
0.3229	343.15	19000	703.2	4.51
0.3229	343.15	20010	704.07	4.52
0.3229	353.15	100	671.68	4.3
0.3229	353.15	1000	672.91	4.31
0.3229	353.15	2020	674.1	4.32
0.3229	353.15	3010	675.25	4.33
0.3229	353.15	4010	676.42	4.33
0.3229	353.15	5020	677.57	4.34
0.3229	353.15	6010	678.73	4.35
0.3229	353.15	7010	679.88	4.36
0.3229	353.15	8000	681.03	4.37
0.3229	353.15	9010	682.18	4.37
0.3229	353.15	10010	683.34	4.38
0.3229	353.15	11020	684.47	4.39
0.3229	353.15	12000	685.59	4.4
0.3229	353.15	13020	686.69	4.4
0.3229	353.15	14000	687.76	4.41
0.3229	353.15	15010	688.83	4.42
0.3229	353.15	16020	689.88	4.43
0.3229	353.15	17010	690.92	4.43
0.3229	353.15	18000	691.91	4.44
0.3229	353.15	19000	692.9	4.45
0.3229	353.15	20000	693.81	4.45
0.3229	363.15	100	658.57	4.22
0.3229	363.15	1020	660.57	4.23
0.3229	363.15	2010	661.82	4.24
0.3229	363.15	3010	663.05	4.25
0.3229	363.15	4010	664.28	4.26
0.3229	363.15	5010	665.52	4.26
0.3229	363.15	6020	666.76	4.27
0.3229	363.15	7000	667.99	4.28
0.3229	363.15	8000	669.23	4.29
0.3229	363.15	9000	670.48	4.3
0.3229	363.15	10010	671.75	4.31
0.3229	363.15	11010	672.98	4.32
0.3229	363.15	12000	674.18	4.32
0.3229	363.15	13010	675.41	4.33
0.3229	363.15	14000	676.57	4.34
0.3229	363.15	15010	677.73	4.35
0.3229	363.15	16010	678.86	4.36
0.3229	363.15	17020	679.98	4.36
0.3229	363.15	18020	681.03	4.37
0.3229	363.15	19010	682.1	4.38
0.3229	363.15	20010	683.05	4.39
0.4272	313.15	6010	717.03	4.61
0.4272	313.15	7020	718.27	4.6
0.4272	313.15	8010	719.48	4.61
0.4272	313.15	9010	720.71	4.62
0.4272	313.15	10010	721.93	4.63
0.4272	313.15	11010	723.15	4.63
0.4272	313.15	12010	724.32	4.64
0.4272	313.15	13000	725.44	4.65
0.4272	313.15	14010	726.63	4.66
0.4272	313.15	15010	727.76	4.67
0.4272	313.15	16020	728.86	4.67
0.4272	313.15	17000	729.95	4.68
0.4272	313.15	18020	731.02	4.69
0.4272	313.15	19010	732.06	4.7
0.4272	313.15	20020	733.04	4.72
0.4272	313.15	15010	732.14	4.69
0.4272	313.15	16020	732.94	4.7
0.4272	313.15	17000	733.7	4.71
0.4272	313.15	18010	734.49	4.71
0.4272	313.15	19020	735.24	4.72
0.4272	313.15	20010	736	4.73
0.4272	323.15	100	709.94	4.55
0.4272	323.15	1010	710.4	4.55
0.4272	323.15	2010	711.37	4.56
0.4272	323.15	3010	712.36	4.56
0.4272	323.15	4000	713.31	4.57
0.4272	323.15	5010	714.28	4.58
0.4272	323.15	6010	715.23	4.58
0.4272	323.15	7020	716.18	4.59
0.4272	323.15	8010	717.13	4.59
0.4272	323.15	9010	718.05	4.6
0.4272	323.15	10010	718.99	4.61
0.4272	323.15	11010	719.89	4.61
0.4272	323.15	12020	720.79	4.62
0.4272	323.15	13000	721.68	4.63
0.4272	323.15	14010	722.55	4.63
0.4272	323.15	15020	723.42	4.64
0.4272	323.15	16020	724.26	4.64
0.4272	323.15	17010	725.1	4.65
0.4272	323.15	18010	725.91	4.66
0.4272	323.15	19010	726.74	4.66
0.4272	323.15	20000	727.54	4.67
0.4272	333.15	100	699.84	4.48
0.4272	333.15	1010	700.34	4.48
0.4272	333.15	2000	701.38	4.49
0.4272	333.15	3010	702.44	4.5
0.4272	333.15	4010	703.48	4.51
0.4272	333.15	5010	704.5	4.51
0.4272	333.15	6010	705.51	4.52
0.4272	333.15	7010	706.53	4.53
0.4272	333.15	8020	707.53	4.53
0.4272	333.15	9010	708.53	4.54
0.4272	333.15	10010	709.54	4.55
0.4272	333.15	11010	710.52	4.55
0.4272	333.15	12010	711.48	4.56
0.4272	333.15	13010	712.44	4.57
0.4272	333.15	14010	713.39	4.57
0.4272	333.15	15010	714.3	4.58
0.4272	333.15	16000	715.23	4.59
0.4272	333.15	17020	716.11	4.59
0.4272	333.15	18000	717	4.6
0.4272	333.15	19010	717.85	4.61
0.4272	333.15	20020	718.7	4.61
0.4272	343.15	100	688.89	4.41
0.4272	343.15	1010	689.57	4.42
0.4272	343.15	2010	690.68	4.42
0.4272	343.15	3000	691.79	4.43
0.4272	343.15	4020	692.9	4.44
0.4272	343.15	5010	694	4.45
0.4272	343.15	6010	695.09	4.45
0.4272	343.15	7010	696.18	4.46
0.4272	343.15	8010	697.28	4.47
0.4272	343.15	9020	698.35	4.48
0.4272	343.15	10020	699.44	4.48
0.4272	343.15	11000	700.47	4.49
0.4272	343.15	12010	701.53	4.5
0.4272	343.15	13010	702.56	4.5
0.4272	343.15	14020	703.57	4.51
0.4272	343.15	15010	704.56	4.52
0.4272	343.15	16020	705.54	4.53
0.4272	343.15	17000	706.5	4.53
0.4272	343.15	18020	707.45	4.54
0.4272	343.15	19010	708.36	4.55
0.4272	343.15	20000	709.29	4.55
0.4272	353.15	100	676.17	4.33
0.4272	353.15	1000	677.15	4.34
0.4272	353.15	2010	678.31	4.34
0.4272	353.15	3010	679.49	4.35
0.4272	353.15	4000	680.67	4.36
0.4272	353.15	5000	681.83	4.37
0.4272	353.15	6000	683.02	4.38
0.4272	353.15	7020	684.19	4.38
0.4272	353.15	8010	685.36	4.39
0.4272	353.15	9010	686.5	4.4
0.4272	353.15	10000	687.67	4.41
0.4272	353.15	11000	688.79	4.42
0.4272	353.15	12010	689.92	4.42
0.4272	353.15	13010	691.03	4.43
0.4272	353.15	14000	692.13	4.44
0.4272	353.15	15000	693.19	4.45
0.4272	353.15	16010	694.24	4.45
0.4272	353.15	17010	695.25	4.46
0.4272	353.15	18020	696.27	4.47
0.4272	353.15	19000	697.25	4.48
0.4272	353.15	20010	698.23	4.48
0.4272	363.15	100	662.45	4.24
0.4272	363.15	1010	664.09	4.25
0.4272	363.15	2010	665.32	4.26
0.4272	363.15	3020	666.57	4.27
0.4272	363.15	4010	667.83	4.28
0.4272	363.15	5000	669.09	4.29
0.4272	363.15	6010	670.36	4.3
0.4272	363.15	7020	671.62	4.3
0.4272	363.15	8020	672.88	4.31
0.4272	363.15	9020	674.14	4.32
0.4272	363.15	10010	675.41	4.33
0.4272	363.15	11010	676.62	4.34
0.4272	363.15	12010	677.87	4.35
0.4272	363.15	13000	679.08	4.36
0.4272	363.15	14010	680.27	4.36
0.4272	363.15	15010	681.42	4.37
0.4272	363.15	16010	682.56	4.38
0.4272	363.15	17010	683.64	4.39
0.4272	363.15	18010	684.75	4.4
0.4272	363.15	19010	685.8	4.4
0.4272	363.15	20010	686.85	4.41
0.7021	313.15	100	741.23	4.75
0.7021	313.15	1000	742.27	4.75
0.7021	313.15	2010	743.17	4.76
0.7021	313.15	3000	744.09	4.76
0.7021	313.15	4010	745	4.77
0.7021	313.15	5010	745.89	4.78
0.7021	313.15	6020	746.77	4.78
0.7021	313.15	7010	747.64	4.79
0.7021	313.15	8010	748.52	4.79
0.7021	313.15	9000	749.39	4.8
0.7021	313.15	10010	750.23	4.81
0.7021	313.15	11020	751.07	4.81
0.7021	313.15	12010	751.91	4.82
0.7021	313.15	13020	752.73	4.82
0.7021	313.15	14020	753.54	4.83
0.7021	313.15	15020	754.35	4.83
0.7021	313.15	16010	755.14	4.84
0.7021	313.15	17010	755.92	4.85
0.7021	313.15	18000	756.69	4.85
0.7021	313.15	19000	757.45	4.86
0.7021	313.15	20010	758.2	4.86
0.7021	323.15	100	732.13	4.69
0.7021	323.15	1000	732.62	4.69
0.7021	323.15	2010	733.6	4.7
0.7021	323.15	3020	734.56	4.7
0.7021	323.15	4020	735.53	4.71
0.7021	323.15	5010	736.47	4.72
0.7021	323.15	6010	737.41	4.72
0.7021	323.15	7020	738.36	4.73
0.7021	323.15	8010	739.3	4.74
0.7021	323.15	9000	740.23	4.74
0.7021	323.15	10010	741.14	4.75
0.7021	323.15	11010	742.04	4.75
0.7021	323.15	12010	742.93	4.76
0.7021	323.15	13000	743.81	4.77
0.7021	323.15	14020	744.68	4.77
0.7021	323.15	15010	745.54	4.78
0.7021	323.15	16020	746.38	4.78
0.7021	323.15	17020	747.22	4.79
0.7021	323.15	18010	748.04	4.8
0.7021	323.15	19020	748.85	4.8
0.7021	323.15	20020	749.67	4.81
0.7021	333.15	100	721.88	4.62
0.7021	333.15	1010	722.39	4.63
0.7021	333.15	2020	723.42	4.63
0.7021	333.15	3020	724.44	4.64
0.7021	333.15	4000	725.48	4.65
0.7021	333.15	5020	726.49	4.65
0.7021	333.15	6000	727.51	4.66
0.7021	333.15	7010	728.53	4.67
0.7021	333.15	8010	729.53	4.67
0.7021	333.15	9010	730.52	4.68
0.7021	333.15	10020	731.49	4.69
0.7021	333.15	11010	732.46	4.69
0.7021	333.15	12020	733.42	4.7
0.7021	333.15	13010	734.37	4.71
0.7021	333.15	14010	735.32	4.71
0.7021	333.15	15010	736.23	4.72
0.7021	333.15	16020	737.15	4.73
0.7021	333.15	17010	738.03	4.73
0.7021	333.15	18010	738.91	4.74
0.7021	333.15	19010	739.77	4.74
0.7021	333.15	20010	740.63	4.75
0.7021	343.15	100	710.15	4.55
0.7021	343.15	1010	711.27	4.55
0.7021	343.15	2010	712.38	4.56
0.7021	343.15	3000	713.46	4.57
0.7021	343.15	4010	714.57	4.58
0.7021	343.15	5000	715.67	4.58
0.7021	343.15	6010	716.75	4.59
0.7021	343.15	7020	717.84	4.6
0.7021	343.15	8020	718.92	4.61
0.7021	343.15	9020	720.01	4.61
0.7021	343.15	10000	721.05	4.62
0.7021	343.15	11010	722.11	4.63
0.7021	343.15	12020	723.13	4.63
0.7021	343.15	13020	724.18	4.64
0.7021	343.15	14010	725.19	4.65
0.7021	343.15	15010	726.16	4.66
0.7021	343.15	16010	727.16	4.66
0.7021	343.15	17010	728.12	4.67
0.7021	343.15	18010	729.04	4.68
0.7021	343.15	19000	729.96	4.68
0.7021	343.15	20010	730.88	4.69
0.7021	353.15	100	697.1	4.46
0.7021	353.15	1000	697.4	4.47
0.7021	353.15	2010	698.58	4.47
0.7021	353.15	3010	699.75	4.48
0.7021	353.15	4010	700.94	4.49
0.7021	353.15	5010	702.12	4.5
0.7021	353.15	6010	703.28	4.51
0.7021	353.15	7020	704.46	4.51
0.7021	353.15	8000	705.61	4.52
0.7021	353.15	9010	706.79	4.53
0.7021	353.15	10010	707.93	4.54
0.7021	353.15	11010	709.06	4.54
0.7021	353.15	12000	710.18	4.55
0.7021	353.15	13010	711.31	4.56
0.7021	353.15	14020	712.38	4.57
0.7021	353.15	15010	713.45	4.58
0.7021	353.15	16010	714.52	4.58
0.7021	353.15	17010	715.56	4.59
0.7021	353.15	18000	716.55	4.6
0.7021	353.15	19020	717.54	4.6
0.7021	353.15	20010	718.51	4.61
0.7021	363.15	100	683	4.38
0.7021	363.15	1010	683.53	4.38
0.7021	363.15	2010	684.79	4.39
0.7021	363.15	3010	686.04	4.39
0.7021	363.15	4010	687.34	4.4
0.7021	363.15	5000	688.61	4.41
0.7021	363.15	6000	689.86	4.42
0.7021	363.15	7000	691.15	4.43
0.7021	363.15	8000	692.44	4.44
0.7021	363.15	9010	693.71	4.45
0.7021	363.15	10010	694.96	4.45
0.7021	363.15	11020	696.2	4.46
0.7021	363.15	12000	697.42	4.47
0.7021	363.15	13010	698.65	4.48
0.7021	363.15	14010	699.83	4.49
0.7021	363.15	15020	700.99	4.5
0.7021	363.15	16020	702.15	4.5
0.7021	363.15	17020	703.28	4.51
0.7021	363.15	18010	704.37	4.52
0.7021	363.15	19000	705.41	4.53
0.7021	363.15	20020	706.48	4.54
0.8941	313.15	100	766.16	4.91
0.8941	313.15	1020	767.45	4.91
0.8941	313.15	2000	768.33	4.92
0.8941	313.15	3010	769.22	4.93
0.8941	313.15	4010	770.09	4.93
0.8941	313.15	5010	770.95	4.94
0.8941	313.15	6000	771.82	4.94
0.8941	313.15	7000	772.68	4.95
0.8941	313.15	8010	773.53	4.95
0.8941	313.15	9000	774.38	4.96
0.8941	313.15	10020	775.22	4.97
0.8941	313.15	11000	776.04	4.97
0.8941	313.15	12020	776.87	4.98
0.8941	313.15	13010	777.67	4.98
0.8941	313.15	14010	778.47	4.99
0.8941	313.15	15020	779.28	4.99
0.8941	313.15	16000	780.06	5
0.8941	313.15	17010	780.82	5
0.8941	313.15	18010	781.6	5.01
0.8941	313.15	19000	782.35	5.01
0.8941	313.15	20010	783.1	5.02
0.8941	323.15	100	757.59	4.85
0.8941	323.15	1010	758.12	4.85
0.8941	323.15	2000	759.05	4.86
0.8941	323.15	3010	760	4.87
0.8941	323.15	4000	760.92	4.87
0.8941	323.15	5010	761.84	4.88
0.8941	323.15	6010	762.78	4.88
0.8941	323.15	7000	763.69	4.89
0.8941	323.15	8010	764.6	4.9
0.8941	323.15	9020	765.49	4.9
0.8941	323.15	10000	766.39	4.91
0.8941	323.15	11000	767.27	4.91
0.8941	323.15	12010	768.14	4.92
0.8941	323.15	13010	768.99	4.93
0.8941	323.15	14000	769.85	4.93
0.8941	323.15	15010	770.68	4.94
0.8941	323.15	16010	771.51	4.94
0.8941	323.15	17000	772.34	4.95
0.8941	323.15	18010	773.16	4.95
0.8941	323.15	19020	773.95	4.96
0.8941	323.15	20010	774.74	4.97
0.8941	333.15	100	747.76	4.79
0.8941	333.15	1000	748.19	4.79
0.8941	333.15	2010	749.18	4.8
0.8941	333.15	3010	750.17	4.8
0.8941	333.15	4020	751.17	4.81
0.8941	333.15	5010	752.16	4.82
0.8941	333.15	6000	753.15	4.82
0.8941	333.15	7010	754.12	4.83
0.8941	333.15	8010	755.09	4.84
0.8941	333.15	9010	756.05	4.84
0.8941	333.15	10020	757	4.85
0.8941	333.15	11010	757.95	4.86
0.8941	333.15	12010	758.88	4.86
0.8941	333.15	13000	759.79	4.87
0.8941	333.15	14010	760.71	4.87
0.8941	333.15	15010	761.6	4.88
0.8941	333.15	16000	762.49	4.89
0.8941	333.15	17010	763.38	4.89
0.8941	333.15	18000	764.23	4.9
0.8941	333.15	19000	765.08	4.9
0.8941	333.15	20000	765.89	4.91
0.8941	343.15	100	735.96	4.71
0.8941	343.15	1010	737.45	4.72
0.8941	343.15	2010	738.5	4.73
0.8941	343.15	3010	739.56	4.74
0.8941	343.15	4020	740.61	4.74
0.8941	343.15	5010	741.67	4.75
0.8941	343.15	6020	742.73	4.76
0.8941	343.15	7000	743.78	4.76
0.8941	343.15	8000	744.82	4.77
0.8941	343.15	9010	745.86	4.78
0.8941	343.15	10000	746.88	4.78
0.8941	343.15	11020	747.91	4.79
0.8941	343.15	12010	748.9	4.8
0.8941	343.15	13010	749.87	4.81
0.8941	343.15	14000	750.86	4.81
0.8941	343.15	15010	751.83	4.82
0.8941	343.15	16000	752.78	4.82
0.8941	343.15	17020	753.71	4.83
0.8941	343.15	18020	754.62	4.84
0.8941	343.15	19000	755.52	4.84
0.8941	343.15	20020	756.41	4.85
0.8941	353.15	100	723.67	4.63
0.8941	353.15	1010	724.26	4.64
0.8941	353.15	2020	725.38	4.65
0.8941	353.15	3010	726.49	4.65
0.8941	353.15	4010	727.63	4.66
0.8941	353.15	5010	728.78	4.67
0.8941	353.15	6010	729.91	4.68
0.8941	353.15	7010	731.05	4.68
0.8941	353.15	8010	732.17	4.69
0.8941	353.15	9010	733.3	4.7
0.8941	353.15	10010	734.42	4.71
0.8941	353.15	11010	735.52	4.71
0.8941	353.15	12010	736.6	4.72
0.8941	353.15	13010	737.63	4.73
0.8941	353.15	14000	738.72	4.73
0.8941	353.15	15020	739.75	4.74
0.8941	353.15	16000	740.76	4.75
0.8941	353.15	17000	741.78	4.76
0.8941	353.15	18010	742.76	4.76
0.8941	353.15	19010	743.72	4.77
0.8941	353.15	20020	744.66	4.78
0.8941	363.15	100	710.52	4.55
0.8941	363.15	1000	710.94	4.55
0.8941	363.15	2010	712.1	4.56
0.8941	363.15	3010	713.33	4.57
0.8941	363.15	4010	714.55	4.58
0.8941	363.15	5010	715.78	4.58
0.8941	363.15	6010	717.03	4.59
0.8941	363.15	7020	718.27	4.6
0.8941	363.15	8010	719.48	4.61
0.8941	363.15	9010	720.71	4.62
0.8941	363.15	10010	721.93	4.63
0.8941	363.15	11010	723.15	4.63
0.8941	363.15	12010	724.32	4.64
0.8941	363.15	13000	725.44	4.65
0.8941	363.15	14010	726.63	4.66
0.8941	363.15	15010	727.76	4.67
0.8941	363.15	16020	728.86	4.67
0.8941	363.15	17000	729.95	4.68
0.8941	363.15	18020	731.02	4.69
0.8941	363.15	19010	732.06	4.7
0.8941	363.15	20020	733.04	4.7

System: propan-1-ol + decane; phases: Liquid
Property: Mass density, kg/m3 (Liquid); method: Vibrating tube method
Mole fraction of propan-1-ol	Temperature, K	Pressure, kPa	Mass density, kg/m3	uncertainty
0.1391	313.15	100	716.51	4.59
0.1391	313.15	1020	717.29	4.59
0.1391	313.15	2000	718.2	4.6
0.1391	313.15	3000	719.08	4.6
0.1391	313.15	4010	719.94	4.61
0.1391	313.15	5010	720.8	4.62
0.1391	313.15	6000	721.67	4.62
0.1391	313.15	7010	722.52	4.63
0.1391	313.15	8010	723.35	4.63
0.1391	313.15	9010	724.19	4.64
0.1391	313.15	10010	724.99	4.65
0.1391	313.15	11010	725.82	4.65
0.1391	313.15	12020	726.61	4.66
0.1391	313.15	13000	727.41	4.66
0.1391	313.15	14010	728.19	4.67
0.1391	313.15	15010	728.97	4.67
0.1391	313.15	16010	729.71	4.68
0.1391	313.15	17010	730.47	4.68
0.1391	313.15	18000	731.21	4.69
0.1391	313.15	19000	731.93	4.69
0.1391	313.15	20020	732.61	4.7
0.1391	323.15	100	707.51	4.53
0.1391	323.15	1010	708.44	4.54
0.1391	323.15	2010	709.4	4.54
0.1391	323.15	3010	710.34	4.55
0.1391	323.15	4020	711.27	4.56
0.1391	323.15	5000	712.19	4.56
0.1391	323.15	6000	713.11	4.57
0.1391	323.15	7020	714.02	4.57
0.1391	323.15	8010	714.92	4.58
0.1391	323.15	9000	715.8	4.59
0.1391	323.15	10000	716.7	4.59
0.1391	323.15	11000	717.57	4.6
0.1391	323.15	12010	718.43	4.6
0.1391	323.15	13000	719.28	4.61
0.1391	323.15	14010	720.12	4.62
0.1391	323.15	15010	720.95	4.62
0.1391	323.15	16010	721.76	4.63
0.1391	323.15	17000	722.56	4.63
0.1391	323.15	18010	723.35	4.64
0.1391	323.15	19020	724.11	4.64
0.1391	323.15	20010	724.85	4.65
0.1391	333.15	100	698	4.47
0.1391	333.15	1020	699.13	4.48
0.1391	333.15	2000	700.15	4.48
0.1391	333.15	3010	701.15	4.49
0.1391	333.15	4000	702.13	4.5
0.1391	333.15	5010	703.13	4.5
0.1391	333.15	6000	704.1	4.51
0.1391	333.15	7000	705.07	4.52
0.1391	333.15	8000	706.06	4.52
0.1391	333.15	9010	707	4.53
0.1391	333.15	10000	707.95	4.54
0.1391	333.15	11010	708.9	4.54
0.1391	333.15	12010	709.82	4.55
0.1391	333.15	13010	710.75	4.56
0.1391	333.15	14010	711.65	4.56
0.1391	333.15	15010	712.53	4.57
0.1391	333.15	16010	713.4	4.58
0.1391	333.15	17020	714.27	4.58
0.1391	333.15	18000	715.12	4.59
0.1391	333.15	19010	715.93	4.59
0.1391	333.15	20020	716.72	4.6
0.1391	343.15	100	687.56	4.4
0.1391	343.15	1010	689.22	4.41
0.1391	343.15	2020	690.3	4.42
0.1391	343.15	3010	691.36	4.43
0.1391	343.15	4000	692.41	4.44
0.1391	343.15	5020	693.45	4.44
0.1391	343.15	6020	694.49	4.45
0.1391	343.15	7010	695.53	4.46
0.1391	343.15	8010	696.59	4.46
0.1391	343.15	9010	697.61	4.47
0.1391	343.15	10010	698.62	4.48
0.1391	343.15	11010	699.66	4.49
0.1391	343.15	12020	700.67	4.49
0.1391	343.15	13000	701.67	4.5
0.1391	343.15	14010	702.65	4.51
0.1391	343.15	15000	703.58	4.51
0.1391	343.15	16010	704.52	4.52
0.1391	343.15	17010	705.45	4.53
0.1391	343.15	18020	706.37	4.53
0.1391	343.15	19010	707.22	4.54
0.1391	343.15	20000	708.05	4.54
0.1391	353.15	100	676.32	4.33
0.1391	353.15	1000	678.16	4.34
0.1391	353.15	2010	679.31	4.35
0.1391	353.15	3020	680.43	4.36
0.1391	353.15	4010	681.55	4.37
0.1391	353.15	5010	682.67	4.37
0.1391	353.15	6010	683.79	4.38
0.1391	353.15	7020	684.92	4.39
0.1391	353.15	8010	686.06	4.4
0.1391	353.15	9020	687.14	4.4
0.1391	353.15	10010	688.25	4.41
0.1391	353.15	11020	689.4	4.42
0.1391	353.15	12010	690.47	4.43
0.1391	353.15	13010	691.56	4.44
0.1391	353.15	14020	692.62	4.44
0.1391	353.15	15020	693.66	4.45
0.1391	353.15	16010	694.64	4.46
0.1391	353.15	17020	695.67	4.46
0.1391	353.15	18020	696.65	4.47
0.1391	353.15	19000	697.56	4.48
0.1391	353.15	20010	698.43	4.48
0.1391	363.15	100	664.41	4.26
0.1391	363.15	1010	665.85	4.26
0.1391	363.15	2000	667.06	4.27
0.1391	363.15	3010	668.24	4.28
0.1391	363.15	4010	669.44	4.29
0.1391	363.15	5020	670.64	4.3
0.1391	363.15	6020	671.83	4.31
0.1391	363.15	7020	673.03	4.31
0.1391	363.15	8020	674.3	4.32
0.1391	363.15	9000	675.46	4.33
0.1391	363.15	10000	676.67	4.34
0.1391	363.15	11000	677.93	4.35
0.1391	363.15	12000	679.09	4.36
0.1391	363.15	13010	680.3	4.36
0.1391	363.15	14010	681.47	4.37
0.1391	363.15	15020	682.58	4.38
0.1391	363.15	16010	683.66	4.39
0.1391	363.15	17010	684.77	4.4
0.1391	363.15	18000	685.82	4.4
0.1391	363.15	19000	686.79	4.41
0.1391	363.15	20010	687.72	4.42
0.1907	313.15	100	717.9	4.6
0.1907	313.15	1010	718.96	4.6
0.1907	313.15	2000	719.85	4.61
0.1907	313.15	3010	720.73	4.62
0.1907	313.15	4010	721.6	4.62
0.1907	313.15	5010	722.46	4.63
0.1907	313.15	6010	723.31	4.63
0.1907	313.15	7000	724.18	4.64
0.1907	313.15	8010	725.03	4.64
0.1907	313.15	9010	725.85	4.65
0.1907	313.15	10010	726.66	4.66
0.1907	313.15	11000	727.49	4.66
0.1907	313.15	12010	728.3	4.67
0.1907	313.15	13000	729.09	4.67
0.1907	313.15	14020	729.89	4.68
0.1907	313.15	15010	730.66	4.68
0.1907	313.15	16020	731.41	4.69
0.1907	313.15	17020	732.18	4.69
0.1907	313.15	18020	732.92	4.7
0.1907	313.15	19000	733.63	4.71
0.1907	313.15	20020	734.34	4.71
0.1907	323.15	100	709.03	4.54
0.1907	323.15	1000	709.9	4.55
0.1907	323.15	2010	710.86	4.55
0.1907	323.15	3010	711.79	4.56
0.1907	323.15	4020	712.75	4.56
0.1907	323.15	5020	713.66	4.57
0.1907	323.15	6010	714.57	4.58
0.1907	323.15	7010	715.47	4.58
0.1907	323.15	8000	716.39	4.59
0.1907	323.15	9000	717.29	4.6
0.1907	323.15	10000	718.16	4.6
0.1907	323.15	11000	719.05	4.61
0.1907	323.15	12020	719.94	4.61
0.1907	323.15	13010	720.8	4.62
0.1907	323.15	14020	721.64	4.63
0.1907	323.15	15020	722.47	4.63
0.1907	323.15	16000	723.29	4.64
0.1907	323.15	17010	724.12	4.64
0.1907	323.15	18020	724.91	4.65
0.1907	323.15	19010	725.67	4.65
0.1907	323.15	20010	726.42	4.66
0.1907	333.15	100	699.22	4.48
0.1907	333.15	1020	700.31	4.48
0.1907	333.15	2000	701.33	4.49
0.1907	333.15	3010	702.33	4.5
0.1907	333.15	4000	703.34	4.51
0.1907	333.15	5000	704.33	4.51
0.1907	333.15	6000	705.29	4.52
0.1907	333.15	7020	706.27	4.52
0.1907	333.15	8010	707.25	4.53
0.1907	333.15	9010	708.23	4.54
0.1907	333.15	10020	709.15	4.54
0.1907	333.15	11000	710.11	4.55
0.1907	333.15	12000	711.08	4.56
0.1907	333.15	13010	712	4.56
0.1907	333.15	14000	712.92	4.57
0.1907	333.15	15010	713.82	4.58
0.1907	333.15	16010	714.7	4.58
0.1907	333.15	17020	715.58	4.59
0.1907	333.15	18000	716.42	4.6
0.1907	333.15	19010	717.24	4.6
0.1907	333.15	20010	718.03	4.61
0.1907	343.15	100	688.32	4.41
0.1907	343.15	1010	690.02	4.42
0.1907	343.15	2010	691.1	4.43
0.1907	343.15	3010	692.15	4.43
0.1907	343.15	4020	693.23	4.44
0.1907	343.15	5020	694.27	4.45
0.1907	343.15	6010	695.3	4.45
0.1907	343.15	7010	696.35	4.46
0.1907	343.15	8000	697.42	4.47
0.1907	343.15	9000	698.46	4.48
0.1907	343.15	10020	699.47	4.48
0.1907	343.15	11010	700.5	4.49
0.1907	343.15	12010	701.55	4.5
0.1907	343.15	13020	702.55	4.5
0.1907	343.15	14020	703.54	4.51
0.1907	343.15	15000	704.5	4.52
0.1907	343.15	16010	705.46	4.53
0.1907	343.15	17000	706.43	4.53
0.1907	343.15	18010	707.33	4.54
0.1907	343.15	19020	708.2	4.54
0.1907	343.15	20000	709.04	4.55
0.1907	353.15	100	676.49	4.33
0.1907	353.15	1000	678.39	4.34
0.1907	353.15	2020	679.54	4.35
0.1907	353.15	3000	680.66	4.36
0.1907	353.15	4010	681.83	4.37
0.1907	353.15	5010	682.92	4.38
0.1907	353.15	6010	684.03	4.38
0.1907	353.15	7020	685.14	4.39
0.1907	353.15	8010	686.32	4.4
0.1907	353.15	9020	687.44	4.41
0.1907	353.15	10020	688.55	4.41
0.1907	353.15	11020	689.66	4.42
0.1907	353.15	12010	690.83	4.43
0.1907	353.15	13020	691.91	4.44
0.1907	353.15	14010	692.99	4.44
0.1907	353.15	15020	694.05	4.45
0.1907	353.15	16010	695.08	4.46
0.1907	353.15	17010	696.15	4.47
0.1907	353.15	18020	697.1	4.47
0.1907	353.15	19010	698.02	4.48
0.1907	353.15	20010	698.94	4.49
0.1907	363.15	100	663.86	4.25
0.1907	363.15	1000	665.28	4.26
0.1907	363.15	2000	666.5	4.27
0.1907	363.15	3020	667.69	4.28
0.1907	363.15	4010	668.95	4.29
0.1907	363.15	5010	670.1	4.29
0.1907	363.15	6020	671.28	4.3
0.1907	363.15	7010	672.49	4.31
0.1907	363.15	8010	673.78	4.32
0.1907	363.15	9010	675	4.33
0.1907	363.15	10000	676.19	4.34
0.1907	363.15	11020	677.43	4.34
0.1907	363.15	12000	678.73	4.35
0.1907	363.15	13010	679.91	4.36
0.1907	363.15	14000	681.11	4.37
0.1907	363.15	15000	682.24	4.38
0.1907	363.15	16010	683.38	4.39
0.1907	363.15	17010	684.57	4.39
0.1907	363.15	18000	685.6	4.4
0.1907	363.15	19010	686.57	4.41
0.1907	363.15	20010	687.53	4.42
0.3001	313.15	100	721.57	4.62
0.3001	313.15	1000	723.23	4.63
0.3001	313.15	2010	724.13	4.64
0.3001	313.15	3020	725.02	4.64
0.3001	313.15	4010	725.89	4.65
0.3001	313.15	5000	726.76	4.65
0.3001	313.15	6020	727.63	4.66
0.3001	313.15	7020	728.48	4.67
0.3001	313.15	8000	729.32	4.67
0.3001	313.15	9010	730.17	4.68
0.3001	313.15	10010	731	4.68
0.3001	313.15	11000	731.82	4.69
0.3001	313.15	12010	732.64	4.7
0.3001	313.15	13010	733.44	4.7
0.3001	313.15	14000	734.23	4.71
0.3001	313.15	15010	735.01	4.71
0.3001	313.15	16020	735.77	4.72
0.3001	313.15	17020	736.53	4.72
0.3001	313.15	18010	737.27	4.73
0.3001	313.15	19000	738.01	4.73
0.3001	313.15	20000	738.71	4.74
0.3001	323.15	100	712.69	4.56
0.3001	323.15	1010	713.84	4.57
0.3001	323.15	2010	714.8	4.58
0.3001	323.15	3020	715.74	4.58
0.3001	323.15	4000	716.68	4.59
0.3001	323.15	5000	717.61	4.6
0.3001	323.15	6010	718.54	4.6
0.3001	323.15	7010	719.46	4.61
0.3001	323.15	8020	720.36	4.62
0.3001	323.15	9010	721.28	4.62
0.3001	323.15	10000	722.18	4.63
0.3001	323.15	11010	723.06	4.63
0.3001	323.15	12000	723.94	4.64
0.3001	323.15	13010	724.81	4.65
0.3001	323.15	14000	725.66	4.65
0.3001	323.15	15010	726.5	4.66
0.3001	323.15	16010	727.33	4.66
0.3001	323.15	17020	728.15	4.67
0.3001	323.15	18010	728.94	4.67
0.3001	323.15	19010	729.72	4.68
0.3001	323.15	20020	730.47	4.69
0.3001	333.15	100	702.36	4.5
0.3001	333.15	1010	703.4	4.5
0.3001	333.15	2020	704.44	4.51
0.3001	333.15	3000	705.44	4.52
0.3001	333.15	4020	706.45	4.52
0.3001	333.15	5000	707.44	4.53
0.3001	333.15	6000	708.43	4.54
0.3001	333.15	7010	709.43	4.55
0.3001	333.15	8020	710.42	4.55
0.3001	333.15	9010	711.39	4.56
0.3001	333.15	10010	712.39	4.57
0.3001	333.15	11020	713.35	4.57
0.3001	333.15	12020	714.31	4.58
0.3001	333.15	13020	715.25	4.59
0.3001	333.15	14010	716.18	4.59
0.3001	333.15	15020	717.1	4.6
0.3001	333.15	16010	717.99	4.6
0.3001	333.15	17010	718.88	4.61
0.3001	333.15	18000	719.72	4.62
0.3001	333.15	19020	720.57	4.62
0.3001	333.15	20000	721.37	4.63
0.3001	343.15	100	690.77	4.42
0.3001	343.15	1010	692.37	4.43
0.3001	343.15	2010	693.48	4.44
0.3001	343.15	3010	694.52	4.45
0.3001	343.15	4020	695.6	4.46
0.3001	343.15	5010	696.69	4.46
0.3001	343.15	6020	697.74	4.47
0.3001	343.15	7010	698.82	4.48
0.3001	343.15	8020	699.88	4.48
0.3001	343.15	9010	700.95	4.49
0.3001	343.15	10010	702.02	4.5
0.3001	343.15	11020	703.07	4.51
0.3001	343.15	12010	704.1	4.51
0.3001	343.15	13010	705.15	4.52
0.3001	343.15	14000	706.16	4.53
0.3001	343.15	15020	707.12	4.53
0.3001	343.15	16010	708.12	4.54
0.3001	343.15	17000	709.07	4.55
0.3001	343.15	18010	709.98	4.56
0.3001	343.15	19010	710.9	4.56
0.3001	343.15	20020	711.75	4.57
0.3001	353.15	100	678.11	4.34
0.3001	353.15	1010	679.67	4.35
0.3001	353.15	2010	680.84	4.36
0.3001	353.15	3000	681.96	4.37
0.3001	353.15	4010	683.13	4.38
0.3001	353.15	5010	684.29	4.38
0.3001	353.15	6020	685.42	4.39
0.3001	353.15	7010	686.6	4.4
0.3001	353.15	8000	687.74	4.41
0.3001	353.15	9020	688.92	4.42
0.3001	353.15	10010	690.11	4.42
0.3001	353.15	11010	691.26	4.43
0.3001	353.15	12020	692.38	4.44
0.3001	353.15	13000	693.53	4.45
0.3001	353.15	14020	694.63	4.46
0.3001	353.15	15020	695.7	4.46
0.3001	353.15	16020	696.78	4.47
0.3001	353.15	17010	697.84	4.48
0.3001	353.15	18020	698.82	4.48
0.3001	353.15	19010	699.8	4.49
0.3001	353.15	20010	700.68	4.5
0.3001	363.15	100	664.03	4.25
0.3001	363.15	1010	666.15	4.27
0.3001	363.15	2020	667.4	4.28
0.3001	363.15	3000	668.59	4.28
0.3001	363.15	4010	669.83	4.29
0.3001	363.15	5020	671.07	4.3
0.3001	363.15	6010	672.31	4.31
0.3001	363.15	7020	673.57	4.32
0.3001	363.15	8000	674.82	4.33
0.3001	363.15	9000	676.11	4.33
0.3001	363.15	10010	677.41	4.34
0.3001	363.15	11010	678.66	4.35
0.3001	363.15	12000	679.92	4.36
0.3001	363.15	13010	681.16	4.37
0.3001	363.15	14010	682.38	4.38
0.3001	363.15	15010	683.55	4.39
0.3001	363.15	16000	684.7	4.39
0.3001	363.15	17000	685.86	4.4
0.3001	363.15	18000	686.93	4.41
0.3001	363.15	19010	687.98	4.42
0.3001	363.15	20000	688.93	4.42
0.4326	313.15	100	726.91	4.65
0.4326	313.15	1000	728.22	4.66
0.4326	313.15	2010	729.1	4.67
0.4326	313.15	3000	730	4.67
0.4326	313.15	4020	730.9	4.68
0.4326	313.15	5020	731.76	4.69
0.4326	313.15	6000	732.64	4.69
0.4326	313.15	7020	733.49	4.7
0.4326	313.15	8010	734.37	4.7
0.4326	313.15	9020	735.2	4.71
0.4326	313.15	10010	736.06	4.72
0.4326	313.15	11020	736.89	4.72
0.4326	313.15	12010	737.71	4.73
0.4326	313.15	13010	738.53	4.73
0.4326	313.15	14010	739.32	4.74
0.4326	313.15	15010	740.1	4.74
0.4326	313.15	16000	740.87	4.75
0.4326	313.15	17020	741.63	4.75
0.4326	313.15	18010	742.38	4.76
0.4326	313.15	19020	743.13	4.77
0.4326	313.15	20000	743.85	4.77
0.4326	323.15	100	717.73	4.6
0.4326	323.15	1010	718.54	4.6
0.4326	323.15	2000	719.49	4.61
0.4326	323.15	3010	720.43	4.61
0.4326	323.15	4010	721.39	4.62
0.4326	323.15	5000	722.33	4.63
0.4326	323.15	6010	723.28	4.63
0.4326	323.15	7000	724.2	4.64
0.4326	323.15	8010	725.12	4.65
0.4326	323.15	9000	726.05	4.65
0.4326	323.15	10000	726.96	4.66
0.4326	323.15	11010	727.85	4.66
0.4326	323.15	12020	728.74	4.67
0.4326	323.15	13020	729.62	4.68
0.4326	323.15	14000	730.47	4.68
0.4326	323.15	15000	731.33	4.69
0.4326	323.15	16010	732.15	4.69
0.4326	323.15	17010	732.96	4.7
0.4326	323.15	18010	733.77	4.71
0.4326	323.15	19000	734.57	4.71
0.4326	323.15	20010	735.37	4.72
0.4326	333.15	100	706.94	4.53
0.4326	333.15	1010	708.03	4.53
0.4326	333.15	2010	709.06	4.54
0.4326	333.15	3010	710.06	4.55
0.4326	333.15	4010	711.1	4.55
0.4326	333.15	5020	712.1	4.56
0.4326	333.15	6010	713.11	4.57
0.4326	333.15	7000	714.11	4.57
0.4326	333.15	8000	715.11	4.58
0.4326	333.15	9010	716.11	4.59
0.4326	333.15	10000	717.1	4.6
0.4326	333.15	11020	718.06	4.6
0.4326	333.15	12000	719.03	4.61
0.4326	333.15	13010	719.98	4.62
0.4326	333.15	14020	720.92	4.62
0.4326	333.15	15010	721.82	4.63
0.4326	333.15	16010	722.73	4.63
0.4326	333.15	17010	723.6	4.64
0.4326	333.15	18000	724.49	4.65
0.4326	333.15	19010	725.32	4.65
0.4326	333.15	20020	726.17	4.66
0.4326	343.15	100	694.55	4.45
0.4326	343.15	1010	696.46	4.46
0.4326	343.15	2020	697.54	4.47
0.4326	343.15	3020	698.61	4.47
0.4326	343.15	4020	699.72	4.48
0.4326	343.15	5000	700.81	4.49
0.4326	343.15	6010	701.9	4.5
0.4326	343.15	7000	702.99	4.5
0.4326	343.15	8020	704.06	4.51
0.4326	343.15	9020	705.14	4.52
0.4326	343.15	10000	706.23	4.53
0.4326	343.15	11010	707.27	4.53
0.4326	343.15	12000	708.34	4.54
0.4326	343.15	13010	709.37	4.55
0.4326	343.15	14000	710.39	4.55
0.4326	343.15	15010	711.38	4.56
0.4326	343.15	16020	712.37	4.57
0.4326	343.15	17000	713.3	4.58
0.4326	343.15	18010	714.25	4.58
0.4326	343.15	19010	715.15	4.59
0.4326	343.15	20010	716.08	4.6
0.4326	353.15	100	680.77	4.36
0.4326	353.15	1020	682.95	4.37
0.4326	353.15	2020	684.1	4.38
0.4326	353.15	3020	685.26	4.39
0.4326	353.15	4000	686.44	4.4
0.4326	353.15	5010	687.63	4.41
0.4326	353.15	6010	688.8	4.41
0.4326	353.15	7010	690	4.42
0.4326	353.15	8010	691.17	4.43
0.4326	353.15	9010	692.36	4.44
0.4326	353.15	10000	693.57	4.45
0.4326	353.15	11010	694.72	4.45
0.4326	353.15	12010	695.89	4.46
0.4326	353.15	13020	697.03	4.47
0.4326	353.15	14020	698.13	4.48
0.4326	353.15	15010	699.22	4.48
0.4326	353.15	16010	700.29	4.49
0.4326	353.15	17000	701.32	4.5
0.4326	353.15	18010	702.35	4.51
0.4326	353.15	19020	703.33	4.51
0.4326	353.15	20000	704.33	4.52
0.4326	363.15	100	666.18	4.27
0.4326	363.15	1020	667.3	4.27
0.4326	363.15	2020	668.51	4.28
0.4326	363.15	3010	669.77	4.29
0.4326	363.15	4020	671.06	4.3
0.4326	363.15	5000	672.31	4.31
0.4326	363.15	6020	673.61	4.32
0.4326	363.15	7020	674.92	4.33
0.4326	363.15	8000	676.22	4.33
0.4326	363.15	9010	677.52	4.34
0.4326	363.15	10020	678.87	4.35
0.4326	363.15	11020	680.14	4.36
0.4326	363.15	12010	681.46	4.37
0.4326	363.15	13010	682.71	4.38
0.4326	363.15	14000	683.94	4.39
0.4326	363.15	15000	685.14	4.4
0.4326	363.15	16000	686.33	4.4
0.4326	363.15	17010	687.43	4.41
0.4326	363.15	18020	688.58	4.42
0.4326	363.15	19000	689.63	4.43
0.4326	363.15	20010	690.72	4.44
0.6863	313.15	100	743.48	4.76
0.6863	313.15	1010	744.97	4.77
0.6863	313.15	2010	745.85	4.78
0.6863	313.15	3010	746.75	4.78
0.6863	313.15	4010	747.62	4.79
0.6863	313.15	5020	748.51	4.79
0.6863	313.15	6000	749.38	4.8
0.6863	313.15	7010	750.25	4.81
0.6863	313.15	8000	751.12	4.81
0.6863	313.15	9010	751.97	4.82
0.6863	313.15	10000	752.81	4.82
0.6863	313.15	11000	753.64	4.83
0.6863	313.15	12010	754.47	4.83
0.6863	313.15	13010	755.3	4.84
0.6863	313.15	14010	756.1	4.84
0.6863	313.15	15000	756.89	4.85
0.6863	313.15	16010	757.68	4.86
0.6863	313.15	17000	758.44	4.86
0.6863	313.15	18010	759.2	4.87
0.6863	313.15	19000	759.95	4.87
0.6863	313.15	20010	760.69	4.88
0.6863	323.15	100	734.39	4.7
0.6863	323.15	1000	735.11	4.71
0.6863	323.15	2020	736.08	4.71
0.6863	323.15	3010	737.03	4.72
0.6863	323.15	4010	737.97	4.73
0.6863	323.15	5020	738.91	4.73
0.6863	323.15	6010	739.85	4.74
0.6863	323.15	7020	740.78	4.74
0.6863	323.15	8020	741.71	4.75
0.6863	323.15	9000	742.63	4.76
0.6863	323.15	10010	743.54	4.76
0.6863	323.15	11010	744.43	4.77
0.6863	323.15	12010	745.32	4.78
0.6863	323.15	13010	746.21	4.78
0.6863	323.15	14000	747.08	4.79
0.6863	323.15	15000	747.92	4.79
0.6863	323.15	16000	748.78	4.8
0.6863	323.15	17000	749.59	4.81
0.6863	323.15	18010	750.41	4.81
0.6863	323.15	19010	751.21	4.82
0.6863	323.15	20020	752	4.82
0.6863	333.15	100	723.34	4.63
0.6863	333.15	1010	724.38	4.64
0.6863	333.15	2000	725.39	4.65
0.6863	333.15	3010	726.41	4.65
0.6863	333.15	4020	727.43	4.66
0.6863	333.15	5010	728.46	4.67
0.6863	333.15	6010	729.45	4.67
0.6863	333.15	7020	730.46	4.68
0.6863	333.15	8010	731.46	4.69
0.6863	333.15	9010	732.47	4.69
0.6863	333.15	10010	733.45	4.7
0.6863	333.15	11010	734.43	4.71
0.6863	333.15	12010	735.38	4.71
0.6863	333.15	13010	736.35	4.72
0.6863	333.15	14020	737.27	4.73
0.6863	333.15	15010	738.18	4.73
0.6863	333.15	16010	739.1	4.74
0.6863	333.15	17000	740	4.74
0.6863	333.15	18000	740.88	4.75
0.6863	333.15	19010	741.72	4.76
0.6863	333.15	20010	742.58	4.76
0.6863	343.15	100	710.6	4.55
0.6863	343.15	1010	712.46	4.56
0.6863	343.15	2000	713.55	4.57
0.6863	343.15	3020	714.64	4.58
0.6863	343.15	4000	715.75	4.58
0.6863	343.15	5010	716.84	4.59
0.6863	343.15	6010	717.93	4.6
0.6863	343.15	7010	719.02	4.61
0.6863	343.15	8010	720.12	4.61
0.6863	343.15	9020	721.21	4.62
0.6863	343.15	10010	722.27	4.63
0.6863	343.15	11020	723.34	4.64
0.6863	343.15	12020	724.37	4.64
0.6863	343.15	13000	725.42	4.65
0.6863	343.15	14000	726.44	4.66
0.6863	343.15	15000	727.44	4.66
0.6863	343.15	16000	728.43	4.67
0.6863	343.15	17010	729.39	4.68
0.6863	343.15	18000	730.34	4.68
0.6863	343.15	19010	731.24	4.69
0.6863	343.15	20010	732.18	4.7
0.6863	353.15	100	696.41	4.46
0.6863	353.15	1010	698.52	4.47
0.6863	353.15	2010	699.68	4.48
0.6863	353.15	3010	700.85	4.49
0.6863	353.15	4010	702.05	4.5
0.6863	353.15	5020	703.25	4.51
0.6863	353.15	6000	704.42	4.51
0.6863	353.15	7020	705.63	4.52
0.6863	353.15	8010	706.82	4.53
0.6863	353.15	9000	708.03	4.54
0.6863	353.15	10000	709.2	4.55
0.6863	353.15	11000	710.38	4.55
0.6863	353.15	12010	711.53	4.56
0.6863	353.15	13020	712.69	4.57
0.6863	353.15	14020	713.81	4.58
0.6863	353.15	15010	714.9	4.58
0.6863	353.15	16010	715.98	4.59
0.6863	353.15	17010	717.03	4.6
0.6863	353.15	18010	718.05	4.61
0.6863	353.15	19020	719.04	4.61
0.6863	353.15	20000	720.06	4.62
0.6863	363.15	100	680.95	4.36
0.6863	363.15	1010	682.3	4.37
0.6863	363.15	2000	683.55	4.38
0.6863	363.15	3010	684.83	4.39
0.6863	363.15	4010	686.13	4.4
0.6863	363.15	5020	687.44	4.4
0.6863	363.15	6020	688.73	4.41
0.6863	363.15	7010	690.06	4.42
0.6863	363.15	8000	691.39	4.43
0.6863	363.15	9000	692.72	4.44
0.6863	363.15	10010	694.02	4.45
0.6863	363.15	11010	695.33	4.46
0.6863	363.15	12010	696.59	4.47
0.6863	363.15	13010	697.91	4.48
0.6863	363.15	14020	699.14	4.48
0.6863	363.15	15000	700.32	4.49
0.6863	363.15	16020	701.55	4.5
0.6863	363.15	17020	702.7	4.51
0.6863	363.15	18010	703.81	4.52
0.6863	363.15	19020	704.89	4.52
0.6863	363.15	20010	706	4.54
0.8711	313.15	100	764.1	4.89
0.8711	313.15	1010	765.33	4.9
0.8711	313.15	2000	766.21	4.91
0.8711	313.15	3020	767.09	4.91
0.8711	313.15	4010	767.96	4.92
0.8711	313.15	5020	768.83	4.92
0.8711	313.15	6010	769.69	4.93
0.8711	313.15	7020	770.55	4.93
0.8711	313.15	8010	771.39	4.94
0.8711	313.15	9020	772.23	4.95
0.8711	313.15	10020	773.07	4.95
0.8711	313.15	11010	773.9	4.96
0.8711	313.15	12000	774.72	4.96
0.8711	313.15	13000	775.51	4.97
0.8711	313.15	14020	776.33	4.97
0.8711	313.15	15020	777.12	4.98
0.8711	313.15	16010	777.89	4.98
0.8711	313.15	17020	778.66	4.99
0.8711	313.15	18010	779.44	4.99
0.8711	313.15	19020	780.17	5
0.8711	313.15	20020	780.91	5
0.8711	323.15	100	755.13	4.83
0.8711	323.15	1020	755.79	4.84
0.8711	323.15	2020	756.71	4.84
0.8711	323.15	3000	757.64	4.85
0.8711	323.15	4020	758.56	4.86
0.8711	323.15	5000	759.48	4.86
0.8711	323.15	6010	760.42	4.87
0.8711	323.15	7010	761.33	4.88
0.8711	323.15	8010	762.24	4.88
0.8711	323.15	9000	763.15	4.89
0.8711	323.15	10020	764.05	4.89
0.8711	323.15	11020	764.93	4.9
0.8711	323.15	12020	765.79	4.91
0.8711	323.15	13020	766.65	4.91
0.8711	323.15	14020	767.51	4.92
0.8711	323.15	15000	768.36	4.92
0.8711	323.15	16000	769.18	4.93
0.8711	323.15	17010	770.01	4.93
0.8711	323.15	18010	770.81	4.94
0.8711	323.15	19010	771.61	4.95
0.8711	323.15	20010	772.39	4.95
0.8711	333.15	100	744.53	4.77
0.8711	333.15	1000	745.47	4.77
0.8711	333.15	2020	746.44	4.78
0.8711	333.15	3010	747.43	4.79
0.8711	333.15	4010	748.4	4.79
0.8711	333.15	5020	749.4	4.8
0.8711	333.15	6020	750.38	4.81
0.8711	333.15	7000	751.38	4.81
0.8711	333.15	8020	752.35	4.82
0.8711	333.15	9010	753.31	4.83
0.8711	333.15	10020	754.28	4.83
0.8711	333.15	11020	755.24	4.84
0.8711	333.15	12020	756.17	4.84
0.8711	333.15	13000	757.09	4.85
0.8711	333.15	14000	758.02	4.86
0.8711	333.15	15010	758.93	4.86
0.8711	333.15	16020	759.81	4.87
0.8711	333.15	17000	760.7	4.88
0.8711	333.15	18020	761.56	4.88
0.8711	333.15	19020	762.39	4.89
0.8711	333.15	20010	763.23	4.89
0.8711	343.15	100	732.51	4.69
0.8711	343.15	1010	734.14	4.7
0.8711	343.15	2020	735.16	4.71
0.8711	343.15	3010	736.2	4.71
0.8711	343.15	4000	737.27	4.72
0.8711	343.15	5020	738.33	4.73
0.8711	343.15	6010	739.41	4.74
0.8711	343.15	7000	740.46	4.74
0.8711	343.15	8000	741.52	4.75
0.8711	343.15	9010	742.57	4.76
0.8711	343.15	10010	743.61	4.76
0.8711	343.15	11010	744.65	4.77
0.8711	343.15	12000	745.65	4.78
0.8711	343.15	13000	746.64	4.78
0.8711	343.15	14000	747.65	4.79
0.8711	343.15	15010	748.62	4.8
0.8711	343.15	16000	749.58	4.8
0.8711	343.15	17010	750.52	4.81
0.8711	343.15	18010	751.45	4.82
0.8711	343.15	19010	752.35	4.82
0.8711	343.15	20000	753.23	4.83
0.8711	353.15	100	719.28	4.61
0.8711	353.15	1000	721.12	4.62
0.8711	353.15	2010	722.21	4.62
0.8711	353.15	3020	723.32	4.63
0.8711	353.15	4020	724.45	4.64
0.8711	353.15	5000	725.63	4.65
0.8711	353.15	6020	726.78	4.66
0.8711	353.15	7020	727.93	4.66
0.8711	353.15	8010	729.07	4.67
0.8711	353.15	9010	730.22	4.68
0.8711	353.15	10010	731.37	4.69
0.8711	353.15	11020	732.51	4.69
0.8711	353.15	12010	733.61	4.7
0.8711	353.15	13000	734.68	4.71
0.8711	353.15	14020	735.8	4.72
0.8711	353.15	15010	736.86	4.72
0.8711	353.15	16020	737.89	4.73
0.8711	353.15	17020	738.93	4.74
0.8711	353.15	18020	739.92	4.74
0.8711	353.15	19020	740.89	4.75
0.8711	353.15	20000	741.82	4.76
0.8711	363.15	100	705.01	4.51
0.8711	363.15	1010	706.22	4.52
0.8711	363.15	2000	707.37	4.53
0.8711	363.15	3020	708.57	4.54
0.8711	363.15	4010	709.79	4.55
0.8711	363.15	5010	711.06	4.55
0.8711	363.15	6010	712.33	4.56
0.8711	363.15	7020	713.62	4.57
0.8711	363.15	8020	714.86	4.58
0.8711	363.15	9020	716.13	4.59
0.8711	363.15	10010	717.4	4.6
0.8711	363.15	11020	718.66	4.61
0.8711	363.15	12010	719.87	4.61
0.8711	363.15	13020	721.04	4.62
0.8711	363.15	14020	722.27	4.63
0.8711	363.15	15010	723.44	4.64
0.8711	363.15	16010	724.56	4.65
0.8711	363.15	17020	725.68	4.65
0.8711	363.15	18010	726.78	4.66
0.8711	363.15	19000	727.82	4.67
0.8711	363.15	20000	728.82	4.68
