Measured thermophysical data. Stable Phase Diagram of Quaternary Water-Salt System Li+, Na+, Cs+//SO42--H2O at T = 298.2 K
Source: J. Chem. Eng. Data, 2019, 10.1021/acs.jced.8b01115
Compound 1: lithium sulfate, Li2O4S, InChI=1S/2Li.H2O4S/c;;1-5(2,3)4/h;;(H2,1,2,3,4)/q2*+1;/p-2, purity 99.9%
Compound 2: sodium sulfate, Na2O4S, InChI=1S/2Na.H2O4S/c;;1-5(2,3)4/h;;(H2,1,2,3,4)/q2*+1;/p-2, purity 99.9%
Compound 3: cesium sulfate, Cs2O4S, InChI=1S/2Cs.H2O4S/c;;1-5(2,3)4/h;;(H2,1,2,3,4)/q2*+1;/p-2, purity 99.9%
Compound 4: water, H2O, InChI=1S/H2O/h1H2, purity 99.9%

System: lithium sulfate + sodium sulfate + water; phases: Liquid, Crystal of intercomponent compound 1
Fixed: Temperature, K = 298.2
Fixed: Pressure, kPa = 100
Property: Mass fraction of sodium sulfate (Liquid); method: spectroscopy and titration
Mass fraction of lithium sulfate	Mass fraction of sodium sulfate	uncertainty
0.2162	0.1255	0.0023
0.0775	0.2442	0.0026

System: lithium sulfate + sodium sulfate + water; phases: Liquid, Crystal of intercomponent compound 2
Property: Mass fraction of sodium sulfate (Liquid); method: spectroscopy and titration
Mass fraction of lithium sulfate	Temperature, K	Pressure, kPa	Mass fraction of sodium sulfate	uncertainty
0.2162	298.2	100	0.1255	0.0013

System: lithium sulfate + sodium sulfate + water; phases: Liquid
Fixed: Temperature, K = 298.2
Fixed: Pressure, kPa = 100
Property: Mass density, kg/m3 (Liquid); method: Pycnometric method
Mass fraction of lithium sulfate	Mass fraction of sodium sulfate	Mass density, kg/m3	uncertainty
0.2162	0.1255	1313.1	1.1
0.0775	0.2442	1284.6	1.1

System: lithium sulfate + sodium sulfate + water; phases: Liquid
Fixed: Temperature, K = 298.2
Fixed: Pressure, kPa = 100
Property: Refractive index (Na D-line) (Liquid); method: Standard Abbe refractometry
Mass fraction of lithium sulfate	Mass fraction of sodium sulfate	Refractive index (Na D-line)	uncertainty
0.2162	0.1255	1.3839	0.0004
0.0775	0.2442	1.3758	0.0004

System: lithium sulfate + sodium sulfate + water; phases: Liquid, Crystal of intercomponent compound 3
Property: Mass fraction of sodium sulfate (Liquid); method: spectroscopy and titration
Mass fraction of lithium sulfate	Temperature, K	Pressure, kPa	Mass fraction of sodium sulfate	uncertainty
0.0775	298.2	100	0.2442	0.0025

System: lithium sulfate + cesium sulfate + water; phases: Liquid, Crystal of intercomponent compound 2
Property: Mass fraction of cesium sulfate (Liquid); method: spectroscopy and titration
Mass fraction of lithium sulfate	Temperature, K	Pressure, kPa	Mass fraction of cesium sulfate	uncertainty
0.1779	298.2	100	0.088	0.0009

System: lithium sulfate + cesium sulfate + water; phases: Liquid, Crystal of intercomponent compound 1
Fixed: Temperature, K = 298.2
Fixed: Pressure, kPa = 100
Property: Mass fraction of cesium sulfate (Liquid); method: spectroscopy and titration
Mass fraction of lithium sulfate	Mass fraction of cesium sulfate	uncertainty
0.1779	0.088	0.0047
0.1229	0.232	0.004

System: lithium sulfate + cesium sulfate + water; phases: Liquid
Fixed: Temperature, K = 298.2
Fixed: Pressure, kPa = 100
Property: Mass density, kg/m3 (Liquid); method: Pycnometric method
Mass fraction of lithium sulfate	Mass fraction of cesium sulfate	Mass density, kg/m3	uncertainty
0.1779	0.088	1218.5	5.1
0.1229	0.232	1372.7	3.6
0.0076	0.6531	2004.3	1.7

System: lithium sulfate + cesium sulfate + water; phases: Liquid
Fixed: Temperature, K = 298.2
Fixed: Pressure, kPa = 100
Property: Refractive index (Na D-line) (Liquid); method: Standard Abbe refractometry
Mass fraction of lithium sulfate	Mass fraction of cesium sulfate	Refractive index (Na D-line)	uncertainty
0.1779	0.088	1.3675	0.0005
0.1229	0.232	1.3765	0.0005
0.0076	0.6531	1.4115	0.0004

System: lithium sulfate + cesium sulfate + water; phases: Liquid, Crystal of intercomponent compound 3
Fixed: Temperature, K = 298.2
Fixed: Pressure, kPa = 100
Property: Mass fraction of cesium sulfate (Liquid); method: spectroscopy and titration
Mass fraction of lithium sulfate	Mass fraction of cesium sulfate	uncertainty
0.1229	0.232	0.0051
0.0076	0.6531	0.0037

System: lithium sulfate + cesium sulfate + water; phases: Liquid, Crystal
Property: Mass fraction of cesium sulfate (Liquid); method: spectroscopy and titration
Mass fraction of lithium sulfate	Temperature, K	Pressure, kPa	Mass fraction of cesium sulfate	uncertainty
0.0076	298.2	100	0.6531	0.0037

System: sodium sulfate + cesium sulfate + water; phases: Liquid, Crystal of intercomponent compound 1
Property: Mass fraction of cesium sulfate (Liquid); method: spectroscopy and titration
Mass fraction of sodium sulfate	Temperature, K	Pressure, kPa	Mass fraction of cesium sulfate	uncertainty
0.1942	298.2	100	0.2302	0.0024

System: sodium sulfate + cesium sulfate + water; phases: Liquid, Crystal
Fixed: Temperature, K = 298.2
Fixed: Pressure, kPa = 100
Property: Mass fraction of cesium sulfate (Liquid); method: spectroscopy and titration
Mass fraction of sodium sulfate	Mass fraction of cesium sulfate	uncertainty
0.1942	0.2302	0.0087
0.1289	0.5129	0.0075

System: sodium sulfate + cesium sulfate + water; phases: Liquid, Crystal
Property: Mass fraction of cesium sulfate (Liquid); method: spectroscopy and titration
Mass fraction of sodium sulfate	Temperature, K	Pressure, kPa	Mass fraction of cesium sulfate	uncertainty
0.1289	298.2	100	0.5129	0.005

System: sodium sulfate + cesium sulfate + water; phases: Liquid
Fixed: Temperature, K = 298.2
Fixed: Pressure, kPa = 100
Property: Mass density, kg/m3 (Liquid); method: Pycnometric method
Mass fraction of sodium sulfate	Mass fraction of cesium sulfate	Mass density, kg/m3	uncertainty
0.1942	0.2302	1624.2	12.7
0.1289	0.5129	2048.2	8.6

System: sodium sulfate + cesium sulfate + water; phases: Liquid
Fixed: Temperature, K = 298.2
Fixed: Pressure, kPa = 100
Property: Refractive index (Na D-line) (Liquid); method: Standard Abbe refractometry
Mass fraction of sodium sulfate	Mass fraction of cesium sulfate	Refractive index (Na D-line)	uncertainty
0.1942	0.2302	1.396	0.0008
0.1289	0.5129	1.4169	0.0006
