Measured thermophysical data. Thermodynamic Solubility of Gatifloxacin in Nonaqueous Solvent Mixtures of N,N-Dimethylformamide Plus Isopropanol/Methanol/n-Propanol/Ethanol
Source: J. Chem. Eng. Data, 2019, 10.1021/acs.jced.9b00930
Compound 1: gatifloxacin, C19H22FN3O4, InChI=1S/C19H22FN3O4/c1-10-8-22(6-5-21-10)16-14(20)7-12-15(18(16)27-2)23(11-3-4-11)9-13(17(12)24)19(25)26/h7,9-11,21H,3-6,8H2,1-2H3,(H,25,26), purity 99.7%
Compound 2: propan-2-ol, C3H8O, InChI=1S/C3H8O/c1-3(2)4/h3-4H,1-2H3, purity 99.4%
Compound 3: dimethylformamide, C3H7NO, InChI=1S/C3H7NO/c1-4(2)3-5/h3H,1-2H3, purity 99.6%
Compound 4: methanol, CH4O, InChI=1S/CH4O/c1-2/h2H,1H3, purity 99.5%
Compound 5: ethanol, C2H6O, InChI=1S/C2H6O/c1-2-3/h3H,2H2,1H3, purity 99.5%
Compound 6: propan-1-ol, C3H8O, InChI=1S/C3H8O/c1-2-3-4/h4H,2-3H2,1H3, purity 99.6%

System: gatifloxacin + dimethylformamide + methanol; phases: Liquid, Crystal
Fixed: Pressure, kPa = 101.1
Property: Mole fraction of gatifloxacin (Liquid); method: Chromatography
Temperature, K	Solvent: Mass fraction of dimethylformamide	Mole fraction of gatifloxacin	uncertainty
273.15	0.1	0.0002442	1.76e-05
278.15	0.1	0.0003111	2.24e-05
283.15	0.1	0.0003718	2.68e-05
288.15	0.1	0.0004695	3.39e-05
293.15	0.1	0.0005487	3.96e-05
298.15	0.1	0.0006537	4.72e-05
303.15	0.1	0.0008067	5.82e-05
308.15	0.1	0.0009384	6.77e-05
313.15	0.1	0.001151	8.3e-05
318.15	0.1	0.001424	0.000103
273.15	0.2	0.0003232	2.33e-05
278.15	0.2	0.0003985	2.88e-05
283.15	0.2	0.0004849	3.5e-05
288.15	0.2	0.000586	4.23e-05
293.15	0.2	0.0007058	5.09e-05
298.15	0.2	0.0008577	6.19e-05
303.15	0.2	0.001006	7.3e-05
308.15	0.2	0.001196	8.6e-05
313.15	0.2	0.001467	0.000106
318.15	0.2	0.001722	0.000124
273.15	0.3	0.0004153	3e-05
278.15	0.3	0.0005159	3.72e-05
283.15	0.3	0.0006166	4.45e-05
288.15	0.3	0.000723	5.21e-05
293.15	0.3	0.000887	6.4e-05
298.15	0.3	0.001035	7.5e-05
303.15	0.3	0.00125	9e-05
308.15	0.3	0.00148	0.000107
313.15	0.3	0.001832	0.000132
318.15	0.3	0.00218	0.000157
273.15	0.4	0.0005416	3.91e-05
278.15	0.4	0.0006895	4.97e-05
283.15	0.4	0.0008008	5.77e-05
288.15	0.4	0.0009172	6.62e-05
293.15	0.4	0.001141	8.2e-05
298.15	0.4	0.001327	9.6e-05
303.15	0.4	0.001627	0.000117
308.15	0.4	0.001915	0.000138
313.15	0.4	0.002341	0.000169
318.15	0.4	0.002746	0.000198
273.15	0.5	0.0007064	5.09e-05
278.15	0.5	0.000854	6.16e-05
283.15	0.5	0.0009902	7.14e-05
288.15	0.5	0.001182	8.5e-05
293.15	0.5	0.001392	0.0001
298.15	0.5	0.001664	0.00012
303.15	0.5	0.001971	0.000142
308.15	0.5	0.002439	0.000176
313.15	0.5	0.002944	0.000212
318.15	0.5	0.003441	0.000248
273.15	0.6	0.000935	6.74e-05
278.15	0.6	0.001106	8e-05
283.15	0.6	0.001256	9.1e-05
288.15	0.6	0.001505	0.000109
293.15	0.6	0.001838	0.000133
298.15	0.6	0.002139	0.000154
303.15	0.6	0.002615	0.000189
308.15	0.6	0.003064	0.000221
313.15	0.6	0.003761	0.000271
318.15	0.6	0.004382	0.000316
273.15	0.7	0.001184	8.5e-05
278.15	0.7	0.001424	0.000103
283.15	0.7	0.001626	0.000117
288.15	0.7	0.001877	0.000135
293.15	0.7	0.002331	0.000168
298.15	0.7	0.002713	0.000196
303.15	0.7	0.003209	0.000231
308.15	0.7	0.003939	0.000284
313.15	0.7	0.004736	0.000341
318.15	0.7	0.005489	0.000396
273.15	0.8	0.001544	0.000111
278.15	0.8	0.001789	0.000129
283.15	0.8	0.00212	0.000153
288.15	0.8	0.002448	0.000177
293.15	0.8	0.002993	0.000216
298.15	0.8	0.003461	0.00025
303.15	0.8	0.004165	0.0003
308.15	0.8	0.004911	0.000354
313.15	0.8	0.005864	0.000423
318.15	0.8	0.006821	0.000492
273.15	0.9	0.001984	0.000143
278.15	0.9	0.002298	0.000166
283.15	0.9	0.002725	0.000196
288.15	0.9	0.003146	0.000227
293.15	0.9	0.003754	0.000271
298.15	0.9	0.00439	0.000317
303.15	0.9	0.005141	0.000371
308.15	0.9	0.006056	0.000437
313.15	0.9	0.007195	0.000519
318.15	0.9	0.008304	0.000599

System: gatifloxacin + dimethylformamide + ethanol; phases: Liquid, Crystal
Fixed: Pressure, kPa = 101.1
Property: Mole fraction of gatifloxacin (Liquid); method: Chromatography
Temperature, K	Solvent: Mass fraction of dimethylformamide	Mole fraction of gatifloxacin	uncertainty
273.15	0.1	0.0003208	2.32e-05
278.15	0.1	0.0004062	2.93e-05
283.15	0.1	0.0004843	3.49e-05
288.15	0.1	0.000572	4.13e-05
293.15	0.1	0.0007141	5.15e-05
298.15	0.1	0.0008452	6.1e-05
303.15	0.1	0.001011	7.3e-05
308.15	0.1	0.001224	8.8e-05
313.15	0.1	0.001488	0.000107
318.15	0.1	0.001811	0.000131
273.15	0.2	0.0003986	2.87e-05
278.15	0.2	0.0004803	3.46e-05
283.15	0.2	0.0005726	4.13e-05
288.15	0.2	0.0007148	5.16e-05
293.15	0.2	0.000859	6.2e-05
298.15	0.2	0.001043	7.5e-05
303.15	0.2	0.001233	8.9e-05
308.15	0.2	0.00151	0.000109
313.15	0.2	0.001797	0.00013
318.15	0.2	0.002134	0.000154
273.15	0.3	0.0005068	3.65e-05
278.15	0.3	0.0006086	4.39e-05
283.15	0.3	0.0007384	5.33e-05
288.15	0.3	0.0008819	6.36e-05
293.15	0.3	0.001088	7.8e-05
298.15	0.3	0.001287	9.3e-05
303.15	0.3	0.001543	0.000111
308.15	0.3	0.001834	0.000132
313.15	0.3	0.002203	0.000159
318.15	0.3	0.00268	0.000193
273.15	0.4	0.0006605	4.76e-05
278.15	0.4	0.0007775	5.61e-05
283.15	0.4	0.0009107	6.57e-05
288.15	0.4	0.001089	7.9e-05
293.15	0.4	0.001305	9.4e-05
298.15	0.4	0.001606	0.000116
303.15	0.4	0.001907	0.000138
308.15	0.4	0.00228	0.000164
313.15	0.4	0.002714	0.000196
318.15	0.4	0.00322	0.000232
273.15	0.5	0.0008517	6.14e-05
278.15	0.5	0.0009963	7.18e-05
283.15	0.5	0.001189	8.6e-05
288.15	0.5	0.001411	0.000102
293.15	0.5	0.001668	0.00012
298.15	0.5	0.002003	0.000144
303.15	0.5	0.002323	0.000168
308.15	0.5	0.002775	0.0002
313.15	0.5	0.003346	0.000241
318.15	0.5	0.003985	0.000287
273.15	0.6	0.001053	7.6e-05
278.15	0.6	0.00122	8.8e-05
283.15	0.6	0.001468	0.000106
288.15	0.6	0.001715	0.000124
293.15	0.6	0.002046	0.000148
298.15	0.6	0.00246	0.000177
303.15	0.6	0.002809	0.000203
308.15	0.6	0.003349	0.000242
313.15	0.6	0.004	0.000288
318.15	0.6	0.004777	0.000345
273.15	0.7	0.001334	9.6e-05
278.15	0.7	0.001556	0.000112
283.15	0.7	0.001816	0.000131
288.15	0.7	0.002172	0.000157
293.15	0.7	0.00257	0.000185
298.15	0.7	0.00302	0.000218
303.15	0.7	0.003461	0.00025
308.15	0.7	0.004169	0.000301
313.15	0.7	0.005003	0.000361
318.15	0.7	0.005897	0.000425
273.15	0.8	0.001728	0.000125
278.15	0.8	0.001958	0.000141
283.15	0.8	0.002228	0.000161
288.15	0.8	0.002693	0.000194
293.15	0.8	0.003071	0.000221
298.15	0.8	0.003639	0.000262
303.15	0.8	0.004225	0.000305
308.15	0.8	0.005051	0.000364
313.15	0.8	0.006055	0.000437
318.15	0.8	0.007276	0.000525
273.15	0.9	0.002152	0.000155
278.15	0.9	0.00249	0.000179
283.15	0.9	0.002834	0.000204
288.15	0.9	0.003395	0.000245
293.15	0.9	0.003893	0.000281
298.15	0.9	0.004595	0.000331
303.15	0.9	0.005192	0.000374
308.15	0.9	0.006077	0.000438
313.15	0.9	0.007277	0.000525
318.15	0.9	0.008566	0.000618

System: gatifloxacin + dimethylformamide + propan-1-ol; phases: Liquid, Crystal
Fixed: Pressure, kPa = 101.1
Property: Mole fraction of gatifloxacin (Liquid); method: Chromatography
Temperature, K	Solvent: Mass fraction of dimethylformamide	Mole fraction of gatifloxacin	uncertainty
273.15	0.1	0.0004657	3.36e-05
278.15	0.1	0.0005547	4e-05
283.15	0.1	0.0006439	4.64e-05
288.15	0.1	0.0007716	5.56e-05
293.15	0.1	0.0009165	6.61e-05
298.15	0.1	0.001115	8e-05
303.15	0.1	0.001304	9.4e-05
308.15	0.1	0.001549	0.000112
313.15	0.1	0.001825	0.000132
318.15	0.1	0.002201	0.000159
273.15	0.2	0.0005739	4.14e-05
278.15	0.2	0.0006844	4.93e-05
283.15	0.2	0.0007912	5.71e-05
288.15	0.2	0.0009634	6.95e-05
293.15	0.2	0.001109	8e-05
298.15	0.2	0.001307	9.4e-05
303.15	0.2	0.00152	0.00011
308.15	0.2	0.001809	0.00013
313.15	0.2	0.002108	0.000152
318.15	0.2	0.002585	0.000187
273.15	0.3	0.0007073	5.1e-05
278.15	0.3	0.0008136	5.87e-05
283.15	0.3	0.0009948	7.17e-05
288.15	0.3	0.001136	8.2e-05
293.15	0.3	0.001359	9.8e-05
298.15	0.3	0.001555	0.000112
303.15	0.3	0.001877	0.000135
308.15	0.3	0.002194	0.000158
313.15	0.3	0.002582	0.000186
318.15	0.3	0.003126	0.000225
273.15	0.4	0.0008823	6.36e-05
278.15	0.4	0.00104	7.5e-05
283.15	0.4	0.001193	8.6e-05
288.15	0.4	0.001392	0.0001
293.15	0.4	0.001668	0.00012
298.15	0.4	0.00187	0.000135
303.15	0.4	0.002241	0.000162
308.15	0.4	0.002575	0.000186
313.15	0.4	0.003049	0.00022
318.15	0.4	0.003709	0.000268
273.15	0.5	0.001063	7.7e-05
278.15	0.5	0.00125	9e-05
283.15	0.5	0.001439	0.000104
288.15	0.5	0.001667	0.00012
293.15	0.5	0.001936	0.00014
298.15	0.5	0.002236	0.000161
303.15	0.5	0.002645	0.000191
308.15	0.5	0.003025	0.000218
313.15	0.5	0.003542	0.000255
318.15	0.5	0.004353	0.000314
273.15	0.6	0.00129	9.3e-05
278.15	0.6	0.00149	0.000107
283.15	0.6	0.001735	0.000125
288.15	0.6	0.001981	0.000143
293.15	0.6	0.002327	0.000168
298.15	0.6	0.002723	0.000196
303.15	0.6	0.003189	0.00023
308.15	0.6	0.003683	0.000266
313.15	0.6	0.004348	0.000314
318.15	0.6	0.00518	0.000374
273.15	0.7	0.001555	0.000112
278.15	0.7	0.001793	0.000129
283.15	0.7	0.002046	0.000147
288.15	0.7	0.002365	0.000171
293.15	0.7	0.0028	0.000202
298.15	0.7	0.003228	0.000233
303.15	0.7	0.003795	0.000274
308.15	0.7	0.004463	0.000322
313.15	0.7	0.005279	0.000381
318.15	0.7	0.00627	0.000452
273.15	0.8	0.001846	0.000133
278.15	0.8	0.002125	0.000153
283.15	0.8	0.002447	0.000176
288.15	0.8	0.002843	0.000205
293.15	0.8	0.003417	0.000246
298.15	0.8	0.004034	0.000291
303.15	0.8	0.004762	0.000343
308.15	0.8	0.005495	0.000396
313.15	0.8	0.006358	0.000458
318.15	0.8	0.007597	0.000548
273.15	0.9	0.002192	0.000158
278.15	0.9	0.002516	0.000181
283.15	0.9	0.002909	0.00021
288.15	0.9	0.003376	0.000243
293.15	0.9	0.00397	0.000286
298.15	0.9	0.004654	0.000336
303.15	0.9	0.005456	0.000393
308.15	0.9	0.006333	0.000457
313.15	0.9	0.007336	0.000529
318.15	0.9	0.008756	0.000631

System: gatifloxacin + dimethylformamide + propan-2-ol; phases: Liquid, Crystal
Fixed: Pressure, kPa = 101.1
Property: Mole fraction of gatifloxacin (Liquid); method: Chromatography
Temperature, K	Solvent: Mass fraction of dimethylformamide	Mole fraction of gatifloxacin	uncertainty
273.15	0.1	0.0001771	1.28e-05
278.15	0.1	0.0002324	1.68e-05
283.15	0.1	0.0002791	2.01e-05
288.15	0.1	0.0003506	2.53e-05
293.15	0.1	0.0004239	3.06e-05
298.15	0.1	0.0005309	3.83e-05
303.15	0.1	0.0006362	4.59e-05
308.15	0.1	0.0007967	5.75e-05
313.15	0.1	0.0009988	7.21e-05
318.15	0.1	0.001236	8.9e-05
273.15	0.2	0.0002343	1.69e-05
278.15	0.2	0.0002955	2.13e-05
283.15	0.2	0.0003656	2.64e-05
288.15	0.2	0.0004456	3.22e-05
293.15	0.2	0.0005586	4.03e-05
298.15	0.2	0.0006695	4.83e-05
303.15	0.2	0.0008276	5.97e-05
308.15	0.2	0.00102	7.4e-05
313.15	0.2	0.001228	8.9e-05
318.15	0.2	0.001552	0.000112
273.15	0.3	0.0003233	2.34e-05
278.15	0.3	0.0004214	3.04e-05
283.15	0.3	0.000492	3.55e-05
288.15	0.3	0.0006205	4.48e-05
293.15	0.3	0.0007384	5.33e-05
298.15	0.3	0.0008965	6.47e-05
303.15	0.3	0.001074	7.7e-05
308.15	0.3	0.001304	9.4e-05
313.15	0.3	0.001548	0.000112
318.15	0.3	0.001948	0.000141
273.15	0.4	0.0004421	3.19e-05
278.15	0.4	0.0005492	3.96e-05
283.15	0.4	0.0006906	4.98e-05
288.15	0.4	0.0008072	5.82e-05
293.15	0.4	0.0009819	7.08e-05
298.15	0.4	0.00115	8.3e-05
303.15	0.4	0.001385	0.0001
308.15	0.4	0.00167	0.00012
313.15	0.4	0.00206	0.000149
318.15	0.4	0.002491	0.00018
273.15	0.5	0.0006034	4.35e-05
278.15	0.5	0.0007526	5.43e-05
283.15	0.5	0.0008761	6.32e-05
288.15	0.5	0.001075	7.8e-05
293.15	0.5	0.001257	9.1e-05
298.15	0.5	0.001531	0.00011
303.15	0.5	0.001777	0.000128
308.15	0.5	0.002192	0.000158
313.15	0.5	0.002653	0.000191
318.15	0.5	0.00325	0.000234
273.15	0.6	0.0008351	6.02e-05
278.15	0.6	0.001023	7.4e-05
283.15	0.6	0.00124	8.9e-05
288.15	0.6	0.001442	0.000104
293.15	0.6	0.001761	0.000127
298.15	0.6	0.002011	0.000145
303.15	0.6	0.00242	0.000175
308.15	0.6	0.002846	0.000205
313.15	0.6	0.0034	0.000245
318.15	0.6	0.004157	0.0003
273.15	0.7	0.001124	8.1e-05
278.15	0.7	0.001329	9.6e-05
283.15	0.7	0.001648	0.000119
288.15	0.7	0.00195	0.000141
293.15	0.7	0.002313	0.000167
298.15	0.7	0.002677	0.000193
303.15	0.7	0.003073	0.000222
308.15	0.7	0.003661	0.000264
313.15	0.7	0.004262	0.000307
318.15	0.7	0.005232	0.000378
273.15	0.8	0.001487	0.000107
278.15	0.8	0.001748	0.000126
283.15	0.8	0.002062	0.000149
288.15	0.8	0.002466	0.000178
293.15	0.8	0.002883	0.000208
298.15	0.8	0.003397	0.000245
303.15	0.8	0.00401	0.000289
308.15	0.8	0.004772	0.000344
313.15	0.8	0.005651	0.000408
318.15	0.8	0.006833	0.000493
273.15	0.9	0.001962	0.000142
278.15	0.9	0.00232	0.000167
283.15	0.9	0.002781	0.000201
288.15	0.9	0.00317	0.000229
293.15	0.9	0.003833	0.000276
298.15	0.9	0.004436	0.00032
303.15	0.9	0.005206	0.000375
308.15	0.9	0.006226	0.000449
313.15	0.9	0.007292	0.000526
318.15	0.9	0.008523	0.000614
