Measured thermophysical data. Measurements of PvT Properties, Saturated Densities, and Critical Parameters for 3,3,3-Trifluoropropene (HFO1243zf)
Source: J. Chem. Eng. Data, 2018, 10.1021/acs.jced.8b00452
Compound 1: 1,1,1-trifluoro-2-propene, C3H3F3, InChI=1S/C3H3F3/c1-2-3(4,5)6/h2H,1H2

System: 1,1,1-trifluoro-2-propene; phases: Gas
Property: Mass density, kg/m3 (Gas); method: ISOCHOR
Temperature, K	Pressure, kPa	Mass density, kg/m3	uncertainty
330	1111.5	50	0.2
340	1167.6	49.9	0.1
350	1222.4	49.9	0.1
360	1276.2	49.9	0.1
370	1329.2	49.9	0.1
380	1381.9	49.9	0.1
390	1433.6	49.9	0.1
400	1484.4	49.8	0.1
410	1534.9	49.8	0.1
420	1584.7	49.7	0.1
430	1633.5	49.7	0.1
355	2036.4	99.8	0.2
360	2101.2	99.8	0.2
370	2227.8	99.8	0.2
380	2351.3	99.8	0.2
390	2472.5	99.7	0.2
400	2591.1	99.7	0.2
410	2708	99.6	0.2
420	2823	99.5	0.2
430	2936	99.3	0.2
380	3350.9	199.9	0.4
385	3499.4	199.9	0.5
390	3645.5	199.8	0.4
395	3789.8	199.8	0.4
400	3931.9	199.7	0.3
405	4073	199.7	0.3
410	4212.5	199.6	0.3
415	4350.8	199.5	0.3
420	4487.8	199.4	0.3
425	4623.8	199.2	0.3
430	4758.7	199.1	0.3
379	3659.3	408.6	0.9
380	3727.7	408.6	0.8
385	4070.4	408.5	0.7
390	4415.7	408.4	0.7
395	4762.2	408.3	0.7
400	5109.3	408.2	0.6
405	5458.7	408.1	0.6
410	5806.1	407.9	0.6
415	6157.7	407.7	0.6
420	6507.1	407.5	0.6
425	6857.2	407.2	0.6

System: 1,1,1-trifluoro-2-propene; phases: Liquid
Property: Mass density, kg/m3 (Liquid); method: ISOCHOR
Temperature, K	Pressure, kPa	Mass density, kg/m3	uncertainty
348	2175.9	796.5	1.2
349	2433.4	796.4	1.2
350	2692.4	796.4	1.2
351	2951.1	796.4	1.2
352	3211.8	796.4	1.2
353	3472	796.3	1.2
354	3732.3	796.3	1.2
355	3993.5	796.3	1.2
357	4517.5	796.2	1.2
356	4255.7	796.3	1.2
358	4781.3	796.2	1.2
360	5309.1	796.2	1.2
362	5836.4	796.1	1.2
364	6364.7	796.1	1.2
366	6895.5	796	1.2
328	2263.6	899.4	1.4
330	3005.2	899.2	1.4
333	4120.1	899	1.4
335	4863.3	898.9	1.4
338	5981.5	898.8	1.4
340	6726	898.7	1.4

System: 1,1,1-trifluoro-2-propene; phases: Gas, Liquid
Property: Mass density, kg/m3 (Gas); method: ISOCHOR
Temperature, K	Mass density, kg/m3	uncertainty
366.505	182.7	3
369.778	205.8	3
371.667	231.2	3
374.309	255.3	3
375.353	287.6	3
376.413	323.1	3.1
376.929	408.8	3.4
376.932	414.2	3.5

System: 1,1,1-trifluoro-2-propene; phases: Liquid, Gas
Property: Mass density, kg/m3 (Liquid); method: ISOCHOR
Temperature, K	Mass density, kg/m3	uncertainty
376.932	414.2	5.7
376.866	451.6	5.7
376.376	508.8	1.2
374.158	571.5	0.5
371.852	616.3	0.3
369.831	644	0.3
360.727	723.7	0.3

System: 1,1,1-trifluoro-2-propene; phases: Fluid (supercritical or subcritical phases)
Property: Mass density, kg/m3 (Fluid (supercritical or subcritical phases)); method: ISOCHOR
Temperature, K	Pressure, kPa	Mass density, kg/m3	uncertainty
364	2872	699.8	1.1
366	3226.1	699.8	1.1
368	3583.4	699.7	1.1
370	3943.7	699.7	1.1
372	4306.9	699.7	1.1
374	4672.5	699.6	1.1
376	5040.5	699.6	1.1
378	5410	699.5	1.1
380	5781.1	699.5	1.1
382	6153.3	699.5	1.1
384	6527.3	699.4	1.1
386	6902.3	699.4	1.1
