Measured thermophysical data. Isothermal Vapor-Liquid Equilibria and Excess Gibbs Energies for Binary Mixtures of Cyclic Ethers with 1,2-Dichloroethane
Source: J. Chem. Eng. Data, 2018, 10.1021/acs.jced.7b01091
Compound 1: 1,2-dichloroethane, C2H4Cl2, InChI=1S/C2H4Cl2/c3-1-2-4/h1-2H2
Compound 2: 1,3-dioxolane, C3H6O2, InChI=1S/C3H6O2/c1-2-5-3-4-1/h1-3H2
Compound 3: 1,4-dioxane, C4H8O2, InChI=1S/C4H8O2/c1-2-6-4-3-5-1/h1-4H2
Compound 4: tetrahydropyran, C5H10O, InChI=1S/C5H10O/c1-2-4-6-5-3-1/h1-5H2

System: 1,2-dichloroethane; phases: Liquid
Property: Mass density, kg/m3 (Liquid); method: Vibrating tube method
Temperature, K	Pressure, kPa	Mass density, kg/m3	uncertainty
298.15	101.325	1245.68	2.49

System: 1,2-dichloroethane; phases: Liquid, Gas
Property: Vapor or sublimation pressure, kPa (Liquid); method: Closed cell (Static) method
Temperature, K	Vapor or sublimation pressure, kPa	uncertainty
298.15	10.53	0.21

System: 1,2-dichloroethane; phases: Liquid, Gas
Property: Vapor or sublimation pressure, kPa (Liquid); method: Closed cell (Static) method
Temperature, K	Vapor or sublimation pressure, kPa	uncertainty
284.87	5.38	0.11
294.83	8.97	0.18
294.84	8.96	0.18
304.82	14.34	0.29
314.81	22.19	0.45
314.83	22.18	0.45
324.83	33.27	0.67
334.82	48.47	0.97
344.81	67.97	1.36
354.89	94.96	1.91

System: 1,3-dioxolane; phases: Liquid
Property: Mass density, kg/m3 (Liquid); method: Vibrating tube method
Temperature, K	Pressure, kPa	Mass density, kg/m3	uncertainty
298.15	101.325	1058.76	2.13

System: 1,3-dioxolane; phases: Liquid, Gas
Property: Vapor or sublimation pressure, kPa (Liquid); method: Closed cell (Static) method
Temperature, K	Vapor or sublimation pressure, kPa	uncertainty
298.15	13.31	0.27

System: 1,3-dioxolane; phases: Liquid, Gas
Property: Vapor or sublimation pressure, kPa (Liquid); method: Closed cell (Static) method
Temperature, K	Vapor or sublimation pressure, kPa	uncertainty
275	3.86	0.08
284.94	6.74	0.14
294.82	11.33	0.23
304.79	18.26	0.37
314.76	28.28	0.57
324.9	43.07	0.87
334.85	62.99	1.27
344.82	89.85	1.81
350.77	109.39	2.2

System: 1,4-dioxane; phases: Liquid
Property: Mass density, kg/m3 (Liquid); method: Vibrating tube method
Temperature, K	Pressure, kPa	Mass density, kg/m3	uncertainty
298.15	101.325	1027.87	2.06

System: 1,4-dioxane; phases: Liquid, Gas
Property: Vapor or sublimation pressure, kPa (Liquid); method: Closed cell (Static) method
Temperature, K	Vapor or sublimation pressure, kPa	uncertainty
298.15	4.68	0.09

System: 1,4-dioxane; phases: Liquid, Gas
Property: Vapor or sublimation pressure, kPa (Liquid); method: Closed cell (Static) method
Temperature, K	Vapor or sublimation pressure, kPa	uncertainty
284.59	2.23	0.05
294.82	3.92	0.08
304.81	6.58	0.13
314.76	10.54	0.21
324.92	16.71	0.34
334.92	25.52	0.51
344.89	37.55	0.75
354.92	54.11	1.09

System: tetrahydropyran; phases: Liquid
Property: Mass density, kg/m3 (Liquid); method: Vibrating tube method
Temperature, K	Pressure, kPa	Mass density, kg/m3	uncertainty
298.15	101.325	879.16	1.77

System: tetrahydropyran; phases: Liquid, Gas
Property: Vapor or sublimation pressure, kPa (Liquid); method: Closed cell (Static) method
Temperature, K	Vapor or sublimation pressure, kPa	uncertainty
298.15	9.25	0.19

System: tetrahydropyran; phases: Liquid, Gas
Property: Vapor or sublimation pressure, kPa (Liquid); method: Closed cell (Static) method
Temperature, K	Vapor or sublimation pressure, kPa	uncertainty
275.59	2.85	0.06
285.53	4.91	0.1
295.42	8.07	0.16
305.37	12.85	0.26
315.36	19.9	0.4
325.65	29.99	0.6
335.6	43.81	0.88
345.59	61.17	1.23
355.49	84.29	1.69

System: 1,2-dichloroethane + 1,3-dioxolane; phases: Liquid, Gas
Property: Vapor or sublimation pressure, kPa (Liquid); method: Closed cell (Static) method
Temperature, K	Mole fraction of 1,2-dichloroethane	Vapor or sublimation pressure, kPa	uncertainty
274.94	0.1408	3.59	0.08
284.89	0.1408	6.27	0.13
294.8	0.1408	10.6	0.22
304.69	0.1408	17.02	0.35
314.72	0.1408	26.57	0.54
324.83	0.1408	40.35	0.82
334.85	0.1408	59.19	1.2
344.8	0.1408	84.27	1.71
351.77	0.1408	106.34	2.16
274.94	0.3357	3.32	0.07
284.87	0.3357	5.8	0.12
294.77	0.3357	9.92	0.2
304.66	0.3357	15.77	0.32
314.69	0.3357	24.76	0.5
324.83	0.3357	37.49	0.76
334.8	0.3357	55	1.12
344.8	0.3357	78.5	1.59
354.72	0.3357	109.41	2.22
275.02	0.5042	3.16	0.07
284.94	0.5042	5.53	0.12
294.85	0.5042	9.25	0.19
304.76	0.5042	15.06	0.31
314.79	0.5042	23.54	0.48
324.9	0.5042	35.81	0.73
334.85	0.5042	52.52	1.07
344.8	0.5042	74.86	1.52
354.74	0.5042	104.54	2.12
274.94	0.6326	3.06	0.07
284.87	0.6326	5.35	0.11
294.8	0.6326	8.94	0.18
304.74	0.6326	14.56	0.3
314.69	0.6326	22.72	0.46
324.85	0.6326	34.56	0.7
334.85	0.6326	50.7	1.03
344.78	0.6326	72.47	1.47
354.76	0.6326	101.09	2.05
274.92	0.8927	2.99	0.06
284.82	0.8927	5.21	0.11
294.77	0.8927	8.67	0.18
304.71	0.8927	14.2	0.29
314.67	0.8927	21.94	0.45
324.81	0.8927	33.33	0.68
334.83	0.8927	48.87	0.99
344.8	0.8927	69.71	1.41
354.72	0.8927	96.88	1.96

System: 1,2-dichloroethane + 1,4-dioxane; phases: Liquid, Gas
Property: Vapor or sublimation pressure, kPa (Liquid); method: Closed cell (Static) method
Temperature, K	Mole fraction of 1,2-dichloroethane	Vapor or sublimation pressure, kPa	uncertainty
275.23	0.1437	1.41	0.03
284.92	0.1437	2.52	0.06
294.82	0.1437	4.36	0.09
304.81	0.1437	7.25	0.15
314.76	0.1437	11.54	0.24
324.9	0.1437	18.09	0.37
334.92	0.1437	27.58	0.56
344.91	0.1437	40.53	0.82
354.9	0.1437	57.77	1.17
274.94	0.3347	1.63	0.04
284.89	0.3347	2.93	0.06
294.8	0.3347	5.03	0.1
304.76	0.3347	8.33	0.17
314.74	0.3347	13.2	0.27
324.9	0.3347	20.66	0.42
334.89	0.3347	30.76	0.62
344.91	0.3347	44.69	0.91
354.85	0.3347	63.52	1.29
274.94	0.48	1.87	0.04
284.84	0.48	3.34	0.07
294.8	0.48	5.68	0.12
304.76	0.48	9.27	0.19
314.72	0.48	14.63	0.3
324.9	0.48	22.66	0.46
334.89	0.48	33.73	0.68
344.89	0.48	48.86	0.99
354.81	0.48	68.94	1.4
274.89	0.6316	2.2	0.05
284.84	0.6316	3.88	0.08
294.77	0.6316	6.54	0.14
304.76	0.6316	10.58	0.22
314.72	0.6316	16.63	0.34
324.9	0.6316	25.46	0.52
334.85	0.6316	37.39	0.76
344.85	0.6316	53.97	1.09
354.81	0.6316	75.54	1.53
274.94	0.8892	2.77	0.06
284.89	0.8892	4.83	0.1
294.85	0.8892	8.06	0.17
304.74	0.8892	13.01	0.27
314.74	0.8892	20.16	0.41
324.76	0.8892	30.64	0.62
334.76	0.8892	44.86	0.91
344.78	0.8892	64.02	1.3
354.69	0.8892	89.47	1.81

System: 1,2-dichloroethane + tetrahydropyran; phases: Liquid, Gas
Property: Vapor or sublimation pressure, kPa (Liquid); method: Closed cell (Static) method
Temperature, K	Mole fraction of 1,2-dichloroethane	Vapor or sublimation pressure, kPa	uncertainty
273.37	0.1496	2.6	0.06
285.32	0.1496	4.85	0.1
295.24	0.1496	7.93	0.16
305.17	0.1496	12.36	0.25
315.17	0.1496	19.12	0.39
325.27	0.1496	28.91	0.59
335.21	0.1496	42.33	0.86
345.25	0.1496	60.75	1.23
355.36	0.1496	85.43	1.73
275.41	0.361	2.62	0.06
285.35	0.361	4.56	0.1
295.27	0.361	7.58	0.16
305.63	0.361	12.27	0.25
315.71	0.361	19.28	0.39
325.86	0.361	29.19	0.59
335.65	0.361	42.42	0.86
345.54	0.361	60.3	1.22
355.43	0.361	83.06	1.68
275.46	0.4993	2.68	0.06
285.4	0.4993	4.67	0.1
295.32	0.4993	7.77	0.16
305.17	0.4993	12.46	0.25
315.26	0.4993	19.36	0.39
325.39	0.4993	29.38	0.6
335.37	0.4993	43.1	0.87
345.07	0.4993	61.22	1.24
355.01	0.4993	84.89	1.72
275.1	0.6479	2.75	0.06
285.05	0.6479	4.79	0.1
294.97	0.6479	7.98	0.16
304.86	0.6479	12.73	0.26
314.91	0.6479	19.87	0.4
325.04	0.6479	30.2	0.61
335.03	0.6479	44.23	0.9
344.98	0.6479	63.28	1.28
354.7	0.6479	87.25	1.77
274.97	0.8961	2.95	0.06
284.89	0.8961	5.14	0.11
294.8	0.8961	8.53	0.18
304.76	0.8961	13.76	0.28
314.74	0.8961	21.34	0.43
324.88	0.8961	32.51	0.66
334.87	0.8961	47.44	0.96
344.85	0.8961	67.37	1.36
354.79	0.8961	93.83	1.9
