Measured thermophysical data. Thermophysical Properties and Solubility of Different Sugar-Derived Molecules in Deep Eutectic Solvents
Source: J. Chem. Eng. Data, 2017, 10.1021/acs.jced.7b00184
Compound 1: decanoic acid, C10H20O2, InChI=1S/C10H20O2/c1-2-3-4-5-6-7-8-9-10(11)12/h2-9H2,1H3,(H,11,12)
Compound 2: tetraoctylammonium bromide, C32H68BrN, InChI=1S/C32H68N.BrH/c1-5-9-13-17-21-25-29-33(30-26-22-18-14-10-6-2,31-27-23-19-15-11-7-3)32-28-24-20-16-12-8-4;/h5-32H2,1-4H3;1H/q+1;/p-1
Compound 3: 1,2-ethanediol, C2H6O2, InChI=1S/C2H6O2/c3-1-2-4/h3-4H,1-2H2
Compound 4: choline chloride, C5H14ClNO, InChI=1S/C5H14NO.ClH/c1-6(2,3)4-5-7;/h7H,4-5H2,1-3H3;1H/q+1;/p-1
Compound 5: acetic acid, C2H4O2, InChI=1S/C2H4O2/c1-2(3)4/h1H3,(H,3,4)
Compound 6: 1H-imidazole, C3H4N2, InChI=1S/C3H4N2/c1-2-5-3-4-1/h1-3H,(H,4,5)
Compound 7: 4-oxopentanoic acid, C5H8O3, InChI=1S/C5H8O3/c1-4(6)2-3-5(7)8/h2-3H2,1H3,(H,7,8)
Compound 8: (trimethylammonio)acetate, C5H11NO2, InChI=1S/C5H11NO2/c1-6(2,3)4-5(7)8/h4H2,1-3H3
Compound 9: urea, CH4N2O, InChI=1S/CH4N2O/c2-1(3)4/h(H4,2,3,4)
Compound 10: 2-hydroxyethanoic acid, C2H4O3, InChI=1S/C2H4O3/c3-1-2(4)5/h3H,1H2,(H,4,5)
Compound 11: tetraethylammonium chloride, C8H20ClN, InChI=1S/C8H20N.ClH/c1-5-9(6-2,7-3)8-4;/h5-8H2,1-4H3;1H/q+1;/p-1
Compound 12: D-glucose, C6H12O6, InChI=1S/C6H12O6/c7-1-3(9)5(11)6(12)4(10)2-8/h1,3-6,8-12H,2H2/t3-,4+,5+,6+/m0/s1
Compound 13: D-fructose, C6H12O6, InChI=1S/C6H12O6/c7-1-3(9)5(11)6(12)4(10)2-8/h3,5-9,11-12H,1-2H2/t3-,5-,6-/m1/s1
Compound 14: cyclopentanone, C5H8O, InChI=1S/C5H8O/c6-5-3-1-2-4-5/h1-4H2
Compound 15: 5-(hydroxymethyl)furan-2-carbaldehyde, C6H6O3, InChI=1S/C6H6O3/c7-3-5-1-2-6(4-8)9-5/h1-3,8H,4H2
Compound 16: 2-furaldehyde, C5H4O2, InChI=1S/C5H4O2/c6-4-5-2-1-3-7-5/h1-4H
Compound 17: dimethyl 1,6-hexanedioate, C8H14O4, InChI=1S/C8H14O4/c1-11-7(9)5-3-4-6-8(10)12-2/h3-6H2,1-2H3
Compound 18: water, H2O, InChI=1S/H2O/h1H2, purity 99.8%

System: decanoic acid + tetraoctylammonium bromide; phases: Liquid
Fixed: Amount ratio of solute to solvent of decanoic acid = 2
Fixed: Pressure, kPa = 101
Property: Viscosity, Pa*s (Liquid); method: Concentric cylinders viscometry
Temperature, K	Viscosity, Pa*s	uncertainty
303.15	0.469	0.017
323.15	0.174	0.011
353.15	0.056	0.01

System: 1,2-ethanediol + choline chloride; phases: Liquid
Fixed: Amount ratio of solute to solvent of 1,2-ethanediol = 2
Fixed: Pressure, kPa = 101
Property: Viscosity, Pa*s (Liquid); method: Concentric cylinders viscometry
Temperature, K	Viscosity, Pa*s	uncertainty
303.15	0.035	0.01
323.15	0.019	0.01
353.15	0.009	0.01

System: acetic acid + 1H-imidazole; phases: Liquid
Fixed: Amount ratio of solute to solvent of 1H-imidazole = 1
Fixed: Pressure, kPa = 101
Property: Viscosity, Pa*s (Liquid); method: Concentric cylinders viscometry
Temperature, K	Viscosity, Pa*s	uncertainty
303.15	0.054	0.01
323.15	0.02	0.01
353.15	0.006	0.01

System: 4-oxopentanoic acid + (trimethylammonio)acetate; phases: Liquid
Fixed: Amount ratio of solute to solvent of 4-oxopentanoic acid = 2
Fixed: Pressure, kPa = 101
Property: Viscosity, Pa*s (Liquid); method: Concentric cylinders viscometry
Temperature, K	Viscosity, Pa*s	uncertainty
303.15	0.838	0.033
323.15	0.221	0.011
353.15	0.056	0.01

System: urea + choline chloride; phases: Liquid
Fixed: Amount ratio of solute to solvent of urea = 2
Fixed: Pressure, kPa = 101
Property: Viscosity, Pa*s (Liquid); method: Concentric cylinders viscometry
Temperature, K	Viscosity, Pa*s	uncertainty
303.15	0.893	0.035
323.15	0.197	0.011
353.15	0.044	0.01

System: 2-hydroxyethanoic acid + tetraethylammonium chloride; phases: Liquid
Fixed: Amount ratio of solute to solvent of 2-hydroxyethanoic acid = 2
Fixed: Pressure, kPa = 101
Property: Viscosity, Pa*s (Liquid); method: Concentric cylinders viscometry
Temperature, K	Viscosity, Pa*s	uncertainty
303.15	0.268	0.012
323.15	0.087	0.01
353.15	0.027	0.01

System: acetic acid + 1H-imidazole + D-glucose; phases: Liquid, Crystal
Fixed: Solvent: Mole fraction of acetic acid = 0.5
Fixed: Pressure, kPa = 101
Property: Mass fraction of D-glucose (Liquid); method: Titration method
Temperature, K	Mass fraction of D-glucose	uncertainty
303.15	0.5	0.01
323.15	0.51	0.01

System: acetic acid + 1H-imidazole + D-fructose; phases: Liquid, Crystal
Fixed: Solvent: Mole fraction of acetic acid = 0.5
Fixed: Pressure, kPa = 101
Property: Mass fraction of D-fructose (Liquid); method: Titration method
Temperature, K	Mass fraction of D-fructose	uncertainty
303.15	0.35	0.01
323.15	0.35	0.01

System: 4-oxopentanoic acid + (trimethylammonio)acetate + cyclopentanone; phases: Liquid mixture 1, Liquid mixture 2
Fixed: Solvent: Mole fraction of 4-oxopentanoic acid = 0.667
Fixed: Pressure, kPa = 101
Property: Mass fraction of cyclopentanone (Liquid mixture 1); method: Titration method
Temperature, K	Mass fraction of cyclopentanone	uncertainty
303.15	0.75	0.01
323.15	0.75	0.01

System: 4-oxopentanoic acid + (trimethylammonio)acetate + D-glucose; phases: Liquid, Crystal
Fixed: Solvent: Mole fraction of 4-oxopentanoic acid = 0.667
Fixed: Pressure, kPa = 101
Property: Mass fraction of D-glucose (Liquid); method: Titration method
Temperature, K	Mass fraction of D-glucose	uncertainty
303.15	0.2	0.01
323.15	0.2	0.01
353.15	0.2	0.01

System: 4-oxopentanoic acid + (trimethylammonio)acetate + D-fructose; phases: Liquid, Crystal
Fixed: Solvent: Mole fraction of 4-oxopentanoic acid = 0.667
Fixed: Pressure, kPa = 101
Property: Mass fraction of D-fructose (Liquid); method: Titration method
Temperature, K	Mass fraction of D-fructose	uncertainty
303.15	0.2	0.01
323.15	0.2	0.01
353.15	0.2	0.01

System: urea + choline chloride + 5-(hydroxymethyl)furan-2-carbaldehyde; phases: Liquid mixture 1, Liquid mixture 2
Fixed: Solvent: Mole fraction of urea = 0.667
Fixed: Pressure, kPa = 101
Property: Mass fraction of 5-(hydroxymethyl)furan-2-carbaldehyde (Liquid mixture 1); method: Titration method
Temperature, K	Mass fraction of 5-(hydroxymethyl)furan-2-carbaldehyde	uncertainty
303.15	0.8	0.01
323.15	0.9	0.01
353.15	0.9	0.01

System: urea + choline chloride + 2-furaldehyde; phases: Liquid mixture 1, Liquid mixture 2
Fixed: Solvent: Mole fraction of urea = 0.667
Fixed: Pressure, kPa = 101
Property: Mass fraction of 2-furaldehyde (Liquid mixture 1); method: Titration method
Temperature, K	Mass fraction of 2-furaldehyde	uncertainty
303.15	0.8	0.01
323.15	0.9	0.01
353.15	0.9	0.01

System: urea + choline chloride + cyclopentanone; phases: Liquid mixture 1, Liquid mixture 2
Fixed: Solvent: Mole fraction of urea = 0.667
Fixed: Pressure, kPa = 101
Property: Mass fraction of cyclopentanone (Liquid mixture 1); method: Titration method
Temperature, K	Mass fraction of cyclopentanone	uncertainty
303.15	0.25	0.01
323.15	0.25	0.01
353.15	0.25	0.01

System: urea + choline chloride + D-glucose; phases: Liquid, Crystal
Fixed: Solvent: Mole fraction of urea = 0.667
Fixed: Pressure, kPa = 101
Property: Mass fraction of D-glucose (Liquid); method: Titration method
Temperature, K	Mass fraction of D-glucose	uncertainty
303.15	0.35	0.01
323.15	0.35	0.01

System: urea + choline chloride + D-fructose; phases: Liquid, Crystal
Fixed: Solvent: Mole fraction of urea = 0.667
Fixed: Pressure, kPa = 101
Property: Mass fraction of D-fructose (Liquid); method: Titration method
Temperature, K	Mass fraction of D-fructose	uncertainty
303.15	0.35	0.01
323.15	0.35	0.01

System: 1,2-ethanediol + choline chloride + 2-furaldehyde; phases: Liquid mixture 1, Liquid mixture 2
Fixed: Pressure, kPa = 101
Property: Mass fraction of 2-furaldehyde (Liquid mixture 1); method: Titration method
Solvent: Mole fraction of 1,2-ethanediol	Temperature, K	Mass fraction of 2-furaldehyde	uncertainty
0.5	353.15	0.9	0.01
0.667	303.15	0.95	0.01
0.667	323.15	0.95	0.01
0.667	353.15	0.96	0.01
0.75	303.15	0.95	0.01
0.75	323.15	0.95	0.01
0.75	353.15	0.95	0.01

System: 1,2-ethanediol + choline chloride + dimethyl 1,6-hexanedioate; phases: Liquid mixture 1, Liquid mixture 2
Fixed: Solvent: Mole fraction of 1,2-ethanediol = 0.667
Fixed: Pressure, kPa = 101
Property: Mass fraction of dimethyl 1,6-hexanedioate (Liquid mixture 1); method: Titration method
Temperature, K	Mass fraction of dimethyl 1,6-hexanedioate	uncertainty
303.15	0.05	0.01
323.15	0.05	0.01
353.15	0.05	0.01

System: 1,2-ethanediol + choline chloride + cyclopentanone; phases: Liquid mixture 1, Liquid mixture 2
Fixed: Solvent: Mole fraction of 1,2-ethanediol = 0.667
Fixed: Pressure, kPa = 101
Property: Mass fraction of cyclopentanone (Liquid mixture 1); method: Titration method
Temperature, K	Mass fraction of cyclopentanone	uncertainty
303.15	0.5	0.02
323.15	0.5	0.02
353.15	0.5	0.02

System: 1,2-ethanediol + choline chloride + D-glucose; phases: Liquid, Crystal
Fixed: Solvent: Mole fraction of 1,2-ethanediol = 0.667
Fixed: Pressure, kPa = 101
Property: Mass fraction of D-glucose (Liquid); method: Titration method
Temperature, K	Mass fraction of D-glucose	uncertainty
303.15	0.2	0.01
323.15	0.2	0.01

System: 1,2-ethanediol + choline chloride + D-fructose; phases: Liquid, Crystal
Fixed: Solvent: Mole fraction of 1,2-ethanediol = 0.667
Fixed: Pressure, kPa = 101
Property: Mass fraction of D-fructose (Liquid); method: Titration method
Temperature, K	Mass fraction of D-fructose	uncertainty
303.15	0.5	0.01
323.15	0.5	0.01

System: 2-hydroxyethanoic acid + tetraethylammonium chloride + dimethyl 1,6-hexanedioate; phases: Liquid mixture 1, Liquid mixture 2
Fixed: Solvent: Mole fraction of 2-hydroxyethanoic acid = 0.667
Fixed: Pressure, kPa = 101
Property: Mass fraction of dimethyl 1,6-hexanedioate (Liquid mixture 1); method: Titration method
Temperature, K	Mass fraction of dimethyl 1,6-hexanedioate	uncertainty
303.15	0.15	0.01
323.15	0.15	0.01
353.15	0.15	0.01

System: 2-hydroxyethanoic acid + tetraethylammonium chloride + D-glucose; phases: Liquid, Crystal
Fixed: Solvent: Mole fraction of 2-hydroxyethanoic acid = 0.667
Fixed: Pressure, kPa = 101
Property: Mass fraction of D-glucose (Liquid); method: Titration method
Temperature, K	Mass fraction of D-glucose	uncertainty
303.15	0.24	0.01
323.15	0.24	0.01

System: 2-hydroxyethanoic acid + tetraethylammonium chloride + D-fructose; phases: Liquid, Crystal
Fixed: Solvent: Mole fraction of 2-hydroxyethanoic acid = 0.667
Fixed: Pressure, kPa = 101
Property: Mass fraction of D-fructose (Liquid); method: Titration method
Temperature, K	Mass fraction of D-fructose	uncertainty
303.15	0.14	0.01
323.15	0.14	0.01

System: decanoic acid + tetraoctylammonium bromide + D-glucose; phases: Liquid, Crystal
Fixed: Solvent: Mole fraction of decanoic acid = 0.667
Fixed: Pressure, kPa = 101
Property: Mass fraction of D-glucose (Liquid); method: Titration method
Temperature, K	Mass fraction of D-glucose	uncertainty
303.15	0.1	0.01
323.15	0.1	0.01
353.15	0.1	0.01

System: decanoic acid + tetraoctylammonium bromide + D-fructose; phases: Liquid, Crystal
Fixed: Solvent: Mole fraction of decanoic acid = 0.667
Fixed: Pressure, kPa = 101
Property: Mass fraction of D-fructose (Liquid); method: Titration method
Temperature, K	Mass fraction of D-fructose	uncertainty
303.15	0.1	0.01
323.15	0.1	0.01
353.15	0.1	0.01

System: water + 2-furaldehyde; phases: Liquid mixture 1, Liquid mixture 2
Property: Mass fraction of 2-furaldehyde (Liquid mixture 1); method: Titration method
Temperature, K	Pressure, kPa	Mass fraction of 2-furaldehyde	uncertainty
293.15	101	0.061	0.01

System: water + D-glucose; phases: Liquid, Crystal of intercomponent compound 1
Fixed: Pressure, kPa = 101
Property: Mole fraction of D-glucose (Liquid); method: Titration method
Temperature, K	Mole fraction of D-glucose	uncertainty
293.15	0.0797	0.0101
303.15	0.1122	0.01
323.15	0.1336	0.01
