Measured thermophysical data. Solubilities of 2,6-Dimethylnaphthalene in Six Pure Solvents and Two Binary Solvent Systems
Source: J. Chem. Eng. Data, 2019, 10.1021/acs.jced.8b01209
Compound 1: 2,6-dimethylnaphthalene, C12H12, InChI=1S/C12H12/c1-9-3-5-12-8-10(2)4-6-11(12)7-9/h3-8H,1-2H3
Compound 2: acetic acid, C2H4O2, InChI=1S/C2H4O2/c1-2(3)4/h1H3,(H,3,4), purity 99.5%
Compound 3: formic acid, CH2O2, InChI=1S/CH2O2/c2-1-3/h1H,(H,2,3), purity 99.5%
Compound 4: propan-2-ol, C3H8O, InChI=1S/C3H8O/c1-3(2)4/h3-4H,1-2H3, purity 99.5%
Compound 5: heptane, C7H16, InChI=1S/C7H16/c1-3-5-7-6-4-2/h3-7H2,1-2H3, purity 99.5%
Compound 6: ethyl acetate, C4H8O2, InChI=1S/C4H8O2/c1-3-6-4(2)5/h3H2,1-2H3, purity 99.5%
Compound 7: propyl ethanoate, C5H10O2, InChI=1S/C5H10O2/c1-3-4-7-5(2)6/h3-4H2,1-2H3, purity 99.5%
Compound 8: cyclohexane, C6H12, InChI=1S/C6H12/c1-2-4-6-5-3-1/h1-6H2, purity 99.5%
Compound 9: 2,2,4-trimethylpentane, C8H18, InChI=1S/C8H18/c1-7(2)6-8(3,4)5/h7H,6H2,1-5H3, purity 99.5%
Compound 10: water, H2O, InChI=1S/H2O/h1H2, purity 99.9%

System: 2,6-dimethylnaphthalene; phases: Crystal, Liquid, Air at 1 atmosphere
Property: Triple point temperature, K (Crystal); method: DSC
Triple point temperature, K	uncertainty
384.41	1.22

System: 2,6-dimethylnaphthalene; phases: Crystal, Liquid, Air at 1 atmosphere
Property: Molar enthalpy of transition or fusion, kJ/mol (Crystal); method: DSC
Molar enthalpy of transition or fusion, kJ/mol	uncertainty
24.89	0.57

System: 2,6-dimethylnaphthalene + propan-2-ol; phases: Liquid, Crystal
Fixed: Pressure, kPa = 100
Property: Mole fraction of 2,6-dimethylnaphthalene (Liquid); method: Chromatography
Temperature, K	Mole fraction of 2,6-dimethylnaphthalene	uncertainty
286.65	0.0054	0.0011
294.55	0.0072	0.0014
301.45	0.0098	0.002
309.65	0.0136	0.0027
315.75	0.0174	0.0035
323.22	0.023	0.0046
330.55	0.0297	0.0059
335.95	0.0371	0.0074
341.65	0.0517	0.0104

System: 2,6-dimethylnaphthalene + heptane; phases: Liquid, Crystal
Fixed: Pressure, kPa = 100
Property: Mole fraction of 2,6-dimethylnaphthalene (Liquid); method: Chromatography
Temperature, K	Mole fraction of 2,6-dimethylnaphthalene	uncertainty
288.85	0.0289	0.0058
293.58	0.0359	0.0072
298.72	0.0433	0.0087
304.56	0.0529	0.0106
311.77	0.0632	0.0126
317.8	0.0775	0.0155
324.79	0.0979	0.0196
332.39	0.1315	0.0263
339.42	0.1699	0.034

System: 2,6-dimethylnaphthalene + cyclohexane; phases: Liquid, Crystal
Fixed: Pressure, kPa = 100
Property: Mole fraction of 2,6-dimethylnaphthalene (Liquid); method: Chromatography
Temperature, K	Mole fraction of 2,6-dimethylnaphthalene	uncertainty
293.18	0.03	0.006
298.86	0.0398	0.008
305.57	0.0513	0.0103
312.3	0.0714	0.0143
318.76	0.096	0.0192
323.07	0.1147	0.023
325.79	0.1339	0.0268
333.08	0.1866	0.0374
339.97	0.2527	0.0506

System: 2,6-dimethylnaphthalene + ethyl acetate; phases: Liquid, Crystal
Fixed: Pressure, kPa = 100
Property: Mole fraction of 2,6-dimethylnaphthalene (Liquid); method: Chromatography
Temperature, K	Mole fraction of 2,6-dimethylnaphthalene	uncertainty
287.56	0.0424	0.0085
292.27	0.0494	0.0099
298.27	0.0585	0.0117
305.69	0.0775	0.0155
311.52	0.0957	0.0192
318.89	0.123	0.0246
325.2	0.1577	0.0316
332.01	0.1996	0.0399
338.58	0.2563	0.0513

System: 2,6-dimethylnaphthalene + propyl ethanoate; phases: Liquid, Crystal
Fixed: Pressure, kPa = 100
Property: Mole fraction of 2,6-dimethylnaphthalene (Liquid); method: Chromatography
Temperature, K	Mole fraction of 2,6-dimethylnaphthalene	uncertainty
286.65	0.0485	0.0097
293.5	0.0638	0.0128
300.85	0.0815	0.0163
307.41	0.1034	0.0207
313.85	0.1267	0.0254
320.65	0.1593	0.0319
328.22	0.2059	0.0412
333.46	0.2454	0.0491
338.17	0.2891	0.0579

System: 2,6-dimethylnaphthalene + 2,2,4-trimethylpentane; phases: Liquid, Crystal
Fixed: Pressure, kPa = 100
Property: Mole fraction of 2,6-dimethylnaphthalene (Liquid); method: Chromatography
Temperature, K	Mole fraction of 2,6-dimethylnaphthalene	uncertainty
288.36	0.0234	0.0047
293.19	0.0294	0.0059
298.62	0.0344	0.0069
306.77	0.0487	0.0098
315.41	0.0725	0.0145
322.03	0.0905	0.0181
327.1	0.1125	0.0225
334.57	0.1489	0.0298
341.2	0.1974	0.0395

System: 2,6-dimethylnaphthalene + formic acid + water; phases: Liquid, Crystal
Fixed: Pressure, kPa = 100
Property: Mole fraction of 2,6-dimethylnaphthalene (Liquid); method: Chromatography
Temperature, K	Solvent: Mass fraction of formic acid	Mole fraction of 2,6-dimethylnaphthalene	uncertainty
300.83	1	0.0003673	7.36e-05
305.8	1	0.000458	9.17e-05
311.98	1	0.0006431	0.0001288
319.87	1	0.000922	0.0001846
327.73	1	0.001339	0.000268
335.79	1	0.0018	0.00036
343.62	1	0.002541	0.000509
300.83	0.95	0.0002467	4.94e-05
305.8	0.95	0.0003137	6.28e-05
311.98	0.95	0.0004241	8.49e-05
319.87	0.95	0.0005981	0.0001197
327.73	0.95	0.0008379	0.0001677
335.79	0.95	0.001146	0.000229
343.62	0.95	0.001565	0.000313
300.83	0.9	0.0001342	2.69e-05
305.8	0.9	0.0001725	3.46e-05
311.98	0.9	0.0002569	5.15e-05
319.87	0.9	0.0003892	7.79e-05
327.73	0.9	0.0005532	0.0001107
335.79	0.9	0.0007658	0.0001533
343.62	0.9	0.001046	0.000209
300.83	0.85	8.211e-05	1.644e-05
305.8	0.85	0.0001096	2.2e-05
311.98	0.85	0.0001741	3.49e-05
319.87	0.85	0.0002565	5.14e-05
327.73	0.85	0.0003596	7.2e-05
335.79	0.85	0.000495	9.91e-05
343.62	0.85	0.0006818	0.0001365
300.83	0.8	5.251e-05	1.053e-05
305.8	0.8	7.186e-05	1.441e-05
311.98	0.8	0.0001108	2.22e-05
319.87	0.8	0.0001681	3.37e-05
327.73	0.8	0.0002376	4.76e-05
335.79	0.8	0.0003489	6.99e-05
343.62	0.8	0.0004892	9.79e-05

System: 2,6-dimethylnaphthalene + acetic acid + water; phases: Liquid, Crystal
Fixed: Pressure, kPa = 100
Property: Mole fraction of 2,6-dimethylnaphthalene (Liquid); method: Chromatography
Temperature, K	Solvent: Mass fraction of acetic acid	Mole fraction of 2,6-dimethylnaphthalene	uncertainty
304.05	1	0.01672	0.00334
308.14	1	0.01807	0.00362
313.3	1	0.02215	0.00443
318.13	1	0.02614	0.00523
322.55	1	0.03185	0.00638
328.76	1	0.03997	0.008
333.4	1	0.04772	0.00955
337.45	1	0.0529	0.01059
343	1	0.07053	0.01412
347.21	1	0.08464	0.01695
353.65	1	0.1151	0.023
303.53	0.95	0.006025	0.001206
307.48	0.95	0.007722	0.001547
313.08	0.95	0.009768	0.001956
318.71	0.95	0.01253	0.00251
322.85	0.95	0.01492	0.00299
327.27	0.95	0.01775	0.00355
331.93	0.95	0.02094	0.00419
337.35	0.95	0.02672	0.00535
342.27	0.95	0.03275	0.00656
346.15	0.95	0.04033	0.00808
351.05	0.95	0.05315	0.01064
302.63	0.9	0.002244	0.000449
308.34	0.9	0.002806	0.000562
312.8	0.9	0.00357	0.000716
317.15	0.9	0.004705	0.000943
322.55	0.9	0.006072	0.001217
327.6	0.9	0.008414	0.001685
331.65	0.9	0.009962	0.001995
337.75	0.9	0.0139	0.00278
342.35	0.9	0.01727	0.00346
347.45	0.9	0.0216	0.00432
351.55	0.9	0.02648	0.00532
304.13	0.85	0.001421	0.000284
309.78	0.85	0.001723	0.000345
313.24	0.85	0.002103	0.000421
317.73	0.85	0.002632	0.000527
322.67	0.85	0.003401	0.000681
327.27	0.85	0.004235	0.000848
331.43	0.85	0.005218	0.001046
335.9	0.85	0.00675	0.001353
341.67	0.85	0.009074	0.001818
346.15	0.85	0.01142	0.00229
351.37	0.85	0.01474	0.00296
304.15	0.8	0.000925	0.000185
308.86	0.8	0.001123	0.000225
314.18	0.8	0.001437	0.000288
318.77	0.8	0.001815	0.000363
323.65	0.8	0.002231	0.000447
328.24	0.8	0.002815	0.000564
333.36	0.8	0.003704	0.000742
337.86	0.8	0.004505	0.000902
342.35	0.8	0.00584	0.00117
346.45	0.8	0.007127	0.001428
352.34	0.8	0.009638	0.00193

System: 2,6-dimethylnaphthalene + formic acid; phases: Liquid, Crystal
Fixed: Pressure, kPa = 100
Property: Mole fraction of 2,6-dimethylnaphthalene (Liquid); method: Chromatography
Temperature, K	Mole fraction of 2,6-dimethylnaphthalene	uncertainty
300.83	0.0003673	7.36e-05
305.8	0.000458	9.17e-05
311.98	0.0006431	0.0001288
319.87	0.000922	0.0001846
327.73	0.001339	0.000268
335.79	0.0018	0.00036
343.62	0.002541	0.000509

System: 2,6-dimethylnaphthalene + acetic acid; phases: Liquid, Crystal
Fixed: Pressure, kPa = 100
Property: Mole fraction of 2,6-dimethylnaphthalene (Liquid); method: Chromatography
Temperature, K	Mole fraction of 2,6-dimethylnaphthalene	uncertainty
304.05	0.01672	0.00334
308.14	0.01807	0.00362
313.3	0.02215	0.00443
318.13	0.02614	0.00523
322.55	0.03185	0.00638
328.76	0.03997	0.008
333.4	0.04772	0.00955
337.45	0.0529	0.01059
343	0.07053	0.01412
347.21	0.08464	0.01695
353.65	0.1151	0.023
