Measured thermophysical data. Solid Liquid Equilibria of Nine Binary Systems with Dicarboxylic Acids
Source: J. Chem. Eng. Data, 2017, 10.1021/acs.jced.6b00628
Compound 1: 1,6-hexanedioic acid, C6H10O4, InChI=1S/C6H10O4/c7-5(8)3-1-2-4-6(9)10/h1-4H2,(H,7,8)(H,9,10), purity 99%
Compound 2: 1,7-heptanedioic acid, C7H12O4, InChI=1S/C7H12O4/c8-6(9)4-2-1-3-5-7(10)11/h1-5H2,(H,8,9)(H,10,11), purity 99%
Compound 3: 1,8-octanedioic acid, C8H14O4, InChI=1S/C8H14O4/c9-7(10)5-3-1-2-4-6-8(11)12/h1-6H2,(H,9,10)(H,11,12), purity 99%
Compound 4: 1,9-nonanedioic acid, C9H16O4, InChI=1S/C9H16O4/c10-8(11)6-4-2-1-3-5-7-9(12)13/h1-7H2,(H,10,11)(H,12,13), purity 98%
Compound 5: 1,10-decanedioic acid, C10H18O4, InChI=1S/C10H18O4/c11-9(12)7-5-3-1-2-4-6-8-10(13)14/h1-8H2,(H,11,12)(H,13,14), purity 99%

System: 1,6-hexanedioic acid; phases: Crystal, Liquid, Air at 1 atmosphere
Property: Normal melting temperature, K (Crystal); method: DTA
Normal melting temperature, K	uncertainty
425.25	0.93

System: 1,6-hexanedioic acid; phases: Crystal, Liquid, Air at 1 atmosphere
Property: Molar enthalpy of transition or fusion, kJ/mol (Crystal); method: DSC
Molar enthalpy of transition or fusion, kJ/mol	uncertainty
39.03	1.16

System: 1,7-heptanedioic acid; phases: Crystal, Liquid, Air at 1 atmosphere
Property: Normal melting temperature, K (Crystal); method: DTA
Normal melting temperature, K	uncertainty
378.57	0.93

System: 1,7-heptanedioic acid; phases: Crystal, Liquid, Air at 1 atmosphere
Property: Molar enthalpy of transition or fusion, kJ/mol (Crystal); method: DSC
Molar enthalpy of transition or fusion, kJ/mol	uncertainty
30.76	1.07

System: 1,8-octanedioic acid; phases: Crystal, Liquid, Air at 1 atmosphere
Property: Normal melting temperature, K (Crystal); method: DTA
Normal melting temperature, K	uncertainty
415.07	0.93

System: 1,8-octanedioic acid; phases: Crystal, Liquid, Air at 1 atmosphere
Property: Molar enthalpy of transition or fusion, kJ/mol (Crystal); method: DSC
Molar enthalpy of transition or fusion, kJ/mol	uncertainty
30.7	1.07

System: 1,9-nonanedioic acid; phases: Crystal, Liquid, Air at 1 atmosphere
Property: Normal melting temperature, K (Crystal); method: DTA
Normal melting temperature, K	uncertainty
379.89	0.93

System: 1,9-nonanedioic acid; phases: Crystal, Liquid, Air at 1 atmosphere
Property: Molar enthalpy of transition or fusion, kJ/mol (Crystal); method: DSC
Molar enthalpy of transition or fusion, kJ/mol	uncertainty
35.92	1.12

System: 1,10-decanedioic acid; phases: Crystal, Liquid, Air at 1 atmosphere
Property: Normal melting temperature, K (Crystal); method: DTA
Normal melting temperature, K	uncertainty
406.76	0.93

System: 1,10-decanedioic acid; phases: Crystal, Liquid, Air at 1 atmosphere
Property: Molar enthalpy of transition or fusion, kJ/mol (Crystal); method: DSC
Molar enthalpy of transition or fusion, kJ/mol	uncertainty
46.74	1.25

System: 1,6-hexanedioic acid + 1,8-octanedioic acid; phases: Crystal, Liquid, Crystal, Air at 1 atmosphere
Property: Eutectic temperature, K (Crystal); method: DTA
Eutectic temperature, K	uncertainty
391.34	0.76

System: 1,6-hexanedioic acid + 1,8-octanedioic acid; phases: Liquid, Crystal
Fixed: Pressure, kPa = 100
Property: Solid-liquid equilibrium temperature, K (Liquid); method: DTA
Mole fraction of 1,6-hexanedioic acid	Solid-liquid equilibrium temperature, K	uncertainty
0.05037	412.69	1.01
0.0968	409.92	1.01
0.15402	406.55	1.01
0.17097	405.99	0.99
0.19718	405.51	1.01
0.22404	402.86	1.06
0	415.07	0.99

System: 1,6-hexanedioic acid + 1,8-octanedioic acid; phases: Liquid, Crystal
Fixed: Pressure, kPa = 100
Property: Solid-liquid equilibrium temperature, K (Liquid); method: DTA
Mole fraction of 1,6-hexanedioic acid	Solid-liquid equilibrium temperature, K	uncertainty
0.62689	405.58	1
0.64994	406.5	1
0.69978	408.13	1.01
0.7507	411.86	1.03
0.79509	415.33	1.03
0.8467	418.64	1.01
0.89952	421.01	1.01
0.94917	423.7	1
1	425.28	0.99

System: 1,9-nonanedioic acid + 1,6-hexanedioic acid; phases: Crystal, Liquid, Crystal, Air at 1 atmosphere
Property: Eutectic temperature, K (Crystal); method: DTA
Eutectic temperature, K	uncertainty
372.13	0.76

System: 1,9-nonanedioic acid + 1,6-hexanedioic acid; phases: Liquid, Crystal
Fixed: Pressure, kPa = 100
Property: Solid-liquid equilibrium temperature, K (Liquid); method: DTA
Mole fraction of 1,6-hexanedioic acid	Solid-liquid equilibrium temperature, K	uncertainty
0.54645	400.7	0.99
0.60042	402.36	1.02
0.6552	407.72	1.03
0.70124	409.98	1.01
0.79801	415.69	1.02
0.84823	418.71	1.01
0.89675	421.18	1.01
0.95262	424.23	1
0.74825	412.54	1.01
1	425.28	0.99

System: 1,9-nonanedioic acid + 1,6-hexanedioic acid; phases: Liquid, Crystal
Fixed: Pressure, kPa = 100
Property: Solid-liquid equilibrium temperature, K (Liquid); method: DTA
Mole fraction of 1,6-hexanedioic acid	Solid-liquid equilibrium temperature, K	uncertainty
0.0511	379.73	0.99
0.07985	378.05	1.01
0.10039	377.25	0.99
0.14891	375.97	0.99
0	379.89	0.99

System: 1,10-decanedioic acid + 1,6-hexanedioic acid; phases: Crystal, Liquid, Crystal, Air at 1 atmosphere
Property: Eutectic temperature, K (Crystal); method: DTA
Eutectic temperature, K	uncertainty
391.36	0.76

System: 1,10-decanedioic acid + 1,6-hexanedioic acid; phases: Liquid, Crystal
Fixed: Pressure, kPa = 100
Property: Solid-liquid equilibrium temperature, K (Liquid); method: DTA
Mole fraction of 1,6-hexanedioic acid	Solid-liquid equilibrium temperature, K	uncertainty
0.05091	405.84	0.99
0.10365	404	1
0.14713	402.15	1
0.19675	400.15	0.99
0.2475	398.78	0.99
0	406.76	0.99

System: 1,10-decanedioic acid + 1,6-hexanedioic acid; phases: Liquid, Crystal
Fixed: Pressure, kPa = 100
Property: Solid-liquid equilibrium temperature, K (Liquid); method: DTA
Mole fraction of 1,6-hexanedioic acid	Solid-liquid equilibrium temperature, K	uncertainty
0.59748	401.82	1.06
0.65019	406.83	1.03
0.70207	410.06	1.02
0.79908	416.89	1.02
0.84862	419.1	1.01
0.89751	422.14	1
0.95217	423.84	0.99
1	425.28	0.99

System: 1,7-heptanedioic acid + 1,8-octanedioic acid; phases: Crystal, Liquid, Crystal, Air at 1 atmosphere
Property: Eutectic temperature, K (Crystal); method: DTA
Eutectic temperature, K	uncertainty
365.86	0.76

System: 1,7-heptanedioic acid + 1,8-octanedioic acid; phases: Liquid, Crystal
Fixed: Pressure, kPa = 100
Property: Solid-liquid equilibrium temperature, K (Liquid); method: DTA
Mole fraction of 1,7-heptanedioic acid	Solid-liquid equilibrium temperature, K	uncertainty
0.85096	370.98	1.01
0.90263	373.67	1.01
0.9514	376.84	1.01
1	378.57	0.99

System: 1,7-heptanedioic acid + 1,8-octanedioic acid; phases: Liquid, Crystal
Fixed: Pressure, kPa = 100
Property: Solid-liquid equilibrium temperature, K (Liquid); method: DTA
Mole fraction of 1,7-heptanedioic acid	Solid-liquid equilibrium temperature, K	uncertainty
0.05132	413.19	1
0.10221	411.07	1.02
0.14582	407.38	1.01
0.20127	406.02	1
0.24781	402.73	1
0.3	401.22	1.02
0.34793	396.13	1.04
0.39741	393.21	1.02
0.45211	389.6	1
0.50107	389.01	1
0.54835	385.25	1.04
0	415.07	0.99

System: 1,7-heptanedioic acid + 1,9-nonanedioic acid; phases: Crystal, Liquid, Crystal, Air at 1 atmosphere
Property: Eutectic temperature, K (Crystal); method: DTA
Eutectic temperature, K	uncertainty
352.75	0.9

System: 1,7-heptanedioic acid + 1,9-nonanedioic acid; phases: Liquid, Crystal
Fixed: Pressure, kPa = 100
Property: Solid-liquid equilibrium temperature, K (Liquid); method: DTA
Mole fraction of 1,7-heptanedioic acid	Solid-liquid equilibrium temperature, K	uncertainty
0.0505	378.08	0.99
0.09652	378.17	1
0.14658	374.02	1.01
0.20269	372.61	1
0.25055	370.08	1.01
0.3	367.75	1.01
0.35496	364.45	1.01
0.40268	362.58	1
0	379.89	0.99

System: 1,7-heptanedioic acid + 1,9-nonanedioic acid; phases: Liquid, Crystal
Fixed: Pressure, kPa = 100
Property: Solid-liquid equilibrium temperature, K (Liquid); method: DTA
Mole fraction of 1,7-heptanedioic acid	Solid-liquid equilibrium temperature, K	uncertainty
0.75	365.4	1.01
0.77674	366.9	1
0.80542	367.89	1.01
0.82458	369.49	1.03
0.84962	371.06	1.01
0.89672	373.63	1
0.95137	376.05	1
1	378.57	0.99

System: 1,7-heptanedioic acid + 1,10-decanedioic acid; phases: Crystal, Liquid, Crystal, Air at 1 atmosphere
Property: Eutectic temperature, K (Crystal); method: DTA
Eutectic temperature, K	uncertainty
365.27	0.76

System: 1,7-heptanedioic acid + 1,10-decanedioic acid; phases: Liquid, Crystal
Fixed: Pressure, kPa = 100
Property: Solid-liquid equilibrium temperature, K (Liquid); method: DTA
Mole fraction of 1,7-heptanedioic acid	Solid-liquid equilibrium temperature, K	uncertainty
0.84937	370.75	1.01
0.89888	373.32	1
0.94782	374.96	1.01
1	378.57	0.99

System: 1,7-heptanedioic acid + 1,10-decanedioic acid; phases: Liquid, Crystal
Fixed: Pressure, kPa = 100
Property: Solid-liquid equilibrium temperature, K (Liquid); method: DTA
Mole fraction of 1,7-heptanedioic acid	Solid-liquid equilibrium temperature, K	uncertainty
0.04986	404.92	1
0.10147	403.18	1
0.15209	401.28	1
0.19922	399.42	1
0.24847	397.2	1
0.2983	394.58	1
0.35222	392.33	1.01
0.39943	389.43	1
0.44984	388.2	0.99
0	406.76	0.99

System: 1,10-decanedioic acid + 1,8-octanedioic acid; phases: Crystal, Liquid, Crystal, Air at 1 atmosphere
Property: Eutectic temperature, K (Crystal); method: DTA
Eutectic temperature, K	uncertainty
382.31	1.07

System: 1,10-decanedioic acid + 1,8-octanedioic acid; phases: Liquid, Crystal
Fixed: Pressure, kPa = 100
Property: Solid-liquid equilibrium temperature, K (Liquid); method: DTA
Mole fraction of 1,8-octanedioic acid	Solid-liquid equilibrium temperature, K	uncertainty
0.04889	405.25	1
0.10018	402.11	1.01
0.15026	400.05	1
0.20085	398.51	0.99
0.25	396.69	1
0.29776	394.39	1
0	406.76	0.99

System: 1,10-decanedioic acid + 1,8-octanedioic acid; phases: Liquid, Crystal
Fixed: Pressure, kPa = 100
Property: Solid-liquid equilibrium temperature, K (Liquid); method: DTA
Mole fraction of 1,8-octanedioic acid	Solid-liquid equilibrium temperature, K	uncertainty
0.64878	396.83	1
0.69978	398.72	1
0.75013	401.38	1
0.8	402.99	1.01
0.84818	406.35	1.02
0.89935	409.57	1.01
0.95239	412.3	1.01
1	415.07	0.99

System: 1,9-nonanedioic acid + 1,8-octanedioic acid; phases: Crystal, Liquid, Crystal, Air at 1 atmosphere
Property: Eutectic temperature, K (Crystal); method: DTA
Eutectic temperature, K	uncertainty
367.46	0.76

System: 1,9-nonanedioic acid + 1,8-octanedioic acid; phases: Liquid, Crystal
Fixed: Pressure, kPa = 100
Property: Solid-liquid equilibrium temperature, K (Liquid); method: DTA
Mole fraction of 1,9-nonanedioic acid	Solid-liquid equilibrium temperature, K	uncertainty
0.04956	410.74	1.01
0.09951	409.14	1
0.152	406.75	1
0.20245	404.57	1.01
0.24775	401.17	1.01
0.29692	399.04	1.02
0.34562	394.67	1.02
0.40265	392.32	1.02
0.45097	387.9	1.02
0.50079	386.14	1
0	415.07	0.99

System: 1,9-nonanedioic acid + 1,8-octanedioic acid; phases: Liquid, Crystal
Fixed: Pressure, kPa = 100
Property: Solid-liquid equilibrium temperature, K (Liquid); method: DTA
Mole fraction of 1,9-nonanedioic acid	Solid-liquid equilibrium temperature, K	uncertainty
0.79912	374.05	1
0.85042	375.82	1
0.90024	377.57	0.99
0.94637	378.71	0.99
1	379.089	0.986

System: 1,10-decanedioic acid + 1,9-nonanedioic acid; phases: Crystal, Liquid, Crystal, Air at 1 atmosphere
Property: Eutectic temperature, K (Crystal); method: DTA
Eutectic temperature, K	uncertainty
369.6	0.76

System: 1,10-decanedioic acid + 1,9-nonanedioic acid; phases: Liquid, Crystal
Fixed: Pressure, kPa = 100
Property: Solid-liquid equilibrium temperature, K (Liquid); method: DTA
Mole fraction of 1,9-nonanedioic acid	Solid-liquid equilibrium temperature, K	uncertainty
0	406.76	0.99
0.05339	406.07	0.99
0.10313	404.57	1.01
0.15189	401	1.01
0.20131	399.35	1
0.25072	396.95	1.01
0.29963	394.18	0.99
0.35063	394.96	1
0.39708	389.62	1.03
0.45253	387.61	1

System: 1,10-decanedioic acid + 1,9-nonanedioic acid; phases: Liquid, Crystal
Fixed: Pressure, kPa = 100
Property: Solid-liquid equilibrium temperature, K (Liquid); method: DTA
Mole fraction of 1,9-nonanedioic acid	Solid-liquid equilibrium temperature, K	uncertainty
0.84728	376.07	1.01
0.86799	377.14	0.99
0.90314	377.86	0.99
0.922	378.16	1
0.95315	380.03	0.99
1	379.89	0.99
