Measured thermophysical data. Density, Viscosity, Electrical Conductivity, and Surface Tension of Chelate-Based Ionic Liquids [C10mim][M(hfac)3] (M = Co, Ni, Cu) at Different Temperatures
Source: J. Chem. Eng. Data, 2019, 10.1021/acs.jced.9b00330
Compound 1: 1-decyl-3-methylimidazolium cobalt(II) hexafluoroacetylacetonate, C29H30CoF18N2O6, InChI=1S/C14H27N2.3C5HF6O2.Co/c1-3-4-5-6-7-8-9-10-11-16-13-12-15(2)14-16;3*6-4(7,8)2(12)1-3(13)5(9,10)11;/h12-14H,3-11H2,1-2H3;3*1H;/q+1;3*-1;+2, purity 99%
Compound 2: 1-decyl-3-methylimidazolium nickel(II) hexafluoroacetylacetonate, C29H30F18N2NiO6, InChI=1S/C14H27N2.3C5HF6O2.Ni/c1-3-4-5-6-7-8-9-10-11-16-13-12-15(2)14-16;3*6-4(7,8)2(12)1-3(13)5(9,10)11;/h12-14H,3-11H2,1-2H3;3*1H;/q+1;3*-1;+2, purity 99%
Compound 3: 1-decyl-3-methylimidazolium copper(II) hexafluoroacetylacetonate, C29H30CuF18N2O6, InChI=1S/C14H27N2.3C5HF6O2.Cu/c1-3-4-5-6-7-8-9-10-11-16-13-12-15(2)14-16;3*6-4(7,8)2(12)1-3(13)5(9,10)11;/h12-14H,3-11H2,1-2H3;3*1H;/q+1;3*-1;+2, purity 99%

System: 1-decyl-3-methylimidazolium cobalt(II) hexafluoroacetylacetonate; phases: Crystal, Liquid, Air at 1 atmosphere
Property: Triple point temperature, K (Crystal); method: DSC
Triple point temperature, K	uncertainty
311.2	0.88

System: 1-decyl-3-methylimidazolium cobalt(II) hexafluoroacetylacetonate; phases: Crystal, Liquid, Air at 1 atmosphere
Property: Molar enthalpy of transition or fusion, kJ/mol (Crystal); method: DSC
Molar enthalpy of transition or fusion, kJ/mol	uncertainty
21.710211987528	0.704701013328

System: 1-decyl-3-methylimidazolium cobalt(II) hexafluoroacetylacetonate; phases: Liquid
Fixed: Pressure, kPa = 100
Property: Mass density, kg/m3 (Liquid); method: Vibrating tube method
Temperature, K	Mass density, kg/m3	uncertainty
328.15	1379	1
330.65	1376	1
333.15	1373	1
335.65	1371	1
338.15	1368	1
340.65	1365	1
343.15	1362	1

System: 1-decyl-3-methylimidazolium cobalt(II) hexafluoroacetylacetonate; phases: Liquid
Fixed: Pressure, kPa = 100
Property: Viscosity, Pa*s (Liquid); method: Falling or rolling sphere viscometry
Temperature, K	Viscosity, Pa*s	uncertainty
328.15	0.16176	0.0077
330.65	0.14024	0.00492
333.15	0.1221	0.00372
335.65	0.10608	0.00315
338.15	0.09219	0.00196
340.65	0.08098	0.00138
343.15	0.07138	0.00101

System: 1-decyl-3-methylimidazolium cobalt(II) hexafluoroacetylacetonate; phases: Liquid
Fixed: Pressure, kPa = 100
Property: Electrical conductivity, S/m (Liquid); method: Alternating current cell with electrodes
Temperature, K	Electrical conductivity, S/m	uncertainty
323.15	0.01157	0.001
325.65	0.01383	0.001
328.15	0.01578	0.001
330.65	0.0184	0.00101
333.15	0.0211	0.001
335.65	0.025	0.001
338.15	0.0292	0.001
340.65	0.0332	0.001
343.15	0.038	0.001

System: 1-decyl-3-methylimidazolium cobalt(II) hexafluoroacetylacetonate; phases: Liquid, Gas
Property: Surface tension liquid-gas, N/m (Liquid); method: Maximal bubble pressure
Temperature, K	Surface tension liquid-gas, N/m	uncertainty
323.15	0.02584	0.00201
328.15	0.02297	0.00201
333.15	0.02215	0.00201
338.15	0.02144	0.00201
343.15	0.0207	0.00201

System: 1-decyl-3-methylimidazolium nickel(II) hexafluoroacetylacetonate; phases: Crystal, Liquid, Air at 1 atmosphere
Property: Triple point temperature, K (Crystal); method: DSC
Triple point temperature, K	uncertainty
316.43	0.88

System: 1-decyl-3-methylimidazolium nickel(II) hexafluoroacetylacetonate; phases: Crystal, Liquid, Air at 1 atmosphere
Property: Molar enthalpy of transition or fusion, kJ/mol (Crystal); method: DSC
Molar enthalpy of transition or fusion, kJ/mol	uncertainty
22.056706578192	0.713546199704

System: 1-decyl-3-methylimidazolium nickel(II) hexafluoroacetylacetonate; phases: Liquid
Fixed: Pressure, kPa = 100
Property: Mass density, kg/m3 (Liquid); method: Vibrating tube method
Temperature, K	Mass density, kg/m3	uncertainty
328.15	1374	1
330.65	1371	1
333.15	1368	1
335.65	1365	1
338.15	1362	1
340.65	1359	1
343.15	1356	1

System: 1-decyl-3-methylimidazolium nickel(II) hexafluoroacetylacetonate; phases: Liquid
Fixed: Pressure, kPa = 100
Property: Viscosity, Pa*s (Liquid); method: Falling or rolling sphere viscometry
Temperature, K	Viscosity, Pa*s	uncertainty
328.15	0.19252	0.00965
330.65	0.15716	0.00611
333.15	0.13406	0.00458
335.65	0.11663	0.00338
338.15	0.10183	0.00249
340.65	0.08879	0.00177
343.15	0.07817	0.00124

System: 1-decyl-3-methylimidazolium nickel(II) hexafluoroacetylacetonate; phases: Liquid
Fixed: Pressure, kPa = 100
Property: Electrical conductivity, S/m (Liquid); method: Alternating current cell with electrodes
Temperature, K	Electrical conductivity, S/m	uncertainty
323.15	0.00897	0.001
325.65	0.01036	0.001
328.15	0.01223	0.001
330.65	0.01392	0.001
333.15	0.01642	0.00101
335.65	0.01898	0.00101
338.15	0.0225	0.001
340.65	0.0268	0.001
343.15	0.0306	0.001

System: 1-decyl-3-methylimidazolium nickel(II) hexafluoroacetylacetonate; phases: Liquid, Gas
Property: Surface tension liquid-gas, N/m (Liquid); method: Maximal bubble pressure
Temperature, K	Surface tension liquid-gas, N/m	uncertainty
323.15	0.02598	0.00201
328.15	0.02321	0.00201
333.15	0.02232	0.00201
338.15	0.02165	0.00201
343.15	0.02092	0.00201

System: 1-decyl-3-methylimidazolium copper(II) hexafluoroacetylacetonate; phases: Crystal, Liquid, Air at 1 atmosphere
Property: Triple point temperature, K (Crystal); method: DSC
Triple point temperature, K	uncertainty
317.82	0.88

System: 1-decyl-3-methylimidazolium copper(II) hexafluoroacetylacetonate; phases: Crystal, Liquid, Air at 1 atmosphere
Property: Molar enthalpy of transition or fusion, kJ/mol (Crystal); method: DSC
Molar enthalpy of transition or fusion, kJ/mol	uncertainty
26.234305170264	0.762783535584

System: 1-decyl-3-methylimidazolium copper(II) hexafluoroacetylacetonate; phases: Liquid
Fixed: Pressure, kPa = 100
Property: Mass density, kg/m3 (Liquid); method: Vibrating tube method
Temperature, K	Mass density, kg/m3	uncertainty
328.15	1395	1
330.65	1392	1
333.15	1389	1
335.65	1386	1
338.15	1383	1
340.65	1380	1
343.15	1378	1

System: 1-decyl-3-methylimidazolium copper(II) hexafluoroacetylacetonate; phases: Liquid
Fixed: Pressure, kPa = 100
Property: Viscosity, Pa*s (Liquid); method: Falling or rolling sphere viscometry
Temperature, K	Viscosity, Pa*s	uncertainty
328.15	0.10995	0.005
330.65	0.0974	0.00266
333.15	0.08389	0.00346
335.65	0.07416	0.00169
338.15	0.06527	0.00118
340.65	0.05807	0.00044
343.15	0.05302	0.001

System: 1-decyl-3-methylimidazolium copper(II) hexafluoroacetylacetonate; phases: Liquid
Fixed: Pressure, kPa = 100
Property: Electrical conductivity, S/m (Liquid); method: Alternating current cell with electrodes
Temperature, K	Electrical conductivity, S/m	uncertainty
323.15	0.0204	0.001
325.65	0.0246	0.001
328.15	0.0283	0.001
330.65	0.0323	0.001
333.15	0.0371	0.001
335.65	0.0421	0.001
338.15	0.0476	0.001
340.65	0.0532	0.001
343.15	0.0592	0.001

System: 1-decyl-3-methylimidazolium copper(II) hexafluoroacetylacetonate; phases: Liquid, Gas
Property: Surface tension liquid-gas, N/m (Liquid); method: Maximal bubble pressure
Temperature, K	Surface tension liquid-gas, N/m	uncertainty
323.15	0.02565	0.00201
328.15	0.02276	0.00201
333.15	0.02201	0.00201
338.15	0.02122	0.00201
343.15	0.02054	0.00201
