Measured thermophysical data. Viscosities, Densities, and Refractive Indices of Aqueous Propane-1,3-diol
Source: J. Chem. Eng. Data, 2018, 10.1021/acs.jced.8b00403
Compound 1: propan-1,3-diol, C3H8O2, InChI=1S/C3H8O2/c4-2-1-3-5/h4-5H,1-3H2, purity 99.8%
Compound 2: water, H2O, InChI=1S/H2O/h1H2, purity 99.9%
Compound 3: 1,2-propanediol, C3H8O2, InChI=1S/C3H8O2/c1-3(5)2-4/h3-5H,2H2,1H3, purity 99.5%

System: propan-1,3-diol; phases: Liquid
Fixed: Pressure, kPa = 101.325
Property: Mass density, kg/m3 (Liquid); method: Vibrating tube method
Temperature, K	Mass density, kg/m3	uncertainty
273.15	1065.9	8
283.15	1059.8	8
293.15	1053.6	8
303.15	1047.4	8
313.15	1041.1	8
323.15	1034.8	8
333.15	1028.4	8
343.15	1021.9	8
353.15	1015.3	8
253.15	1078.2	8
258.15	1075.4	8
263.15	1072.3	8
268.15	1069	8

System: propan-1,3-diol; phases: Liquid
Fixed: Pressure, kPa = 101.325
Property: Viscosity, Pa*s (Liquid); method: Concentric cylinders viscometry
Temperature, K	Viscosity, Pa*s	uncertainty
273.15	0.15275	0.04587
283.15	0.086483	0.025952
293.15	0.052007	0.015602
303.15	0.032921	0.009877
313.15	0.021791	0.006538
323.15	0.015	0.0045
333.15	0.01072	0.003216
343.15	0.0078549	0.0023566
353.15	0.0059158	0.0017749
253.15	0.57439	0.17318
258.15	0.40988	0.12342
263.15	0.2895	0.08708
268.15	0.20788	0.06247

System: propan-1,3-diol; phases: Liquid
Fixed: Pressure, kPa = 101.325
Property: Refractive index (Na D-line) (Liquid); method: Standard Abbe refractometry
Temperature, K	Refractive index (Na D-line)	uncertainty
278.15	1.4436	0.001
283.15	1.4423	0.001
288.15	1.4409	0.001
293.15	1.4395	0.001
298.15	1.4381	0.001
303.15	1.4368	0.001
308.15	1.4354	0.001
313.15	1.434	0.001
318.15	1.4325	0.001

System: water; phases: Liquid
Fixed: Pressure, kPa = 101.325
Property: Mass density, kg/m3 (Liquid); method: Vibrating tube method
Temperature, K	Mass density, kg/m3	uncertainty
273.15	1000.8	8
283.15	1000.6	8
293.15	999.3	8
303.15	996.8	8
313.15	993.2	8
323.15	989	8
333.15	984.4	8
343.15	978.6	8
353.15	972.7	8

System: water; phases: Liquid
Fixed: Pressure, kPa = 101.325
Property: Viscosity, Pa*s (Liquid); method: Concentric cylinders viscometry
Temperature, K	Viscosity, Pa*s	uncertainty
273.15	0.0018253	0.0005477
283.15	0.0013453	0.0004037
293.15	0.0010407	0.0003123
303.15	0.0008467	0.0002541
313.15	0.0006997	0.00021
323.15	0.0005967	0.0001791
333.15	0.0005091	0.0001528
343.15	0.0004355	0.0001307
353.15	0.0003911	0.0001174

System: water; phases: Liquid
Fixed: Pressure, kPa = 101.325
Property: Refractive index (Na D-line) (Liquid); method: Standard Abbe refractometry
Temperature, K	Refractive index (Na D-line)	uncertainty
278.15	1.3341	0.001
283.15	1.3338	0.001
288.15	1.3335	0.001
293.15	1.3331	0.001
298.15	1.3326	0.001
303.15	1.332	0.001
308.15	1.3313	0.001
313.15	1.3306	0.001
318.15	1.3298	0.001

System: 1,2-propanediol; phases: Liquid
Fixed: Pressure, kPa = 101.325
Property: Mass density, kg/m3 (Liquid); method: Vibrating tube method
Temperature, K	Mass density, kg/m3	uncertainty
273.15	1051.3	8
283.15	1042.9	8
293.15	1035.5	8
303.15	1028.1	8
313.15	1020.6	8
323.15	1013	8
333.15	1005.3	8
343.15	997.7	8
353.15	989.5	8
253.15	1065.8	8
258.15	1062.2	8
263.15	1058.6	8
268.15	1054.9	8

System: 1,2-propanediol; phases: Liquid
Fixed: Pressure, kPa = 101.325
Property: Viscosity, Pa*s (Liquid); method: Concentric cylinders viscometry
Temperature, K	Viscosity, Pa*s	uncertainty
273.15	0.258	0.07758
283.15	0.11668	0.03503
293.15	0.059749	0.017926
303.15	0.033263	0.00998
313.15	0.019925	0.005978
323.15	0.012679	0.003804
333.15	0.0084977	0.0025496
343.15	0.0059497	0.0017851
353.15	0.0043322	0.0012998
253.15	1.77235	0.53738
258.15	1.0383	0.31391
263.15	0.63108	0.19036
268.15	0.39699	0.11953

System: 1,2-propanediol; phases: Liquid
Fixed: Pressure, kPa = 101.325
Property: Refractive index (Na D-line) (Liquid); method: Standard Abbe refractometry
Temperature, K	Refractive index (Na D-line)	uncertainty
278.15	1.438	0.001
283.15	1.4364	0.001
288.15	1.4348	0.001
293.15	1.4332	0.001
298.15	1.4315	0.001
303.15	1.4299	0.001
308.15	1.4281	0.001
313.15	1.4264	0.001
318.15	1.4247	0.001

System: propan-1,3-diol + water; phases: Liquid
Fixed: Pressure, kPa = 101.325
Property: Mass density, kg/m3 (Liquid); method: Vibrating tube method
Temperature, K	Mass fraction of propan-1,3-diol	Mass density, kg/m3	uncertainty
273.15	0	1000.8	8
273.15	0.1113	1009.7	8
273.15	0.2226	1021.3	8
273.15	0.334	1032.5	8
273.15	0.4453	1043.7	8
273.15	0.501	1048.1	8
273.15	0.6123	1056.9	8
273.15	0.7236	1062.7	8
273.15	0.8349	1066.3	8
273.15	0.9277	1067.1	8
273.15	1	1065.9	8
283.15	0	1000.6	8
283.15	0.1113	1008.8	8
283.15	0.2226	1019.2	8
283.15	0.334	1029.2	8
283.15	0.4453	1039.3	8
283.15	0.501	1043.3	8
283.15	0.6123	1051.4	8
283.15	0.7236	1056.8	8
283.15	0.8349	1060.2	8
283.15	0.9277	1061	8
283.15	1	1059.8	8
293.15	0	999.3	8
293.15	0.1113	1006.7	8
293.15	0.2226	1016.3	8
293.15	0.334	1025.4	8
293.15	0.4453	1034.5	8
293.15	0.501	1038.3	8
293.15	0.6123	1045.7	8
293.15	0.7236	1050.9	8
293.15	0.8349	1054	8
293.15	0.9277	1054.7	8
293.15	1	1053.6	8
303.15	0	996.8	8
303.15	0.1113	1004.1	8
303.15	0.2226	1012.9	8
303.15	0.334	1021.1	8
303.15	0.4453	1029.5	8
303.15	0.501	1033	8
303.15	0.6123	1039.9	8
303.15	0.7236	1044.8	8
303.15	0.8349	1047.8	8
303.15	0.9277	1048.5	8
303.15	1	1047.4	8
313.15	0	993.2	8
313.15	0.1113	1000.4	8
313.15	0.2226	1008.3	8
313.15	0.334	1016.3	8
313.15	0.4453	1023.9	8
313.15	0.501	1027.3	8
313.15	0.6123	1033.8	8
313.15	0.7236	1038.6	8
313.15	0.8349	1041.5	8
313.15	0.9277	1042.2	8
313.15	1	1041.1	8
323.15	0	989	8
323.15	0.1113	996.2	8
323.15	0.2226	1003.5	8
323.15	0.334	1010.8	8
323.15	0.4453	1018.1	8
323.15	0.501	1021.3	8
323.15	0.6123	1027.4	8
323.15	0.7236	1032.1	8
323.15	0.8349	1035	8
323.15	0.9277	1035.8	8
323.15	1	1034.8	8
333.15	0	984.4	8
333.15	0.1113	991.1	8
333.15	0.2226	998.3	8
333.15	0.334	1005.2	8
333.15	0.4453	1011.8	8
333.15	0.501	1014.8	8
333.15	0.6123	1020.9	8
333.15	0.7236	1025.4	8
333.15	0.8349	1028.3	8
333.15	0.9277	1029.3	8
333.15	1	1028.4	8
343.15	0	978.6	8
343.15	0.1113	985.3	8
343.15	0.2226	992.4	8
343.15	0.334	999.3	8
343.15	0.4453	1005.3	8
343.15	0.501	1008.4	8
343.15	0.6123	1014.1	8
343.15	0.7236	1018.5	8
343.15	0.8349	1021.5	8
343.15	0.9277	1022.6	8
343.15	1	1021.9	8
353.15	0	972.7	8
353.15	0.1113	978.6	8
353.15	0.2226	986.3	8
353.15	0.334	992.6	8
353.15	0.4453	998.5	8
353.15	0.501	1001.2	8
353.15	0.6123	1006.8	8
353.15	0.7236	1011.7	8
353.15	0.8349	1014.4	8
353.15	0.9277	1015.8	8
353.15	1	1015.3	8
253.15	0.4453	1053.7	8
253.15	0.501	1058	8
253.15	0.6123	1068.2	8
253.15	0.7236	1074.9	8
253.15	0.8349	1078.5	8
253.15	0.9277	1079.6	8
253.15	1	1078.2	8
258.15	0.4453	1051.8	8
258.15	0.501	1055.9	8
258.15	0.6123	1065.8	8
258.15	0.7236	1072.2	8
258.15	0.8349	1075.5	8
258.15	0.9277	1076.5	8
258.15	1	1075.4	8
263.15	0.334	1035.2	8
263.15	0.4453	1047.7	8
263.15	0.501	1052.5	8
263.15	0.6123	1062.1	8
263.15	0.7236	1068.4	8
263.15	0.8349	1072.2	8
263.15	0.9277	1073.2	8
263.15	1	1072.3	8
268.15	0.2226	1022.1	8
268.15	0.334	1033.9	8
268.15	0.4453	1045.7	8
268.15	0.501	1050.3	8
268.15	0.6123	1059.5	8
268.15	0.7236	1065.6	8
268.15	0.8349	1069.3	8
268.15	0.9277	1070.1	8
268.15	1	1069	8

System: propan-1,3-diol + water; phases: Liquid
Fixed: Pressure, kPa = 101.325
Property: Viscosity, Pa*s (Liquid); method: Concentric cylinders viscometry
Temperature, K	Mass fraction of propan-1,3-diol	Viscosity, Pa*s	uncertainty
273.15	0	0.0018253	0.0005477
273.15	0.1113	0.002894	0.0008683
273.15	0.2226	0.0046953	0.0014087
273.15	0.334	0.0072567	0.0021772
273.15	0.4453	0.011739	0.003522
273.15	0.501	0.014517	0.004355
273.15	0.6123	0.024879	0.007464
273.15	0.7236	0.041578	0.012474
273.15	0.8349	0.070714	0.021217
273.15	0.9277	0.10969	0.03293
273.15	1	0.15275	0.04587
283.15	0	0.0013453	0.0004037
283.15	0.1113	0.0020548	0.0006165
283.15	0.2226	0.003165	0.0009496
283.15	0.334	0.0047484	0.0014247
283.15	0.4453	0.0074508	0.0022354
283.15	0.501	0.0090999	0.0027302
283.15	0.6123	0.015098	0.00453
283.15	0.7236	0.024571	0.007372
283.15	0.8349	0.040764	0.01223
283.15	0.9277	0.06232	0.018697
283.15	1	0.086483	0.025952
293.15	0	0.0010407	0.0003123
293.15	0.1113	0.0015287	0.0004587
293.15	0.2226	0.0022507	0.0006753
293.15	0.334	0.0033182	0.0009956
293.15	0.4453	0.0050346	0.0015105
293.15	0.501	0.0060744	0.0018225
293.15	0.6123	0.0097704	0.0029314
293.15	0.7236	0.01548	0.004644
293.15	0.8349	0.024995	0.007499
293.15	0.9277	0.037604	0.011282
293.15	1	0.052007	0.015602
303.15	0	0.0008467	0.0002541
303.15	0.1113	0.0011893	0.0003569
303.15	0.2226	0.0016894	0.0005069
303.15	0.334	0.0024215	0.0007265
303.15	0.4453	0.0035854	0.0010757
303.15	0.501	0.0043059	0.0012919
303.15	0.6123	0.0067242	0.0020174
303.15	0.7236	0.010323	0.003097
303.15	0.8349	0.016257	0.004877
303.15	0.9277	0.02403	0.00721
303.15	1	0.032921	0.009877
313.15	0	0.0006997	0.00021
313.15	0.1113	0.0009825	0.0002948
313.15	0.2226	0.0013321	0.0003997
313.15	0.334	0.0018575	0.0005573
313.15	0.4453	0.0026594	0.0007979
313.15	0.501	0.0031485	0.0009447
313.15	0.6123	0.0047253	0.0014177
313.15	0.7236	0.0071844	0.0021555
313.15	0.8349	0.011049	0.003315
313.15	0.9277	0.016044	0.004814
313.15	1	0.021791	0.006538
323.15	0	0.0005967	0.0001791
323.15	0.1113	0.0007887	0.0002367
323.15	0.2226	0.0010758	0.0003228
323.15	0.334	0.0014647	0.0004395
323.15	0.4453	0.0020513	0.0006155
323.15	0.501	0.002401	0.0007204
323.15	0.6123	0.0035225	0.0010569
323.15	0.7236	0.0052193	0.0015659
323.15	0.8349	0.007801	0.0023405
323.15	0.9277	0.011149	0.003345
323.15	1	0.015	0.0045
333.15	0	0.0005091	0.0001528
333.15	0.1113	0.0006769	0.0002031
333.15	0.2226	0.0008845	0.0002654
333.15	0.334	0.001194	0.0003583
333.15	0.4453	0.0016408	0.0004923
333.15	0.501	0.0018845	0.0005654
333.15	0.6123	0.0026983	0.0008096
333.15	0.7236	0.0038996	0.00117
333.15	0.8349	0.0057131	0.0017141
333.15	0.9277	0.0080231	0.0024071
333.15	1	0.01072	0.003216
343.15	0	0.0004355	0.0001307
343.15	0.1113	0.0005651	0.0001696
343.15	0.2226	0.0007245	0.0002174
343.15	0.334	0.0009821	0.0002947
343.15	0.4453	0.0013015	0.0003905
343.15	0.501	0.0015117	0.0004536
343.15	0.6123	0.0021229	0.000637
343.15	0.7236	0.0030098	0.000903
343.15	0.8349	0.0043029	0.001291
343.15	0.9277	0.0059334	0.0017802
343.15	1	0.0078549	0.0023566
353.15	0	0.0003911	0.0001174
353.15	0.1113	0.0004871	0.0001462
353.15	0.2226	0.0006668	0.0002001
353.15	0.334	0.0008548	0.0002565
353.15	0.4453	0.0010901	0.0003271
353.15	0.501	0.0012104	0.0003632
353.15	0.6123	0.001731	0.0005194
353.15	0.7236	0.0024228	0.0007269
353.15	0.8349	0.0033174	0.0009953
353.15	0.9277	0.0045146	0.0013545
353.15	1	0.0059158	0.0017749
253.15	0.4453	0.040115	0.012035
253.15	0.501	0.049086	0.014727
253.15	0.6123	0.085871	0.025769
253.15	0.7236	0.15867	0.04766
253.15	0.8349	0.26781	0.08054
253.15	0.9277	0.41856	0.12605
253.15	1	0.57439	0.17318
258.15	0.4453	0.029024	0.008708
258.15	0.501	0.03524	0.010573
258.15	0.6123	0.063149	0.018946
258.15	0.7236	0.11064	0.03321
258.15	0.8349	0.18418	0.05534
258.15	0.9277	0.2933	0.08823
258.15	1	0.40988	0.12342
263.15	0.334	0.012021	0.003607
263.15	0.4453	0.019914	0.005975
263.15	0.501	0.02497	0.007492
263.15	0.6123	0.044198	0.013261
263.15	0.7236	0.076181	0.022859
263.15	0.8349	0.13229	0.03972
263.15	0.9277	0.20653	0.06207
263.15	1	0.2895	0.08708
268.15	0.2226	0.0059079	0.0017725
268.15	0.334	0.0092516	0.0027757
268.15	0.4453	0.015119	0.004536
268.15	0.501	0.01881	0.005644
268.15	0.6123	0.032816	0.009846
268.15	0.7236	0.055718	0.016716
268.15	0.8349	0.09575	0.028736
268.15	0.9277	0.14924	0.04482
268.15	1	0.20788	0.06247

System: propan-1,3-diol + water; phases: Liquid
Fixed: Pressure, kPa = 101.325
Property: Refractive index (Na D-line) (Liquid); method: Standard Abbe refractometry
Temperature, K	Mass fraction of propan-1,3-diol	Refractive index (Na D-line)	uncertainty
278.15	0	1.3341	0.001
278.15	0.1113	1.3466	0.001
278.15	0.2226	1.3599	0.001
278.15	0.334	1.374	0.001
278.15	0.4453	1.3866	0.001
278.15	0.501	1.3931	0.001
278.15	0.6123	1.4066	0.001
278.15	0.7236	1.4181	0.001
278.15	0.8349	1.4289	0.001
278.15	0.9277	1.4371	0.001
278.15	1	1.4436	0.001
283.15	0	1.3338	0.001
283.15	0.1113	1.3462	0.001
283.15	0.2226	1.3592	0.001
283.15	0.334	1.3729	0.001
283.15	0.4453	1.3856	0.001
283.15	0.501	1.3921	0.001
283.15	0.6123	1.4055	0.001
283.15	0.7236	1.4169	0.001
283.15	0.8349	1.4276	0.001
283.15	0.9277	1.4358	0.001
283.15	1	1.4423	0.001
288.15	0	1.3335	0.001
288.15	0.1113	1.3457	0.001
288.15	0.2226	1.3586	0.001
288.15	0.334	1.3719	0.001
288.15	0.4453	1.3845	0.001
288.15	0.501	1.391	0.001
288.15	0.6123	1.4041	0.001
288.15	0.7236	1.4157	0.001
288.15	0.8349	1.4263	0.001
288.15	0.9277	1.4345	0.001
288.15	1	1.4409	0.001
293.15	0	1.3331	0.001
293.15	0.1113	1.3452	0.001
293.15	0.2226	1.3579	0.001
293.15	0.334	1.371	0.001
293.15	0.4453	1.3835	0.001
293.15	0.501	1.3899	0.001
293.15	0.6123	1.4029	0.001
293.15	0.7236	1.4145	0.001
293.15	0.8349	1.425	0.001
293.15	0.9277	1.4332	0.001
293.15	1	1.4395	0.001
298.15	0	1.3326	0.001
298.15	0.1113	1.3446	0.001
298.15	0.2226	1.3572	0.001
298.15	0.334	1.3702	0.001
298.15	0.4453	1.3825	0.001
298.15	0.501	1.3888	0.001
298.15	0.6123	1.4015	0.001
298.15	0.7236	1.4133	0.001
298.15	0.8349	1.4237	0.001
298.15	0.9277	1.4319	0.001
298.15	1	1.4381	0.001
303.15	0	1.332	0.001
303.15	0.1113	1.344	0.001
303.15	0.2226	1.3564	0.001
303.15	0.334	1.3693	0.001
303.15	0.4453	1.3815	0.001
303.15	0.501	1.3876	0.001
303.15	0.6123	1.4002	0.001
303.15	0.7236	1.4118	0.001
303.15	0.8349	1.4224	0.001
303.15	0.9277	1.4304	0.001
303.15	1	1.4368	0.001
308.15	0	1.3313	0.001
308.15	0.1113	1.3434	0.001
308.15	0.2226	1.3558	0.001
308.15	0.334	1.3684	0.001
308.15	0.4453	1.3804	0.001
308.15	0.501	1.3865	0.001
308.15	0.6123	1.3989	0.001
308.15	0.7236	1.4103	0.001
308.15	0.8349	1.4211	0.001
308.15	0.9277	1.4289	0.001
308.15	1	1.4354	0.001
313.15	0	1.3306	0.001
313.15	0.1113	1.3426	0.001
313.15	0.2226	1.355	0.001
313.15	0.334	1.3676	0.001
313.15	0.4453	1.3793	0.001
313.15	0.501	1.3854	0.001
313.15	0.6123	1.3977	0.001
313.15	0.7236	1.4089	0.001
313.15	0.8349	1.4197	0.001
313.15	0.9277	1.4275	0.001
313.15	1	1.434	0.001
318.15	0	1.3298	0.001
318.15	0.1113	1.3418	0.001
318.15	0.2226	1.3541	0.001
318.15	0.334	1.3668	0.001
318.15	0.4453	1.3782	0.001
318.15	0.501	1.3845	0.001
318.15	0.6123	1.3965	0.001
318.15	0.7236	1.4075	0.001
318.15	0.8349	1.4182	0.001
318.15	0.9277	1.4261	0.001
318.15	1	1.4325	0.001

System: 1,2-propanediol + water; phases: Liquid
Fixed: Pressure, kPa = 101.325
Property: Mass density, kg/m3 (Liquid); method: Vibrating tube method
Temperature, K	Mass fraction of 1,2-propanediol	Mass density, kg/m3	uncertainty
273.15	0	1000.8	8
273.15	0.0988	1009.8	8
273.15	0.198	1020.8	8
273.15	0.3312	1036.3	8
273.15	0.5005	1051.1	8
273.15	0.672	1057.5	8
273.15	0.8044	1057.6	8
273.15	0.9481	1053.8	8
273.15	1	1051.3	8
283.15	0	1000.6	8
283.15	0.0988	1008.2	8
283.15	0.198	1017.8	8
283.15	0.3312	1031.2	8
283.15	0.5005	1044.6	8
283.15	0.672	1050.5	8
283.15	0.8044	1050.4	8
283.15	0.9481	1045.6	8
283.15	1	1042.9	8
293.15	0	999.3	8
293.15	0.0988	1005.7	8
293.15	0.198	1014.5	8
293.15	0.3312	1026.3	8
293.15	0.5005	1038.1	8
293.15	0.672	1043.2	8
293.15	0.8044	1042.9	8
293.15	0.9481	1038.2	8
293.15	1	1035.5	8
303.15	0	996.8	8
303.15	0.0988	1002.6	8
303.15	0.198	1010.6	8
303.15	0.3312	1021	8
303.15	0.5005	1031.4	8
303.15	0.672	1035.9	8
303.15	0.8044	1035.4	8
303.15	0.9481	1030.8	8
303.15	1	1028.1	8
313.15	0	993.2	8
313.15	0.0988	999	8
313.15	0.198	1006	8
313.15	0.3312	1015.3	8
313.15	0.5005	1024.5	8
313.15	0.672	1028.4	8
313.15	0.8044	1027.8	8
313.15	0.9481	1023.2	8
313.15	1	1020.6	8
323.15	0	989	8
323.15	0.0988	994.4	8
323.15	0.198	1000.8	8
323.15	0.3312	1009.2	8
323.15	0.5005	1017.4	8
323.15	0.672	1020.8	8
323.15	0.8044	1020.1	8
323.15	0.9481	1015.6	8
323.15	1	1013	8
333.15	0	984.4	8
333.15	0.0988	989.3	8
333.15	0.198	995.4	8
333.15	0.3312	1002.7	8
333.15	0.5005	1010	8
333.15	0.672	1013	8
333.15	0.8044	1012.2	8
333.15	0.9481	1007.8	8
333.15	1	1005.3	8
343.15	0	978.6	8
343.15	0.0988	983.5	8
343.15	0.198	989.2	8
343.15	0.3312	996	8
343.15	0.5005	1002.3	8
343.15	0.672	1004.9	8
343.15	0.8044	1004.1	8
343.15	0.9481	999.8	8
343.15	1	997.7	8
353.15	0	972.7	8
353.15	0.0988	977.2	8
353.15	0.198	982.5	8
353.15	0.3312	988.9	8
353.15	0.5005	994.6	8
353.15	0.672	996.9	8
353.15	0.8044	996	8
353.15	0.9481	991.9	8
353.15	1	989.5	8
253.15	0.5005	1062.5	8
253.15	0.672	1070.8	8
253.15	0.8044	1071.6	8
253.15	0.9481	1068.2	8
253.15	1	1065.8	8
258.15	0.3312	1041.7	8
258.15	0.5005	1059.8	8
258.15	0.672	1067.6	8
258.15	0.8044	1068.1	8
258.15	0.9481	1064.7	8
258.15	1	1062.2	8
263.15	0.3312	1040	8
263.15	0.5005	1056.9	8
263.15	0.672	1064.3	8
263.15	0.8044	1064.5	8
263.15	0.9481	1061	8
263.15	1	1058.6	8
268.15	0.198	1021.7	8
268.15	0.3312	1038.15	8
268.15	0.5005	1054	8
268.15	0.672	1060.9	8
268.15	0.8044	1061.1	8
268.15	0.9481	1057.4	8
268.15	1	1054.9	8

System: 1,2-propanediol + water; phases: Liquid
Fixed: Pressure, kPa = 101.325
Property: Viscosity, Pa*s (Liquid); method: Concentric cylinders viscometry
Temperature, K	Mass fraction of 1,2-propanediol	Viscosity, Pa*s	uncertainty
273.15	0	0.0018253	0.0005477
273.15	0.0988	0.0028771	0.0008632
273.15	0.198	0.0045523	0.0013658
273.15	0.3312	0.0086548	0.0025967
273.15	0.5005	0.019118	0.005736
273.15	0.672	0.040161	0.012049
273.15	0.8044	0.075048	0.022519
273.15	0.9481	0.16913	0.05081
273.15	1	0.258	0.07758
283.15	0	0.0013453	0.0004037
283.15	0.0988	0.0019913	0.0005975
283.15	0.198	0.0030171	0.0009052
283.15	0.3312	0.0053058	0.0015919
283.15	0.5005	0.010826	0.003248
283.15	0.672	0.02124	0.006373
283.15	0.8044	0.038416	0.011526
283.15	0.9481	0.086694	0.026017
283.15	1	0.11668	0.03503
293.15	0	0.0010407	0.0003123
293.15	0.0988	0.0014543	0.0004364
293.15	0.198	0.0021715	0.0006515
293.15	0.3312	0.0035359	0.0010609
293.15	0.5005	0.0067409	0.0020225
293.15	0.672	0.012577	0.003773
293.15	0.8044	0.021746	0.006525
293.15	0.9481	0.045665	0.013701
293.15	1	0.059749	0.017926
303.15	0	0.0008467	0.0002541
303.15	0.0988	0.0011483	0.0003446
303.15	0.198	0.0015988	0.0004797
303.15	0.3312	0.0025027	0.0007509
303.15	0.5005	0.0045104	0.0013533
303.15	0.672	0.0080096	0.0024031
303.15	0.8044	0.013276	0.003983
303.15	0.9481	0.026095	0.007829
303.15	1	0.033263	0.00998
313.15	0	0.0006997	0.00021
313.15	0.0988	0.0009194	0.0002759
313.15	0.198	0.0012408	0.0003723
313.15	0.3312	0.0018584	0.0005576
313.15	0.5005	0.0031659	0.0009499
313.15	0.672	0.0053981	0.0016196
313.15	0.8044	0.0086379	0.0025916
313.15	0.9481	0.015998	0.0048
313.15	1	0.019925	0.005978
323.15	0	0.0005967	0.0001791
323.15	0.0988	0.0007541	0.0002263
323.15	0.198	0.0009933	0.0002981
323.15	0.3312	0.0014361	0.0004309
323.15	0.5005	0.0023446	0.0007035
323.15	0.672	0.0038524	0.0011558
323.15	0.8044	0.0059378	0.0017815
323.15	0.9481	0.010396	0.003119
323.15	1	0.012679	0.003804
333.15	0	0.0005091	0.0001528
333.15	0.0988	0.0006304	0.0001892
333.15	0.198	0.0008167	0.0002451
333.15	0.3312	0.0011453	0.0003437
333.15	0.5005	0.0018017	0.0005406
333.15	0.672	0.0028519	0.0008557
333.15	0.8044	0.0042473	0.0012743
333.15	0.9481	0.0070936	0.0021283
333.15	1	0.0084977	0.0025496
343.15	0	0.0004355	0.0001307
343.15	0.0988	0.0005375	0.0001613
343.15	0.198	0.0006869	0.0002061
343.15	0.3312	0.0009408	0.0002823
343.15	0.5005	0.0014252	0.0004276
343.15	0.672	0.0021875	0.0006563
343.15	0.8044	0.0031609	0.0009484
343.15	0.9481	0.0050531	0.0015161
343.15	1	0.0059497	0.0017851
353.15	0	0.0003911	0.0001174
353.15	0.0988	0.0004666	0.0001401
353.15	0.198	0.0005856	0.0001758
353.15	0.3312	0.0007888	0.0002367
353.15	0.5005	0.0011617	0.0003486
353.15	0.672	0.0017328	0.0005199
353.15	0.8044	0.0024329	0.00073
353.15	0.9481	0.0037341	0.0011204
353.15	1	0.0043322	0.0012998
253.15	0.5005	0.084936	0.025489
253.15	0.672	0.20436	0.06142
253.15	0.8044	0.41571	0.1252
253.15	0.9481	1.06695	0.32262
253.15	1	1.77235	0.53738
258.15	0.3312	0.021949	0.006586
258.15	0.5005	0.055335	0.016602
258.15	0.672	0.12854	0.03859
258.15	0.8044	0.2562	0.07704
258.15	0.9481	0.63889	0.19273
258.15	1	1.0383	0.31391
263.15	0.3312	0.015587	0.004677
263.15	0.5005	0.037517	0.011256
263.15	0.672	0.084222	0.025274
263.15	0.8044	0.16462	0.04945
263.15	0.9481	0.39661	0.11942
263.15	1	0.63108	0.19036
268.15	0.198	0.0057797	0.0017341
268.15	0.3312	0.011445	0.003434
268.15	0.5005	0.026373	0.007913
268.15	0.672	0.057218	0.017167
268.15	0.8044	0.10937	0.03283
268.15	0.9481	0.25476	0.07661
268.15	1	0.39699	0.11953

System: 1,2-propanediol + water; phases: Liquid
Fixed: Pressure, kPa = 101.325
Property: Refractive index (Na D-line) (Liquid); method: Standard Abbe refractometry
Temperature, K	Mass fraction of 1,2-propanediol	Refractive index (Na D-line)	uncertainty
278.15	0	1.3341	0.001
278.15	0.0988	1.3458	0.001
278.15	0.198	1.3578	0.001
278.15	0.3312	1.374	0.001
278.15	0.5005	1.3946	0.001
278.15	0.672	1.4112	0.001
278.15	0.8044	1.4231	0.001
278.15	0.9481	1.4343	0.001
278.15	1	1.438	0.001
283.15	0	1.3338	0.001
283.15	0.0988	1.3454	0.001
283.15	0.198	1.3571	0.001
283.15	0.3312	1.373	0.001
283.15	0.5005	1.3932	0.001
283.15	0.672	1.4098	0.001
283.15	0.8044	1.4216	0.001
283.15	0.9481	1.4328	0.001
283.15	1	1.4364	0.001
288.15	0	1.3335	0.001
288.15	0.0988	1.3449	0.001
288.15	0.198	1.3564	0.001
288.15	0.3312	1.372	0.001
288.15	0.5005	1.3918	0.001
288.15	0.672	1.4084	0.001
288.15	0.8044	1.42	0.001
288.15	0.9481	1.4312	0.001
288.15	1	1.4348	0.001
293.15	0	1.3331	0.001
293.15	0.0988	1.3444	0.001
293.15	0.198	1.3557	0.001
293.15	0.3312	1.371	0.001
293.15	0.5005	1.3903	0.001
293.15	0.672	1.4069	0.001
293.15	0.8044	1.4184	0.001
293.15	0.9481	1.4296	0.001
293.15	1	1.4332	0.001
298.15	0	1.3326	0.001
298.15	0.0988	1.3432	0.001
298.15	0.198	1.355	0.001
298.15	0.3312	1.3699	0.001
298.15	0.5005	1.3889	0.001
298.15	0.672	1.4054	0.001
298.15	0.8044	1.4168	0.001
298.15	0.9481	1.428	0.001
298.15	1	1.4315	0.001
303.15	0	1.332	0.001
303.15	0.0988	1.3432	0.001
303.15	0.198	1.3542	0.001
303.15	0.3312	1.3689	0.001
303.15	0.5005	1.3874	0.001
303.15	0.672	1.4039	0.001
303.15	0.8044	1.415	0.001
303.15	0.9481	1.4264	0.001
303.15	1	1.4299	0.001
308.15	0	1.3313	0.001
308.15	0.0988	1.3424	0.001
308.15	0.198	1.3534	0.001
308.15	0.3312	1.368	0.001
308.15	0.5005	1.3862	0.001
308.15	0.672	1.4024	0.001
308.15	0.8044	1.4135	0.001
308.15	0.9481	1.4248	0.001
308.15	1	1.4281	0.001
313.15	0	1.3306	0.001
313.15	0.0988	1.3416	0.001
313.15	0.198	1.3534	0.001
313.15	0.3312	1.3671	0.001
313.15	0.5005	1.3851	0.001
313.15	0.672	1.4008	0.001
313.15	0.8044	1.4119	0.001
313.15	0.9481	1.4231	0.001
313.15	1	1.4264	0.001
318.15	0	1.3298	0.001
318.15	0.0988	1.3408	0.001
318.15	0.198	1.3516	0.001
318.15	0.3312	1.366	0.001
318.15	0.5005	1.384	0.001
318.15	0.672	1.3994	0.001
318.15	0.8044	1.4103	0.001
318.15	0.9481	1.4214	0.001
318.15	1	1.4247	0.001
