Measured thermophysical data. Measurement and Correlation of the Solubility of Aminocaproic Acid in Some Pure and Binary Solvents
Source: J. Chem. Eng. Data, 2019, 10.1021/acs.jced.9b00543
Compound 1: 6-aminohexanoic acid, C6H13NO2, InChI=1S/C6H13NO2/c7-5-3-1-2-4-6(8)9/h1-5,7H2,(H,8,9), purity 99%
Compound 2: water, H2O, InChI=1S/H2O/h1H2, purity 99.8%
Compound 3: ethyl acetate, C4H8O2, InChI=1S/C4H8O2/c1-3-6-4(2)5/h3H2,1-2H3, purity 99.5%
Compound 4: propan-2-ol, C3H8O, InChI=1S/C3H8O/c1-3(2)4/h3-4H,1-2H3, purity 99.5%
Compound 5: methyl ethanoate, C3H6O2, InChI=1S/C3H6O2/c1-3(4)5-2/h1-2H3, purity 99.5%
Compound 6: methanol, CH4O, InChI=1S/CH4O/c1-2/h2H,1H3, purity 99.5%
Compound 7: ethanol, C2H6O, InChI=1S/C2H6O/c1-2-3/h3H,2H2,1H3, purity 99.5%
Compound 8: dimethylformamide, C3H7NO, InChI=1S/C3H7NO/c1-4(2)3-5/h3H,1-2H3, purity 99.5%

System: 6-aminohexanoic acid + water; phases: Liquid, Crystal
Fixed: Pressure, kPa = 100
Property: Mole fraction of 6-aminohexanoic acid (Liquid); method: Chromatography
Temperature, K	Mole fraction of 6-aminohexanoic acid	uncertainty
283.15	0.118255	0.035479
288.15	0.126015	0.037806
293.15	0.130329	0.0391
298.15	0.136888	0.041068
303.15	0.144929	0.043481
308.15	0.151655	0.045498
313.15	0.154923	0.046478
318.15	0.159781	0.047936
323.15	0.167312	0.050196

System: 6-aminohexanoic acid + ethyl acetate; phases: Liquid, Crystal
Fixed: Pressure, kPa = 100
Property: Mole fraction of 6-aminohexanoic acid (Liquid); method: Chromatography
Temperature, K	Mole fraction of 6-aminohexanoic acid	uncertainty
283.15	0.000146	4.4e-05
288.15	0.00016	4.8e-05
293.15	0.000174	5.2e-05
298.15	0.000188	5.6e-05
303.15	0.0002	6e-05
308.15	0.000221	6.6e-05
313.15	0.000241	7.2e-05
318.15	0.000262	7.9e-05
323.15	0.000289	8.7e-05

System: 6-aminohexanoic acid + propan-2-ol; phases: Liquid, Crystal
Fixed: Pressure, kPa = 100
Property: Mole fraction of 6-aminohexanoic acid (Liquid); method: Chromatography
Temperature, K	Mole fraction of 6-aminohexanoic acid	uncertainty
283.15	7.7e-05	2.3e-05
288.15	8.1e-05	2.4e-05
293.15	9.2e-05	2.8e-05
298.15	0.000108	3.2e-05
303.15	0.000123	3.7e-05
308.15	0.000142	4.3e-05
313.15	0.000162	4.9e-05
318.15	0.000181	5.4e-05
323.15	0.0002	6e-05

System: 6-aminohexanoic acid + methyl ethanoate; phases: Liquid, Crystal
Fixed: Pressure, kPa = 100
Property: Mole fraction of 6-aminohexanoic acid (Liquid); method: Chromatography
Temperature, K	Mole fraction of 6-aminohexanoic acid	uncertainty
283.15	0.000119	3.6e-05
288.15	0.000129	3.9e-05
293.15	0.00014	4.2e-05
298.15	0.000146	4.4e-05
303.15	0.000154	4.6e-05
308.15	0.000161	4.8e-05
313.15	0.000166	5e-05
318.15	0.00017	5.1e-05
323.15	0.000172	5.2e-05

System: 6-aminohexanoic acid + water + methanol; phases: Liquid, Crystal
Fixed: Pressure, kPa = 100
Property: Mole fraction of 6-aminohexanoic acid (Liquid); method: Chromatography
Temperature, K	Solvent: Mole fraction of water	Mole fraction of 6-aminohexanoic acid	uncertainty
283.15	0.5	0.0388	0.0116
283.15	0.6	0.0567	0.017
283.15	0.7	0.0711	0.0213
283.15	0.8	0.0818	0.0245
283.15	0.9	0.0963	0.0289
293.15	0.5	0.0498	0.0149
293.15	0.6	0.0658	0.0197
293.15	0.7	0.0777	0.0233
293.15	0.8	0.0925	0.0278
293.15	0.9	0.1036	0.0311
303.15	0.5	0.0596	0.0179
303.15	0.6	0.0747	0.0224
303.15	0.7	0.0906	0.0272
303.15	0.8	0.1037	0.0311
303.15	0.9	0.1154	0.0346
313.15	0.5	0.071	0.0213
313.15	0.6	0.0881	0.0264
313.15	0.7	0.1031	0.0309
313.15	0.8	0.1168	0.035
313.15	0.9	0.1289	0.0387
323.15	0.5	0.0838	0.0251
323.15	0.6	0.1029	0.0309
323.15	0.7	0.1179	0.0354
323.15	0.8	0.1309	0.0393
323.15	0.9	0.1415	0.0425
288.15	0.5	0.0435	0.0131
288.15	0.6	0.0612	0.0184
288.15	0.7	0.0754	0.0226
288.15	0.8	0.0886	0.0266
288.15	0.9	0.0992	0.0298
298.15	0.5	0.0536	0.0161
298.15	0.6	0.0704	0.0211
298.15	0.7	0.0836	0.0251
298.15	0.8	0.0978	0.0293
298.15	0.9	0.1072	0.0322
308.15	0.5	0.0644	0.0193
308.15	0.6	0.0811	0.0243
308.15	0.7	0.0961	0.0288
308.15	0.8	0.1091	0.0327
308.15	0.9	0.121	0.0363
318.15	0.5	0.078	0.0234
318.15	0.6	0.096	0.0288
318.15	0.7	0.1107	0.0332
318.15	0.8	0.1238	0.0371
318.15	0.9	0.1345	0.0404

System: 6-aminohexanoic acid + water + ethanol; phases: Liquid, Crystal
Fixed: Pressure, kPa = 100
Property: Mole fraction of 6-aminohexanoic acid (Liquid); method: Chromatography
Temperature, K	Solvent: Mole fraction of water	Mole fraction of 6-aminohexanoic acid	uncertainty
283.15	0.5	0.0159	0.0048
283.15	0.6	0.038	0.0114
283.15	0.7	0.0622	0.0187
283.15	0.8	0.0855	0.0257
283.15	0.9	0.1024	0.0307
293.15	0.5	0.021	0.0063
293.15	0.6	0.0438	0.0131
293.15	0.7	0.0665	0.02
293.15	0.8	0.0931	0.0279
293.15	0.9	0.1148	0.0344
303.15	0.5	0.0297	0.0089
303.15	0.6	0.0563	0.0169
303.15	0.7	0.0813	0.0244
303.15	0.8	0.1118	0.0335
303.15	0.9	0.1308	0.0392
313.15	0.5	0.0439	0.0132
313.15	0.6	0.0737	0.0221
313.15	0.7	0.1006	0.0302
313.15	0.8	0.1321	0.0396
313.15	0.9	0.1456	0.0437
323.15	0.5	0.0515	0.0155
323.15	0.6	0.0871	0.0261
323.15	0.7	0.1197	0.0359
323.15	0.8	0.1441	0.0432
323.15	0.9	0.1607	0.0482
288.15	0.5	0.0178	0.0053
288.15	0.6	0.0401	0.012
288.15	0.7	0.0646	0.0194
288.15	0.8	0.0877	0.0263
288.15	0.9	0.1086	0.0326
298.15	0.5	0.0243	0.0073
298.15	0.6	0.0497	0.0149
298.15	0.7	0.0744	0.0223
298.15	0.8	0.1025	0.0308
298.15	0.9	0.1248	0.0374
308.15	0.5	0.0383	0.0115
308.15	0.6	0.064	0.0192
308.15	0.7	0.0898	0.0269
308.15	0.8	0.1234	0.037
308.15	0.9	0.1369	0.0411
318.15	0.5	0.0484	0.0145
318.15	0.6	0.0817	0.0245
318.15	0.7	0.1076	0.0323
318.15	0.8	0.1387	0.0416
318.15	0.9	0.1555	0.0467

System: 6-aminohexanoic acid + water + dimethylformamide; phases: Liquid, Crystal
Fixed: Pressure, kPa = 100
Property: Mole fraction of 6-aminohexanoic acid (Liquid); method: Chromatography
Temperature, K	Solvent: Mole fraction of water	Mole fraction of 6-aminohexanoic acid	uncertainty
283.15	0.5	0.00012	4e-05
283.15	0.6	0.00065	0.0002
283.15	0.7	0.00277	0.00084
283.15	0.8	0.01682	0.00505
283.15	0.9	0.05618	0.01685
293.15	0.5	0.00018	5e-05
293.15	0.6	0.00086	0.00026
293.15	0.7	0.00391	0.00117
293.15	0.8	0.02156	0.00647
293.15	0.9	0.06016	0.01805
303.15	0.5	0.00029	9e-05
303.15	0.6	0.00123	0.00037
303.15	0.7	0.00552	0.00166
303.15	0.8	0.02828	0.00849
303.15	0.9	0.06878	0.02064
313.15	0.5	0.00042	0.00013
313.15	0.6	0.00156	0.00047
313.15	0.7	0.00789	0.00237
313.15	0.8	0.03649	0.01095
313.15	0.9	0.07935	0.02381
323.15	0.5	0.00056	0.00017
323.15	0.6	0.00198	0.0006
323.15	0.7	0.01113	0.00336
323.15	0.8	0.04602	0.01381
323.15	0.9	0.09153	0.02746
288.15	0.5	0.00015	5e-05
288.15	0.6	0.00078	0.00023
288.15	0.7	0.00359	0.00108
288.15	0.8	0.01944	0.00583
288.15	0.9	0.05827	0.01748
298.15	0.5	0.00022	7e-05
298.15	0.6	0.0011	0.00033
298.15	0.7	0.00485	0.00146
298.15	0.8	0.02449	0.00735
298.15	0.9	0.06352	0.01906
308.15	0.5	0.00034	0.0001
308.15	0.6	0.00145	0.00044
308.15	0.7	0.00695	0.00209
308.15	0.8	0.03302	0.00991
308.15	0.9	0.07357	0.02207
318.15	0.5	0.00049	0.00015
318.15	0.6	0.00175	0.00053
318.15	0.7	0.00957	0.00287
318.15	0.8	0.0409	0.01227
318.15	0.9	0.08525	0.02558
