Measured thermophysical data. The Dependence of Temperature and Composition on the Equilibrium Solubility and Thermodynamic Studies of Bioactive N-(9-Fluorenylmethoxycarbonyloxy)succinimide in Various Water-Cosolvent Mixtures
Source: J. Chem. Eng. Data, 2018, 10.1021/acs.jced.8b00732
Compound 1: (9H-fluoren-9-yl)methyl (2,5-dioxopyrrolidin-1-yl) carbonate, C19H15NO5, InChI=1S/C19H15NO5/c21-17-9-10-18(22)20(17)25-19(23)24-11-16-14-7-3-1-5-12(14)13-6-2-4-8-15(13)16/h1-8,16H,9-11H2, purity 98%
Compound 2: dimethyl sulfoxide, C2H6OS, InChI=1S/C2H6OS/c1-4(2)3/h1-2H3, purity 99.6%
Compound 3: ethanol, C2H6O, InChI=1S/C2H6O/c1-2-3/h3H,2H2,1H3, purity 99.6%
Compound 4: 1,2-ethanediol, C2H6O2, InChI=1S/C2H6O2/c3-1-2-4/h3-4H,1-2H2, purity 99.6%
Compound 5: dimethylformamide, C3H7NO, InChI=1S/C3H7NO/c1-4(2)3-5/h3H,1-2H3, purity 99.7%
Compound 6: water, H2O, InChI=1S/H2O/h1H2, purity 99.9%

System: (9H-fluoren-9-yl)methyl (2,5-dioxopyrrolidin-1-yl) carbonate + dimethyl sulfoxide + water; phases: Liquid, Crystal
Fixed: Pressure, kPa = 100
Property: Mole fraction of (9H-fluoren-9-yl)methyl (2,5-dioxopyrrolidin-1-yl) carbonate (Liquid); method: Chromatography
Temperature, K	Solvent: Mass fraction of dimethyl sulfoxide	Mole fraction of (9H-fluoren-9-yl)methyl (2,5-dioxopyrrolidin-1-yl) carbonate	uncertainty
293.15	0	5.769e-06	1.154e-06
298.15	0	7.378e-06	1.476e-06
303.15	0	9.441e-06	1.888e-06
308.15	0	1.19e-05	2.38e-06
313.15	0	1.488e-05	2.98e-06
318.15	0	1.838e-05	3.68e-06
323.15	0	2.28e-05	4.56e-06
328.15	0	2.78e-05	5.56e-06
293.15	0.0998	0.000176	3.52e-05
298.15	0.0998	0.000238	4.76e-05
303.15	0.0998	0.0002937	5.87e-05
308.15	0.0998	0.0003586	7.17e-05
313.15	0.0998	0.0004324	8.65e-05
318.15	0.0998	0.0005117	0.0001023
323.15	0.0998	0.0005878	0.0001176
328.15	0.0998	0.0006732	0.0001348
293.15	0.1996	0.001041	0.000208
298.15	0.1996	0.001266	0.000253
303.15	0.1996	0.00156	0.000312
308.15	0.1996	0.001891	0.000378
313.15	0.1996	0.002262	0.000452
318.15	0.1996	0.002656	0.000531
323.15	0.1996	0.002926	0.000585
328.15	0.1996	0.003243	0.000649
293.15	0.3012	0.001976	0.000395
298.15	0.3012	0.002567	0.000513
303.15	0.3012	0.003126	0.000625
308.15	0.3012	0.003852	0.00077
313.15	0.3012	0.004547	0.000909
318.15	0.3012	0.005304	0.001061
323.15	0.3012	0.006138	0.001228
328.15	0.3012	0.007064	0.001413
293.15	0.401	0.002302	0.00046
298.15	0.401	0.002987	0.000597
303.15	0.401	0.003721	0.000744
308.15	0.401	0.004543	0.000909
313.15	0.401	0.005485	0.001097
318.15	0.401	0.006503	0.001301
323.15	0.401	0.007506	0.001501
328.15	0.401	0.008641	0.001728
293.15	0.4995	0.002398	0.00048
298.15	0.4995	0.003107	0.000621
303.15	0.4995	0.00382	0.000764
308.15	0.4995	0.004614	0.000923
313.15	0.4995	0.005565	0.001113
318.15	0.4995	0.00655	0.00131
323.15	0.4995	0.007668	0.001534
328.15	0.4995	0.008953	0.001791
293.15	0.598	0.002486	0.000497
298.15	0.598	0.003193	0.000639
303.15	0.598	0.003948	0.00079
308.15	0.598	0.004757	0.000951
313.15	0.598	0.005798	0.00116
318.15	0.598	0.007002	0.001401
323.15	0.598	0.008308	0.001662
328.15	0.598	0.009829	0.001966
293.15	0.6898	0.002799	0.00056
298.15	0.6898	0.003623	0.000725
303.15	0.6898	0.004611	0.000922
308.15	0.6898	0.00562	0.001124
313.15	0.6898	0.006917	0.001384
318.15	0.6898	0.008446	0.001689
323.15	0.6898	0.01015	0.00203
328.15	0.6898	0.01204	0.00241
293.15	0.8011	0.003714	0.000743
298.15	0.8011	0.004768	0.000954
303.15	0.8011	0.006225	0.001245
308.15	0.8011	0.007782	0.001557
313.15	0.8011	0.009635	0.001927
318.15	0.8011	0.01172	0.00234
323.15	0.8011	0.01428	0.00286
328.15	0.8011	0.01708	0.00342
293.15	0.887	0.004462	0.000893
298.15	0.887	0.005636	0.001127
303.15	0.887	0.00752	0.001504
308.15	0.887	0.009496	0.001899
313.15	0.887	0.01169	0.00234
318.15	0.887	0.01441	0.00288
323.15	0.887	0.01803	0.00361
328.15	0.887	0.02266	0.00453
293.15	1	0.004989	0.000998
298.15	1	0.006406	0.001281
303.15	1	0.008402	0.001681
308.15	1	0.01066	0.00213
313.15	1	0.01337	0.00267
318.15	1	0.01674	0.00335
323.15	1	0.02078	0.00416
328.15	1	0.02572	0.00514

System: (9H-fluoren-9-yl)methyl (2,5-dioxopyrrolidin-1-yl) carbonate + ethanol + water; phases: Liquid, Crystal
Fixed: Pressure, kPa = 100
Property: Mole fraction of (9H-fluoren-9-yl)methyl (2,5-dioxopyrrolidin-1-yl) carbonate (Liquid); method: Chromatography
Temperature, K	Solvent: Mass fraction of ethanol	Mole fraction of (9H-fluoren-9-yl)methyl (2,5-dioxopyrrolidin-1-yl) carbonate	uncertainty
283.15	0	3.52e-06	7.04e-07
288.15	0	4.312e-06	8.62e-07
293.15	0	5.769e-06	1.154e-06
298.15	0	7.378e-06	1.476e-06
303.15	0	9.441e-06	1.888e-06
308.15	0	1.19e-05	2.38e-06
313.15	0	1.488e-05	2.98e-06
318.15	0	1.838e-05	3.68e-06
323.15	0	2.28e-05	4.56e-06
328.15	0	2.78e-05	5.56e-06
283.15	0.1	2.741e-05	5.48e-06
288.15	0.1	3.261e-05	6.52e-06
293.15	0.1	4.205e-05	8.41e-06
298.15	0.1	5.209e-05	1.042e-05
303.15	0.1	6.457e-05	1.292e-05
308.15	0.1	7.896e-05	1.579e-05
313.15	0.1	9.577e-05	1.916e-05
318.15	0.1	0.000115	2.3e-05
323.15	0.1	0.0001384	2.77e-05
328.15	0.1	0.0001644	3.29e-05
283.15	0.1998	8.091e-05	1.618e-05
288.15	0.1998	9.635e-05	1.927e-05
293.15	0.1998	0.0001235	2.47e-05
298.15	0.1998	0.0001519	3.04e-05
303.15	0.1998	0.0001865	3.73e-05
308.15	0.1998	0.000218	4.36e-05
313.15	0.1998	0.0002625	5.25e-05
318.15	0.1998	0.0003131	6.26e-05
323.15	0.1998	0.000365	7.3e-05
328.15	0.1998	0.0004237	8.47e-05
283.15	0.3003	0.0001505	3.01e-05
288.15	0.3003	0.0001841	3.68e-05
293.15	0.3003	0.0002273	4.55e-05
298.15	0.3003	0.0002736	5.47e-05
303.15	0.3003	0.0003286	6.57e-05
308.15	0.3003	0.0003903	7.81e-05
313.15	0.3003	0.0004601	9.2e-05
318.15	0.3003	0.0005386	0.0001077
323.15	0.3003	0.0006294	0.0001259
328.15	0.3003	0.0007319	0.0001464
283.15	0.4006	0.0001998	4e-05
288.15	0.4006	0.0002339	4.68e-05
293.15	0.4006	0.0002895	5.79e-05
298.15	0.4006	0.000349	6.98e-05
303.15	0.4006	0.0004198	8.4e-05
308.15	0.4006	0.0004993	9.99e-05
313.15	0.4006	0.0005876	0.0001175
318.15	0.4006	0.0006868	0.0001374
323.15	0.4006	0.0007999	0.00016
328.15	0.4006	0.00093	0.000186
283.15	0.498	0.0002378	4.76e-05
288.15	0.498	0.000273	5.46e-05
293.15	0.498	0.0003261	6.52e-05
298.15	0.498	0.0003854	7.71e-05
303.15	0.498	0.0004645	9.29e-05
308.15	0.498	0.000554	0.0001108
313.15	0.498	0.0006572	0.0001315
318.15	0.498	0.0007708	0.0001542
323.15	0.498	0.0008974	0.0001795
328.15	0.498	0.001053	0.000211
283.15	0.6	0.0002847	5.69e-05
288.15	0.6	0.0003292	6.58e-05
293.15	0.6	0.0003823	7.65e-05
298.15	0.6	0.0004496	8.99e-05
303.15	0.6	0.0005559	0.0001112
308.15	0.6	0.0006423	0.0001285
313.15	0.6	0.0007683	0.0001537
318.15	0.6	0.0009073	0.0001815
323.15	0.6	0.001043	0.000209
328.15	0.6	0.001228	0.000246
283.15	0.6979	0.0003329	6.66e-05
288.15	0.6979	0.0003854	7.71e-05
293.15	0.6979	0.0004546	9.09e-05
298.15	0.6979	0.000538	0.0001076
303.15	0.6979	0.0006362	0.0001273
308.15	0.6979	0.0007628	0.0001526
313.15	0.6979	0.0008807	0.0001762
318.15	0.6979	0.001036	0.000207
323.15	0.6979	0.001187	0.000237
328.15	0.6979	0.001397	0.000279
283.15	0.7988	0.0003811	7.62e-05
288.15	0.7988	0.0004416	8.83e-05
293.15	0.7988	0.000525	0.000105
298.15	0.7988	0.0006343	0.0001269
303.15	0.7988	0.0007541	0.0001508
308.15	0.7988	0.000898	0.0001796
313.15	0.7988	0.001058	0.000212
318.15	0.7988	0.001246	0.000249
323.15	0.7988	0.001428	0.000286
328.15	0.7988	0.001686	0.000337
283.15	0.9012	0.0004373	8.75e-05
288.15	0.9012	0.0005219	0.0001044
293.15	0.9012	0.0006213	0.0001243
298.15	0.9012	0.0007547	0.000151
303.15	0.9012	0.0008987	0.0001798
308.15	0.9012	0.001051	0.00021
313.15	0.9012	0.001227	0.000245
318.15	0.9012	0.001431	0.000286
323.15	0.9012	0.001613	0.000323
328.15	0.9012	0.001903	0.000381
283.15	1	0.0004774	9.55e-05
288.15	1	0.0005715	0.0001143
293.15	1	0.0006866	0.0001373
298.15	1	0.0008237	0.0001648
303.15	1	0.0009792	0.0001959
308.15	1	0.001155	0.000231
313.15	1	0.001339	0.000268
318.15	1	0.001551	0.00031
323.15	1	0.001765	0.000353
328.15	1	0.002048	0.00041

System: (9H-fluoren-9-yl)methyl (2,5-dioxopyrrolidin-1-yl) carbonate + 1,2-ethanediol + water; phases: Liquid, Crystal
Fixed: Pressure, kPa = 100
Property: Mole fraction of (9H-fluoren-9-yl)methyl (2,5-dioxopyrrolidin-1-yl) carbonate (Liquid); method: Chromatography
Temperature, K	Solvent: Mass fraction of 1,2-ethanediol	Mole fraction of (9H-fluoren-9-yl)methyl (2,5-dioxopyrrolidin-1-yl) carbonate	uncertainty
283.15	0	3.52e-06	7.04e-07
288.15	0	4.312e-06	8.62e-07
293.15	0	5.769e-06	1.154e-06
298.15	0	7.378e-06	1.476e-06
303.15	0	9.441e-06	1.888e-06
308.15	0	1.19e-05	2.38e-06
313.15	0	1.488e-05	2.98e-06
318.15	0	1.838e-05	3.68e-06
323.15	0	2.28e-05	4.56e-06
328.15	0	2.78e-05	5.56e-06
283.15	0.1	1.48e-05	2.96e-06
288.15	0.1	1.785e-05	3.57e-06
293.15	0.1	2.333e-05	4.67e-06
298.15	0.1	2.938e-05	5.88e-06
303.15	0.1	3.692e-05	7.38e-06
308.15	0.1	4.572e-05	9.14e-06
313.15	0.1	5.627e-05	1.126e-05
318.15	0.1	6.841e-05	1.368e-05
323.15	0.1	8.355e-05	1.671e-05
328.15	0.1	0.0001004	2.01e-05
283.15	0.1996	3.353e-05	6.71e-06
288.15	0.1996	4.023e-05	8.05e-06
293.15	0.1996	5.192e-05	1.039e-05
298.15	0.1996	6.501e-05	1.3e-05
303.15	0.1996	8.103e-05	1.621e-05
308.15	0.1996	9.947e-05	1.99e-05
313.15	0.1996	0.0001216	2.43e-05
318.15	0.1996	0.0001468	2.94e-05
323.15	0.1996	0.000178	3.56e-05
328.15	0.1996	0.0002124	4.25e-05
283.15	0.2983	5.133e-05	1.027e-05
288.15	0.2983	6.169e-05	1.234e-05
293.15	0.2983	7.913e-05	1.583e-05
298.15	0.2983	9.915e-05	1.983e-05
303.15	0.2983	0.0001233	2.47e-05
308.15	0.2983	0.000151	3.02e-05
313.15	0.2983	0.0001844	3.69e-05
318.15	0.2983	0.0002222	4.44e-05
323.15	0.2983	0.0002691	5.38e-05
328.15	0.2983	0.0003205	6.41e-05
283.15	0.4021	6.418e-05	1.284e-05
288.15	0.4021	7.757e-05	1.552e-05
293.15	0.4021	9.923e-05	1.985e-05
298.15	0.4021	0.0001249	2.5e-05
303.15	0.4021	0.0001555	3.11e-05
308.15	0.4021	0.0001905	3.81e-05
313.15	0.4021	0.0002331	4.66e-05
318.15	0.4021	0.0002814	5.63e-05
323.15	0.4021	0.0003412	6.82e-05
328.15	0.4021	0.0004069	8.14e-05
283.15	0.5006	7.31e-05	1.462e-05
288.15	0.5006	8.895e-05	1.779e-05
293.15	0.5006	0.0001136	2.27e-05
298.15	0.5006	0.0001438	2.88e-05
303.15	0.5006	0.0001795	3.59e-05
308.15	0.5006	0.0002203	4.41e-05
313.15	0.5006	0.0002705	5.41e-05
318.15	0.5006	0.0003273	6.55e-05
323.15	0.5006	0.0003979	7.96e-05
328.15	0.5006	0.0004756	9.51e-05
283.15	0.6002	8.357e-05	1.672e-05
288.15	0.6002	0.0001024	2.05e-05
293.15	0.6002	0.0001306	2.61e-05
298.15	0.6002	0.0001662	3.32e-05
303.15	0.6002	0.0002079	4.16e-05
308.15	0.6002	0.0002557	5.11e-05
313.15	0.6002	0.0003149	6.3e-05
318.15	0.6002	0.0003822	7.64e-05
323.15	0.6002	0.0004657	9.31e-05
328.15	0.6002	0.000558	0.0001116
283.15	0.7013	9.958e-05	1.992e-05
288.15	0.7013	0.0001228	2.46e-05
293.15	0.7013	0.0001563	3.13e-05
298.15	0.7013	0.0001999	4e-05
303.15	0.7013	0.0002505	5.01e-05
308.15	0.7013	0.0003084	6.17e-05
313.15	0.7013	0.0003809	7.62e-05
318.15	0.7013	0.0004632	9.26e-05
323.15	0.7013	0.0005656	0.0001131
328.15	0.7013	0.0006788	0.0001358
283.15	0.8005	0.0001217	2.43e-05
288.15	0.8005	0.0001509	3.02e-05
293.15	0.8005	0.0001917	3.83e-05
298.15	0.8005	0.0002461	4.92e-05
303.15	0.8005	0.0003089	6.18e-05
308.15	0.8005	0.0003807	7.61e-05
313.15	0.8005	0.0004712	9.42e-05
318.15	0.8005	0.0005739	0.0001148
323.15	0.8005	0.0007018	0.0001404
328.15	0.8005	0.0008435	0.0001687
283.15	0.9021	0.0001381	2.76e-05
288.15	0.9021	0.0001597	3.19e-05
293.15	0.9021	0.0002018	4.04e-05
298.15	0.9021	0.0002655	5.31e-05
303.15	0.9021	0.0003433	6.87e-05
308.15	0.9021	0.0004329	8.66e-05
313.15	0.9021	0.0005495	0.0001099
318.15	0.9021	0.0006654	0.0001331
323.15	0.9021	0.000824	0.0001648
328.15	0.9021	0.001002	0.0002
283.15	1	0.0001513	3.03e-05
288.15	1	0.0001903	3.81e-05
293.15	1	0.0002413	4.83e-05
298.15	1	0.0003136	6.27e-05
303.15	1	0.0003958	7.92e-05
308.15	1	0.0004899	9.8e-05
313.15	1	0.0006108	0.0001222
318.15	1	0.0007484	0.0001497
323.15	1	0.0009203	0.0001841
328.15	1	0.001112	0.000222

System: (9H-fluoren-9-yl)methyl (2,5-dioxopyrrolidin-1-yl) carbonate + dimethylformamide + water; phases: Liquid, Crystal
Fixed: Pressure, kPa = 100
Property: Mole fraction of (9H-fluoren-9-yl)methyl (2,5-dioxopyrrolidin-1-yl) carbonate (Liquid); method: Chromatography
Temperature, K	Solvent: Mass fraction of dimethylformamide	Mole fraction of (9H-fluoren-9-yl)methyl (2,5-dioxopyrrolidin-1-yl) carbonate	uncertainty
283.15	0	3.52e-06	7.04e-07
288.15	0	4.312e-06	8.62e-07
293.15	0	5.769e-06	1.154e-06
298.15	0	7.378e-06	1.476e-06
303.15	0	9.441e-06	1.888e-06
308.15	0	1.19e-05	2.38e-06
313.15	0	1.488e-05	2.98e-06
318.15	0	1.838e-05	3.68e-06
323.15	0	2.28e-05	4.56e-06
328.15	0	2.78e-05	5.56e-06
283.15	0.1001	0.0001315	2.63e-05
288.15	0.1001	0.0001556	3.11e-05
293.15	0.1001	0.0001985	3.97e-05
298.15	0.1001	0.0002432	4.86e-05
303.15	0.1001	0.0002993	5.99e-05
308.15	0.1001	0.0003632	7.26e-05
313.15	0.1001	0.0004366	8.73e-05
318.15	0.1001	0.0005199	0.000104
323.15	0.1001	0.0006223	0.0001245
328.15	0.1001	0.0007338	0.000147
283.15	0.2	0.0008203	0.0001641
288.15	0.2	0.0009675	0.0001935
293.15	0.2	0.001212	0.000242
298.15	0.2	0.001464	0.000293
303.15	0.2	0.001783	0.000357
308.15	0.2	0.002139	0.000428
313.15	0.2	0.002538	0.000508
318.15	0.2	0.002989	0.000598
323.15	0.2	0.003539	0.000708
328.15	0.2	0.004133	0.000827
283.15	0.3003	0.001574	0.000315
288.15	0.3003	0.001888	0.000378
293.15	0.3003	0.002368	0.000474
298.15	0.3003	0.002878	0.000576
303.15	0.3003	0.00353	0.000706
308.15	0.3003	0.004265	0.000853
313.15	0.3003	0.005083	0.001017
318.15	0.3003	0.00602	0.001204
323.15	0.3003	0.007164	0.001433
328.15	0.3003	0.008419	0.001684
283.15	0.401	0.001597	0.000319
288.15	0.401	0.002027	0.000405
293.15	0.401	0.002607	0.000521
298.15	0.401	0.00327	0.000654
303.15	0.401	0.00411	0.000822
308.15	0.401	0.005044	0.001009
313.15	0.401	0.006088	0.001218
318.15	0.401	0.00731	0.001462
323.15	0.401	0.008815	0.001763
328.15	0.401	0.0105	0.0021
283.15	0.4998	0.001658	0.000332
288.15	0.4998	0.002106	0.000421
293.15	0.4998	0.002673	0.000535
298.15	0.4998	0.003296	0.000659
303.15	0.4998	0.004154	0.000831
308.15	0.4998	0.005189	0.001038
313.15	0.4998	0.006355	0.001271
318.15	0.4998	0.007751	0.00155
323.15	0.4998	0.009486	0.001897
328.15	0.4998	0.01148	0.0023
283.15	0.6005	0.001709	0.000342
288.15	0.6005	0.002164	0.000433
293.15	0.6005	0.002817	0.000563
298.15	0.6005	0.003589	0.000718
303.15	0.6005	0.004638	0.000928
308.15	0.6005	0.005888	0.001178
313.15	0.6005	0.007309	0.001462
318.15	0.6005	0.009043	0.001809
323.15	0.6005	0.01122	0.00224
328.15	0.6005	0.01378	0.00276
283.15	0.7001	0.001954	0.000391
288.15	0.7001	0.002616	0.000523
293.15	0.7001	0.003438	0.000688
298.15	0.7001	0.004438	0.000888
303.15	0.7001	0.005823	0.001165
308.15	0.7001	0.007497	0.0015
313.15	0.7001	0.009413	0.001883
318.15	0.7001	0.01179	0.00236
323.15	0.7001	0.01481	0.00296
328.15	0.7001	0.01841	0.00368
283.15	0.8012	0.002739	0.000548
288.15	0.8012	0.003752	0.00075
293.15	0.8012	0.004967	0.000994
298.15	0.8012	0.006479	0.001296
303.15	0.8012	0.008609	0.001722
308.15	0.8012	0.01122	0.00224
313.15	0.8012	0.01421	0.00284
318.15	0.8012	0.01799	0.0036
323.15	0.8012	0.0228	0.00456
328.15	0.8012	0.02866	0.00573
283.15	0.8989	0.003035	0.000607
288.15	0.8989	0.00445	0.00089
293.15	0.8989	0.006101	0.00122
298.15	0.8989	0.007886	0.001577
303.15	0.8989	0.01102	0.0022
308.15	0.8989	0.01464	0.00293
313.15	0.8989	0.01924	0.00385
318.15	0.8989	0.02564	0.00513
323.15	0.8989	0.03213	0.00643
328.15	0.8989	0.04245	0.00849
283.15	1	0.003695	0.000739
288.15	1	0.005326	0.001065
293.15	1	0.007194	0.001439
298.15	1	0.009639	0.001928
303.15	1	0.01321	0.00264
308.15	1	0.01771	0.00354
313.15	1	0.02295	0.00459
318.15	1	0.0298	0.00596
323.15	1	0.0387	0.00774
328.15	1	0.04989	0.00998

System: (9H-fluoren-9-yl)methyl (2,5-dioxopyrrolidin-1-yl) carbonate + water; phases: Liquid, Crystal
Fixed: Pressure, kPa = 100
Property: Mole fraction of (9H-fluoren-9-yl)methyl (2,5-dioxopyrrolidin-1-yl) carbonate (Liquid); method: Chromatography
Temperature, K	Mole fraction of (9H-fluoren-9-yl)methyl (2,5-dioxopyrrolidin-1-yl) carbonate	uncertainty
293.15	5.769e-06	1.154e-06
298.15	7.378e-06	1.476e-06
303.15	9.441e-06	1.888e-06
308.15	1.19e-05	2.38e-06
313.15	1.488e-05	2.98e-06
318.15	1.838e-05	3.68e-06
323.15	2.28e-05	4.56e-06
328.15	2.78e-05	5.56e-06
283.15	3.52e-06	7.04e-07
288.15	4.312e-06	8.62e-07

System: (9H-fluoren-9-yl)methyl (2,5-dioxopyrrolidin-1-yl) carbonate + dimethyl sulfoxide; phases: Liquid, Crystal
Fixed: Pressure, kPa = 100
Property: Mole fraction of (9H-fluoren-9-yl)methyl (2,5-dioxopyrrolidin-1-yl) carbonate (Liquid); method: Chromatography
Temperature, K	Mole fraction of (9H-fluoren-9-yl)methyl (2,5-dioxopyrrolidin-1-yl) carbonate	uncertainty
293.15	0.004989	0.000998
298.15	0.006406	0.001281
303.15	0.008402	0.001681
308.15	0.01066	0.00213
313.15	0.01337	0.00267
318.15	0.01674	0.00335
323.15	0.02078	0.00416
328.15	0.02572	0.00514

System: (9H-fluoren-9-yl)methyl (2,5-dioxopyrrolidin-1-yl) carbonate + ethanol; phases: Liquid, Crystal
Fixed: Pressure, kPa = 100
Property: Mole fraction of (9H-fluoren-9-yl)methyl (2,5-dioxopyrrolidin-1-yl) carbonate (Liquid); method: Chromatography
Temperature, K	Mole fraction of (9H-fluoren-9-yl)methyl (2,5-dioxopyrrolidin-1-yl) carbonate	uncertainty
283.15	0.0004774	9.55e-05
288.15	0.0005715	0.0001143
293.15	0.0006866	0.0001373
298.15	0.0008237	0.0001648
303.15	0.0009792	0.0001959
308.15	0.001155	0.000231
313.15	0.001339	0.000268
318.15	0.001551	0.00031
323.15	0.001765	0.000353
328.15	0.002048	0.00041

System: (9H-fluoren-9-yl)methyl (2,5-dioxopyrrolidin-1-yl) carbonate + 1,2-ethanediol; phases: Liquid, Crystal
Fixed: Pressure, kPa = 100
Property: Mole fraction of (9H-fluoren-9-yl)methyl (2,5-dioxopyrrolidin-1-yl) carbonate (Liquid); method: Chromatography
Temperature, K	Mole fraction of (9H-fluoren-9-yl)methyl (2,5-dioxopyrrolidin-1-yl) carbonate	uncertainty
283.15	0.0001513	3.03e-05
288.15	0.0001903	3.81e-05
293.15	0.0002413	4.83e-05
298.15	0.0003136	6.27e-05
303.15	0.0003958	7.92e-05
308.15	0.0004899	9.8e-05
313.15	0.0006108	0.0001222
318.15	0.0007484	0.0001497
323.15	0.0009203	0.0001841
328.15	0.001112	0.000222

System: (9H-fluoren-9-yl)methyl (2,5-dioxopyrrolidin-1-yl) carbonate + dimethylformamide; phases: Liquid, Crystal
Fixed: Pressure, kPa = 100
Property: Mole fraction of (9H-fluoren-9-yl)methyl (2,5-dioxopyrrolidin-1-yl) carbonate (Liquid); method: Chromatography
Temperature, K	Mole fraction of (9H-fluoren-9-yl)methyl (2,5-dioxopyrrolidin-1-yl) carbonate	uncertainty
283.15	0.003695	0.000739
288.15	0.005326	0.001065
293.15	0.007194	0.001439
298.15	0.009639	0.001928
303.15	0.01321	0.00264
308.15	0.01771	0.00354
313.15	0.02295	0.00459
318.15	0.0298	0.00596
323.15	0.0387	0.00774
328.15	0.04989	0.00998
