Measured thermophysical data. Equilibrium Solubility, Model Correlation, and Solvent Effect of Indole-3-acetic Acid in Twelve Pure Solvents
Source: J. Chem. Eng. Data, 2019, 10.1021/acs.jced.8b01265
Compound 1: 2-(1H-indol-3-yl)acetic acid, C10H9NO2, InChI=1S/C10H9NO2/c12-10(13)5-7-6-11-9-4-2-1-3-8(7)9/h1-4,6,11H,5H2,(H,12,13), purity 99.6%
Compound 2: methanol, CH4O, InChI=1S/CH4O/c1-2/h2H,1H3, purity 99.7%
Compound 3: propan-1-ol, C3H8O, InChI=1S/C3H8O/c1-2-3-4/h4H,2-3H2,1H3, purity 99.4%
Compound 4: propan-2-ol, C3H8O, InChI=1S/C3H8O/c1-3(2)4/h3-4H,1-2H3, purity 99.5%
Compound 5: ethanol, C2H6O, InChI=1S/C2H6O/c1-2-3/h3H,2H2,1H3, purity 99.5%
Compound 6: butan-1-ol, C4H10O, InChI=1S/C4H10O/c1-2-3-4-5/h5H,2-4H2,1H3, purity 99.5%
Compound 7: dimethylformamide, C3H7NO, InChI=1S/C3H7NO/c1-4(2)3-5/h3H,1-2H3, purity 99.6%
Compound 8: ethyl acetate, C4H8O2, InChI=1S/C4H8O2/c1-3-6-4(2)5/h3H2,1-2H3, purity 99.5%
Compound 9: acetonitrile, C2H3N, InChI=1S/C2H3N/c1-2-3/h1H3, purity 99.4%
Compound 10: 1,4-dioxane, C4H8O2, InChI=1S/C4H8O2/c1-2-6-4-3-5-1/h1-4H2, purity 99.6%
Compound 11: dimethyl sulfoxide, C2H6OS, InChI=1S/C2H6OS/c1-4(2)3/h1-2H3, purity 99.4%
Compound 12: trichloromethane, CHCl3, InChI=1S/CHCl3/c2-1(3)4/h1H, purity 99.4%
Compound 13: acetone, C3H6O, InChI=1S/C3H6O/c1-3(2)4/h1-2H3, purity 99.5%
Compound 14: benzoic acid, C7H6O2, InChI=1S/C7H6O2/c8-7(9)6-4-2-1-3-5-6/h1-5H,(H,8,9), purity 99.5%

System: 2-(1H-indol-3-yl)acetic acid + methanol; phases: Liquid, Crystal
Fixed: Pressure, kPa = 101.2
Property: Mole fraction of 2-(1H-indol-3-yl)acetic acid (Liquid); method: Chromatography
Temperature, K	Mole fraction of 2-(1H-indol-3-yl)acetic acid	uncertainty
278.15	8.954e-06	2.3e-07
283.15	9.757e-06	2.51e-07
288.15	1.053e-05	2.7e-07
293.15	1.172e-05	3e-07
298.15	1.267e-05	3.3e-07
303.15	1.383e-05	3.6e-07
308.15	1.528e-05	3.9e-07
313.15	1.667e-05	4.3e-07
318.15	1.832e-05	4.7e-07
323.15	1.991e-05	5.1e-07

System: 2-(1H-indol-3-yl)acetic acid + ethanol; phases: Liquid, Crystal
Fixed: Pressure, kPa = 101.2
Property: Mole fraction of 2-(1H-indol-3-yl)acetic acid (Liquid); method: Chromatography
Temperature, K	Mole fraction of 2-(1H-indol-3-yl)acetic acid	uncertainty
278.15	1.171e-05	3e-07
283.15	1.25e-05	3.2e-07
288.15	1.354e-05	3.5e-07
293.15	1.467e-05	3.8e-07
298.15	1.598e-05	4.1e-07
303.15	1.726e-05	4.4e-07
308.15	1.862e-05	4.8e-07
313.15	2.035e-05	5.2e-07
318.15	2.216e-05	5.7e-07
323.15	2.413e-05	6.2e-07

System: 2-(1H-indol-3-yl)acetic acid + propan-1-ol; phases: Liquid, Crystal
Fixed: Pressure, kPa = 101.2
Property: Mole fraction of 2-(1H-indol-3-yl)acetic acid (Liquid); method: Chromatography
Temperature, K	Mole fraction of 2-(1H-indol-3-yl)acetic acid	uncertainty
278.15	1.445e-05	3.7e-07
283.15	1.539e-05	4e-07
288.15	1.654e-05	4.3e-07
293.15	1.802e-05	4.6e-07
298.15	1.93e-05	5e-07
303.15	2.082e-05	5.3e-07
308.15	2.238e-05	5.8e-07
313.15	2.422e-05	6.2e-07
318.15	2.623e-05	6.7e-07
323.15	2.847e-05	7.3e-07

System: 2-(1H-indol-3-yl)acetic acid + propan-2-ol; phases: Liquid, Crystal
Fixed: Pressure, kPa = 101.2
Property: Mole fraction of 2-(1H-indol-3-yl)acetic acid (Liquid); method: Chromatography
Temperature, K	Mole fraction of 2-(1H-indol-3-yl)acetic acid	uncertainty
278.15	2.154e-05	5.5e-07
283.15	2.274e-05	5.8e-07
288.15	2.406e-05	6.2e-07
293.15	2.557e-05	6.6e-07
298.15	2.715e-05	7e-07
303.15	2.885e-05	7.4e-07
308.15	3.101e-05	8e-07
313.15	3.338e-05	8.6e-07
318.15	3.583e-05	9.2e-07
323.15	3.877e-05	1e-06

System: 2-(1H-indol-3-yl)acetic acid + butan-1-ol; phases: Liquid, Crystal
Fixed: Pressure, kPa = 101.2
Property: Mole fraction of 2-(1H-indol-3-yl)acetic acid (Liquid); method: Chromatography
Temperature, K	Mole fraction of 2-(1H-indol-3-yl)acetic acid	uncertainty
278.15	2.775e-05	7.1e-07
283.15	2.898e-05	7.4e-07
288.15	3.038e-05	7.8e-07
293.15	3.201e-05	8.2e-07
298.15	3.391e-05	8.7e-07
303.15	3.6e-05	9.2e-07
308.15	3.832e-05	9.8e-07
313.15	4.086e-05	1.05e-06
318.15	4.344e-05	1.12e-06
323.15	4.648e-05	1.19e-06

System: 2-(1H-indol-3-yl)acetic acid + ethyl acetate; phases: Liquid, Crystal
Fixed: Pressure, kPa = 101.2
Property: Mole fraction of 2-(1H-indol-3-yl)acetic acid (Liquid); method: Chromatography
Temperature, K	Mole fraction of 2-(1H-indol-3-yl)acetic acid	uncertainty
278.15	3.442e-05	8.8e-07
283.15	3.635e-05	9.3e-07
288.15	3.851e-05	9.9e-07
293.15	4.093e-05	1.05e-06
298.15	4.322e-05	1.11e-06
303.15	4.581e-05	1.18e-06
308.15	4.848e-05	1.25e-06
313.15	5.131e-05	1.32e-06
318.15	5.43e-05	1.4e-06
323.15	5.76e-05	1.48e-06

System: 2-(1H-indol-3-yl)acetic acid + 1,4-dioxane; phases: Liquid, Crystal
Fixed: Pressure, kPa = 101.2
Property: Mole fraction of 2-(1H-indol-3-yl)acetic acid (Liquid); method: Chromatography
Temperature, K	Mole fraction of 2-(1H-indol-3-yl)acetic acid	uncertainty
288.15	2.059e-05	5.3e-07
293.15	2.198e-05	5.6e-07
298.15	2.346e-05	6e-07
303.15	2.506e-05	6.4e-07
308.15	2.691e-05	6.9e-07
313.15	2.891e-05	7.4e-07
318.15	3.123e-05	8e-07
323.15	3.382e-05	8.7e-07

System: 2-(1H-indol-3-yl)acetic acid + dimethyl sulfoxide; phases: Liquid, Crystal
Fixed: Pressure, kPa = 101.2
Property: Mole fraction of 2-(1H-indol-3-yl)acetic acid (Liquid); method: Chromatography
Temperature, K	Mole fraction of 2-(1H-indol-3-yl)acetic acid	uncertainty
293.15	3.731e-05	9.6e-07
298.15	3.952e-05	1.02e-06
303.15	4.199e-05	1.08e-06
308.15	4.453e-05	1.14e-06
313.15	4.769e-05	1.23e-06
318.15	5.117e-05	1.31e-06
323.15	5.485e-05	1.41e-06

System: 2-(1H-indol-3-yl)acetic acid + dimethylformamide; phases: Liquid, Crystal
Fixed: Pressure, kPa = 101.2
Property: Mole fraction of 2-(1H-indol-3-yl)acetic acid (Liquid); method: Chromatography
Temperature, K	Mole fraction of 2-(1H-indol-3-yl)acetic acid	uncertainty
278.15	2.984e-05	7.7e-07
283.15	3.117e-05	8e-07
288.15	3.287e-05	8.4e-07
293.15	3.47e-05	8.9e-07
298.15	3.667e-05	9.4e-07
303.15	3.903e-05	1e-06
308.15	4.158e-05	1.07e-06
313.15	4.448e-05	1.14e-06
318.15	4.742e-05	1.22e-06
323.15	5.068e-05	1.3e-06

System: 2-(1H-indol-3-yl)acetic acid + acetone; phases: Liquid, Crystal
Fixed: Pressure, kPa = 101.2
Property: Mole fraction of 2-(1H-indol-3-yl)acetic acid (Liquid); method: Chromatography
Temperature, K	Mole fraction of 2-(1H-indol-3-yl)acetic acid	uncertainty
278.15	2.492e-05	6.4e-07
283.15	2.599e-05	6.7e-07
288.15	2.73e-05	7e-07
293.15	2.889e-05	7.4e-07
298.15	3.069e-05	7.9e-07
303.15	3.258e-05	8.4e-07
308.15	3.49e-05	9e-07
313.15	3.734e-05	9.6e-07
318.15	3.98e-05	1.02e-06
323.15	4.251e-05	1.09e-06

System: 2-(1H-indol-3-yl)acetic acid + acetonitrile; phases: Liquid, Crystal
Fixed: Pressure, kPa = 101.2
Property: Mole fraction of 2-(1H-indol-3-yl)acetic acid (Liquid); method: Chromatography
Temperature, K	Mole fraction of 2-(1H-indol-3-yl)acetic acid	uncertainty
278.15	6.506e-06	1.67e-07
283.15	6.977e-06	1.79e-07
288.15	7.475e-06	1.92e-07
293.15	8.029e-06	2.06e-07
298.15	8.678e-06	2.23e-07
303.15	9.364e-06	2.41e-07
308.15	1.015e-05	2.6e-07
313.15	1.102e-05	2.8e-07
318.15	1.197e-05	3.1e-07
323.15	1.301e-05	3.3e-07

System: 2-(1H-indol-3-yl)acetic acid + trichloromethane; phases: Liquid, Crystal
Fixed: Pressure, kPa = 101.2
Property: Mole fraction of 2-(1H-indol-3-yl)acetic acid (Liquid); method: Chromatography
Temperature, K	Mole fraction of 2-(1H-indol-3-yl)acetic acid	uncertainty
278.15	2.878e-06	7.4e-08
283.15	2.987e-06	7.7e-08
288.15	3.111e-06	8e-08
293.15	3.295e-06	8.5e-08
298.15	3.484e-06	9e-08
303.15	3.624e-06	9.3e-08
308.15	3.876e-06	1e-07
313.15	4.073e-06	1.05e-07
318.15	4.341e-06	1.12e-07
323.15	4.612e-06	1.18e-07

System: benzoic acid + ethanol; phases: Liquid, Crystal
Fixed: Pressure, kPa = 101.2
Property: Mole fraction of benzoic acid (Liquid); method: Chromatography
Temperature, K	Mole fraction of benzoic acid	uncertainty
278.15	0.129	0.003
283.15	0.141	0.004
293.15	0.165	0.004
303.15	0.196	0.005
313.15	0.232	0.006
