Measured thermophysical data. Determination of Infinite Dilution Activity Coefficients of Several Organic Solutes in N-Butylpyridinium Nitrate/N-Octylpyridinium Nitrate by Blend Inverse Gas Chromatography
Source: J. Chem. Eng. Data, 2017, 10.1021/acs.jced.7b00244
Compound 1: 1-butylpyridinium nitrate, C9H14N2O3, InChI=1S/C9H14N.NO3/c1-2-3-7-10-8-5-4-6-9-10;2-1(3)4/h4-6,8-9H,2-3,7H2,1H3;/q+1;-1, purity 95%
Compound 2: 1-octylpyridinium nitrate, C13H22N2O3, InChI=1S/C13H22N.NO3/c1-2-3-4-5-6-8-11-14-12-9-7-10-13-14;2-1(3)4/h7,9-10,12-13H,2-6,8,11H2,1H3;/q+1;-1, purity 95%
Compound 3: hexane, C6H14, InChI=1S/C6H14/c1-3-5-6-4-2/h3-6H2,1-2H3, purity 98%
Compound 4: heptane, C7H16, InChI=1S/C7H16/c1-3-5-7-6-4-2/h3-7H2,1-2H3, purity 98%
Compound 5: octane, C8H18, InChI=1S/C8H18/c1-3-5-7-8-6-4-2/h3-8H2,1-2H3, purity 98%
Compound 6: nonane, C9H20, InChI=1S/C9H20/c1-3-5-7-9-8-6-4-2/h3-9H2,1-2H3, purity 98%
Compound 7: decane, C10H22, InChI=1S/C10H22/c1-3-5-7-9-10-8-6-4-2/h3-10H2,1-2H3, purity 98%
Compound 8: undecane, C11H24, InChI=1S/C11H24/c1-3-5-7-9-11-10-8-6-4-2/h3-11H2,1-2H3, purity 98%
Compound 9: dodecane, C12H26, InChI=1S/C12H26/c1-3-5-7-9-11-12-10-8-6-4-2/h3-12H2,1-2H3, purity 98%
Compound 10: dichloromethane, CH2Cl2, InChI=1S/CH2Cl2/c2-1-3/h1H2, purity 98%
Compound 11: acetone, C3H6O, InChI=1S/C3H6O/c1-3(2)4/h1-2H3, purity 98%
Compound 12: trichloromethane, CHCl3, InChI=1S/CHCl3/c2-1(3)4/h1H, purity 98%
Compound 13: ethyl acetate, C4H8O2, InChI=1S/C4H8O2/c1-3-6-4(2)5/h3H2,1-2H3, purity 98%
Compound 14: tetrahydrofuran, C4H8O, InChI=1S/C4H8O/c1-2-4-5-3-1/h1-4H2, purity 98%
Compound 15: diethyl ether, C4H10O, InChI=1S/C4H10O/c1-3-5-4-2/h3-4H2,1-2H3, purity 98%
Compound 16: tetrachloromethane, CCl4, InChI=1S/CCl4/c2-1(3,4)5, purity 98%
Compound 17: methyl ethanoate, C3H6O2, InChI=1S/C3H6O2/c1-3(4)5-2/h1-2H3, purity 98%
Compound 18: cyclohexane, C6H12, InChI=1S/C6H12/c1-2-4-6-5-3-1/h1-6H2, purity 98%
Compound 19: benzene, C6H6, InChI=1S/C6H6/c1-2-4-6-5-3-1/h1-6H, purity 98%
Compound 20: toluene, C7H8, InChI=1S/C7H8/c1-7-5-3-2-4-6-7/h2-6H,1H3, purity 98%
Compound 21: 1,2-dimethylbenzene, C8H10, InChI=1S/C8H10/c1-7-5-3-4-6-8(7)2/h3-6H,1-2H3, purity 98%
Compound 22: ethanol, C2H6O, InChI=1S/C2H6O/c1-2-3/h3H,2H2,1H3, purity 98%
Compound 23: methanol, CH4O, InChI=1S/CH4O/c1-2/h2H,1H3, purity 98%

System: 1-butylpyridinium nitrate + 1-octylpyridinium nitrate + hexane; phases: Liquid
Fixed: Pressure, kPa = 101
Fixed: Mole fraction of hexane = 0
Property: Activity coefficient of hexane (Liquid); method: Chromatography
Solvent: Amount ratio of component to other component of binary solvent of 1-butylpyridinium nitrate	Temperature, K	Activity coefficient of hexane	uncertainty
1	333.15	27.83	11.17
0.25	333.15	18.41	7.39
4	333.15	31.35	12.58
1	343.15	26.68	10.71
0.25	343.15	18.03	7.24
4	343.15	29.9	12
1	353.15	25.97	10.42
0.25	353.15	17.57	7.05
4	353.15	29.04	11.66
1	363.15	25.09	10.07
0.25	363.15	17.01	6.83
4	363.15	28.09	11.27
1	373.15	24.27	9.75
0.25	373.15	16.59	6.66
4	373.15	27.19	10.91

System: 1-butylpyridinium nitrate + 1-octylpyridinium nitrate + heptane; phases: Liquid
Fixed: Pressure, kPa = 101
Fixed: Mole fraction of heptane = 0
Property: Activity coefficient of heptane (Liquid); method: Chromatography
Solvent: Amount ratio of component to other component of binary solvent of 1-butylpyridinium nitrate	Temperature, K	Activity coefficient of heptane	uncertainty
1	333.15	20.38	8.18
0.25	333.15	14.88	5.97
4	333.15	28	11
1	343.15	19.84	7.96
0.25	343.15	14.58	5.85
4	343.15	27.23	10.93
1	353.15	19.32	7.75
0.25	353.15	14.24	5.71
4	353.15	26.53	10.65
1	363.15	18.86	7.57
0.25	363.15	13.98	5.61
4	363.15	25.88	10.39
1	373.15	18.45	7.41
0.25	373.15	13.73	5.51
4	373.15	25.25	10.13

System: 1-butylpyridinium nitrate + 1-octylpyridinium nitrate + octane; phases: Liquid
Fixed: Pressure, kPa = 101
Fixed: Mole fraction of octane = 0
Property: Activity coefficient of octane (Liquid); method: Chromatography
Solvent: Amount ratio of component to other component of binary solvent of 1-butylpyridinium nitrate	Temperature, K	Activity coefficient of octane	uncertainty
1	333.15	20.43	8.2
0.25	333.15	15.01	6.02
4	333.15	27.15	10.9
1	343.15	20.03	8.04
0.25	343.15	14.72	5.91
4	343.15	26.52	10.64
1	353.15	19.65	7.89
0.25	353.15	14.43	5.79
4	353.15	25.95	10.41
1	363.15	19.29	7.74
0.25	363.15	14.15	5.68
4	363.15	25.43	10.21
1	373.15	18.97	7.62
0.25	373.15	13.91	5.58
4	373.15	24.95	10.01

System: 1-butylpyridinium nitrate + 1-octylpyridinium nitrate + nonane; phases: Liquid
Fixed: Pressure, kPa = 101
Fixed: Mole fraction of nonane = 0
Property: Activity coefficient of nonane (Liquid); method: Chromatography
Solvent: Amount ratio of component to other component of binary solvent of 1-butylpyridinium nitrate	Temperature, K	Activity coefficient of nonane	uncertainty
1	333.15	21.66	8.69
0.25	333.15	16.59	6.66
4	333.15	28.66	11.5
1	343.15	21.23	8.52
0.25	343.15	16.25	6.52
4	343.15	28.05	11.26
1	353.15	20.83	8.36
0.25	353.15	15.94	6.4
4	353.15	27.49	11.03
1	363.15	20.43	8.2
0.25	363.15	15.64	6.28
4	363.15	26.97	10.82
1	373.15	20.08	8.06
0.25	373.15	15.36	6.16
4	373.15	26.45	10.62

System: 1-butylpyridinium nitrate + 1-octylpyridinium nitrate + decane; phases: Liquid
Fixed: Pressure, kPa = 101
Fixed: Mole fraction of decane = 0
Property: Activity coefficient of decane (Liquid); method: Chromatography
Solvent: Amount ratio of component to other component of binary solvent of 1-butylpyridinium nitrate	Temperature, K	Activity coefficient of decane	uncertainty
1	333.15	26.03	10.45
0.25	333.15	19.47	7.81
4	333.15	33.89	13.6
1	343.15	25.2	10.1
0.25	343.15	18.96	7.61
4	343.15	32.83	13.18
1	353.15	24.62	9.88
0.25	353.15	18.49	7.42
4	353.15	31.52	12.65
1	363.15	23.82	9.56
0.25	363.15	18.07	7.25
4	363.15	32.21	12.93
1	373.15	23.27	9.34
0.25	373.15	17.67	7.09
4	373.15	31.28	12.55

System: 1-butylpyridinium nitrate + 1-octylpyridinium nitrate + undecane; phases: Liquid
Fixed: Pressure, kPa = 101
Fixed: Mole fraction of undecane = 0
Property: Activity coefficient of undecane (Liquid); method: Chromatography
Solvent: Amount ratio of component to other component of binary solvent of 1-butylpyridinium nitrate	Temperature, K	Activity coefficient of undecane	uncertainty
1	333.15	31.88	12.8
0.25	333.15	23.85	9.57
4	333.15	40.72	16.34
1	343.15	30.67	12.31
0.25	343.15	23.12	9.28
4	343.15	39.39	15.81
1	353.15	29.77	11.95
0.25	353.15	22.35	8.97
4	353.15	38.04	15.27
1	363.15	28.64	11.49
0.25	363.15	21.74	8.73
4	363.15	36.8	14.8
1	373.15	27.9	11.2
0.25	373.15	21.2	8.5
4	373.15	35.64	14.3

System: 1-butylpyridinium nitrate + 1-octylpyridinium nitrate + dodecane; phases: Liquid
Fixed: Pressure, kPa = 101
Fixed: Mole fraction of dodecane = 0
Property: Activity coefficient of dodecane (Liquid); method: Chromatography
Solvent: Amount ratio of component to other component of binary solvent of 1-butylpyridinium nitrate	Temperature, K	Activity coefficient of dodecane	uncertainty
1	333.15	38.19	15.33
0.25	333.15	28.74	11.53
4	333.15	47.59	19.1
1	343.15	36.75	14.75
0.25	343.15	27.81	11.16
4	343.15	46.19	18.54
1	353.15	35.55	14.27
0.25	353.15	26.82	10.76
4	353.15	44.83	17.99
1	363.15	34.11	13.69
0.25	363.15	26	10
4	363.15	43.52	17.47
1	373.15	33.17	13.32
0.25	373.15	25.21	10.12
4	373.15	42.31	16.98

System: 1-butylpyridinium nitrate + 1-octylpyridinium nitrate + dichloromethane; phases: Liquid
Fixed: Pressure, kPa = 101
Fixed: Mole fraction of dichloromethane = 0
Property: Activity coefficient of dichloromethane (Liquid); method: Chromatography
Solvent: Amount ratio of component to other component of binary solvent of 1-butylpyridinium nitrate	Temperature, K	Activity coefficient of dichloromethane	uncertainty
1	333.15	0.6592	0.2648
0.25	333.15	0.4848	0.1953
4	333.15	0.6715	0.2695
1	343.15	0.6853	0.2749
0.25	343.15	0.5006	0.2016
4	343.15	0.7039	0.2823
1	353.15	0.7118	0.2855
0.25	353.15	0.52	0.21
4	353.15	0.73	0.29
1	363.15	0.7325	0.2937
0.25	363.15	0.5427	0.2183
4	363.15	0.7627	0.3058
1	373.15	0.7579	0.3039
0.25	373.15	0.5638	0.2266
4	373.15	0.791	0.317

System: 1-butylpyridinium nitrate + 1-octylpyridinium nitrate + acetone; phases: Liquid
Fixed: Pressure, kPa = 101
Fixed: Mole fraction of acetone = 0
Property: Activity coefficient of acetone (Liquid); method: Chromatography
Solvent: Amount ratio of component to other component of binary solvent of 1-butylpyridinium nitrate	Temperature, K	Activity coefficient of acetone	uncertainty
1	333.15	1.353	0.542
0.25	333.15	1.067	0.427
4	333.15	1.345	0.539
1	343.15	1.374	0.551
0.25	343.15	1.064	0.426
4	343.15	1.374	0.551
1	353.15	1.403	0.562
0.25	353.15	1.078	0.432
4	353.15	1.394	0.559
1	363.15	1.418	0.568
0.25	363.15	1.095	0.439
4	363.15	1.425	0.571
1	373.15	1.441	0.578
0.25	373.15	1.111	0.445
4	373.15	1.458	0.584

System: 1-butylpyridinium nitrate + 1-octylpyridinium nitrate + trichloromethane; phases: Liquid
Fixed: Pressure, kPa = 101
Fixed: Mole fraction of trichloromethane = 0
Property: Activity coefficient of trichloromethane (Liquid); method: Chromatography
Solvent: Amount ratio of component to other component of binary solvent of 1-butylpyridinium nitrate	Temperature, K	Activity coefficient of trichloromethane	uncertainty
1	333.15	0.4317	0.1745
0.25	333.15	0.299	0.122
4	333.15	0.4684	0.1888
1	343.15	0.4641	0.1871
0.25	343.15	0.3231	0.1316
4	343.15	0.5069	0.2041
1	353.15	0.4992	0.201
0.25	353.15	0.3498	0.1421
4	353.15	0.5461	0.2196
1	363.15	0.5341	0.2149
0.25	363.15	0.3777	0.153
4	363.15	0.5889	0.2366
1	373.15	0.5714	0.2297
0.25	373.15	0.4074	0.1647
4	373.15	0.6309	0.2533

System: 1-butylpyridinium nitrate + 1-octylpyridinium nitrate + ethyl acetate; phases: Liquid
Fixed: Pressure, kPa = 101
Fixed: Mole fraction of ethyl acetate = 0
Property: Activity coefficient of ethyl acetate (Liquid); method: Chromatography
Solvent: Amount ratio of component to other component of binary solvent of 1-butylpyridinium nitrate	Temperature, K	Activity coefficient of ethyl acetate	uncertainty
1	333.15	2.839	1.139
0.25	333.15	1.969	0.79
4	333.15	2.648	1.063
1	343.15	2.582	1.036
0.25	343.15	1.95	0.78
4	343.15	2.713	1.089
1	353.15	2.619	1.051
0.25	353.15	1.957	0.785
4	353.15	2.743	1.101
1	363.15	2.657	1.066
0.25	363.15	1.988	0.798
4	363.15	2.842	1.14
1	373.15	2.697	1.083
0.25	373.15	2.018	0.81
4	373.15	2.908	1.167

System: 1-butylpyridinium nitrate + 1-octylpyridinium nitrate + tetrahydrofuran; phases: Liquid
Fixed: Pressure, kPa = 101
Fixed: Mole fraction of tetrahydrofuran = 0
Property: Activity coefficient of tetrahydrofuran (Liquid); method: Chromatography
Solvent: Amount ratio of component to other component of binary solvent of 1-butylpyridinium nitrate	Temperature, K	Activity coefficient of tetrahydrofuran	uncertainty
1	333.15	11.43	4.59
0.25	333.15	10.18	4.09
4	333.15	11.52	4.62
1	343.15	11.67	4.68
0.25	343.15	10.23	4.11
4	343.15	11.83	4.75
1	353.15	11.88	4.77
0.25	353.15	10.35	4.15
4	353.15	12.01	4.82
1	363.15	11.89	4.77
0.25	363.15	10.49	4.21
4	363.15	12.37	4.96
1	373.15	11.95	4.8
0.25	373.15	10.47	4.2
4	373.15	12.64	5.07

System: 1-butylpyridinium nitrate + 1-octylpyridinium nitrate + diethyl ether; phases: Liquid
Fixed: Pressure, kPa = 101
Fixed: Mole fraction of diethyl ether = 0
Property: Activity coefficient of diethyl ether (Liquid); method: Chromatography
Solvent: Amount ratio of component to other component of binary solvent of 1-butylpyridinium nitrate	Temperature, K	Activity coefficient of diethyl ether	uncertainty
1	333.15	10.22	4.1
0.25	333.15	9.4	3.775
4	333.15	8.98	3.604
1	343.15	10.19	4.09
0.25	343.15	7.952	3.192
4	343.15	9.442	3.789
1	353.15	10.58	4.25
0.25	353.15	7.751	3.111
4	353.15	9.012	3.617
1	363.15	9.328	3.743
0.25	363.15	7.792	3.127
4	363.15	10.33	4.15
1	373.15	10.47	4.2
0.25	373.15	7.724	3.1
4	373.15	10.83	4.35

System: 1-butylpyridinium nitrate + 1-octylpyridinium nitrate + tetrachloromethane; phases: Liquid
Fixed: Pressure, kPa = 101
Fixed: Mole fraction of tetrachloromethane = 0
Property: Activity coefficient of tetrachloromethane (Liquid); method: Chromatography
Solvent: Amount ratio of component to other component of binary solvent of 1-butylpyridinium nitrate	Temperature, K	Activity coefficient of tetrachloromethane	uncertainty
1	333.15	2.285	0.918
0.25	333.15	1.646	0.66
4	333.15	2.48	1
1	343.15	2.353	0.944
0.25	343.15	1.68	0.67
4	343.15	2.562	1.028
1	353.15	2.415	0.969
0.25	353.15	1.738	0.697
4	353.15	2.622	1.052
1	363.15	2.48	1
0.25	363.15	1.791	0.718
4	363.15	2.718	1.091
1	373.15	2.551	1.024
0.25	373.15	1.811	0.726
4	373.15	2.773	1.113

System: 1-butylpyridinium nitrate + 1-octylpyridinium nitrate + methyl ethanoate; phases: Liquid
Fixed: Pressure, kPa = 101
Fixed: Mole fraction of methyl ethanoate = 0
Property: Activity coefficient of methyl ethanoate (Liquid); method: Chromatography
Solvent: Amount ratio of component to other component of binary solvent of 1-butylpyridinium nitrate	Temperature, K	Activity coefficient of methyl ethanoate	uncertainty
1	333.15	1.98	0.79
0.25	333.15	1.545	0.619
4	333.15	1.862	0.747
1	343.15	1.989	0.798
0.25	343.15	1.51	0.61
4	343.15	1.884	0.756
1	353.15	2.005	0.805
0.25	353.15	1.511	0.606
4	353.15	1.894	0.76
1	363.15	2.023	0.812
0.25	363.15	1.519	0.609
4	363.15	1.949	0.782
1	373.15	2.044	0.821
0.25	373.15	1.52	0.61
4	373.15	1.988	0.798

System: 1-butylpyridinium nitrate + 1-octylpyridinium nitrate + cyclohexane; phases: Liquid
Fixed: Pressure, kPa = 101
Fixed: Mole fraction of cyclohexane = 0
Property: Activity coefficient of cyclohexane (Liquid); method: Chromatography
Solvent: Amount ratio of component to other component of binary solvent of 1-butylpyridinium nitrate	Temperature, K	Activity coefficient of cyclohexane	uncertainty
1	333.15	11.22	4.5
0.25	333.15	8.028	3.222
4	333.15	14.2	5.7
1	343.15	11.01	4.42
0.25	343.15	7.511	3.014
4	343.15	13.96	5.6
1	353.15	10.81	4.34
0.25	353.15	7.378	2.961
4	353.15	13.74	5.51
1	363.15	10.63	4.27
0.25	363.15	7.283	2.923
4	363.15	13.55	5.44
1	373.15	10.47	4.2
0.25	373.15	7.061	2.834
4	373.15	13.36	5.36

System: 1-butylpyridinium nitrate + 1-octylpyridinium nitrate + benzene; phases: Liquid
Fixed: Pressure, kPa = 101
Fixed: Mole fraction of benzene = 0
Property: Activity coefficient of benzene (Liquid); method: Chromatography
Solvent: Amount ratio of component to other component of binary solvent of 1-butylpyridinium nitrate	Temperature, K	Activity coefficient of benzene	uncertainty
1	333.15	1.968	0.791
0.25	333.15	1.249	0.5
4	333.15	1.571	0.63
1	343.15	1.999	0.802
0.25	343.15	1.257	0.504
4	343.15	1.6	0.642
1	353.15	2.038	0.818
0.25	353.15	1.268	0.508
4	353.15	1.633	0.655
1	363.15	2.061	0.827
0.25	363.15	1.293	0.518
4	363.15	1.685	0.676
1	373.15	2.095	0.842
0.25	373.15	1.313	0.526
4	373.15	1.744	0.7

System: 1-butylpyridinium nitrate + 1-octylpyridinium nitrate + toluene; phases: Liquid
Fixed: Pressure, kPa = 101
Fixed: Mole fraction of toluene = 0
Property: Activity coefficient of toluene (Liquid); method: Chromatography
Solvent: Amount ratio of component to other component of binary solvent of 1-butylpyridinium nitrate	Temperature, K	Activity coefficient of toluene	uncertainty
1	333.15	2.702	1.085
0.25	333.15	1.681	0.674
4	333.15	2.64	1.06
1	343.15	2.718	1.091
0.25	343.15	1.702	0.683
4	343.15	2.654	1.065
1	353.15	2.74	1.1
0.25	353.15	1.735	0.696
4	353.15	2.679	1.075
1	363.15	2.767	1.11
0.25	363.15	1.775	0.712
4	363.15	2.723	1.093
1	373.15	2.815	1.13
0.25	373.15	1.833	0.735
4	373.15	2.769	1.111

System: 1-butylpyridinium nitrate + 1-octylpyridinium nitrate + 1,2-dimethylbenzene; phases: Liquid
Fixed: Pressure, kPa = 101
Fixed: Mole fraction of 1,2-dimethylbenzene = 0
Property: Activity coefficient of 1,2-dimethylbenzene (Liquid); method: Chromatography
Solvent: Amount ratio of component to other component of binary solvent of 1-butylpyridinium nitrate	Temperature, K	Activity coefficient of 1,2-dimethylbenzene	uncertainty
1	333.15	3.215	1.291
0.25	333.15	2.013	0.808
4	333.15	3.65	1.469
1	343.15	3.201	1.285
0.25	343.15	2.01	0.807
4	343.15	2.546	1.023
1	353.15	3.192	1.281
0.25	353.15	2.009	0.806
4	353.15	2.552	1.024
1	363.15	3.187	1.279
0.25	363.15	2.012	0.807
4	363.15	2.57	1.031
1	373.15	3.204	1.287
0.25	373.15	2.021	0.811
4	373.15	2.598	1.043

System: 1-butylpyridinium nitrate + 1-octylpyridinium nitrate + ethanol; phases: Liquid
Fixed: Pressure, kPa = 101
Fixed: Mole fraction of ethanol = 0
Property: Activity coefficient of ethanol (Liquid); method: Chromatography
Solvent: Amount ratio of component to other component of binary solvent of 1-butylpyridinium nitrate	Temperature, K	Activity coefficient of ethanol	uncertainty
1	333.15	0.6584	0.2645
0.25	333.15	0.3988	0.1613
4	333.15	0.5383	0.2165
1	343.15	0.6433	0.2582
0.25	343.15	0.3909	0.1582
4	343.15	0.5269	0.212
1	353.15	0.6333	0.2542
0.25	353.15	0.3862	0.1564
4	353.15	0.5176	0.2083
1	363.15	0.6243	0.2507
0.25	363.15	0.383	0.155
4	363.15	0.5126	0.2063
1	373.15	0.6189	0.2489
0.25	373.15	0.3833	0.1552
4	373.15	0.5079	0.2044

System: 1-butylpyridinium nitrate + 1-octylpyridinium nitrate + methanol; phases: Liquid
Fixed: Pressure, kPa = 101
Fixed: Mole fraction of methanol = 0
Property: Activity coefficient of methanol (Liquid); method: Chromatography
Solvent: Amount ratio of component to other component of binary solvent of 1-butylpyridinium nitrate	Temperature, K	Activity coefficient of methanol	uncertainty
1	333.15	0.4755	0.1919
0.25	333.15	0.2942	0.1203
4	333.15	0.3577	0.1452
1	343.15	0.4738	0.1909
0.25	343.15	0.2933	0.12
4	343.15	0.3578	0.1452
1	353.15	0.4752	0.1915
0.25	353.15	0.295	0.121
4	353.15	0.3587	0.1456
1	363.15	0.4765	0.192
0.25	363.15	0.2979	0.1218
4	363.15	0.362	0.147
1	373.15	0.4787	0.1931
0.25	373.15	0.3043	0.1243
4	373.15	0.3649	0.148
