Measured thermophysical data. Determination of Ternary Vapor-Liquid Equilibrium of Dimethyl Oxalate-Methanol-1,2-Butanediol under Atmosphere Pressure
Source: J. Chem. Eng. Data, 2019, 10.1021/acs.jced.8b00918
Compound 1: methanol, CH4O, InChI=1S/CH4O/c1-2/h2H,1H3, purity 99.9%
Compound 2: dimethyl ethanedioate, C4H6O4, InChI=1S/C4H6O4/c1-7-3(5)4(6)8-2/h1-2H3, purity 99%
Compound 3: 1,2-butanediol, C4H10O2, InChI=1S/C4H10O2/c1-2-4(6)3-5/h4-6H,2-3H2,1H3, purity 98%

System: methanol; phases: Liquid, Gas
Property: Vapor or sublimation pressure, kPa (Liquid); method: Ebulliometric method (Recirculating still)
Temperature, K	Vapor or sublimation pressure, kPa	uncertainty
337.68	101.325	5.447

System: dimethyl ethanedioate; phases: Liquid, Gas
Property: Vapor or sublimation pressure, kPa (Liquid); method: Ebulliometric method (Recirculating still)
Temperature, K	Vapor or sublimation pressure, kPa	uncertainty
436.65	101.325	5.447

System: 1,2-butanediol; phases: Liquid, Gas
Property: Vapor or sublimation pressure, kPa (Liquid); method: Ebulliometric method (Recirculating still)
Temperature, K	Vapor or sublimation pressure, kPa	uncertainty
469.58	101.325	5.447

System: dimethyl ethanedioate + methanol; phases: Liquid, Gas
Fixed: Pressure, kPa = 101.325
Property: Boiling temperature at pressure P, K (Liquid); method: Ebulliometric method (Recirculating still)
Mole fraction of dimethyl ethanedioate	Boiling temperature at pressure P, K	uncertainty
0	337.68	1.08
0.0536	338.72	1.14
0.1302	340.06	1.13
0.1665	340.61	1.12
0.2081	341.3	1.15
0.341	344.11	1.21
0.4725	348.65	1.35
0.5846	353.96	1.56
0.6625	359.46	2.01
0.7592	368.66	2.4
0.8293	377.47	3.07
0.8704	384.87	5.49
0.9014	397.23	8.06
0.9376	411.71	8.05
0.9671	423.42	8.07
1	436.65	1.08

System: dimethyl ethanedioate + methanol; phases: Gas, Liquid
Fixed: Pressure, kPa = 101.325
Property: Mole fraction of dimethyl ethanedioate (Gas); method: Chromatography
Mole fraction of dimethyl ethanedioate	Mole fraction of dimethyl ethanedioate	uncertainty
0	0	
0.0536	0.0011	0.0011
0.1302	0.0023	0.0023
0.1665	0.003	0.003
0.2081	0.0037	0.0037
0.341	0.0068	0.0068
0.4725	0.0128	0.0128
0.5846	0.0224	0.0201
0.6625	0.0349	0.0206
0.7592	0.064	0.0216
0.8293	0.1045	0.0335
0.8704	0.2238	0.0716
0.9014	0.3542	0.1117
0.9376	0.5909	0.1348
0.9671	0.7922	0.1326
1	1	

System: methanol + 1,2-butanediol; phases: Liquid, Gas
Fixed: Pressure, kPa = 101.325
Property: Boiling temperature at pressure P, K (Liquid); method: Ebulliometric method (Recirculating still)
Mole fraction of methanol	Boiling temperature at pressure P, K	uncertainty
1	337.68	1.08
0.9089	339.98	1.2
0.8526	341.67	1.3
0.7708	344.95	1.32
0.6982	347.6	1.74
0.5689	358.4	2.01
0.414	371.68	2.69
0.38	375.87	2.81
0.3226	383.52	3.34
0.221	400.78	4.11
0.144	419.19	5.41
0.0771	439.05	6.35
0.0495	449.13	7.76
0.0188	461.43	7.61
0	469.58	1.08

System: methanol + 1,2-butanediol; phases: Gas, Liquid
Fixed: Pressure, kPa = 101.325
Property: Mole fraction of methanol (Gas); method: Chromatography
Mole fraction of methanol	Mole fraction of methanol	uncertainty
1	1	
0.9089	0.9998	0.0002
0.8526	0.9996	0.0004
0.7708	0.9992	0.0008
0.6982	0.9987	0.0013
0.5689	0.9945	0.0055
0.414	0.9903	0.0097
0.38	0.9856	0.0144
0.3226	0.9766	0.0208
0.221	0.9415	0.0252
0.144	0.8351	0.049
0.0771	0.6167	0.0824
0.0495	0.4422	0.1475
0.0188	0.1919	0.1546
0	0	

System: dimethyl ethanedioate + methanol + 1,2-butanediol; phases: Liquid, Gas
Fixed: Pressure, kPa = 101.325
Property: Mole fraction of methanol (Liquid); method: Chromatography
Property: Mole fraction of methanol (Gas); method: Chromatography
Property: Mole fraction of dimethyl ethanedioate (Gas); method: Chromatography
Temperature, K	Mole fraction of dimethyl ethanedioate	Mole fraction of methanol	uncertainty	Mole fraction of methanol	uncertainty	Mole fraction of dimethyl ethanedioate	uncertainty
347.47	0.2968	0.6636	0.0201	0.9927	0.0073	0.0071	
342.86	0.066	0.848	0.02	0.9966	0.0034	0.0031	
349.99	0.0814	0.6942	0.0201	0.9901	0.0099	0.0093	
352.68	0.0797	0.6428	0.0202	0.9858	0.0142	0.0138	
354.47	0.062	0.6099	0.0202	0.9832	0.0168	0.0162	
353.17	0.0592	0.6333	0.0202	0.9897	0.0103	0.0095	
347.84	0.1887	0.7093	0.0201	0.9947	0.0053	0.0048	
344.94	0.1264	0.7895	0.0201	0.9939	0.0061	0.0051	
348.29	0.2254	0.6851	0.0201	0.9918	0.0082	0.0076	
344.58	0.209	0.7622	0.0201	0.9957	0.0043	0.0042	
342.4	0.0678	0.8611	0.02	0.9374	0.02	0.0583	
342.45	0.0536	0.8607	0.02	0.9546	0.02	0.0233	
342.99	0.0412	0.8469	0.02	0.9576	0.02	0.0179	
346.32	0.1018	0.7664	0.0201	0.9937	0.0063	0.0059	
