Measured thermophysical data. Density and Viscosity of N-Methylacetamide-Calcium Chloride Mixtures over the Temperature Range from 308.15 to 328.15 K at Atmospheric Pressure
Source: J. Chem. Eng. Data, 2017, 10.1021/acs.jced.7b00494
Compound 1: N-methylacetamide, C3H7NO, InChI=1S/C3H7NO/c1-3(5)4-2/h1-2H3,(H,4,5)
Compound 2: calcium chloride, CaCl2, InChI=1S/Ca.2ClH/h;2*1H/q+2;;/p-2

System: N-methylacetamide; phases: Liquid
Fixed: Pressure, kPa = 99.6
Property: Mass density, kg/m3 (Liquid); method: Vibrating tube method
Temperature, K	Mass density, kg/m3	uncertainty
308.15	945.85	1.9
313.15	941.63	1.89
318.15	937.44	1.89
323.15	933.24	1.88
328.15	929.07	1.87

System: N-methylacetamide; phases: Liquid
Fixed: Pressure, kPa = 99.6
Property: Kinematic viscosity, m2/s (Liquid); method: Capillary tube (Ostwald; Ubbelohde) method
Temperature, K	Kinematic viscosity, m2/s	uncertainty
308.15	3.7857e-06	4.65e-08
313.15	3.3499e-06	4.12e-08
318.15	2.9878e-06	3.68e-08
323.15	2.6758e-06	3.3e-08
328.15	2.4199e-06	2.99e-08

System: N-methylacetamide + calcium chloride; phases: Liquid
Fixed: Pressure, kPa = 99.6
Property: Mass density, kg/m3 (Liquid); method: Vibrating tube method
Temperature, K	Molality, mol/kg of calcium chloride	Mass density, kg/m3	uncertainty
308.15	0	945.85	1.9
308.15	0.00398	946.1	1.9
308.15	0.01042	946.61	1.9
308.15	0.04232	948.77	1.91
308.15	0.05605	949.67	1.91
308.15	0.08536	951.77	1.92
308.15	0.10221	953.01	1.92
308.15	0.13142	954.97	1.92
308.15	0.15392	956.57	1.92
308.15	0.16135	957.09	1.93
308.15	0.17193	957.84	1.93
308.15	0.19978	959.8	1.93
308.15	0.22189	961.27	1.93
308.15	0.25782	964	1.94
308.15	0.35462	970.82	1.95
313.15	0	941.63	1.89
313.15	0.00398	941.91	1.9
313.15	0.01042	942.38	1.9
313.15	0.04232	944.56	1.9
313.15	0.05605	945.49	1.9
313.15	0.08536	947.59	1.91
313.15	0.10221	948.87	1.91
313.15	0.13142	950.79	1.91
313.15	0.15392	952.41	1.92
313.15	0.16135	952.96	1.92
313.15	0.17193	953.69	1.92
313.15	0.19978	955.68	1.92
313.15	0.22189	957.26	1.93
313.15	0.25782	959.75	1.93
313.15	0.35462	966.61	1.94
318.15	0	937.44	1.89
318.15	0.00398	937.73	1.89
318.15	0.01042	938.2	1.89
318.15	0.04232	940.39	1.89
318.15	0.05605	941.34	1.89
318.15	0.08536	943.45	1.9
318.15	0.10221	944.7	1.9
318.15	0.13142	946.62	1.9
318.15	0.15392	948.18	1.91
318.15	0.16135	948.73	1.91
318.15	0.17193	949.44	1.91
318.15	0.19978	951.58	1.91
318.15	0.22189	953.04	1.92
318.15	0.25782	955.68	1.92
318.15	0.35462	962.4	1.94
323.15	0	933.24	1.88
323.15	0.00398	933.54	1.88
323.15	0.01042	933.97	1.88
323.15	0.04232	936.24	1.88
323.15	0.05605	937.18	1.89
323.15	0.08536	939.13	1.89
323.15	0.10221	940.52	1.89
323.15	0.13142	942.51	1.9
323.15	0.15392	943.99	1.9
323.15	0.16135	944.54	1.9
323.15	0.17193	945.4	1.9
323.15	0.19978	947.31	1.91
323.15	0.22189	948.77	1.91
323.15	0.25782	951.4	1.91
323.15	0.35462	958.22	1.93
328.15	0	929.07	1.87
328.15	0.00398	929.34	1.87
328.15	0.01042	929.79	1.87
328.15	0.04232	932.07	1.88
328.15	0.05605	933.03	1.88
328.15	0.08536	934.99	1.88
328.15	0.10221	936.21	1.88
328.15	0.13142	938.24	1.89
328.15	0.15392	939.85	1.89
328.15	0.16135	940.37	1.89
328.15	0.17193	941.17	1.89
328.15	0.19978	943.19	1.9
328.15	0.22189	944.71	1.9
328.15	0.25782	947.13	1.91
328.15	0.35462	953.99	1.92

System: N-methylacetamide + calcium chloride; phases: Liquid
Fixed: Pressure, kPa = 99.6
Property: Kinematic viscosity, m2/s (Liquid); method: Capillary tube (Ostwald; Ubbelohde) method
Temperature, K	Molality, mol/kg of calcium chloride	Kinematic viscosity, m2/s	uncertainty
308.15	0	3.7857e-06	4.65e-08
308.15	0.00398	3.8126e-06	4.69e-08
308.15	0.01042	3.8299e-06	4.71e-08
308.15	0.04232	4.0371e-06	4.96e-08
308.15	0.05605	4.13e-06	5.07e-08
308.15	0.08536	4.3364e-06	5.33e-08
308.15	0.10221	4.4687e-06	5.49e-08
308.15	0.13142	4.701e-06	5.77e-08
308.15	0.15392	4.8875e-06	6e-08
308.15	0.16135	4.9507e-06	6.07e-08
308.15	0.17193	5.034e-06	6.17e-08
308.15	0.19978	5.2625e-06	6.44e-08
308.15	0.22189	5.4596e-06	6.67e-08
308.15	0.25782	5.7919e-06	7.06e-08
308.15	0.35462	6.9209e-06	8.39e-08
313.15	0	3.3499e-06	4.12e-08
313.15	0.00398	3.3754e-06	4.15e-08
313.15	0.01042	3.4125e-06	4.2e-08
313.15	0.04232	3.5886e-06	4.41e-08
313.15	0.05605	3.6683e-06	4.51e-08
313.15	0.08536	3.8271e-06	4.71e-08
313.15	0.10221	3.9469e-06	4.85e-08
313.15	0.13142	4.1486e-06	5.1e-08
313.15	0.15392	4.3052e-06	5.29e-08
313.15	0.16135	4.3492e-06	5.34e-08
313.15	0.17193	4.4241e-06	5.43e-08
313.15	0.19978	4.6334e-06	5.69e-08
313.15	0.22189	4.7985e-06	5.89e-08
313.15	0.25782	5.0979e-06	6.25e-08
313.15	0.35462	6.0086e-06	7.32e-08
318.15	0	2.9878e-06	3.68e-08
318.15	0.00398	3.0208e-06	3.72e-08
318.15	0.01042	3.0431e-06	3.75e-08
318.15	0.04232	3.1895e-06	3.93e-08
318.15	0.05605	3.2491e-06	4e-08
318.15	0.08536	3.3991e-06	4.18e-08
318.15	0.10221	3.4941e-06	4.3e-08
318.15	0.13142	3.6661e-06	4.51e-08
318.15	0.15392	3.8012e-06	4.67e-08
318.15	0.16135	3.8512e-06	4.73e-08
318.15	0.17193	3.901e-06	4.8e-08
318.15	0.19978	4.0814e-06	5.02e-08
318.15	0.22189	4.2417e-06	5.21e-08
318.15	0.25782	4.4961e-06	5.52e-08
318.15	0.35462	5.3201e-06	6.51e-08
323.15	0	2.6758e-06	3.3e-08
323.15	0.00398	2.6914e-06	3.32e-08
323.15	0.01042	2.7239e-06	3.36e-08
323.15	0.04232	2.8603e-06	3.53e-08
323.15	0.05605	2.9178e-06	3.6e-08
323.15	0.08536	3.0476e-06	3.75e-08
323.15	0.10221	3.1274e-06	3.85e-08
323.15	0.13142	3.2763e-06	4.03e-08
323.15	0.15392	3.3921e-06	4.17e-08
323.15	0.16135	3.4323e-06	4.22e-08
323.15	0.17193	3.4841e-06	4.29e-08
323.15	0.19978	3.6423e-06	4.48e-08
323.15	0.22189	3.773e-06	4.64e-08
323.15	0.25782	3.9968e-06	4.91e-08
323.15	0.35462	4.7097e-06	5.78e-08
328.15	0	2.4199e-06	2.99e-08
328.15	0.00398	2.4355e-06	3.01e-08
328.15	0.01042	2.4611e-06	3.04e-08
328.15	0.04232	2.5777e-06	3.18e-08
328.15	0.05605	2.634e-06	3.25e-08
328.15	0.08536	2.7416e-06	3.38e-08
328.15	0.10221	2.8107e-06	3.47e-08
328.15	0.13142	2.9509e-06	3.64e-08
328.15	0.15392	3.0522e-06	3.76e-08
328.15	0.16135	3.0877e-06	3.8e-08
328.15	0.17193	3.129e-06	3.85e-08
328.15	0.19978	3.2736e-06	4.03e-08
328.15	0.22189	3.3852e-06	4.17e-08
328.15	0.25782	3.5846e-06	4.41e-08
328.15	0.35462	4.2039e-06	5.16e-08
