Measured thermophysical data. Three Binary Azeotropic Systems for 1-(Methoxymethoxy)-propane, 1-(Ethoxymethoxy)-propane, and Methoxy(methoxymethoxy)methane with Three Alcohols at 101.33 kPa: Experimental Data, Correlation, and Purification
Source: J. Chem. Eng. Data, 2018, 10.1021/acs.jced.7b00740
Compound 1: ethanol, C2H6O, InChI=1S/C2H6O/c1-2-3/h3H,2H2,1H3, purity 99.8%
Compound 2: propan-1-ol, C3H8O, InChI=1S/C3H8O/c1-2-3-4/h4H,2-3H2,1H3, purity 99.8%
Compound 3: butan-1-ol, C4H10O, InChI=1S/C4H10O/c1-2-3-4-5/h5H,2-4H2,1H3, purity 99.8%
Compound 4: 2,4,6-trioxaheptane, C4H10O3, InChI=1S/C4H10O3/c1-5-3-7-4-6-2/h3-4H2,1-2H3
Compound 5: 1-(methoxymethoxy)propane, C5H12O2, InChI=1S/C5H12O2/c1-3-4-7-5-6-2/h3-5H2,1-2H3
Compound 6: 1-(ethoxymethoxy)propane, C6H14O2, InChI=1S/C6H14O2/c1-3-5-8-6-7-4-2/h3-6H2,1-2H3

System: ethanol; phases: Liquid
Property: Mass density, kg/m3 (Liquid); method: Pycnometric method
Temperature, K	Pressure, kPa	Mass density, kg/m3	uncertainty
293.15	101.325	789.2	0.7

System: ethanol; phases: Liquid
Property: Refractive index (Na D-line) (Liquid); method: Standard Abbe refractometry
Temperature, K	Pressure, kPa	Refractive index (Na D-line)	uncertainty
298.15	101.325	1.3595	0.0005

System: ethanol; phases: Liquid, Gas
Property: Vapor or sublimation pressure, kPa (Liquid); method: Ebulliometric method (Recirculating still)
Temperature, K	Vapor or sublimation pressure, kPa	uncertainty
351.51	101.33	1.02

System: propan-1-ol; phases: Liquid
Property: Mass density, kg/m3 (Liquid); method: Pycnometric method
Temperature, K	Pressure, kPa	Mass density, kg/m3	uncertainty
293.15	101.325	803.6	0.7

System: propan-1-ol; phases: Liquid
Property: Refractive index (Na D-line) (Liquid); method: Standard Abbe refractometry
Temperature, K	Pressure, kPa	Refractive index (Na D-line)	uncertainty
298.15	101.325	1.3835	0.0005

System: propan-1-ol; phases: Liquid, Gas
Property: Vapor or sublimation pressure, kPa (Liquid); method: Ebulliometric method (Recirculating still)
Temperature, K	Vapor or sublimation pressure, kPa	uncertainty
370.42	101.33	1.02

System: butan-1-ol; phases: Liquid
Property: Mass density, kg/m3 (Liquid); method: Pycnometric method
Temperature, K	Pressure, kPa	Mass density, kg/m3	uncertainty
293.15	101.325	809.5	0.7

System: butan-1-ol; phases: Liquid
Property: Refractive index (Na D-line) (Liquid); method: Standard Abbe refractometry
Temperature, K	Pressure, kPa	Refractive index (Na D-line)	uncertainty
298.15	101.325	1.3971	0.0005

System: butan-1-ol; phases: Liquid, Gas
Property: Vapor or sublimation pressure, kPa (Liquid); method: Ebulliometric method (Recirculating still)
Temperature, K	Vapor or sublimation pressure, kPa	uncertainty
390.92	101.33	1.02

System: 2,4,6-trioxaheptane; phases: Liquid
Property: Mass density, kg/m3 (Liquid); method: Pycnometric method
Temperature, K	Pressure, kPa	Mass density, kg/m3	uncertainty
293.15	101.325	958	0.8

System: 2,4,6-trioxaheptane; phases: Liquid
Property: Refractive index (Na D-line) (Liquid); method: Standard Abbe refractometry
Temperature, K	Pressure, kPa	Refractive index (Na D-line)	uncertainty
298.15	101.325	1.379	0.0005

System: 2,4,6-trioxaheptane; phases: Liquid, Gas
Property: Vapor or sublimation pressure, kPa (Liquid); method: Ebulliometric method (Recirculating still)
Temperature, K	Vapor or sublimation pressure, kPa	uncertainty
378	101.33	1.02

System: 1-(methoxymethoxy)propane; phases: Liquid
Property: Mass density, kg/m3 (Liquid); method: Pycnometric method
Temperature, K	Pressure, kPa	Mass density, kg/m3	uncertainty
293.15	101.325	841.2	0.7

System: 1-(methoxymethoxy)propane; phases: Liquid
Property: Refractive index (Na D-line) (Liquid); method: Standard Abbe refractometry
Temperature, K	Pressure, kPa	Refractive index (Na D-line)	uncertainty
298.15	101.325	1.3757	0.0005

System: 1-(methoxymethoxy)propane; phases: Liquid, Gas
Property: Vapor or sublimation pressure, kPa (Liquid); method: Ebulliometric method (Recirculating still)
Temperature, K	Vapor or sublimation pressure, kPa	uncertainty
366.13	101.33	1.02

System: 1-(ethoxymethoxy)propane; phases: Liquid
Property: Mass density, kg/m3 (Liquid); method: Pycnometric method
Temperature, K	Pressure, kPa	Mass density, kg/m3	uncertainty
293.15	101.325	831.1	0.7

System: 1-(ethoxymethoxy)propane; phases: Liquid
Property: Refractive index (Na D-line) (Liquid); method: Standard Abbe refractometry
Temperature, K	Pressure, kPa	Refractive index (Na D-line)	uncertainty
298.15	101.325	1.3818	0.0005

System: 1-(ethoxymethoxy)propane; phases: Liquid, Gas
Property: Vapor or sublimation pressure, kPa (Liquid); method: Ebulliometric method (Recirculating still)
Temperature, K	Vapor or sublimation pressure, kPa	uncertainty
386.53	101.33	1.02

System: ethanol + 1-(methoxymethoxy)propane; phases: Liquid, Gas
Fixed: Pressure, kPa = 101.33
Property: Boiling temperature at pressure P, K (Liquid); method: Ebulliometric method (Recirculating still)
Mole fraction of ethanol	Boiling temperature at pressure P, K	uncertainty
0	366.13	0.22
0.0124	364.66	0.47
0.0446	361.99	0.4
0.0762	360	0.34
0.1099	358.34	0.3
0.1677	355.74	0.28
0.2188	354.22	0.25
0.2927	352.51	0.23
0.3592	351.46	0.22
0.456	350.48	0.22
0.5192	349.98	0.22
0.5788	349.69	0.22
0.6336	349.49	0.22
0.6792	349.41	0.22
0.7219	349.38	0.22
0.7617	349.41	0.22
0.7993	349.5	0.22
0.834	349.65	0.22
0.8766	349.97	0.22
0.9158	350.32	0.22
0.9504	350.74	0.22
0.9722	351.04	0.23
0.9862	351.27	0.23
0.9961	351.45	0.23
1	351.51	0.22

System: ethanol + 1-(methoxymethoxy)propane; phases: Gas, Liquid
Fixed: Pressure, kPa = 101.33
Property: Mole fraction of ethanol (Gas); method: Chromatography
Mole fraction of ethanol	Mole fraction of ethanol	uncertainty
0	0	
0.0124	0.0456	0.0152
0.0446	0.1425	0.0135
0.0762	0.2203	0.0106
0.1099	0.2762	0.009
0.1677	0.367	0.0084
0.2188	0.424	0.0073
0.2927	0.4857	0.0071
0.3592	0.5302	0.0067
0.456	0.5851	0.0063
0.5192	0.6148	0.0061
0.5788	0.6442	0.006
0.6336	0.6718	0.0059
0.6792	0.6961	0.0058
0.7219	0.719	0.0058
0.7617	0.7441	0.0059
0.7993	0.7704	0.006
0.834	0.7972	0.0066
0.8766	0.8431	0.0066
0.9158	0.8778	0.0067
0.9504	0.9201	0.0077
0.9722	0.9538	0.0086
0.9862	0.9762	0.0089
0.9961	0.9933	0.0067
1	1	

System: butan-1-ol + 1-(ethoxymethoxy)propane; phases: Liquid, Gas
Fixed: Pressure, kPa = 101.33
Property: Boiling temperature at pressure P, K (Liquid); method: Ebulliometric method (Recirculating still)
Mole fraction of butan-1-ol	Boiling temperature at pressure P, K	uncertainty
0	386.53	0.22
0.0245	386.13	0.22
0.0516	385.78	0.22
0.0972	385.21	0.22
0.1692	384.61	0.22
0.2289	384.27	0.22
0.283	384.13	0.22
0.3342	384.05	0.22
0.393	384.11	0.22
0.4517	384.26	0.22
0.5042	384.48	0.22
0.5662	384.82	0.22
0.6343	385.31	0.22
0.7006	385.82	0.22
0.7624	386.57	0.22
0.8083	387.2	0.22
0.8533	387.88	0.22
0.8891	388.52	0.22
0.927	389.2	0.22
0.9483	389.6	0.22
0.9664	389.98	0.23
0.9936	390.72	0.24
1	390.92	0.22

System: butan-1-ol + 1-(ethoxymethoxy)propane; phases: Gas, Liquid
Fixed: Pressure, kPa = 101.33
Property: Mole fraction of butan-1-ol (Gas); method: Chromatography
Mole fraction of butan-1-ol	Mole fraction of butan-1-ol	uncertainty
0	0	
0.0245	0.0325	0.0048
0.0516	0.0643	0.0048
0.0972	0.1212	0.0046
0.1692	0.1962	0.0046
0.2289	0.2534	0.0046
0.283	0.2983	0.0046
0.3342	0.3395	0.0048
0.393	0.384	0.005
0.4517	0.4274	0.0052
0.5042	0.4672	0.0055
0.5662	0.513	0.0056
0.6343	0.5688	0.0053
0.7006	0.6237	0.0051
0.7624	0.6824	0.005
0.8083	0.732	0.005
0.8533	0.7807	0.005
0.8891	0.8261	0.0052
0.927	0.8774	0.0053
0.9483	0.9107	0.0056
0.9664	0.9392	0.006
0.9936	0.9877	0.0065
1	1	

System: propan-1-ol + 2,4,6-trioxaheptane; phases: Liquid, Gas
Fixed: Pressure, kPa = 101.33
Property: Boiling temperature at pressure P, K (Liquid); method: Ebulliometric method (Recirculating still)
Mole fraction of propan-1-ol	Boiling temperature at pressure P, K	uncertainty
0	378	0.22
0.0154	376.67	0.32
0.0791	374.85	0.23
0.1488	373.16	0.22
0.2209	372.02	0.22
0.2771	371.17	0.22
0.3515	370.3	0.22
0.4157	369.72	0.22
0.4851	369.26	0.22
0.5354	369.03	0.22
0.5901	368.84	0.22
0.6557	368.71	0.22
0.7107	368.7	0.22
0.7634	368.74	0.22
0.8052	368.85	0.22
0.8513	369.05	0.22
0.9053	369.4	0.22
0.9469	369.78	0.22
0.99	370.26	0.22
1	370.42	0.22

System: propan-1-ol + 2,4,6-trioxaheptane; phases: Gas, Liquid
Fixed: Pressure, kPa = 101.33
Property: Mole fraction of propan-1-ol (Gas); method: Chromatography
Mole fraction of propan-1-ol	Mole fraction of propan-1-ol	uncertainty
0	0	
0.0154	0.0305	0.0062
0.0791	0.139	0.0053
0.1488	0.2349	0.0049
0.2209	0.3178	0.005
0.2771	0.3749	0.005
0.3515	0.4428	0.0053
0.4157	0.4944	0.0055
0.4851	0.5467	0.0052
0.5354	0.5828	0.0049
0.5901	0.6212	0.0047
0.6557	0.6675	0.0045
0.7107	0.7073	0.0043
0.7634	0.7474	0.0042
0.8052	0.7812	0.0041
0.8513	0.8224	0.0041
0.9053	0.876	0.0043
0.9469	0.9258	0.0046
0.99	0.985	0.005
1	1	
