Measured thermophysical data. Solubility Determination and Thermodynamic Mixing Properties of 5-Methyl-2-pyrazinecarboxylic Acid in Different Solvents
Source: J. Chem. Eng. Data, 2019, 10.1021/acs.jced.9b00406
Compound 1: 2-methylpyrazine-5-carboxylic acid, C6H6N2O2, InChI=1S/C6H6N2O2/c1-4-2-8-5(3-7-4)6(9)10/h2-3H,1H3,(H,9,10), purity 98.6%
Compound 2: methanol, CH4O, InChI=1S/CH4O/c1-2/h2H,1H3, purity 99.7%
Compound 3: ethanol, C2H6O, InChI=1S/C2H6O/c1-2-3/h3H,2H2,1H3, purity 99.5%
Compound 4: propan-1-ol, C3H8O, InChI=1S/C3H8O/c1-2-3-4/h4H,2-3H2,1H3, purity 99.5%
Compound 5: propan-2-ol, C3H8O, InChI=1S/C3H8O/c1-3(2)4/h3-4H,1-2H3, purity 99.6%
Compound 6: butan-1-ol, C4H10O, InChI=1S/C4H10O/c1-2-3-4-5/h5H,2-4H2,1H3, purity 99.6%
Compound 7: acetone, C3H6O, InChI=1S/C3H6O/c1-3(2)4/h1-2H3, purity 99.5%
Compound 8: butanone, C4H8O, InChI=1S/C4H8O/c1-3-4(2)5/h3H2,1-2H3, purity 99.4%
Compound 9: toluene, C7H8, InChI=1S/C7H8/c1-7-5-3-2-4-6-7/h2-6H,1H3, purity 99.6%
Compound 10: ethyl acetate, C4H8O2, InChI=1S/C4H8O2/c1-3-6-4(2)5/h3H2,1-2H3, purity 99.6%
Compound 11: acetonitrile, C2H3N, InChI=1S/C2H3N/c1-2-3/h1H3, purity 99.5%
Compound 12: 1,4-dioxane, C4H8O2, InChI=1S/C4H8O2/c1-2-6-4-3-5-1/h1-4H2, purity 99.5%
Compound 13: water, H2O, InChI=1S/H2O/h1H2, purity 99.9%

System: 2-methylpyrazine-5-carboxylic acid; phases: Crystal, Liquid, Air at 1 atmosphere
Property: Triple point temperature, K (Crystal); method: DSC
Triple point temperature, K	uncertainty
440.35	1.22

System: 2-methylpyrazine-5-carboxylic acid; phases: Crystal, Liquid, Air at 1 atmosphere
Property: Molar enthalpy of transition or fusion, kJ/mol (Crystal); method: DSC
Molar enthalpy of transition or fusion, kJ/mol	uncertainty
28.6	0.99

System: 2-methylpyrazine-5-carboxylic acid + methanol; phases: Liquid, Crystal
Fixed: Pressure, kPa = 101.2
Property: Mole fraction of 2-methylpyrazine-5-carboxylic acid (Liquid); method: Chromatography
Temperature, K	Mole fraction of 2-methylpyrazine-5-carboxylic acid	uncertainty
273.15	0.0085	0.0007
278.15	0.01	0.0008
283.15	0.0116	0.0009
288.15	0.0136	0.0011
293.15	0.0156	0.0012
298.15	0.0177	0.0014
303.15	0.0201	0.0016
308.15	0.0229	0.0018
313.15	0.0257	0.002

System: 2-methylpyrazine-5-carboxylic acid + ethanol; phases: Liquid, Crystal
Fixed: Pressure, kPa = 101.2
Property: Mole fraction of 2-methylpyrazine-5-carboxylic acid (Liquid); method: Chromatography
Temperature, K	Mole fraction of 2-methylpyrazine-5-carboxylic acid	uncertainty
273.15	0.0109	0.0009
278.15	0.0127	0.001
283.15	0.0149	0.0012
288.15	0.0171	0.0013
293.15	0.0197	0.0015
298.15	0.0225	0.0018
303.15	0.0257	0.002
308.15	0.0293	0.0023
313.15	0.0333	0.0026

System: 2-methylpyrazine-5-carboxylic acid + propan-1-ol; phases: Liquid, Crystal
Fixed: Pressure, kPa = 101.2
Property: Mole fraction of 2-methylpyrazine-5-carboxylic acid (Liquid); method: Chromatography
Temperature, K	Mole fraction of 2-methylpyrazine-5-carboxylic acid	uncertainty
273.15	0.01	0.0008
278.15	0.0117	0.0009
283.15	0.0136	0.0011
288.15	0.0158	0.0012
293.15	0.0182	0.0014
298.15	0.0207	0.0016
303.15	0.0234	0.0018
308.15	0.0268	0.0021
313.15	0.0306	0.0024

System: 2-methylpyrazine-5-carboxylic acid + propan-2-ol; phases: Liquid, Crystal
Fixed: Pressure, kPa = 101.2
Property: Mole fraction of 2-methylpyrazine-5-carboxylic acid (Liquid); method: Chromatography
Temperature, K	Mole fraction of 2-methylpyrazine-5-carboxylic acid	uncertainty
273.15	0.0078	0.0006
278.15	0.0091	0.0007
283.15	0.0104	0.0008
288.15	0.0119	0.0009
293.15	0.0136	0.0011
298.15	0.0156	0.0012
303.15	0.0178	0.0014
308.15	0.0203	0.0016
313.15	0.0228	0.0018

System: 2-methylpyrazine-5-carboxylic acid + butan-1-ol; phases: Liquid, Crystal
Fixed: Pressure, kPa = 101.2
Property: Mole fraction of 2-methylpyrazine-5-carboxylic acid (Liquid); method: Chromatography
Temperature, K	Mole fraction of 2-methylpyrazine-5-carboxylic acid	uncertainty
273.15	0.0094	0.0007
278.15	0.0108	0.0008
283.15	0.0125	0.001
288.15	0.0143	0.0011
293.15	0.0165	0.0013
298.15	0.019	0.0015
303.15	0.0219	0.0017
308.15	0.0251	0.002
313.15	0.0287	0.0022

System: 2-methylpyrazine-5-carboxylic acid + acetone; phases: Liquid, Crystal
Fixed: Pressure, kPa = 101.2
Property: Mole fraction of 2-methylpyrazine-5-carboxylic acid (Liquid); method: Chromatography
Temperature, K	Mole fraction of 2-methylpyrazine-5-carboxylic acid	uncertainty
273.15	0.0067	0.0005
278.15	0.008	0.0006
283.15	0.0093	0.0007
288.15	0.0107	0.0008
293.15	0.0121	0.0009
298.15	0.0139	0.0011
303.15	0.0156	0.0012
308.15	0.0178	0.0014
313.15	0.02	0.0016

System: 2-methylpyrazine-5-carboxylic acid + butanone; phases: Liquid, Crystal
Fixed: Pressure, kPa = 101.2
Property: Mole fraction of 2-methylpyrazine-5-carboxylic acid (Liquid); method: Chromatography
Temperature, K	Mole fraction of 2-methylpyrazine-5-carboxylic acid	uncertainty
273.15	0.0058	0.0005
278.15	0.0068	0.0005
283.15	0.008	0.0006
288.15	0.0093	0.0007
293.15	0.0106	0.0008
298.15	0.0121	0.0009
303.15	0.0139	0.0011
308.15	0.0158	0.0012
313.15	0.0179	0.0014

System: 2-methylpyrazine-5-carboxylic acid + toluene; phases: Liquid, Crystal
Fixed: Pressure, kPa = 101.2
Property: Mole fraction of 2-methylpyrazine-5-carboxylic acid (Liquid); method: Chromatography
Temperature, K	Mole fraction of 2-methylpyrazine-5-carboxylic acid	uncertainty
273.15	0.00097	8e-05
278.15	0.0011	9e-05
283.15	0.00125	0.0001
288.15	0.00142	0.00011
293.15	0.00165	0.00013
298.15	0.00189	0.00015
303.15	0.00218	0.00017
308.15	0.0025	0.0002
313.15	0.00289	0.00023

System: 2-methylpyrazine-5-carboxylic acid + acetonitrile; phases: Liquid, Crystal
Fixed: Pressure, kPa = 101.2
Property: Mole fraction of 2-methylpyrazine-5-carboxylic acid (Liquid); method: Chromatography
Temperature, K	Mole fraction of 2-methylpyrazine-5-carboxylic acid	uncertainty
273.15	0.00248	0.00019
278.15	0.00292	0.00023
283.15	0.00344	0.00027
288.15	0.00401	0.00031
293.15	0.0046	0.00036
298.15	0.00534	0.00042
303.15	0.00605	0.00047
308.15	0.00688	0.00054
313.15	0.00779	0.00061

System: 2-methylpyrazine-5-carboxylic acid + ethyl acetate; phases: Liquid, Crystal
Fixed: Pressure, kPa = 101.2
Property: Mole fraction of 2-methylpyrazine-5-carboxylic acid (Liquid); method: Chromatography
Temperature, K	Mole fraction of 2-methylpyrazine-5-carboxylic acid	uncertainty
273.15	0.00431	0.00034
278.15	0.00504	0.00039
283.15	0.00582	0.00045
288.15	0.00663	0.00052
293.15	0.0075	0.00059
298.15	0.0084	0.00066
303.15	0.00945	0.00074
308.15	0.01068	0.00083
313.15	0.012	0.00094

System: 2-methylpyrazine-5-carboxylic acid + 1,4-dioxane; phases: Liquid, Crystal
Fixed: Pressure, kPa = 101.2
Property: Mole fraction of 2-methylpyrazine-5-carboxylic acid (Liquid); method: Chromatography
Temperature, K	Mole fraction of 2-methylpyrazine-5-carboxylic acid	uncertainty
288.15	0.01876	0.00146
293.15	0.02161	0.00169
298.15	0.02477	0.00193
303.15	0.02842	0.00222
308.15	0.03286	0.00256
313.15	0.03843	0.003

System: 2-methylpyrazine-5-carboxylic acid + water; phases: Liquid, Crystal
Fixed: Pressure, kPa = 101.2
Property: Mole fraction of 2-methylpyrazine-5-carboxylic acid (Liquid); method: Chromatography
Temperature, K	Mole fraction of 2-methylpyrazine-5-carboxylic acid	uncertainty
273.15	0.00332	0.00026
278.15	0.00383	0.0003
283.15	0.00446	0.00035
288.15	0.00516	0.0004
293.15	0.00586	0.00046
298.15	0.00674	0.00053
303.15	0.0077	0.0006
308.15	0.00883	0.00069
313.15	0.01012	0.00079
