Measured thermophysical data. Viscosity Measurement of Endothermic Fuels at Temperatures from 303 K to 673 K and Pressures up to 5.00 MPa
Source: J. Chem. Eng. Data, 2016, 10.1021/acs.jced.6b00391
Compound 1: dodecane, C12H26, InChI=1S/C12H26/c1-3-5-7-9-11-12-10-8-6-4-2/h3-12H2,1-2H3, purity 99.5%
Compound 2: heptane, C7H16, InChI=1S/C7H16/c1-3-5-7-6-4-2/h3-7H2,1-2H3, purity 99.5%
Compound 3: octane, C8H18, InChI=1S/C8H18/c1-3-5-7-8-6-4-2/h3-8H2,1-2H3, purity 99.5%

System: dodecane; phases: Liquid
Fixed: Pressure, kPa = 5000
Property: Viscosity, Pa*s (Liquid); method: Capillary tube (Ostwald; Ubbelohde) method
Temperature, K	Viscosity, Pa*s	uncertainty
303.2	0.0013335	1.75e-05
313.2	0.0011221	1.61e-05
323	0.00097	1.43e-05
333.1	0.0008519	1.34e-05
343.3	0.0007442	1.26e-05
353.3	0.0006736	1.21e-05
363.2	0.0006075	1.19e-05
373.3	0.0005467	1.17e-05
383.2	0.0004902	1.15e-05
393.2	0.0004472	1.13e-05
403.2	0.0004112	1.12e-05
413.2	0.0003785	1.11e-05
423.2	0.0003508	1.11e-05
433.2	0.0003277	1.1e-05
443.4	0.0002974	1.1e-05
453.1	0.0002822	1.09e-05
463.2	0.0002604	1.09e-05
473.2	0.000244	1.09e-05
483.1	0.000225	1.09e-05
483.1	0.000225	1.09e-05
493.2	0.0002076	1.08e-05
503.2	0.0001964	1.08e-05
513.1	0.0001846	1.08e-05
523.2	0.0001722	1.08e-05
533.1	0.0001608	1.08e-05
543.2	0.0001489	1.08e-05
553.2	0.0001375	1.08e-05
563.2	0.0001297	1.08e-05
573.2	0.0001201	1.08e-05
583.3	0.0001126	1.07e-05
593.2	0.0001031	1.07e-05
603.2	9.74e-05	1.07e-05
613.2	9.13e-05	1.07e-05
623.1	8.39e-05	1.07e-05
633.2	7.67e-05	1.07e-05
643.1	6.94e-05	1.07e-05
653.2	6.57e-05	1.07e-05
663.2	6.05e-05	1.07e-05
673.2	5.51e-05	1.07e-05
673.2	5.51e-05	1.07e-05

System: dodecane; phases: Liquid
Fixed: Pressure, kPa = 5000
Property: Viscosity, Pa*s (Liquid); method: Capillary tube (Ostwald; Ubbelohde) method
Temperature, K	Viscosity, Pa*s	uncertainty
303.2	0.0013144	1.44e-05
313.2	0.0011163	1.3e-05
323	0.0009626	1.1e-05
333.1	0.0008434	9.6e-06
343.3	0.0007445	8.7e-06
353.3	0.0006661	8.1e-06
363.2	0.0005969	7.6e-06
373.3	0.0005397	7.3e-06
383.2	0.0004913	7e-06
393.2	0.000448	6.8e-06
403.2	0.0004118	6.6e-06
413.2	0.0003799	6.4e-06
423.2	0.0003516	6.3e-06
433.2	0.0003259	6.2e-06
443.4	0.0003041	6.2e-06
453.1	0.0002827	6.1e-06
463.2	0.0002619	6.1e-06
473.2	0.000244	6e-06
483.1	0.0002259	6e-06
483.1	0.0002259	6e-06
493.2	0.0002072	5.9e-06
503.2	0.0001969	5.9e-06
513.1	0.0001835	5.9e-06
523.2	0.0001698	5.9e-06
533.1	0.0001591	5.8e-06
543.2	0.0001487	5.8e-06
553.2	0.0001391	5.8e-06
563.2	0.0001305	5.8e-06
573.2	0.0001221	5.8e-06
583.3	0.0001141	5.8e-06
593.2	0.0001064	5.7e-06
603.2	9.87e-05	5.7e-06
613.2	9.15e-05	5.7e-06
623.1	8.49e-05	5.7e-06
633.2	7.86e-05	5.7e-06
643.1	7.14e-05	5.7e-06
653.2	6.5e-05	5.7e-06
663.2	6.05e-05	5.7e-06
673.2	5.48e-05	5.7e-06
673.2	5.48e-05	5.7e-06

System: octane; phases: Liquid
Fixed: Pressure, kPa = 3100
Property: Viscosity, Pa*s (Liquid); method: Capillary tube (Ostwald; Ubbelohde) method
Temperature, K	Viscosity, Pa*s	uncertainty
303.2	0.0004913	5.8e-06
313.3	0.0004426	5.7e-06
323.2	0.0003961	5.3e-06
333.2	0.0003634	5.1e-06
343.2	0.0003311	5e-06
353.1	0.0003013	4.8e-06
363.2	0.0002765	4.7e-06
373.3	0.000254	4.6e-06
383	0.000234	4.5e-06
393.1	0.0002205	4.5e-06
403.2	0.0002019	4.4e-06
413.2	0.0001905	4.4e-06
423.2	0.0001761	4.4e-06
433.1	0.0001643	4.3e-06
443.2	0.0001526	4.3e-06
453.1	0.0001417	4.3e-06
463.2	0.0001321	4.3e-06
473.1	0.0001228	4.2e-06
483.1	0.0001138	4.2e-06
493.1	0.0001068	4.2e-06
503	9.93e-05	4.2e-06
513.2	9.01e-05	4.2e-06
523.3	8.25e-05	4.2e-06
533.4	7.53e-05	4.1e-06
543.4	6.78e-05	4.1e-06
553.4	6.07e-05	4.1e-06
563.3	5.32e-05	4.1e-06
573.3	4.44e-05	4.1e-06
583.1	3.25e-05	4.1e-06

System: octane; phases: Liquid
Fixed: Pressure, kPa = 3100
Property: Viscosity, Pa*s (Liquid); method: Capillary tube (Ostwald; Ubbelohde) method
Temperature, K	Viscosity, Pa*s	uncertainty
303.2	0.0004948	4.8e-06
313.3	0.0004431	4.6e-06
323.2	0.0003979	4.2e-06
333.2	0.0003617	3.8e-06
343.2	0.0003308	3.6e-06
353.1	0.0003032	3.5e-06
363.2	0.0002775	3.3e-06
373.3	0.000258	3.2e-06
383	0.0002379	3.1e-06
393.1	0.0002202	3e-06
403.2	0.000204	2.9e-06
413.2	0.0001902	2.8e-06
423.2	0.0001775	2.8e-06
433.1	0.0001642	2.7e-06
443.2	0.0001514	2.6e-06
453.1	0.0001428	2.6e-06
463.2	0.0001318	2.6e-06
473.1	0.0001241	2.5e-06
483.1	0.0001152	2.5e-06
493.1	0.0001072	2.5e-06
503	9.83e-05	2.5e-06
513.2	9.04e-05	2.4e-06
523.3	8.26e-05	2.4e-06
533.4	7.51e-05	2.4e-06
543.4	6.78e-05	2.4e-06
553.4	6.09e-05	2.4e-06
563.3	5.34e-05	2.4e-06
573.3	4.46e-05	2.4e-06
583.1	3.23e-05	2.4e-06

System: octane + heptane; phases: Liquid
Property: Viscosity, Pa*s (Liquid); method: Capillary tube (Ostwald; Ubbelohde) method
Pressure, kPa	Temperature, K	Mole fraction of heptane	Viscosity, Pa*s	uncertainty
100	303.5	0.255	0.0004422	1.08e-05
100	333.8	0.255	0.0003234	1.06e-05
100	363.4	0.255	0.0002447	1.04e-05
100	303.5	0.51	0.0004149	1.07e-05
100	333.5	0.51	0.0003011	1.05e-05
100	363.4	0.51	0.0002329	1.04e-05
100	305.7	0.759	0.0003798	1.06e-05
100	335.6	0.759	0.0002815	1.05e-05
100	364.6	0.759	0.0002164	1.04e-05
5000	413.9	0.255	0.0001792	1.03e-05
5000	303.5	0.51	0.0004362	1.07e-05
5000	373.6	0.51	0.0002277	1.04e-05
5000	413.7	0.51	0.0001702	1.03e-05
5000	473.4	0.51	0.0001124	1.02e-05
5000	473.5	0.255	0.0001186	1.02e-05
5000	303.9	0.255	0.0004663	1.08e-05
5000	373.2	0.255	0.0002415	1.04e-05
5000	305.7	0.759	0.0004032	1.06e-05
5000	373.2	0.759	0.0002181	1.04e-05
5000	424.4	0.759	0.0001497	1.03e-05
5000	472.5	0.759	0.0001071	1.02e-05

System: octane + heptane; phases: Liquid
Property: Viscosity, Pa*s (Liquid); method: Capillary tube (Ostwald; Ubbelohde) method
Pressure, kPa	Temperature, K	Mole fraction of heptane	Viscosity, Pa*s	uncertainty
100	303.5	0.255	0.0004417	5.8e-06
100	333.8	0.255	0.0003228	5.4e-06
100	363.4	0.255	0.0002464	5.1e-06
5000	303.9	0.255	0.0004658	5.8e-06
5000	373.2	0.255	0.0002402	5.1e-06
5000	413.9	0.255	0.0001801	4.8e-06
5000	473.5	0.255	0.0001184	4.7e-06
100	303.5	0.51	0.000413	5.7e-06
100	333.5	0.51	0.0003026	5.3e-06
100	363.4	0.51	0.0002323	5e-06
5000	303.5	0.51	0.0004357	5.7e-06
5000	373.6	0.51	0.0002275	5.1e-06
5000	413.7	0.51	0.0001698	4.8e-06
5000	473.4	0.51	0.0001125	4.7e-06
100	305.7	0.759	0.0003784	5.5e-06
100	335.6	0.759	0.0002806	5.2e-06
100	364.6	0.759	0.0002169	5e-06
5000	305.7	0.759	0.0004029	5.5e-06
5000	373.2	0.759	0.0002175	5e-06
5000	424.4	0.759	0.0001493	4.8e-06
5000	472.5	0.759	0.0001075	4.7e-06
