Measured thermophysical data. Phase Behavior of Imidazolium-Based Ionic Liquid + Phosphonium-Based Ionic Liquid Mixtures with a Common Anion: Effects of the Alkyl-Chain Length of Cation
Source: J. Chem. Eng. Data, 2018, 10.1021/acs.jced.7b00808
Compound 1: 1,3-dimethylimidazolium bis((trifluoromethyl)sulfonyl)amide, C7H9F6N3O4S2, InChI=1S/C5H9N2.C2F6NO4S2/c1-6-3-4-7(2)5-6;3-1(4,5)14(10,11)9-15(12,13)2(6,7)8/h3-5H,1-2H3;/q+1;-1
Compound 2: 1-ethyl-3-methylimidazolium bis((trifluoromethyl)sulfonyl)imide, C8H11F6N3O4S2, InChI=1S/C6H11N2.C2F6NO4S2/c1-3-8-5-4-7(2)6-8;3-1(4,5)14(10,11)9-15(12,13)2(6,7)8/h4-6H,3H2,1-2H3;/q+1;-1
Compound 3: 1-methyl-3-propylimidazolium bis[(trifluoromethyl)sulfonyl]imide, C9H13F6N3O4S2, InChI=1S/C7H13N2.C2F6NO4S2/c1-3-4-9-6-5-8(2)7-9;3-1(4,5)14(10,11)9-15(12,13)2(6,7)8/h5-7H,3-4H2,1-2H3;/q+1;-1
Compound 4: tributyldodecylphosphonium bis(trifluoromethylsulfonyl)imide, C26H52F6NO4PS2, InChI=1S/C24H52P.C2F6NO4S2/c1-5-9-13-14-15-16-17-18-19-20-24-25(21-10-6-2,22-11-7-3)23-12-8-4;3-1(4,5)14(10,11)9-15(12,13)2(6,7)8/h5-24H2,1-4H3;/q+1;-1
Compound 5: tri-n-butyltetradecylphosphonium bis(trifluoromethanesulfonyl)imide, C28H56F6NO4PS2, InChI=1S/C26H56P.C2F6NO4S2/c1-5-9-13-14-15-16-17-18-19-20-21-22-26-27(23-10-6-2,24-11-7-3)25-12-8-4;3-1(4,5)14(10,11)9-15(12,13)2(6,7)8/h5-26H2,1-4H3;/q+1;-1
Compound 6: tributylhexadecylphosphonium bis(trifluoromethanesulfonyl)imide, C30H60F6NO4PS2, InChI=1S/C28H60P.C2F6NO4S2/c1-5-9-13-14-15-16-17-18-19-20-21-22-23-24-28-29(25-10-6-2,26-11-7-3)27-12-8-4;3-1(4,5)14(10,11)9-15(12,13)2(6,7)8/h5-28H2,1-4H3;/q+1;-1
Compound 7: trihexyl(tetradecyl)phosphonium bis[(trifluoromethyl)sulfonyl]imide, C34H68F6NO4PS2, InChI=1S/C32H68P.C2F6NO4S2/c1-5-9-13-17-18-19-20-21-22-23-24-28-32-33(29-25-14-10-6-2,30-26-15-11-7-3)31-27-16-12-8-4;3-1(4,5)14(10,11)9-15(12,13)2(6,7)8/h5-32H2,1-4H3;/q+1;-1
Compound 8: tributyl(dodecyl)phosphonium tetrafluoroborate, C24H52BF4P, InChI=1S/C24H52P.BF4/c1-5-9-13-14-15-16-17-18-19-20-24-25(21-10-6-2,22-11-7-3)23-12-8-4;2-1(3,4)5/h5-24H2,1-4H3;/q+1;-1
Compound 9: tributyl(hexadecyl)phosphonium tetrafluoroborate, C28H60BF4P, InChI=1S/C28H60P.BF4/c1-5-9-13-14-15-16-17-18-19-20-21-22-23-24-28-29(25-10-6-2,26-11-7-3)27-12-8-4;2-1(3,4)5/h5-28H2,1-4H3;/q+1;-1

System: 1,3-dimethylimidazolium bis((trifluoromethyl)sulfonyl)amide + tributyldodecylphosphonium bis(trifluoromethylsulfonyl)imide; phases: Liquid mixture 1, Liquid mixture 2
Fixed: Pressure, kPa = 100
Property: Liquid-liquid equilibrium temperature, K (Liquid mixture 1); method: VISOBS
Mole fraction of 1,3-dimethylimidazolium bis((trifluoromethyl)sulfonyl)amide	Liquid-liquid equilibrium temperature, K	uncertainty
0.5006	271.1	1
0.5498	280.5	1
0.5998	286.8	1
0.6501	291.6	1
0.7004	293.8	1
0.75	295.6	1
0.7997	295.7	1
0.8501	296	1
0.9005	292.1	1
0.9191	289.8	1
0.9301	286.3	1
0.9401	282.6	1
0.9501	277.2	1

System: 1,3-dimethylimidazolium bis((trifluoromethyl)sulfonyl)amide + tri-n-butyltetradecylphosphonium bis(trifluoromethanesulfonyl)imide; phases: Liquid mixture 1, Liquid mixture 2
Fixed: Pressure, kPa = 100
Property: Liquid-liquid equilibrium temperature, K (Liquid mixture 1); method: VISOBS
Mole fraction of 1,3-dimethylimidazolium bis((trifluoromethyl)sulfonyl)amide	Liquid-liquid equilibrium temperature, K	uncertainty
0.4002	282.4	1
0.4494	298.4	1
0.4998	310.7	1
0.5499	319.5	1
0.6004	326.7	1
0.651	331.7	1
0.6999	334.8	1
0.75	337.3	1
0.8001	337.5	1
0.8499	337.8	1
0.9001	335.3	1
0.9199	332.3	1
0.9402	326.7	1
0.9602	313.5	1.1
0.97	303.9	1.1
0.98	288.6	1.2

System: 1,3-dimethylimidazolium bis((trifluoromethyl)sulfonyl)amide + tributylhexadecylphosphonium bis(trifluoromethanesulfonyl)imide; phases: Liquid mixture 1, Liquid mixture 2
Fixed: Pressure, kPa = 100
Property: Liquid-liquid equilibrium temperature, K (Liquid mixture 1); method: VISOBS
Mole fraction of 1,3-dimethylimidazolium bis((trifluoromethyl)sulfonyl)amide	Liquid-liquid equilibrium temperature, K	uncertainty
0.35	298.2	1
0.3764	310	1
0.3993	319.4	1
0.4253	326.4	1
0.4505	333.6	1
0.4996	346	1
0.5496	356.3	1
0.5999	365.9	1
0.6518	371.5	1
0.7006	376.3	1
0.7507	377.7	1
0.7998	379.5	1
0.8505	379.6	1
0.9012	379.8	1
0.92	374.7	1
0.9402	369.8	1
0.9602	360.3	1.1
0.98	329.4	1.2
0.985	317.3	1.5
0.99	300.4	1.8
0.9925	288.3	2.2

System: 1,3-dimethylimidazolium bis((trifluoromethyl)sulfonyl)amide + trihexyl(tetradecyl)phosphonium bis[(trifluoromethyl)sulfonyl]imide; phases: Liquid mixture 1, Liquid mixture 2
Fixed: Pressure, kPa = 100
Property: Liquid-liquid equilibrium temperature, K (Liquid mixture 1); method: VISOBS
Mole fraction of 1,3-dimethylimidazolium bis((trifluoromethyl)sulfonyl)amide	Liquid-liquid equilibrium temperature, K	uncertainty
0.2005	284.5	1.1
0.2259	304.5	1.1
0.2505	322	1
0.2755	336.2	1
0.2999	352.5	1
0.3999	395.5	1
0.4999	423.3	1
0.6	443.4	1
0.6247	447.5	1
0.937	440.2	1.1
0.95	430.7	1.3
0.99	346.2	2.6
0.9925	331.2	3.1
0.995	309.5	3.6

System: 1-ethyl-3-methylimidazolium bis((trifluoromethyl)sulfonyl)imide + tributylhexadecylphosphonium bis(trifluoromethanesulfonyl)imide; phases: Liquid mixture 1, Liquid mixture 2
Fixed: Pressure, kPa = 100
Property: Liquid-liquid equilibrium temperature, K (Liquid mixture 1); method: VISOBS
Mole fraction of 1-ethyl-3-methylimidazolium bis((trifluoromethyl)sulfonyl)imide	Liquid-liquid equilibrium temperature, K	uncertainty
0.6003	294.05	1.01
0.65	300.65	1.01
0.7007	305.05	1.01
0.751	307.75	1.01
0.8002	309.45	1.01
0.8503	310.75	1.01
0.9002	311.15	1.01
0.9501	304.75	1.01
0.9701	293.05	1.04

System: 1-ethyl-3-methylimidazolium bis((trifluoromethyl)sulfonyl)imide + trihexyl(tetradecyl)phosphonium bis[(trifluoromethyl)sulfonyl]imide; phases: Liquid mixture 1, Liquid mixture 2
Fixed: Pressure, kPa = 100
Property: Liquid-liquid equilibrium temperature, K (Liquid mixture 1); method: VISOBS
Mole fraction of 1-ethyl-3-methylimidazolium bis((trifluoromethyl)sulfonyl)imide	Liquid-liquid equilibrium temperature, K	uncertainty
0.2999	284.6	1
0.4001	335.3	1
0.499	362.2	1
0.5992	379.8	1
0.7047	389.5	1
0.8046	392.3	1
0.9	387.7	1
0.92	383.6	1
0.9503	370.3	1.1
0.9712	344.3	1.1

System: 1-methyl-3-propylimidazolium bis[(trifluoromethyl)sulfonyl]imide + trihexyl(tetradecyl)phosphonium bis[(trifluoromethyl)sulfonyl]imide; phases: Liquid mixture 1, Liquid mixture 2
Fixed: Pressure, kPa = 100
Property: Liquid-liquid equilibrium temperature, K (Liquid mixture 1); method: VISOBS
Mole fraction of 1-methyl-3-propylimidazolium bis[(trifluoromethyl)sulfonyl]imide	Liquid-liquid equilibrium temperature, K	uncertainty
0.4495	270.75	1.02
0.4998	285.05	1.02
0.5498	301.75	1.02
0.5934	308.95	1.01
0.6501	316.15	1.01
0.7002	320.25	1.01
0.7497	322.05	1.01
0.8001	323.35	1.01
0.85	322.95	1.01
0.9007	318.75	1.01
0.925	313.35	1.02
0.95	299.75	1.06
0.97	276.95	1.11

System: 1-ethyl-3-methylimidazolium bis((trifluoromethyl)sulfonyl)imide + tributyl(dodecyl)phosphonium tetrafluoroborate; phases: Liquid mixture 1, Liquid mixture 2
Fixed: Pressure, kPa = 100
Property: Liquid-liquid equilibrium temperature, K (Liquid mixture 1); method: VISOBS
Mole fraction of 1-ethyl-3-methylimidazolium bis((trifluoromethyl)sulfonyl)imide	Liquid-liquid equilibrium temperature, K	uncertainty
0.2018	338.7	1
0.2998	400.4	1
0.4	443.8	1
0.9752	430.6	1.6
0.985	398.9	1.9
0.99	370.1	2.5

System: 1-ethyl-3-methylimidazolium bis((trifluoromethyl)sulfonyl)imide + tributyl(hexadecyl)phosphonium tetrafluoroborate; phases: Liquid mixture 1, Liquid mixture 2
Fixed: Pressure, kPa = 100
Property: Liquid-liquid equilibrium temperature, K (Liquid mixture 1); method: VISOBS
Mole fraction of 1-ethyl-3-methylimidazolium bis((trifluoromethyl)sulfonyl)imide	Liquid-liquid equilibrium temperature, K	uncertainty
0.149	344	1.1
0.2	391.7	1.1
0.2498	442.1	1.1
0.995	429.6	1

System: 1-methyl-3-propylimidazolium bis[(trifluoromethyl)sulfonyl]imide + tributyl(dodecyl)phosphonium tetrafluoroborate; phases: Liquid mixture 1, Liquid mixture 2
Fixed: Pressure, kPa = 100
Property: Liquid-liquid equilibrium temperature, K (Liquid mixture 1); method: VISOBS
Mole fraction of 1-methyl-3-propylimidazolium bis[(trifluoromethyl)sulfonyl]imide	Liquid-liquid equilibrium temperature, K	uncertainty
0.3963	335.9	1
0.5	366.6	1
0.6	385.1	1
0.7022	392.9	1
0.7924	395.8	1
0.9022	391.9	1
0.9705	346	1.1
0.9895	287.5	1.6

System: 1-methyl-3-propylimidazolium bis[(trifluoromethyl)sulfonyl]imide + tributyl(hexadecyl)phosphonium tetrafluoroborate; phases: Liquid mixture 1, Liquid mixture 2
Fixed: Pressure, kPa = 100
Property: Liquid-liquid equilibrium temperature, K (Liquid mixture 1); method: VISOBS
Mole fraction of 1-methyl-3-propylimidazolium bis[(trifluoromethyl)sulfonyl]imide	Liquid-liquid equilibrium temperature, K	uncertainty
0.2988	361.3	1
0.4003	415.5	1
0.99	394.1	1
