Measured thermophysical data. Solid-Liquid Equilibrium Solubility, Thermodynamic Properties, and Molecular Simulation of Phenylphosphonic Acid in 15 Pure Solvents at Different Temperatures
Source: J. Chem. Eng. Data, 2019
Compound 1: phenylphosphonic acid, C6H7O3P, InChI=1S/C6H7O3P/c7-10(8,9)6-4-2-1-3-5-6/h1-5H,(H2,7,8,9), purity 98%
Compound 2: methanol, CH4O, InChI=1S/CH4O/c1-2/h2H,1H3, purity 99.7%
Compound 3: ethanol, C2H6O, InChI=1S/C2H6O/c1-2-3/h3H,2H2,1H3, purity 99.5%
Compound 4: propan-1-ol, C3H8O, InChI=1S/C3H8O/c1-2-3-4/h4H,2-3H2,1H3, purity 99%
Compound 5: propan-2-ol, C3H8O, InChI=1S/C3H8O/c1-3(2)4/h3-4H,1-2H3, purity 99.7%
Compound 6: butan-1-ol, C4H10O, InChI=1S/C4H10O/c1-2-3-4-5/h5H,2-4H2,1H3, purity 99.5%
Compound 7: pentan-1-ol, C5H12O, InChI=1S/C5H12O/c1-2-3-4-5-6/h6H,2-5H2,1H3, purity 98.5%
Compound 8: hexan-1-ol, C6H14O, InChI=1S/C6H14O/c1-2-3-4-5-6-7/h7H,2-6H2,1H3, purity 99.5%
Compound 9: heptan-1-ol, C7H16O, InChI=1S/C7H16O/c1-2-3-4-5-6-7-8/h8H,2-7H2,1H3, purity 99.5%
Compound 10: octan-1-ol, C8H18O, InChI=1S/C8H18O/c1-2-3-4-5-6-7-8-9/h9H,2-8H2,1H3, purity 99%
Compound 11: acetone, C3H6O, InChI=1S/C3H6O/c1-3(2)4/h1-2H3, purity 99.7%
Compound 12: 1,4-dioxane, C4H8O2, InChI=1S/C4H8O2/c1-2-6-4-3-5-1/h1-4H2, purity 99.5%
Compound 13: 2-methoxyethan-1-ol, C3H8O2, InChI=1S/C3H8O2/c1-5-3-2-4/h4H,2-3H2,1H3, purity 99.5%
Compound 14: 2-ethoxyethan-1-ol, C4H10O2, InChI=1S/C4H10O2/c1-2-6-4-3-5/h5H,2-4H2,1H3, purity 99%
Compound 15: 2-propoxyethanol, C5H12O2, InChI=1S/C5H12O2/c1-2-4-7-5-3-6/h6H,2-5H2,1H3, purity 99.5%
Compound 16: 2-butoxyethan-1-ol, C6H14O2, InChI=1S/C6H14O2/c1-2-3-5-8-6-4-7/h7H,2-6H2,1H3, purity 99.5%
Compound 17: 4-methylbenzoic acid, C8H8O2, InChI=1S/C8H8O2/c1-6-2-4-7(5-3-6)8(9)10/h2-5H,1H3,(H,9,10), purity 98%
Compound 18: dimethylformamide, C3H7NO, InChI=1S/C3H7NO/c1-4(2)3-5/h3H,1-2H3, purity 99.5%

System: phenylphosphonic acid; phases: Crystal, Liquid, Air at 1 atmosphere
Property: Triple point temperature, K (Crystal); method: DSC
Triple point temperature, K	uncertainty
437.53	0.93

System: phenylphosphonic acid; phases: Crystal, Liquid, Air at 1 atmosphere
Property: Molar enthalpy of transition or fusion, kJ/mol (Crystal); method: DSC
Molar enthalpy of transition or fusion, kJ/mol	uncertainty
23.93	2.1

System: phenylphosphonic acid + methanol; phases: Liquid, Crystal
Fixed: Pressure, kPa = 100
Property: Mole fraction of phenylphosphonic acid (Liquid); method: gravimetric
Temperature, K	Mole fraction of phenylphosphonic acid	uncertainty
273.15	0.29018	0.01162
278.15	0.29885	0.01197
283.15	0.30707	0.0123
288.15	0.31526	0.01263
293.15	0.32435	0.01299
298.15	0.33482	0.01341
303.15	0.34665	0.01389
308.15	0.35716	0.01431
313.15	0.36891	0.01478
318.15	0.38029	0.01523

System: phenylphosphonic acid + ethanol; phases: Liquid, Crystal
Fixed: Pressure, kPa = 100
Property: Mole fraction of phenylphosphonic acid (Liquid); method: gravimetric
Temperature, K	Mole fraction of phenylphosphonic acid	uncertainty
278.15	0.2882	0.01155
283.15	0.29536	0.01183
288.15	0.30543	0.01224
293.15	0.31395	0.01258
298.15	0.32613	0.01307
303.15	0.33411	0.01338
308.15	0.34676	0.01389
313.15	0.35696	0.0143
318.15	0.37054	0.01484
323.15	0.38253	0.01532
328.15	0.39381	0.01578
333.15	0.4071	0.01631

System: phenylphosphonic acid + propan-1-ol; phases: Liquid, Crystal
Fixed: Pressure, kPa = 100
Property: Mole fraction of phenylphosphonic acid (Liquid); method: gravimetric
Temperature, K	Mole fraction of phenylphosphonic acid	uncertainty
278.15	0.23611	0.00946
283.15	0.24837	0.00995
288.15	0.26222	0.01051
293.15	0.27101	0.01086
298.15	0.28587	0.01145
303.15	0.29625	0.01187
308.15	0.31074	0.01245
313.15	0.32078	0.01285
318.15	0.33199	0.0133
323.15	0.34671	0.01389
328.15	0.36081	0.01446
333.15	0.37518	0.01503

System: phenylphosphonic acid + propan-2-ol; phases: Liquid, Crystal
Fixed: Pressure, kPa = 100
Property: Mole fraction of phenylphosphonic acid (Liquid); method: gravimetric
Temperature, K	Mole fraction of phenylphosphonic acid	uncertainty
278.15	0.24043	0.00963
283.15	0.25142	0.01007
288.15	0.26466	0.0106
293.15	0.2768	0.01109
298.15	0.29077	0.01165
303.15	0.30691	0.0123
308.15	0.31735	0.01271
313.15	0.33093	0.01326
318.15	0.34574	0.01385
323.15	0.36074	0.01445
328.15	0.37647	0.01508
333.15	0.39357	0.01577

System: phenylphosphonic acid + butan-1-ol; phases: Liquid, Crystal
Fixed: Pressure, kPa = 100
Property: Mole fraction of phenylphosphonic acid (Liquid); method: gravimetric
Temperature, K	Mole fraction of phenylphosphonic acid	uncertainty
278.15	0.19259	0.00772
283.15	0.20402	0.00818
288.15	0.21954	0.0088
293.15	0.23168	0.00928
298.15	0.24774	0.00993
303.15	0.26001	0.01042
308.15	0.27323	0.01095
313.15	0.28987	0.01162
318.15	0.3042	0.01219
323.15	0.3206	0.01285
328.15	0.33664	0.01349
333.15	0.35427	0.0142

System: phenylphosphonic acid + pentan-1-ol; phases: Liquid, Crystal
Fixed: Pressure, kPa = 100
Property: Mole fraction of phenylphosphonic acid (Liquid); method: gravimetric
Temperature, K	Mole fraction of phenylphosphonic acid	uncertainty
278.15	0.16133	0.00647
283.15	0.17457	0.007
288.15	0.1865	0.00747
293.15	0.19913	0.00798
298.15	0.21177	0.00849
303.15	0.22607	0.00906
308.15	0.24178	0.00969
313.15	0.25755	0.01032
318.15	0.27264	0.01093
323.15	0.28749	0.01152
328.15	0.30767	0.01233
333.15	0.32275	0.01293

System: phenylphosphonic acid + hexan-1-ol; phases: Liquid, Crystal
Fixed: Pressure, kPa = 100
Property: Mole fraction of phenylphosphonic acid (Liquid); method: gravimetric
Temperature, K	Mole fraction of phenylphosphonic acid	uncertainty
278.15	0.13434	0.00539
283.15	0.14598	0.00585
288.15	0.15905	0.00638
293.15	0.17443	0.00699
298.15	0.188	0.00754
303.15	0.20198	0.0081
308.15	0.21757	0.00872
313.15	0.22987	0.00921
318.15	0.24541	0.00983
323.15	0.2598	0.01041
328.15	0.27796	0.01114
333.15	0.29727	0.01191

System: phenylphosphonic acid + heptan-1-ol; phases: Liquid, Crystal
Fixed: Pressure, kPa = 100
Property: Mole fraction of phenylphosphonic acid (Liquid); method: gravimetric
Temperature, K	Mole fraction of phenylphosphonic acid	uncertainty
278.15	0.12186	0.00489
283.15	0.13301	0.00533
288.15	0.14331	0.00575
293.15	0.15764	0.00632
298.15	0.17008	0.00682
303.15	0.18302	0.00734
308.15	0.19637	0.00787
313.15	0.21159	0.00848
318.15	0.22705	0.0091
323.15	0.24317	0.00975
328.15	0.25981	0.01041
333.15	0.27798	0.01114

System: phenylphosphonic acid + octan-1-ol; phases: Liquid, Crystal
Fixed: Pressure, kPa = 100
Property: Mole fraction of phenylphosphonic acid (Liquid); method: gravimetric
Temperature, K	Mole fraction of phenylphosphonic acid	uncertainty
278.15	0.0997	0.004
283.15	0.10993	0.00441
288.15	0.12326	0.00494
293.15	0.13426	0.00538
298.15	0.14748	0.00591
303.15	0.16079	0.00645
308.15	0.17665	0.00708
313.15	0.18938	0.00759
318.15	0.20167	0.00808
323.15	0.2176	0.00872
328.15	0.23399	0.00938
333.15	0.25236	0.01012

System: phenylphosphonic acid + acetone; phases: Liquid, Crystal
Fixed: Pressure, kPa = 100
Property: Mole fraction of phenylphosphonic acid (Liquid); method: gravimetric
Temperature, K	Mole fraction of phenylphosphonic acid	uncertainty
273.15	0.08719	0.0035
278.15	0.10084	0.00405
283.15	0.1131	0.00454
288.15	0.12965	0.0052
293.15	0.14392	0.00577
298.15	0.16157	0.00648
303.15	0.17815	0.00715
308.15	0.20114	0.00807
313.15	0.22305	0.00895
318.15	0.24931	0.01

System: phenylphosphonic acid + 1,4-dioxane; phases: Liquid, Crystal
Fixed: Pressure, kPa = 100
Property: Mole fraction of phenylphosphonic acid (Liquid); method: gravimetric
Temperature, K	Mole fraction of phenylphosphonic acid	uncertainty
288.15	0.18599	0.00746
293.15	0.20771	0.00833
298.15	0.22377	0.00897
303.15	0.2431	0.00975
308.15	0.26391	0.01058
313.15	0.28571	0.01145
318.15	0.30693	0.0123
323.15	0.33582	0.01346
328.15	0.36008	0.01443
333.15	0.38761	0.01554

System: phenylphosphonic acid + 2-methoxyethan-1-ol; phases: Liquid, Crystal
Fixed: Pressure, kPa = 100
Property: Mole fraction of phenylphosphonic acid (Liquid); method: gravimetric
Temperature, K	Mole fraction of phenylphosphonic acid	uncertainty
278.15	0.34187	0.01369
283.15	0.34847	0.01396
288.15	0.35862	0.01437
293.15	0.37067	0.01485
298.15	0.3828	0.01534
303.15	0.39737	0.01592
308.15	0.40841	0.01636
313.15	0.42518	0.01703
318.15	0.43852	0.01757
323.15	0.45305	0.01815
328.15	0.46841	0.01877
333.15	0.48308	0.01935

System: phenylphosphonic acid + 2-ethoxyethan-1-ol; phases: Liquid, Crystal
Fixed: Pressure, kPa = 100
Property: Mole fraction of phenylphosphonic acid (Liquid); method: gravimetric
Temperature, K	Mole fraction of phenylphosphonic acid	uncertainty
278.15	0.30464	0.01221
283.15	0.31669	0.01269
288.15	0.32688	0.0131
293.15	0.33941	0.0136
298.15	0.35037	0.01404
303.15	0.36272	0.01453
308.15	0.37806	0.01515
313.15	0.39148	0.01568
318.15	0.40397	0.01618
323.15	0.42037	0.01684
328.15	0.43877	0.01758
333.15	0.45424	0.0182

System: phenylphosphonic acid + 2-propoxyethanol; phases: Liquid, Crystal
Fixed: Pressure, kPa = 100
Property: Mole fraction of phenylphosphonic acid (Liquid); method: gravimetric
Temperature, K	Mole fraction of phenylphosphonic acid	uncertainty
278.15	0.24429	0.00979
283.15	0.25721	0.01031
288.15	0.26617	0.01066
293.15	0.28042	0.01124
298.15	0.2952	0.01183
303.15	0.30747	0.01232
308.15	0.31845	0.01276
313.15	0.33643	0.01348
318.15	0.34944	0.014
323.15	0.36789	0.01474
328.15	0.38224	0.01531
333.15	0.40088	0.01606

System: phenylphosphonic acid + 2-butoxyethan-1-ol; phases: Liquid, Crystal
Fixed: Pressure, kPa = 100
Property: Mole fraction of phenylphosphonic acid (Liquid); method: gravimetric
Temperature, K	Mole fraction of phenylphosphonic acid	uncertainty
278.15	0.19949	0.00799
283.15	0.20834	0.00835
288.15	0.21798	0.00873
293.15	0.2313	0.00927
298.15	0.2431	0.00974
303.15	0.2575	0.01032
308.15	0.26953	0.0108
313.15	0.28338	0.01135
318.15	0.29816	0.01195
323.15	0.31666	0.01269
328.15	0.33386	0.01338
333.15	0.35476	0.01422

System: 4-methylbenzoic acid + dimethylformamide; phases: Liquid, Crystal
Fixed: Pressure, kPa = 100
Property: Mole fraction of 4-methylbenzoic acid (Liquid); method: gravimetric
Temperature, K	Mole fraction of 4-methylbenzoic acid	uncertainty
278.15	0.0684	0.0041
283.15	0.0824	0.005
288.15	0.0958	0.0058
295.65	0.1208	0.0073
298.75	0.1329	0.008
303.05	0.1509	0.0091
307.55	0.1709	0.0103
311.05	0.1871	0.0112
315.55	0.2149	0.0129
320.45	0.2398	0.0144
324.55	0.2682	0.0161
328.95	0.2993	0.018
333.05	0.3338	0.0201
335.55	0.3606	0.0217
