Measured thermophysical data. Solubilities of Isophthalic Acid in Ternary Mixtures of Acetic Acid + Water + Benzoic Acid from 292.55 to 372.10 K
Source: J. Chem. Eng. Data, 2018, 10.1021/acs.jced.7b00958
Compound 1: 1,3-benzenedicarboxylic acid, C8H6O4, InChI=1S/C8H6O4/c9-7(10)5-2-1-3-6(4-5)8(11)12/h1-4H,(H,9,10)(H,11,12), purity 99%
Compound 2: benzoic acid, C7H6O2, InChI=1S/C7H6O2/c8-7(9)6-4-2-1-3-5-6/h1-5H,(H,8,9), purity 99.5%
Compound 3: acetic acid, C2H4O2, InChI=1S/C2H4O2/c1-2(3)4/h1H3,(H,3,4), purity 99.5%
Compound 4: water, H2O, InChI=1S/H2O/h1H2, purity 99.8%

System: 1,3-benzenedicarboxylic acid + benzoic acid + acetic acid; phases: Liquid, Crystal
Fixed: Pressure, kPa = 100
Property: Mole fraction of 1,3-benzenedicarboxylic acid (Liquid); method: Chromatography
Solvent: Mass fraction of benzoic acid	Temperature, K	Mole fraction of 1,3-benzenedicarboxylic acid	uncertainty
0	292.55	0.000605	3.7e-05
0	301.85	0.000774	4.7e-05
0	311.55	0.001023	6.2e-05
0	321.55	0.001323	8e-05
0	331.35	0.001749	0.000106
0	342.5	0.002413	0.000145
0	352.5	0.003137	0.000189
0	362.05	0.004071	0.000245
0	372.1	0.005191	0.000312
0.05	295.5	0.000683	4.1e-05
0.05	304	0.000886	5.4e-05
0.05	312.9	0.00117	7.1e-05
0.05	322.75	0.001484	8.9e-05
0.05	332.45	0.001922	0.000116
0.05	342.65	0.002479	0.000149
0.05	352.5	0.0032	0.000193
0.05	362.1	0.004104	0.000247
0.05	371.95	0.005192	0.000313
0.1	293.65	0.000705	4.3e-05
0.1	304.05	0.000959	5.8e-05
0.1	312.9	0.001246	7.5e-05
0.1	322.9	0.001628	9.8e-05
0.1	332.7	0.002071	0.000125
0.1	342.7	0.002635	0.000159
0.1	352.45	0.00333	0.000201
0.1	362.25	0.004381	0.000264
0.1	371.9	0.005556	0.000335
0.15	297.5	0.000784	4.8e-05
0.15	303.4	0.000968	5.9e-05
0.15	314.45	0.00134	8.1e-05
0.15	322.85	0.001692	0.000102
0.15	332.5	0.002163	0.000131
0.15	342.45	0.00281	0.00017
0.15	352.5	0.003514	0.000212
0.15	362.4	0.004434	0.000268
0.15	371.85	0.005792	0.000349
0.201	298.55	0.000877	5.3e-05
0.201	304.1	0.001052	6.4e-05
0.201	314.05	0.001416	8.6e-05
0.201	322.85	0.001824	0.000111
0.201	332.65	0.00232	0.000141
0.201	342.5	0.002976	0.00018
0.201	352.5	0.003785	0.00023
0.201	362.05	0.004871	0.000296
0.201	372.1	0.006129	0.00037

System: 1,3-benzenedicarboxylic acid + water + acetic acid; phases: Liquid, Crystal
Fixed: Solvent: Mass fraction of water = 0.2
Fixed: Pressure, kPa = 100
Property: Mole fraction of 1,3-benzenedicarboxylic acid (Liquid); method: Chromatography
Temperature, K	Mole fraction of 1,3-benzenedicarboxylic acid	uncertainty
297.4	0.000413	2.5e-05
304.05	0.000542	3.3e-05
313.35	0.000756	4.6e-05
322.4	0.001011	6.1e-05
332.1	0.001297	7.8e-05
341.85	0.001806	0.000109
351.75	0.00241	0.000145
361.6	0.003217	0.000194
370.2	0.004261	0.000257

System: 1,3-benzenedicarboxylic acid + acetic acid; phases: Liquid, Crystal
Fixed: Pressure, kPa = 100
Property: Mole fraction of 1,3-benzenedicarboxylic acid (Liquid); method: Chromatography
Temperature, K	Mole fraction of 1,3-benzenedicarboxylic acid	uncertainty
292.55	0.000605	3.7e-05
301.85	0.000774	4.7e-05
311.55	0.001023	6.2e-05
321.55	0.001323	8e-05
331.35	0.001749	0.000106
342.5	0.002413	0.000145
352.5	0.003137	0.000189
362.05	0.004071	0.000245
372.1	0.005191	0.000312
