Measured thermophysical data. CO2 Solubility in Hybrid Solvents Containing 1-Butyl-3- methylimidazolium tetrafluoroborate and Mixtures of Alkanolamines
Source: J. Chem. Eng. Data, 2015, 10.1021/acs.jced.5b00273
Compound 1: carbon dioxide, CO2, InChI=1S/CO2/c2-1-3, purity 99.9%
Compound 2: 1-butyl-3-methylimidazolium tetrafluoroborate, C8H15BF4N2, InChI=1S/C8H15N2.BF4/c1-3-4-5-10-7-6-9(2)8-10;2-1(3,4)5/h6-8H,3-5H2,1-2H3;/q+1;-1, purity 98%
Compound 3: 2-aminoethan-1-ol, C2H7NO, InChI=1S/C2H7NO/c3-1-2-4/h4H,1-3H2, purity 99%

System: carbon dioxide + 2-aminoethan-1-ol + 1-butyl-3-methylimidazolium tetrafluoroborate; phases: Liquid, Gas
Fixed: Solvent: Mass fraction of 2-aminoethan-1-ol = 0.293
Property: Mole fraction of carbon dioxide (Liquid); method: gravimetric
Pressure, kPa	Temperature, K	Mole fraction of carbon dioxide	uncertainty
1299.8	303.11	0.232	0.002
399.9	303.17	0.182	0.002
1500.1	303.17	0.242	0.002
699.7	303.18	0.2	0.002
100	303.18	0.159	0.003
49.6	303.18	0.14	0.002
1499.9	303.18	0.241	0.002
99.6	303.2	0.157	0.003
1000.1	303.2	0.217	0.002
699.6	303.21	0.199	0.002
999.5	303.21	0.215	0.002
399.3	303.23	0.182	0.002
1297.7	303.23	0.228	0.002
49.8	303.74	0.142	0.002
99.9	313.08	0.126	0.002
699.8	313.11	0.156	0.002
1500	313.12	0.192	0.002
399.9	313.12	0.142	0.002
1300	313.15	0.184	0.002
100	313.15	0.126	0.002
49.8	313.16	0.122	0.002
1000.1	313.17	0.17	0.002
49.9	313.22	0.122	0.002
999.9	313.22	0.17	0.002
714.4	313.24	0.156	0.002
404.8	313.25	0.142	0.002
1312.7	313.25	0.184	0.002
1500.3	313.25	0.192	0.002
1315	323.09	0.16	0.002
399.9	323.11	0.124	0.002
700	323.13	0.138	0.002
1500.1	323.13	0.171	0.002
667.5	323.14	0.138	0.002
99.8	323.15	0.087	0.002
1492.5	323.17	0.171	0.002
49.8	323.18	0.079	0.002
448.9	323.2	0.124	0.002
1000	323.21	0.151	0.002
135.1	323.22	0.087	0.002
1300	323.23	0.16	0.002
1018.8	323.24	0.151	0.002
54.5	323.27	0.079	0.002
