Measured thermophysical data. Isobaric Vapor-Liquid Equilibrium for Two Binary Systems of n-Heptane + sec-Butyl Acetate and Methylcyclohexane + sec-Butyl Acetate under Atmosphere
Source: J. Chem. Eng. Data, 2018, 10.1021/acs.jced.7b00999
Compound 1: heptane, C7H16, InChI=1S/C7H16/c1-3-5-7-6-4-2/h3-7H2,1-2H3, purity 99.5%
Compound 2: 1-methylpropyl ethanoate, C6H12O2, InChI=1S/C6H12O2/c1-4-5(2)8-6(3)7/h5H,4H2,1-3H3, purity 99%
Compound 3: methylcyclohexane, C7H14, InChI=1S/C7H14/c1-7-5-3-2-4-6-7/h7H,2-6H2,1H3, purity 99.5%

System: heptane; phases: Liquid, Gas
Property: Vapor or sublimation pressure, kPa (Liquid); method: Ebulliometric method (Recirculating still)
Temperature, K	Vapor or sublimation pressure, kPa	uncertainty
371.58	100	1

System: 1-methylpropyl ethanoate; phases: Liquid, Gas
Property: Vapor or sublimation pressure, kPa (Liquid); method: Ebulliometric method (Recirculating still)
Temperature, K	Vapor or sublimation pressure, kPa	uncertainty
385.15	101.3	1

System: methylcyclohexane; phases: Liquid, Gas
Property: Vapor or sublimation pressure, kPa (Liquid); method: Ebulliometric method (Recirculating still)
Temperature, K	Vapor or sublimation pressure, kPa	uncertainty
374.08	101.3	1

System: heptane + 1-methylpropyl ethanoate; phases: Liquid, Gas
Fixed: Pressure, kPa = 101.3
Property: Boiling temperature at pressure P, K (Liquid); method: Ebulliometric method (Recirculating still)
Mole fraction of heptane	Boiling temperature at pressure P, K	uncertainty
1	371.58	0.17
0.975	371.64	0.18
0.874	372.21	0.19
0.763	372.94	0.19
0.696	373.44	0.19
0.618	374.18	0.2
0.542	374.9	0.2
0.4686	375.71	0.21
0.384	376.61	0.22
0.3277	377.5	0.2
0.2739	378.42	0.25
0.2237	379.34	0.26
0.1884	380.01	0.26
0.1494	380.73	0.25
0.1051	381.46	0.25
0.0776	382.02	0.29
0.0561	382.59	0.35
0.0426	383.08	0.41
0.0181	383.98	0.45
0.0071	384.59	0.43
0	385.15	0.18

System: heptane + 1-methylpropyl ethanoate; phases: Gas, Liquid
Fixed: Pressure, kPa = 101.3
Property: Mole fraction of heptane (Gas); method: Chromatography
Mole fraction of heptane	Mole fraction of heptane	uncertainty
1	1	
0.975	0.9796	0.0129
0.874	0.8961	0.0131
0.763	0.8006	0.0131
0.696	0.7486	0.0127
0.618	0.6903	0.0129
0.542	0.6303	0.013
0.4686	0.5753	0.0137
0.384	0.4936	0.0147
0.3277	0.4355	0.0148
0.2739	0.3807	0.0148
0.2237	0.3268	0.0148
0.1884	0.2904	0.0152
0.1494	0.2434	0.0159
0.1051	0.1891	0.0164
0.0776	0.1501	0.0181
0.0561	0.1152	0.02
0.0426	0.0892	0.022
0.0181	0.0407	0.0227
0.0071	0.0165	0.0165
0	0	

System: methylcyclohexane + 1-methylpropyl ethanoate; phases: Liquid, Gas
Fixed: Pressure, kPa = 101.3
Property: Boiling temperature at pressure P, K (Liquid); method: Ebulliometric method (Recirculating still)
Mole fraction of methylcyclohexane	Boiling temperature at pressure P, K	uncertainty
1	374.08	0.17
0.8832	374.24	0.18
0.7692	374.54	0.18
0.7095	374.57	0.18
0.6738	374.65	0.18
0.639	374.86	0.18
0.5864	375.08	0.18
0.5401	375.41	0.2
0.512	375.78	0.22
0.4731	376.33	0.24
0.4426	376.89	0.23
0.3969	377.51	0.22
0.3588	378.07	0.25
0.332	378.64	0.26
0.2928	379.37	0.26
0.2613	379.97	0.24
0.2193	380.62	0.24
0.1658	381.55	0.27
0	385.15	0.18

System: methylcyclohexane + 1-methylpropyl ethanoate; phases: Gas, Liquid
Fixed: Pressure, kPa = 101.3
Property: Mole fraction of methylcyclohexane (Gas); method: Chromatography
Mole fraction of methylcyclohexane	Mole fraction of methylcyclohexane	uncertainty
1	1	
0.8832	0.8923	0.0135
0.7692	0.7903	0.0134
0.7095	0.74	0.0132
0.6738	0.7107	0.0133
0.639	0.6805	0.0131
0.5864	0.6411	0.0131
0.5401	0.6034	0.0132
0.512	0.583	0.0132
0.4731	0.551	0.0136
0.4426	0.5255	0.0137
0.3969	0.4873	0.0137
0.3588	0.4557	0.0139
0.332	0.4294	0.0148
0.2928	0.3885	0.015
0.2613	0.3541	0.0151
0.2193	0.3084	0.0154
0.1658	0.2457	0.0175
0	0	
