Measured thermophysical data. Measurements of the Thermal Conductivity of n-Octane, Isooctane, 1-Octene, and 1-Octanol in the Temperature Range from 253 to 393 K at Pressures up to 30 MPa
Source: J. Chem. Eng. Data, 2019, 10.1021/acs.jced.9b00628
Compound 1: octane, C8H18, InChI=1S/C8H18/c1-3-5-7-8-6-4-2/h3-8H2,1-2H3, purity 99%
Compound 2: 2,2,4-trimethylpentane, C8H18, InChI=1S/C8H18/c1-7(2)6-8(3,4)5/h7H,6H2,1-5H3, purity 99%
Compound 3: oct-1-ene, C8H16, InChI=1S/C8H16/c1-3-5-7-8-6-4-2/h3H,1,4-8H2,2H3, purity 98%
Compound 4: octan-1-ol, C8H18O, InChI=1S/C8H18O/c1-2-3-4-5-6-7-8-9/h9H,2-8H2,1H3, purity 99.5%

System: octane; phases: Liquid
Property: Thermal conductivity, W/m/K (Liquid); method: THOTW
Temperature, K	Pressure, kPa	Thermal conductivity, W/m/K	uncertainty
255.43	100	0.1386	0.0028
255.34	5200	0.1409	0.0029
255.48	10100	0.1427	0.0029
255.8	20000	0.1458	0.003
255.12	30000	0.1482	0.003
274.91	100	0.1318	0.0027
275.13	5000	0.1338	0.0027
275.12	10200	0.1358	0.0028
274.99	20200	0.14	0.0029
275.01	30200	0.1438	0.003
295.39	200	0.1265	0.0026
295.22	5100	0.1287	0.0026
295.33	10200	0.1309	0.0027
295.18	20000	0.1351	0.0028
295.13	30000	0.1391	0.0029
315.13	100	0.1201	0.0025
315.18	5000	0.1227	0.0025
315.06	10000	0.1252	0.0026
315.14	20200	0.1299	0.0027
315	30000	0.134	0.0028
334.94	100	0.1143	0.0024
334.97	5100	0.117	0.0024
335.05	10000	0.1194	0.0025
334.94	20100	0.1245	0.0026
334.94	30000	0.1288	0.0026
355.08	100	0.1084	0.0022
354.92	5000	0.1114	0.0023
355.03	10000	0.1142	0.0023
355.02	20000	0.1194	0.0025
354.99	30000	0.1242	0.0026
375.06	400	0.1019	0.0021
374.87	5100	0.1052	0.0022
375.08	10200	0.1082	0.0022
374.9	20000	0.1147	0.0024
375.26	30000	0.1198	0.0025

System: 2,2,4-trimethylpentane; phases: Liquid
Property: Thermal conductivity, W/m/K (Liquid); method: THOTW
Temperature, K	Pressure, kPa	Thermal conductivity, W/m/K	uncertainty
254.6	100	0.1047	0.0022
254.51	5000	0.1066	0.0022
254.67	10100	0.1088	0.0022
254.77	20000	0.1121	0.0023
254.73	30000	0.1157	0.0024
274.66	100	0.1004	0.0021
274.63	5000	0.1021	0.0021
274.61	10000	0.1041	0.0021
274.61	20000	0.108	0.0022
274.57	30000	0.1114	0.0023
295.33	100	0.0959	0.002
295.22	5000	0.0979	0.002
295.22	10100	0.1003	0.0021
295.06	20100	0.1042	0.0021
295.04	30100	0.1083	0.0022
314.99	100	0.0907	0.0019
314.85	5000	0.093	0.0019
314.87	10000	0.0953	0.002
314.93	20000	0.0996	0.0021
314.91	29900	0.1038	0.0021
334.53	100	0.0859	0.0018
334.49	5100	0.0886	0.0018
334.56	10000	0.0908	0.0019
334.62	20000	0.0958	0.002
334.59	30000	0.0999	0.0021
354.5	200	0.0817	0.0017
354.78	5100	0.0843	0.0017
354.83	10000	0.0868	0.0018
354.73	20000	0.0915	0.0019
354.8	30000	0.096	0.002
374.63	400	0.0784	0.0016
374.61	5000	0.0807	0.0017
374.18	10000	0.083	0.0017
374.21	19900	0.0875	0.0018
374.25	29900	0.0925	0.0019

System: oct-1-ene; phases: Liquid
Property: Thermal conductivity, W/m/K (Liquid); method: THOTW
Temperature, K	Pressure, kPa	Thermal conductivity, W/m/K	uncertainty
254.47	100	0.1381	0.0029
254.41	5000	0.1402	0.0029
254.47	10000	0.1426	0.003
254.35	20000	0.1464	0.0031
254.35	30000	0.15	0.0031
274.46	100	0.1302	0.0027
274.44	5000	0.1324	0.0028
274.5	10000	0.1349	0.0028
274.59	20000	0.1394	0.0029
274.44	30000	0.1439	0.003
294.91	100	0.1254	0.0026
294.9	5200	0.1277	0.0027
294.85	10100	0.13	0.0027
294.79	20000	0.1341	0.0028
294.76	30000	0.1379	0.0029
314.65	100	0.12	0.0025
314.61	5000	0.1228	0.0026
314.59	10000	0.1249	0.0026
314.61	20000	0.1291	0.0027
314.51	30000	0.1331	0.0028
334.94	100	0.114	0.0024
334.82	5100	0.1167	0.0025
334.82	10000	0.1191	0.0025
334.69	20000	0.1238	0.0026
334.71	30000	0.1282	0.0027
355.05	100	0.1078	0.0023
354.89	5100	0.1106	0.0023
354.72	10000	0.1137	0.0024
354.74	20000	0.1186	0.0025
354.64	30000	0.1234	0.0026
374.48	600	0.1023	0.0022
375.03	5100	0.1047	0.0022
374.83	10000	0.1077	0.0023
374.86	20100	0.1135	0.0024
374.8	30000	0.1179	0.0025

System: octan-1-ol; phases: Liquid
Property: Thermal conductivity, W/m/K (Liquid); method: THOTW
Temperature, K	Pressure, kPa	Thermal conductivity, W/m/K	uncertainty
274.92	100	0.158	0.0032
274.85	5000	0.1598	0.0033
274.82	10000	0.1611	0.0033
274.77	20000	0.1639	0.0033
274.63	30000	0.1669	0.0034
294.93	100	0.1545	0.0032
294.62	5000	0.156	0.0032
294.61	10100	0.1576	0.0032
294.59	20100	0.1606	0.0033
294.58	30000	0.1634	0.0033
314.41	100	0.1511	0.0031
314.95	5000	0.153	0.0031
314.91	10000	0.1545	0.0032
314.86	20000	0.1578	0.0032
314.86	30000	0.1609	0.0033
334.98	100	0.1471	0.003
334.92	5000	0.149	0.003
334.9	10000	0.1509	0.0031
334.84	20000	0.1544	0.0031
334.83	30000	0.1576	0.0032
354.98	100	0.1427	0.0029
354.41	5000	0.1445	0.0029
354.36	10000	0.1466	0.003
354.5	20000	0.1505	0.0031
354.35	30000	0.1539	0.0031
374.96	100	0.138	0.0028
374.43	5100	0.14	0.0029
374.41	10000	0.1421	0.0029
374.81	20000	0.1464	0.003
374.84	30000	0.1503	0.0031
394.88	300	0.1325	0.0027
395.13	5000	0.1349	0.0028
395.05	10000	0.1377	0.0028
394.82	20000	0.142	0.0029
394.85	30000	0.1461	0.003
