Measured thermophysical data. High Pressure Solid-Liquid Equilibrium of Fatty Alcohols Binary Systems from 1-Dodecanol, 1-Tetradecanol, 1-Hexadecanol, and 1-Octadecanol
Source: J. Chem. Eng. Data, 2015, 10.1021/acs.jced.5b00330
Compound 1: dodecan-1-ol, C12H26O, InChI=1S/C12H26O/c1-2-3-4-5-6-7-8-9-10-11-12-13/h13H,2-12H2,1H3, purity 98%
Compound 2: 1-tetradecanol, C14H30O, InChI=1S/C14H30O/c1-2-3-4-5-6-7-8-9-10-11-12-13-14-15/h15H,2-14H2,1H3, purity 97%
Compound 3: 1-hexadecanol, C16H34O, InChI=1S/C16H34O/c1-2-3-4-5-6-7-8-9-10-11-12-13-14-15-16-17/h17H,2-16H2,1H3, purity 99%
Compound 4: 1-octadecanol, C18H38O, InChI=1S/C18H38O/c1-2-3-4-5-6-7-8-9-10-11-12-13-14-15-16-17-18-19/h19H,2-18H2,1H3, purity 99%

System: dodecan-1-ol; phases: Crystal, Liquid, Air at 1 atmosphere
Property: Normal melting temperature, K (Crystal); method: High Pressure microscope
Normal melting temperature, K	uncertainty
296.9	1.4

System: dodecan-1-ol; phases: Crystal, Liquid, Air at 1 atmosphere
Property: Normal melting temperature, K (Crystal); method: DTA
Normal melting temperature, K	uncertainty
297.8	1.3

System: dodecan-1-ol; phases: Crystal, Liquid
Property: Solid-liquid equilibrium temperature, K (Crystal); method: High pressure microscope
Pressure, kPa	Solid-liquid equilibrium temperature, K	uncertainty
100	296.9	0.4
20000	300.5	0.5
40000	304.6	0.5
60000	308.4	0.5
80000	311.7	0.5

System: 1-tetradecanol; phases: Crystal, Liquid, Air at 1 atmosphere
Property: Normal melting temperature, K (Crystal); method: High pressure microscope
Normal melting temperature, K	uncertainty
310.6	1.4

System: 1-tetradecanol; phases: Crystal, Liquid, Air at 1 atmosphere
Property: Normal melting temperature, K (Crystal); method: DTA
Normal melting temperature, K	uncertainty
310.9	1.3

System: 1-tetradecanol; phases: Crystal, Liquid
Property: Solid-liquid equilibrium temperature, K (Crystal); method: High pressure microscope
Pressure, kPa	Solid-liquid equilibrium temperature, K	uncertainty
100	310.6	0.4
20000	314.2	0.5
40000	319	0.5
60000	323.8	0.5
80000	327.8	0.5

System: 1-hexadecanol; phases: Crystal, Liquid, Air at 1 atmosphere
Property: Normal melting temperature, K (Crystal); method: High pressure microscope
Normal melting temperature, K	uncertainty
322.2	1.4

System: 1-hexadecanol; phases: Crystal, Liquid, Air at 1 atmosphere
Property: Normal melting temperature, K (Crystal); method: DTA
Normal melting temperature, K	uncertainty
322.8	1.3

System: 1-hexadecanol; phases: Crystal, Liquid
Property: Solid-liquid equilibrium temperature, K (Crystal); method: High pressure microscope
Pressure, kPa	Solid-liquid equilibrium temperature, K	uncertainty
100	322.2	0.4
20000	327.3	0.5
40000	332.4	0.5
60000	337.6	0.5
80000	342.7	0.5

System: 1-octadecanol; phases: Crystal, Liquid, Air at 1 atmosphere
Property: Normal melting temperature, K (Crystal); method: High Pressure microscope
Normal melting temperature, K	uncertainty
330.9	1.4

System: 1-octadecanol; phases: Crystal, Liquid, Air at 1 atmosphere
Property: Normal melting temperature, K (Crystal); method: DTA
Normal melting temperature, K	uncertainty
331.3	1.3

System: 1-octadecanol; phases: Crystal, Liquid
Property: Solid-liquid equilibrium temperature, K (Crystal); method: High pressure microscope
Pressure, kPa	Solid-liquid equilibrium temperature, K	uncertainty
100	330.9	0.4
20000	335.8	0.5
40000	340.9	0.5
60000	345.9	0.5
80000	350.6	0.5

System: dodecan-1-ol + 1-octadecanol; phases: Liquid, Crystal
Property: Solid-liquid equilibrium temperature, K (Liquid); method: High Pressure microscope
Pressure, kPa	Mole fraction of dodecan-1-ol	Solid-liquid equilibrium temperature, K	uncertainty
100	0	330.9	1.3
20000	0	335.8	1.3
40000	0	340.9	1.3
60000	0	345.9	1.3
80000	0	350.6	1.3
100	0.2987	326.1	1.3
20000	0.2987	330.9	1.3
40000	0.2987	335.4	1.3
60000	0.2987	340	1.3
80000	0.2987	344.5	1.3
100	0.5043	321.7	1.3
20000	0.5043	326.5	1.3
40000	0.5043	331.8	1.3
60000	0.5043	336.8	1.3
80000	0.5043	341.4	1.3
100	0.7034	315.4	1.3
20000	0.7034	320.4	1.3
40000	0.7034	325.6	1.3
60000	0.7034	330.1	1.3
80000	0.7034	334.4	1.3
100	0.8	310	1.3
20000	0.8	314.9	1.3
40000	0.8	319.7	1.3
60000	0.8	323.2	1.3
80000	0.8	327.3	1.3
100	0.853	304.6	1.3
20000	0.853	309.8	1.3
40000	0.853	314	1.3
60000	0.853	318.1	1.3
80000	0.853	322.1	1.3
100	0.9007	297.5	1.3
20000	0.9007	302.3	1.3
40000	0.9007	307.3	1.3
60000	0.9007	311.1	1.3
80000	0.9007	315.4	1.3

System: dodecan-1-ol + 1-octadecanol; phases: Liquid, Crystal
Property: Solid-liquid equilibrium temperature, K (Liquid); method: High Pressure microscope
Pressure, kPa	Mole fraction of dodecan-1-ol	Solid-liquid equilibrium temperature, K	uncertainty
100	0.9533	295.9	1.3
20000	0.9533	300.4	1.3
40000	0.9533	304.5	1.3
60000	0.9533	308.5	1.3
80000	0.9533	312.2	1.3
100	1	296.9	1.3
20000	1	300.5	1.3
40000	1	304.6	1.3
60000	1	308.4	1.3
80000	1	311.7	1.3

System: dodecan-1-ol + 1-hexadecanol; phases: Liquid, Crystal
Property: Solid-liquid equilibrium temperature, K (Liquid); method: High pressure microscope
Pressure, kPa	Mole fraction of dodecan-1-ol	Solid-liquid equilibrium temperature, K	uncertainty
100	0	322.2	1.3
20000	0	327.3	1.3
40000	0	332.4	1.3
60000	0	337.6	1.3
80000	0	342.7	1.3
100	0.2033	319.5	1.3
20000	0.2033	324	1.3
40000	0.2033	328.4	1.3
60000	0.2033	333.3	1.3
80000	0.2033	337.5	1.3
100	0.3995	315.2	1.3
20000	0.3995	320	1.3
40000	0.3995	324.5	1.3
60000	0.3995	328.3	1.3
80000	0.3995	332.7	1.3
100	0.6002	308.3	1.3
20000	0.6002	313	1.3
40000	0.6002	317.8	1.3
60000	0.6002	322	1.3
80000	0.6002	326.7	1.3
100	0.6986	304	1.3
20000	0.6986	308.5	1.3
40000	0.6986	313.2	1.3
60000	0.6986	317.7	1.3
80000	0.6986	321.9	1.3
100	0.7501	299.8	1.3
20000	0.7501	304.2	1.3
40000	0.7501	308.7	1.3
60000	0.7501	313	1.3
80000	0.7501	316.9	1.3
100	0.7997	296.5	1.3
20000	0.7997	300.6	1.3
40000	0.7997	305	1.3
60000	0.7997	309.1	1.3
80000	0.7997	312.5	1.3
100	0.8494	293.7	1.3
20000	0.8494	298	1.3
40000	0.8494	301.9	1.3
60000	0.8494	306.1	1.3
80000	0.8494	309.4	1.3

System: dodecan-1-ol + 1-hexadecanol; phases: Liquid, Crystal
Property: Solid-liquid equilibrium temperature, K (Liquid); method: High pressure microscope
Pressure, kPa	Mole fraction of dodecan-1-ol	Solid-liquid equilibrium temperature, K	uncertainty
100	0.8992	293.9	1.3
20000	0.8992	298.2	1.3
40000	0.8992	302.5	1.3
60000	0.8992	306.7	1.3
80000	0.8992	310.2	1.3
100	1	296.9	1.3
20000	1	300.5	1.3
40000	1	304.6	1.3
60000	1	308.4	1.3
80000	1	311.7	1.3

System: 1-tetradecanol + 1-octadecanol; phases: Liquid, Crystal
Property: Solid-liquid equilibrium temperature, K (Liquid); method: High pressure microscope
Pressure, kPa	Mole fraction of 1-tetradecanol	Solid-liquid equilibrium temperature, K	uncertainty
100	0	330.9	1.3
20000	0	335.8	1.3
40000	0	340.9	1.3
60000	0	345.9	1.3
80000	0	350.6	1.3
100	0.1994	327.2	1.3
20000	0.1994	331.8	1.3
40000	0.1994	336.2	1.3
60000	0.1994	340.8	1.3
80000	0.1994	345.3	1.3
100	0.3951	324.5	1.3
20000	0.3951	329.2	1.3
40000	0.3951	333.9	1.3
60000	0.3951	338	1.3
80000	0.3951	342.6	1.3
100	0.5981	318.2	1.3
20000	0.5981	323	1.3
40000	0.5981	327.6	1.3
60000	0.5981	333.3	1.3
80000	0.5981	337.6	1.3
100	0.6992	311.7	1.3
20000	0.6992	316.6	1.3
40000	0.6992	321.5	1.3
60000	0.6992	325.9	1.3
80000	0.6992	329.8	1.3
100	0.8008	308.3	1.3
20000	0.8008	313.1	1.3
40000	0.8008	317.8	1.3
60000	0.8008	322.6	1.3
80000	0.8008	326.7	1.3
100	0.85	307.4	1.3
20000	0.85	312.3	1.3
40000	0.85	316.9	1.3
60000	0.85	321.3	1.3
80000	0.85	325.8	1.3

System: 1-tetradecanol + 1-octadecanol; phases: Liquid, Crystal
Property: Solid-liquid equilibrium temperature, K (Liquid); method: High pressure microscope
Pressure, kPa	Mole fraction of 1-tetradecanol	Solid-liquid equilibrium temperature, K	uncertainty
100	0.8994	308.2	1.3
20000	0.8994	312.8	1.3
40000	0.8994	317.4	1.3
60000	0.8994	321.4	1.3
80000	0.8994	325.9	1.3
100	1	310.6	1.3
20000	1	314.2	1.3
40000	1	319	1.3
60000	1	323.8	1.3
80000	1	327.8	1.3

System: dodecan-1-ol + 1-tetradecanol; phases: Liquid, Crystal
Property: Solid-liquid equilibrium temperature, K (Liquid); method: High pressure microscope
Pressure, kPa	Mole fraction of dodecan-1-ol	Solid-liquid equilibrium temperature, K	uncertainty
100	0	310.6	1.3
20000	0	314.2	1.3
40000	0	319	1.3
60000	0	323.8	1.3
80000	0	327.8	1.3
100	0.2021	306.5	1.3
20000	0.2021	311.3	1.3
40000	0.2021	316.3	1.3
60000	0.2021	320.8	1.3
80000	0.2021	325	1.3
100	0.3992	301.3	1.3
20000	0.3992	306.5	1.3
40000	0.3992	311.7	1.3
60000	0.3992	316.2	1.3
80000	0.3992	320.3	1.3
100	0.5346	298.1	1.3
20000	0.5346	303	1.3
40000	0.5346	308	1.3
60000	0.5346	312.8	1.3
80000	0.5346	316.6	1.3
100	0.7004	294.8	1.3
20000	0.7004	299.6	1.3
40000	0.7004	304.2	1.3
60000	0.7004	308.4	1.3
80000	0.7004	312.4	1.3
100	0.8003	293.4	1.3
20000	0.8003	298.1	1.3
40000	0.8003	302.6	1.3
60000	0.8003	306.9	1.3
80000	0.8003	311.2	1.3

System: dodecan-1-ol + 1-tetradecanol; phases: Liquid, Crystal
Property: Solid-liquid equilibrium temperature, K (Liquid); method: High pressure microscope
Pressure, kPa	Mole fraction of dodecan-1-ol	Solid-liquid equilibrium temperature, K	uncertainty
100	0.9003	294.7	1.3
20000	0.9003	298.9	1.3
40000	0.9003	302.7	1.3
60000	0.9003	306.5	1.3
80000	0.9003	310.8	1.3
100	1	296.9	1.3
20000	1	300.5	1.3
40000	1	304.6	1.3
60000	1	308.4	1.3
80000	1	311.7	1.3

System: dodecan-1-ol + 1-tetradecanol; phases: Liquid, Crystal
Fixed: Pressure, kPa = 101
Property: Solid-liquid equilibrium temperature, K (Liquid); method: DTA
Mole fraction of dodecan-1-ol	Solid-liquid equilibrium temperature, K	uncertainty
0	310.9	1.3
0.101	309	1.3
0.1956	307.3	1.3
0.3102	304.9	1.3
0.3984	302.4	1.3
0.4983	300.6	1.3
0.5939	297.9	1.3
0.6955	297.3	1.3
0.8028	295.5	1.3

System: dodecan-1-ol + 1-tetradecanol; phases: Liquid, Crystal
Fixed: Pressure, kPa = 101
Property: Solid-liquid equilibrium temperature, K (Liquid); method: DTA
Mole fraction of dodecan-1-ol	Solid-liquid equilibrium temperature, K	uncertainty
0.8982	296.3	1.3
1	297.8	1.3

System: 1-tetradecanol + 1-hexadecanol; phases: Liquid, Crystal
Property: Solid-liquid equilibrium temperature, K (Liquid); method: High pressure microscope
Pressure, kPa	Mole fraction of 1-tetradecanol	Solid-liquid equilibrium temperature, K	uncertainty
100	0	322.2	1.3
20000	0	327.3	1.3
40000	0	332.4	1.3
60000	0	337.6	1.3
80000	0	342.7	1.3
100	0.2691	317.9	1.3
20000	0.2691	322.9	1.3
40000	0.2691	327.7	1.3
60000	0.2691	332.5	1.3
80000	0.2691	337.7	1.3
100	0.4023	315.3	1.3
20000	0.4023	320.2	1.3
40000	0.4023	325.1	1.3
60000	0.4023	329.9	1.3
80000	0.4023	334.2	1.3
100	0.6046	312.2	1.3
20000	0.6046	317.1	1.3
40000	0.6046	321.7	1.3
60000	0.6046	326	1.3
80000	0.6046	330.3	1.3
100	0.7045	311	1.3
20000	0.7045	315.9	1.3
40000	0.7045	320.5	1.3
60000	0.7045	324.9	1.3
80000	0.7045	329.2	1.3
100	0.8031	310.1	1.3
20000	0.8031	315.2	1.3
40000	0.8031	320	1.3
60000	0.8031	324.7	1.3
80000	0.8031	328.4	1.3

System: 1-tetradecanol + 1-hexadecanol; phases: Liquid, Crystal
Property: Solid-liquid equilibrium temperature, K (Liquid); method: High pressure microscope
Pressure, kPa	Mole fraction of 1-tetradecanol	Solid-liquid equilibrium temperature, K	uncertainty
100	0.9033	310	1.3
20000	0.9033	315.1	1.3
40000	0.9033	319.8	1.3
60000	0.9033	324.5	1.3
80000	0.9033	328.8	1.3
100	1	310.6	1.3
20000	1	314.2	1.3
40000	1	319	1.3
60000	1	323.8	1.3
80000	1	327.8	1.3

System: 1-tetradecanol + 1-hexadecanol; phases: Liquid, Crystal
Fixed: Pressure, kPa = 101
Property: Solid-liquid equilibrium temperature, K (Liquid); method: DTA
Mole fraction of 1-tetradecanol	Solid-liquid equilibrium temperature, K	uncertainty
0	322.8	1.3
0.1017	321.2	1.3
0.2047	319.8	1.3
0.2967	318.6	1.3
0.3991	317.5	1.3
0.5024	315.8	1.3
0.599	314.5	1.3
0.7014	312.2	1.3
0.7988	311	1.3

System: 1-tetradecanol + 1-hexadecanol; phases: Liquid, Crystal
Fixed: Pressure, kPa = 101
Property: Solid-liquid equilibrium temperature, K (Liquid); method: DTA
Mole fraction of 1-tetradecanol	Solid-liquid equilibrium temperature, K	uncertainty
0.9019	311.6	1.3
1	310.9	1.3

System: 1-octadecanol + 1-hexadecanol; phases: Liquid, Crystal
Property: Solid-liquid equilibrium temperature, K (Liquid); method: High Pressure microscope
Pressure, kPa	Mole fraction of 1-hexadecanol	Solid-liquid equilibrium temperature, K	uncertainty
100	0	330.9	1.3
20000	0	335.8	1.3
40000	0	340.9	1.3
60000	0	345.9	1.3
80000	0	350.6	1.3
100	0.1996	328	1.3
20000	0.1996	333.2	1.3
40000	0.1996	338	1.3
60000	0.1996	343	1.3
80000	0.1996	347.5	1.3
100	0.3981	325.6	1.3
20000	0.3981	330.4	1.3
40000	0.3981	335.3	1.3
60000	0.3981	340.1	1.3
80000	0.3981	344.4	1.3
100	0.5987	323.3	1.3
20000	0.5987	328.3	1.3
40000	0.5987	333	1.3
60000	0.5987	337.2	1.3
80000	0.5987	341.7	1.3
100	0.7952	321.3	1.3
20000	0.7952	326.3	1.3
40000	0.7952	331.2	1.3
60000	0.7952	335.6	1.3
80000	0.7952	339.9	1.3

System: 1-octadecanol + 1-hexadecanol; phases: Liquid, Crystal
Property: Solid-liquid equilibrium temperature, K (Liquid); method: High Pressure microscope
Pressure, kPa	Mole fraction of 1-hexadecanol	Solid-liquid equilibrium temperature, K	uncertainty
100	0.8848	321.3	1.3
20000	0.8848	326.3	1.3
40000	0.8848	331.2	1.3
60000	0.8848	335.8	1.3
80000	0.8848	340.2	1.3
100	1	322.2	1.3
20000	1	327.3	1.3
40000	1	332.4	1.3
60000	1	337.6	1.3
80000	1	342.7	1.3

System: 1-octadecanol + 1-hexadecanol; phases: Liquid, Crystal
Fixed: Pressure, kPa = 101
Property: Solid-liquid equilibrium temperature, K (Liquid); method: DTA
Mole fraction of 1-hexadecanol	Solid-liquid equilibrium temperature, K	uncertainty
0	331.3	1.3
0.0996	330	1.3
0.1977	328.5	1.3
0.2989	327.2	1.3
0.4003	326.1	1.3
0.5004	324.7	1.3
0.6004	323.9	1.3
0.7003	323	1.3
0.7998	322.4	1.3

System: 1-octadecanol + 1-hexadecanol; phases: Liquid, Crystal
Fixed: Pressure, kPa = 101
Property: Solid-liquid equilibrium temperature, K (Liquid); method: DTA
Mole fraction of 1-hexadecanol	Solid-liquid equilibrium temperature, K	uncertainty
0.9008	322.2	1.3
1	322.8	1.3
