Measured thermophysical data. Solubility of Gastrodin in Pure and Mixed Solvents at 273.15-313.15 K and Its Correlation with Different Thermodynamic Models
Source: J. Chem. Eng. Data, 2019, 10.1021/acs.jced.9b00286
Compound 1: gastrodin, C13H18O7, InChI=1S/C13H18O7/c14-5-7-1-3-8(4-2-7)19-13-12(18)11(17)10(16)9(6-15)20-13/h1-4,9-18H,5-6H2/t9-,10-,11+,12-,13-/m1/s1
Compound 2: cyclohexanone, C6H10O, InChI=1S/C6H10O/c7-6-4-2-1-3-5-6/h1-5H2, purity 99.5%
Compound 3: propan-1-ol, C3H8O, InChI=1S/C3H8O/c1-2-3-4/h4H,2-3H2,1H3, purity 99.6%
Compound 4: ethyl acetate, C4H8O2, InChI=1S/C4H8O2/c1-3-6-4(2)5/h3H2,1-2H3, purity 99.5%
Compound 5: acetonitrile, C2H3N, InChI=1S/C2H3N/c1-2-3/h1H3, purity 99.6%
Compound 6: 1,4-dioxane, C4H8O2, InChI=1S/C4H8O2/c1-2-6-4-3-5-1/h1-4H2, purity 99.5%
Compound 7: acetone, C3H6O, InChI=1S/C3H6O/c1-3(2)4/h1-2H3, purity 99.5%
Compound 8: toluene, C7H8, InChI=1S/C7H8/c1-7-5-3-2-4-6-7/h2-6H,1H3, purity 99.6%
Compound 9: ethanol, C2H6O, InChI=1S/C2H6O/c1-2-3/h3H,2H2,1H3, purity 99.8%
Compound 10: propan-2-ol, C3H8O, InChI=1S/C3H8O/c1-3(2)4/h3-4H,1-2H3, purity 99.8%
Compound 11: butan-1-ol, C4H10O, InChI=1S/C4H10O/c1-2-3-4-5/h5H,2-4H2,1H3, purity 99.5%
Compound 12: cyclohexane, C6H12, InChI=1S/C6H12/c1-2-4-6-5-3-1/h1-6H2, purity 99.5%

System: gastrodin; phases: Crystal, Liquid, Air at 1 atmosphere
Property: Triple point temperature, K (Crystal); method: DSC
Triple point temperature, K	uncertainty
429.75	1.22

System: gastrodin + ethanol; phases: Liquid, Crystal
Fixed: Pressure, kPa = 101.3
Property: Mole fraction of gastrodin (Liquid); method: Chromatography
Temperature, K	Mole fraction of gastrodin	uncertainty
273.15	0.00085	2e-05
278.15	0.00105	3e-05
283.15	0.00129	3e-05
288.15	0.00157	4e-05
293.15	0.00188	5e-05
298.15	0.0022	6e-05
303.15	0.00255	7e-05
308.15	0.00296	8e-05
313.15	0.00337	9e-05

System: gastrodin + propan-1-ol; phases: Liquid, Crystal
Fixed: Pressure, kPa = 101.3
Property: Mole fraction of gastrodin (Liquid); method: Chromatography
Temperature, K	Mole fraction of gastrodin	uncertainty
273.15	0.00074	2e-05
278.15	0.00094	3e-05
283.15	0.00115	3e-05
288.15	0.00138	4e-05
293.15	0.00165	4e-05
298.15	0.00194	5e-05
303.15	0.00226	6e-05
308.15	0.00262	7e-05
313.15	0.00301	8e-05

System: gastrodin + propan-2-ol; phases: Liquid, Crystal
Fixed: Pressure, kPa = 101.3
Property: Mole fraction of gastrodin (Liquid); method: Chromatography
Temperature, K	Mole fraction of gastrodin	uncertainty
273.15	0.00114	3e-05
278.15	0.00139	4e-05
283.15	0.00169	4e-05
288.15	0.002	5e-05
293.15	0.00235	6e-05
298.15	0.00271	7e-05
303.15	0.00312	8e-05
308.15	0.00356	9e-05
313.15	0.00403	0.00011

System: gastrodin + acetone; phases: Liquid, Crystal
Fixed: Pressure, kPa = 101.3
Property: Mole fraction of gastrodin (Liquid); method: Chromatography
Temperature, K	Mole fraction of gastrodin	uncertainty
273.15	0.00097	3e-05
278.15	0.00117	3e-05
283.15	0.00142	4e-05
288.15	0.00171	5e-05
293.15	0.00199	5e-05
298.15	0.00233	6e-05
303.15	0.00273	7e-05
308.15	0.00318	8e-05
313.15	0.00368	0.0001

System: gastrodin + acetonitrile; phases: Liquid, Crystal
Fixed: Pressure, kPa = 101.3
Property: Mole fraction of gastrodin (Liquid); method: Chromatography
Temperature, K	Mole fraction of gastrodin	uncertainty
273.15	0.00066	2e-05
278.15	0.00076	2e-05
283.15	0.00088	2e-05
288.15	0.001	3e-05
293.15	0.00115	3e-05
298.15	0.0013	3e-05
303.15	0.00147	4e-05
308.15	0.00166	4e-05
313.15	0.00188	5e-05

System: gastrodin + ethyl acetate; phases: Liquid, Crystal
Fixed: Pressure, kPa = 101.3
Property: Mole fraction of gastrodin (Liquid); method: Chromatography
Temperature, K	Mole fraction of gastrodin	uncertainty
273.15	0.00174	5e-05
278.15	0.002	5e-05
283.15	0.00234	6e-05
288.15	0.00274	7e-05
293.15	0.00318	8e-05
298.15	0.00364	0.0001
303.15	0.00418	0.00011
308.15	0.00481	0.00013
313.15	0.00543	0.00014

System: gastrodin + cyclohexanone; phases: Liquid, Crystal
Fixed: Pressure, kPa = 101.3
Property: Mole fraction of gastrodin (Liquid); method: Chromatography
Temperature, K	Mole fraction of gastrodin	uncertainty
273.15	0.00128	3e-05
278.15	0.00152	4e-05
283.15	0.00185	5e-05
288.15	0.0022	6e-05
293.15	0.00257	7e-05
298.15	0.00299	8e-05
303.15	0.00344	9e-05
308.15	0.00396	0.0001
313.15	0.00455	0.00012

System: gastrodin + 1,4-dioxane; phases: Liquid, Crystal
Fixed: Pressure, kPa = 101.3
Property: Mole fraction of gastrodin (Liquid); method: Chromatography
Temperature, K	Mole fraction of gastrodin	uncertainty
288.15	0.00324	8e-05
293.15	0.00373	0.0001
298.15	0.0043	0.00011
303.15	0.00493	0.00013
308.15	0.00562	0.00015
313.15	0.0063	0.00016

System: gastrodin + toluene; phases: Liquid, Crystal
Fixed: Pressure, kPa = 101.3
Property: Mole fraction of gastrodin (Liquid); method: Chromatography
Temperature, K	Mole fraction of gastrodin	uncertainty
273.15	0.00148	4e-05
278.15	0.0018	5e-05
283.15	0.00212	6e-05
288.15	0.00248	6e-05
293.15	0.00288	8e-05
298.15	0.0033	9e-05
303.15	0.00378	0.0001
308.15	0.00431	0.00011
313.15	0.00493	0.00013

System: gastrodin + butan-1-ol; phases: Liquid, Crystal
Fixed: Pressure, kPa = 101.3
Property: Mole fraction of gastrodin (Liquid); method: Chromatography
Temperature, K	Mole fraction of gastrodin	uncertainty
273.15	0.000368	9.6e-06
278.15	0.0003949	1.03e-05
283.15	0.0004226	1.1e-05
288.15	0.0004536	1.18e-05
293.15	0.000486	1.27e-05
298.15	0.0005206	1.36e-05
303.15	0.000557	1.45e-05
308.15	0.0005948	1.55e-05
313.15	0.0006328	1.65e-05

System: gastrodin + cyclohexane; phases: Liquid, Crystal
Fixed: Pressure, kPa = 101.3
Property: Mole fraction of gastrodin (Liquid); method: Chromatography
Temperature, K	Mole fraction of gastrodin	uncertainty
273.15	3.827e-06	1.02e-07
278.15	6.242e-06	1.64e-07
283.15	9.092e-06	2.38e-07
288.15	1.247e-05	3.3e-07
293.15	1.604e-05	4.2e-07
298.15	2.131e-05	5.6e-07
303.15	2.612e-05	6.8e-07
308.15	3.258e-05	8.5e-07
313.15	3.959e-05	1.03e-06

System: gastrodin + ethyl acetate + ethanol; phases: Liquid, Crystal
Fixed: Pressure, kPa = 101.3
Property: Mole fraction of gastrodin (Liquid); method: Chromatography
Temperature, K	Solvent: Mass fraction of ethyl acetate	Mole fraction of gastrodin	uncertainty
273.15	0	0.00085	4e-05
278.15	0	0.00105	4e-05
283.15	0	0.00129	5e-05
288.15	0	0.00157	7e-05
293.15	0	0.00188	8e-05
298.15	0	0.0022	9e-05
303.15	0	0.00255	0.00011
308.15	0	0.00296	0.00012
313.15	0	0.00337	0.00014
273.15	0.2	0.00192	8e-05
278.15	0.2	0.00219	9e-05
283.15	0.2	0.00251	0.00011
288.15	0.2	0.00286	0.00012
293.15	0.2	0.00325	0.00014
298.15	0.2	0.00366	0.00015
303.15	0.2	0.00412	0.00017
308.15	0.2	0.00458	0.00019
313.15	0.2	0.00506	0.00021
273.15	0.4	0.00235	0.0001
278.15	0.4	0.00262	0.00011
283.15	0.4	0.00294	0.00012
288.15	0.4	0.00328	0.00014
293.15	0.4	0.00365	0.00015
298.15	0.4	0.00406	0.00017
303.15	0.4	0.0045	0.00019
308.15	0.4	0.00502	0.00021
313.15	0.4	0.00559	0.00024
273.15	0.6	0.00246	0.0001
278.15	0.6	0.00275	0.00012
283.15	0.6	0.0031	0.00013
288.15	0.6	0.00345	0.00015
293.15	0.6	0.00384	0.00016
298.15	0.6	0.0043	0.00018
303.15	0.6	0.00479	0.0002
308.15	0.6	0.00534	0.00022
313.15	0.6	0.00591	0.00025
273.15	0.8	0.00265	0.00011
278.15	0.8	0.00297	0.00013
283.15	0.8	0.00331	0.00014
288.15	0.8	0.00369	0.00016
293.15	0.8	0.00409	0.00017
298.15	0.8	0.00456	0.00019
303.15	0.8	0.00508	0.00021
308.15	0.8	0.00563	0.00024
313.15	0.8	0.0062	0.00026
273.15	1	0.00174	7e-05
278.15	1	0.002	8e-05
283.15	1	0.00234	0.0001
288.15	1	0.00274	0.00012
293.15	1	0.00318	0.00013
298.15	1	0.00364	0.00015
303.15	1	0.00418	0.00018
308.15	1	0.00481	0.0002
313.15	1	0.00543	0.00023
