Measured thermophysical data. Measurement and Correlation of High-Pressure Densities and Atmospheric Viscosities of Ionic Liquids: 1-Butyl-1-methylpyrrolidinium Bis(trifluoromethylsulfonyl)imide), 1-Allyl-3-methylimidazolium Bis(trifluoromethylsulfonyl)imide, 1-Ethyl-3-methylimidazolium Tetracyanoborate, and 1-Hexyl-3-methylimidazolium Tetracyanoborate
Source: J. Chem. Eng. Data, 2018, 10.1021/acs.jced.7b00773
Compound 1: 1-butyl-1-methylpyrrolidinium bis[(trifluoromethyl)sulfonyl]imide, C11H20F6N2O4S2, InChI=1S/C9H20N.C2F6NO4S2/c1-3-4-7-10(2)8-5-6-9-10;3-1(4,5)14(10,11)9-15(12,13)2(6,7)8/h3-9H2,1-2H3;/q+1;-1, purity 99.5%
Compound 2: 1-allyl-3-methyl-1H-imidazolium bis((trifluoromethyl)sulfonyl)amide, C9H11F6N3O4S2, InChI=1S/C7H11N2.C2F6NO4S2/c1-3-4-9-6-5-8(2)7-9;3-1(4,5)14(10,11)9-15(12,13)2(6,7)8/h3,5-7H,1,4H2,2H3;/q+1;-1, purity 99%
Compound 3: 1-ethyl-3-methylimidazolium tetracyanoborate, C10H11BN6, InChI=1S/C6H11N2.C4BN4/c1-3-8-5-4-7(2)6-8;6-1-5(2-7,3-8)4-9/h4-6H,3H2,1-2H3;/q+1;-1, purity 99.5%
Compound 4: 1-hexyl-3-methylimidazolium tetracyanoborate, C14H19BN6, InChI=1S/C10H19N2.C4BN4/c1-3-4-5-6-7-12-9-8-11(2)10-12;6-1-5(2-7,3-8)4-9/h8-10H,3-7H2,1-2H3;/q+1;-1, purity 98.9%

System: 1-butyl-1-methylpyrrolidinium bis[(trifluoromethyl)sulfonyl]imide; phases: Liquid
Fixed: Pressure, kPa = 100
Property: Mass density, kg/m3 (Liquid); method: Vibrating tube method
Temperature, K	Mass density, kg/m3	uncertainty
293.15	1398.7	3
303.15	1389.8	3
313.15	1381	3
323.15	1372.4	3
333.15	1363.9	3
343.15	1355.5	3
353.15	1347.1	3
363.15	1338.7	3
373.15	1329.8	3

System: 1-butyl-1-methylpyrrolidinium bis[(trifluoromethyl)sulfonyl]imide; phases: Liquid
Fixed: Pressure, kPa = 100
Property: Viscosity, Pa*s (Liquid); method: Concentric cylinders viscometry
Temperature, K	Viscosity, Pa*s	uncertainty
293.15	0.09853	0.00462
303.15	0.06187	0.00286
313.15	0.04145	0.00191
323.15	0.02925	0.00135
333.15	0.02153	0.00099
343.15	0.0164	0.00076
353.15	0.01286	0.00059
363.15	0.01033	0.00048
373.15	0.008471	0.000391

System: 1-butyl-1-methylpyrrolidinium bis[(trifluoromethyl)sulfonyl]imide; phases: Liquid
Property: Mass density, kg/m3 (Liquid); method: Bellows volumetry
Pressure, kPa	Temperature, K	Mass density, kg/m3	uncertainty
10000	311.6	1389.1	3.4
20000	311.6	1396.1	3.4
30000	311.6	1402.6	3.4
40000	311.6	1408.7	3.4
50000	311.6	1414.5	3.4
60000	311.6	1420.1	3.4
70000	311.6	1425.5	3.4
80000	311.6	1430.7	3.4
90000	311.6	1435.5	3.4
100000	311.6	1440.4	3.4
110000	311.6	1445.5	3.4
120000	311.6	1449.8	3.4
130000	311.6	1454.3	3.4
140000	311.6	1458.6	3.4
150000	311.6	1462.9	3.4
160000	311.6	1467.2	3.4
170000	311.6	1471.2	3.4
180000	311.6	1475.1	3.4
190000	311.6	1479	3.4
200000	311.6	1483	3.4
10000	331.5	1372.4	3.4
20000	331.5	1379.6	3.4
30000	331.5	1386.5	3.4
40000	331.5	1393	3.4
50000	331.5	1399.1	3.4
60000	331.5	1405	3.4
70000	331.5	1410.6	3.4
80000	331.5	1416	3.4
90000	331.5	1421.3	3.4
100000	331.5	1426.6	3.4
110000	331.5	1431.4	3.4
120000	331.5	1436	3.4
130000	331.5	1440.6	3.4
140000	331.5	1445.1	3.4
150000	331.5	1449.5	3.4
160000	331.5	1454	3.4
170000	331.5	1458.1	3.4
180000	331.5	1462.1	3.4
190000	331.5	1466.1	3.4
200000	331.5	1470.2	3.4
10000	351.6	1355.8	3.4
20000	351.6	1363.3	3.4
30000	351.6	1370.6	3.4
40000	351.6	1377.4	3.4
50000	351.6	1383.9	3.4
60000	351.6	1390	3.4
70000	351.6	1395.9	3.4
80000	351.6	1401.7	3.4
90000	351.6	1407.4	3.4
100000	351.6	1412.4	3.4
110000	351.6	1417.5	3.4
120000	351.6	1422.3	3.4
130000	351.6	1427.1	3.4
140000	351.6	1431.7	3.4
150000	351.6	1436.5	3.4
160000	351.6	1440.8	3.4
170000	351.6	1445.1	3.4
180000	351.6	1449.2	3.4
190000	351.6	1453.3	3.4
200000	351.6	1457.4	3.4
10000	371.6	1339.4	3.4
20000	371.6	1347.4	3.4
30000	371.6	1355.3	3.4
40000	371.6	1362.4	3.4
50000	371.6	1369.3	3.4
60000	371.6	1375.8	3.4
70000	371.6	1382	3.4
80000	371.6	1387.9	3.4
90000	371.6	1393.8	3.4
100000	371.6	1399	3.4
110000	371.6	1404.3	3.4
120000	371.6	1409.6	3.4
130000	371.6	1414.5	3.4
140000	371.6	1419.3	3.4
150000	371.6	1424	3.4
160000	371.6	1428.4	3.4
170000	371.6	1433	3.4
180000	371.6	1437.4	3.4
190000	371.6	1441.6	3.4
200000	371.6	1445.7	3.4
10000	391.6	1323.3	3.4
20000	391.6	1331.9	3.4
30000	391.6	1340.1	3.4
40000	391.6	1347.7	3.4
50000	391.6	1354.8	3.4
60000	391.6	1361.5	3.4
70000	391.6	1368.2	3.4
80000	391.6	1374.3	3.4
90000	391.6	1380.3	3.4
100000	391.6	1385.9	3.4
110000	391.6	1391.3	3.4
120000	391.6	1396.9	3.4
130000	391.6	1401.9	3.4
140000	391.6	1406.8	3.4
150000	391.6	1411.5	3.4
160000	391.6	1416.3	3.4
170000	391.6	1420.8	3.4
180000	391.6	1425.3	3.4
190000	391.6	1429.7	3.4
200000	391.6	1434	3.4
10000	411.3	1307.4	3.4
20000	411.3	1316.7	3.4
30000	411.3	1325.3	3.4
40000	411.3	1333.4	3.4
50000	411.3	1341	3.4
60000	411.3	1348	3.4
70000	411.3	1354.7	3.4
80000	411.3	1361.2	3.4
90000	411.3	1367.3	3.4
100000	411.3	1373.4	3.4
110000	411.3	1379	3.4
120000	411.3	1384.4	3.4
130000	411.3	1389.7	3.4
140000	411.3	1394.9	3.4
150000	411.3	1400	3.4
160000	411.3	1404.8	3.4
170000	411.3	1409.4	3.4
180000	411.3	1414.1	3.4
190000	411.3	1418.5	3.4
200000	411.3	1422.8	3.4

System: 1-allyl-3-methyl-1H-imidazolium bis((trifluoromethyl)sulfonyl)amide; phases: Liquid
Fixed: Pressure, kPa = 100
Property: Mass density, kg/m3 (Liquid); method: Vibrating tube method
Temperature, K	Mass density, kg/m3	uncertainty
293.15	1506.1	3.3
303.15	1496	3.3
313.15	1486	3.3
323.15	1476	3.3
333.15	1466.1	3.3
343.15	1456.3	3.3
353.15	1446.5	3.3
363.15	1436.8	3.2
373.15	1427.3	3.2

System: 1-allyl-3-methyl-1H-imidazolium bis((trifluoromethyl)sulfonyl)amide; phases: Liquid
Fixed: Pressure, kPa = 100
Property: Viscosity, Pa*s (Liquid); method: Concentric cylinders viscometry
Temperature, K	Viscosity, Pa*s	uncertainty
293.15	0.04069	0.00189
303.15	0.02808	0.0013
313.15	0.02031	0.00094
323.15	0.01529	0.00071
333.15	0.01191	0.00055
343.15	0.00952	0.000442
353.15	0.007783	0.000361
363.15	0.006489	0.000301
373.15	0.005498	0.000255

System: 1-allyl-3-methyl-1H-imidazolium bis((trifluoromethyl)sulfonyl)amide; phases: Liquid
Property: Mass density, kg/m3 (Liquid); method: Bellows volumetry
Pressure, kPa	Temperature, K	Mass density, kg/m3	uncertainty
10000	312.5	1493.8	3.6
20000	312.5	1501.1	3.6
30000	312.5	1508	3.6
40000	312.5	1514.7	3.6
50000	312.5	1521	3.6
60000	312.5	1527.1	3.6
70000	312.5	1533.1	3.6
80000	312.5	1538.8	3.6
90000	312.5	1544.2	3.6
100000	312.5	1549.5	3.6
110000	312.5	1554.7	3.6
120000	312.5	1559.7	3.6
130000	312.5	1564.7	3.6
140000	312.5	1569.4	3.6
150000	312.5	1574	3.6
160000	312.5	1578.6	3.6
170000	312.5	1583.2	3.6
180000	312.5	1587.5	3.6
190000	312.5	1591.8	3.6
200000	312.5	1596	3.6
10000	332.3	1474.5	3.6
20000	332.3	1482.1	3.6
30000	332.3	1489.6	3.6
40000	332.3	1496.7	3.6
50000	332.3	1503.4	3.6
60000	332.3	1509.7	3.6
70000	332.3	1515.8	3.6
80000	332.3	1521.7	3.6
90000	332.3	1527.3	3.6
100000	332.3	1533	3.6
110000	332.3	1538.5	3.6
120000	332.3	1543.8	3.6
130000	332.3	1548.9	3.6
140000	332.3	1553.7	3.6
150000	332.3	1558.5	3.6
160000	332.3	1563.3	3.6
170000	332.3	1568	3.6
180000	332.3	1572.5	3.6
190000	332.3	1576.9	3.6
200000	332.3	1581.4	3.6
10000	352.4	1455.3	3.6
20000	352.4	1463.6	3.6
30000	352.4	1471.5	3.6
40000	352.4	1479	3.6
50000	352.4	1486.1	3.6
60000	352.4	1492.9	3.6
70000	352.4	1499.3	3.6
80000	352.4	1505.6	3.6
90000	352.4	1511.4	3.6
100000	352.4	1517.2	3.6
110000	352.4	1522.8	3.6
120000	352.4	1528.3	3.6
130000	352.4	1533.5	3.6
140000	352.4	1538.7	3.6
150000	352.4	1543.7	3.6
160000	352.4	1548.5	3.6
170000	352.4	1553.3	3.6
180000	352.4	1558	3.6
190000	352.4	1562.6	3.6
200000	352.4	1567.1	3.6
10000	372.5	1436.7	3.6
20000	372.5	1445.3	3.6
30000	372.5	1453.7	3.6
40000	372.5	1461.6	3.6
50000	372.5	1469.1	3.6
60000	372.5	1476.1	3.6
70000	372.5	1482.9	3.6
80000	372.5	1489.5	3.6
90000	372.5	1495.6	3.6
100000	372.5	1501.6	3.6
110000	372.5	1507.5	3.6
120000	372.5	1513.3	3.6
130000	372.5	1518.7	3.6
140000	372.5	1524	3.6
150000	372.5	1529.2	3.6
160000	372.5	1534.2	3.6
170000	372.5	1539.1	3.6
180000	372.5	1544	3.6
190000	372.5	1548.6	3.6
200000	372.5	1553.4	3.6
10000	392.8	1417.8	3.6
20000	392.8	1427.3	3.6
30000	392.8	1436.1	3.6
40000	392.8	1444.4	3.6
50000	392.8	1452.4	3.6
60000	392.8	1459.8	3.6
70000	392.8	1466.9	3.6
80000	392.8	1473.7	3.6
90000	392.8	1480.1	3.6
100000	392.8	1486.5	3.6
110000	392.8	1492.5	3.6
120000	392.8	1498.5	3.6
130000	392.8	1504.2	3.6
140000	392.8	1509.6	3.6
150000	392.8	1514.9	3.6
160000	392.8	1520.2	3.6
170000	392.8	1525.3	3.6
180000	392.8	1530.2	3.6
190000	392.8	1535.1	3.6
200000	392.8	1539.9	3.6
10000	413.1	1399.4	3.6
20000	413.1	1409.4	3.6
30000	413.1	1418.9	3.6
40000	413.1	1427.7	3.6
50000	413.1	1436	3.6
60000	413.1	1443.8	3.6
70000	413.1	1451.3	3.6
80000	413.1	1458.4	3.6
90000	413.1	1465.2	3.6
100000	413.1	1471.7	3.6
110000	413.1	1478	3.6
120000	413.1	1484.2	3.6
130000	413.1	1490	3.6
140000	413.1	1495.8	3.6
150000	413.1	1501.3	3.6
160000	413.1	1506.6	3.6
170000	413.1	1511.8	3.6
180000	413.1	1516.9	3.6
190000	413.1	1521.8	3.6
200000	413.1	1526.8	3.6
10000	432.7	1381.4	3.6
20000	432.7	1392	3.6
30000	432.7	1401.8	3.6
40000	432.7	1411.1	3.6
50000	432.7	1419.9	3.6
60000	432.7	1428	3.6
70000	432.7	1435.9	3.6
80000	432.7	1443.4	3.6
90000	432.7	1450.5	3.6
100000	432.7	1457.2	3.6
110000	432.7	1463.7	3.6
120000	432.7	1470.1	3.6
130000	432.7	1476.1	3.6
140000	432.7	1482	3.6
150000	432.7	1487.7	3.6
160000	432.7	1493.2	3.6
170000	432.7	1498.6	3.6
180000	432.7	1503.9	3.6
190000	432.7	1508.9	3.6
200000	432.7	1514	3.6

System: 1-ethyl-3-methylimidazolium tetracyanoborate; phases: Liquid
Fixed: Pressure, kPa = 100
Property: Mass density, kg/m3 (Liquid); method: Vibrating tube method
Temperature, K	Mass density, kg/m3	uncertainty
293.15	1040.5	2.3
303.15	1032.7	2.3
313.15	1024.9	2.3
323.15	1017.2	2.3
333.15	1009.6	2.3
343.15	1002	2.3
353.15	994.8	2.3
363.15	987.5	2.3
373.15	980.3	2.3

System: 1-ethyl-3-methylimidazolium tetracyanoborate; phases: Liquid
Fixed: Pressure, kPa = 100
Property: Viscosity, Pa*s (Liquid); method: Concentric cylinders viscometry
Temperature, K	Viscosity, Pa*s	uncertainty
293.15	0.02211	0.00102
303.15	0.01538	0.00071
313.15	0.01123	0.00052
323.15	0.00855	0.000395
333.15	0.006751	0.000312
343.15	0.005473	0.000253
353.15	0.004537	0.00021
363.15	0.003833	0.000177
373.15	0.003289	0.000152

System: 1-ethyl-3-methylimidazolium tetracyanoborate; phases: Liquid
Property: Mass density, kg/m3 (Liquid); method: Bellows volumetry
Pressure, kPa	Temperature, K	Mass density, kg/m3	uncertainty
10000	311.8	1031.2	2.6
20000	311.8	1036.6	2.6
30000	311.8	1041.7	2.6
40000	311.8	1046.6	2.6
50000	311.8	1051.3	2.6
60000	311.8	1055.9	2.6
70000	311.8	1060.3	2.6
80000	311.8	1064.6	2.6
90000	311.8	1068.7	2.6
100000	311.8	1072.8	2.6
110000	311.8	1076.8	2.6
120000	311.8	1080.6	2.6
130000	311.8	1084.3	2.6
140000	311.8	1088	2.6
150000	311.8	1091.6	2.6
160000	311.8	1095.1	2.6
170000	311.8	1098.5	2.6
180000	311.8	1101.9	2.6
190000	311.8	1105.1	2.6
200000	311.8	1108.5	2.6
10000	331.7	1016.3	2.6
20000	331.7	1021.9	2.6
30000	331.7	1027.4	2.6
40000	331.7	1032.6	2.6
50000	331.7	1037.5	2.6
60000	331.7	1042.3	2.6
70000	331.7	1046.9	2.6
80000	331.7	1051.4	2.6
90000	331.7	1055.7	2.6
100000	331.7	1059.9	2.6
110000	331.7	1064	2.6
120000	331.7	1068	2.6
130000	331.7	1071.9	2.6
140000	331.7	1075.6	2.6
150000	331.7	1079.2	2.6
160000	331.7	1082.9	2.6
170000	331.7	1086.4	2.6
180000	331.7	1089.9	2.6
190000	331.7	1093.3	2.6
200000	331.7	1096.7	2.6
10000	351.8	1001.6	2.6
20000	351.8	1007.5	2.6
30000	351.8	1013.3	2.6
40000	351.8	1018.7	2.6
50000	351.8	1024	2.6
60000	351.8	1029	2.6
70000	351.8	1033.8	2.6
80000	351.8	1038.5	2.6
90000	351.8	1043	2.6
100000	351.8	1047.3	2.6
110000	351.8	1051.5	2.6
120000	351.8	1055.7	2.6
130000	351.8	1059.7	2.6
140000	351.8	1063.6	2.6
150000	351.8	1067.4	2.6
160000	351.8	1071.2	2.6
170000	351.8	1074.8	2.6
180000	351.8	1078.4	2.6
190000	351.8	1081.9	2.6
200000	351.8	1085.3	2.6
10000	372	987.2	2.6
20000	372	993.6	2.6
30000	372	999.6	2.6
40000	372	1005.4	2.6
50000	372	1010.8	2.6
60000	372	1016	2.6
70000	372	1021	2.6
80000	372	1025.9	2.6
90000	372	1030.5	2.6
100000	372	1035.1	2.6
110000	372	1039.5	2.6
120000	372	1043.8	2.6
130000	372	1048	2.6
140000	372	1052.1	2.6
150000	372	1055.9	2.6
160000	372	1059.8	2.6
170000	372	1063.5	2.6
180000	372	1067.2	2.6
190000	372	1070.9	2.6
200000	372	1074.4	2.6
10000	392.1	973	2.6
20000	392.1	979.8	2.6
30000	392.1	986.2	2.6
40000	392.1	992.2	2.6
50000	392.1	998	2.6
60000	392.1	1003.4	2.6
70000	392.1	1008.6	2.6
80000	392.1	1013.8	2.6
90000	392.1	1018.6	2.6
100000	392.1	1023.3	2.6
110000	392.1	1028	2.6
120000	392.1	1032.4	2.6
130000	392.1	1036.6	2.6
140000	392.1	1040.8	2.6
150000	392.1	1044.9	2.6
160000	392.1	1048.8	2.6
170000	392.1	1052.8	2.6
180000	392.1	1056.5	2.6
190000	392.1	1060.2	2.6
200000	392.1	1063.9	2.6
10000	412.2	959.2	2.6
20000	412.2	966.3	2.6
30000	412.2	973	2.6
40000	412.2	979.4	2.6
50000	412.2	985.4	2.6
60000	412.2	991.1	2.6
70000	412.2	996.6	2.6
80000	412.2	1001.9	2.6
90000	412.2	1007	2.6
100000	412.2	1011.9	2.6
110000	412.2	1016.6	2.6
120000	412.2	1021.2	2.6
130000	412.2	1025.7	2.6
140000	412.2	1030	2.6
150000	412.2	1034.1	2.6
160000	412.2	1038.2	2.6
170000	412.2	1042.2	2.6
180000	412.2	1046.1	2.6
190000	412.2	1049.9	2.6
200000	412.2	1053.6	2.6

System: 1-hexyl-3-methylimidazolium tetracyanoborate; phases: Liquid
Fixed: Pressure, kPa = 100
Property: Mass density, kg/m3 (Liquid); method: Vibrating tube method
Temperature, K	Mass density, kg/m3	uncertainty
293.15	994.4	2.2
303.15	987.3	2.2
313.15	980.1	2.2
323.15	973	2.2
333.15	966	2.2
343.15	959.1	2.2
353.15	952.2	2.2
363.15	945.4	2.2
373.15	938.7	2.2

System: 1-hexyl-3-methylimidazolium tetracyanoborate; phases: Liquid
Fixed: Pressure, kPa = 100
Property: Viscosity, Pa*s (Liquid); method: Concentric cylinders viscometry
Temperature, K	Viscosity, Pa*s	uncertainty
293.15	0.06369	0.00296
303.15	0.0381	0.00177
313.15	0.02473	0.00115
323.15	0.01712	0.0008
333.15	0.01248	0.00058
343.15	0.009467	0.00044
353.15	0.007423	0.000345
363.15	0.005982	0.000278
373.15	0.004929	0.000229

System: 1-hexyl-3-methylimidazolium tetracyanoborate; phases: Liquid
Property: Mass density, kg/m3 (Liquid); method: Bellows volumetry
Pressure, kPa	Temperature, K	Mass density, kg/m3	uncertainty
10000	311.8	986.2	2.5
20000	311.8	991.5	2.5
30000	311.8	996.5	2.5
40000	311.8	1001.3	2.5
50000	311.8	1005.9	2.5
60000	311.8	1010.3	2.5
70000	311.8	1014.5	2.5
80000	311.8	1018.6	2.5
90000	311.8	1022.6	2.5
100000	311.8	1026.5	2.5
110000	311.8	1030.2	2.5
120000	311.8	1034	2.5
130000	311.8	1037.6	2.5
140000	311.8	1041.1	2.5
150000	311.8	1044.6	2.5
160000	311.8	1047.9	2.5
170000	311.8	1051.2	2.5
180000	311.8	1054.4	2.5
190000	311.8	1057.6	2.5
200000	311.8	1060.7	2.5
10000	331.8	972.5	2.5
20000	331.8	978.1	2.5
30000	331.8	983.3	2.5
40000	331.8	988.5	2.5
50000	331.8	993.3	2.5
60000	331.8	998	2.5
70000	331.8	1002.3	2.5
80000	331.8	1006.7	2.5
90000	331.8	1010.8	2.5
100000	331.8	1014.9	2.5
110000	331.8	1018.8	2.5
120000	331.8	1022.6	2.5
130000	331.8	1026.4	2.5
140000	331.8	1030	2.5
150000	331.8	1033.5	2.5
160000	331.8	1037	2.5
170000	331.8	1040.4	2.5
180000	331.8	1043.7	2.5
190000	331.8	1047	2.5
200000	331.8	1050.2	2.5
10000	351.6	959.1	2.5
20000	351.6	965.1	2.5
30000	351.6	970.6	2.5
40000	351.6	976	2.5
50000	351.6	981	2.5
60000	351.6	985.9	2.5
70000	351.6	990.5	2.5
80000	351.6	995.1	2.5
90000	351.6	999.4	2.5
100000	351.6	1003.6	2.5
110000	351.6	1007.6	2.5
120000	351.6	1011.5	2.5
130000	351.6	1015.4	2.5
140000	351.6	1019.2	2.5
150000	351.6	1022.9	2.5
160000	351.6	1026.4	2.5
170000	351.6	1029.9	2.5
180000	351.6	1033.3	2.5
190000	351.6	1036.7	2.5
200000	351.6	1040	2.5
10000	371.8	945.8	2.5
20000	371.8	952	2.5
30000	371.8	957.9	2.5
40000	371.8	963.6	2.5
50000	371.8	969	2.5
60000	371.8	974	2.5
70000	371.8	978.8	2.5
80000	371.8	983.6	2.5
90000	371.8	988.1	2.5
100000	371.8	992.4	2.5
110000	371.8	996.7	2.5
120000	371.8	1000.8	2.5
130000	371.8	1004.8	2.5
140000	371.8	1008.7	2.5
150000	371.8	1012.5	2.5
160000	371.8	1016.1	2.5
170000	371.8	1019.7	2.5
180000	371.8	1023.3	2.5
190000	371.8	1026.7	2.5
200000	371.8	1030.1	2.5
10000	392	932.8	2.5
20000	392	939.4	2.5
30000	392	945.7	2.5
40000	392	951.6	2.5
50000	392	957.2	2.5
60000	392	962.5	2.5
70000	392	967.6	2.5
80000	392	972.6	2.5
90000	392	977.3	2.5
100000	392	981.8	2.5
110000	392	986.3	2.5
120000	392	990.5	2.5
130000	392	994.6	2.5
140000	392	998.6	2.5
150000	392	1002.5	2.5
160000	392	1006.3	2.5
170000	392	1010	2.5
180000	392	1013.6	2.5
190000	392	1017.2	2.5
200000	392	1020.6	2.5
10000	412.1	920.1	2.5
20000	412.1	927	2.5
30000	412.1	933.7	2.5
40000	412.1	939.9	2.5
50000	412.1	945.8	2.5
60000	412.1	951.4	2.5
70000	412.1	956.7	2.5
80000	412.1	961.8	2.5
90000	412.1	966.8	2.5
100000	412.1	971.4	2.5
110000	412.1	976	2.5
120000	412.1	980.4	2.5
130000	412.1	984.7	2.5
140000	412.1	988.8	2.5
150000	412.1	992.8	2.5
160000	412.1	996.7	2.5
170000	412.1	1000.6	2.5
180000	412.1	1004.3	2.5
190000	412.1	1007.9	2.5
200000	412.1	1011.5	2.5
