Measured thermophysical data. Measurement and Thermodynamic Models for Ternary Liquid-Liquid Equilibrium Systems {Water + Polyoxymethylene Dimethyl Ethers +4-Methyl-2-pentanol} at Different Temperatures
Source: J. Chem. Eng. Data, 2018, 10.1021/acs.jced.8b00323
Compound 1: 4-methyl-2-pentanol, C6H14O, InChI=1S/C6H14O/c1-5(2)4-6(3)7/h5-7H,4H2,1-3H3, purity 99%
Compound 2: dimethoxymethane, C3H8O2, InChI=1S/C3H8O2/c1-4-3-5-2/h3H2,1-2H3, purity 99.5%
Compound 3: 2,4,6-trioxaheptane, C4H10O3, InChI=1S/C4H10O3/c1-5-3-7-4-6-2/h3-4H2,1-2H3
Compound 4: 2,4,6,8-tetraoxanonane, C5H12O4, InChI=1S/C5H12O4/c1-6-3-8-5-9-4-7-2/h3-5H2,1-2H3
Compound 5: 2,4,6,8,10-pentaoxaundecane, C6H14O5, InChI=1S/C6H14O5/c1-7-3-9-5-11-6-10-4-8-2/h3-6H2,1-2H3
Compound 6: water, H2O, InChI=1S/H2O/h1H2, purity 99.8%

System: water + dimethoxymethane + 4-methyl-2-pentanol; phases: Liquid mixture 1, Liquid mixture 2
Fixed: Pressure, kPa = 101.3
Property: Mass fraction of 4-methyl-2-pentanol (Liquid mixture 1); method: Chromatography
Property: Mass fraction of 4-methyl-2-pentanol (Liquid mixture 2); method: Chromatography
Property: Mass fraction of dimethoxymethane (Liquid mixture 2); method: Chromatography
Temperature, K	Mass fraction of dimethoxymethane	Mass fraction of 4-methyl-2-pentanol	uncertainty	Mass fraction of 4-methyl-2-pentanol	uncertainty	Mass fraction of dimethoxymethane	uncertainty
298.2	0.0366	0.8968	0.0298	0.0236	0.02	0.0117	
308.2	0.1065	0.8159	0.0295	0.0221	0.02	0.0314	
308.2	0.1462	0.7737	0.0297	0.0237	0.0201	0.0422	
308.2	0.1886	0.726	0.0298	0.0238	0.02	0.0575	
308.2	0.2274	0.6842	0.0291	0.0202	0.0202	0.0676	
308.2	0.2656	0.6452	0.0287	0.0205	0.0201	0.0766	
298.2	0.0682	0.862	0.03	0.0231	0.02	0.0262	
298.2	0.1078	0.8172	0.0301	0.0229	0.02	0.0425	
298.2	0.1483	0.7723	0.0296	0.0218	0.02	0.0569	
298.2	0.1916	0.7259	0.0292	0.0231	0.02	0.075	
298.2	0.2319	0.684	0.0293	0.0232	0.02	0.089	
298.2	0.3142	0.5955	0.0295	0.0241	0.02	0.1089	
308.2	0.031	0.8988	0.0296	0.026	0.02	0.0073	
308.2	0.0685	0.858	0.0297	0.0237	0.02	0.0186	

System: water + 2,4,6-trioxaheptane + 4-methyl-2-pentanol; phases: Liquid mixture 2, Liquid mixture 1
Fixed: Pressure, kPa = 101.3
Property: Mass fraction of 4-methyl-2-pentanol (Liquid mixture 2); method: Chromatography
Property: Mass fraction of 4-methyl-2-pentanol (Liquid mixture 1); method: Chromatography
Property: Mass fraction of 2,4,6-trioxaheptane (Liquid mixture 1); method: Chromatography
Temperature, K	Mass fraction of 2,4,6-trioxaheptane	Mass fraction of 4-methyl-2-pentanol	uncertainty	Mass fraction of 4-methyl-2-pentanol	uncertainty	Mass fraction of 2,4,6-trioxaheptane	uncertainty
298.2	0.0113	0.0293	0.02	0.9053	0.0283	0.0315	
298.2	0.0245	0.0292	0.0202	0.8679	0.0289	0.069	
298.2	0.0469	0.0322	0.02	0.8254	0.0289	0.1082	
298.2	0.0636	0.032	0.02	0.7877	0.0288	0.1461	
298.2	0.0745	0.032	0.02	0.7468	0.031	0.1843	
298.2	0.1014	0.0298	0.02	0.6533	0.0299	0.2609	
298.2	0.1219	0.0325	0.0202	0.6023	0.0274	0.3159	
308.2	0.0099	0.0253	0.02	0.9184	0.0296	0.0313	
308.2	0.0221	0.0304	0.0203	0.8753	0.0296	0.0709	
308.2	0.0325	0.026	0.02	0.8336	0.03	0.1092	
308.2	0.0603	0.0242	0.02	0.7459	0.0307	0.1869	
308.2	0.0765	0.0234	0.02	0.6974	0.0317	0.226	
308.2	0.0857	0.024	0.02	0.6485	0.0315	0.2663	
308.2	0.1042	0.0242	0.02	0.5982	0.0315	0.308	

System: water + 2,4,6,8-tetraoxanonane + 4-methyl-2-pentanol; phases: Liquid mixture 2, Liquid mixture 1
Fixed: Pressure, kPa = 101.3
Property: Mass fraction of 4-methyl-2-pentanol (Liquid mixture 2); method: Chromatography
Property: Mass fraction of 4-methyl-2-pentanol (Liquid mixture 1); method: Chromatography
Property: Mass fraction of 2,4,6,8-tetraoxanonane (Liquid mixture 1); method: Chromatography
Temperature, K	Mass fraction of 2,4,6,8-tetraoxanonane	Mass fraction of 4-methyl-2-pentanol	uncertainty	Mass fraction of 4-methyl-2-pentanol	uncertainty	Mass fraction of 2,4,6,8-tetraoxanonane	uncertainty
298.2	0.011	0.0229	0.02	0.9129	0.0299	0.026	
298.2	0.0249	0.0199	0.0199	0.871	0.0297	0.0638	
298.2	0.0373	0.0194	0.0194	0.8322	0.0297	0.0994	
298.2	0.0491	0.0195	0.0195	0.7912	0.0296	0.1364	
298.2	0.0603	0.0195	0.0195	0.7523	0.0298	0.173	
298.2	0.0723	0.0199	0.0199	0.7076	0.0293	0.2125	
298.2	0.0814	0.0199	0.0199	0.6699	0.0283	0.2503	
308.2	0.0095	0.0251	0.02	0.909	0.0289	0.0294	
308.2	0.0202	0.0267	0.02	0.8726	0.0295	0.0642	
308.2	0.0309	0.0267	0.02	0.8322	0.0296	0.1001	
308.2	0.0407	0.0284	0.02	0.7934	0.0306	0.1368	
308.2	0.0537	0.0281	0.02	0.7396	0.0303	0.1803	
308.2	0.063	0.0279	0.02	0.7005	0.0294	0.2187	
308.2	0.073	0.0261	0.02	0.6573	0.0303	0.2569	

System: water + 2,4,6,8,10-pentaoxaundecane + 4-methyl-2-pentanol; phases: Liquid mixture 2, Liquid mixture 1
Fixed: Pressure, kPa = 101.3
Property: Mass fraction of 4-methyl-2-pentanol (Liquid mixture 2); method: Chromatography
Property: Mass fraction of 4-methyl-2-pentanol (Liquid mixture 1); method: Chromatography
Property: Mass fraction of 2,4,6,8,10-pentaoxaundecane (Liquid mixture 1); method: Chromatography
Temperature, K	Mass fraction of 2,4,6,8,10-pentaoxaundecane	Mass fraction of 4-methyl-2-pentanol	uncertainty	Mass fraction of 4-methyl-2-pentanol	uncertainty	Mass fraction of 2,4,6,8,10-pentaoxaundecane	uncertainty
298.2	0.0129	0.0312	0.02	0.9074	0.0292	0.0341	
298.2	0.0269	0.0311	0.02	0.8635	0.0292	0.0755	
298.2	0.0408	0.0303	0.02	0.8172	0.029	0.119	
298.2	0.0518	0.0306	0.02	0.775	0.029	0.1598	
298.2	0.0657	0.0294	0.02	0.7282	0.0291	0.2041	
298.2	0.091	0.0252	0.02	0.6283	0.0291	0.2991	
298.2	0.098	0.0254	0.02	0.59	0.0288	0.3365	
308.2	0.0253	0.0283	0.02	0.8552	0.0284	0.0804	
308.2	0.0374	0.0294	0.02	0.8131	0.0293	0.1221	
308.2	0.0496	0.0271	0.02	0.7596	0.0291	0.1698	
308.2	0.0602	0.0278	0.02	0.7188	0.029	0.2118	
308.2	0.0784	0.0246	0.02	0.6246	0.0294	0.2999	
308.2	0.0894	0.0251	0.02	0.5779	0.0295	0.344	
308.2	0.097	0.0254	0.02	0.5339	0.0298	0.3843	
