Measured thermophysical data. Solubility Determination, Modeling, and Thermodynamic Dissolution Properties of Benzenesulfonamide in 16 Neat Solvents from 273.15 to 324.45 K
Source: J. Chem. Eng. Data, 2019, 10.1021/acs.jced.9b00360
Compound 1: benzenesulfonamide, C6H7NO2S, InChI=1S/C6H7NO2S/c7-10(8,9)6-4-2-1-3-5-6/h1-5H,(H2,7,8,9), purity 98%
Compound 2: methanol, CH4O, InChI=1S/CH4O/c1-2/h2H,1H3, purity 99.5%
Compound 3: ethanol, C2H6O, InChI=1S/C2H6O/c1-2-3/h3H,2H2,1H3, purity 99.7%
Compound 4: propan-1-ol, C3H8O, InChI=1S/C3H8O/c1-2-3-4/h4H,2-3H2,1H3, purity 99.5%
Compound 5: propan-2-ol, C3H8O, InChI=1S/C3H8O/c1-3(2)4/h3-4H,1-2H3, purity 99.9%
Compound 6: butan-1-ol, C4H10O, InChI=1S/C4H10O/c1-2-3-4-5/h5H,2-4H2,1H3, purity 99%
Compound 7: 2-methyl-1-propanol, C4H10O, InChI=1S/C4H10O/c1-4(2)3-5/h4-5H,3H2,1-2H3, purity 99.5%
Compound 8: 3-methylbutan-1-ol, C5H12O, InChI=1S/C5H12O/c1-5(2)3-4-6/h5-6H,3-4H2,1-2H3, purity 98.5%
Compound 9: acetone, C3H6O, InChI=1S/C3H6O/c1-3(2)4/h1-2H3, purity 99.5%
Compound 10: ethyl acetate, C4H8O2, InChI=1S/C4H8O2/c1-3-6-4(2)5/h3H2,1-2H3, purity 99.5%
Compound 11: dichloromethane, CH2Cl2, InChI=1S/CH2Cl2/c2-1-3/h1H2, purity 99.5%
Compound 12: acetonitrile, C2H3N, InChI=1S/C2H3N/c1-2-3/h1H3, purity 99.5%
Compound 13: cyclopentanone, C5H8O, InChI=1S/C5H8O/c6-5-3-1-2-4-5/h1-4H2, purity 99%
Compound 14: cyclohexanone, C6H10O, InChI=1S/C6H10O/c7-6-4-2-1-3-5-6/h1-5H2, purity 99%
Compound 15: methyl ethanoate, C3H6O2, InChI=1S/C3H6O2/c1-3(4)5-2/h1-2H3, purity 98%
Compound 16: ethyl methanoate, C3H6O2, InChI=1S/C3H6O2/c1-2-5-3-4/h3H,2H2,1H3, purity 97%
Compound 17: pentan-1-ol, C5H12O, InChI=1S/C5H12O/c1-2-3-4-5-6/h6H,2-5H2,1H3, purity 99.5%

System: benzenesulfonamide; phases: Crystal, Liquid, Air at 1 atmosphere
Property: Normal melting temperature, K (Crystal); method: DTA
Normal melting temperature, K	uncertainty
425.35	1.06

System: benzenesulfonamide; phases: Crystal, Liquid, Air at 1 atmosphere
Property: Molar enthalpy of transition or fusion, kJ/mol (Crystal); method: DSC
Molar enthalpy of transition or fusion, kJ/mol	uncertainty
25.62	1.63

System: benzenesulfonamide + methanol; phases: Liquid, Crystal
Fixed: Pressure, kPa = 100
Property: Mole fraction of benzenesulfonamide (Liquid); method: Gravimetric analysis
Temperature, K	Mole fraction of benzenesulfonamide	uncertainty
273.15	0.0295	0.00177
279.15	0.03253	0.00195
283.45	0.03565	0.00214
288.95	0.04095	0.00246
293.25	0.04601	0.00277
298.85	0.05358	0.00322
303.15	0.06098	0.00367
308.15	0.06987	0.0042
313.15	0.08084	0.00486
317.65	0.09226	0.00555
323.15	0.1066	0.0064

System: benzenesulfonamide + ethanol; phases: Liquid, Crystal
Fixed: Pressure, kPa = 100
Property: Mole fraction of benzenesulfonamide (Liquid); method: Gravimetric analysis
Temperature, K	Mole fraction of benzenesulfonamide	uncertainty
273.15	0.0159	0.00096
279.15	0.01821	0.00109
283.45	0.01989	0.0012
288.95	0.02309	0.00139
293.25	0.02609	0.00157
298.85	0.03073	0.00185
303.15	0.03548	0.00213
308.15	0.04097	0.00246
313.15	0.04799	0.00288
317.65	0.05468	0.00329
323.15	0.06353	0.00382

System: benzenesulfonamide + propan-1-ol; phases: Liquid, Crystal
Fixed: Pressure, kPa = 100
Property: Mole fraction of benzenesulfonamide (Liquid); method: Gravimetric analysis
Temperature, K	Mole fraction of benzenesulfonamide	uncertainty
273.15	0.008058	0.000484
279.15	0.009066	0.000545
283.85	0.01028	0.00062
289.15	0.01219	0.00073
293.75	0.01432	0.00086
299.15	0.01755	0.00106
303.75	0.02084	0.00125
309.15	0.02536	0.00153
313.35	0.02933	0.00176
319.15	0.03598	0.00216
324.45	0.04226	0.00254

System: benzenesulfonamide + propan-2-ol; phases: Liquid, Crystal
Fixed: Pressure, kPa = 100
Property: Mole fraction of benzenesulfonamide (Liquid); method: Gravimetric analysis
Temperature, K	Mole fraction of benzenesulfonamide	uncertainty
273.15	0.007598	0.000456
279.15	0.008345	0.000501
283.85	0.009637	0.00058
289.15	0.01191	0.00072
293.75	0.01409	0.00085
299.15	0.01719	0.00103
303.75	0.02128	0.00128
309.15	0.0261	0.00157
313.35	0.03051	0.00184
319.15	0.03709	0.00223
324.45	0.04441	0.00267

System: benzenesulfonamide + butan-1-ol; phases: Liquid, Crystal
Fixed: Pressure, kPa = 100
Property: Mole fraction of benzenesulfonamide (Liquid); method: Gravimetric analysis
Temperature, K	Mole fraction of benzenesulfonamide	uncertainty
273.15	0.005781	0.000347
279.15	0.006789	0.000408
283.85	0.007979	0.00048
289.15	0.009458	0.000569
293.75	0.01103	0.00066
299.15	0.01351	0.00081
303.75	0.01604	0.00096
309.15	0.01952	0.00117
313.35	0.0226	0.00136
319.15	0.02756	0.00166
324.45	0.0323	0.00194

System: benzenesulfonamide + 2-methyl-1-propanol; phases: Liquid, Crystal
Fixed: Pressure, kPa = 100
Property: Mole fraction of benzenesulfonamide (Liquid); method: Gravimetric analysis
Temperature, K	Mole fraction of benzenesulfonamide	uncertainty
273.15	0.003873	0.000233
279.15	0.0045	0.000271
283.85	0.005374	0.000323
289.15	0.00666	0.000401
293.75	0.008081	0.000486
299.15	0.009955	0.000599
303.75	0.01196	0.00072
309.15	0.01484	0.00089
313.35	0.01761	0.00106
319.15	0.02142	0.00129
324.45	0.0255	0.00153

System: benzenesulfonamide + pentan-1-ol; phases: Liquid, Crystal
Fixed: Pressure, kPa = 100
Property: Mole fraction of benzenesulfonamide (Liquid); method: Gravimetric analysis
Temperature, K	Mole fraction of benzenesulfonamide	uncertainty
273.15	0.004742	0.000285
279.15	0.005379	0.000323
283.85	0.006158	0.00037
289.15	0.007271	0.000437
293.75	0.00894	0.000538
299.15	0.0111	0.00067
303.75	0.01308	0.00079
309.15	0.01643	0.00099
313.35	0.01883	0.00113
319.15	0.02322	0.0014
324.45	0.02779	0.00167

System: benzenesulfonamide + 3-methylbutan-1-ol; phases: Liquid, Crystal
Fixed: Pressure, kPa = 100
Property: Mole fraction of benzenesulfonamide (Liquid); method: Gravimetric analysis
Temperature, K	Mole fraction of benzenesulfonamide	uncertainty
273.15	0.004193	0.000252
279.15	0.00488	0.000293
283.85	0.005571	0.000335
289.15	0.006832	0.000411
293.75	0.008044	0.000484
299.15	0.009994	0.000601
303.75	0.01194	0.00072
309.15	0.01481	0.00089
313.35	0.01719	0.00103
319.15	0.02099	0.00126
324.45	0.0249	0.0015

System: benzenesulfonamide + acetone; phases: Liquid, Crystal
Fixed: Pressure, kPa = 100
Property: Mole fraction of benzenesulfonamide (Liquid); method: Gravimetric analysis
Temperature, K	Mole fraction of benzenesulfonamide	uncertainty
273.15	0.1166	0.007
279.15	0.1234	0.0074
283.45	0.1295	0.0078
288.95	0.1383	0.0083
293.25	0.1451	0.0087
298.85	0.1559	0.0094
303.15	0.1648	0.0099
308.15	0.1759	0.0106
313.15	0.1883	0.0113
317.65	0.2007	0.0121
323.15	0.2171	0.013

System: benzenesulfonamide + ethyl acetate; phases: Liquid, Crystal
Fixed: Pressure, kPa = 100
Property: Mole fraction of benzenesulfonamide (Liquid); method: Gravimetric analysis
Temperature, K	Mole fraction of benzenesulfonamide	uncertainty
273.15	0.0325	0.00195
279.15	0.03602	0.00216
283.45	0.03892	0.00234
288.95	0.0429	0.00258
293.25	0.04673	0.00281
298.85	0.05171	0.00311
303.15	0.05629	0.00338
308.15	0.06153	0.0037
313.15	0.06819	0.0041
317.65	0.07362	0.00442
323.15	0.08204	0.00493

System: benzenesulfonamide + acetonitrile; phases: Liquid, Crystal
Fixed: Pressure, kPa = 100
Property: Mole fraction of benzenesulfonamide (Liquid); method: Gravimetric analysis
Temperature, K	Mole fraction of benzenesulfonamide	uncertainty
273.15	0.03485	0.00209
279.15	0.03963	0.00238
283.45	0.04457	0.00268
288.95	0.05066	0.00304
293.25	0.05685	0.00342
298.85	0.06491	0.0039
303.15	0.07227	0.00434
308.15	0.08168	0.00491
313.15	0.09278	0.00558
317.65	0.1038	0.0062
323.15	0.118	0.0071

System: benzenesulfonamide + cyclohexanone; phases: Liquid, Crystal
Fixed: Pressure, kPa = 100
Property: Mole fraction of benzenesulfonamide (Liquid); method: Gravimetric analysis
Temperature, K	Mole fraction of benzenesulfonamide	uncertainty
273.15	0.1137	0.0068
279.15	0.1201	0.0072
283.85	0.1264	0.0076
289.15	0.1339	0.008
293.75	0.142	0.0085
299.15	0.1512	0.0091
303.75	0.1605	0.0096
309.15	0.1713	0.0103
313.35	0.181	0.0109
319.15	0.1951	0.0117
324.45	0.2096	0.0126

System: benzenesulfonamide + cyclopentanone; phases: Liquid, Crystal
Fixed: Pressure, kPa = 100
Property: Mole fraction of benzenesulfonamide (Liquid); method: Gravimetric analysis
Temperature, K	Mole fraction of benzenesulfonamide	uncertainty
273.15	0.1395	0.0084
279.15	0.1458	0.0088
283.85	0.1517	0.0091
289.15	0.1595	0.0096
293.75	0.1674	0.0101
299.15	0.1769	0.0106
303.75	0.1869	0.0112
309.15	0.2006	0.012
313.35	0.2102	0.0126
319.15	0.2284	0.0137
324.45	0.2448	0.0147

System: benzenesulfonamide + methyl ethanoate; phases: Liquid, Crystal
Fixed: Pressure, kPa = 100
Property: Mole fraction of benzenesulfonamide (Liquid); method: Gravimetric analysis
Temperature, K	Mole fraction of benzenesulfonamide	uncertainty
273.15	0.04225	0.00254
279.15	0.0467	0.0028
283.45	0.0503	0.00302
288.95	0.05564	0.00334
293.25	0.06062	0.00364
298.85	0.06766	0.00406
303.15	0.07435	0.00447
308.15	0.08226	0.00494
313.15	0.09147	0.0055
317.65	0.1013	0.0061
323.15	0.1134	0.0068

System: benzenesulfonamide + ethyl methanoate; phases: Liquid, Crystal
Fixed: Pressure, kPa = 100
Property: Mole fraction of benzenesulfonamide (Liquid); method: Gravimetric analysis
Temperature, K	Mole fraction of benzenesulfonamide	uncertainty
273.15	0.01804	0.00108
279.15	0.02041	0.00123
283.45	0.02276	0.00137
288.95	0.02599	0.00156
293.25	0.02887	0.00173
298.85	0.03274	0.00197
303.15	0.03671	0.00221
308.15	0.04161	0.0025
313.15	0.04697	0.00282
317.65	0.05256	0.00316
323.15	0.05959	0.00358

System: benzenesulfonamide + dichloromethane; phases: Liquid, Crystal
Fixed: Pressure, kPa = 100
Property: Mole fraction of benzenesulfonamide (Liquid); method: Gravimetric analysis
Temperature, K	Mole fraction of benzenesulfonamide	uncertainty
273.15	0.001336	8.1e-05
279.15	0.001748	0.000105
283.45	0.002142	0.000129
288.95	0.002782	0.000167
293.25	0.003349	0.000202
298.85	0.004235	0.000255
303.15	0.004953	0.000298
308.15	0.006023	0.000362
312.15	0.00691	0.000415
