Measured thermophysical data. Measurement and Correlation for the Solubility of Sodium p-Toluenesulfonate, Sodium Sulfite, and Sodium p-Methylphenoxide in Aqueous Sodium Hydroxide Solutions and Sodium Sulfite in Aqueous Ethanol Solutions
Source: J. Chem. Eng. Data, 2018, 10.1021/acs.jced.7b01089
Compound 1: sodium p-toluenesulfonate, C7H7NaO3S, InChI=1S/C7H8O3S.Na/c1-6-2-4-7(5-3-6)11(8,9)10;/h2-5H,1H3,(H,8,9,10);/q;+1/p-1
Compound 2: sodium sulfite, Na2O3S, InChI=1S/2Na.H2O3S/c;;1-4(2)3/h;;(H2,1,2,3)/q2*+1;/p-2
Compound 3: sodium 4-methylphenolate, C7H7NaO, InChI=1S/C7H8O.Na/c1-6-2-4-7(8)5-3-6;/h2-5,8H,1H3;/q;+1/p-1
Compound 4: sodium hydroxide, HNaO, InChI=1S/Na.H2O/h;1H2/q+1;/p-1, purity 98%
Compound 5: water, H2O, InChI=1S/H2O/h1H2, purity 99.9%
Compound 6: ethanol, C2H6O, InChI=1S/C2H6O/c1-2-3/h3H,2H2,1H3, purity 99.8%

System: sodium p-toluenesulfonate + sodium hydroxide + water; phases: Liquid, Crystal of intercomponent compound 1
Fixed: Pressure, kPa = 100
Property: Solid-liquid equilibrium temperature, K (Liquid); method: VISOBS
Solvent: Mass fraction of sodium hydroxide	Molality, mol/kg of sodium p-toluenesulfonate	Solid-liquid equilibrium temperature, K	uncertainty
0	1.346	277.13	0.77
0	1.715	281.54	0.8
0	2.133	285	0.78
0	2.62	288.48	0.73
0	3.103	290.45	0.66
0	3.354	291.49	0.74
0	3.477	292.17	0.88
0.0301	0.9389	277.73	0.65
0.0301	1.226	281.52	0.68
0.0301	1.615	285.11	0.66
0.0301	2.118	288.5	0.68
0.0301	2.394	289.96	0.65
0.0301	2.657	291.27	0.68
0.06	0.5216	277.59	0.6
0.06	0.706	281.38	0.63
0.06	0.9274	284.27	0.6
0.06	1.134	286.19	0.58
0.06	1.347	287.87	0.55
0.06	1.587	289.16	0.55
0.0904	0.3076	277.56	0.61
0.0904	0.366	279.62	0.6
0.0904	0.4354	281.23	0.59
0.0904	0.5183	283.14	0.59
0.0904	0.6296	285.09	0.54
0.0904	0.7965	286.88	0.55
0.12	0.1518	278.56	0.53
0.12	0.2283	282.58	0.64
0.15	0.03538	277.29	0.45
0.15	0.07379	280.98	0.51

System: sodium p-toluenesulfonate + sodium hydroxide + water; phases: Liquid, Crystal
Fixed: Pressure, kPa = 100
Property: Solid-liquid equilibrium temperature, K (Liquid); method: VISOBS
Solvent: Mass fraction of sodium hydroxide	Molality, mol/kg of sodium p-toluenesulfonate	Solid-liquid equilibrium temperature, K	uncertainty
0	3.55	293.8	3.85
0	3.735	298.78	3.82
0	3.938	303.67	3.69
0	4.158	308.63	3.83
0	4.407	314.39	4.08
0	4.656	320.1	4.27
0	4.891	325.42	4.25
0	5.124	330.21	4.19
0	5.35	334.76	4.11
0	5.607	339.45	4.11
0.0301	2.74	292.55	3.15
0.0301	2.868	296.19	3.06
0.0301	3.043	300.57	2.99
0.0301	3.239	305.2	3.2
0.0301	3.458	310.71	3.22
0.0301	3.703	315.98	3.23
0.0301	3.959	321.59	3.34
0.0301	4.251	327.42	3.29
0.0301	4.531	332.57	3.32
0.0301	4.85	338.31	3.52
0.06	1.812	292.02	1.37
0.06	1.954	294.56	1.78
0.06	2.119	298.77	2.16
0.06	2.29	302.93	2.16
0.06	2.498	307.51	2.34
0.06	2.726	312.94	2.51
0.06	2.938	317.5	2.5
0.06	3.182	322.49	2.62
0.06	3.441	327.72	2.75
0.06	3.722	333.16	2.89
0.06	3.992	338.28	3.06
0.0904	0.9484	288.57	1.1
0.0904	1.101	292.62	1.38
0.0904	1.282	298.39	1.64
0.0904	1.448	303.3	1.72
0.0904	1.625	308.21	1.8
0.0904	1.808	312.97	1.82
0.0904	1.999	317.38	1.88
0.0904	2.237	322.64	1.93
0.0904	2.487	327.79	2.15
0.0904	2.732	333.1	2.4
0.0904	2.969	338.21	2.6
0.12	0.3413	286.25	0.93
0.12	0.4513	292.69	1.08
0.12	0.5392	296.91	1.08
0.12	0.6385	301.17	1.15
0.12	0.7425	305.28	1.11
0.12	0.8854	309.66	1.18
0.12	1.042	314.24	1.22
0.12	1.217	318.45	1.26
0.12	1.422	323.43	1.41
0.12	1.633	328.22	1.52
0.12	1.834	332.57	1.55
0.12	2.038	336.44	1.62
0.12	2.241	340.35	1.78
0.15	0.1228	285.55	0.83
0.15	0.1448	290.22	0.91
0.15	0.1647	295.53	0.91
0.15	0.182	297.93	0.86
0.15	0.2067	302.29	0.9
0.15	0.2355	306.54	0.97
0.15	0.2691	310.75	1.19
0.15	0.3207	314.2	1.12
0.15	0.4035	317.97	0.83
0.15	0.5193	322.66	0.92
0.15	0.6402	327.08	0.98
0.15	0.7769	331.43	1.06
0.15	0.9159	335.54	1.17
0.15	1.057	339.7	1.33
0.2	0.002868	278.12	0.68
0.2	0.006272	282.85	0.68
0.2	0.01011	287.18	0.74
0.2	0.01476	291.93	0.82
0.2	0.01925	296.66	0.96
0.2	0.02458	301.55	1.03
0.2	0.02944	305.19	1.05
0.2	0.03536	309.3	1.1
0.2	0.0423	313.84	1.07
0.2	0.05036	317.77	1.03
0.2	0.06036	321.51	1.04
0.2	0.07129	325.58	1.13
0.2	0.08434	329.85	0.97
0.2	0.1045	334.03	0.89
0.2	0.13	338.19	0.97

System: sodium sulfite + sodium hydroxide + water; phases: Liquid, Crystal of intercomponent compound 1
Fixed: Pressure, kPa = 100
Property: Solid-liquid equilibrium temperature, K (Liquid); method: VISOBS
Solvent: Mass fraction of sodium hydroxide	Molality, mol/kg of sodium sulfite	Solid-liquid equilibrium temperature, K	uncertainty
0	1.264	277.89	1.1
0	1.483	282.3	1.2
0	1.707	286.28	1.23
0	1.995	291.01	1.39
0	2.261	295.47	1.35
0	2.589	299.46	1.36
0	2.889	303.28	1.53
0.03	0.9558	277.9	0.93
0.03	1.156	282.24	1.05
0.03	1.364	286.36	1.07
0.03	1.607	290.35	1.13
0.03	1.868	294.59	1.22
0.03	2.146	298.63	1.27
0.03	2.388	301.8	1.29
0.03	2.475	302.77	1.18
0.06	0.7087	277.47	0.86
0.06	0.8778	281.92	0.94
0.06	1.067	286	0.97
0.06	1.299	290.49	1.02
0.06	1.529	294.27	1.07
0.06	1.802	298.53	1.15
0.06	1.972	300.78	1.13
0.0901	0.5361	277.28	0.78
0.0901	0.6787	281.65	0.87
0.0901	0.8447	285.87	0.9
0.0901	1.055	290.53	0.96
0.0901	1.274	294.61	0.99
0.0901	1.493	298.19	1.06
0.1202	0.4219	277.44	0.77
0.1202	0.5211	281.22	0.8
0.1202	0.6635	285.43	0.85
0.1202	0.8258	289.65	0.85
0.1202	1.008	293.2	0.92
0.1202	1.089	295.01	0.93
0.1202	1.182	296.52	0.88
0.15	0.3673	278.94	0.79
0.15	0.4534	282.59	0.77
0.15	0.5826	286.56	0.82
0.15	0.7219	290.67	0.89
0.15	0.7782	291.73	0.75
0.15	0.8394	293	0.82
0.2	0.2773	278.9	0.73
0.2	0.347	282.63	0.91
0.2	0.3981	285.97	1.12

System: sodium sulfite + sodium hydroxide + water; phases: Liquid, Crystal
Fixed: Pressure, kPa = 100
Property: Solid-liquid equilibrium temperature, K (Liquid); method: VISOBS
Solvent: Mass fraction of sodium hydroxide	Molality, mol/kg of sodium sulfite	Solid-liquid equilibrium temperature, K	uncertainty
0	2.956	304.8	4.33
0	2.908	306.55	4.97
0	2.88	308.09	6.33
0	2.79	313.02	6.34
0	2.715	317.46	6.12
0	2.638	321.57	6.3
0	2.583	325.38	7.5
0	2.527	329.61	7.72
0	2.471	333.92	7.83
0	2.402	339.49	7.77
0.03	2.496	303.66	7.32
0.03	2.48	304.83	7.27
0.03	2.401	308.98	5.02
0.03	2.321	313.1	5.2
0.03	2.244	317.74	5.29
0.03	2.142	323.61	5.01
0.03	2.071	327.82	5.96
0.03	2.034	331.57	8.83
0.03	1.998	335.73	8.5
0.03	1.955	339.98	7.74
0.06	2.045	301.73	3.58
0.06	2.024	302.64	3.55
0.06	1.996	303.86	4.23
0.06	1.921	308	4.33
0.06	1.855	311.75	4.66
0.06	1.798	315.71	5.35
0.06	1.74	320.26	5.59
0.06	1.686	324.67	5.99
0.06	1.617	331.12	5.96
0.06	1.567	335.58	5.98
0.06	1.525	339.89	6.28
0.0901	1.584	299.91	7.17
0.0901	1.567	301.83	4.85
0.0901	1.509	305.87	4.27
0.0901	1.45	310.05	4.35
0.0901	1.392	314.6	4.6
0.0901	1.338	319.26	4.74
0.0901	1.288	323.77	4.73
0.0901	1.239	328.3	4.94
0.0901	1.19	333.49	5.52
0.0901	1.139	339.84	5.69
0.1202	1.217	297.39	3.41
0.1202	1.176	300.23	3.34
0.1202	1.118	304.35	3.35
0.1202	1.062	308.68	3.68
0.1202	1.017	313.06	4.11
0.1202	0.9754	317.37	4.25
0.1202	0.9313	322.32	4.19
0.1202	0.8921	326.68	4.22
0.1202	0.859	330.83	4.63
0.1202	0.8276	335.32	4.97
0.1202	0.7974	340.04	5.01
0.15	0.8531	294.35	3
0.15	0.805	298.52	2.73
0.15	0.7557	302.46	2.78
0.15	0.7057	307.51	3.19
0.15	0.6695	312.14	3.71
0.15	0.6433	316.1	4.19
0.15	0.6179	320.48	4.56
0.15	0.5943	325.09	4.63
0.15	0.5705	329.66	4.5
0.15	0.5474	334.27	4.83
0.15	0.5252	339.6	5.07
0.2	0.4015	286.27	2.86
0.2	0.3998	286.73	2.72
0.2	0.3788	290.24	2.85
0.2	0.358	294.46	3.34
0.2	0.3409	298.99	3.83
0.2	0.3242	303.85	4.17
0.2	0.3124	308.11	4.86
0.2	0.3031	312.02	5.59
0.2	0.2934	316.8	5.75
0.2	0.2839	321.36	5.69
0.2	0.2752	325.88	6.16
0.2	0.2663	331.17	5.94
0.2	0.2566	336.21	5.28
0.2	0.2479	340.59	5.02
0.3	0.04381	280.04	4.18
0.3	0.04086	284.68	7.36
0.3	0.03803	289.39	7.44
0.3	0.03644	293.27	6.79
0.3	0.03525	297.42	6.29
0.3	0.03426	301.96	5.92
0.3	0.03359	305.95	3.62
0.3	0.03307	310.93	4.72
0.3	0.03266	315.37	5.18
0.3	0.03229	319.88	5.62
0.3	0.03196	325.01	6.14
0.3	0.03154	330.92	6.64
0.3	0.03115	335.69	6.95
0.3	0.03082	339.76	7.18

System: sodium 4-methylphenolate + sodium hydroxide + water; phases: Liquid, Crystal of intercomponent compound 1
Fixed: Pressure, kPa = 100
Property: Solid-liquid equilibrium temperature, K (Liquid); method: VISOBS
Solvent: Mass fraction of sodium hydroxide	Molality, mol/kg of sodium 4-methylphenolate	Solid-liquid equilibrium temperature, K	uncertainty
0	6.272	278.67	4.41
0	6.454	281.84	4.7
0	6.586	284.35	4.04
0	6.908	288.84	3.38
0	7.301	292.99	3.06
0	7.738	297.37	2.87
0	8.394	302.95	2.77
0	8.962	307.21	2.11
0	9.912	311.66	1.96
0.1001	3.069	277.07	1.72
0.1001	3.411	281.53	1.85
0.1001	3.839	286.94	2.02
0.1001	4.218	291.61	2.09
0.1001	4.601	295.95	1.91
0.1001	5.094	300.24	1.83
0.1001	5.629	304.66	1.92
0.1001	6.186	309.08	1.95
0.1001	6.783	313.23	1.94
0.1001	7.418	317.45	1.92
0.1001	8.075	321.17	1.93
0.2	0.3647	279.28	0.72
0.2	0.5379	283.62	0.76
0.2	0.7735	287.75	0.76
0.2	1.115	291.74	0.8
0.2	1.505	295.99	0.88
0.2	1.991	300.8	0.97
0.2	2.475	305.06	0.96
0.2	3.125	309.31	1.04
0.2	3.774	313.32	1.08
0.2	4.528	317.45	1.23
0.2	5.386	322.74	1.41
0.2	6.12	326.83	1.5
0.2503	0.04783	277.36	0.97
0.2503	0.05461	282.58	0.92
0.2503	0.06728	287.84	0.99
0.2503	0.08563	292.07	1.05
0.2503	0.1102	296.25	0.63
0.2503	0.2028	299.8	0.64
0.2503	0.3709	302.31	0.66
0.2503	0.7473	305.88	0.67
0.2503	1.315	310.51	0.72
0.2503	2.064	315.63	0.81
0.2503	2.957	320.9	0.89
0.2503	3.723	324.88	0.96
0.2503	4.547	328.73	1.05
0.3001	0.0127	280.16	0.77
0.3001	0.01511	285.38	0.78
0.3001	0.01808	289.57	0.74
0.3001	0.02275	294.5	0.87
0.3001	0.0279	299.23	0.99
0.3001	0.03472	302.94	0.91
0.3001	0.04163	305.21	1.05
0.3001	0.05146	307.82	0.93
0.3001	0.07146	310.23	0.65
0.3001	0.1427	312.26	0.63
0.3001	0.2861	314.58	0.63
0.3001	0.5499	317.4	0.65
0.3001	0.9272	320.77	0.67
0.3001	1.546	324.66	0.71
0.3001	2.279	328.49	0.74
0.3001	3.149	331.88	0.78
0.3001	3.641	333.64	0.81

System: sodium sulfite + ethanol + water; phases: Liquid, Crystal of intercomponent compound 1
Fixed: Pressure, kPa = 100
Property: Solid-liquid equilibrium temperature, K (Liquid); method: VISOBS
Solvent: Mass fraction of ethanol	Molality, mol/kg of sodium sulfite	Solid-liquid equilibrium temperature, K	uncertainty
0.0998	0.5513	278.73	0.91
0.0998	0.696	283.16	1.03
0.0998	0.8238	286.84	1.02
0.0998	1.013	291.09	1.07
0.0998	1.152	293.85	1.03
0.0998	1.303	296.28	1.08
0.0998	1.466	299.16	1.15
0.0998	1.656	302.14	1.2
0.0998	1.725	303.2	1.57
0.1999	0.2255	279.91	0.86
0.1999	0.3073	285.38	0.94
0.1999	0.3915	289.49	0.92
0.1999	0.4679	292.34	0.88
0.1999	0.5546	294.97	0.88
0.1999	0.672	298.18	0.93
0.1999	0.7836	300.87	0.9
0.1999	0.8942	302.84	0.89
0.2999	0.09005	279.1	0.77
0.2999	0.1349	284.89	0.91
0.2999	0.168	289.18	0.96
0.2999	0.2024	292.26	0.9
0.2999	0.2425	295.14	0.82
0.2999	0.3191	298.92	0.87
0.2999	0.3648	300.99	0.9
0.3998	0.01587	278.25	0.63
0.3998	0.0274	280.79	0.66
0.3998	0.04328	284.11	0.69
0.3998	0.05918	286.66	0.73
0.3998	0.08288	290.59	0.85
0.3998	0.1036	294.44	1.05
0.3998	0.1262	299.5	1.29

System: sodium sulfite + ethanol + water; phases: Liquid, Crystal
Fixed: Pressure, kPa = 100
Property: Solid-liquid equilibrium temperature, K (Liquid); method: VISOBS
Solvent: Mass fraction of ethanol	Molality, mol/kg of sodium sulfite	Solid-liquid equilibrium temperature, K	uncertainty
0.0998	1.682	307.18	6.5
0.0998	1.643	310.93	6.5
0.0998	1.587	316.52	6.27
0.0998	1.531	321.94	5.94
0.0998	1.481	326.75	5.8
0.0998	1.439	330.89	5.5
0.0998	1.405	333.95	5.14
0.0998	1.372	336.97	5.06
0.1999	0.8678	307.61	8.53
0.1999	0.8424	313.83	8.24
0.1999	0.8165	320.12	7.36
0.1999	0.7919	325.15	6.32
0.1999	0.7662	330.1	6.44
0.1999	0.7419	335.61	6.76
0.2999	0.3964	303.36	12.92
0.2999	0.389	309.38	11.26
0.2999	0.3796	315.54	9.9
0.2999	0.3689	322.45	9.11
0.2999	0.3593	328.02	8.72
0.2999	0.3517	332.87	8.26
0.2999	0.3434	337.33	7.41
0.3998	0.1391	304.32	20.3
0.3998	0.1386	309.78	15.92
0.3998	0.1378	313.64	13.61
0.3998	0.1355	319.66	15.63
0.3998	0.1339	323.23	13.36
0.3998	0.1302	330.49	10.7

System: sodium p-toluenesulfonate + water; phases: Liquid, Crystal of intercomponent compound 1
Fixed: Pressure, kPa = 100
Property: Solid-liquid equilibrium temperature, K (Liquid); method: VISOBS
Molality, mol/kg of sodium p-toluenesulfonate	Solid-liquid equilibrium temperature, K	uncertainty
1.346	277.13	0.77
1.715	281.54	0.8
2.133	285	0.78
2.62	288.48	0.73
3.103	290.45	0.66
3.354	291.49	0.74
3.477	292.17	0.88

System: sodium p-toluenesulfonate + water; phases: Liquid, Crystal
Fixed: Pressure, kPa = 100
Property: Solid-liquid equilibrium temperature, K (Liquid); method: VISOBS
Molality, mol/kg of sodium p-toluenesulfonate	Solid-liquid equilibrium temperature, K	uncertainty
3.55	293.8	3.85
3.735	298.78	3.82
3.938	303.67	3.69
4.158	308.63	3.83
4.407	314.39	4.08
4.656	320.1	4.27
4.891	325.42	4.25
5.124	330.21	4.19
5.35	334.76	4.11
5.607	339.45	4.11

System: sodium sulfite + water; phases: Liquid, Crystal of intercomponent compound 1
Fixed: Pressure, kPa = 100
Property: Solid-liquid equilibrium temperature, K (Liquid); method: VISOBS
Molality, mol/kg of sodium sulfite	Solid-liquid equilibrium temperature, K	uncertainty
1.264	277.89	1.1
1.483	282.3	1.2
1.707	286.28	1.23
1.995	291.01	1.39
2.261	295.47	1.35
2.589	299.46	1.36
2.889	303.28	1.53

System: sodium sulfite + water; phases: Liquid, Crystal
Fixed: Pressure, kPa = 100
Property: Solid-liquid equilibrium temperature, K (Liquid); method: VISOBS
Molality, mol/kg of sodium sulfite	Solid-liquid equilibrium temperature, K	uncertainty
2.956	304.8	4.33
2.908	306.55	4.97
2.88	308.09	6.33
2.79	313.02	6.34
2.715	317.46	6.12
2.638	321.57	6.3
2.583	325.38	7.5
2.527	329.61	7.72
2.471	333.92	7.83
2.402	339.49	7.77

System: sodium 4-methylphenolate + water; phases: Liquid, Crystal of intercomponent compound 1
Fixed: Pressure, kPa = 100
Property: Solid-liquid equilibrium temperature, K (Liquid); method: VISOBS
Molality, mol/kg of sodium 4-methylphenolate	Solid-liquid equilibrium temperature, K	uncertainty
6.272	278.67	4.41
6.454	281.84	4.7
6.586	284.35	4.04
6.908	288.84	3.38
7.301	292.99	3.06
7.738	297.37	2.87
8.394	302.95	2.77
8.962	307.21	2.11
9.912	311.66	1.96
