Measured thermophysical data. Speed of Sound Data in Pure Refrigerants R-116 and R-218 and Their Mixtures: Experiment and Modeling
Source: J. Chem. Eng. Data, 2016, 10.1021/acs.jced.6b00536
Compound 1: hexafluoroethane, C2F6, InChI=1S/C2F6/c3-1(4,5)2(6,7)8, purity 99.99%
Compound 2: octafluoropropane, C3F8, InChI=1S/C3F8/c4-1(5,2(6,7)8)3(9,10)11, purity 99.99%
Compound 3: nitrogen, N2, InChI=1S/N2/c1-2, purity 99.99%

System: hexafluoroethane; phases: Gas
Fixed: Frequency, MHz = 0.05
Property: Speed of sound, m/s (Gas); method: Single path-length method
Temperature, K	Pressure, kPa	Speed of sound, m/s	uncertainty
250.8	225.5	124.44	0.1
250.8	169.4	125.61	0.1
250.8	95	127.13	0.09
250.8	211.5	124.74	0.1
250.8	149.2	126.04	0.1
250.8	77.3	127.49	0.09
250.8	195.4	125.08	0.1
250.8	128.5	126.44	0.1
250.8	68.9	127.66	0.09
250.8	177.2	125.45	0.1
250.8	108.8	126.85	0.1
256.2	230.6	125.83	0.1
256.2	173.1	126.97	0.1
256.2	97	128.43	0.09
256.2	216.2	126.14	0.1
256.2	152.5	127.38	0.1
256.2	78.9	128.78	0.09
256.2	199.7	126.45	0.1
256.2	131.3	127.77	0.1
256.2	70.4	128.95	0.09
256.2	181.1	126.82	0.1
256.2	111.1	128.17	0.09
261.5	235.7	127.24	0.1
261.5	176.8	128.32	0.1
261.5	99	129.73	0.09
261.5	221	127.51	0.1
261.5	155.7	128.71	0.09
261.5	80.5	130.09	0.09
261.5	204	127.83	0.1
261.5	134.1	129.1	0.09
261.5	71.8	130.24	0.09
261.5	185	128.19	0.1
261.5	113.4	129.49	0.09
266.8	240.8	128.62	0.1
266.8	180.5	129.65	0.09
266.8	101.1	131.02	0.09
266.8	225.6	128.87	0.1
266.8	158.9	130.04	0.09
266.8	82.1	131.33	0.09
266.8	208.3	129.18	0.1
266.8	136.8	130.41	0.09
266.8	73.3	131.5	0.09
266.8	188.9	129.52	0.09
266.8	115.7	130.77	0.09
272.1	246.8	129.96	0.1
272.1	184.3	131.01	0.09
272.1	103.1	132.3	0.09
272.1	230.5	130.23	0.1
272.1	162.1	131.35	0.09
272.1	83.7	132.62	0.09
272.1	212.6	130.53	0.09
272.1	139.6	131.72	0.09
272.1	74.7	132.77	0.09
272.1	192.8	130.85	0.09
272.1	118	132.05	0.09
277.4	251.8	131.3	0.1
277.4	188	132.3	0.09
277.4	105.1	133.57	0.09
277.4	235.2	131.58	0.09
277.4	165.4	132.66	0.09
277.4	85.4	133.89	0.09
277.4	216.9	131.84	0.09
277.4	142.3	132.99	0.09
277.4	76.2	134.03	0.09
277.4	196.7	132.17	0.09
277.4	120.4	133.33	0.09
282.7	256.9	132.64	0.1
282.7	191.6	133.6	0.09
282.7	107.1	134.83	0.09
282.7	239.9	132.89	0.09
282.7	168.6	133.93	0.09
282.7	87	135.13	0.09
282.7	221.3	133.16	0.09
282.7	145.1	134.28	0.09
282.7	77.6	135.27	0.09
282.7	200.5	133.47	0.09
282.7	122.7	134.61	0.09
287.9	262	133.96	0.09
287.9	195.4	134.9	0.09
287.9	109.1	136.08	0.09
287.9	244.5	134.2	0.09
287.9	171.8	135.21	0.09
287.9	88.6	136.37	0.09
287.9	225.6	134.47	0.09
287.9	147.9	135.54	0.09
287.9	79.1	136.49	0.09
287.9	204.4	134.76	0.09
287.9	125	135.85	0.09
293.2	267	135.26	0.09
293.2	229.9	135.75	0.09
293.2	199	136.16	0.09
293.2	150.6	136.8	0.09
293.2	111.1	137.31	0.09
293.2	265.6	135.26	0.09
293.2	229.9	135.74	0.09
293.2	175.1	136.49	0.09
293.2	127.3	137.09	0.09
293.2	90.3	137.61	0.09
293.2	249.2	135.5	0.09
293.2	208.3	136.06	0.09
293.2	175	136.48	0.09
293.2	127.3	137.08	0.09
293.2	85.4	137.65	0.09
293.2	249.1	135.49	0.09
293.2	203.7	136.09	0.09
293.2	150.6	136.79	0.09
293.2	111.1	137.3	0.09
293.2	80.5	137.71	0.09
298.5	272	136.54	0.09
298.5	202.8	137.42	0.09
298.5	113.1	138.55	0.09
298.5	253.9	136.77	0.09
298.5	178.3	137.71	0.09
298.5	91.9	138.8	0.09
298.5	234.2	137.02	0.09
298.5	153.4	138.03	0.09
298.5	82	138.94	0.09
298.5	212.2	137.32	0.09
298.5	129.7	138.33	0.09
303.7	277.2	137.85	0.09
303.7	206.4	138.67	0.09
303.7	115.2	139.76	0.09
303.7	258.6	138.06	0.09
303.7	181.5	138.98	0.09
303.7	93.5	140.03	0.09
303.7	238.5	138.3	0.09
303.7	156.2	139.26	0.09
303.7	83.4	140.14	0.09
303.7	216.1	138.57	0.09
303.7	132	139.56	0.09
308.9	282.1	139.06	0.09
308.9	210.1	139.9	0.09
308.9	117.2	140.94	0.09
308.9	263.3	139.32	0.09
308.9	184.7	140.18	0.09
308.9	95.1	141.19	0.09
308.9	242.8	139.54	0.09
308.9	158.9	140.47	0.09
308.9	84.9	141.33	0.09
308.9	219.9	139.79	0.09
308.9	134.2	140.73	0.09
314.1	287.2	140.33	0.09
314.1	213.8	141.12	0.09
314.1	119.2	142.15	0.09
314.1	267.9	140.53	0.09
314.1	187.9	141.4	0.09
314.1	96.8	142.38	0.09
314.1	247.1	140.76	0.09
314.1	161.6	141.69	0.09
314.1	86.3	142.49	0.09
314.1	223.7	140.99	0.09
314.1	136.6	141.94	0.09
319.3	292.2	141.56	0.09
319.3	217.5	142.34	0.09
319.3	121.2	143.32	0.09
319.3	272.7	141.78	0.09
319.3	191.2	142.61	0.09
319.3	98.4	143.57	0.09
319.3	251.3	141.97	0.09
319.3	164.4	142.88	0.09
319.3	87.7	143.67	0.09
319.3	227.6	142.24	0.09
319.3	138.9	143.13	0.09
324.5	297.1	142.79	0.09
324.5	221.2	143.52	0.09
324.5	123.2	144.49	0.09
324.5	277.3	142.99	0.09
324.5	194.4	143.8	0.09
324.5	100	144.71	0.09
324.5	255.7	143.2	0.09
324.5	167.2	144.07	0.09
324.5	89.2	144.83	0.09
324.5	231.5	143.44	0.09
324.5	141.2	144.31	0.09

System: octafluoropropane; phases: Gas
Fixed: Frequency, MHz = 0.05
Property: Speed of sound, m/s (Gas); method: Single path-length method
Temperature, K	Pressure, kPa	Speed of sound, m/s	uncertainty
251.1	167.2	102.56	0.1
251.1	89.7	105.72	0.1
251.1	143.1	103.57	0.1
251.1	80.5	106.08	0.1
251.1	118.2	104.61	0.1
251.1	71.8	106.39	0.1
251.1	102	105.24	0.1
251.1	62.4	106.76	0.1
256.3	221.3	101.83	0.1
256.3	120.9	105.85	0.1
256.3	73.3	107.57	0.1
256.3	198.4	102.79	0.1
256.3	104.3	106.47	0.1
256.3	63.7	107.91	0.1
256.3	171.2	103.89	0.1
256.3	91.7	106.91	0.1
256.3	146.4	104.86	0.1
256.3	82.2	107.26	0.1
261.6	253.9	102.14	0.1
261.6	175.2	105.21	0.1
261.6	93.7	108.11	0.1
261.6	233.4	102.97	0.1
261.6	149.8	106.13	0.1
261.6	84	108.44	0.1
261.6	226.7	103.22	0.1
261.6	123.6	107.08	0.1
261.6	74.9	108.75	0.1
261.6	203.2	104.16	0.1
261.6	106.6	107.67	0.1
261.6	65.1	109.07	0.1
266.8	260	103.52	0.1
266.8	179.2	106.48	0.1
266.8	95.7	109.25	0.1
266.8	238.9	104.32	0.1
266.8	153	107.37	0.1
266.8	85.7	109.58	0.1
266.8	232.2	104.58	0.1
266.8	126.3	108.28	0.1
266.8	76.4	109.87	0.1
266.8	207.8	105.46	0.1
266.8	108.8	108.83	0.1
266.8	66.4	110.2	0.1
272.1	266.3	104.92	0.1
272.1	183.1	107.74	0.1
272.1	128.9	109.46	0.1
272.1	97.7	110.44	0.1
272.1	244.5	105.69	0.1
272.1	183.1	107.74	0.1
272.1	128.9	109.47	0.1
272.1	87.5	110.74	0.1
272.1	237.5	105.93	0.1
272.1	156.4	108.62	0.1
272.1	111.1	110.02	0.1
272.1	78	111.03	0.1
272.1	212.6	106.77	0.1
272.1	156.4	108.61	0.1
272.1	111.1	110.02	0.1
272.1	67.8	111.33	0.09
277.4	272.5	106.29	0.1
277.4	187.1	108.99	0.1
277.4	99.7	111.58	0.1
277.4	250.1	107.02	0.1
277.4	159.7	109.81	0.1
277.4	89.3	111.87	0.09
277.4	242.9	107.24	0.1
277.4	131.6	110.66	0.1
277.4	79.6	112.15	0.09
277.4	217.3	108.05	0.1
277.4	113.4	111.18	0.1
277.4	69.1	112.44	0.09
282.7	278.6	107.62	0.1
282.7	191.1	110.22	0.1
282.7	101.6	112.71	0.09
282.7	255.6	108.32	0.1
282.7	163	111.01	0.1
282.7	91	113	1
282.7	248.3	108.54	0.1
282.7	134.3	111.82	0.1
282.7	81.2	113.28	0.09
282.7	222	109.31	0.1
282.7	115.6	112.32	0.09
282.7	70.4	113.54	0.09
287.9	284.7	108.91	0.1
287.9	195	111.42	0.1
287.9	103.6	113.84	0.09
287.9	261.1	109.59	0.1
287.9	166.3	112.19	0.1
287.9	92.8	114.11	0.09
287.9	253.6	109.81	0.1
287.9	136.9	112.97	0.09
287.9	82.7	114.36	0.09
287.9	226.7	110.56	0.1
287.9	117.9	113.46	0.09
287.9	71.8	114.63	0.09
293.2	290.8	110.19	0.1
293.2	258.9	111.05	0.1
293.2	198.9	112.61	0.1
293.2	105.6	114.94	0.09
293.2	84.3	115.46	0.09
293.2	290.7	110.18	0.1
293.2	258.8	111.04	0.1
293.2	169.6	113.36	0.09
293.2	105.6	114.93	0.09
293.2	84.2	115.45	0.09
293.2	266.7	110.86	0.1
293.2	231.4	111.79	0.1
293.2	139.6	114.1	0.1
293.2	94.6	115.21	0.09
293.2	73.1	115.72	0.09
293.2	266.6	110.85	0.1
293.2	231.3	111.79	0.1
293.2	120.1	114.57	0.09
293.2	94.5	115.2	0.1
298.4	296.8	111.46	0.1
298.4	202.9	113.8	0.1
298.4	107.6	116.05	0.09
298.4	272.1	112.08	0.1
298.4	172.8	114.5	0.1
298.4	96.3	116.29	0.09
298.4	264.2	112.28	0.1
298.4	142.2	115.21	0.09
298.4	85.8	116.53	0.09
298.4	235.9	112.97	0.1
298.4	122.4	115.7	0.1
298.4	74.5	116.78	0.09
303.7	277.6	113.32	0.09
303.7	176.2	115.66	0.09
303.7	98.1	117.39	0.09
303.7	269.4	113.49	0.09
303.7	144.9	116.33	0.09
303.7	87.4	117.61	0.09
303.7	240.6	114.17	0.1
303.7	124.7	116.78	0.09
303.7	75.8	117.86	0.09
303.7	206.7	114.96	0.09
303.7	109.5	117.14	0.09
308.9	283	114.5	0.1
308.9	179.4	116.75	0.09
308.9	99.8	118.44	0.09
308.9	274.7	114.68	0.1
308.9	147.5	117.44	0.09
308.9	88.9	118.66	0.09
308.9	245.2	115.33	0.09
308.9	127	117.87	0.09
308.9	77.1	118.9	0.1
308.9	210.6	116.08	0.09
308.9	111.5	118.19	0.09
314.1	288.4	115.67	0.09
314.1	182.7	117.85	0.09
314.1	101.6	119.47	0.09
314.1	279.9	115.84	0.09
314.1	150.2	118.52	0.09
314.1	90.4	119.69	0.09
314.1	249.8	116.47	0.09
314.1	129.2	118.93	0.09
314.1	78.5	119.93	0.09
314.1	214.5	117.21	0.09
314.1	113.4	119.24	0.09
319.4	293.8	116.85	0.09
319.4	185.9	118.95	0.09
319.4	103.3	120.52	0.09
319.4	285.1	117.02	0.09
319.4	152.8	119.58	0.09
319.4	92	120.74	0.09
319.4	254.4	117.62	0.09
319.4	131.4	119.98	0.09
319.4	79.8	120.96	0.09
319.4	218.4	118.33	0.09
319.4	115.4	120.29	0.09
324.6	299.2	117.99	0.09
324.6	189.2	120.02	0.09
324.6	105.1	121.56	0.09
324.6	290.3	118.16	0.09
324.6	155.4	120.64	0.09
324.6	93.5	121.75	0.09
324.6	259	118.74	0.09
324.6	133.7	121.03	0.09
324.6	81.2	121.98	0.09
324.6	222.3	119.43	0.09
324.6	117.4	121.32	0.09

System: hexafluoroethane + octafluoropropane; phases: Gas
Fixed: Mole fraction of hexafluoroethane = 0.056
Fixed: Frequency, MHz = 0.05
Property: Speed of sound, m/s (Gas); method: Single path-length method
Temperature, K	Pressure, kPa	Speed of sound, m/s	uncertainty
252.6	201.7	102.77	0.1
252.6	102.5	106.66	0.1
252.6	173.7	103.91	0.1
252.6	87.5	107.26	0.1
252.6	143.2	105.14	0.1
252.6	119.8	106.02	0.1
257.7	234.4	102.97	0.1
257.7	122.1	107.22	0.1
257.7	206.4	104.1	0.1
257.7	104.4	107.85	0.1
257.7	177.3	105.18	0.1
257.7	88.9	108.41	0.1
257.7	146.2	106.37	0.1
262.8	276.7	102.88	0.1
262.8	148.9	107.58	0.1
262.8	239.7	104.33	0.1
262.8	124.5	108.41	0.1
262.8	210.8	105.41	0.1
262.8	106.6	109.02	0.1
262.8	180.9	106.46	0.1
262.8	90.4	109.57	0.1
267.9	283.1	104.27	0.1
267.9	151.8	108.79	0.1
267.9	245.1	105.66	0.1
267.9	126.8	109.58	0.1
267.9	215.2	106.69	0.1
267.9	108.6	110.16	0.1
267.9	184.5	107.7	0.1
267.9	91.9	110.71	0.1
273.1	290.4	105.61	0.1
273.1	154.8	109.99	0.1
273.1	249.8	106.97	0.1
273.1	129.5	110.76	0.1
273.1	220.5	107.96	0.1
273.1	110.7	111.31	0.1
273.1	188.5	108.94	0.1
273.1	93.6	111.83	0.1
278.2	296.7	106.96	0.1
278.2	157.6	111.15	0.1
278.2	255	108.24	0.1
278.2	131.9	111.89	0.1
278.2	224.8	109.21	0.1
278.2	112.5	112.44	0.1
278.2	192.1	110.13	0.1
278.2	95.1	112.94	0.1
283.2	303	108.25	0.1
283.2	160.5	112.31	0.1
283.2	260.1	109.49	0.1
283.2	134	113.01	0.1
283.2	229.1	110.42	0.1
283.2	114.4	113.54	0.09
283.2	195.7	111.31	0.1
283.2	96.7	114.02	0.09
288.3	309.2	109.53	0.1
288.3	163.5	113.43	0.1
288.3	265.3	110.72	0.1
288.3	136.2	114.12	0.09
288.3	233.4	111.61	0.1
288.3	116.5	114.63	0.09
288.3	199.4	112.48	0.1
288.3	98.2	115.1	0.09
293.3	315.4	110.77	0.1
293.3	203.4	113.63	0.09
293.3	138.6	115.22	0.09
293.3	100.1	116.16	0.09
293.3	271.3	111.92	0.09
293.3	203	113.61	0.1
293.3	138.4	115.2	0.09
293.3	270.3	111.92	0.09
293.3	166.5	114.55	0.09
293.3	118.5	115.72	0.09
293.3	237.8	112.79	0.1
293.3	166.2	114.54	0.09
293.3	118.3	115.7	0.09
298.4	321.7	112.02	0.1
298.4	169.3	115.65	0.09
298.4	275.6	113.13	0.1
298.4	140.7	116.3	0.09
298.4	242.3	113.97	0.1
298.4	120.3	116.79	0.09
298.4	206.9	114.77	0.09
298.4	101.4	117.22	0.09
303.4	327.8	113.24	0.1
303.4	172.2	116.75	0.09
303.4	280.7	114.31	0.1
303.4	143.1	117.38	0.09
303.4	246.6	115.1	0.09
303.4	122.2	117.85	0.09
303.4	210.6	115.9	0.09
303.4	102.9	118.27	0.09
308.5	334	114.43	0.1
308.5	175.2	117.83	0.09
308.5	285.8	115.47	0.09
308.5	145.4	118.44	0.09
308.5	251	116.24	0.09
308.5	124.1	118.88	0.09
308.5	214.1	117	0.09
308.5	104.4	119.31	0.09
313.5	340	115.6	0.1
313.5	177.9	118.9	0.09
313.5	290.9	116.61	0.09
313.5	147.7	119.48	0.09
313.5	255.2	117.36	0.09
313.5	126	119.93	0.09
313.5	217.6	118.09	0.09
313.5	105.9	120.35	0.09
318.5	346.1	116.75	0.1
318.5	180.8	119.96	0.09
318.5	296	117.74	0.09
318.5	150.1	120.53	0.09
318.5	259.7	118.47	0.09
318.5	127.9	120.96	0.09
318.5	221.2	119.17	0.09
318.5	107.5	121.35	0.09
323.5	352.2	117.91	0.09
323.5	183.8	121	0.09
323.5	301.1	118.85	0.09
323.5	152.5	121.55	0.09
323.5	264.1	119.56	0.09
323.5	130	121.97	0.09
323.5	225	120.25	0.09
323.5	109.2	122.36	0.09

System: octafluoropropane + nitrogen; phases: Gas
Fixed: Mole fraction of nitrogen = 0.058
Fixed: Frequency, MHz = 0.05
Property: Speed of sound, m/s (Gas); method: Single path-length method
Temperature, K	Pressure, kPa	Speed of sound, m/s	uncertainty
252.62	0.18625	105.38	0.09
252.62	0.15252	106.62	0.1
252.62	0.0858	109	0.13
252.62	0.18611	105.38	0.09
252.62	0.13704	107.18	0.11
252.62	0.17731	105.75	0.09
252.62	0.12033	107.8	0.11
252.62	0.16688	106.06	0.1
252.62	0.10388	108.4	0.12
257.71	0.25475	104.37	0.1
257.71	0.19002	106.68	0.09
257.71	0.15578	107.86	0.09
257.71	0.08757	110.16	0.09
257.71	0.25415	104.28	0.1
257.71	0.18983	106.68	0.09
257.71	0.1398	108.4	0.09
257.71	0.23964	104.86	0.11
257.71	0.18099	107.04	0.1
257.71	0.1227	109	0.09
257.71	0.22217	105.46	0.09
257.71	0.17021	107.33	0.09
257.71	0.10563	109.59	0.09
262.83	0.28943	104.6	0.1
262.83	0.22735	106.8	0.1
262.83	0.17375	108.6	0.1
262.83	0.10746	110.77	0.1
262.83	0.27714	105.01	0.11
262.83	0.19417	107.97	0.1
262.83	0.15887	109.12	0.1
262.83	0.08917	111.32	0.1
262.83	0.26054	105.64	0.1
262.83	0.19372	107.97	0.1
262.83	0.14295	109.63	0.1
262.83	0.24493	106.21	0.1
262.83	0.18444	108.31	0.1
262.83	0.125	110.2	0.1
267.94	0.29662	105.98	0.09
267.94	0.23241	108.11	0.1
267.94	0.17728	109.83	0.1
267.94	0.10955	111.93	0.1
267.94	0.28359	106.41	0.1
267.94	0.19829	109.23	0.1
267.94	0.1619	110.33	0.1
267.94	0.09058	112.46	0.1
267.94	0.26632	106.99	0.1
267.94	0.19782	109.24	0.1
267.94	0.14618	110.83	0.1
267.94	0.25027	107.55	0.1
267.94	0.18833	109.56	0.1
267.94	0.12733	111.39	0.1
273.07	0.30388	107.38	0.1
273.07	0.23808	109.41	0.1
273.07	0.18194	111.06	0.1
273.07	0.1111	113.09	0.1
273.07	0.29177	107.72	0.1
273.07	0.20232	110.49	0.1
273.07	0.16553	111.55	0.1
273.07	0.09281	113.6	0.1
273.07	0.27258	108.31	0.1
273.07	0.20187	110.5	0.1
273.07	0.14896	112.03	0.1
273.07	0.25551	108.88	0.1
273.07	0.19231	110.81	0.1
273.07	0.12991	112.57	0.1
278.15	0.31193	108.65	0.1
278.15	0.24278	110.66	0.1
278.15	0.1856	112.27	0.1
278.15	0.11315	114.22	0.1
278.15	0.2983	109.03	0.1
278.15	0.20618	111.72	0.1
278.15	0.16865	112.73	0.1
278.15	0.0943	114.71	0.1
278.15	0.27831	109.63	0.1
278.15	0.20568	111.72	0.1
278.15	0.15153	113.2	0.1
278.15	0.26085	110.16	0.1
278.15	0.1961	112.03	0.1
278.15	0.13212	113.71	0.1
283.2	0.31844	109.97	0.14
283.2	0.24756	111.9	0.1
283.2	0.18921	113.45	0.1
283.2	0.11521	115.33	0.1
283.2	0.30467	110.33	0.1
283.2	0.21019	112.92	0.1
283.2	0.17183	113.88	0.1
283.2	0.09562	115.81	0.1
283.2	0.28391	110.89	0.1
283.2	0.20933	112.93	0.1
283.2	0.1548	114.34	0.1
283.2	0.2662	111.41	0.1
283.2	0.19973	113.19	0.1
283.2	0.13438	114.84	0.1
288.26	0.32491	111.24	0.09
288.26	0.25252	113.14	0.1
288.26	0.193	114.61	0.1
288.26	0.11701	116.43	0.1
288.26	0.31109	111.61	0.1
288.26	0.21422	114.08	0.1
288.26	0.17502	115.05	0.1
288.26	0.09724	116.9	0.1
288.26	0.28963	112.16	0.1
288.26	0.21333	114.1	0.1
288.26	0.1569	115.48	0.1
288.26	0.27156	112.65	0.1
288.26	0.2034	114.38	0.1
288.26	0.13666	115.96	0.1
293.32	0.33146	112.52	0.09
293.32	0.27712	113.88	0.1
293.32	0.21799	115.26	0.1
293.32	0.31752	112.86	0.1
293.32	0.27659	113.86	0.1
293.32	0.21741	115.26	0.1
293.32	0.29536	113.39	0.1
293.32	0.25732	114.33	0.1
293.32	0.20699	115.54	0.1
293.32	0.29464	113.41	0.1
293.32	0.21852	115.27	0.1
293.32	0.19668	115.77	0.1
293.32	0.19578	115.78	0.1
293.32	0.15963	116.59	0.09
293.32	0.11901	117.53	0.09
293.32	0.17821	116.19	0.1
293.32	0.13929	117.06	0.09
293.32	0.09882	117.97	0.09
293.32	0.17788	116.19	0.1
293.32	0.13897	117.08	0.09
293.32	0.15994	116.61	0.1
293.32	0.11957	117.53	0.09
298.38	0.33799	113.78	0.09
298.38	0.26198	115.52	0.09
298.38	0.20015	116.91	0.09
298.38	0.121	118.61	0.09
298.38	0.32388	114.1	0.09
298.38	0.22199	116.42	0.09
298.38	0.18137	117.31	0.09
298.38	0.10046	119.04	0.09
298.38	0.3011	114.61	0.09
298.38	0.22135	116.42	0.09
298.38	0.16274	117.7	0.09
298.38	0.28199	115.07	0.09
298.38	0.21062	116.69	0.09
298.38	0.14132	118.17	0.09
303.42	0.34433	114.98	0.09
303.42	0.26681	116.7	0.09
303.42	0.20355	118.03	0.09
303.42	0.12305	119.68	0.09
303.42	0.3302	115.32	0.09
303.42	0.22585	117.55	0.09
303.42	0.18448	118.41	0.09
303.42	0.10209	120.1	0.09
303.42	0.3067	115.81	0.09
303.42	0.2253	117.56	0.09
303.42	0.16558	118.81	0.09
303.42	0.28726	116.26	0.09
303.42	0.2142	117.81	0.09
303.42	0.1437	119.25	0.09
308.47	0.35092	116.21	0.09
308.47	0.27165	117.84	0.09
308.47	0.20701	119.14	0.09
308.47	0.12508	120.73	0.09
308.47	0.33653	116.51	0.09
308.47	0.22968	118.68	0.09
308.47	0.18766	119.52	0.09
308.47	0.10378	121.14	0.09
308.47	0.31237	116.99	0.09
308.47	0.22929	118.7	0.09
308.47	0.16828	119.89	0.09
308.47	0.29241	117.42	0.09
308.47	0.21778	118.93	0.09
308.47	0.14599	120.32	0.09
313.51	0.35739	117.4	0.09
313.51	0.27632	118.97	0.09
313.51	0.21048	120.24	0.09
313.51	0.12711	121.79	0.09
313.51	0.34276	117.7	0.09
313.51	0.2338	119.8	0.09
313.51	0.19072	120.6	0.09
313.51	0.10525	122.18	0.09
313.51	0.318	118.15	0.09
313.51	0.23314	119.78	0.09
313.51	0.17097	120.97	0.09
313.51	0.29754	118.58	0.09
313.51	0.22138	120.03	0.09
313.51	0.14829	121.39	0.09
318.52	0.36384	118.57	0.1
318.52	0.28116	120.11	0.09
318.52	0.21394	121.32	0.09
318.52	0.12908	122.82	0.09
318.52	0.34896	118.86	0.09
318.52	0.23767	120.89	0.09
318.52	0.19388	121.67	0.09
318.52	0.10684	123.2	0.09
318.52	0.32352	119.3	0.09
318.52	0.2374	120.89	0.09
318.52	0.17372	122.03	0.09
318.52	0.30269	119.71	0.09
318.52	0.22505	121.12	0.09
318.52	0.15062	122.42	0.09
323.53	0.37041	119.72	0.09
323.53	0.2859	121.21	0.1
323.53	0.21746	122.4	0.12
323.53	0.13116	123.85	0.14
323.53	0.35511	120.01	0.1
323.53	0.2416	121.98	0.11
323.53	0.197	122.74	0.12
323.53	0.10854	124.22	0.14
323.53	0.32927	120.45	0.1
323.53	0.24131	121.97	0.11
323.53	0.17663	123.09	0.13
323.53	0.30798	120.83	0.1
323.53	0.22883	122.2	0.12
323.53	0.1531	123.46	0.13
