Measured thermophysical data. Solubility Determination and Thermodynamic Modeling of Glutaric Anhydride in Diverse Solvent Systems Consisting of Acetic Acid, Ethanoic Anhydride, and Tetrachloromethane from T = (278.45 to 324.45) K
Source: J. Chem. Eng. Data, 2018, 10.1021/acs.jced.8b00496
Compound 1: pentanedioic anhydride, C5H6O3, InChI=1S/C5H6O3/c6-4-2-1-3-5(7)8-4/h1-3H2, purity 99%
Compound 2: 1,5-pentanedioic acid, C5H8O4, InChI=1S/C5H8O4/c6-4(7)2-1-3-5(8)9/h1-3H2,(H,6,7)(H,8,9), purity 99%
Compound 3: acetic acid, C2H4O2, InChI=1S/C2H4O2/c1-2(3)4/h1H3,(H,3,4), purity 99.8%
Compound 4: ethanoic anhydride, C4H6O3, InChI=1S/C4H6O3/c1-3(5)7-4(2)6/h1-2H3, purity 99.5%
Compound 5: tetrachloromethane, CCl4, InChI=1S/CCl4/c2-1(3,4)5, purity 99.5%
Compound 6: water, H2O, InChI=1S/H2O/h1H2, purity 99.9%

System: pentanedioic anhydride; phases: Crystal, Liquid, Air at 1 atmosphere
Property: Triple point temperature, K (Crystal); method: DSC
Triple point temperature, K	uncertainty
329.2	1.16

System: pentanedioic anhydride; phases: Crystal, Liquid, Air at 1 atmosphere
Property: Molar enthalpy of transition or fusion, kJ/mol (Crystal); method: DSC
Molar enthalpy of transition or fusion, kJ/mol	uncertainty
12.46	0.71

System: 1,5-pentanedioic acid + water; phases: Liquid, Crystal
Fixed: Pressure, kPa = 100
Property: Solid-liquid equilibrium temperature, K (Liquid); method: VISOBS
Mole fraction of 1,5-pentanedioic acid	Solid-liquid equilibrium temperature, K	uncertainty
0.1081	287.94	7.18
0.1282	291.45	9.06
0.1396	293.84	11.55
0.1613	298.64	10.6
0.2083	305.95	8.54
0.2185	307.05	12.4
0.2397	310.55	13.44
0.2612	313.35	12.74
0.281	315.85	14.82
0.2918	317.65	18.48

System: pentanedioic anhydride + tetrachloromethane; phases: Liquid, Crystal
Fixed: Pressure, kPa = 100
Property: Solid-liquid equilibrium temperature, K (Liquid); method: VISOBS
Mole fraction of pentanedioic anhydride	Solid-liquid equilibrium temperature, K	uncertainty
0.00064	282.25	8.65
0.00073	285.45	4.49
0.00097	288.05	3.03
0.00141	291.15	3.72
0.00182	293.95	3.95
0.00225	295.95	6.27
0.00268	300.25	7.67
0.00321	303.25	5.97
0.0039	306.25	5.87
0.00487	309.85	7.93
0.00544	312.95	11.87
0.00586	315.55	15.65
0.00619	318.25	21.5
0.00639	320.45	26.71

System: pentanedioic anhydride + acetic acid + tetrachloromethane; phases: Liquid, Crystal
Fixed: Pressure, kPa = 100
Property: Solid-liquid equilibrium temperature, K (Liquid); method: VISOBS
Solvent: Mass fraction of acetic acid	Mole fraction of pentanedioic anhydride	Solid-liquid equilibrium temperature, K	uncertainty
0	0.00064	282.25	2.08
0	0.00073	285.45	2.11
0	0.00097	288.05	2.64
0	0.00141	291.15	4.24
0	0.00182	293.95	4.98
0	0.00225	295.95	6.29
0	0.00268	300.25	5.64
0	0.00321	303.25	6.62
0	0.0039	306.25	8.02
0	0.00487	309.85	9.97
0	0.00544	312.95	11.52
0	0.00586	315.55	10.57
0	0.00619	318.25	14.97
0	0.00639	320.45	16.93
0.0224	0.00227	283.41	4.93
0.0224	0.00323	289.9	5.75
0.0224	0.00394	292.95	7.3
0.0224	0.0045	296.05	7.81
0.0224	0.00552	299.03	7.01
0.0224	0.00639	301.65	5.9
0.0224	0.00753	304.8	6.95
0.0224	0.00874	307.05	5.35
0.0224	0.012	310.84	5.27
0.0224	0.0148	314.05	6.45
0.0454	0.00428	281.8	7.02
0.0454	0.00463	284.53	6.21
0.0454	0.00618	290	8.65
0.0454	0.0079	292.65	6.77
0.0454	0.00801	296.15	6.41
0.0454	0.0106	298.95	5.16
0.0454	0.0136	301.85	8.94
0.0454	0.0141	304.4	9.05
0.0454	0.0157	306.85	2.99
0.0454	0.0207	308.85	2.08
0.0454	0.0212	316.85	14.53
0.1127	0.012	282.75	6.46
0.1127	0.0144	286.15	6.61
0.1127	0.0168	288.55	5.87
0.1127	0.0194	290.75	6.7
0.1127	0.0222	293.45	7.12
0.1127	0.0252	295.65	6.58
0.1127	0.0286	297.85	2.74
0.1127	0.0339	300.05	4.96
0.1127	0.0395	302.05	5.07
0.1127	0.0475	304.65	8.64
0.1127	0.0556	309.75	9.31
0.1127	0.072	315.75	10.01
0.1962	0.0348	282.25	4.21
0.1962	0.0455	285.65	14.18
0.1962	0.049	288.05	7.28
0.1962	0.0591	290.75	4.24
0.1962	0.0674	293.15	13.99
0.1962	0.077	295.35	0.37
0.1962	0.0962	297.55	5.05
0.1962	0.123	301.65	6.91
0.1962	0.153	305.95	8.24
0.1962	0.183	310.15	8.99
0.1962	0.23	315.95	10.79
0.3835	0.0608	280.95	1.56
0.3835	0.0718	282.85	9.53
0.3835	0.0795	283.85	3.01
0.3835	0.108	286.85	3.28
0.3835	0.118	288.95	10.34
0.3835	0.139	291.45	9.31
0.3835	0.156	292.95	6.78
0.3835	0.175	294.65	4.68
0.3835	0.199	296.55	1.43
0.3835	0.221	297.95	1.1
0.3835	0.247	299.45	0.5
0.3835	0.262	300.75	6.12
0.3835	0.315	303.75	6.78
0.6044	0.0953	283.75	4.58
0.6044	0.137	288.35	5.68
0.6044	0.166	291.45	5.91
0.6044	0.201	294.35	5.92
0.6044	0.245	297.45	6.19
0.6044	0.296	300.65	6.06
0.6044	0.351	303.45	6.67
0.6044	0.412	306.45	6.96
0.6044	0.49	309.65	7.64
0.7568	0.103	280.95	3.79
0.7568	0.13	286.05	5.58
0.7568	0.162	287.85	4.13
0.7568	0.198	290.75	5.31
0.7568	0.246	294.25	5.64
0.7568	0.302	297.05	6.05
0.7568	0.362	300.25	6.5
0.7568	0.425	302.95	7.03
0.7568	0.484	305.65	6.71
0.7568	0.552	307.35	4.26
1	0.0783	279.65	4.21
1	0.0967	282.25	4.41
1	0.119	284.55	3.89
1	0.152	287.05	4.51
1	0.183	289.55	4.77
1	0.223	291.95	4.57
1	0.27	294.25	4.82
1	0.323	296.65	5.68
1	0.376	299.15	6.96
1	0.436	302.15	6.42
1	0.502	304.05	6.38
1	0.557	306.25	6.74

System: pentanedioic anhydride + acetic acid + tetrachloromethane; phases: Liquid, Crystal
Fixed: Pressure, kPa = 100
Property: Mole fraction of pentanedioic anhydride (Liquid); method: Chromatography
Solvent: Mass fraction of acetic acid	Temperature, K	Mole fraction of pentanedioic anhydride	uncertainty
0	282.25	0.00064	0.000243
0	285.45	0.00073	0.000277
0	288.05	0.00097	0.000369
0	291.15	0.00141	0.00054
0	293.95	0.00182	0.00069
0	295.95	0.00225	0.00086
0	300.25	0.00268	0.00102
0	303.25	0.00321	0.00122
0	306.25	0.0039	0.00148
0	309.85	0.00487	0.00185
0	312.95	0.00544	0.00207
0	315.55	0.00586	0.00223
0	318.25	0.00619	0.00235
0	320.45	0.00639	0.00243
0.0224	283.41	0.00227	0.00086
0.0224	289.9	0.00323	0.00123
0.0224	292.95	0.00394	0.0015
0.0224	296.05	0.0045	0.00171
0.0224	299.03	0.00552	0.0021
0.0224	301.65	0.00639	0.00243
0.0224	304.8	0.00753	0.00286
0.0224	307.05	0.00874	0.00332
0.0224	310.84	0.012	0.0046
0.0224	314.05	0.0148	0.0056
0.0454	281.8	0.00428	0.00163
0.0454	284.53	0.00463	0.00176
0.0454	290	0.00618	0.00235
0.0454	292.65	0.0079	0.003
0.0454	296.15	0.00801	0.00304
0.0454	298.95	0.0106	0.004
0.0454	301.85	0.0136	0.0052
0.0454	304.4	0.0141	0.0054
0.0454	306.85	0.0157	0.006
0.0454	308.85	0.0207	0.0079
0.0454	316.85	0.0212	0.0081
0.1127	282.75	0.012	0.0046
0.1127	286.15	0.0144	0.0055
0.1127	288.55	0.0168	0.0064
0.1127	290.75	0.0194	0.0074
0.1127	293.45	0.0222	0.0084
0.1127	295.65	0.0252	0.0096
0.1127	297.85	0.0286	0.0109
0.1127	300.05	0.0339	0.0129
0.1127	302.05	0.0395	0.015
0.1127	304.65	0.0475	0.0181
0.1127	309.75	0.0556	0.0211
0.1127	315.75	0.072	0.0274
0.1962	282.25	0.0348	0.0132
0.1962	285.65	0.0455	0.0173
0.1962	288.05	0.049	0.0186
0.1962	290.75	0.0591	0.0225
0.1962	293.15	0.0674	0.0256
0.1962	295.35	0.077	0.0293
0.1962	297.55	0.0962	0.0366
0.1962	301.65	0.123	0.047
0.1962	305.95	0.153	0.058
0.1962	310.15	0.183	0.07
0.1962	315.95	0.23	0.087
0.3835	280.95	0.0608	0.0231
0.3835	282.85	0.0718	0.0273
0.3835	283.85	0.0795	0.0302
0.3835	286.85	0.108	0.041
0.3835	288.95	0.118	0.045
0.3835	291.45	0.139	0.053
0.3835	292.95	0.156	0.059
0.3835	294.65	0.175	0.067
0.3835	296.55	0.199	0.076
0.3835	297.95	0.221	0.084
0.3835	299.45	0.247	0.094
0.3835	300.75	0.262	0.1
0.3835	303.75	0.315	0.12
0.6044	283.75	0.0953	0.0362
0.6044	288.35	0.137	0.052
0.6044	291.45	0.166	0.063
0.6044	294.35	0.201	0.076
0.6044	297.45	0.245	0.093
0.6044	300.65	0.296	0.112
0.6044	303.45	0.351	0.133
0.6044	306.45	0.412	0.157
0.6044	309.65	0.49	0.186
0.7568	280.95	0.103	0.039
0.7568	286.05	0.13	0.049
0.7568	287.85	0.162	0.062
0.7568	290.75	0.198	0.075
0.7568	294.25	0.246	0.093
0.7568	297.05	0.302	0.115
0.7568	300.25	0.362	0.138
0.7568	302.95	0.425	0.162
0.7568	305.65	0.484	0.184
0.7568	307.35	0.552	0.17
1	279.65	0.0783	0.0298
1	282.25	0.0967	0.0368
1	284.55	0.119	0.045
1	287.05	0.152	0.058
1	289.55	0.183	0.07
1	291.95	0.223	0.085
1	294.25	0.27	0.103
1	296.65	0.323	0.123
1	299.15	0.376	0.143
1	302.15	0.436	0.166
1	304.05	0.502	0.189
1	306.25	0.557	0.168

System: pentanedioic anhydride + acetic acid; phases: Liquid, Crystal
Fixed: Pressure, kPa = 100
Property: Solid-liquid equilibrium temperature, K (Liquid); method: VISOBS
Mole fraction of pentanedioic anhydride	Solid-liquid equilibrium temperature, K	uncertainty
0.0783	279.65	4.21
0.0967	282.25	4.41
0.119	284.55	3.89
0.152	287.05	4.51
0.183	289.55	4.77
0.223	291.95	4.57
0.27	294.25	4.82
0.323	296.65	5.68
0.376	299.15	6.96
0.436	302.15	6.42
0.502	304.05	6.38
0.557	306.25	6.74

System: pentanedioic anhydride + ethanoic anhydride + tetrachloromethane; phases: Liquid, Crystal
Fixed: Pressure, kPa = 100
Property: Solid-liquid equilibrium temperature, K (Liquid); method: VISOBS
Solvent: Mass fraction of ethanoic anhydride	Mole fraction of pentanedioic anhydride	Solid-liquid equilibrium temperature, K	uncertainty
0	0.00064	282.25	2.08
0	0.00073	285.45	2.11
0	0.00097	288.05	2.64
0	0.00141	291.15	4.24
0	0.00182	293.95	4.98
0	0.00225	295.95	6.29
0	0.00268	300.25	5.64
0	0.00321	303.25	6.62
0	0.0039	306.25	8.02
0	0.00487	309.85	9.97
0	0.00544	312.95	11.52
0	0.00586	315.55	10.57
0	0.00619	318.25	12.33
0	0.00639	320.45	16.93
0.0236	0.004	282.85	4.62
0.0236	0.0059	289.15	8.38
0.0236	0.0073	293.95	5.95
0.0236	0.0089	298.15	1.47
0.0236	0.0092	299.95	8.76
0.0236	0.0108	302.65	9.67
0.0236	0.012	305.45	8.73
0.0236	0.0134	307.65	7.08
0.0236	0.0155	310.35	7.9
0.0236	0.0178	313.55	9.41
0.0504	0.006	278.75	4.72
0.0504	0.0075	281.85	6.15
0.0504	0.012	291.65	9.79
0.0504	0.0139	295.55	9.38
0.0504	0.0153	297.45	6.04
0.0504	0.0175	299.35	7.26
0.0504	0.0197	302.25	9.65
0.0504	0.022	305.15	11.47
0.1007	0.0233	279.95	11.39
0.1007	0.0236	283.85	5.59
0.1007	0.0289	287.15	11.51
0.1007	0.0343	295.05	13.06
0.1007	0.0524	311.45	17.93
0.1007	0.0611	319.15	36.49
0.1007	0.0632	322.45	37.93
0.1007	0.0642	324.05	39.03
0.1985	0.116	283.95	20.84
0.1985	0.127	289.15	15.73
0.1985	0.16	298.75	18.4
0.1985	0.182	305.85	22.48
0.1985	0.208	314.35	22.13
0.1985	0.213	315.75	16.72
0.1985	0.225	317.95	21.28
0.1985	0.238	321.95	27.83
0.401	0.096	283.65	1.83
0.401	0.112	287.55	1.9
0.401	0.125	290.35	6.22
0.401	0.154	293.95	6.62
0.401	0.182	297.15	7.05
0.401	0.213	299.95	5.75
0.401	0.252	301.95	3.75
0.401	0.291	304.35	6.84
0.401	0.341	307.45	7.18
0.401	0.399	310.35	6.58
0.401	0.474	313.25	6.97
0.6051	0.153	283.45	7.29
0.6051	0.188	289.05	9.9
0.6051	0.221	293.75	10.48
0.6051	0.255	297.55	9.5
0.6051	0.301	301.55	8.74
0.6051	0.356	305.25	8.85
0.6051	0.42	309.25	8.44
0.6051	0.508	313.35	8.71
0.7979	0.17	281.95	5.28
0.7979	0.21	285.65	9.77
0.7979	0.245	290.95	12.64
0.7979	0.273	294.15	10.59
0.7979	0.309	297.15	11.5
0.7979	0.348	300.95	10.72
0.7979	0.398	304.25	9.68
0.7979	0.448	307.35	9.22
0.7979	0.503	309.95	9.31
0.7979	0.567	313.15	8.23
1	0.153	278.45	4.48
1	0.205	282.45	5.48
1	0.231	283.85	4.88
1	0.259	285.45	5.5
1	0.299	287.65	6.99
1	0.342	290.55	7.88
1	0.388	293.05	9.95
1	0.437	296.95	10.38
1	0.502	300.25	10.73
1	0.562	304.05	10.54

System: pentanedioic anhydride + ethanoic anhydride + tetrachloromethane; phases: Liquid, Crystal
Fixed: Pressure, kPa = 100
Property: Mole fraction of pentanedioic anhydride (Liquid); method: Chromatography
Solvent: Mass fraction of ethanoic anhydride	Temperature, K	Mole fraction of pentanedioic anhydride	uncertainty
0	282.25	0.00064	0.000243
0	285.45	0.00073	0.000277
0	288.05	0.00097	0.000369
0	291.15	0.00141	0.00054
0	293.95	0.00182	0.00069
0	295.95	0.00225	0.00086
0	300.25	0.00268	0.00102
0	303.25	0.00321	0.00122
0	306.25	0.0039	0.00148
0	309.85	0.00487	0.00185
0	312.95	0.00544	0.00207
0	315.55	0.00586	0.00223
0	318.25	0.00619	0.00235
0	320.45	0.00639	0.00243
0.0236	282.85	0.004	0.00153
0.0236	289.15	0.0059	0.00224
0.0236	293.95	0.0073	0.00277
0.0236	298.15	0.0089	0.00338
0.0236	299.95	0.0092	0.0035
0.0236	302.65	0.0108	0.0041
0.0236	305.45	0.012	0.00456
0.0236	307.65	0.0134	0.00509
0.0236	310.35	0.0155	0.00589
0.0236	313.55	0.0178	0.00677
0.0504	278.75	0.006	0.00228
0.0504	281.85	0.0075	0.00285
0.0504	291.65	0.012	0.0046
0.0504	295.55	0.0139	0.0053
0.0504	297.45	0.0153	0.0058
0.0504	299.35	0.0175	0.0067
0.0504	302.25	0.0197	0.0075
0.0504	305.15	0.022	0.0084
0.1007	279.95	0.0233	0.0089
0.1007	283.85	0.0236	0.009
0.1007	287.15	0.0289	0.011
0.1007	295.05	0.0343	0.013
0.1007	311.45	0.0524	0.0199
0.1007	319.15	0.0611	0.0232
0.1007	322.45	0.0632	0.024
0.1007	324.05	0.0642	0.0244
0.1985	283.95	0.116	0.044
0.1985	289.15	0.127	0.048
0.1985	298.75	0.16	0.061
0.1985	305.85	0.182	0.069
0.1985	314.35	0.208	0.079
0.1985	315.75	0.213	0.081
0.1985	317.95	0.225	0.086
0.1985	321.95	0.238	0.09
0.401	283.65	0.096	0.0365
0.401	287.55	0.112	0.043
0.401	290.35	0.125	0.048
0.401	293.95	0.154	0.059
0.401	297.15	0.182	0.069
0.401	299.95	0.213	0.081
0.401	301.95	0.252	0.096
0.401	304.35	0.291	0.111
0.401	307.45	0.341	0.13
0.401	310.35	0.399	0.152
0.401	313.25	0.474	0.18
0.6051	283.45	0.153	0.058
0.6051	289.05	0.188	0.071
0.6051	293.75	0.221	0.084
0.6051	297.55	0.255	0.097
0.6051	301.55	0.301	0.114
0.6051	305.25	0.356	0.135
0.6051	309.25	0.42	0.16
0.6051	313.35	0.508	0.187
0.7979	281.95	0.17	0.065
0.7979	285.65	0.21	0.08
0.7979	290.95	0.245	0.093
0.7979	294.15	0.273	0.104
0.7979	297.15	0.309	0.117
0.7979	300.95	0.348	0.132
0.7979	304.25	0.398	0.151
0.7979	307.35	0.448	0.17
0.7979	309.95	0.503	0.189
0.7979	313.15	0.567	0.165
1	278.45	0.153	0.058
1	282.45	0.205	0.078
1	283.85	0.231	0.088
1	285.45	0.259	0.098
1	287.65	0.299	0.114
1	290.55	0.342	0.13
1	293.05	0.388	0.147
1	296.95	0.437	0.166
1	300.25	0.502	0.189
1	304.05	0.562	0.166

System: pentanedioic anhydride + ethanoic anhydride; phases: Liquid, Crystal
Fixed: Pressure, kPa = 100
Property: Solid-liquid equilibrium temperature, K (Liquid); method: VISOBS
Mole fraction of pentanedioic anhydride	Solid-liquid equilibrium temperature, K	uncertainty
0.153	278.45	4.48
0.205	282.45	5.48
0.231	283.85	4.88
0.259	285.45	5.5
0.299	287.65	6.99
0.342	290.55	7.88
0.388	293.05	9.95
0.437	296.95	10.38
0.502	300.25	10.73
0.562	304.05	10.54

System: pentanedioic anhydride + ethanoic anhydride + acetic acid; phases: Liquid, Crystal
Fixed: Pressure, kPa = 100
Property: Solid-liquid equilibrium temperature, K (Liquid); method: VISOBS
Solvent: Mass fraction of ethanoic anhydride	Mole fraction of pentanedioic anhydride	Solid-liquid equilibrium temperature, K	uncertainty
1	0.153	278.45	4.48
1	0.205	282.45	5.48
1	0.231	283.85	4.88
1	0.259	285.45	5.5
1	0.299	287.65	6.99
1	0.342	290.55	7.88
1	0.388	293.05	9.95
1	0.437	296.95	10.38
1	0.502	300.25	10.73
1	0.562	304.05	10.54
0	0.0783	279.65	4.21
0	0.0967	282.25	4.41
0	0.119	284.55	3.89
0	0.152	287.05	4.51
0	0.183	289.55	4.77
0	0.223	291.95	4.57
0	0.27	294.25	4.82
0	0.323	296.65	5.68
0	0.376	299.15	6.96
0	0.436	302.15	6.42
0	0.502	304.05	6.38
0	0.557	306.25	8.51
0.0205	0.21	288.45	5.18
0.0205	0.247	290.85	6.23
0.0205	0.296	294.15	7.02
0.0205	0.351	297.35	7.61
0.0205	0.41	300.65	8.05
0.0205	0.471	303.55	8.03
0.0205	0.537	306.35	7.77
0.0205	0.6	309.25	7.11
0.0205	0.661	312.15	6.82
0.0205	0.689	314.05	8.02
0.0533	0.162	283.15	3.14
0.0533	0.209	287.15	6.92
0.0533	0.255	291.25	6.98
0.0533	0.311	294.55	6.34
0.0533	0.365	297.15	7.93
0.0533	0.42	300.75	8.51
0.0533	0.483	303.55	8.33
0.0533	0.55	306.65	7.6
0.0533	0.618	309.55	7.07
0.0533	0.679	312.95	6.8
0.0996	0.268	288.85	2.93
0.0996	0.303	291.55	8.53
0.0996	0.342	294.05	8.29
0.0996	0.386	296.75	7.98
0.0996	0.44	299.65	8.93
0.0996	0.496	302.55	9.89
0.0996	0.554	305.45	7.84
0.0996	0.617	308.15	6.34
0.0996	0.682	311.05	5.41
0.0996	0.744	313.85	4.4
0.1988	0.172	280.15	6.68
0.1988	0.219	284.95	7.48
0.1988	0.266	288.55	7.61
0.1988	0.307	291.85	8.51
0.1988	0.356	295.15	8.56
0.1988	0.413	298.45	9.53
0.1988	0.473	302.25	10.22
0.1988	0.541	305.75	8.72
0.1988	0.613	309.25	6.79
0.1988	0.684	312.35	5.25
0.3939	0.24	283.15	5.59
0.3939	0.28	285.55	9.3
0.3939	0.327	290.95	12.66
0.3939	0.361	293.75	10.58
0.3939	0.406	297.05	10.67
0.3939	0.462	300.75	10.93
0.3939	0.52	304.15	10.07
0.3939	0.582	307.65	8.51
0.3939	0.645	310.85	6.18
0.3939	0.715	313.75	4.49
0.5977	0.234	279.45	4.06
0.5977	0.27	283.25	10.42
0.5977	0.303	286.45	11.52
0.5977	0.338	290.05	12.14
0.5977	0.376	293.35	12
0.5977	0.412	296.15	12.43
0.5977	0.45	299.15	11.73
0.5977	0.488	301.95	12.09
0.5977	0.543	305.25	10.48
0.5977	0.599	308.65	8.28
0.5977	0.657	311.45	6.3
0.5977	0.719	314.45	5.17
0.7927	0.302	285.3	2.91
0.7927	0.333	287.3	10.38
0.7927	0.368	290.25	12.3
0.7927	0.412	293.65	10.81
0.7927	0.469	297.25	10.35
0.7927	0.524	300.15	10.28
0.7927	0.575	303.25	9.26
0.7927	0.632	306.35	7.42
0.7927	0.69	309.35	6.3
0.7927	0.748	312.55	5.29

System: pentanedioic anhydride + ethanoic anhydride + acetic acid; phases: Liquid, Crystal
Fixed: Pressure, kPa = 100
Property: Mole fraction of pentanedioic anhydride (Liquid); method: Chromatography
Solvent: Mass fraction of ethanoic anhydride	Temperature, K	Mole fraction of pentanedioic anhydride	uncertainty
1	278.45	0.153	0.058
1	282.45	0.205	0.078
1	283.85	0.231	0.088
1	285.45	0.259	0.098
1	287.65	0.299	0.114
1	290.55	0.342	0.13
1	293.05	0.388	0.147
1	296.95	0.437	0.166
1	300.25	0.502	0.189
1	304.05	0.562	0.166
0	279.65	0.0783	0.0298
0	282.25	0.0967	0.0368
0	284.55	0.119	0.045
0	287.05	0.152	0.058
0	289.55	0.183	0.07
0	291.95	0.223	0.085
0	294.25	0.27	0.103
0	296.65	0.323	0.123
0	299.15	0.376	0.143
0	302.15	0.436	0.166
0	304.05	0.502	0.189
0	306.25	0.557	0.168
0.0205	288.45	0.21	0.08
0.0205	290.85	0.247	0.094
0.0205	294.15	0.296	0.112
0.0205	297.35	0.351	0.133
0.0205	300.65	0.41	0.156
0.0205	303.55	0.471	0.179
0.0205	306.35	0.537	0.176
0.0205	309.25	0.6	0.152
0.0205	312.15	0.661	0.129
0.0205	314.05	0.689	0.118
0.0533	283.15	0.162	0.062
0.0533	287.15	0.209	0.079
0.0533	291.25	0.255	0.097
0.0533	294.55	0.311	0.118
0.0533	297.15	0.365	0.139
0.0533	300.75	0.42	0.16
0.0533	303.55	0.483	0.184
0.0533	306.65	0.55	0.171
0.0533	309.55	0.618	0.145
0.0533	312.95	0.679	0.122
0.0996	288.85	0.268	0.102
0.0996	291.55	0.303	0.115
0.0996	294.05	0.342	0.13
0.0996	296.75	0.386	0.147
0.0996	299.65	0.44	0.167
0.0996	302.55	0.496	0.188
0.0996	305.45	0.554	0.169
0.0996	308.15	0.617	0.146
0.0996	311.05	0.682	0.121
0.0996	313.85	0.744	0.097
0.1988	280.15	0.172	0.065
0.1988	284.95	0.219	0.083
0.1988	288.55	0.266	0.101
0.1988	291.85	0.307	0.117
0.1988	295.15	0.356	0.135
0.1988	298.45	0.413	0.157
0.1988	302.25	0.473	0.18
0.1988	305.75	0.541	0.174
0.1988	309.25	0.613	0.147
0.1988	312.35	0.684	0.12
0.3939	283.15	0.24	0.091
0.3939	285.55	0.28	0.106
0.3939	290.95	0.327	0.124
0.3939	293.75	0.361	0.137
0.3939	297.05	0.406	0.154
0.3939	300.75	0.462	0.176
0.3939	304.15	0.52	0.182
0.3939	307.65	0.582	0.159
0.3939	310.85	0.645	0.135
0.3939	313.75	0.715	0.108
0.5977	279.45	0.234	0.089
0.5977	283.25	0.27	0.103
0.5977	286.45	0.303	0.115
0.5977	290.05	0.338	0.128
0.5977	293.35	0.376	0.143
0.5977	296.15	0.412	0.157
0.5977	299.15	0.45	0.171
0.5977	301.95	0.488	0.185
0.5977	305.25	0.543	0.174
0.5977	308.65	0.599	0.152
0.5977	311.45	0.657	0.13
0.5977	314.45	0.719	0.107
0.7927	285.3	0.302	0.115
0.7927	287.3	0.333	0.127
0.7927	290.25	0.368	0.14
0.7927	293.65	0.412	0.157
0.7927	297.25	0.469	0.178
0.7927	300.15	0.524	0.181
0.7927	303.25	0.575	0.162
0.7927	306.35	0.632	0.14
0.7927	309.35	0.69	0.118
0.7927	312.55	0.748	0.096
