Measured thermophysical data. Measurement and Correlation of Solubility of Marbofloxacin in 12 Pure Solvents from 283.15 to 328.15 K
Source: J. Chem. Eng. Data, 2019, 10.1021/acs.jced.9b00490
Compound 1: marbofloxacin, C17H19FN4O4, InChI=1S/C17H19FN4O4/c1-19-3-5-21(6-4-19)14-12(18)7-10-13-16(14)26-9-20(2)22(13)8-11(15(10)23)17(24)25/h7-8H,3-6,9H2,1-2H3,(H,24,25), purity 99%
Compound 2: methanol, CH4O, InChI=1S/CH4O/c1-2/h2H,1H3, purity 99.5%
Compound 3: ethanol, C2H6O, InChI=1S/C2H6O/c1-2-3/h3H,2H2,1H3, purity 99.5%
Compound 4: acetonitrile, C2H3N, InChI=1S/C2H3N/c1-2-3/h1H3, purity 99.5%
Compound 5: propan-2-ol, C3H8O, InChI=1S/C3H8O/c1-3(2)4/h3-4H,1-2H3, purity 99.5%
Compound 6: propan-1-ol, C3H8O, InChI=1S/C3H8O/c1-2-3-4/h4H,2-3H2,1H3, purity 99.5%
Compound 7: butan-1-ol, C4H10O, InChI=1S/C4H10O/c1-2-3-4-5/h5H,2-4H2,1H3, purity 99.5%
Compound 8: ethyl acetate, C4H8O2, InChI=1S/C4H8O2/c1-3-6-4(2)5/h3H2,1-2H3, purity 99.5%
Compound 9: 2-methylbutan-2-ol, C5H12O, InChI=1S/C5H12O/c1-4-5(2,3)6/h6H,4H2,1-3H3, purity 99.5%
Compound 10: acetone, C3H6O, InChI=1S/C3H6O/c1-3(2)4/h1-2H3, purity 99.5%
Compound 11: toluene, C7H8, InChI=1S/C7H8/c1-7-5-3-2-4-6-7/h2-6H,1H3, purity 99.5%
Compound 12: tetrahydrofuran, C4H8O, InChI=1S/C4H8O/c1-2-4-5-3-1/h1-4H2, purity 99.5%
Compound 13: 1,4-dioxane, C4H8O2, InChI=1S/C4H8O2/c1-2-6-4-3-5-1/h1-4H2, purity 99.5%
Compound 14: potassium chloride, ClK, InChI=1S/ClH.K/h1H;/q;+1/p-1, purity 99%
Compound 15: water, H2O, InChI=1S/H2O/h1H2, purity 99.5%

System: marbofloxacin; phases: Crystal, Liquid, Air at 1 atmosphere
Property: Triple point temperature, K (Crystal); method: DSC
Triple point temperature, K	uncertainty
559.15	1

System: marbofloxacin; phases: Crystal, Liquid, Air at 1 atmosphere
Property: Molar enthalpy of transition or fusion, kJ/mol (Crystal); method: DSC
Molar enthalpy of transition or fusion, kJ/mol	uncertainty
51.0921569712	1.4494228928

System: marbofloxacin + methanol; phases: Liquid, Crystal
Fixed: Pressure, kPa = 100
Property: Mole fraction of marbofloxacin (Liquid); method: Titration method
Temperature, K	Mole fraction of marbofloxacin	uncertainty
283.15	0.0001268	1.27e-05
288.15	0.0001468	1.47e-05
293.15	0.0001733	1.73e-05
298.15	0.0002035	2.04e-05
303.15	0.0002492	2.49e-05
308.15	0.0002945	2.95e-05
313.15	0.0003545	3.55e-05
318.15	0.0004354	4.36e-05
323.15	0.0005205	5.21e-05

System: marbofloxacin + ethanol; phases: Liquid, Crystal
Fixed: Pressure, kPa = 100
Property: Mole fraction of marbofloxacin (Liquid); method: Titration method
Temperature, K	Mole fraction of marbofloxacin	uncertainty
283.15	6.66e-05	6.7e-06
288.15	7.84e-05	7.8e-06
293.15	9.47e-05	9.5e-06
298.15	0.0001166	1.17e-05
303.15	0.0001439	1.44e-05
308.15	0.0001754	1.75e-05
313.15	0.0002165	2.17e-05
318.15	0.0002645	2.65e-05
323.15	0.0003263	3.26e-05

System: marbofloxacin + acetonitrile; phases: Liquid, Crystal
Fixed: Pressure, kPa = 100
Property: Mole fraction of marbofloxacin (Liquid); method: Titration method
Temperature, K	Mole fraction of marbofloxacin	uncertainty
283.15	0.0001225	1.23e-05
288.15	0.0001473	1.47e-05
293.15	0.0001719	1.72e-05
298.15	0.0002128	2.13e-05
303.15	0.00025	2.5e-05
308.15	0.0002975	2.98e-05
313.15	0.0003453	3.45e-05
318.15	0.0004223	4.22e-05
323.15	0.0005089	5.09e-05

System: marbofloxacin + propan-2-ol; phases: Liquid, Crystal
Fixed: Pressure, kPa = 100
Property: Mole fraction of marbofloxacin (Liquid); method: Titration method
Temperature, K	Mole fraction of marbofloxacin	uncertainty
283.15	5.13e-05	5.1e-06
288.15	6.16e-05	6.2e-06
293.15	7.5e-05	7.5e-06
298.15	9.22e-05	9.2e-06
303.15	0.0001066	1.07e-05
308.15	0.0001298	1.3e-05
313.15	0.000164	1.64e-05
318.15	0.000204	2.04e-05
323.15	0.0002586	2.59e-05

System: marbofloxacin + propan-1-ol; phases: Liquid, Crystal
Fixed: Pressure, kPa = 100
Property: Mole fraction of marbofloxacin (Liquid); method: Titration method
Temperature, K	Mole fraction of marbofloxacin	uncertainty
283.15	8.29e-05	8.3e-06
288.15	9.58e-05	9.6e-06
293.15	0.0001141	1.14e-05
298.15	0.0001359	1.36e-05
303.15	0.000164	1.64e-05
308.15	0.0002016	2.02e-05
313.15	0.0002534	2.53e-05
318.15	0.000315	3.15e-05
323.15	0.0003906	3.91e-05

System: marbofloxacin + butan-1-ol; phases: Liquid, Crystal
Fixed: Pressure, kPa = 100
Property: Mole fraction of marbofloxacin (Liquid); method: Titration method
Temperature, K	Mole fraction of marbofloxacin	uncertainty
283.15	8.77e-05	8.8e-06
288.15	0.0001004	1e-05
293.15	0.0001159	1.16e-05
298.15	0.00014	1.4e-05
303.15	0.0001691	1.69e-05
308.15	0.0002041	2.04e-05
313.15	0.0002541	2.54e-05
318.15	0.0003162	3.16e-05
323.15	0.0004082	4.08e-05

System: marbofloxacin + ethyl acetate; phases: Liquid, Crystal
Fixed: Pressure, kPa = 100
Property: Mole fraction of marbofloxacin (Liquid); method: Titration method
Temperature, K	Mole fraction of marbofloxacin	uncertainty
283.15	0.0001536	1.54e-05
288.15	0.0001717	1.72e-05
293.15	0.0001965	1.97e-05
298.15	0.0002261	2.26e-05
303.15	0.0002547	2.55e-05
308.15	0.0002881	2.88e-05
313.15	0.0003262	3.26e-05
318.15	0.0003783	3.78e-05
323.15	0.0004321	4.32e-05

System: marbofloxacin + 2-methylbutan-2-ol; phases: Liquid, Crystal
Fixed: Pressure, kPa = 100
Property: Mole fraction of marbofloxacin (Liquid); method: Titration method
Temperature, K	Mole fraction of marbofloxacin	uncertainty
283.15	7.86e-05	7.9e-06
288.15	9.12e-05	9.1e-06
293.15	0.000107	1.07e-05
298.15	0.0001221	1.22e-05
303.15	0.0001403	1.4e-05
308.15	0.0001695	1.7e-05
313.15	0.0002017	2.02e-05
318.15	0.00024	2.4e-05
323.15	0.0002901	2.9e-05

System: marbofloxacin + acetone; phases: Liquid, Crystal
Fixed: Pressure, kPa = 100
Property: Mole fraction of marbofloxacin (Liquid); method: Titration method
Temperature, K	Mole fraction of marbofloxacin	uncertainty
283.15	0.0002188	2.19e-05
288.15	0.0002664	2.66e-05
293.15	0.0003156	3.16e-05
298.15	0.0003669	3.67e-05
303.15	0.0004246	4.25e-05
308.15	0.0004881	4.88e-05
313.15	0.0005695	5.7e-05
318.15	0.0006784	6.79e-05
323.15	0.0007963	7.96e-05

System: marbofloxacin + toluene; phases: Liquid, Crystal
Fixed: Pressure, kPa = 100
Property: Mole fraction of marbofloxacin (Liquid); method: Titration method
Temperature, K	Mole fraction of marbofloxacin	uncertainty
283.15	4.91e-05	4.9e-06
288.15	6.13e-05	6.1e-06
293.15	7.24e-05	7.2e-06
298.15	8.74e-05	8.7e-06
303.15	0.0001017	1.02e-05
308.15	0.0001167	1.17e-05
313.15	0.0001347	1.35e-05
318.15	0.0001551	1.55e-05
323.15	0.0001801	1.8e-05

System: marbofloxacin + tetrahydrofuran; phases: Liquid, Crystal
Fixed: Pressure, kPa = 100
Property: Mole fraction of marbofloxacin (Liquid); method: Titration method
Temperature, K	Mole fraction of marbofloxacin	uncertainty
283.15	0.0004319	4.32e-05
288.15	0.0005077	5.08e-05
293.15	0.0005914	5.92e-05
298.15	0.0006804	6.81e-05
303.15	0.0007769	7.77e-05
308.15	0.0008865	8.87e-05
313.15	0.001003	0.0001
318.15	0.001126	0.000113
323.15	0.001254	0.000125

System: marbofloxacin + 1,4-dioxane; phases: Liquid, Crystal
Fixed: Pressure, kPa = 100
Property: Mole fraction of marbofloxacin (Liquid); method: Titration method
Temperature, K	Mole fraction of marbofloxacin	uncertainty
283.15	0.0001138	1.14e-05
288.15	0.0001317	1.32e-05
293.15	0.0001528	1.53e-05
298.15	0.0001875	1.88e-05
303.15	0.0002303	2.3e-05
308.15	0.0002798	2.8e-05
313.15	0.0003479	3.48e-05
318.15	0.0004266	4.27e-05
323.15	0.0005122	5.12e-05

System: potassium chloride + water; phases: Liquid, Crystal
Fixed: Pressure, kPa = 100
Property: Mole fraction of potassium chloride (Liquid); method: Titration method
Temperature, K	Mole fraction of potassium chloride	uncertainty
283.15	0.0713	0.0071
293.15	0.0778	0.0078
298.15	0.0808	0.0081
303.15	0.0843	0.0084
313.15	0.0889	0.0089
323.15	0.0945	0.0095
