Measured thermophysical data. Solid-Liquid Equilibria in the Quaternary System Na+,K+//HPO42-,Cl--H2O and Its Subsystems Na+//HPO42-,Cl--H2O, K+//HPO42-,Cl--H2O, and Na+,K+//HPO42--H2O at 298.2 K
Source: J. Chem. Eng. Data, 2017, 10.1021/acs.jced.7b00413
Compound 1: sodium chloride, ClNa, InChI=1S/ClH.Na/h1H;/q;+1/p-1, purity 99.5%
Compound 2: potassium chloride, ClK, InChI=1S/ClH.K/h1H;/q;+1/p-1, purity 99.5%
Compound 3: disodium hydrogen phosphate, HNa2O4P, InChI=1S/2Na.H3O4P/c;;1-5(2,3)4/h;;(H3,1,2,3,4)/q2*+1;/p-2, purity 99%
Compound 4: dipotassium hydrogen phosphate, HK2O4P, InChI=1S/2K.H3O4P/c;;1-5(2,3)4/h;;(H3,1,2,3,4)/q2*+1;/p-2, purity 98%
Compound 5: water, H2O, InChI=1S/H2O/h1H2, purity 99.8%

System: sodium chloride + water; phases: Liquid, Crystal
Property: Mass fraction of sodium chloride (Liquid); method: gravimetric and titration
Pressure, kPa	Temperature, K	Mass fraction of sodium chloride	uncertainty
100	298.2	0.264	0.0027

System: potassium chloride + water; phases: Liquid, Crystal
Fixed: Temperature, K = 298.2
Fixed: Pressure, kPa = 100
Property: Mass fraction of potassium chloride (Liquid); method: gravimetric and titration
Mass fraction of potassium chloride	uncertainty
0.263	0.0027
0.2617	0.0027

System: disodium hydrogen phosphate + water; phases: Liquid, Crystal of intercomponent compound 1
Property: Mass fraction of disodium hydrogen phosphate (Liquid); method: gravimetric and titration
Pressure, kPa	Temperature, K	Mass fraction of disodium hydrogen phosphate	uncertainty
100	298.2	0.0985	0.01

System: dipotassium hydrogen phosphate + water; phases: Liquid, Crystal of intercomponent compound 1
Property: Mass fraction of dipotassium hydrogen phosphate (Liquid); method: gravimetric and titration
Pressure, kPa	Temperature, K	Mass fraction of dipotassium hydrogen phosphate	uncertainty
100	298.2	0.6269	0.004

System: sodium chloride + potassium chloride + water; phases: Liquid, Crystal
Property: Mass fraction of potassium chloride (Liquid); method: gravimetric and titration
Mass fraction of sodium chloride	Pressure, kPa	Temperature, K	Mass fraction of potassium chloride	uncertainty
0.204	100	298.2	0.1132	0.0012

System: sodium chloride + potassium chloride + water; phases: Liquid, Crystal
Property: Mass fraction of potassium chloride (Liquid); method: gravimetric and titration
Mass fraction of sodium chloride	Pressure, kPa	Temperature, K	Mass fraction of potassium chloride	uncertainty
0.204	100	298.2	0.1132	0.0012

System: sodium chloride + disodium hydrogen phosphate + water; phases: Liquid, Crystal
Fixed: Pressure, kPa = 100
Fixed: Temperature, K = 298.2
Property: Mass fraction of disodium hydrogen phosphate (Liquid); method: gravimetric and titration
Mass fraction of sodium chloride	Mass fraction of disodium hydrogen phosphate	uncertainty
0.264	0	
0.0324	0.08	0.01
0.0907	0.0582	0.008
0.1334	0.053	0.008
0.1644	0.0586	0.008
0.1956	0.0704	0.008
0.2221	0.0657	0.008
0.2337	0.0627	0.0089

System: sodium chloride + disodium hydrogen phosphate + water; phases: Liquid, Crystal of intercomponent compound 1
Fixed: Pressure, kPa = 100
Fixed: Temperature, K = 298.2
Property: Mass fraction of disodium hydrogen phosphate (Liquid); method: gravimetric and titration
Mass fraction of sodium chloride	Mass fraction of disodium hydrogen phosphate	uncertainty
0.2337	0.0627	0.0148
0.255	0.0205	0.009
0.244	0.0383	0.0093
0.2331	0.0595	0.0148
0	0.0985	0.008

System: potassium chloride + dipotassium hydrogen phosphate + water; phases: Liquid, Crystal
Fixed: Pressure, kPa = 100
Fixed: Temperature, K = 298.2
Property: Mass fraction of dipotassium hydrogen phosphate (Liquid); method: gravimetric and titration
Mass fraction of potassium chloride	Mass fraction of dipotassium hydrogen phosphate	uncertainty
0.2617	0	
0.1803	0.1565	0.0039
0.1303	0.2572	0.0037
0.0875	0.3451	0.0041
0.0522	0.4464	0.0048
0.0334	0.4972	0.0052
0.0209	0.5344	0.0049
0.0211	0.5389	0.0049
0.0073	0.6184	0.0041

System: potassium chloride + dipotassium hydrogen phosphate + water; phases: Liquid, Crystal of intercomponent compound 1
Fixed: Pressure, kPa = 100
Fixed: Temperature, K = 298.2
Property: Mass fraction of dipotassium hydrogen phosphate (Liquid); method: gravimetric and titration
Mass fraction of potassium chloride	Mass fraction of dipotassium hydrogen phosphate	uncertainty
0.0073	0.6184	0.004
0	0.6269	0.004

System: disodium hydrogen phosphate + dipotassium hydrogen phosphate + water; phases: Liquid, Crystal of intercomponent compound 1
Fixed: Pressure, kPa = 100
Fixed: Temperature, K = 298.2
Property: Mass fraction of disodium hydrogen phosphate (Liquid); method: gravimetric and titration
Mass fraction of dipotassium hydrogen phosphate	Mass fraction of disodium hydrogen phosphate	uncertainty
0	0.0985	0.008
0.0903	0.136	0.008
0.1535	0.1415	0.008
0.2468	0.1516	0.1055
0.2481	0.207	0.106

System: disodium hydrogen phosphate + dipotassium hydrogen phosphate + water; phases: Liquid, Crystal of intercomponent compound 2
Fixed: Pressure, kPa = 100
Fixed: Temperature, K = 298.2
Property: Mass fraction of disodium hydrogen phosphate (Liquid); method: gravimetric and titration
Mass fraction of dipotassium hydrogen phosphate	Mass fraction of disodium hydrogen phosphate	uncertainty
0.2481	0.207	0.0081
0.2976	0.1815	0.0082
0.4038	0.1114	0.0083
0.4672	0.0859	0.0082
0.5136	0.0703	0.008
0.5705	0.089	0.0097
0.5724	0.0866	0.0097

System: disodium hydrogen phosphate + dipotassium hydrogen phosphate + water; phases: Liquid, Crystal of intercomponent compound 3
Fixed: Pressure, kPa = 100
Fixed: Temperature, K = 298.2
Property: Mass fraction of disodium hydrogen phosphate (Liquid); method: gravimetric and titration
Mass fraction of dipotassium hydrogen phosphate	Mass fraction of disodium hydrogen phosphate	uncertainty
0.5724	0.0866	0.0107
0.6028	0.036	0.0102
0.6189	0.014	0.0098
0.6269	0	
