Measured thermophysical data. Experimental Measurements and Modeling Study of Liquid-Liquid Equilibrium [(Water + Methyl Oleate + Model Molecules of Tar Issued from the Biomass Gasification Process (Benzene, Toluene, Phenol, Thiophene, and Pyridine)]
Source: J. Chem. Eng. Data, 2019, 10.1021/acs.jced.8b00659
Compound 1: water, H2O, InChI=1S/H2O/h1H2, purity 99.9%
Compound 2: methyl cis-9-octadecenoate, C19H36O2, InChI=1S/C19H36O2/c1-3-4-5-6-7-8-9-10-11-12-13-14-15-16-17-18-19(20)21-2/h10-11H,3-9,12-18H2,1-2H3/b11-10-, purity 99%
Compound 3: benzene, C6H6, InChI=1S/C6H6/c1-2-4-6-5-3-1/h1-6H, purity 99%
Compound 4: toluene, C7H8, InChI=1S/C7H8/c1-7-5-3-2-4-6-7/h2-6H,1H3, purity 99%
Compound 5: phenol, C6H6O, InChI=1S/C6H6O/c7-6-4-2-1-3-5-6/h1-5,7H, purity 99%
Compound 6: thiophene, C4H4S, InChI=1S/C4H4S/c1-2-4-5-3-1/h1-4H, purity 99%
Compound 7: pyridine, C5H5N, InChI=1S/C5H5N/c1-2-4-6-5-3-1/h1-5H, purity 99.8%

System: water + methyl cis-9-octadecenoate; phases: Liquid mixture 1, Liquid mixture 2
Fixed: Pressure, kPa = 100
Property: Mole fraction of water (Liquid mixture 1); method: Chromatography
Temperature, K	Mole fraction of water	uncertainty
303.2	0.0275	0.0012
323.2	0.0382	0.0009
343.2	0.046	0.0025

System: water + methyl cis-9-octadecenoate; phases: Liquid mixture 2, Liquid mixture 1
Fixed: Pressure, kPa = 100
Property: Mole fraction of methyl cis-9-octadecenoate (Liquid mixture 2); method: Chromatography
Temperature, K	Mole fraction of methyl cis-9-octadecenoate	uncertainty
303.2	1.22e-07	3e-09
323.2	3.31e-07	9e-09
343.2	8.34e-07	2.3e-08

System: methyl cis-9-octadecenoate + benzene + water; phases: Liquid mixture 1, Liquid mixture 2
Fixed: Pressure, kPa = 100
Property: Mole fraction of methyl cis-9-octadecenoate (Liquid mixture 1); method: Chromatography
Property: Mole fraction of water (Liquid mixture 2); method: Chromatography
Property: Mole fraction of benzene (Liquid mixture 2); method: Chromatography
Temperature, K	Mole fraction of benzene	Mole fraction of methyl cis-9-octadecenoate	uncertainty	Mole fraction of water	uncertainty	Mole fraction of benzene	uncertainty
303.2	4.76e-05	1.2e-07	6e-09	0.0274	0.0027	0.16	
303.2	2.1e-05	1.19e-07	6e-09	0.0275	0.0028	0.0697	
303.2	5.2e-06	1.25e-07	6e-09	0.0275	0.0028	0.0183	
323.2	5.76e-05	3.38e-07	1.7e-08	0.0383	0.0038	0.161	
323.2	2.59e-05	3.3e-07	1.7e-08	0.0382	0.0038	0.0695	
323.2	6.1e-06	3.25e-07	1.7e-08	0.0383	0.0038	0.0181	
343.2	6.81e-05	8.39e-07	4.2e-08	0.0461	0.0046	0.159	
343.2	3.07e-05	8.28e-07	4.2e-08	0.0462	0.0046	0.0702	
343.2	6.9e-06	8.35e-07	4.2e-08	0.0459	0.0046	0.0179	

System: methyl cis-9-octadecenoate + toluene + water; phases: Liquid mixture 2, Liquid mixture 1
Fixed: Pressure, kPa = 100
Property: Mole fraction of water (Liquid mixture 2); method: Chromatography
Property: Mole fraction of methyl cis-9-octadecenoate (Liquid mixture 1); method: Chromatography
Property: Mole fraction of toluene (Liquid mixture 1); method: Chromatography
Temperature, K	Mole fraction of toluene	Mole fraction of water	uncertainty	Mole fraction of methyl cis-9-octadecenoate	uncertainty	Mole fraction of toluene	uncertainty
303.2	0.147	0.0275	0.0028	1.28e-07	7e-09	1.45e-05	
303.2	0.0606	0.0273	0.0027	1.25e-07	6e-09	5.21e-06	
303.2	0.0159	0.0274	0.0027	1.21e-07	6e-09	1.31e-06	
323.2	0.147	0.0382	0.0038	3.37e-07	1.7e-08	1.55e-05	
323.2	0.0613	0.0382	0.0038	3.31e-07	1.7e-08	6e-06	
323.2	0.016	0.0383	0.0038	3.32e-07	1.7e-08	1.62e-06	
343.2	0.143	0.046	0.0046	8.38e-07	4.2e-08	1.83e-05	
343.2	0.0618	0.0458	0.0046	8.24e-07	4.2e-08	7.48e-06	
343.2	0.0158	0.0461	0.0046	8.3e-07	4.2e-08	1.93e-06	

System: methyl cis-9-octadecenoate + phenol + water; phases: Liquid mixture 2, Liquid mixture 1
Fixed: Pressure, kPa = 100
Property: Mole fraction of water (Liquid mixture 2); method: Chromatography
Property: Mole fraction of methyl cis-9-octadecenoate (Liquid mixture 1); method: Chromatography
Property: Mole fraction of phenol (Liquid mixture 1); method: Chromatography
Temperature, K	Mole fraction of phenol	Mole fraction of water	uncertainty	Mole fraction of methyl cis-9-octadecenoate	uncertainty	Mole fraction of phenol	uncertainty
303.2	0.125	0.0274	0.0027	1.28e-07	7e-09	0.00084	
303.2	0.0563	0.0275	0.0028	1.22e-07	6e-09	0.00033	
303.2	0.0143	0.0276	0.0028	1.25e-07	6e-09	8.1e-05	
323.2	0.124	0.0381	0.0038	3.34e-07	1.7e-08	0.000973	
323.2	0.0536	0.038	0.0038	3.35e-07	1.7e-08	0.000404	
323.2	0.0134	0.0382	0.0038	3.38e-07	1.7e-08	9.8e-05	
343.2	0.118	0.0462	0.0046	8.28e-07	4.2e-08	0.00127	
343.2	0.0512	0.0461	0.0046	8.35e-07	4.2e-08	0.000521	
343.2	0.0129	0.046	0.0046	8.38e-07	4.2e-08	0.000126	

System: methyl cis-9-octadecenoate + thiophene + water; phases: Liquid mixture 2, Liquid mixture 1
Fixed: Pressure, kPa = 100
Property: Mole fraction of water (Liquid mixture 2); method: Chromatography
Property: Mole fraction of methyl cis-9-octadecenoate (Liquid mixture 1); method: Chromatography
Property: Mole fraction of thiophene (Liquid mixture 1); method: Chromatography
Temperature, K	Mole fraction of thiophene	Mole fraction of water	uncertainty	Mole fraction of methyl cis-9-octadecenoate	uncertainty	Mole fraction of thiophene	uncertainty
303.2	0.163	0.0275	0.0028	1.27e-07	7e-09	9.48e-05	
303.2	0.0697	0.0274	0.0027	1.28e-07	7e-09	3.74e-05	
303.2	0.0232	0.0275	0.0028	1.21e-07	6e-09	1.18e-05	
323.2	0.158	0.038	0.0038	3.34e-07	1.7e-08	0.000145	
323.2	0.0664	0.0381	0.0038	3.22e-07	1.6e-08	6e-05	
323.2	0.0203	0.0382	0.0038	3.28e-07	1.7e-08	1.79e-05	
343.2	0.159	0.0461	0.0046	8.38e-07	4.2e-08	0.000224	
343.2	0.0666	0.0461	0.0046	8.37e-07	4.2e-08	8.33e-05	
343.2	0.021	0.0461	0.0046	8.33e-07	4.2e-08	2.63e-05	

System: methyl cis-9-octadecenoate + pyridine + water; phases: Liquid mixture 2, Liquid mixture 1
Fixed: Pressure, kPa = 100
Property: Mole fraction of water (Liquid mixture 2); method: Chromatography
Property: Mole fraction of methyl cis-9-octadecenoate (Liquid mixture 1); method: Chromatography
Property: Mole fraction of pyridine (Liquid mixture 1); method: Chromatography
Temperature, K	Mole fraction of pyridine	Mole fraction of water	uncertainty	Mole fraction of methyl cis-9-octadecenoate	uncertainty	Mole fraction of pyridine	uncertainty
303.2	0.0848	0.0274	0.0027	1.25e-07	6e-09	0.00415	
303.2	0.0372	0.0275	0.0028	1.29e-07	7e-09	0.00172	
303.2	0.0095	0.0274	0.0027	1.21e-07	6e-09	0.0005	
323.2	0.0935	0.0383	0.0038	3.3e-07	1.7e-08	0.00391	
323.2	0.0401	0.0382	0.0038	3.38e-07	1.7e-08	0.00159	
323.2	0.0103	0.0383	0.0038	3.36e-07	1.7e-08	0.000462	
343.2	0.0965	0.0461	0.0046	8.38e-07	4.2e-08	0.00326	
343.2	0.0432	0.0461	0.0046	8.37e-07	4.2e-08	0.00135	
343.2	0.0105	0.0459	0.0046	8.34e-07	4.2e-08	0.00039	
