Measured thermophysical data. Measurement and Modeling of Phase Equilibria in Systems Containing Water, Xylose, Furfural, and Acetic Acid
Source: J. Chem. Eng. Data, 2019, 10.1021/acs.jced.9b00095
Compound 1: water, H2O, InChI=1S/H2O/h1H2, purity 99.9%
Compound 2: D-xylose, C5H10O5, InChI=1S/C5H10O5/c6-1-3(8)5(10)4(9)2-7/h1,3-5,7-10H,2H2/t3-,4+,5+/m0/s1, purity 98%
Compound 3: 2-furaldehyde, C5H4O2, InChI=1S/C5H4O2/c6-4-5-2-1-3-7-5/h1-4H, purity 98.5%
Compound 4: acetic acid, C2H4O2, InChI=1S/C2H4O2/c1-2(3)4/h1H3,(H,3,4), purity 99.9%

System: water + D-xylose + 2-furaldehyde; phases: Liquid, Crystal
Fixed: Pressure, kPa = 101.3
Property: Mass fraction of 2-furaldehyde (Liquid); method: multiple techniques
Temperature, K	Mass fraction of D-xylose	Mass fraction of 2-furaldehyde	uncertainty
298.15	0.5246	0.0476	0.0019
333.15	0.6521	0.05	0.002

System: water + D-xylose + 2-furaldehyde; phases: Liquid, Crystal
Fixed: Pressure, kPa = 101.3
Property: Mass fraction of 2-furaldehyde (Liquid); method: multiple techniques
Temperature, K	Mass fraction of D-xylose	Mass fraction of 2-furaldehyde	uncertainty
298.15	0.5511	0	
298.15	0.5444	0.0137	0.0137
333.15	0.696	0	
333.15	0.6821	0.0157	0.0145

System: water + D-xylose + 2-furaldehyde; phases: Liquid mixture 1, Liquid mixture 2
Fixed: Pressure, kPa = 101.3
Property: Mass fraction of 2-furaldehyde (Liquid mixture 1); method: OTHER
Property: Mass fraction of D-xylose (Liquid mixture 2); method: OTHER
Property: Mass fraction of 2-furaldehyde (Liquid mixture 2); method: OTHER
Temperature, K	Mass fraction of D-xylose	Mass fraction of 2-furaldehyde	uncertainty	Mass fraction of D-xylose	uncertainty	Mass fraction of 2-furaldehyde	uncertainty
298.15	0	0.0863	0.0039	0		0.9489	
298.15	0.0794	0.0774	0.0035	0		0.9502	
298.15	0.148	0.0721	0.0033	0		0.9543	
298.15	0.2601	0.0632	0.003	0		0.9566	
298.15	0.321	0.0607	0.0029	0.0006	0.0003	0.9589	
298.15	0.4058	0.053	0.003	0		0.9642	
298.15	0.4721	0.0441	0.0022	0.0032	0.0002	0.9634	
298.15	0.5246	0.0476	0.0025	0.0023	0.0002	0.9663	
333.15	0	0.0929	0.0042	0		0.917	
333.15	0.1791	0.075	0.0034	0.0002	0.0002	0.919	
333.15	0.2716	0.0819	0.0037	0.0011	0.0011	0.9316	
333.15	0.3726	0.0692	0.0035	0.001	0.001	0.9314	
333.15	0.5036	0.0564	0.0029	0.0007	0.0001	0.9367	
333.15	0.6521	0.05	0.0023	0.0016	0.0005	0.9408	

System: water + 2-furaldehyde + acetic acid; phases: Liquid mixture 1, Liquid mixture 2
Fixed: Temperature, K = 298.15
Fixed: Pressure, kPa = 101.3
Property: Mole fraction of acetic acid (Liquid mixture 1); method: OTHER
Property: Mole fraction of acetic acid (Liquid mixture 2); method: OTHER
Property: Mole fraction of 2-furaldehyde (Liquid mixture 2); method: OTHER
Mole fraction of 2-furaldehyde	Mole fraction of acetic acid	uncertainty	Mole fraction of acetic acid	uncertainty	Mole fraction of 2-furaldehyde	uncertainty
0.3667	0.1073	0.0056	0.0578	0.0036	0.0526	
0.5651	0.071	0.0045	0.0294	0.0019	0.0284	

System: water + 2-furaldehyde; phases: Liquid mixture 2, Liquid mixture 1
Fixed: Pressure, kPa = 101.3
Property: Mass fraction of 2-furaldehyde (Liquid mixture 2); method: OTHER
Temperature, K	Mass fraction of 2-furaldehyde	uncertainty
298.15	0.9489	0.0023
333.15	0.917	0.0038

System: water + 2-furaldehyde; phases: Liquid mixture 1, Liquid mixture 2
Fixed: Pressure, kPa = 101.3
Property: Mass fraction of 2-furaldehyde (Liquid mixture 1); method: OTHER
Temperature, K	Mass fraction of 2-furaldehyde	uncertainty
298.15	0.0863	0.0039
333.15	0.0929	0.0042

System: water + D-xylose; phases: Liquid, Crystal
Fixed: Pressure, kPa = 101.3
Property: Solid-liquid equilibrium temperature, K (Liquid); method: multiple techniques
Mass fraction of D-xylose	Solid-liquid equilibrium temperature, K	uncertainty
0.5511	298.15	4.37
0.696	333.15	2.99
