Measured thermophysical data. Density and Viscosity of Binary Mixtures of 1-Ethyl-3-methylimidazolium Heptachlorodialuminate and Tetrachloroaluminate Ionic Liquids
Source: J. Chem. Eng. Data, 2017, 10.1021/acs.jced.7b00702
Compound 1: 1-ethyl-3-methyl-1H-imidazolium tetrachloroaluminate, C6H11AlCl4N2, InChI=1S/C6H11N2.Al.4ClH/c1-3-8-5-4-7(2)6-8;;;;;/h4-6H,3H2,1-2H3;;4*1H/q+1;+3;;;;/p-4
Compound 2: 1-ethyl-3-methylimidazolium heptachlorodialuminate, C6H11Al2Cl7N2, InChI=1S/C6H11N2.2Al.6ClH.Cl/c1-3-8-5-4-7(2)6-8;;;;;;;;;/h4-6H,3H2,1-2H3;;;6*1H;/q+1;2*+2;;;;;;;+1/p-6

System: 1-ethyl-3-methyl-1H-imidazolium tetrachloroaluminate; phases: Liquid
Fixed: Pressure, kPa = 100
Property: Mass density, kg/m3 (Liquid); method: Vibrating tube method
Temperature, K	Mass density, kg/m3	uncertainty
293.15	1299.317	1.316
303.15	1291.13	1.308
313.15	1283.046	1.299
323.15	1275.029	1.291
333.15	1267.095	1.282
343.15	1259.221	1.274
353.15	1251.412	1.266

System: 1-ethyl-3-methyl-1H-imidazolium tetrachloroaluminate; phases: Liquid
Fixed: Pressure, kPa = 100
Property: Viscosity, Pa*s (Liquid); method: Falling or rolling sphere viscometry
Temperature, K	Viscosity, Pa*s	uncertainty
293.15	0.02062	0.00019
303.15	0.01569	0.00014
313.15	0.01231	0.00011
323.15	0.009952	9e-05
333.15	0.008214	7.4e-05
343.15	0.006927	6.3e-05
353.15	0.005945	5.4e-05

System: 1-ethyl-3-methylimidazolium heptachlorodialuminate; phases: Liquid
Fixed: Pressure, kPa = 100
Property: Mass density, kg/m3 (Liquid); method: Vibrating tube method
Temperature, K	Mass density, kg/m3	uncertainty
293.15	1395.287	1.419
303.15	1385.833	1.409
313.15	1376.465	1.399
323.15	1367.19	1.389
333.15	1357.991	1.379
343.15	1348.876	1.369
353.15	1339.819	1.36

System: 1-ethyl-3-methylimidazolium heptachlorodialuminate; phases: Liquid
Fixed: Pressure, kPa = 100
Property: Viscosity, Pa*s (Liquid); method: Falling or rolling sphere viscometry
Temperature, K	Viscosity, Pa*s	uncertainty
293.15	0.01611	0.00015
303.15	0.01241	0.00011
313.15	0.00979	8.8e-05
323.15	0.007943	7.2e-05
333.15	0.006571	5.9e-05
343.15	0.005526	5e-05
353.15	0.004721	4.3e-05

System: 1-ethyl-3-methylimidazolium heptachlorodialuminate + 1-ethyl-3-methyl-1H-imidazolium tetrachloroaluminate; phases: Liquid
Fixed: Pressure, kPa = 100
Property: Mass density, kg/m3 (Liquid); method: Vibrating tube method
Mole fraction of 1-ethyl-3-methylimidazolium heptachlorodialuminate	Temperature, K	Mass density, kg/m3	uncertainty
0	293.15	1299.317	1.316
0.1016	293.15	1311.437	1.329
0.2046	293.15	1323.232	1.342
0.3035	293.15	1334.146	1.354
0.4003	293.15	1344.261	1.364
0.5041	293.15	1354.516	1.375
0.5962	293.15	1363.068	1.384
0.6955	293.15	1371.773	1.394
0.7963	293.15	1380.103	1.403
0.8901	293.15	1387.334	1.41
1	293.15	1395.287	1.419
0	303.15	1291.13	1.308
0.1016	303.15	1303.063	1.321
0.2046	303.15	1314.695	1.333
0.3035	303.15	1325.469	1.344
0.4003	303.15	1335.448	1.355
0.5041	303.15	1345.572	1.366
0.5962	303.15	1354.021	1.375
0.6955	303.15	1362.614	1.384
0.7963	303.15	1370.832	1.393
0.8901	303.15	1377.972	1.4
1	303.15	1385.833	1.409
0	313.15	1283.046	1.299
0.1016	313.15	1294.785	1.312
0.2046	313.15	1306.242	1.324
0.3035	313.15	1316.875	1.335
0.4003	313.15	1326.738	1.346
0.5041	313.15	1336.733	1.356
0.5962	313.15	1345.066	1.365
0.6955	313.15	1353.545	1.374
0.7963	313.15	1361.663	1.383
0.8901	313.15	1368.703	1.39
1	313.15	1376.465	1.399
0	323.15	1275.029	1.291
0.1016	323.15	1286.574	1.303
0.2046	323.15	1297.853	1.315
0.3035	323.15	1308.347	1.326
0.4003	323.15	1318.086	1.336
0.5041	323.15	1327.975	1.347
0.5962	323.15	1336.207	1.356
0.6955	323.15	1344.572	1.365
0.7963	323.15	1352.559	1.373
0.8901	323.15	1359.515	1.381
1	323.15	1367.19	1.389
0	333.15	1267.095	1.282
0.1016	333.15	1278.441	1.294
0.2046	333.15	1289.546	1.306
0.3035	333.15	1299.898	1.317
0.4003	333.15	1309.503	1.327
0.5041	333.15	1319.285	1.338
0.5962	333.15	1327.419	1.346
0.6955	333.15	1335.662	1.355
0.7963	333.15	1343.536	1.364
0.8901	333.15	1350.405	1.371
1	333.15	1357.991	1.379
0	343.15	1259.221	1.274
0.1016	343.15	1270.362	1.286
0.2046	343.15	1281.285	1.297
0.3035	343.15	1291.503	1.308
0.4003	343.15	1300.986	1.318
0.5041	343.15	1310.657	1.329
0.5962	343.15	1318.694	1.337
0.6955	343.15	1326.817	1.346
0.7963	343.15	1334.583	1.354
0.8901	343.15	1341.369	1.361
1	343.15	1348.876	1.369
0	353.15	1251.412	1.266
0.1016	353.15	1262.347	1.277
0.2046	353.15	1273.072	1.289
0.3035	353.15	1283.154	1.299
0.4003	353.15	1292.539	1.309
0.5041	353.15	1302.085	1.319
0.5962	353.15	1310.018	1.328
0.6955	353.15	1318.032	1.336
0.7963	353.15	1325.698	1.345
0.8901	353.15	1332.392	1.352
1	353.15	1339.819	1.36

System: 1-ethyl-3-methylimidazolium heptachlorodialuminate + 1-ethyl-3-methyl-1H-imidazolium tetrachloroaluminate; phases: Liquid
Fixed: Pressure, kPa = 100
Property: Viscosity, Pa*s (Liquid); method: Falling or rolling sphere viscometry
Mole fraction of 1-ethyl-3-methylimidazolium heptachlorodialuminate	Temperature, K	Viscosity, Pa*s	uncertainty
0	293.15	0.02062	0.00019
0.1016	293.15	0.01996	0.00018
0.2046	293.15	0.01938	0.00018
0.3035	293.15	0.01885	0.00017
0.4003	293.15	0.0184	0.00017
0.5041	293.15	0.01795	0.00016
0.5962	293.15	0.01757	0.00016
0.6955	293.15	0.01719	0.00016
0.7963	293.15	0.01682	0.00015
0.8901	293.15	0.01647	0.00015
1	293.15	0.01611	0.00015
0	303.15	0.01569	0.00014
0.1016	303.15	0.01523	0.00014
0.2046	303.15	0.01481	0.00013
0.3035	303.15	0.01444	0.00013
0.4003	303.15	0.0141	0.00013
0.5041	303.15	0.01377	0.00012
0.5962	303.15	0.01349	0.00012
0.6955	303.15	0.01321	0.00012
0.7963	303.15	0.01293	0.00012
0.8901	303.15	0.01268	0.00011
1	303.15	0.01241	0.00011
0	313.15	0.01231	0.00011
0.1016	313.15	0.01198	0.00011
0.2046	313.15	0.01167	0.00011
0.3035	313.15	0.01138	0.0001
0.4003	313.15	0.01112	0.0001
0.5041	313.15	0.01086	0.0001
0.5962	313.15	0.01064	0.0001
0.6955	313.15	0.01042	9e-05
0.7963	313.15	0.01021	9e-05
0.8901	313.15	0.01001	9e-05
1	313.15	0.00979	8.8e-05
0	323.15	0.009952	9e-05
0.1016	323.15	0.009697	8.8e-05
0.2046	323.15	0.009461	8.5e-05
0.3035	323.15	0.009239	8.3e-05
0.4003	323.15	0.009033	8.2e-05
0.5041	323.15	0.008826	8e-05
0.5962	323.15	0.00865	7.8e-05
0.6955	323.15	0.008468	7.6e-05
0.7963	323.15	0.008286	7.5e-05
0.8901	323.15	0.008127	7.3e-05
1	323.15	0.007943	7.2e-05
0	333.15	0.008214	7.4e-05
0.1016	333.15	0.008016	7.2e-05
0.2046	333.15	0.007821	7.1e-05
0.3035	333.15	0.007643	6.9e-05
0.4003	333.15	0.007474	6.7e-05
0.5041	333.15	0.007304	6.6e-05
0.5962	333.15	0.007157	6.5e-05
0.6955	333.15	0.007008	6.3e-05
0.7963	333.15	0.006859	6.2e-05
0.8901	333.15	0.006726	6.1e-05
1	333.15	0.006571	5.9e-05
0	343.15	0.006927	6.3e-05
0.1016	343.15	0.006762	6.1e-05
0.2046	343.15	0.006598	6e-05
0.3035	343.15	0.006447	5.8e-05
0.4003	343.15	0.006306	5.7e-05
0.5041	343.15	0.006161	5.6e-05
0.5962	343.15	0.006037	5.5e-05
0.6955	343.15	0.005906	5.3e-05
0.7963	343.15	0.005777	5.2e-05
0.8901	343.15	0.00566	5.1e-05
1	343.15	0.005526	5e-05
0	353.15	0.005945	5.4e-05
0.1016	353.15	0.005806	5.2e-05
0.2046	353.15	0.005664	5.1e-05
0.3035	353.15	0.005533	5e-05
0.4003	353.15	0.005408	4.9e-05
0.5041	353.15	0.005282	4.8e-05
0.5962	353.15	0.005173	4.7e-05
0.6955	353.15	0.005059	4.6e-05
0.7963	353.15	0.004946	4.5e-05
0.8901	353.15	0.004842	4.4e-05
1	353.15	0.004721	4.3e-05
