Measured thermophysical data. Molar Volumes and Heat Capacities of Aqueous Solutions of Potassium Hydroxide and for Water Ionization up to 573 K at 10 MPa
Source: J. Chem. Eng. Data, 2017, 10.1021/acs.jced.7b00192
Compound 1: water, H2O, InChI=1S/H2O/h1H2, purity 99.9%
Compound 2: potassium hydroxide, HKO, InChI=1S/K.H2O/h;1H2/q+1;/p-1, purity 99%

System: potassium hydroxide + water; phases: Liquid
Property: Mass density, kg/m3 (Liquid); method: Vibrating tube method
Temperature, K	Pressure, kPa	Molality, mol/kg of potassium hydroxide	Mass density, kg/m3	uncertainty
323.15	9980	0.050199	2.426	0.066
323.15	9980	0.050199	2.427	0.064
323.15	9980	0.10156	4.888	0.048
323.15	9980	0.10156	4.891	0.048
323.15	9980	0.20097	9.601	0.064
323.15	9970	0.30073	14.299	0.143
323.16	9980	0.50085	23.581	0.102
323.16	9980	0.7012	32.724	0.173
323.16	9980	0.99903	46.066	0.168
323.16	9980	1	46.119	0.168
323.15	9980	2.0124	89.293	0.3
323.15	9980	2.9999	128.56	0.42
323.15	9980	4.5053	183.51	0.7
323.15	9970	6.0016	232.97	0.9
373.12	9990	0.10156	4.915	1.731
373.12	9990	0.20097	9.649	1.536
373.12	9990	0.30073	14.321	1.576
373.13	9980	0.50085	23.599	0.122
373.13	9980	0.7012	32.714	0.183
373.13	9980	0.99903	46.001	0.377
373.15	9980	2.0124	89.076	0.55
373.15	9970	2.9999	128.3	1.45
373.15	9970	4.5053	183.26	1.03
373.16	9970	6.0016	232.7	0.9
423.1	10010	0.10156	5.195	0.057
423.11	10010	0.10156	5.197	0.057
423.11	10010	0.20097	10.153	0.069
423.11	10010	0.30073	15.035	0.107
423.13	10010	0.50085	24.658	0.188
423.12	10010	0.7012	34.139	0.148
423.12	10010	0.99903	47.881	0.191
423.13	10010	2.0124	92.32	0.335
423.14	10010	2.9999	132.54	0.45
423.15	10020	4.5053	188.72	0.68
423.15	10020	6.0016	239.03	0.85
473.15	10060	0.10156	5.747	0.063
473.15	10060	0.10156	5.744	0.063
473.15	10060	0.20097	11.162	0.078
473.15	10070	0.20097	11.158	0.076
473.15	10060	0.30073	16.479	0.092
473.14	10100	0.50085	26.888	0.167
473.14	10090	0.7012	37.018	0.19
473.11	10090	0.99903	51.658	0.229
473.12	10080	2.0124	98.64	0.418
473.12	10080	2.9999	140.89	0.66
473.12	10070	4.5053	199.45	1.29
473.13	10040	6.0016	251.56	0.81
473.28	10010	6.0016	251.35	0.8
523.15	10030	0.10156	6.807	0.493
523.15	10030	0.10156	6.808	0.493
523.15	10010	0.20097	13.079	0.151
523.15	10020	0.20097	13.091	0.111
523.15	10010	0.30073	19.171	0.132
523.15	10010	0.30073	19.17	0.132
523.15	10010	0.50085	30.975	0.159
523.16	10010	0.7012	42.382	0.462
523.17	10010	0.99903	58.678	0.25
523.17	10010	2.0124	110.27	0.43
523.18	10020	2.9999	155.95	0.57
523.18	10020	2.9999	155.95	0.57
523.18	10020	4.5053	218.29	0.79
523.18	10020	4.5053	218.25	0.79
523.18	10030	6.0016	273.19	2.17
523.19	10030	6.0016	273.19	2.17
573.14	10010	0.050199	4.808	0.262
573.14	10010	0.10156	9.373	0.268
573.14	10000	0.20097	17.676	0.259
573.14	10000	0.30073	25.546	0.273
573.15	9990	0.50085	40.419	0.417
573.16	9990	0.7012	54.45	0.514
573.17	9980	0.99903	74.221	0.862
573.19	9980	2.0124	134.72	1.58
573.14	9980	2.9999	186.49	1.59
573.18	9980	4.5053	255.53	1.8
573.18	9980	6.0016	314.57	1.53

System: potassium hydroxide + water; phases: Liquid
Fixed: Pressure, kPa = 10000
Property: Molar heat capacity at constant pressure, J/K/mol (Liquid); method: Large sample (1 g) DSC
Temperature, K	Molality, mol/kg of potassium hydroxide	Molar heat capacity at constant pressure, J/K/mol	uncertainty
325	0.20097	74.4478115138831	1.15269580394313
337.4	0.20097	74.580326149612	1.15451107292572
349.7	0.20097	74.716471323306	1.1581416108909
362.1	0.20097	74.8943676835996	1.15995687987348
374.5	0.20097	75.1067541545624	1.16358741783866
386.8	0.20097	75.368152888055	1.16721795580383
399.2	0.20097	75.6858249600078	1.1726637627516
411.6	0.20097	76.0797383292293	1.17810956969936
423.9	0.20097	76.5408166508066	1.18537064562971
436.3	0.20097	77.0962889594784	1.19444699054265
448.6	0.20097	77.7370789103318	1.20352333545559
461	0.20097	78.4740781172624	1.2162302183337
473.4	0.20097	79.3562988428	1.22893710121181
485.7	0.20097	80.3964479698226	1.2452745220551
498.1	0.20097	81.6017865742608	1.26342721188098
510.5	0.20097	83.0648933742264	1.28702570865462
522.8	0.20097	84.8311500942842	1.31425474339343
535.2	0.20097	87.0203644872848	1.34874485406259
547.6	0.20097	89.7632359199747	1.39049604066211
555	0.20097	91.7745539526818	1.4213556133661
564.9	0.20097	95.0511144662524	1.47218314487855
325	0.50085	73.8053793262872	1.14357220752778
337.4	0.50085	73.9558976585782	1.14540779694596
349.7	0.50085	74.0917312755237	1.14724338636414
362.1	0.50085	74.2881393432692	1.15091456520051
374.5	0.50085	74.4918897686875	1.15458574403687
386.8	0.50085	74.758050234324	1.15825692287324
399.2	0.50085	75.0572513094878	1.16192810170961
411.6	0.50085	75.4610809814879	1.16927045938234
423.9	0.50085	75.8832665476699	1.17477722763688
436.3	0.50085	76.3605197963974	1.18211958530961
448.7	0.50085	76.9515795890522	1.19129753240053
461	0.50085	77.6050494219252	1.20231106890962
473.4	0.50085	78.3943528717438	1.2151601948369
485.7	0.50085	79.3396814221078	1.22984491018236
498.1	0.50085	80.396980926981	1.24636521494601
510.5	0.50085	81.7222764869089	1.26655669854601
522.8	0.50085	83.2586648299277	1.29041936098239
535.2	0.50085	85.1236236788013	1.31795320225513
547.6	0.50085	87.4768493129114	1.35466499061878
555	0.50085	89.1949610083304	1.38219883189152
564.9	0.50085	91.8859350953861	1.42441738850972
325	0.99903	72.7962349403131	1.12692877564718
337.4	0.99903	73.0541390382224	1.13253538647129
349.8	0.99903	73.2073864007482	1.134404256746
362.1	0.99903	73.4522084067345	1.13814199729541
374.5	0.99903	73.6727350991497	1.14187973784482
386.8	0.99903	73.9586722511796	1.14561747839423
399.2	0.99903	74.2745113276048	1.15122408921834
411.6	0.99903	74.5959570148541	1.15496182976775
423.9	0.99903	74.9136649615539	1.16056844059187
436.3	0.99903	75.3603249572084	1.16804392169069
448.7	0.99903	75.9022973368729	1.17551940278951
461	0.99903	76.5115490464268	1.18486375416303
473.4	0.99903	77.232932972463	1.19607697581126
485.8	0.99903	78.0047763959162	1.2091590677342
498.1	0.99903	78.9354737927193	1.22224115965714
510.5	0.99903	79.9988609790265	1.23906099212948
522.8	0.99903	81.2323153603319	1.25774969487653
535.2	0.99903	82.82833057493	1.2839138787224
547.6	0.99903	84.7046763307339	1.31194693284298
555	0.99903	86.0371808365987	1.33250450586474
564.9	0.99903	88.1172334523455	1.36614417080943
325	2.0124	71.2757048088916	1.10476471798575
337.4	2.0124	71.6355756277101	1.11056908603121
349.8	2.0124	71.8097066690738	1.1125038753797
362.1	2.0124	72.1270121222256	1.11830824342516
374.5	2.0124	72.434643628635	1.12217782212213
386.8	2.0124	72.6532748250139	1.1260474008191
399.2	2.0124	72.9686454888172	1.12991697951608
411.6	2.0124	73.214363736075	1.13378655821305
423.9	2.0124	73.5897128696814	1.13959092625851
436.3	2.0124	73.9592576352423	1.14539529430397
448.7	2.0124	74.4371506043184	1.15313445169791
461	2.0124	74.8550651035915	1.15893881974337
473.4	2.0124	75.4722629057587	1.1686127664858
485.8	2.0124	76.0120691339864	1.17828671322824
498.1	2.0124	76.6989193526991	1.18796065997067
510.5	2.0124	77.4883134068815	1.19956939606159
522.9	2.0124	78.4112079261095	1.21504771084948
535.2	2.0124	79.5217770121408	1.23246081498586
547.6	2.0124	80.9496515513238	1.25374349781921
555	2.0124	81.8067632327032	1.26728702325861
564.9	2.0124	83.0663110985679	1.28663491674348
325	2.9999	70.1545877028718	1.08627488999978
337.4	2.9999	70.5519566424122	1.09226537652551
349.8	2.9999	70.7955697611253	1.09625903420934
362.1	2.9999	71.1170592046731	1.10224952073507
374.5	2.9999	71.4245708463274	1.10624317841889
386.8	2.9999	71.6901490823016	1.11023683610272
399.2	2.9999	72.0276131565847	1.11622732262845
411.6	2.9999	72.2832072483493	1.12022098031227
423.9	2.9999	72.6186744937904	1.1242146379961
436.3	2.9999	72.9142051623933	1.13020512452183
448.7	2.9999	73.2776280116212	1.13619561104756
461	2.9999	73.708943041474	1.1421860975733
473.4	2.9999	74.2860265767864	1.15017341294094
485.7	2.9999	74.7492908681098	1.15816072830859
498.1	2.9999	75.3623173225766	1.16814487251815
510.5	2.9999	75.9094484252603	1.17613218788579
522.8	2.9999	76.7041863043411	1.18811316093726
535.2	2.9999	77.4969273545799	1.20009413398873
547.6	2.9999	78.4893512890098	1.21606876472402
555	2.9999	79.1882413836788	1.22605290893357
564.9	2.9999	80.0948016779065	1.24003071082695
325	4.5053	69.1768905643602	1.07087555024342
337.4	4.5053	69.50044945381	1.07713798036181
349.8	4.5053	69.8240083432597	1.08131293377406
362.1	4.5053	70.1976666736566	1.08757536389244
374.5	4.5053	70.5003507960451	1.0917503173047
386.8	4.5053	70.77798519796	1.09592527071695
399.2	4.5053	71.1245063311772	1.10218770083534
411.6	4.5053	71.3708285825003	1.10636265424759
423.9	4.5053	71.6860375651255	1.11053760765985
436.3	4.5053	71.9490596300976	1.1147125610721
448.7	4.5053	72.3749048781476	1.12097499119048
461	4.5053	72.7381258250138	1.12723742130887
473.4	4.5053	73.1430963060025	1.13349985142725
485.7	4.5053	73.5626791239342	1.13976228154563
498.1	4.5053	74.0469737197557	1.14811218837014
510.5	4.5053	74.4331569103893	1.1522871417824
522.8	4.5053	74.9946881443376	1.16272452531303
535.2	4.5053	75.5395195646369	1.17107443213754
547.6	4.5053	76.2638739816632	1.18151181566818
555	4.5053	76.7335562405419	1.18986172249269
564.9	4.5053	77.4641730876865	1.20029910602333
325	6.0016	68.41169765194	1.0605117043884
337.4	6.0016	68.8398140571952	1.06703124355472
349.7	6.0016	69.1918691721766	1.07137760299893
362.1	6.0016	69.6156392179875	1.07789714216526
374.5	6.0016	69.9763870518573	1.08441668133158
386.8	6.0016	70.3067103696176	1.08876304077579
399.2	6.0016	70.6218214293232	1.09310940022001
411.5	6.0016	70.860871198755	1.09745575966422
423.9	6.0016	71.1325186640184	1.10180211910844
436.3	6.0016	71.428071106225	1.10614847855265
448.6	6.0016	71.7757798617622	1.11266801771897
461	6.0016	72.0409077878593	1.11701437716319
473.4	6.0016	72.438599677005	1.1213607366074
485.7	6.0016	72.8341183864285	1.12788027577372
498.1	6.0016	73.2731006902942	1.13439981494005
510.5	6.0016	73.6903511969388	1.14091935410637
522.8	6.0016	74.1619311966361	1.1496120729948
535.2	6.0016	74.5074667724512	1.15395843243901
547.6	6.0016	75.111610735197	1.16482433104955
555	6.0016	75.41368271657	1.16917069049376
564.9	6.0016	75.7744305504398	1.17351704993798
