Measured thermophysical data. Density, Viscosity, Speed of Sound, Bulk Modulus, Surface Tension, and Flash Point of Selected Ternary Mixtures of n-Butylcyclohexane + a Linear Alkane (n-Hexadcane or n-Dodecane) + an Aromatic Compound (Toluene, n-Butylbenzene, or n-Hexylbenzene)
Source: J. Chem. Eng. Data, 2017, 10.1021/acs.jced.7b00466
Compound 1: toluene, C7H8, InChI=1S/C7H8/c1-7-5-3-2-4-6-7/h2-6H,1H3, purity 99.89%
Compound 2: butylcyclohexane, C10H20, InChI=1S/C10H20/c1-2-3-7-10-8-5-4-6-9-10/h10H,2-9H2,1H3, purity 99.9%
Compound 3: hexadecane, C16H34, InChI=1S/C16H34/c1-3-5-7-9-11-13-15-16-14-12-10-8-6-4-2/h3-16H2,1-2H3, purity 99.8%
Compound 4: butylbenzene, C10H14, InChI=1S/C10H14/c1-2-3-7-10-8-5-4-6-9-10/h4-6,8-9H,2-3,7H2,1H3, purity 99.9%
Compound 5: hexylbenzene, C12H18, InChI=1S/C12H18/c1-2-3-4-6-9-12-10-7-5-8-11-12/h5,7-8,10-11H,2-4,6,9H2,1H3, purity 99.6%
Compound 6: dodecane, C12H26, InChI=1S/C12H26/c1-3-5-7-9-11-12-10-8-6-4-2/h3-12H2,1-2H3, purity 99.1%

System: toluene; phases: Liquid, Gas
Property: Surface tension liquid-gas, N/m (Liquid); method: Pendant drop shape
Temperature, K	Surface tension liquid-gas, N/m	uncertainty
293	0.0286	0.0003

System: butylcyclohexane; phases: Liquid
Fixed: Pressure, kPa = 102
Property: Mass density, kg/m3 (Liquid); method: Vibrating tube method
Temperature, K	Mass density, kg/m3	uncertainty
293.15	799.33	0.2
303.15	791.82	0.2
313.15	784.28	0.2
323.15	776.7	0.2
333.15	769.09	0.2
343.15	761.4	0.5

System: butylcyclohexane; phases: Liquid
Fixed: Pressure, kPa = 102
Fixed: Frequency, MHz = 3
Property: Speed of sound, m/s (Liquid); method: Sing-around technique in a fixed-path interferometer
Temperature, K	Speed of sound, m/s	uncertainty
293.15	1327.7	1
303.15	1287.9	1
313.15	1248.7	1
323.15	1210.3	1
333.15	1172.6	1

System: butylcyclohexane; phases: Liquid
Fixed: Pressure, kPa = 102
Property: Viscosity, Pa*s (Liquid); method: Concentric cylinders viscometry
Temperature, K	Viscosity, Pa*s	uncertainty
293.15	0.00131	1e-05
303.15	0.00111	1e-05
313.15	0.000961	1.2e-05
323.15	0.000837	1.2e-05
333.15	0.000736	1.1e-05
343.15	0.000653	1.1e-05

System: butylcyclohexane; phases: Liquid, Gas
Property: Surface tension liquid-gas, N/m (Liquid); method: Pendant drop shape
Temperature, K	Surface tension liquid-gas, N/m	uncertainty
294.5	0.0266	0.0003

System: hexadecane; phases: Liquid
Fixed: Pressure, kPa = 102
Property: Mass density, kg/m3 (Liquid); method: Vibrating tube method
Temperature, K	Mass density, kg/m3	uncertainty
293.15	773.42	0.32
303.15	766.47	0.32
313.15	759.55	0.32
323.15	752.63	0.32
333.15	745.71	0.32
343.15	738.8	0.9

System: hexadecane; phases: Liquid
Fixed: Pressure, kPa = 102
Fixed: Frequency, MHz = 3
Property: Speed of sound, m/s (Liquid); method: Sing-around technique in a fixed-path interferometer
Temperature, K	Speed of sound, m/s	uncertainty
293.15	1356.4	1
303.15	1319	1
313.15	1282.6	1
323.15	1246.9	1
333.15	1212	1

System: hexadecane; phases: Liquid
Fixed: Pressure, kPa = 102
Property: Viscosity, Pa*s (Liquid); method: Concentric cylinders viscometry
Temperature, K	Viscosity, Pa*s	uncertainty
293.15	0.00343	2e-05
303.15	0.00272	2e-05
313.15	0.0022	2e-05
323.15	0.00182	1e-05
333.15	0.00154	1e-05
343.15	0.00131	1e-05

System: hexadecane; phases: Liquid, Gas
Property: Surface tension liquid-gas, N/m (Liquid); method: Pendant drop shape
Temperature, K	Surface tension liquid-gas, N/m	uncertainty
294	0.0272	0.0003

System: butylbenzene; phases: Liquid
Fixed: Pressure, kPa = 102
Property: Mass density, kg/m3 (Liquid); method: Vibrating tube method
Temperature, K	Mass density, kg/m3	uncertainty
293.15	860.6	0.19
303.15	852.56	0.19
313.15	844.5	0.19
323.15	836.41	0.19
333.15	828.29	0.19
343.15	820.3	0.5

System: butylbenzene; phases: Liquid
Fixed: Pressure, kPa = 102
Fixed: Frequency, MHz = 3
Property: Speed of sound, m/s (Liquid); method: Sing-around technique in a fixed-path interferometer
Temperature, K	Speed of sound, m/s	uncertainty
293.15	1352.8	1
303.15	1314	1
313.15	1275.8	1
323.15	1238.2	1
333.15	1201.4	1

System: butylbenzene; phases: Liquid
Fixed: Pressure, kPa = 102
Property: Viscosity, Pa*s (Liquid); method: Concentric cylinders viscometry
Temperature, K	Viscosity, Pa*s	uncertainty
293.15	0.00106	1e-05
303.15	0.000915	1.2e-05
313.15	0.000801	1.2e-05
323.15	0.000708	1.1e-05
333.15	0.000631	1.1e-05
343.15	0.000566	1.1e-05

System: butylbenzene; phases: Liquid, Gas
Property: Surface tension liquid-gas, N/m (Liquid); method: Pendant drop shape
Temperature, K	Surface tension liquid-gas, N/m	uncertainty
294.4	0.0288	0.0003

System: hexylbenzene; phases: Liquid
Fixed: Pressure, kPa = 102
Property: Mass density, kg/m3 (Liquid); method: Vibrating tube method
Temperature, K	Mass density, kg/m3	uncertainty
293.15	857.69	0.7
303.15	850.09	0.7
313.15	842.49	0.7
323.15	834.87	0.7
333.15	827.48	0.7
343.15	819.5	2

System: hexylbenzene; phases: Liquid
Fixed: Pressure, kPa = 102
Fixed: Frequency, MHz = 3
Property: Speed of sound, m/s (Liquid); method: Sing-around technique in a fixed-path interferometer
Temperature, K	Speed of sound, m/s	uncertainty
293.15	1374.7	1.1
303.15	1337.3	1.1
313.15	1300.5	1.1
323.15	1264.3	1.1
333.15	1228.8	1.1

System: hexylbenzene; phases: Liquid
Fixed: Pressure, kPa = 102
Property: Viscosity, Pa*s (Liquid); method: Concentric cylinders viscometry
Temperature, K	Viscosity, Pa*s	uncertainty
293.15	0.00168	1e-05
303.15	0.00141	1e-05
313.15	0.0012	1e-05
323.15	0.00103	1e-05
333.15	0.000901	1.2e-05
343.15	0.000794	1.2e-05

System: hexylbenzene; phases: Liquid, Gas
Property: Surface tension liquid-gas, N/m (Liquid); method: Pendant drop shape
Temperature, K	Surface tension liquid-gas, N/m	uncertainty
294.1	0.0294	0.0004

System: dodecane; phases: Liquid
Fixed: Pressure, kPa = 102
Property: Mass density, kg/m3 (Liquid); method: Vibrating tube method
Temperature, K	Mass density, kg/m3	uncertainty
293.15	748.79	1.51
303.15	741.54	1.51
313.15	734.25	1.51
323.15	726.94	1.51
333.15	719.59	1.51
343.15	712.2	4.3

System: dodecane; phases: Liquid
Fixed: Pressure, kPa = 102
Fixed: Frequency, MHz = 3
Property: Speed of sound, m/s (Liquid); method: Sing-around technique in a fixed-path interferometer
Temperature, K	Speed of sound, m/s	uncertainty
293.15	1297.3	1.3
303.15	1259.1	1.3
313.15	1221.5	1.3
323.15	1184.4	1.3
333.15	1148	1.3

System: dodecane; phases: Liquid
Fixed: Pressure, kPa = 102
Property: Viscosity, Pa*s (Liquid); method: Concentric cylinders viscometry
Temperature, K	Viscosity, Pa*s	uncertainty
293.15	0.00147	2e-05
303.15	0.00123	1e-05
313.15	0.00105	1e-05
323.15	0.000902	1.2e-05
333.15	0.000786	1.2e-05
343.15	0.00069	1.2e-05

System: dodecane; phases: Liquid, Gas
Property: Surface tension liquid-gas, N/m (Liquid); method: Pendant drop shape
Temperature, K	Surface tension liquid-gas, N/m	uncertainty
293.6	0.025	0.0003

System: butylbenzene + butylcyclohexane + hexadecane; phases: Liquid
Fixed: Pressure, kPa = 102
Property: Mass density, kg/m3 (Liquid); method: Vibrating tube method
Temperature, K	Solvent: Amount ratio of component to other component of binary solvent of hexadecane	Mole fraction of butylbenzene	Mass density, kg/m3	uncertainty
293.15	0.3333	0	789.5	0.32
293.15	0.3333	0.2004	800.34	0.32
293.15	0.3333	0.4004	812.49	0.32
293.15	0.3333	0.6003	826.28	0.31
293.15	0.3333	0.8002	842.18	0.31
293.15	0.9992	0	782.68	0.32
293.15	0.9992	0.2009	793.17	0.32
293.15	0.9992	0.4003	805.49	0.32
293.15	0.9992	0.6002	820.19	0.32
293.15	0.9992	0.8	838.22	0.31
293.15	3.0006	0	777.44	0.32
293.15	3.0006	0.201	787.52	0.32
293.15	3.0006	0.4009	799.77	0.32
293.15	3.0006	0.601	815.1	0.32
293.15	3.0006	0.8005	834.69	0.31
303.15	0.3333	0	782.27	0.32
303.15	0.3333	0.2004	792.98	0.32
303.15	0.3333	0.4004	804.99	0.32
303.15	0.3333	0.6003	818.63	0.32
303.15	0.3333	0.8002	834.35	0.31
303.15	0.9992	0	775.6	0.32
303.15	0.9992	0.2009	785.97	0.32
303.15	0.9992	0.4003	798.14	0.32
303.15	0.9992	0.6002	812.66	0.32
303.15	0.9992	0.8	830.46	0.31
303.15	3.0006	0	770.45	0.32
303.15	3.0006	0.201	780.42	0.32
303.15	3.0006	0.4009	792.53	0.32
303.15	3.0006	0.601	807.66	0.32
303.15	3.0006	0.8005	827	0.31
313.15	0.3333	0	775.01	0.32
313.15	0.3333	0.2004	785.59	0.32
313.15	0.3333	0.4004	797.46	0.32
313.15	0.3333	0.6003	810.94	0.32
313.15	0.3333	0.8002	826.49	0.31
313.15	0.9992	0	768.51	0.32
313.15	0.9992	0.2009	778.75	0.32
313.15	0.9992	0.4003	790.77	0.32
313.15	0.9992	0.6002	805.1	0.32
313.15	0.9992	0.8	822.68	0.31
313.15	3.0006	0	763.47	0.32
313.15	3.0006	0.201	773.32	0.32
313.15	3.0006	0.4009	785.27	0.32
313.15	3.0006	0.601	800.21	0.32
313.15	3.0006	0.8005	819.28	0.32
323.15	0.3333	0	767.73	0.32
323.15	0.3333	0.2004	778.18	0.32
323.15	0.3333	0.4004	789.91	0.32
323.15	0.3333	0.6003	803.23	0.32
323.15	0.3333	0.8002	818.6	0.32
323.15	0.9992	0	761.41	0.32
323.15	0.9992	0.2009	771.51	0.32
323.15	0.9992	0.4003	783.37	0.32
323.15	0.9992	0.6002	797.52	0.32
323.15	0.9992	0.8	814.87	0.32
323.15	3.0006	0	756.48	0.32
323.15	3.0006	0.201	766.2	0.32
323.15	3.0006	0.4009	778	0.32
323.15	3.0006	0.601	792.73	0.32
323.15	3.0006	0.8005	811.54	0.32
333.15	0.3333	0	760.42	0.32
333.15	0.3333	0.2004	770.74	0.32
333.15	0.3333	0.4004	782.32	0.32
333.15	0.3333	0.6003	795.49	0.32
333.15	0.3333	0.8002	810.68	0.32
333.15	0.9992	0	754.28	0.32
333.15	0.9992	0.2009	764.26	0.32
333.15	0.9992	0.4003	775.95	0.32
333.15	0.9992	0.6002	789.91	0.32
333.15	0.9992	0.8	807.03	0.32
333.15	3.0006	0	749.49	0.32
333.15	3.0006	0.201	759.07	0.32
333.15	3.0006	0.4009	770.71	0.32
333.15	3.0006	0.601	785.23	0.32
333.15	3.0006	0.8005	803.77	0.32
343.15	0.3333	0	753.1	0.9
343.15	0.3333	0.2004	763.2	0.9
343.15	0.3333	0.4004	774.7	0.9
343.15	0.3333	0.6003	787.8	0.9
343.15	0.3333	0.8002	802.7	0.9
343.15	0.9992	0	747.2	0.9
343.15	0.9992	0.2009	756.9	0.9
343.15	0.9992	0.4003	768.5	0.9
343.15	0.9992	0.6002	782.3	0.9
343.15	0.9992	0.8	799.1	0.9
343.15	3.0006	0	742.5	0.9
343.15	3.0006	0.201	751.9	0.9
343.15	3.0006	0.4009	763.4	0.9
343.15	3.0006	0.601	777.7	0.9
343.15	3.0006	0.8005	796	0.9

System: butylbenzene + butylcyclohexane + hexadecane; phases: Liquid
Fixed: Pressure, kPa = 102
Property: Viscosity, Pa*s (Liquid); method: Concentric cylinders viscometry
Temperature, K	Solvent: Amount ratio of component to other component of binary solvent of hexadecane	Mole fraction of butylbenzene	Viscosity, Pa*s	uncertainty
293.15	0.3333	0	0.00178	1e-05
293.15	0.3333	0.2004	0.00156	1e-05
293.15	0.3333	0.4004	0.00138	1e-05
293.15	0.3333	0.6003	0.00125	1e-05
293.15	0.3333	0.8002	0.00114	1e-05
293.15	0.9992	0	0.00229	2e-05
293.15	0.9992	0.2009	0.00193	2e-05
293.15	0.9992	0.4003	0.00165	1e-05
293.15	0.9992	0.6002	0.00141	1e-05
293.15	0.9992	0.8	0.00122	1e-05
293.15	3.0006	0	0.00284	2e-05
293.15	3.0006	0.201	0.00235	2e-05
293.15	3.0006	0.4009	0.00193	1e-05
293.15	3.0006	0.601	0.00158	1e-05
293.15	3.0006	0.8005	0.00129	1e-05
303.15	0.3333	0	0.0015	1e-05
303.15	0.3333	0.2004	0.00132	1e-05
303.15	0.3333	0.4004	0.00118	1e-05
303.15	0.3333	0.6003	0.00107	1e-05
303.15	0.3333	0.8002	0.000983	1.2e-05
303.15	0.9992	0	0.00187	1e-05
303.15	0.9992	0.2009	0.00161	3e-05
303.15	0.9992	0.4003	0.00139	1e-05
303.15	0.9992	0.6002	0.0012	1e-05
303.15	0.9992	0.8	0.00105	1e-05
303.15	3.0006	0	0.00229	2e-05
303.15	3.0006	0.201	0.00192	1e-05
303.15	3.0006	0.4009	0.00161	1e-05
303.15	3.0006	0.601	0.00134	1e-05
303.15	3.0006	0.8005	0.00111	1e-05
313.15	0.3333	0	0.00126	1e-05
313.15	0.3333	0.2004	0.00113	1e-05
313.15	0.3333	0.4004	0.00102	1e-05
313.15	0.3333	0.6003	0.000928	1.2e-05
313.15	0.3333	0.8002	0.000857	1.2e-05
313.15	0.9992	0	0.00156	1e-05
313.15	0.9992	0.2009	0.00136	2e-05
313.15	0.9992	0.4003	0.00119	1e-05
313.15	0.9992	0.6002	0.00104	1e-05
313.15	0.9992	0.8	0.000909	1.2e-05
313.15	3.0006	0	0.00188	1e-05
313.15	3.0006	0.201	0.0016	1e-05
313.15	3.0006	0.4009	0.00136	1e-05
313.15	3.0006	0.601	0.00115	1e-05
313.15	3.0006	0.8005	0.00096	1.2e-05
323.15	0.3333	0	0.00108	1e-05
323.15	0.3333	0.2004	0.000977	1.2e-05
323.15	0.3333	0.4004	0.000887	1.2e-05
323.15	0.3333	0.6003	0.000815	1.2e-05
323.15	0.3333	0.8002	0.000755	1.2e-05
323.15	0.9992	0	0.00133	1e-05
323.15	0.9992	0.2009	0.00116	2e-05
323.15	0.9992	0.4003	0.00103	1e-05
323.15	0.9992	0.6002	0.000905	1.2e-05
323.15	0.9992	0.8	0.000799	1.2e-05
323.15	3.0006	0	0.00158	1e-05
323.15	3.0006	0.201	0.00136	1e-05
323.15	3.0006	0.4009	0.00117	1e-05
323.15	3.0006	0.601	0.000994	1.2e-05
323.15	3.0006	0.8005	0.000842	1.2e-05
333.15	0.3333	0	0.000942	1.2e-05
333.15	0.3333	0.2004	0.000855	1.2e-05
333.15	0.3333	0.4004	0.00078	1.2e-05
333.15	0.3333	0.6003	0.00072	1.1e-05
333.15	0.3333	0.8002	0.00067	1.1e-05
333.15	0.9992	0	0.00114	1e-05
333.15	0.9992	0.2009	0.00101	1e-05
333.15	0.9992	0.4003	0.000898	1.2e-05
333.15	0.9992	0.6002	0.000797	1.2e-05
333.15	0.9992	0.8	0.000708	1.1e-05
333.15	3.0006	0	0.00134	1e-05
333.15	3.0006	0.201	0.00117	1e-05
333.15	3.0006	0.4009	0.00101	1e-05
333.15	3.0006	0.601	0.000872	1.2e-05
333.15	3.0006	0.8005	0.000744	1.2e-05
343.15	0.3333	0	0.000827	1.2e-05
343.15	0.3333	0.2004	0.000756	1.2e-05
343.15	0.3333	0.4004	0.000693	1.1e-05
343.15	0.3333	0.6003	0.000643	1.1e-05
343.15	0.3333	0.8002	0.0006	1.1e-05
343.15	0.9992	0	0.000991	1.2e-05
343.15	0.9992	0.2009	0.000882	2.1e-05
343.15	0.9992	0.4003	0.000793	1.2e-05
343.15	0.9992	0.6002	0.000708	1.1e-05
343.15	0.9992	0.8	0.000633	1.1e-05
343.15	3.0006	0	0.00116	1e-05
343.15	3.0006	0.201	0.00102	1e-05
343.15	3.0006	0.4009	0.000889	1.2e-05
343.15	3.0006	0.601	0.000772	1.2e-05
343.15	3.0006	0.8005	0.000663	1.1e-05

System: butylbenzene + butylcyclohexane + hexadecane; phases: Liquid
Fixed: Pressure, kPa = 102
Fixed: Frequency, MHz = 3
Property: Speed of sound, m/s (Liquid); method: Sing-around technique in a fixed-path interferometer
Temperature, K	Solvent: Amount ratio of component to other component of binary solvent of hexadecane	Mole fraction of butylbenzene	Speed of sound, m/s	uncertainty
293.15	0.3333	0	1335.5	1
293.15	0.3333	0.2004	1334.5	1
293.15	0.3333	0.4004	1335.4	1
293.15	0.3333	0.6003	1338.4	1
293.15	0.3333	0.8002	1343.7	1
293.15	0.9992	0	1342.9	1
293.15	0.9992	0.2009	1340.5	1
293.15	0.9992	0.4003	1339.3	1
293.15	0.9992	0.6002	1340.5	1.4
293.15	0.9992	0.8	1343.9	1
293.15	3.0006	0	1350	1
293.15	3.0006	0.201	1345.9	1
293.15	3.0006	0.4009	1343.3	1
293.15	3.0006	0.601	1342.4	1
293.15	3.0006	0.8005	1344.4	1
303.15	0.3333	0	1297.1	1
303.15	0.3333	0.2004	1296.1	1
303.15	0.3333	0.4004	1297	1
303.15	0.3333	0.6003	1299.9	1.1
303.15	0.3333	0.8002	1305.2	1
303.15	0.9992	0	1305.2	1
303.15	0.9992	0.2009	1302.8	1
303.15	0.9992	0.4003	1301.6	1
303.15	0.9992	0.6002	1302.5	1.4
303.15	0.9992	0.8	1305.6	1
303.15	3.0006	0	1312.7	1
303.15	3.0006	0.201	1308.6	1
303.15	3.0006	0.4009	1305.9	1
303.15	3.0006	0.601	1304.8	1
303.15	3.0006	0.8005	1306.4	1
313.15	0.3333	0	1259.3	1
313.15	0.3333	0.2004	1258.3	1
313.15	0.3333	0.4004	1259.2	1
313.15	0.3333	0.6003	1262.1	1
313.15	0.3333	0.8002	1267.1	1
313.15	0.9992	0	1268.2	1
313.15	0.9992	0.2009	1265.7	1.1
313.15	0.9992	0.4003	1264.3	1
313.15	0.9992	0.6002	1265.2	1.4
313.15	0.9992	0.8	1268	1
313.15	3.0006	0	1276	1
313.15	3.0006	0.201	1272	1
313.15	3.0006	0.4009	1269.1	1
313.15	3.0006	0.601	1267.8	1
313.15	3.0006	0.8005	1269	1
323.15	0.3333	0	1222.1	1
323.15	0.3333	0.2004	1221.1	1
323.15	0.3333	0.4004	1222	1
323.15	0.3333	0.6003	1224.8	1
323.15	0.3333	0.8002	1229.8	1
323.15	0.9992	0	1231.8	1
323.15	0.9992	0.2009	1229.2	1
323.15	0.9992	0.4003	1227.7	1
323.15	0.9992	0.6002	1228.4	1.3
323.15	0.9992	0.8	1230.8	1
323.15	3.0006	0	1240.1	1
323.15	3.0006	0.201	1235.9	1
323.15	3.0006	0.4009	1232.9	1
323.15	3.0006	0.601	1231.4	1
323.15	3.0006	0.8005	1232.2	1
333.15	0.3333	0	1185.7	1
333.15	0.3333	0.2004	1184.8	1
333.15	0.3333	0.4004	1185.6	1
333.15	0.3333	0.6003	1188.3	1.1
333.15	0.3333	0.8002	1193.2	1
333.15	0.9992	0	1196.2	1
333.15	0.9992	0.2009	1193.6	1
333.15	0.9992	0.4003	1191.9	1
333.15	0.9992	0.6002	1192	1
333.15	0.9992	0.8	1194.5	1
333.15	3.0006	0	1205	1
333.15	3.0006	0.201	1200.7	1
333.15	3.0006	0.4009	1197.5	1
333.15	3.0006	0.601	1195.8	1
333.15	3.0006	0.8005	1196.1	1

System: butylbenzene + butylcyclohexane + hexadecane; phases: Liquid, Gas
Fixed: Temperature, K = 294.5
Property: Surface tension liquid-gas, N/m (Liquid); method: Pendant drop shape
Solvent: Amount ratio of component to other component of binary solvent of hexadecane	Mole fraction of butylbenzene	Surface tension liquid-gas, N/m	uncertainty
0.3333	0	0.0267	0.0003
0.3333	0.2004	0.0267	0.0003
0.3333	0.4004	0.0274	0.0003
0.3333	0.6003	0.0277	0.0003
0.3333	0.8002	0.0282	0.0003
0.9992	0	0.0269	0.0003
0.9992	0.2009	0.0271	0.0003
0.9992	0.4003	0.0274	0.0003
0.9992	0.6002	0.0278	0.0003
0.9992	0.8	0.0281	0.0003
3.0006	0	0.027	0.0003
3.0006	0.201	0.0271	0.0005
3.0006	0.4009	0.0273	0.0004
3.0006	0.601	0.0276	0.0004
3.0006	0.8005	0.0281	0.0003

System: hexylbenzene + butylcyclohexane + hexadecane; phases: Liquid
Fixed: Pressure, kPa = 102
Property: Mass density, kg/m3 (Liquid); method: Vibrating tube method
Temperature, K	Solvent: Amount ratio of component to other component of binary solvent of hexadecane	Mole fraction of hexylbenzene	Mass density, kg/m3	uncertainty
293.15	0.3335	0	789.61	0.7
293.15	0.3335	0.2004	801.97	0.7
293.15	0.3335	0.4006	814.9	0.7
293.15	0.3335	0.6003	828.48	0.7
293.15	0.3335	0.7997	842.72	0.7
293.15	0.9997	0	782.68	0.7
293.15	0.9997	0.2004	794.83	0.7
293.15	0.9997	0.4008	808.23	0.7
293.15	0.9997	0.6008	823.01	0.7
293.15	0.9997	0.8003	839.39	0.7
293.15	2.9967	0	777.44	0.7
293.15	2.9967	0.2005	789.28	0.7
293.15	2.9967	0.4025	802.98	0.7
293.15	2.9967	0.6007	818.08	0.7
293.15	2.9967	0.8004	836.26	0.7
303.15	0.3335	0	782.37	0.7
303.15	0.3335	0.2004	794.67	0.7
303.15	0.3335	0.4006	807.53	0.7
303.15	0.3335	0.6003	821.03	0.7
303.15	0.3335	0.7997	835.2	0.7
303.15	0.9997	0	775.6	0.7
303.15	0.9997	0.2004	787.67	0.7
303.15	0.9997	0.4008	800.98	0.7
303.15	0.9997	0.6008	815.66	0.7
303.15	0.9997	0.8003	831.93	0.7
303.15	2.9967	0	770.54	0.7
303.15	2.9967	0.2005	782.11	0.7
303.15	2.9967	0.4025	795.81	0.7
303.15	2.9967	0.6007	810.81	0.7
303.15	2.9967	0.8004	828.84	0.7
313.15	0.3335	0	775.12	0.7
313.15	0.3335	0.2004	787.34	0.7
313.15	0.3335	0.4006	800.14	0.7
313.15	0.3335	0.6003	813.57	0.7
313.15	0.3335	0.7997	827.67	0.7
313.15	0.9997	0	768.51	0.7
313.15	0.9997	0.2004	780.5	0.7
313.15	0.9997	0.4008	793.72	0.7
313.15	0.9997	0.6008	808.29	0.7
313.15	0.9997	0.8003	824.45	0.7
313.15	2.9967	0	763.47	0.7
313.15	2.9967	0.2005	775.05	0.7
313.15	2.9967	0.4025	788.65	0.7
313.15	2.9967	0.6007	803.52	0.7
313.15	2.9967	0.8004	821.41	0.7
323.15	0.3335	0	767.83	0.7
323.15	0.3335	0.2004	780	0.7
323.15	0.3335	0.4006	792.73	0.7
323.15	0.3335	0.6003	806.09	0.7
323.15	0.3335	0.7997	820.12	0.7
323.15	0.9997	0	761.41	0.7
323.15	0.9997	0.2004	773.32	0.7
323.15	0.9997	0.4008	786.44	0.7
323.15	0.9997	0.6008	800.91	0.7
323.15	0.9997	0.8003	816.95	0.7
323.15	2.9967	0	756.48	0.7
323.15	2.9967	0.2005	767.97	0.7
323.15	2.9967	0.4025	781.46	0.7
323.15	2.9967	0.6007	796.22	0.7
323.15	2.9967	0.8004	813.97	0.7
333.15	0.3335	0	760.52	0.7
333.15	0.3335	0.2004	772.63	0.7
333.15	0.3335	0.4006	785.29	0.7
333.15	0.3335	0.6003	798.6	0.7
333.15	0.3335	0.7997	812.56	0.7
333.15	0.9997	0	754.28	0.7
333.15	0.9997	0.2004	766.11	0.7
333.15	0.9997	0.4008	779.14	0.7
333.15	0.9997	0.6008	793.51	0.7
333.15	0.9997	0.8003	809.44	0.7
333.15	2.9967	0	749.48	0.7
333.15	2.9967	0.2005	760.87	0.7
333.15	2.9967	0.4025	774.27	0.7
333.15	2.9967	0.6007	788.9	0.7
333.15	2.9967	0.8004	806.5	0.7
343.15	0.3335	0	753.2	2
343.15	0.3335	0.2004	765.2	2
343.15	0.3335	0.4006	777.7	2
343.15	0.3335	0.6003	791	2
343.15	0.3335	0.7997	804.9	2
343.15	0.9997	0	747.2	2
343.15	0.9997	0.2004	758.9	2
343.15	0.9997	0.4008	771.9	2
343.15	0.9997	0.6008	786.1	2
343.15	0.9997	0.8003	802	2
343.15	2.9967	0	742.5	2
343.15	2.9967	0.2005	753.8	2
343.15	2.9967	0.4025	767	2
343.15	2.9967	0.6007	781.5	2
343.15	2.9967	0.8004	798.9	2

System: hexylbenzene + butylcyclohexane + hexadecane; phases: Liquid
Fixed: Pressure, kPa = 102
Property: Viscosity, Pa*s (Liquid); method: Concentric cylinders viscometry
Temperature, K	Solvent: Amount ratio of component to other component of binary solvent of hexadecane	Mole fraction of hexylbenzene	Viscosity, Pa*s	uncertainty
293.15	0.3335	0	0.00178	1e-05
293.15	0.3335	0.2004	0.00171	1e-05
293.15	0.3335	0.4006	0.00166	1e-05
293.15	0.3335	0.6003	0.00165	1e-05
293.15	0.3335	0.7997	0.00164	1e-05
293.15	0.9997	0	0.00229	2e-05
293.15	0.9997	0.2004	0.0021	2e-05
293.15	0.9997	0.4008	0.00195	1e-05
293.15	0.9997	0.6008	0.00182	1e-05
293.15	0.9997	0.8003	0.00174	1e-05
293.15	2.9967	0	0.00284	2e-05
293.15	2.9967	0.2005	0.00252	2e-05
293.15	2.9967	0.4025	0.00225	2e-05
293.15	2.9967	0.6007	0.00202	1e-05
293.15	2.9967	0.8004	0.00183	1e-05
303.15	0.3335	0	0.00149	1e-05
303.15	0.3335	0.2004	0.00143	1e-05
303.15	0.3335	0.4006	0.0014	1e-05
303.15	0.3335	0.6003	0.00138	1e-05
303.15	0.3335	0.7997	0.00138	1e-05
303.15	0.9997	0	0.00187	1e-05
303.15	0.9997	0.2004	0.00174	1e-05
303.15	0.9997	0.4008	0.00162	1e-05
303.15	0.9997	0.6008	0.00153	1e-05
303.15	0.9997	0.8003	0.00146	1e-05
303.15	2.9967	0	0.00229	2e-05
303.15	2.9967	0.2005	0.00205	1e-05
303.15	2.9967	0.4025	0.00185	1e-05
303.15	2.9967	0.6007	0.00168	1e-05
303.15	2.9967	0.8004	0.00153	1e-05
313.15	0.3335	0	0.00126	1e-05
313.15	0.3335	0.2004	0.00122	1e-05
313.15	0.3335	0.4006	0.00119	1e-05
313.15	0.3335	0.6003	0.00118	1e-05
313.15	0.3335	0.7997	0.00118	1e-05
313.15	0.9997	0	0.00156	1e-05
313.15	0.9997	0.2004	0.00146	1e-05
313.15	0.9997	0.4008	0.00137	1e-05
313.15	0.9997	0.6008	0.0013	1e-05
313.15	0.9997	0.8003	0.00124	1e-05
313.15	2.9967	0	0.00188	1e-05
313.15	2.9967	0.2005	0.0017	1e-05
313.15	2.9967	0.4025	0.00154	1e-05
313.15	2.9967	0.6007	0.00141	1e-05
313.15	2.9967	0.8004	0.00129	1e-05
323.15	0.3335	0	0.00108	1e-05
323.15	0.3335	0.2004	0.00105	1e-05
323.15	0.3335	0.4006	0.00103	1e-05
323.15	0.3335	0.6003	0.00102	1e-05
323.15	0.3335	0.7997	0.00102	1e-05
323.15	0.9997	0	0.00133	1e-05
323.15	0.9997	0.2004	0.00125	1e-05
323.15	0.9997	0.4008	0.00117	1e-05
323.15	0.9997	0.6008	0.00111	1e-05
323.15	0.9997	0.8003	0.00107	1e-05
323.15	2.9967	0	0.00158	1e-05
323.15	2.9967	0.2005	0.00144	1e-05
323.15	2.9967	0.4025	0.00131	1e-05
323.15	2.9967	0.6007	0.00121	1e-05
323.15	2.9967	0.8004	0.00111	1e-05
333.15	0.3335	0	0.000942	1.2e-05
333.15	0.3335	0.2004	0.000913	1.2e-05
333.15	0.3335	0.4006	0.000897	1.2e-05
333.15	0.3335	0.6003	0.000888	1.2e-05
333.15	0.3335	0.7997	0.000889	1.2e-05
333.15	0.9997	0	0.00114	1e-05
333.15	0.9997	0.2004	0.00108	1e-05
333.15	0.9997	0.4008	0.00102	1e-05
333.15	0.9997	0.6008	0.00097	1.2e-05
333.15	0.9997	0.8003	0.00093	1.2e-05
333.15	2.9967	0	0.00134	1e-05
333.15	2.9967	0.2005	0.00123	1e-05
333.15	2.9967	0.4025	0.00113	1e-05
333.15	2.9967	0.6007	0.00105	1e-05
333.15	2.9967	0.8004	0.000966	1.2e-05
343.15	0.3335	0	0.000821	1.2e-05
343.15	0.3335	0.2004	0.000803	1.2e-05
343.15	0.3335	0.4006	0.000791	1.2e-05
343.15	0.3335	0.6003	0.000784	1.2e-05
343.15	0.3335	0.7997	0.000785	1.2e-05
343.15	0.9997	0	0.000991	1.2e-05
343.15	0.9997	0.2004	0.000939	1.2e-05
343.15	0.9997	0.4008	0.000891	1.2e-05
343.15	0.9997	0.6008	0.000853	1.2e-05
343.15	0.9997	0.8003	0.00082	1.2e-05
343.15	2.9967	0	0.00116	1e-05
343.15	2.9967	0.2005	0.00107	1e-05
343.15	2.9967	0.4025	0.000986	1.2e-05
343.15	2.9967	0.6007	0.000915	1.2e-05
343.15	2.9967	0.8004	0.000849	1.2e-05

System: hexylbenzene + butylcyclohexane + hexadecane; phases: Liquid
Fixed: Pressure, kPa = 102
Fixed: Frequency, MHz = 3
Property: Speed of sound, m/s (Liquid); method: Sing-around technique in a fixed-path interferometer
Temperature, K	Solvent: Amount ratio of component to other component of binary solvent of hexadecane	Mole fraction of hexylbenzene	Speed of sound, m/s	uncertainty
293.15	0.3335	0	1335.2	1
293.15	0.3335	0.2004	1340.3	1
293.15	0.3335	0.4006	1346.7	1
293.15	0.3335	0.6003	1354.5	1.1
293.15	0.3335	0.7997	1363.3	1
293.15	0.9997	0	1342.9	1
293.15	0.9997	0.2004	1345.5	1
293.15	0.9997	0.4008	1349.7	1
293.15	0.9997	0.6008	1355.7	1
293.15	0.9997	0.8003	1363.8	1
293.15	2.9967	0	1349.7	1
293.15	2.9967	0.2005	1350.7	1
293.15	2.9967	0.4025	1353.1	1
293.15	2.9967	0.6007	1357.1	1
293.15	2.9967	0.8004	1364	1
303.15	0.3335	0	1296.8	1
303.15	0.3335	0.2004	1302.1	1
303.15	0.3335	0.4006	1308.8	1
303.15	0.3335	0.6003	1316.8	1.2
303.15	0.3335	0.7997	1325.7	1
303.15	0.9997	0	1305.2	1
303.15	0.9997	0.2004	1307.9	1
303.15	0.9997	0.4008	1312.2	1
303.15	0.9997	0.6008	1318.4	1
303.15	0.9997	0.8003	1326.5	1
303.15	2.9967	0	1312.4	1
303.15	2.9967	0.2005	1313.6	1
303.15	2.9967	0.4025	1316	1
303.15	2.9967	0.6007	1320	1
303.15	2.9967	0.8004	1326.8	1
313.15	0.3335	0	1259.1	1
313.15	0.3335	0.2004	1264.5	1
313.15	0.3335	0.4006	1271.5	1
313.15	0.3335	0.6003	1279.6	1.2
313.15	0.3335	0.7997	1288.6	1
313.15	0.9997	0	1268.2	1
313.15	0.9997	0.2004	1270.9	1
313.15	0.9997	0.4008	1275.4	1
313.15	0.9997	0.6008	1281.6	1
313.15	0.9997	0.8003	1289.7	1
313.15	2.9967	0	1275.9	1
313.15	2.9967	0.2005	1277.1	1
313.15	2.9967	0.4025	1279.5	1
313.15	2.9967	0.6007	1283.6	1
313.15	2.9967	0.8004	1290.2	1
323.15	0.3335	0	1222	1
323.15	0.3335	0.2004	1227.7	1
323.15	0.3335	0.4006	1234.8	1
323.15	0.3335	0.6003	1243.2	1.2
323.15	0.3335	0.7997	1252.3	1
323.15	0.9997	0	1231.8	1
323.15	0.9997	0.2004	1234.6	1
323.15	0.9997	0.4008	1239.2	1
323.15	0.9997	0.6008	1245.5	1
323.15	0.9997	0.8003	1253.5	1
323.15	2.9967	0	1239.9	1
323.15	2.9967	0.2005	1241.2	1
323.15	2.9967	0.4025	1243.6	1
323.15	2.9967	0.6007	1247.6	1
323.15	2.9967	0.8004	1254.2	1
333.15	0.3335	0	1185.6	1
333.15	0.3335	0.2004	1191.5	1
333.15	0.3335	0.4006	1198.8	1
333.15	0.3335	0.6003	1207.5	1.4
333.15	0.3335	0.7997	1217	1
333.15	0.9997	0	1196.2	1
333.15	0.9997	0.2004	1199.1	1
333.15	0.9997	0.4008	1203.7	1
333.15	0.9997	0.6008	1210.1	1
333.15	0.9997	0.8003	1218	1
333.15	2.9967	0	1204.7	1
333.15	2.9967	0.2005	1206.1	1
333.15	2.9967	0.4025	1208.5	1
333.15	2.9967	0.6007	1212.5	1
333.15	2.9967	0.8004	1218.9	1

System: hexylbenzene + butylcyclohexane + hexadecane; phases: Liquid, Gas
Fixed: Temperature, K = 294.5
Property: Surface tension liquid-gas, N/m (Liquid); method: Pendant drop shape
Solvent: Amount ratio of component to other component of binary solvent of hexadecane	Mole fraction of hexylbenzene	Surface tension liquid-gas, N/m	uncertainty
0.3335	0	0.0269	0.0003
0.3335	0.2004	0.0272	0.0003
0.3335	0.4006	0.0274	0.0003
0.3335	0.6003	0.0282	0.0003
0.3335	0.7997	0.0285	0.0003
0.9997	0	0.0269	0.0003
0.9997	0.2004	0.027	0.0003
0.9997	0.4008	0.0277	0.0003
0.9997	0.6008	0.0282	0.0003
0.9997	0.8003	0.0286	0.0003
2.9967	0	0.0271	0.0003
2.9967	0.2005	0.0274	0.0003
2.9967	0.4025	0.0274	0.0003
2.9967	0.6007	0.0279	0.0003
2.9967	0.8004	0.0286	0.0003

System: butylbenzene + butylcyclohexane + dodecane; phases: Liquid
Fixed: Pressure, kPa = 102
Property: Mass density, kg/m3 (Liquid); method: Vibrating tube method
Temperature, K	Solvent: Amount ratio of component to other component of binary solvent of dodecane	Mole fraction of butylbenzene	Mass density, kg/m3	uncertainty
293.15	0.3332	0	783.9	1.5
293.15	0.3332	0.2001	796.4	1.5
293.15	0.3332	0.4003	810.2	1.5
293.15	0.3332	0.6003	825.4	1.5
293.15	0.3332	0.8	842.1	1.5
293.15	1.0002	0	770.6	1.5
293.15	1.0002	0.2005	784.6	1.5
293.15	1.0002	0.4007	800.3	1.5
293.15	1.0002	0.6008	817.9	1.5
293.15	1.0002	0.8005	838	1.5
293.15	3.0005	0	759	1.5
293.15	3.0005	0.2007	774	1.5
293.15	3.0005	0.4011	791.1	1.5
293.15	3.0005	0.6013	810.8	1.5
293.15	3.0005	0.8007	833.6	1.5
303.15	0.3332	0	776.5	1.5
303.15	0.3332	0.2001	788.9	1.5
303.15	0.3332	0.4003	802.6	1.5
303.15	0.3332	0.6003	817.6	1.5
303.15	0.3332	0.8	834.2	1.5
303.15	1.0002	0	763.3	1.5
303.15	1.0002	0.2005	777.2	1.5
303.15	1.0002	0.4007	792.7	1.5
303.15	1.0002	0.6008	810.2	1.5
303.15	1.0002	0.8005	830.1	1.5
303.15	3.0005	0	751.7	1.5
303.15	3.0005	0.2007	766.6	1.5
303.15	3.0005	0.4011	783.6	1.5
303.15	3.0005	0.6013	803.2	1.5
303.15	3.0005	0.8007	825.8	1.5
313.15	0.3332	0	769.1	1.5
313.15	0.3332	0.2001	781.4	1.5
313.15	0.3332	0.4003	794.9	1.5
313.15	0.3332	0.6003	809.8	1.5
313.15	0.3332	0.8	826.3	1.5
313.15	1.0002	0	755.9	1.5
313.15	1.0002	0.2005	769.7	1.5
313.15	1.0002	0.4007	785.1	1.5
313.15	1.0002	0.6008	802.5	1.5
313.15	1.0002	0.8005	822.2	1.5
313.15	3.0005	0	744.4	1.5
313.15	3.0005	0.2007	759.2	1.5
313.15	3.0005	0.4011	776	1.5
313.15	3.0005	0.6013	795.5	1.5
313.15	3.0005	0.8007	817.9	1.5
323.15	0.3332	0	761.6	1.5
323.15	0.3332	0.2001	773.8	1.5
323.15	0.3332	0.4003	787.2	1.5
323.15	0.3332	0.6003	802	1.5
323.15	0.3332	0.8	818.3	1.5
323.15	1.0002	0	748.5	1.5
323.15	1.0002	0.2005	762.2	1.5
323.15	1.0002	0.4007	777.5	1.5
323.15	1.0002	0.6008	794.7	1.5
323.15	1.0002	0.8005	814.3	1.5
323.15	3.0005	0	737.1	1.5
323.15	3.0005	0.2007	751.7	1.5
323.15	3.0005	0.4011	768.5	1.5
323.15	3.0005	0.6013	787.7	1.5
323.15	3.0005	0.8007	810.1	1.5
333.15	0.3332	0	754.1	1.5
333.15	0.3332	0.2001	766.2	1.5
333.15	0.3332	0.4003	779.5	1.5
333.15	0.3332	0.6003	794.2	1.5
333.15	0.3332	0.8	810.4	1.5
333.15	1.0002	0	741.1	1.5
333.15	1.0002	0.2005	754.6	1.5
333.15	1.0002	0.4007	769.8	1.5
333.15	1.0002	0.6008	786.9	1.5
333.15	1.0002	0.8005	806.3	1.5
333.15	3.0005	0	729.7	1.5
333.15	3.0005	0.2007	744.2	1.5
333.15	3.0005	0.4011	760.8	1.5
333.15	3.0005	0.6013	780	1.5
333.15	3.0005	0.8007	802.1	1.5
343.15	0.3332	0	746.5	4.3
343.15	0.3332	0.2001	758.4	4.3
343.15	0.3332	0.4003	771.7	4.3
343.15	0.3332	0.6003	786.2	4.3
343.15	0.3332	0.8	802.3	4.3
343.15	1.0002	0	733.6	4.3
343.15	1.0002	0.2005	747	4.3
343.15	1.0002	0.4007	762.1	4.3
343.15	1.0002	0.6008	779.1	4.3
343.15	1.0002	0.8005	798.3	4.3
343.15	3.0005	0	722.2	4.3
343.15	3.0005	0.2007	736.1	4.3
343.15	3.0005	0.4011	753.1	4.3
343.15	3.0005	0.6013	772.1	4.3
343.15	3.0005	0.8007	794.1	4.3

System: butylbenzene + butylcyclohexane + dodecane; phases: Liquid
Fixed: Pressure, kPa = 102
Property: Viscosity, Pa*s (Liquid); method: Concentric cylinders viscometry
Temperature, K	Solvent: Amount ratio of component to other component of binary solvent of dodecane	Mole fraction of butylbenzene	Viscosity, Pa*s	uncertainty
293.15	0.3332	0	0.00134	1e-05
293.15	0.3332	0.2001	0.00123	1e-05
293.15	0.3332	0.4003	0.00115	1e-05
293.15	0.3332	0.6003	0.0011	1e-05
293.15	0.3332	0.8	0.00107	1e-05
293.15	1.0002	0	0.00138	1e-05
293.15	1.0002	0.2005	0.00127	1e-05
293.15	1.0002	0.4007	0.00119	1e-05
293.15	1.0002	0.6008	0.00112	1e-05
293.15	1.0002	0.8005	0.00108	1e-05
293.15	3.0005	0	0.00142	1e-05
293.15	3.0005	0.2007	0.00129	2e-05
293.15	3.0005	0.4011	0.00121	1e-05
293.15	3.0005	0.6013	0.00114	1e-05
293.15	3.0005	0.8007	0.00108	1e-05
303.15	0.3332	0	0.00113	1e-05
303.15	0.3332	0.2001	0.00105	1e-05
303.15	0.3332	0.4003	0.00099	1.2e-05
303.15	0.3332	0.6003	0.000952	1.2e-05
303.15	0.3332	0.8	0.000925	1.2e-05
303.15	1.0002	0	0.00117	1e-05
303.15	1.0002	0.2005	0.00108	1e-05
303.15	1.0002	0.4007	0.00101	1e-05
303.15	1.0002	0.6008	0.000965	1.2e-05
303.15	1.0002	0.8005	0.000932	1.2e-05
303.15	3.0005	0	0.0012	1e-05
303.15	3.0005	0.2007	0.0011	2e-05
303.15	3.0005	0.4011	0.00103	1e-05
303.15	3.0005	0.6013	0.000976	1.2e-05
303.15	3.0005	0.8007	0.000934	1.2e-05
313.15	0.3332	0	0.000974	1.2e-05
313.15	0.3332	0.2001	0.00091	1.2e-05
313.15	0.3332	0.4003	0.00086	1.2e-05
313.15	0.3332	0.6003	0.00083	1.2e-05
313.15	0.3332	0.8	0.000809	1.2e-05
313.15	1.0002	0	0.001	1e-05
313.15	1.0002	0.2005	0.000933	1.2e-05
313.15	1.0002	0.4007	0.000879	1.2e-05
313.15	1.0002	0.6008	0.000841	1.2e-05
313.15	1.0002	0.8005	0.000814	1.2e-05
313.15	3.0005	0	0.00102	1e-05
313.15	3.0005	0.2007	0.000944	2.1e-05
313.15	3.0005	0.4011	0.000894	1.2e-05
313.15	3.0005	0.6013	0.000848	1.2e-05
313.15	3.0005	0.8007	0.000816	1.2e-05
323.15	0.3332	0	0.000846	1.2e-05
323.15	0.3332	0.2001	0.000796	1.2e-05
323.15	0.3332	0.4003	0.000755	1.2e-05
323.15	0.3332	0.6003	0.000731	1.2e-05
323.15	0.3332	0.8	0.000713	1.2e-05
323.15	1.0002	0	0.000865	1.2e-05
323.15	1.0002	0.2005	0.000813	1.2e-05
323.15	1.0002	0.4007	0.000769	1.2e-05
323.15	1.0002	0.6008	0.000739	1.2e-05
323.15	1.0002	0.8005	0.000717	1.2e-05
323.15	3.0005	0	0.000883	1.2e-05
323.15	3.0005	0.2007	0.000821	1.2e-05
323.15	3.0005	0.4011	0.000782	1.2e-05
323.15	3.0005	0.6013	0.000746	1.2e-05
323.15	3.0005	0.8007	0.000719	1.2e-05
333.15	0.3332	0	0.000743	1.2e-05
333.15	0.3332	0.2001	0.000701	1.2e-05
333.15	0.3332	0.4003	0.000668	1.1e-05
333.15	0.3332	0.6003	0.000649	1.1e-05
333.15	0.3332	0.8	0.000635	1.1e-05
333.15	1.0002	0	0.000757	1.2e-05
333.15	1.0002	0.2005	0.000715	1.2e-05
333.15	1.0002	0.4007	0.00068	1.1e-05
333.15	1.0002	0.6008	0.000656	1.1e-05
333.15	1.0002	0.8005	0.000639	1.1e-05
333.15	3.0005	0	0.00077	1.2e-05
333.15	3.0005	0.2007	0.000721	1.2e-05
333.15	3.0005	0.4011	0.00069	1.1e-05
333.15	3.0005	0.6013	0.00066	1.1e-05
333.15	3.0005	0.8007	0.000639	1.1e-05
343.15	0.3332	0	0.000656	1.1e-05
343.15	0.3332	0.2001	0.000623	1.1e-05
343.15	0.3332	0.4003	0.000596	1.1e-05
343.15	0.3332	0.6003	0.000581	1.1e-05
343.15	0.3332	0.8	0.000569	1.1e-05
343.15	1.0002	0	0.000668	1.1e-05
343.15	1.0002	0.2005	0.000635	1.1e-05
343.15	1.0002	0.4007	0.000607	1.1e-05
343.15	1.0002	0.6008	0.000586	1.1e-05
343.15	1.0002	0.8005	0.000572	1.1e-05
343.15	3.0005	0	0.000678	1.1e-05
343.15	3.0005	0.2007	0.000639	1.1e-05
343.15	3.0005	0.4011	0.000614	1.1e-05
343.15	3.0005	0.6013	0.000589	1.1e-05
343.15	3.0005	0.8007	0.000573	1.1e-05

System: butylbenzene + butylcyclohexane + dodecane; phases: Liquid
Fixed: Pressure, kPa = 102
Fixed: Frequency, MHz = 3
Property: Speed of sound, m/s (Liquid); method: Sing-around technique in a fixed-path interferometer
Temperature, K	Solvent: Amount ratio of component to other component of binary solvent of dodecane	Mole fraction of butylbenzene	Speed of sound, m/s	uncertainty
293.15	0.3332	0	1317.5	1.1
293.15	0.3332	0.2001	1319.8	1.1
293.15	0.3332	0.4003	1324.5	1.1
293.15	0.3332	0.6003	1331	1.1
293.15	0.3332	0.8	1340.2	1.1
293.15	1.0002	0	1308.8	1.1
293.15	1.0002	0.2005	1312.2	1.1
293.15	1.0002	0.4007	1317.6	1.1
293.15	1.0002	0.6008	1325.7	1.1
293.15	1.0002	0.8005	1337.1	1.1
293.15	3.0005	0	1302.6	1.1
293.15	3.0005	0.2007	1306.3	1.1
293.15	3.0005	0.4011	1312.3	1.1
293.15	3.0005	0.6013	1321.3	1.1
293.15	3.0005	0.8007	1334.3	1.1
303.15	0.3332	0	1278.4	1.1
303.15	0.3332	0.2001	1280.9	1.1
303.15	0.3332	0.4003	1285.6	1.1
303.15	0.3332	0.6003	1292.3	1.1
303.15	0.3332	0.8	1301.4	1.1
303.15	1.0002	0	1270.1	1.1
303.15	1.0002	0.2005	1273.7	1.1
303.15	1.0002	0.4007	1279.2	1.1
303.15	1.0002	0.6008	1287.2	1.1
303.15	1.0002	0.8005	1298.5	1.1
303.15	3.0005	0	1264.3	1.1
303.15	3.0005	0.2007	1268	1.1
303.15	3.0005	0.4011	1274.1	1.1
303.15	3.0005	0.6013	1283	1.1
303.15	3.0005	0.8007	1295.8	1.1
313.15	0.3332	0	1239.9	1.1
313.15	0.3332	0.2001	1242.5	1.1
313.15	0.3332	0.4003	1247.3	1.1
313.15	0.3332	0.6003	1254	1.1
313.15	0.3332	0.8	1263.2	1.1
313.15	1.0002	0	1232	1.1
313.15	1.0002	0.2005	1235.7	1.1
313.15	1.0002	0.4007	1241.3	1.1
313.15	1.0002	0.6008	1249.3	1.1
313.15	1.0002	0.8005	1260.4	1.1
313.15	3.0005	0	1226.5	1.1
313.15	3.0005	0.2007	1230.4	1.1
313.15	3.0005	0.4011	1236.4	1.1
313.15	3.0005	0.6013	1245.3	1.1
313.15	3.0005	0.8007	1257.9	1.1
323.15	0.3332	0	1202	1.1
323.15	0.3332	0.2001	1204.8	1.1
323.15	0.3332	0.4003	1209.7	1.1
323.15	0.3332	0.6003	1216.4	1.1
323.15	0.3332	0.8	1225.7	1.1
323.15	1.0002	0	1194.6	1
323.15	1.0002	0.2005	1198.4	1
323.15	1.0002	0.4007	1203.9	1.1
323.15	1.0002	0.6008	1211.9	1.1
323.15	1.0002	0.8005	1223.1	1.1
323.15	3.0005	0	1189.3	1
323.15	3.0005	0.2007	1193.3	1
323.15	3.0005	0.4011	1199.3	1.1
323.15	3.0005	0.6013	1208.1	1.1
323.15	3.0005	0.8007	1220.6	1.1
333.15	0.3332	0	1164.8	1
333.15	0.3332	0.2001	1167.8	1
333.15	0.3332	0.4003	1172.9	1
333.15	0.3332	0.6003	1179.6	1
333.15	0.3332	0.8	1189.1	1
333.15	1.0002	0	1157.9	1
333.15	1.0002	0.2005	1161.7	1
333.15	1.0002	0.4007	1167.3	1
333.15	1.0002	0.6008	1175.3	1
333.15	1.0002	0.8005	1186.5	1
333.15	3.0005	0	1152.9	1
333.15	3.0005	0.2007	1156.9	1
333.15	3.0005	0.4011	1162.9	1
333.15	3.0005	0.6013	1171.7	1
333.15	3.0005	0.8007	1184.1	1

System: butylbenzene + butylcyclohexane + dodecane; phases: Liquid, Gas
Fixed: Temperature, K = 294.5
Property: Surface tension liquid-gas, N/m (Liquid); method: Pendant drop shape
Solvent: Amount ratio of component to other component of binary solvent of dodecane	Mole fraction of butylbenzene	Surface tension liquid-gas, N/m	uncertainty
0.3332	0	0.0261	0.0003
0.3332	0.2001	0.0263	0.0004
0.3332	0.4003	0.0267	0.0004
0.3332	0.6003	0.0273	0.0003
0.3332	0.8	0.0278	0.0003
1.0002	0	0.0256	0.0003
1.0002	0.2005	0.026	0.0004
1.0002	0.4007	0.0265	0.0003
1.0002	0.6008	0.0271	0.0003
1.0002	0.8005	0.0278	0.0003
3.0005	0	0.0253	0.0003
3.0005	0.2007	0.0257	0.0003
3.0005	0.4011	0.0262	0.0003
3.0005	0.6013	0.0268	0.0003
3.0005	0.8007	0.0278	0.0004

System: hexylbenzene + butylcyclohexane + dodecane; phases: Liquid
Fixed: Pressure, kPa = 102
Property: Mass density, kg/m3 (Liquid); method: Vibrating tube method
Temperature, K	Solvent: Amount ratio of component to other component of binary solvent of dodecane	Mole fraction of hexylbenzene	Mass density, kg/m3	uncertainty
293.15	0.3332	0	783.9	1.5
293.15	0.3332	0.2008	798.4	1.5
293.15	0.3332	0.4002	812.9	1.5
293.15	0.3332	0.6001	827.7	1.5
293.15	0.3332	0.8004	842.6	1.5
293.15	1.0001	0	770.6	1.5
293.15	1.0001	0.2002	786.8	1.5
293.15	1.0001	0.3999	803.5	1.5
293.15	1.0001	0.5973	820.7	1.5
293.15	1.0001	0.8	839	1.5
293.15	2.9949	0	759	1.5
293.15	2.9949	0.2008	776.5	1.5
293.15	2.9949	0.3999	794.9	1.5
293.15	2.9949	0.5999	814.6	1.5
293.15	2.9949	0.8002	835.5	1.5
303.15	0.3332	0	776.5	1.5
303.15	0.3332	0.2008	790.9	1.5
303.15	0.3332	0.4002	805.4	1.5
303.15	0.3332	0.6001	820.1	1.5
303.15	0.3332	0.8004	835.1	1.5
303.15	1.0001	0	763.3	1.5
303.15	1.0001	0.2002	779.4	1.5
303.15	1.0001	0.3999	796.1	1.5
303.15	1.0001	0.5973	813.2	1.5
303.15	1.0001	0.8	831.4	1.5
303.15	2.9949	0	751.7	1.5
303.15	2.9949	0.2008	769.2	1.5
303.15	2.9949	0.3999	787.5	1.5
303.15	2.9949	0.5999	807.1	1.5
303.15	2.9949	0.8002	828	1.5
313.15	0.3332	0	769.1	1.5
313.15	0.3332	0.2008	783.4	1.5
313.15	0.3332	0.4002	797.9	1.5
313.15	0.3332	0.6001	812.6	1.5
313.15	0.3332	0.8004	827.5	1.5
313.15	1.0001	0	755.9	1.5
313.15	1.0001	0.2002	772	1.5
313.15	1.0001	0.3999	788.6	1.5
313.15	1.0001	0.5973	805.7	1.5
313.15	1.0001	0.8	823.9	1.5
313.15	2.9949	0	744.4	1.5
313.15	2.9949	0.2008	761.8	1.5
313.15	2.9949	0.3999	780.1	1.5
313.15	2.9949	0.5999	799.6	1.5
313.15	2.9949	0.8002	820.4	1.5
323.15	0.3332	0	761.6	1.5
323.15	0.3332	0.2008	775.9	1.5
323.15	0.3332	0.4002	790.4	1.5
323.15	0.3332	0.6001	805	1.5
323.15	0.3332	0.8004	819.9	1.5
323.15	1.0001	0	748.5	1.5
323.15	1.0001	0.2002	764.5	1.5
323.15	1.0001	0.3999	781.1	1.5
323.15	1.0001	0.5973	798.2	1.5
323.15	1.0001	0.8	816.3	1.5
323.15	2.9949	0	737.1	1.5
323.15	2.9949	0.2008	754.4	1.5
323.15	2.9949	0.3999	772.7	1.5
323.15	2.9949	0.5999	792.1	1.5
323.15	2.9949	0.8002	812.9	1.5
333.15	0.3332	0	754.1	1.5
333.15	0.3332	0.2008	768.4	1.5
333.15	0.3332	0.4002	782.8	1.5
333.15	0.3332	0.6001	797.5	1.5
333.15	0.3332	0.8004	812.3	1.5
333.15	1.0001	0	741.1	1.5
333.15	1.0001	0.2002	757.1	1.5
333.15	1.0001	0.3999	773.6	1.5
333.15	1.0001	0.5973	790.6	1.5
333.15	1.0001	0.8	808.7	1.5
333.15	2.9949	0	729.7	1.5
333.15	2.9949	0.2008	747	1.5
333.15	2.9949	0.3999	765.2	1.5
333.15	2.9949	0.5999	784.6	1.5
333.15	2.9949	0.8002	805.3	1.5
343.15	0.3332	0	746.5	4.3
343.15	0.3332	0.2008	760.7	4.3
343.15	0.3332	0.4002	775.2	4.3
343.15	0.3332	0.6001	789.8	4.3
343.15	0.3332	0.8004	804.6	4.3
343.15	1.0001	0	733.7	4.3
343.15	1.0001	0.2002	749.7	4.3
343.15	1.0001	0.3999	766.3	4.3
343.15	1.0001	0.5973	783.2	4.3
343.15	1.0001	0.8	801.2	4.3
343.15	2.9949	0	722.5	4.3
343.15	2.9949	0.2008	739.7	4.3
343.15	2.9949	0.3999	757.8	4.3
343.15	2.9949	0.5999	777.3	4.3
343.15	2.9949	0.8002	797.9	4.3

System: hexylbenzene + butylcyclohexane + dodecane; phases: Liquid
Fixed: Pressure, kPa = 102
Property: Viscosity, Pa*s (Liquid); method: Concentric cylinders viscometry
Temperature, K	Solvent: Amount ratio of component to other component of binary solvent of dodecane	Mole fraction of hexylbenzene	Viscosity, Pa*s	uncertainty
293.15	0.3332	0	0.00134	1e-05
293.15	0.3332	0.2008	0.00136	1e-05
293.15	0.3332	0.4002	0.00141	1e-05
293.15	0.3332	0.6001	0.00148	1e-05
293.15	0.3332	0.8004	0.00156	1e-05
293.15	1.0001	0	0.00138	1e-05
293.15	1.0001	0.2002	0.00139	1e-05
293.15	1.0001	0.3999	0.00143	1e-05
293.15	1.0001	0.5973	0.00148	1e-05
293.15	1.0001	0.8	0.00155	1e-05
293.15	2.9949	0	0.00144	1e-05
293.15	2.9949	0.2008	0.00144	1e-05
293.15	2.9949	0.3999	0.00145	1e-05
293.15	2.9949	0.5999	0.00149	1e-05
293.15	2.9949	0.8002	0.00157	1e-05
303.15	0.3332	0	0.00113	1e-05
303.15	0.3332	0.2008	0.00115	1e-05
303.15	0.3332	0.4002	0.00119	1e-05
303.15	0.3332	0.6001	0.00124	1e-05
303.15	0.3332	0.8004	0.00131	1e-05
303.15	1.0001	0	0.00117	1e-05
303.15	1.0001	0.2002	0.00118	1e-05
303.15	1.0001	0.3999	0.00121	1e-05
303.15	1.0001	0.5973	0.00125	1e-05
303.15	1.0001	0.8	0.00131	1e-05
303.15	2.9949	0	0.00122	1e-05
303.15	2.9949	0.2008	0.00122	1e-05
303.15	2.9949	0.3999	0.00123	1e-05
303.15	2.9949	0.5999	0.00126	1e-05
303.15	2.9949	0.8002	0.00132	1e-05
313.15	0.3332	0	0.000972	1.2e-05
313.15	0.3332	0.2008	0.000992	1.2e-05
313.15	0.3332	0.4002	0.00102	1e-05
313.15	0.3332	0.6001	0.00107	1e-05
313.15	0.3332	0.8004	0.00112	1e-05
313.15	1.0001	0	0.00101	1e-05
313.15	1.0001	0.2002	0.00102	1e-05
313.15	1.0001	0.3999	0.00103	1e-05
313.15	1.0001	0.5973	0.00107	1e-05
313.15	1.0001	0.8	0.00112	1e-05
313.15	2.9949	0	0.00104	1e-05
313.15	2.9949	0.2008	0.00104	1e-05
313.15	2.9949	0.3999	0.00105	1e-05
313.15	2.9949	0.5999	0.00108	1e-05
313.15	2.9949	0.8002	0.00112	1e-05
323.15	0.3332	0	0.000845	1.2e-05
323.15	0.3332	0.2008	0.000862	1.2e-05
323.15	0.3332	0.4002	0.000889	1.2e-05
323.15	0.3332	0.6001	0.000925	1.2e-05
323.15	0.3332	0.8004	0.000972	1.2e-05
323.15	1.0001	0	0.00088	1.2e-05
323.15	1.0001	0.2002	0.000888	1.2e-05
323.15	1.0001	0.3999	0.000893	1.2e-05
323.15	1.0001	0.5973	0.00092	1.2e-05
323.15	1.0001	0.8	0.000972	1.2e-05
323.15	2.9949	0	0.000896	1.2e-05
323.15	2.9949	0.2008	0.000897	1.2e-05
323.15	2.9949	0.3999	0.000917	1.2e-05
323.15	2.9949	0.5999	0.000936	1.2e-05
323.15	2.9949	0.8002	0.000969	1.2e-05
333.15	0.3332	0	0.000741	1.2e-05
333.15	0.3332	0.2008	0.000757	1.2e-05
333.15	0.3332	0.4002	0.00078	1.2e-05
333.15	0.3332	0.6001	0.000811	1.2e-05
333.15	0.3332	0.8004	0.00085	1.2e-05
333.15	1.0001	0	0.000774	1.2e-05
333.15	1.0001	0.2002	0.000782	1.2e-05
333.15	1.0001	0.3999	0.000788	1.2e-05
333.15	1.0001	0.5973	0.000811	1.2e-05
333.15	1.0001	0.8	0.000854	1.2e-05
333.15	2.9949	0	0.000788	1.2e-05
333.15	2.9949	0.2008	0.00079	1.2e-05
333.15	2.9949	0.3999	0.000808	1.2e-05
333.15	2.9949	0.5999	0.000824	1.2e-05
333.15	2.9949	0.8002	0.000853	1.2e-05
343.15	0.3332	0	0.000656	1.1e-05
343.15	0.3332	0.2008	0.000671	1.2e-05
343.15	0.3332	0.4002	0.000691	1.2e-05
343.15	0.3332	0.6001	0.000718	1.2e-05
343.15	0.3332	0.8004	0.000751	1.2e-05
343.15	1.0001	0	0.000686	1.2e-05
343.15	1.0001	0.2002	0.000695	1.2e-05
343.15	1.0001	0.3999	0.000701	1.2e-05
343.15	1.0001	0.5973	0.000722	1.2e-05
343.15	1.0001	0.8	0.000759	1.2e-05
343.15	2.9949	0	0.000699	1.2e-05
343.15	2.9949	0.2008	0.000703	1.2e-05
343.15	2.9949	0.3999	0.000717	1.2e-05
343.15	2.9949	0.5999	0.000733	1.2e-05
343.15	2.9949	0.8002	0.000759	1.2e-05

System: hexylbenzene + butylcyclohexane + dodecane; phases: Liquid
Fixed: Pressure, kPa = 102
Fixed: Frequency, MHz = 3
Property: Speed of sound, m/s (Liquid); method: Sing-around technique in a fixed-path interferometer
Temperature, K	Solvent: Amount ratio of component to other component of binary solvent of dodecane	Mole fraction of hexylbenzene	Speed of sound, m/s	uncertainty
293.15	0.3332	0	1317.3	1.1
293.15	0.3332	0.2008	1326.5	1.1
293.15	0.3332	0.4002	1337.1	1.1
293.15	0.3332	0.6001	1348.5	1.1
293.15	0.3332	0.8004	1361.1	1.1
293.15	1.0001	0	1309	1.1
293.15	1.0001	0.2002	1319.1	1.1
293.15	1.0001	0.3999	1330.3	1.1
293.15	1.0001	0.5973	1343.3	1.1
293.15	1.0001	0.8	1358.3	1.1
293.15	2.9949	0	1302.4	1.1
293.15	2.9949	0.2008	1312.9	1.1
293.15	2.9949	0.3999	1325	1.1
293.15	2.9949	0.5999	1339.2	1.1
293.15	2.9949	0.8002	1355.8	1.1
303.15	0.3332	0	1278.1	1.1
303.15	0.3332	0.2008	1287.8	1.1
303.15	0.3332	0.4002	1298.7	1.1
303.15	0.3332	0.6001	1310.5	1.1
303.15	0.3332	0.8004	1323.4	1.1
303.15	1.0001	0	1270.4	1.1
303.15	1.0001	0.2002	1280.8	1.1
303.15	1.0001	0.3999	1292.2	1.1
303.15	1.0001	0.5973	1305.5	1.1
303.15	1.0001	0.8	1320.6	1.1
303.15	2.9949	0	1264	1.1
303.15	2.9949	0.2008	1274.8	1.1
303.15	2.9949	0.3999	1287.1	1.1
303.15	2.9949	0.5999	1301.5	1.1
303.15	2.9949	0.8002	1318.4	1.1
313.15	0.3332	0	1239.7	1.1
313.15	0.3332	0.2008	1249.7	1.1
313.15	0.3332	0.4002	1261	1.1
313.15	0.3332	0.6001	1273.1	1.1
313.15	0.3332	0.8004	1286.3	1.2
313.15	1.0001	0	1232.3	1.1
313.15	1.0001	0.2002	1243.1	1.1
313.15	1.0001	0.3999	1254.8	1.1
313.15	1.0001	0.5973	1268.2	1.1
313.15	1.0001	0.8	1283.6	1.1
313.15	2.9949	0	1226.2	1.1
313.15	2.9949	0.2008	1237.3	1.1
313.15	2.9949	0.3999	1249.9	1.1
313.15	2.9949	0.5999	1264.5	1.1
313.15	2.9949	0.8002	1281.4	1.1
323.15	0.3332	0	1201.8	1.1
323.15	0.3332	0.2008	1212.3	1.1
323.15	0.3332	0.4002	1223.9	1.1
323.15	0.3332	0.6001	1236.3	1.1
323.15	0.3332	0.8004	1249.8	1.2
323.15	1.0001	0	1194.8	1.1
323.15	1.0001	0.2002	1206	1.1
323.15	1.0001	0.3999	1217.9	1.1
323.15	1.0001	0.5973	1231.6	1.1
323.15	1.0001	0.8	1247.1	1.1
323.15	2.9949	0	1189	1.1
323.15	2.9949	0.2008	1200.4	1.1
323.15	2.9949	0.3999	1213.2	1.1
323.15	2.9949	0.5999	1228	1.1
323.15	2.9949	0.8002	1245.1	1.1
333.15	0.3332	0	1164.7	1.1
333.15	0.3332	0.2008	1175.6	1.1
333.15	0.3332	0.4002	1187.5	1.1
333.15	0.3332	0.6001	1200.4	1.1
333.15	0.3332	0.8004	1214.2	1.1
333.15	1.0001	0	1158.1	1.1
333.15	1.0001	0.2002	1169.6	1.1
333.15	1.0001	0.3999	1181.9	1.1
333.15	1.0001	0.5973	1195.9	1.1
333.15	1.0001	0.8	1211.6	1.1
333.15	2.9949	0	1152.5	1.1
333.15	2.9949	0.2008	1164.2	1.1
333.15	2.9949	0.3999	1177.3	1.1
333.15	2.9949	0.5999	1192.2	1.1
333.15	2.9949	0.8002	1209.5	1.1

System: hexylbenzene + butylcyclohexane + dodecane; phases: Liquid, Gas
Fixed: Temperature, K = 294.5
Property: Surface tension liquid-gas, N/m (Liquid); method: Pendant drop shape
Solvent: Amount ratio of component to other component of binary solvent of dodecane	Mole fraction of hexylbenzene	Surface tension liquid-gas, N/m	uncertainty
0.3335	0	0.0261	0.0003
0.3335	0.2001	0.0267	0.0003
0.3335	0.4002	0.0269	0.0003
0.3335	0.6	0.0277	0.0003
0.3335	0.7997	0.0283	0.0003
0.9998	0	0.0258	0.0004
0.9998	0.1999	0.0263	0.0003
0.9998	0.4002	0.0269	0.0003
0.9998	0.6001	0.0276	0.0003
0.9998	0.7999	0.028	0.0003
2.9968	0	0.0254	0.0003
2.9968	0.1999	0.0259	0.0003
2.9968	0.4002	0.0264	0.0003
2.9968	0.5998	0.0271	0.0004
2.9968	0.7998	0.0281	0.0003

System: toluene + butylcyclohexane + hexadecane; phases: Liquid
Fixed: Pressure, kPa = 102
Property: Mass density, kg/m3 (Liquid); method: Vibrating tube method
Temperature, K	Solvent: Amount ratio of component to other component of binary solvent of hexadecane	Mole fraction of toluene	Mass density, kg/m3	uncertainty
293.15	0.25	0	791.29	0.7
293.15	0.25	0.2318	800.59	0.7
293.15	0.25	0.3996	809.16	0.7
293.15	0.25	0.5993	822.36	0.7
293.15	0.25	0.7999	840.42	0.7
293.15	0.6666	0	785.19	0.7
293.15	0.6666	0.2003	792.94	0.7
293.15	0.6666	0.4007	803.09	0.7
293.15	0.6666	0.6	816.75	0.7
293.15	0.6666	0.7999	836.15	0.7
293.15	1.5	0	780.35	0.7
293.15	1.5	0.201	787.94	0.7
293.15	1.5	0.4008	797.83	0.7
293.15	1.5	0.6013	811.59	0.7
293.15	1.5	0.8015	832.44	0.7
293.15	3.9977	0	776.54	0.7
293.15	3.9977	0.2012	783.79	0.7
293.15	3.9977	0.4013	793.46	0.7
293.15	3.9977	0.6031	807.75	0.7
293.15	3.9977	0.8012	828.85	0.7
303.15	0.25	0	784.02	0.7
303.15	0.25	0.2318	793.04	0.7
303.15	0.25	0.3996	801.37	0.7
303.15	0.25	0.5993	814.2	0.7
303.15	0.25	0.7999	831.79	0.7
303.15	0.6666	0	778.07	0.7
303.15	0.6666	0.2003	785.6	0.7
303.15	0.6666	0.4007	795.47	0.7
303.15	0.6666	0.6	808.75	0.7
303.15	0.6666	0.7999	827.63	0.7
303.15	1.5	0	773.33	0.7
303.15	1.5	0.201	780.72	0.7
303.15	1.5	0.4008	790.35	0.7
303.15	1.5	0.6013	803.73	0.7
303.15	1.5	0.8015	824.04	0.7
303.15	3.9977	0	769.57	0.7
303.15	3.9977	0.2012	776.65	0.7
303.15	3.9977	0.4013	786.07	0.7
303.15	3.9977	0.6031	799.99	0.7
303.15	3.9977	0.8012	820.54	0.7
313.15	0.25	0	776.71	0.7
313.15	0.25	0.2318	785.45	0.7
313.15	0.25	0.3996	793.53	0.7
313.15	0.25	0.5993	805.99	0.7
313.15	0.25	0.7999	823.09	0.7
313.15	0.6666	0	770.92	0.7
313.15	0.6666	0.2003	778.23	0.7
313.15	0.6666	0.4007	787.81	0.7
313.15	0.6666	0.6	800.71	0.7
313.15	0.6666	0.7999	819.06	0.7
313.15	1.5	0	766.29	0.7
313.15	1.5	0.201	773.47	0.7
313.15	1.5	0.4008	782.83	0.7
313.15	1.5	0.6013	795.84	0.7
313.15	1.5	0.8015	815.58	0.7
313.15	3.9977	0	762.61	0.7
313.15	3.9977	0.2012	769.49	0.7
313.15	3.9977	0.4013	778.66	0.7
313.15	3.9977	0.6031	792.2	0.7
313.15	3.9977	0.8012	812.18	0.7
323.15	0.25	0	769.38	0.7
323.15	0.25	0.2318	777.83	0.7
323.15	0.25	0.3996	785.66	0.7
323.15	0.25	0.5993	797.73	0.7
323.15	0.25	0.7999	814.33	0.7
323.15	0.6667	0	763.75	0.7
323.15	0.6667	0.2003	770.83	0.7
323.15	0.6667	0.4007	780.11	0.7
323.15	0.6667	0.6	792.63	0.7
323.15	0.6667	0.7999	810.44	0.7
323.15	1.5	0	759.24	0.7
323.15	1.5	0.201	766.2	0.7
323.15	1.5	0.4008	775.28	0.7
323.15	1.5	0.6013	787.9	0.7
323.15	1.5	0.8015	807.06	0.7
323.15	3.9977	0	755.63	0.7
323.15	3.9977	0.2012	762.32	0.7
323.15	3.9977	0.4013	771.23	0.7
323.15	3.9977	0.6031	784.36	0.7
323.15	3.9977	0.8012	803.77	0.7
333.15	0.25	0	762.02	0.7
333.15	0.25	0.2318	770.17	0.7
333.15	0.25	0.3996	777.74	0.7
333.15	0.25	0.5993	789.42	0.7
333.15	0.25	0.7999	805.51	0.7
333.15	0.6667	0	756.56	0.7
333.15	0.6667	0.2003	763.4	0.7
333.15	0.6667	0.4007	772.37	0.7
333.15	0.6667	0.6	784.49	0.7
333.15	0.6667	0.7999	801.74	0.7
333.15	1.5	0	752.17	0.7
333.15	1.5	0.201	758.91	0.7
333.15	1.5	0.4008	767.69	0.7
333.15	1.5	0.6013	779.92	0.7
333.15	1.5	0.8015	798.48	0.7
333.15	3.9977	0	748.65	0.7
333.15	3.9977	0.2012	755.13	0.7
333.15	3.9977	0.4013	763.76	0.7
333.15	3.9977	0.6031	776.49	0.7
333.15	3.9977	0.8012	795.3	0.7
343.15	0.25	0	754.6	2
343.15	0.25	0.2318	762.4	2
343.15	0.25	0.3996	769.7	2
343.15	0.25	0.5993	780.9	2
343.15	0.25	0.7999	796.6	2
343.15	0.6667	0	749.4	2
343.15	0.6667	0.2003	755.9	2
343.15	0.6667	0.4007	764.5	2
343.15	0.6667	0.6	776.3	2
343.15	0.6667	0.7999	792.9	2
343.15	1.5	0	745.1	2
343.15	1.5	0.201	751.5	2
343.15	1.5	0.4008	760.1	2
343.15	1.5	0.6013	771.8	2
343.15	1.5	0.8015	789.8	2
343.15	3.9977	0	741.4	2
343.15	3.9977	0.2012	747.9	2
343.15	3.9977	0.4013	756.2	2
343.15	3.9977	0.6031	768.5	2
343.15	3.9977	0.8012	786.7	2

System: toluene + butylcyclohexane + hexadecane; phases: Liquid
Fixed: Pressure, kPa = 102
Property: Viscosity, Pa*s (Liquid); method: Concentric cylinders viscometry
Temperature, K	Solvent: Amount ratio of component to other component of binary solvent of hexadecane	Mole fraction of toluene	Viscosity, Pa*s	uncertainty
293.15	0.25	0	0.00168	1e-05
293.15	0.25	0.2318	0.00131	1e-05
293.15	0.25	0.3996	0.0011	1e-05
293.15	0.25	0.5993	0.000892	1.2e-05
293.15	0.25	0.7999	0.000725	1.1e-05
293.15	0.6666	0	0.00208	1e-05
293.15	0.6666	0.2003	0.00165	1e-05
293.15	0.6666	0.4007	0.0013	1e-05
293.15	0.6666	0.6	0.00101	1e-05
293.15	0.6666	0.7999	0.000778	1.2e-05
293.15	1.5	0	0.0025	2e-05
293.15	1.5	0.201	0.00197	1e-05
293.15	1.5	0.4008	0.00151	1e-05
293.15	1.5	0.6013	0.00113	1e-05
293.15	1.5	0.8015	0.000831	1.2e-05
293.15	3.9977	0	0.00296	2e-05
293.15	3.9977	0.2012	0.0023	2e-05
293.15	3.9977	0.4013	0.00173	1e-05
293.15	3.9977	0.6031	0.00126	1e-05
293.15	3.9977	0.8012	0.000889	1.2e-05
303.15	0.25	0	0.0014	1e-05
303.15	0.25	0.2318	0.00112	1e-05
303.15	0.25	0.3996	0.00095	1.2e-05
303.15	0.25	0.5993	0.00078	1.2e-05
303.15	0.25	0.7999	0.00064	1.1e-05
303.15	0.6666	0	0.00171	1e-05
303.15	0.6666	0.2003	0.00139	1e-05
303.15	0.6666	0.4007	0.00111	1e-05
303.15	0.6666	0.6	0.000881	1.2e-05
303.15	0.6666	0.7999	0.000687	1.1e-05
303.15	1.5	0	0.00204	1e-05
303.15	1.5	0.201	0.00163	1e-05
303.15	1.5	0.4008	0.00128	2e-05
303.15	1.5	0.6013	0.000977	1.2e-05
303.15	1.5	0.8015	0.000731	1.1e-05
303.15	3.9977	0	0.00237	2e-05
303.15	3.9977	0.2012	0.00188	1e-05
303.15	3.9977	0.4013	0.00145	1e-05
303.15	3.9977	0.6031	0.00108	1e-05
303.15	3.9977	0.8012	0.000779	1.2e-05
313.15	0.25	0	0.00119	1e-05
313.15	0.25	0.2318	0.000968	1.2e-05
313.15	0.25	0.3996	0.000829	1.2e-05
313.15	0.25	0.5993	0.000689	1.1e-05
313.15	0.25	0.7999	0.000571	1.1e-05
313.15	0.6666	0	0.00144	1e-05
313.15	0.6666	0.2003	0.00118	1e-05
313.15	0.6666	0.4007	0.000965	1.2e-05
313.15	0.6666	0.6	0.000773	1.2e-05
313.15	0.6666	0.7999	0.00061	1.1e-05
313.15	1.5	0	0.00169	1e-05
313.15	1.5	0.201	0.00138	1e-05
313.15	1.5	0.4008	0.0011	2e-05
313.15	1.5	0.6013	0.000852	1.2e-05
313.15	1.5	0.8015	0.000647	1.1e-05
313.15	3.9977	0	0.00195	1e-05
313.15	3.9977	0.2012	0.00157	1e-05
313.15	3.9977	0.4013	0.00124	1e-05
313.15	3.9977	0.6031	0.000943	1.2e-05
313.15	3.9977	0.8012	0.000689	1.1e-05
323.15	0.25	0	0.00103	1e-05
323.15	0.25	0.2318	0.000846	1.2e-05
323.15	0.25	0.3996	0.00073	1.1e-05
323.15	0.25	0.5993	0.000612	1.1e-05
323.15	0.25	0.7999	0.000512	1.1e-05
323.15	0.6667	0	0.00123	1e-05
323.15	0.6667	0.2003	0.00102	1e-05
323.15	0.6667	0.4007	0.000844	1.2e-05
323.15	0.6667	0.6	0.000684	1.1e-05
323.15	0.6667	0.7999	0.000544	1.1e-05
323.15	1.5	0	0.00142	1e-05
323.15	1.5	0.201	0.00118	1e-05
323.15	1.5	0.4008	0.000961	2.1e-05
323.15	1.5	0.6013	0.00075	1.2e-05
323.15	1.5	0.8015	0.000577	1.1e-05
323.15	3.9977	0	0.00162	1e-05
323.15	3.9977	0.2012	0.00134	1e-05
323.15	3.9977	0.4013	0.00107	1e-05
323.15	3.9977	0.6031	0.000827	1.2e-05
323.15	3.9977	0.8012	0.000614	1.1e-05
333.15	0.25	0	0.000898	1.2e-05
333.15	0.25	0.2318	0.000746	1.2e-05
333.15	0.25	0.3996	0.000649	1.1e-05
333.15	0.25	0.5993	0.000548	1.1e-05
333.15	0.25	0.7999	0.000463	1.1e-05
333.15	0.6667	0	0.00106	1e-05
333.15	0.6667	0.2003	0.000894	1.2e-05
333.15	0.6667	0.4007	0.000743	1.2e-05
333.15	0.6667	0.6	0.000609	1.1e-05
333.15	0.6667	0.7999	0.000491	1.1e-05
333.15	1.5	0	0.00122	1e-05
333.15	1.5	0.201	0.00102	1e-05
333.15	1.5	0.4008	0.000835	1.2e-05
333.15	1.5	0.6013	0.000667	1.1e-05
333.15	1.5	0.8015	0.000517	1.1e-05
333.15	3.9977	0	0.00138	1e-05
333.15	3.9977	0.2012	0.00115	1e-05
333.15	3.9977	0.4013	0.000929	1.2e-05
333.15	3.9977	0.6031	0.000731	1.1e-05
333.15	3.9977	0.8012	0.00055	1.1e-05
343.15	0.25	0	0.000789	1.2e-05
343.15	0.25	0.2318	0.000663	1.1e-05
343.15	0.25	0.3996	0.000581	1.1e-05
343.15	0.25	0.5993	0.000492	1.1e-05
343.15	0.25	0.7999	0.000421	1.1e-05
343.15	0.6667	0	0.000926	1.2e-05
343.15	0.6667	0.2003	0.000788	1.2e-05
343.15	0.6667	0.4007	0.000663	1.1e-05
343.15	0.6667	0.6	0.000547	1.1e-05
343.15	0.6667	0.7999	0.000446	1.1e-05
343.15	1.5	0	0.00106	1e-05
343.15	1.5	0.201	0.000895	1.2e-05
343.15	1.5	0.4008	0.000737	1.1e-05
343.15	1.5	0.6013	0.000594	1.1e-05
343.15	1.5	0.8015	0.000463	1.1e-05
343.15	3.9977	0	0.00119	1e-05
343.15	3.9977	0.2012	0.001	1e-05
343.15	3.9977	0.4013	0.000819	1.2e-05
343.15	3.9977	0.6031	0.000652	1.1e-05
343.15	3.9977	0.8012	0.000497	1.1e-05

System: toluene + butylcyclohexane + hexadecane; phases: Liquid
Fixed: Pressure, kPa = 102
Fixed: Frequency, MHz = 3
Property: Speed of sound, m/s (Liquid); method: Sing-around technique in a fixed-path interferometer
Temperature, K	Solvent: Amount ratio of component to other component of binary solvent of hexadecane	Mole fraction of toluene	Speed of sound, m/s	uncertainty
293.15	0.25	0	1334.4	1
293.15	0.25	0.2318	1324.6	1
293.15	0.25	0.3996	1318.7	1
293.15	0.25	0.5993	1313.6	1
293.15	0.25	0.7999	1313.7	1
293.15	0.6667	0	1339.5	1
293.15	0.6667	0.2003	1330.8	1
293.15	0.6667	0.4007	1322.7	1
293.15	0.6667	0.6	1316.1	1
293.15	0.6667	0.7999	1314.3	1
293.15	1.5	0	1345.6	1
293.15	1.5	0.201	1336.6	1.1
293.15	1.5	0.4008	1327.4	1
293.15	1.5	0.6013	1319.3	1
293.15	1.5	0.8015	1315.4	1.1
293.15	3.9977	0	1350.8	1
293.15	3.9977	0.2012	1341.4	1
293.15	3.9977	0.4013	1331.6	1
293.15	3.9977	0.6031	1322.3	1
293.15	3.9977	0.8012	1316.4	1.1
303.15	0.25	0	1295.9	1
303.15	0.25	0.2318	1285.6	1
303.15	0.25	0.3996	1279.2	1
303.15	0.25	0.5993	1273.5	1
303.15	0.25	0.7999	1272.5	1
303.15	0.6667	0	1301.7	1
303.15	0.6667	0.2003	1292.7	1
303.15	0.6667	0.4007	1284.1	1
303.15	0.6667	0.6	1276.6	1
303.15	0.6667	0.7999	1273.5	1
303.15	1.5	0	1308.2	1
303.15	1.5	0.201	1298.9	1.1
303.15	1.5	0.4008	1289.2	1
303.15	1.5	0.6013	1280.4	1
303.15	1.5	0.8015	1275.2	1.1
303.15	3.9977	0	1313.6	1
303.15	3.9977	0.2012	1303.9	1
303.15	3.9977	0.4013	1293.8	1
303.15	3.9977	0.6031	1283.7	1
303.15	3.9977	0.8012	1276.3	1
313.15	0.25	0	1257.8	1
313.15	0.25	0.2318	1247	1
313.15	0.25	0.3996	1240.2	1
313.15	0.25	0.5993	1233.7	1
313.15	0.25	0.7999	1231.8	1
313.15	0.6667	0	1264.4	1
313.15	0.6667	0.2003	1254.9	1
313.15	0.6667	0.4007	1245.8	1
313.15	0.6667	0.6	1237.5	1
313.15	0.6667	0.7999	1233.2	1
313.15	1.5	0	1271.3	1
313.15	1.5	0.201	1261.6	1
313.15	1.5	0.4008	1251.4	1
313.15	1.5	0.6013	1241.8	1
313.15	1.5	0.8015	1235.3	1.2
313.15	3.9977	0	1277	1
313.15	3.9977	0.2012	1267	1
313.15	3.9977	0.4013	1256.4	1
313.15	3.9977	0.6031	1245.5	1
313.15	3.9977	0.8012	1236.8	1
323.15	0.25	0	1220.2	1
323.15	0.25	0.2318	1209	1
323.15	0.25	0.3996	1201.7	1
323.15	0.25	0.5993	1194.4	1
323.15	0.25	0.7999	1191.4	1
323.15	0.6667	0	1227.5	1
323.15	0.6667	0.2003	1217.7	1
323.15	0.6667	0.4007	1207.9	1
323.15	0.6667	0.6	1198.9	1
323.15	0.6667	0.7999	1193.3	1
323.15	1.5	0	1234.9	1
323.15	1.5	0.201	1224.8	1
323.15	1.5	0.4008	1214	1
323.15	1.5	0.6013	1203.6	1
323.15	1.5	0.8015	1195.8	1.1
323.15	3.9977	0	1240.9	1
323.15	3.9977	0.2012	1230.6	1
323.15	3.9977	0.4013	1219.5	1
323.15	3.9977	0.6031	1207.7	1
323.15	3.9977	0.8012	1197.7	1
333.15	0.25	0	1183.2	1
333.15	0.25	0.2318	1171.4	1
333.15	0.25	0.3996	1163.7	1
333.15	0.25	0.5993	1155.7	1
333.15	0.25	0.7999	1151.6	1
333.15	0.6667	0	1191.2	1
333.15	0.6667	0.2003	1181	1
333.15	0.6667	0.4007	1170.6	1
333.15	0.6667	0.6	1160.8	1
333.15	0.6667	0.7999	1154	1
333.15	1.5	0	1199.1	1
333.15	1.5	0.201	1188.5	1
333.15	1.5	0.4008	1177.2	1
333.15	1.5	0.6013	1166	1
333.15	1.5	0.8015	1156.7	1.2
333.15	3.9977	0	1205.4	1
333.15	3.9977	0.2012	1194.8	1
333.15	3.9977	0.4013	1183.1	1
333.15	3.9977	0.6031	1170.5	1
333.15	3.9977	0.8012	1159	1

System: toluene + butylcyclohexane + hexadecane; phases: Liquid, Gas
Fixed: Temperature, K = 294.5
Property: Surface tension liquid-gas, N/m (Liquid); method: Pendant drop shape
Solvent: Amount ratio of component to other component of binary solvent of hexadecane	Mole fraction of toluene	Surface tension liquid-gas, N/m	uncertainty
0.25	0	0.0266	0.0003
0.25	0.2318	0.0269	0.0003
0.25	0.3996	0.027	0.0003
0.25	0.5993	0.0274	0.0003
0.25	0.7999	0.0275	0.0003
0.6667	0	0.0269	0.0003
0.6667	0.2003	0.0269	0.0003
0.6667	0.4007	0.0269	0.0003
0.6667	0.6	0.027	0.0003
0.6667	0.7999	0.0276	0.0003
1.5	0	0.0269	0.0003
1.5	0.201	0.0271	0.0003
1.5	0.4008	0.02725	0.00033
1.5	0.6013	0.0273	0.0003
1.5	0.8015	0.0277	0.0003
3.9977	0	0.027	0.0003
3.9977	0.2012	0.027	0.0003
3.9977	0.4013	0.0271	0.0003
3.9977	0.6031	0.0273	0.0003
3.9977	0.8012	0.0276	0.0003

System: butylcyclohexane + hexadecane; phases: Liquid
Fixed: Pressure, kPa = 102
Property: Mass density, kg/m3 (Liquid); method: Vibrating tube method
Temperature, K	Amount ratio of solute to solvent of hexadecane	Mass density, kg/m3	uncertainty
293.15	0.3333	789.5	0.32
293.15	0.9992	782.68	0.32
293.15	3.0006	777.44	0.32
303.15	0.3333	782.27	0.32
303.15	0.9992	775.6	0.32
303.15	3.0006	770.45	0.32
313.15	0.3333	775.01	0.32
313.15	0.9992	768.51	0.32
313.15	3.0006	763.47	0.32
323.15	0.3333	767.73	0.32
323.15	0.9992	761.41	0.32
323.15	3.0006	756.48	0.32
333.15	0.3333	760.42	0.32
333.15	0.9992	754.28	0.32
333.15	3.0006	749.49	0.32
343.15	0.3333	753.1	0.9
343.15	0.9992	747.2	0.9
343.15	3.0006	742.5	0.9
293.15	0.3335	789.61	0.32
293.15	0.9997	782.68	0.32
293.15	2.9967	777.44	0.32
303.15	0.3335	782.37	0.32
303.15	0.9997	775.6	0.32
303.15	2.9967	770.54	0.32
313.15	0.3335	775.12	0.32
313.15	0.9997	768.51	0.32
313.15	2.9967	763.47	0.32
323.15	0.3335	767.83	0.32
323.15	0.9997	761.41	0.32
323.15	2.9967	756.48	0.32
333.15	0.3335	760.52	0.32
333.15	0.9997	754.28	0.32
333.15	2.9967	749.48	0.32
343.15	0.3335	753.2	2
343.15	0.9997	747.2	2
343.15	2.9967	742.5	2
293.15	0.25	791.29	0.32
293.15	0.6666	785.19	0.32
293.15	1.5	780.35	0.32
293.15	3.9977	776.54	0.32
303.15	0.25	784.02	0.32
303.15	0.6666	778.07	0.32
303.15	1.5	773.33	0.32
303.15	3.9977	769.57	0.32
313.15	0.25	776.71	0.32
313.15	0.6666	770.92	0.32
313.15	1.5	766.29	0.32
313.15	3.9977	762.61	0.32
323.15	0.25	769.38	0.32
323.15	0.6667	763.75	0.32
323.15	1.5	759.24	0.32
323.15	3.9977	755.63	0.32
333.15	0.25	762.02	0.32
333.15	0.6667	756.56	0.32
333.15	1.5	752.17	0.32
333.15	3.9977	748.65	0.32
343.15	0.25	754.6	2
343.15	0.6667	749.4	2
343.15	1.5	745.1	2
343.15	3.9977	741.4	2

System: butylcyclohexane + hexadecane; phases: Liquid
Fixed: Pressure, kPa = 102
Property: Viscosity, Pa*s (Liquid); method: Concentric cylinders viscometry
Temperature, K	Amount ratio of solute to solvent of hexadecane	Viscosity, Pa*s	uncertainty
293.15	0.3333	0.00178	1e-05
293.15	0.9992	0.00229	2e-05
293.15	3.0006	0.00284	2e-05
303.15	0.3333	0.0015	1e-05
303.15	0.9992	0.00187	1e-05
303.15	3.0006	0.00229	2e-05
313.15	0.3333	0.00126	1e-05
313.15	0.9992	0.00156	1e-05
313.15	3.0006	0.00188	1e-05
323.15	0.3333	0.00108	1e-05
323.15	0.9992	0.00133	1e-05
323.15	3.0006	0.00158	1e-05
333.15	0.3333	0.000942	1.2e-05
333.15	0.9992	0.00114	1e-05
333.15	3.0006	0.00134	1e-05
343.15	0.3333	0.000827	1.2e-05
343.15	0.9992	0.000991	1.2e-05
343.15	3.0006	0.00116	1e-05
293.15	0.3335	0.00178	1e-05
293.15	0.9997	0.00229	2e-05
293.15	2.9967	0.00284	2e-05
303.15	0.3335	0.00149	1e-05
303.15	0.9997	0.00187	1e-05
303.15	2.9967	0.00229	2e-05
313.15	0.3335	0.00126	1e-05
313.15	0.9997	0.00156	1e-05
313.15	2.9967	0.00188	1e-05
323.15	0.3335	0.00108	1e-05
323.15	0.9997	0.00133	1e-05
323.15	2.9967	0.00158	1e-05
333.15	0.3335	0.000942	1.2e-05
333.15	0.9997	0.00114	1e-05
333.15	2.9967	0.00134	1e-05
343.15	0.3335	0.000821	1.2e-05
343.15	0.9997	0.000991	1.2e-05
343.15	2.9967	0.00116	1e-05
293.15	0.25	0.00168	1e-05
293.15	0.6666	0.00208	1e-05
293.15	1.5	0.0025	2e-05
293.15	3.9977	0.00296	2e-05
303.15	0.25	0.0014	1e-05
303.15	0.6666	0.00171	1e-05
303.15	1.5	0.00204	1e-05
303.15	3.9977	0.00237	2e-05
313.15	0.25	0.00119	1e-05
313.15	0.6666	0.00144	1e-05
313.15	1.5	0.00169	1e-05
313.15	3.9977	0.00195	1e-05
323.15	0.25	0.00103	1e-05
323.15	0.6667	0.00123	1e-05
323.15	1.5	0.00142	1e-05
323.15	3.9977	0.00162	1e-05
333.15	0.25	0.000898	1.2e-05
333.15	0.6667	0.00106	1e-05
333.15	1.5	0.00122	1e-05
333.15	3.9977	0.00138	1e-05
343.15	0.25	0.000789	1.2e-05
343.15	0.6667	0.000926	1.2e-05
343.15	1.5	0.00106	1e-05
343.15	3.9977	0.00119	1e-05

System: butylcyclohexane + hexadecane; phases: Liquid
Fixed: Pressure, kPa = 102
Fixed: Frequency, MHz = 3
Property: Speed of sound, m/s (Liquid); method: Sing-around technique in a fixed-path interferometer
Temperature, K	Amount ratio of solute to solvent of hexadecane	Speed of sound, m/s	uncertainty
293.15	0.3333	1335.5	1
293.15	0.9992	1342.9	1
293.15	3.0006	1350	1
303.15	0.3333	1297.1	1
303.15	0.9992	1305.2	1
303.15	3.0006	1312.7	1
313.15	0.3333	1259.3	1
313.15	0.9992	1268.2	1
313.15	3.0006	1276	1
323.15	0.3333	1222.1	1
323.15	0.9992	1231.8	1
323.15	3.0006	1240.1	1
333.15	0.3333	1185.7	1
333.15	0.9992	1196.2	1
333.15	3.0006	1205	1
293.15	0.3335	1335.2	1
293.15	0.9997	1342.9	1
293.15	2.9967	1349.7	1
303.15	0.3335	1296.8	1
303.15	0.9997	1305.2	1
303.15	2.9967	1312.4	1
313.15	0.3335	1259.1	1
313.15	0.9997	1268.2	1
313.15	2.9967	1275.9	1
323.15	0.3335	1222	1
323.15	0.9997	1231.8	1
323.15	2.9967	1239.9	1
333.15	0.3335	1185.6	1
333.15	0.9997	1196.2	1
333.15	2.9967	1204.7	1
293.15	0.25	1334.4	1
293.15	0.6667	1339.5	1
293.15	1.5	1345.6	1
293.15	3.9977	1350.8	1
303.15	0.25	1295.9	1
303.15	0.6667	1301.7	1
303.15	1.5	1308.2	1
303.15	3.9977	1313.6	1
313.15	0.25	1257.8	1
313.15	0.6667	1264.4	1
313.15	1.5	1271.3	1
313.15	3.9977	1277	1
323.15	0.25	1220.2	1
323.15	0.6667	1227.5	1
323.15	1.5	1234.9	1
323.15	3.9977	1240.9	1
333.15	0.25	1183.2	1
333.15	0.6667	1191.2	1
333.15	1.5	1199.1	1
333.15	3.9977	1205.4	1

System: butylcyclohexane + hexadecane; phases: Liquid, Gas
Fixed: Temperature, K = 294.5
Property: Surface tension liquid-gas, N/m (Liquid); method: Pendant drop shape
Amount ratio of solute to solvent of hexadecane	Surface tension liquid-gas, N/m	uncertainty
0.3333	0.0267	0.0003
0.9992	0.0269	0.0003
3.0006	0.027	0.0003
0.3335	0.0269	0.0003
0.9997	0.0269	0.0003
2.9967	0.0271	0.0003
0.25	0.0266	0.0003
0.6667	0.0269	0.0003
1.5	0.0269	0.0003
3.9977	0.027	0.0003

System: butylcyclohexane + dodecane; phases: Liquid
Fixed: Pressure, kPa = 102
Property: Mass density, kg/m3 (Liquid); method: Vibrating tube method
Temperature, K	Amount ratio of solute to solvent of dodecane	Mass density, kg/m3	uncertainty
293.15	0.3332	783.9	1.5
293.15	1.0002	770.6	1.5
293.15	3.0005	759	1.5
303.15	0.3332	776.5	1.5
303.15	1.0002	763.3	1.5
303.15	3.0005	751.7	1.5
313.15	0.3332	769.1	1.5
313.15	1.0002	755.9	1.5
313.15	3.0005	744.4	1.5
323.15	0.3332	761.6	1.5
323.15	1.0002	748.5	1.5
323.15	3.0005	737.1	1.5
333.15	0.3332	754.1	1.5
333.15	1.0002	741.1	1.5
333.15	3.0005	729.7	1.5
343.15	0.3332	746.5	4.3
343.15	1.0002	733.6	4.3
343.15	3.0005	722.2	4.3
293.15	1.0001	770.6	1.5
293.15	2.9949	759	1.5
303.15	1.0001	763.3	1.5
303.15	2.9949	751.7	1.5
313.15	1.0001	755.9	1.5
313.15	2.9949	744.4	1.5
323.15	1.0001	748.5	1.5
323.15	2.9949	737.1	1.5
333.15	1.0001	741.1	1.5
333.15	2.9949	729.7	1.5
343.15	1.0001	733.7	4.3
343.15	2.9949	722.5	4.3

System: butylcyclohexane + dodecane; phases: Liquid
Fixed: Pressure, kPa = 102
Property: Viscosity, Pa*s (Liquid); method: Concentric cylinders viscometry
Temperature, K	Amount ratio of solute to solvent of dodecane	Viscosity, Pa*s	uncertainty
293.15	0.3332	0.00134	1e-05
293.15	1.0002	0.00138	1e-05
293.15	3.0005	0.00142	1e-05
303.15	0.3332	0.00113	1e-05
303.15	1.0002	0.00117	1e-05
303.15	3.0005	0.0012	1e-05
313.15	0.3332	0.000974	1.2e-05
313.15	1.0002	0.001	1e-05
313.15	3.0005	0.00102	1e-05
323.15	0.3332	0.000846	1.2e-05
323.15	1.0002	0.000865	1.2e-05
323.15	3.0005	0.000883	1.2e-05
333.15	0.3332	0.000743	1.2e-05
333.15	1.0002	0.000757	1.2e-05
333.15	3.0005	0.00077	1.2e-05
343.15	0.3332	0.000656	1.1e-05
343.15	1.0002	0.000668	1.2e-05
343.15	3.0005	0.000678	1.2e-05
293.15	1.0001	0.00138	1e-05
293.15	2.9949	0.00144	1e-05
303.15	1.0001	0.00117	1e-05
303.15	2.9949	0.00122	1e-05
313.15	0.3332	0.000972	1.2e-05
313.15	1.0001	0.00101	1e-05
313.15	2.9949	0.00104	1e-05
323.15	0.3332	0.000845	1.2e-05
323.15	1.0001	0.00088	1.2e-05
323.15	2.9949	0.000896	1.2e-05
333.15	0.3332	0.000741	1.2e-05
333.15	1.0001	0.000774	1.2e-05
333.15	2.9949	0.000788	1.2e-05
343.15	1.0001	0.000686	1.2e-05
343.15	2.9949	0.000699	1.2e-05

System: butylcyclohexane + dodecane; phases: Liquid
Fixed: Pressure, kPa = 102
Fixed: Frequency, MHz = 3
Property: Speed of sound, m/s (Liquid); method: Sing-around technique in a fixed-path interferometer
Temperature, K	Amount ratio of solute to solvent of dodecane	Speed of sound, m/s	uncertainty
293.15	0.3332	1317.5	1.1
293.15	1.0002	1308.8	1.1
293.15	3.0005	1302.6	1.1
303.15	0.3332	1278.4	1.1
303.15	1.0002	1270.1	1.1
303.15	3.0005	1264.3	1.1
313.15	0.3332	1239.9	1.1
313.15	1.0002	1232	1.1
313.15	3.0005	1226.5	1.1
323.15	0.3332	1202	1.1
323.15	1.0002	1194.6	1.1
323.15	3.0005	1189.3	1.1
333.15	0.3332	1164.8	1.1
333.15	1.0002	1157.9	1.1
333.15	3.0005	1152.9	1.1
293.15	0.3332	1317.3	1.1
293.15	1.0001	1309	1.1
293.15	2.9949	1302.4	1.1
303.15	0.3332	1278.1	1.1
303.15	1.0001	1270.4	1.1
303.15	2.9949	1264	1.1
313.15	0.3332	1239.7	1.1
313.15	1.0001	1232.3	1.1
313.15	2.9949	1226.2	1.1
323.15	0.3332	1201.8	1.1
323.15	1.0001	1194.8	1.1
323.15	2.9949	1189	1.1
333.15	0.3332	1164.7	1.1
333.15	1.0001	1158.1	1.1
333.15	2.9949	1152.5	1.1

System: butylcyclohexane + dodecane; phases: Liquid, Gas
Fixed: Temperature, K = 294.5
Property: Surface tension liquid-gas, N/m (Liquid); method: Pendant drop shape
Amount ratio of solute to solvent of dodecane	Surface tension liquid-gas, N/m	uncertainty
0.3332	0.0261	0.0003
1.0002	0.0256	0.0003
3.0005	0.0253	0.0003
0.3335	0.0261	0.0003
0.9998	0.0258	0.0004
2.9968	0.0254	0.0003
