Measured thermophysical data. Solubility Determination of 2-Chloronicotinic Acid and Analysis of Solvent Effect
Source: J. Chem. Eng. Data, 2019, 10.1021/acs.jced.9b00661
Compound 1: 2-chloronicotinic acid, C6H4ClNO2, InChI=1S/C6H4ClNO2/c7-5-4(6(9)10)2-1-3-8-5/h1-3H,(H,9,10), purity 99.5%
Compound 2: methanol, CH4O, InChI=1S/CH4O/c1-2/h2H,1H3, purity 99.6%
Compound 3: ethanol, C2H6O, InChI=1S/C2H6O/c1-2-3/h3H,2H2,1H3, purity 99.5%
Compound 4: propan-1-ol, C3H8O, InChI=1S/C3H8O/c1-2-3-4/h4H,2-3H2,1H3, purity 99.6%
Compound 5: propan-2-ol, C3H8O, InChI=1S/C3H8O/c1-3(2)4/h3-4H,1-2H3, purity 99.7%
Compound 6: acetonitrile, C2H3N, InChI=1S/C2H3N/c1-2-3/h1H3, purity 99.5%
Compound 7: dimethylformamide, C3H7NO, InChI=1S/C3H7NO/c1-4(2)3-5/h3H,1-2H3, purity 99.6%
Compound 8: acetone, C3H6O, InChI=1S/C3H6O/c1-3(2)4/h1-2H3, purity 99.5%
Compound 9: ethyl acetate, C4H8O2, InChI=1S/C4H8O2/c1-3-6-4(2)5/h3H2,1-2H3, purity 99.5%
Compound 10: N-methylpyrrolidone, C5H9NO, InChI=1S/C5H9NO/c1-6-4-2-3-5(6)7/h2-4H2,1H3, purity 99.6%
Compound 11: 1,4-dioxane, C4H8O2, InChI=1S/C4H8O2/c1-2-6-4-3-5-1/h1-4H2, purity 99.5%
Compound 12: cyclohexane, C6H12, InChI=1S/C6H12/c1-2-4-6-5-3-1/h1-6H2, purity 99.6%
Compound 13: water, H2O, InChI=1S/H2O/h1H2, purity 99.8%

System: 2-chloronicotinic acid + methanol; phases: Liquid, Crystal
Fixed: Pressure, kPa = 101.3
Property: Mole fraction of 2-chloronicotinic acid (Liquid); method: Chromatography
Temperature, K	Mole fraction of 2-chloronicotinic acid	uncertainty
273.15	0.002272	0.000214
278.15	0.002831	0.000266
283.15	0.003471	0.000326
288.15	0.004219	0.000397
293.15	0.005051	0.000475
298.15	0.005976	0.000562
303.15	0.006965	0.000655
308.15	0.008056	0.000758
313.15	0.009265	0.000871

System: 2-chloronicotinic acid + ethanol; phases: Liquid, Crystal
Fixed: Pressure, kPa = 101.3
Property: Mole fraction of 2-chloronicotinic acid (Liquid); method: Chromatography
Temperature, K	Mole fraction of 2-chloronicotinic acid	uncertainty
273.15	0.00286	0.00027
278.15	0.00363	0.00034
283.15	0.004611	0.000434
288.15	0.00563	0.00053
293.15	0.006762	0.000636
298.15	0.008042	0.000756
303.15	0.009525	0.000896
308.15	0.01116	0.00105
313.15	0.01289	0.00121

System: 2-chloronicotinic acid + propan-1-ol; phases: Liquid, Crystal
Fixed: Pressure, kPa = 101.3
Property: Mole fraction of 2-chloronicotinic acid (Liquid); method: Chromatography
Temperature, K	Mole fraction of 2-chloronicotinic acid	uncertainty
273.15	0.004459	0.000419
278.15	0.005456	0.000513
283.15	0.006672	0.000627
288.15	0.007925	0.000745
293.15	0.009327	0.000877
298.15	0.01097	0.00103
303.15	0.01254	0.00118
308.15	0.01445	0.00136
313.15	0.01619	0.00152

System: 2-chloronicotinic acid + propan-2-ol; phases: Liquid, Crystal
Fixed: Pressure, kPa = 101.3
Property: Mole fraction of 2-chloronicotinic acid (Liquid); method: Chromatography
Temperature, K	Mole fraction of 2-chloronicotinic acid	uncertainty
273.15	0.003682	0.000346
278.15	0.004637	0.000436
283.15	0.005743	0.00054
288.15	0.006974	0.000656
293.15	0.008299	0.00078
298.15	0.009717	0.000914
303.15	0.01134	0.00107
308.15	0.01304	0.00123
313.15	0.01473	0.00139

System: 2-chloronicotinic acid + dimethylformamide; phases: Liquid, Crystal
Fixed: Pressure, kPa = 101.3
Property: Mole fraction of 2-chloronicotinic acid (Liquid); method: Chromatography
Temperature, K	Mole fraction of 2-chloronicotinic acid	uncertainty
273.15	0.124	0.012
278.15	0.1491	0.014
283.15	0.1748	0.0164
288.15	0.1996	0.0188
293.15	0.2282	0.0215
298.15	0.2595	0.0244
303.15	0.2911	0.0274
308.15	0.3274	0.0308
313.15	0.3671	0.0345

System: 2-chloronicotinic acid + 1,4-dioxane; phases: Liquid, Crystal
Fixed: Pressure, kPa = 101.3
Property: Mole fraction of 2-chloronicotinic acid (Liquid); method: Chromatography
Temperature, K	Mole fraction of 2-chloronicotinic acid	uncertainty
288.15	0.008798	0.000827
293.15	0.01033	0.00097
298.15	0.01198	0.00113
303.15	0.01362	0.00128
308.15	0.01548	0.00146
313.15	0.01765	0.00166

System: 2-chloronicotinic acid + N-methylpyrrolidone; phases: Liquid, Crystal
Fixed: Pressure, kPa = 101.3
Property: Mole fraction of 2-chloronicotinic acid (Liquid); method: Chromatography
Temperature, K	Mole fraction of 2-chloronicotinic acid	uncertainty
273.15	0.2063	0.0194
278.15	0.235	0.022
283.15	0.2649	0.0249
288.15	0.2947	0.0277
293.15	0.3281	0.0309
298.15	0.3599	0.0338
303.15	0.3965	0.0373
308.15	0.4374	0.0411
313.15	0.4782	0.045

System: 2-chloronicotinic acid + ethyl acetate; phases: Liquid, Crystal
Fixed: Pressure, kPa = 101.3
Property: Mole fraction of 2-chloronicotinic acid (Liquid); method: Chromatography
Temperature, K	Mole fraction of 2-chloronicotinic acid	uncertainty
273.15	0.01377	0.00129
278.15	0.01635	0.00154
283.15	0.01893	0.00178
288.15	0.0218	0.0021
293.15	0.02465	0.00232
298.15	0.02756	0.00259
303.15	0.0308	0.0029
308.15	0.03442	0.00324
313.15	0.03818	0.00359

System: 2-chloronicotinic acid + acetone; phases: Liquid, Crystal
Fixed: Pressure, kPa = 101.3
Property: Mole fraction of 2-chloronicotinic acid (Liquid); method: Chromatography
Temperature, K	Mole fraction of 2-chloronicotinic acid	uncertainty
273.15	0.008934	0.00084
278.15	0.01032	0.00097
283.15	0.01181	0.00111
288.15	0.01328	0.00125
293.15	0.0149	0.0014
298.15	0.0166	0.0016
303.15	0.01837	0.00173
308.15	0.02052	0.00193
313.15	0.0226	0.0021

System: 2-chloronicotinic acid + water; phases: Liquid, Crystal
Fixed: Pressure, kPa = 101.3
Property: Mole fraction of 2-chloronicotinic acid (Liquid); method: Chromatography
Temperature, K	Mole fraction of 2-chloronicotinic acid	uncertainty
273.15	9.1e-05	9e-06
278.15	0.000104	1e-05
283.15	0.00012	1e-05
288.15	0.000136	1.3e-05
293.15	0.000153	1.4e-05
298.15	0.000171	1.6e-05
303.15	0.000191	1.8e-05
308.15	0.000216	2e-05
313.15	0.000242	2.3e-05

System: 2-chloronicotinic acid + acetonitrile; phases: Liquid, Crystal
Fixed: Pressure, kPa = 101.3
Property: Mole fraction of 2-chloronicotinic acid (Liquid); method: Chromatography
Temperature, K	Mole fraction of 2-chloronicotinic acid	uncertainty
273.15	0.001051	9.9e-05
278.15	0.001366	0.000128
283.15	0.001738	0.000163
288.15	0.002136	0.000201
293.15	0.002625	0.000247
298.15	0.00324	0.0003
303.15	0.003987	0.000375
308.15	0.004913	0.000462
313.15	0.005915	0.000556

System: 2-chloronicotinic acid + cyclohexane; phases: Liquid, Crystal
Fixed: Pressure, kPa = 101.3
Property: Mole fraction of 2-chloronicotinic acid (Liquid); method: Chromatography
Temperature, K	Mole fraction of 2-chloronicotinic acid	uncertainty
273.15	0.000553	5.2e-05
278.15	0.000782	7.4e-05
283.15	0.001058	0.0001
288.15	0.001401	0.000132
293.15	0.001815	0.000171
298.15	0.0023	0.000216
303.15	0.002905	0.000273
308.15	0.003592	0.000338
313.15	0.00437	0.000411
