Measured thermophysical data. Quaternary, Ternary and Binary LLE Measurements for 2-Methoxy-2-methylbutane + Furfural + Acetic Acid + Water at Temperatures between 298 and 341 K
Source: J. Chem. Eng. Data, 2016, 10.1021/acs.jced.6b00150
Compound 1: 2-methoxy-2-methylbutane, C6H14O, InChI=1S/C6H14O/c1-5-6(2,3)7-4/h5H2,1-4H3
Compound 2: 2-furaldehyde, C5H4O2, InChI=1S/C5H4O2/c6-4-5-2-1-3-7-5/h1-4H
Compound 3: acetic acid, C2H4O2, InChI=1S/C2H4O2/c1-2(3)4/h1H3,(H,3,4)
Compound 4: water, H2O, InChI=1S/H2O/h1H2, purity 99.9%
Compound 5: acetone, C3H6O, InChI=1S/C3H6O/c1-3(2)4/h1-2H3

System: 2-methoxy-2-methylbutane; phases: Liquid
Property: Refractive index (Na D-line) (Liquid); method: Standard Abbe refractometry
Temperature, K	Pressure, kPa	Refractive index (Na D-line)	uncertainty
298.15	101.325	1.38541	0.00104

System: 2-furaldehyde; phases: Liquid
Property: Refractive index (Na D-line) (Liquid); method: Standard Abbe refractometry
Temperature, K	Pressure, kPa	Refractive index (Na D-line)	uncertainty
298.15	101.325	1.52263	0.00104

System: water; phases: Liquid
Property: Refractive index (Na D-line) (Liquid); method: Standard Abbe refractometry
Temperature, K	Pressure, kPa	Refractive index (Na D-line)	uncertainty
298.15	101.325	1.33249	0.00104

System: acetone; phases: Liquid
Property: Refractive index (Na D-line) (Liquid); method: Standard Abbe refractometry
Temperature, K	Pressure, kPa	Refractive index (Na D-line)	uncertainty
298.15	101.325	1.35553	0.00104

System: 2-methoxy-2-methylbutane + water; phases: Liquid mixture 1, Liquid mixture 2
Fixed: Pressure, kPa = 101
Property: Mass fraction of 2-methoxy-2-methylbutane (Liquid mixture 1); method: Chromatography
Temperature, K	Mass fraction of 2-methoxy-2-methylbutane	uncertainty
298.2	0.991	0.002
298.2	0.992	0.002
321.7	0.989	0.002
341.1	0.988	0.002
322.4	0.99	0.002
342.2	0.989	0.002

System: 2-methoxy-2-methylbutane + water; phases: Liquid mixture 2, Liquid mixture 1
Fixed: Pressure, kPa = 101
Property: Mass fraction of 2-methoxy-2-methylbutane (Liquid mixture 2); method: Chromatography
Temperature, K	Mass fraction of 2-methoxy-2-methylbutane	uncertainty
298.2	0.01	0.01
298.2	0.011	0.011
321.7	0.006	0.006
341.1	0.005	0.005
322.4	0.006	0.006
342.2	0.005	0.005

System: 2-furaldehyde + water; phases: Liquid mixture 1, Liquid mixture 2
Fixed: Pressure, kPa = 101
Property: Mass fraction of 2-furaldehyde (Liquid mixture 1); method: Chromatography
Temperature, K	Mass fraction of 2-furaldehyde	uncertainty
298.3	0.951	0.004
298.2	0.95	0.004
322.5	0.934	0.004
342.2	0.911	0.004

System: 2-furaldehyde + water; phases: Liquid mixture 2, Liquid mixture 1
Fixed: Pressure, kPa = 101
Property: Mass fraction of 2-furaldehyde (Liquid mixture 2); method: Chromatography
Temperature, K	Mass fraction of 2-furaldehyde	uncertainty
298.3	0.077	0.016
298.2	0.079	0.016
322.5	0.094	0.016
342.2	0.11	0.016

System: 2-furaldehyde + 2-methoxy-2-methylbutane + water; phases: Liquid mixture 1, Liquid mixture 2
Fixed: Pressure, kPa = 101
Property: Mass fraction of 2-methoxy-2-methylbutane (Liquid mixture 1); method: Chromatography
Property: Mass fraction of 2-methoxy-2-methylbutane (Liquid mixture 2); method: Chromatography
Property: Mass fraction of 2-furaldehyde (Liquid mixture 2); method: Chromatography
Temperature, K	Mass fraction of 2-furaldehyde	Mass fraction of 2-methoxy-2-methylbutane	uncertainty	Mass fraction of 2-methoxy-2-methylbutane	uncertainty	Mass fraction of 2-furaldehyde	uncertainty
298.2	0.881	0.073	0.02	0.003	0.003	0.07	
298.2	0.415	0.562	0.02	0.01	0.002	0.045	
298.2	0.216	0.769	0.02	0.01	0.002	0.032	
322.5	0.888	0.046	0.021	0.002	0.002	0.086	
322.3	0.869	0.069	0.021	0.002	0.002	0.08	
322.2	0.829	0.111	0.02	0.003	0.002	0.077	
322.1	0.813	0.13	0.021	0.004	0.002	0.075	
321.9	0.772	0.176	0.021	0.005	0.002	0.071	
322.3	0.723	0.227	0.02	0.005	0.002	0.065	
322.5	0.722	0.228	0.021	0.005	0.002	0.066	
322.1	0.7	0.252	0.021	0.005	0.002	0.064	
298.4	0.838	0.117	0.02	0.005	0.002	0.068	
322.5	0.649	0.307	0.021	0.006	0.002	0.062	
321.9	0.634	0.325	0.021	0.006	0.002	0.059	
322.5	0.605	0.356	0.021	0.006	0.002	0.057	
322.3	0.583	0.379	0.021	0.006	0.002	0.056	
322.1	0.532	0.436	0.021	0.006	0.002	0.053	
321.9	0.439	0.533	0.021	0.006	0.002	0.048	
322.5	0.301	0.677	0.02	0.006	0.002	0.04	
322	0.138	0.847	0.02	0.007	0.002	0.024	
341.9	0.857	0.062	0.021	0.002	0.002	0.098	
341.6	0.807	0.12	0.022	0.004	0.002	0.09	
298.2	0.821	0.136	0.02	0.005	0.003	0.065	
341.2	0.774	0.164	0.021	0.004	0.002	0.087	
341.9	0.721	0.216	0.024	0.005	0.002	0.078	
341.5	0.702	0.243	0.021	0.005	0.002	0.074	
342.3	0.658	0.288	0.021	0.005	0.002	0.073	
341.2	0.635	0.315	0.021	0.005	0.002	0.068	
342.3	0.596	0.359	0.021	0.005	0.002	0.066	
341.9	0.574	0.383	0.021	0.005	0.002	0.063	
341.6	0.526	0.437	0.021	0.006	0.002	0.06	
341.2	0.434	0.533	0.021	0.006	0.002	0.053	
342.2	0.314	0.662	0.021	0.006	0.002	0.044	
298.2	0.777	0.182	0.02	0.007	0.002	0.061	
341.9	0.231	0.747	0.02	0.006	0.002	0.036	
341.5	0.144	0.839	0.02	0.006	0.002	0.026	
298.4	0.761	0.198	0.02	0.007	0.002	0.062	
298.2	0.72	0.241	0.02	0.008	0.002	0.059	
298.3	0.649	0.316	0.02	0.008	0.002	0.055	
298.4	0.534	0.437	0.021	0.009	0.002	0.051	
298.2	0.492	0.481	0.021	0.01	0.002	0.048	

System: acetic acid + 2-methoxy-2-methylbutane + water; phases: Liquid mixture 1, Liquid mixture 2
Fixed: Pressure, kPa = 101
Property: Mass fraction of acetic acid (Liquid mixture 1); method: Chromatography
Property: Mass fraction of 2-methoxy-2-methylbutane (Liquid mixture 2); method: Chromatography
Property: Mass fraction of acetic acid (Liquid mixture 2); method: Chromatography
Temperature, K	Mass fraction of 2-methoxy-2-methylbutane	Mass fraction of acetic acid	uncertainty	Mass fraction of 2-methoxy-2-methylbutane	uncertainty	Mass fraction of acetic acid	uncertainty
298.2	0.992	0		0.01	0.002	0	
322.2	0.963	0.023	0.012	0.008	0.002	0.058	
322	0.929	0.052	0.012	0.011	0.002	0.117	
321.7	0.886	0.088	0.012	0.014	0.002	0.178	
322.4	0.815	0.148	0.011	0.022	0.003	0.264	
322.1	0.766	0.186	0.011	0.03	0.003	0.311	
321.9	0.71	0.228	0.011	0.041	0.004	0.354	
342.2	0.989	0		0.005	0.002	0	
341.8	0.961	0.023	0.012	0.007	0.002	0.061	
341.5	0.928	0.051	0.012	0.01	0.002	0.122	
341.1	0.886	0.086	0.012	0.014	0.002	0.184	
298.2	0.963	0.025	0.012	0.012	0.002	0.057	
342.1	0.824	0.139	0.012	0.022	0.003	0.269	
341.8	0.778	0.176	0.011	0.03	0.003	0.315	
341.4	0.717	0.221	0.011	0.042	0.004	0.359	
298.2	0.926	0.056	0.011	0.014	0.002	0.114	
298.2	0.878	0.095	0.011	0.018	0.002	0.173	
298.2	0.789	0.167	0.011	0.025	0.002	0.257	
298.2	0.733	0.21	0.011	0.033	0.003	0.303	
298.2	0.666	0.259	0.011	0.045	0.005	0.348	
298.2	0.392	0.344	0.01	0.066	0.006	0.394	
322.4	0.99	0		0.006	0.002	0	
