Measured thermophysical data. Density and Compressibility of Multicomponent n-Alkane Mixtures up to 463 K and 140 MPa
Source: J. Chem. Eng. Data, 2018, 10.1021/acs.jced.7b00803
Compound 1: methane, CH4, InChI=1S/CH4/h1H4, purity 99.9995%
Compound 2: butane, C4H10, InChI=1S/C4H10/c1-3-4-2/h3-4H2,1-2H3, purity 99.95%
Compound 3: decane, C10H22, InChI=1S/C10H22/c1-3-5-7-9-10-8-6-4-2/h3-10H2,1-2H3, purity 99.8%
Compound 4: dodecane, C12H26, InChI=1S/C12H26/c1-3-5-7-9-11-12-10-8-6-4-2/h3-12H2,1-2H3, purity 99.3%

System: methane + butane + decane; phases: Fluid (supercritical or subcritical phases)
Fixed: Mole fraction of methane = 0.8099
Fixed: Mole fraction of butane = 0.14
Property: Mass density, kg/m3 (Fluid (supercritical or subcritical phases)); method: Vibrating tube method
Temperature, K	Pressure, kPa	Mass density, kg/m3	uncertainty
278.15	40000	435	1.1
298.15	40000	413.5	1.1
323.15	40000	387.4	1
348.15	40000	362.8	1
373.15	40000	339.8	3.1
423.15	40000	299.8	3.1
463.15	40000	272.1	3.1
278.15	60000	463.7	1.4
298.15	60000	446.6	1.4
323.15	60000	426.1	1.3
348.15	60000	406.6	1.3
373.15	60000	388.3	3.2
423.15	60000	355.1	3.2
463.15	60000	330.3	3.1
278.15	80000	483.4	1.7
298.15	80000	468.5	1.7
323.15	80000	451	1.6
348.15	80000	434.5	1.6
373.15	80000	418.7	3.3
423.15	80000	389.1	3.3
463.15	80000	366.1	3.2
278.15	100000	499.5	2.2
298.15	100000	486	2.1
323.15	100000	470.2	2
348.15	100000	455.3	2
373.15	100000	441	3.5
423.15	100000	413.6	3.4
463.15	100000	392	3.4
278.15	120000	513.4	2.5
298.15	120000	500.7	2.5
323.15	120000	486.2	2.5
348.15	120000	472.5	2.4
373.15	120000	459	3.7
423.15	120000	432.8	3.6
463.15	120000	412.9	3.6
278.15	140000	525.2	2.8
298.15	140000	513.1	2.9
323.15	140000	499.4	2.9
348.15	140000	486.3	2.9
373.15	140000	473.2	3.9
423.15	140000	447.4	3.8
463.15	140000	429.4	3.8

System: methane + butane + dodecane; phases: Fluid (supercritical or subcritical phases)
Fixed: Mole fraction of methane = 0.8494
Fixed: Mole fraction of butane = 0.1004
Property: Mass density, kg/m3 (Fluid (supercritical or subcritical phases)); method: Vibrating tube method
Temperature, K	Pressure, kPa	Mass density, kg/m3	uncertainty
298.15	40000	399.8	1.1
323.15	40000	372.6	1
348.15	40000	347.9	1
373.15	40000	328.5	3.1
423.15	40000	295.4	3.1
463.15	40000	272.8	3.1
298.15	60000	437.6	1.3
323.15	60000	415.7	1.3
348.15	60000	396	1.3
373.15	60000	380.8	3.2
423.15	60000	354	3.2
463.15	60000	333.6	3.1
298.15	80000	462.7	1.7
323.15	80000	443.6	1.6
348.15	80000	426.5	1.6
373.15	80000	413.3	3.3
423.15	80000	388.8	3.3
463.15	80000	370.4	3.2
298.15	100000	482.2	2.1
323.15	100000	465.3	2
348.15	100000	449.6	2
373.15	100000	436.7	3.5
423.15	100000	414.4	3.4
463.15	100000	398.2	3.4
298.15	120000	498.4	2.5
323.15	120000	483.1	2.5
348.15	120000	468.6	2.4
373.15	120000	456.3	3.7
423.15	120000	436.7	3.6
463.15	120000	422.3	3.6
298.15	140000	512.3	2.9
323.15	140000	498.1	2.9
348.15	140000	484.6	2.9
373.15	140000	474.2	3.9
423.15	140000	456.2	3.9
463.15	140000	442.7	3.8
