Measured thermophysical data. Low-Pressure VLE Measurements and Thermodynamic Modeling, with PSRK and NRTL, of Binary 1-Alcohol + n-Alkane Systems
Source: J. Chem. Eng. Data, 2018, 10.1021/acs.jced.8b00680
Compound 1: ethanol, C2H6O, InChI=1S/C2H6O/c1-2-3/h3H,2H2,1H3, purity 99.8%
Compound 2: 2,2,4-trimethylpentane, C8H18, InChI=1S/C8H18/c1-7(2)6-8(3,4)5/h7H,6H2,1-5H3, purity 99%
Compound 3: pentan-1-ol, C5H12O, InChI=1S/C5H12O/c1-2-3-4-5-6/h6H,2-5H2,1H3, purity 99%
Compound 4: hexan-1-ol, C6H14O, InChI=1S/C6H14O/c1-2-3-4-5-6-7/h7H,2-6H2,1H3, purity 99%
Compound 5: heptan-1-ol, C7H16O, InChI=1S/C7H16O/c1-2-3-4-5-6-7-8/h8H,2-7H2,1H3, purity 98%
Compound 6: octan-1-ol, C8H18O, InChI=1S/C8H18O/c1-2-3-4-5-6-7-8-9/h9H,2-8H2,1H3, purity 99%
Compound 7: decan-1-ol, C10H22O, InChI=1S/C10H22O/c1-2-3-4-5-6-7-8-9-10-11/h11H,2-10H2,1H3, purity 99%
Compound 8: nonane, C9H20, InChI=1S/C9H20/c1-3-5-7-9-8-6-4-2/h3-9H2,1-2H3, purity 99%
Compound 9: decane, C10H22, InChI=1S/C10H22/c1-3-5-7-9-10-8-6-4-2/h3-10H2,1-2H3, purity 99%
Compound 10: undecane, C11H24, InChI=1S/C11H24/c1-3-5-7-9-11-10-8-6-4-2/h3-11H2,1-2H3, purity 99%
Compound 11: dodecane, C12H26, InChI=1S/C12H26/c1-3-5-7-9-11-12-10-8-6-4-2/h3-12H2,1-2H3, purity 99%
Compound 12: tetradecane, C14H30, InChI=1S/C14H30/c1-3-5-7-9-11-13-14-12-10-8-6-4-2/h3-14H2,1-2H3, purity 99%

System: ethanol; phases: Liquid, Gas
Property: Vapor or sublimation pressure, kPa (Liquid); method: Ebulliometric method (Recirculating still)
Temperature, K	Vapor or sublimation pressure, kPa	uncertainty
351.44	101.3	2.17795

System: 2,2,4-trimethylpentane; phases: Liquid, Gas
Property: Vapor or sublimation pressure, kPa (Liquid); method: Ebulliometric method (Recirculating still)
Temperature, K	Vapor or sublimation pressure, kPa	uncertainty
372.26	101.3	2.17795

System: pentan-1-ol; phases: Liquid, Gas
Property: Vapor or sublimation pressure, kPa (Liquid); method: Ebulliometric method (Recirculating still)
Temperature, K	Vapor or sublimation pressure, kPa	uncertainty
410.73	101.2	1.43
407.17	90.21	1.41
404.59	82.75	1.33
400.95	72.93	1.26
398.11	66.15	1.16
392.76	54.41	1.07
384.85	40.01	1.02
384.45	40	1.1

System: hexan-1-ol; phases: Liquid, Gas
Property: Vapor or sublimation pressure, kPa (Liquid); method: Ebulliometric method (Recirculating still)
Temperature, K	Vapor or sublimation pressure, kPa	uncertainty
429.19	99.78	2.01
427.54	92.07	1.56
425.15	85.63	1.27
421.9	77.4	1.2
418.35	69.27	1.13
413.31	58.84	1.07
407.89	48.72	1.06
403.66	40.02	1.09
402.36	40	1.1

System: heptan-1-ol; phases: Liquid, Gas
Property: Vapor or sublimation pressure, kPa (Liquid); method: Ebulliometric method (Recirculating still)
Temperature, K	Vapor or sublimation pressure, kPa	uncertainty
444.34	88.14	1.23
441.44	81.04	1.21
438.22	73.4	1.17
433.75	63.5	1.12
430.35	56.78	1.05
426.27	49.44	1
423	44.2	0.96
420.4	40.12	0.96
419.4	40	1.1

System: octan-1-ol; phases: Liquid, Gas
Property: Vapor or sublimation pressure, kPa (Liquid); method: Ebulliometric method (Recirculating still)
Temperature, K	Vapor or sublimation pressure, kPa	uncertainty
466.8	97.64	1.26
463.5	89.16	1.23
460.31	81.52	1.18
457.08	74.25	1.18
454.35	67.6	1.12
450.45	60.03	1.02
445.86	52.15	0.99
443.61	48.62	0.93
437.67	40.08	0.92
436.67	40	1.1

System: decan-1-ol; phases: Liquid, Gas
Property: Vapor or sublimation pressure, kPa (Liquid); method: Ebulliometric method (Recirculating still)
Temperature, K	Vapor or sublimation pressure, kPa	uncertainty
496.88	85.24	1.14
494.46	79.92	1.1
492.56	76.32	1.07
491.16	73.44	1.05
487.9	67.43	1
484.05	61.26	0.96
481.36	57.04	0.95
479.42	54.07	0.94
476.8	50.19	0.94
475.4	47.97	0.94
472.98	44.4	0.92
469.83	40.03	0.91
469.23	40	1.1

System: nonane; phases: Liquid, Gas
Property: Vapor or sublimation pressure, kPa (Liquid); method: Ebulliometric method (Recirculating still)
Temperature, K	Vapor or sublimation pressure, kPa	uncertainty
423.88	101.7	1.27
420.83	93.72	1.26
417.05	84.18	1.2
413.23	75.48	1.14
409.14	66.68	1.09
404.65	58.04	1.04
399.76	49.24	0.94
392.77	39.96	0.9
392.17	40	1.1

System: decane; phases: Liquid, Gas
Property: Vapor or sublimation pressure, kPa (Liquid); method: Ebulliometric method (Recirculating still)
Temperature, K	Vapor or sublimation pressure, kPa	uncertainty
446.01	98.88	1.22
443.51	92.72	1.2
439.77	83.97	1.15
435.6	75.05	1.09
431.14	66.32	1.03
425.83	57.04	0.98
420.5	48.74	0.93
414.08	40	0.9
414.18	40	1.1

System: undecane; phases: Liquid, Gas
Property: Vapor or sublimation pressure, kPa (Liquid); method: Ebulliometric method (Recirculating still)
Temperature, K	Vapor or sublimation pressure, kPa	uncertainty
458.59	78.59	1.08
454.55	70.48	1.06
451.59	65.09	1.01
448.68	60.13	0.98
445.4	54.82	0.95
442.2	50.04	0.92
438.71	45.18	0.89
434.6	40.04	0.88
434.5	40	1.1

System: dodecane; phases: Liquid, Gas
Property: Vapor or sublimation pressure, kPa (Liquid); method: Ebulliometric method (Recirculating still)
Temperature, K	Vapor or sublimation pressure, kPa	uncertainty
478.47	77.75	1.04
474.33	69.97	1.03
470.69	63.63	0.99
467.52	58.41	0.96
465.47	55.35	0.93
461.72	49.93	0.92
459.31	46.71	0.89
456.87	43.58	0.87
453.92	40.08	0.86
453.92	40	1.1

System: tetradecane; phases: Liquid, Gas
Property: Vapor or sublimation pressure, kPa (Liquid); method: Ebulliometric method (Recirculating still)
Temperature, K	Vapor or sublimation pressure, kPa	uncertainty
498.07	50.7	0.89
497.96	50.5	0.88
496.08	48.13	0.88
495.18	46.96	0.87
492.53	43.8	0.86
491.29	42.42	0.86
489.26	40.04	0.86
489.17	40	0.85

System: ethanol + 2,2,4-trimethylpentane; phases: Liquid, Gas
Fixed: Pressure, kPa = 101.3
Property: Boiling temperature at pressure P, K (Liquid); method: Ebulliometric method (Recirculating still)
Mole fraction of ethanol	Boiling temperature at pressure P, K	uncertainty
1	351.44	0.43
0.996	351.17	0.52
0.984	350.63	1.33
0.982	350.03	1.32
0.966	349.29	1.32
0.966	349.17	1.28
0.957	348.16	1.29
0.935	346.77	1.66
0.864	345.54	0.52
0.674	344.84	0.46
0.618	344.58	0.46
0.591	344.53	0.45
0.564	344.48	0.44
0.532	344.42	0.44
0.494	344.4	0.43
0.462	344.33	0.43
0.419	344.37	0.43
0.353	344.35	0.43
0.255	344.49	0.66
0.251	344.73	0.66
0.184	346.37	2.34
0.0381	355.43	2.41
0	372.26	0.43

System: ethanol + 2,2,4-trimethylpentane; phases: Gas, Liquid
Fixed: Pressure, kPa = 101.3
Property: Mole fraction of ethanol (Gas); method: Chromatography
Mole fraction of ethanol	Mole fraction of ethanol	uncertainty
1	1	
0.996	0.995	0.005
0.984	0.922	0.063
0.982	0.967	0.033
0.966	0.903	0.073
0.966	0.841	0.058
0.957	0.826	0.063
0.935	0.782	0.095
0.864	0.73	0.047
0.674	0.682	0.046
0.618	0.641	0.048
0.591	0.661	0.047
0.564	0.635	0.044
0.532	0.627	0.046
0.494	0.653	0.044
0.462	0.624	0.044
0.419	0.62	0.046
0.353	0.612	0.045
0.255	0.594	0.045
0.251	0.594	0.045
0.184	0.575	0.062
0.0381	0.393	0.065
0	0	

System: pentan-1-ol + nonane; phases: Liquid, Gas
Fixed: Pressure, kPa = 40
Property: Boiling temperature at pressure P, K (Liquid); method: Ebulliometric method (Recirculating still)
Mole fraction of pentan-1-ol	Boiling temperature at pressure P, K	uncertainty
1	384.45	0.55
0.99	384.09	0.67
0.979	383.61	0.92
0.979	383.5	0.89
0.959	382.89	1.34
0.945	382.36	1.54
0.93	381.87	1.49
0.897	381.04	1.16
0.892	380.69	1.16
0.885	380.66	1.11
0.875	380.37	1.12
0.87	380.27	1.13
0.857	380.09	1.03
0.826	379.57	0.82
0.795	379.2	0.8
0.765	378.81	0.68
0.742	378.57	0.65
0.729	378.64	0.62
0.719	378.59	0.59
0.698	378.44	0.57
0.69	378.39	0.57
0.692	378.4	0.57
0.641	378.17	0.55
0.621	378.09	0.56
0.552	378.09	0.55
0.493	377.93	0.55
0.463	377.98	0.55
0.402	378.18	0.57
0.359	378.32	0.6
0.318	378.78	0.62
0.323	378.49	0.62
0.254	379.16	0.67
0.216	379.59	0.79
0.211	379.95	0.8
0.209	379.76	0.97
0.188	380.17	1.17
0.182	380.46	1.16
0.151	381.03	1.31
0.101	382.71	2.98
0.095	383.36	2.94
0.09	383.85	2.91
0.061	385.23	2.9
0.059	385.89	3.21
0.022	389.38	1.87
0.016	390.17	1.84
0	392.17	0.55

System: pentan-1-ol + nonane; phases: Gas, Liquid
Fixed: Pressure, kPa = 101.3
Property: Mole fraction of pentan-1-ol (Gas); method: Chromatography
Mole fraction of pentan-1-ol	Mole fraction of pentan-1-ol	uncertainty
1	1	
0.99	0.966	0.034
0.979	0.934	0.064
0.979	0.934	0.064
0.959	0.893	0.091
0.945	0.853	0.101
0.93	0.824	0.097
0.897	0.773	0.07
0.892	0.764	0.07
0.885	0.749	0.067
0.875	0.744	0.068
0.87	0.734	0.068
0.857	0.724	0.068
0.826	0.703	0.059
0.795	0.666	0.058
0.765	0.642	0.057
0.742	0.626	0.052
0.729	0.619	0.051
0.719	0.617	0.05
0.698	0.605	0.049
0.69	0.602	0.049
0.692	0.602	0.049
0.641	0.579	0.048
0.621	0.571	0.048
0.552	0.543	0.047
0.493	0.522	0.047
0.463	0.512	0.047
0.402	0.491	0.047
0.359	0.477	0.047
0.318	0.47	0.047
0.323	0.466	0.047
0.254	0.44	0.049
0.216	0.422	0.051
0.211	0.418	0.051
0.209	0.416	0.052
0.188	0.411	0.056
0.182	0.393	0.055
0.151	0.375	0.058
0.101	0.324	0.106
0.095	0.308	0.105
0.09	0.288	0.104
0.061	0.242	0.105
0.059	0.219	0.115
0.022	0.1	0.075
0.016	0.068	0.068
0	0	

System: hexan-1-ol + decane; phases: Liquid, Gas
Fixed: Pressure, kPa = 40
Property: Boiling temperature at pressure P, K (Liquid); method: Ebulliometric method (Recirculating still)
Mole fraction of hexan-1-ol	Boiling temperature at pressure P, K	uncertainty
1	402.36	0.55
0.994	402.07	0.57
0.986	401.87	0.64
0.977	401.66	0.77
0.968	401.43	0.92
0.959	401.16	0.88
0.948	400.83	1.05
0.921	400.34	1.08
0.903	400.21	0.87
0.896	399.84	0.87
0.875	399.47	0.78
0.869	399.45	0.78
0.861	399.38	0.79
0.844	399.23	0.71
0.833	399.12	0.68
0.816	399	0.64
0.797	398.84	0.62
0.779	398.75	0.62
0.768	398.67	0.62
0.763	398.63	0.63
0.742	398.54	0.55
0.725	398.38	0.55
0.543	398.5	0.55
0.507	398.49	0.57
0.497	398.59	0.56
0.469	398.65	0.57
0.462	398.67	0.59
0.444	398.79	0.59
0.439	398.81	0.59
0.43	398.86	0.59
0.418	398.92	0.61
0.407	398.87	0.6
0.397	399.07	0.62
0.374	399.19	0.63
0.355	399.25	0.7
0.319	399.64	0.76
0.287	400.04	0.79
0.239	400.78	1.14
0.167	402.73	1.65
0.125	403.95	1.86
0.094	405.92	2.26
0.049	408.68	3.92
0.034	409.7	2.21
0.024	410.66	1.71
0.012	411.62	1
0	414.18	0.55

System: hexan-1-ol + decane; phases: Gas, Liquid
Fixed: Pressure, kPa = 101.3
Property: Mole fraction of hexan-1-ol (Gas); method: Chromatography
Mole fraction of hexan-1-ol	Mole fraction of hexan-1-ol	uncertainty
1	1	
0.994	0.982	0.018
0.986	0.961	0.039
0.977	0.94	0.06
0.968	0.922	0.073
0.959	0.904	0.076
0.948	0.883	0.09
0.921	0.836	0.085
0.903	0.82	0.077
0.896	0.803	0.077
0.875	0.768	0.067
0.869	0.766	0.067
0.861	0.754	0.068
0.844	0.734	0.064
0.833	0.725	0.063
0.816	0.715	0.052
0.797	0.699	0.054
0.779	0.684	0.053
0.768	0.695	0.048
0.763	0.671	0.057
0.742	0.66	0.049
0.725	0.654	0.049
0.543	0.574	0.048
0.507	0.566	0.047
0.497	0.561	0.048
0.469	0.542	0.047
0.462	0.551	0.048
0.444	0.533	0.047
0.439	0.539	0.047
0.43	0.528	0.047
0.418	0.529	0.047
0.407	0.525	0.048
0.397	0.529	0.046
0.374	0.519	0.046
0.355	0.507	0.048
0.319	0.5	0.049
0.287	0.478	0.049
0.239	0.453	0.054
0.167	0.397	0.065
0.125	0.355	0.072
0.094	0.297	0.085
0.049	0.2	0.146
0.034	0.16	0.089
0.024	0.125	0.074
0.012	0.091	0.0533
0	0	

System: heptan-1-ol + undecane; phases: Liquid, Gas
Fixed: Pressure, kPa = 40
Property: Boiling temperature at pressure P, K (Liquid); method: Ebulliometric method (Recirculating still)
Mole fraction of heptan-1-ol	Boiling temperature at pressure P, K	uncertainty
1	419.4	0.55
0.989	419.26	0.6
0.978	419.03	0.71
0.958	418.52	0.79
0.941	418.24	0.85
0.92	417.86	0.85
0.901	417.75	0.76
0.87	417.47	0.67
0.841	417.12	0.66
0.828	416.95	0.64
0.805	416.87	0.61
0.792	416.84	0.57
0.781	416.92	0.55
0.761	416.86	0.55
0.759	416.9	0.55
0.738	416.79	0.55
0.72	416.84	0.56
0.705	416.85	0.55
0.698	416.8	0.55
0.669	416.72	0.55
0.645	416.73	0.57
0.628	416.78	0.57
0.615	416.78	0.58
0.478	417.52	0.61
0.407	418.12	0.68
0.383	418.26	0.7
0.352	418.66	0.92
0.324	419.09	0.9
0.311	419.47	0.91
0.297	419.98	0.95
0.284	420	1.01
0.27	420.1	1.05
0.242	420.59	1.05
0.223	421.15	1.38
0.187	422.23	1.52
0.158	423.3	1.77
0.157	423.33	1.77
0.152	423.42	1.76
0.136	424.02	1.99
0.116	424.99	2.39
0.097	425.97	3.09
0.086	426.63	3.28
0.07	428.56	3.72
0.031	431.7	2.91
0.017	433.25	1.6
0	434.5	0.55

System: heptan-1-ol + undecane; phases: Gas, Liquid
Fixed: Pressure, kPa = 101.3
Property: Mole fraction of heptan-1-ol (Gas); method: Chromatography
Mole fraction of heptan-1-ol	Mole fraction of heptan-1-ol	uncertainty
1	1	
0.989	0.98	0.02
0.978	0.957	0.043
0.958	0.924	0.072
0.941	0.897	0.075
0.92	0.87	0.074
0.901	0.847	0.069
0.87	0.813	0.061
0.841	0.782	0.062
0.828	0.773	0.059
0.805	0.761	0.055
0.792	0.741	0.052
0.781	0.741	0.051
0.761	0.731	0.052
0.759	0.73	0.052
0.738	0.716	0.048
0.72	0.709	0.049
0.705	0.701	0.052
0.698	0.691	0.052
0.669	0.688	0.049
0.645	0.662	0.048
0.628	0.653	0.048
0.615	0.659	0.049
0.478	0.595	0.05
0.407	0.552	0.047
0.383	0.561	0.048
0.352	0.549	0.05
0.324	0.529	0.052
0.311	0.515	0.053
0.297	0.493	0.055
0.284	0.505	0.055
0.27	0.49	0.055
0.242	0.468	0.054
0.223	0.453	0.064
0.187	0.417	0.062
0.158	0.375	0.066
0.157	0.378	0.066
0.152	0.383	0.066
0.136	0.365	0.068
0.116	0.339	0.083
0.097	0.313	0.11
0.086	0.297	0.117
0.07	0.226	0.131
0.031	0.108	0.108
0.017	0.061	0.061
0	0	

System: octan-1-ol + dodecane; phases: Liquid, Gas
Fixed: Pressure, kPa = 40
Property: Boiling temperature at pressure P, K (Liquid); method: Ebulliometric method (Recirculating still)
Mole fraction of octan-1-ol	Boiling temperature at pressure P, K	uncertainty
1	436.67	0.55
0.998	436.42	0.55
0.985	436.13	0.56
0.973	436.07	0.6
0.945	435.82	0.69
0.923	435.62	0.67
0.902	435.38	0.64
0.879	435.26	0.57
0.86	435.14	0.57
0.84	435.08	0.55
0.837	435.13	0.55
0.799	435.16	0.55
0.736	435.13	0.55
0.723	435.18	0.55
0.709	435.22	0.55
0.673	435.29	0.56
0.574	435.59	0.58
0.551	435.79	0.58
0.503	436.07	0.6
0.425	436.47	0.66
0.389	436.94	0.66
0.353	437.32	0.75
0.332	437.54	0.75
0.299	437.94	0.83
0.276	438.25	0.85
0.272	438.49	0.86
0.227	439.11	0.94
0.19	439.64	1.07
0.15	440.57	1.3
0.117	441.75	1.88
0.095	442.73	2.16
0.085	443.33	2.44
0.08	443.9	2.44
0.048	445.45	4.96
0.035	446.86	2.37
0.027	447.76	2.04
0.014	449.91	1.39
0.004	452.99	0.88
0	453.92	0.55

System: octan-1-ol + dodecane; phases: Gas, Liquid
Fixed: Pressure, kPa = 101.3
Property: Mole fraction of octan-1-ol (Gas); method: Chromatography
Mole fraction of octan-1-ol	Mole fraction of octan-1-ol	uncertainty
1	1	
0.998	0.993	0.007
0.985	0.968	0.032
0.973	0.948	0.052
0.945	0.913	0.073
0.923	0.886	0.069
0.902	0.862	0.066
0.879	0.836	0.059
0.86	0.812	0.06
0.84	0.799	0.057
0.837	0.8	0.057
0.799	0.773	0.054
0.736	0.726	0.05
0.723	0.721	0.051
0.709	0.719	0.05
0.673	0.703	0.049
0.574	0.653	0.05
0.551	0.651	0.049
0.503	0.617	0.048
0.425	0.598	0.046
0.389	0.604	0.045
0.353	0.57	0.047
0.332	0.575	0.049
0.299	0.554	0.048
0.276	0.553	0.05
0.272	0.54	0.05
0.227	0.521	0.055
0.19	0.496	0.055
0.15	0.453	0.064
0.117	0.427	0.077
0.095	0.379	0.082
0.085	0.361	0.086
0.08	0.354	0.086
0.048	0.293	0.168
0.035	0.258	0.087
0.027	0.235	0.075
0.014	0.145	0.062
0.004	0.041	0.041
0	0	

System: decan-1-ol + tetradecane; phases: Liquid, Gas
Fixed: Pressure, kPa = 40
Property: Boiling temperature at pressure P, K (Liquid); method: Ebulliometric method (Recirculating still)
Mole fraction of decan-1-ol	Boiling temperature at pressure P, K	uncertainty
1	469.23	0.55
0.994	469.01	0.55
0.984	468.92	0.55
0.961	468.77	0.55
0.943	468.72	0.56
0.922	468.65	0.56
0.865	468.66	0.55
0.858	468.56	0.55
0.835	468.6	0.55
0.809	468.74	0.56
0.805	468.73	0.56
0.787	468.88	0.57
0.785	468.9	0.57
0.773	468.69	0.56
0.737	468.92	0.58
0.7	469.03	0.6
0.667	469.4	0.61
0.651	469.39	0.63
0.65	469.17	0.63
0.616	469.68	0.61
0.573	469.91	0.72
0.535	470.22	0.68
0.532	470.4	0.67
0.495	470.8	0.71
0.44	471.26	0.72
0.411	471.77	0.76
0.372	472.08	0.94
0.342	472.62	0.92
0.306	473.61	0.98
0.301	473.61	1.14
0.274	474.09	1.14
0.267	474.47	1.14
0.259	474.12	1.08
0.249	474.88	1.16
0.208	475.67	1.38
0.176	476.52	1.35
0.135	477.7	1.88
0.116	478.64	2.11
0.105	478.5	2.3
0.104	479.47	2.31
0.069	481.54	3.48
0.043	483.34	2.78
0.075	481.17	3.25
0.025	485.76	2.46
0.011	487.63	1.28
0	489.17	0.55

System: decan-1-ol + tetradecane; phases: Gas, Liquid
Fixed: Pressure, kPa = 101.3
Property: Mole fraction of decan-1-ol (Gas); method: Chromatography
Mole fraction of decan-1-ol	Mole fraction of decan-1-ol	uncertainty
1	1	
0.994	0.991	0.009
0.984	0.978	0.022
0.961	0.952	0.048
0.943	0.935	0.06
0.922	0.916	0.06
0.865	0.869	0.054
0.858	0.866	0.054
0.835	0.853	0.054
0.809	0.834	0.052
0.805	0.836	0.052
0.787	0.818	0.052
0.785	0.82	0.052
0.773	0.811	0.053
0.737	0.79	0.052
0.7	0.765	0.051
0.667	0.748	0.051
0.651	0.739	0.05
0.65	0.736	0.05
0.616	0.722	0.049
0.573	0.698	0.049
0.535	0.682	0.049
0.532	0.683	0.049
0.495	0.661	0.049
0.44	0.635	0.049
0.411	0.623	0.049
0.372	0.604	0.049
0.342	0.587	0.049
0.306	0.57	0.05
0.301	0.572	0.05
0.274	0.555	0.052
0.267	0.545	0.052
0.259	0.543	0.053
0.249	0.54	0.057
0.208	0.505	0.062
0.176	0.473	0.066
0.135	0.421	0.075
0.116	0.392	0.087
0.105	0.382	0.09
0.104	0.366	0.09
0.069	0.289	0.13
0.043	0.233	0.104
0.075	0.321	0.12
0.025	0.139	0.096
0.011	0.072	0.0603
0	0	
