Measured thermophysical data. Vapor Pressure Osmometry, Volumetry, and Compressibility Properties for Solutions of Several Imidazolium Based Ionic Liquids in (Glycine + Water) Solutions
Source: J. Chem. Eng. Data, 2017, 10.1021/acs.jced.7b00297
Compound 1: 1-butyl-3-methylimidazolium chloride, C8H15ClN2, InChI=1S/C8H15N2.ClH/c1-3-4-5-10-7-6-9(2)8-10;/h6-8H,3-5H2,1-2H3;1H/q+1;/p-1, purity 98%
Compound 2: 1-hexyl-3-methylimidazolium chloride, C10H19ClN2, InChI=1S/C10H19N2.ClH/c1-3-4-5-6-7-12-9-8-11(2)10-12;/h8-10H,3-7H2,1-2H3;1H/q+1;/p-1, purity 98%
Compound 3: 1-butyl-3-methylimidazolium trifluoromethanesulfonate, C9H15F3N2O3S, InChI=1S/C8H15N2.CHF3O3S/c1-3-4-5-10-7-6-9(2)8-10;2-1(3,4)8(5,6)7/h6-8H,3-5H2,1-2H3;(H,5,6,7)/q+1;/p-1, purity 98%
Compound 4: 2-aminoacetic acid, C2H5NO2, InChI=1S/C2H5NO2/c3-1-2(4)5/h1,3H2,(H,4,5), purity 99.7%
Compound 5: water, H2O, InChI=1S/H2O/h1H2, purity 99.8%

System: 1-hexyl-3-methylimidazolium chloride; phases: Liquid
Property: Mass density, kg/m3 (Liquid); method: Vibrating tube method
Temperature, K	Pressure, kPa	Mass density, kg/m3	uncertainty
298.15	101.325	1042.861	4.256

System: 1-butyl-3-methylimidazolium trifluoromethanesulfonate; phases: Liquid
Property: Mass density, kg/m3 (Liquid); method: Vibrating tube method
Temperature, K	Pressure, kPa	Mass density, kg/m3	uncertainty
298.15	101.325	1297.838	5.371

System: water + 2-aminoacetic acid + 1-butyl-3-methylimidazolium chloride; phases: Liquid
Fixed: Solvent: Molality, mol/kg of 2-aminoacetic acid = 0.7041
Fixed: Pressure, kPa = 84.5
Fixed: Temperature, K = 308.15
Property: (Relative) activity of water (Liquid); method: vapor pressure osmometry
Molality, mol/kg of 1-butyl-3-methylimidazolium chloride	(Relative) activity of water	uncertainty
0	0.9883	0.0387
0.1497	0.9813	0.0387
0.3031	0.9755	0.0387
0.5269	0.9678	0.0387
0.7243	0.9616	0.0387
0.8996	0.9563	0.0387

System: water + 2-aminoacetic acid + 1-butyl-3-methylimidazolium chloride; phases: Liquid
Fixed: Pressure, kPa = 84.5
Fixed: Solvent: Molality, mol/kg of 2-aminoacetic acid = 0.7041
Property: Mass density, kg/m3 (Liquid); method: Vibrating tube method
Temperature, K	Molality, mol/kg of 1-butyl-3-methylimidazolium chloride	Mass density, kg/m3	uncertainty
288.15	0.0346	1020.16	4.084
288.15	0.0581	1020.397	4.085
288.15	0.0748	1020.556	4.086
288.15	0.1166	1020.946	4.087
288.15	0.1697	1021.442	4.089
288.15	0.23	1022.043	4.092
288.15	0.414	1023.814	4.099
288.15	0.7522	1027.201	4.112
298.15	0.0346	1017.602	4.074
298.15	0.0581	1017.816	4.075
298.15	0.0748	1017.959	4.075
298.15	0.1166	1018.31	4.077
298.15	0.1697	1018.76	4.078
298.15	0.23	1019.296	4.081
298.15	0.414	1020.887	4.087
298.15	0.7522	1023.928	4.099
308.15	0.0346	1014.247	4.06
308.15	0.0581	1014.441	4.061
308.15	0.0748	1014.574	4.062
308.15	0.1166	1014.892	4.063
308.15	0.1697	1015.301	4.064
308.15	0.23	1015.784	4.066
308.15	0.414	1017.232	4.072
308.15	0.7522	1019.995	4.083
318.15	0.0346	1010.207	4.044
318.15	0.0581	1010.387	4.045
318.15	0.0748	1010.508	4.045
318.15	0.1166	1010.798	4.046
318.15	0.1697	1011.173	4.048
318.15	0.23	1011.62	4.05
318.15	0.414	1012.945	4.055
318.15	0.7522	1015.478	4.065

System: water + 2-aminoacetic acid + 1-butyl-3-methylimidazolium chloride; phases: Liquid
Fixed: Pressure, kPa = 84.5
Fixed: Solvent: Molality, mol/kg of 2-aminoacetic acid = 0.7041
Property: Speed of sound, m/s (Liquid); method: Single path-length method
Temperature, K	Molality, mol/kg of 1-butyl-3-methylimidazolium chloride	Speed of sound, m/s	uncertainty
288.15	0.0346	1507.75	1.3
288.15	0.0581	1511.32	1.3
288.15	0.0748	1513.78	1.3
288.15	0.1166	1519.8	1.3
288.15	0.1697	1527.35	1.3
288.15	0.23	1535.73	1.3
288.15	0.414	1559.94	1.3
288.15	0.7522	1601.55	1.3
298.15	0.0346	1535.16	1.31
298.15	0.0581	1538.23	1.3
298.15	0.0748	1540.39	1.3
298.15	0.1166	1545.59	1.3
298.15	0.1697	1552.16	1.3
298.15	0.23	1559.44	1.3
298.15	0.414	1580.46	1.3
298.15	0.7522	1616.56	1.3
308.15	0.0346	1555.77	1.3
308.15	0.0581	1558.45	1.3
308.15	0.0748	1560.35	1.3
308.15	0.1166	1564.88	1.3
308.15	0.1697	1570.61	1.3
308.15	0.23	1576.99	1.3
308.15	0.414	1595.19	1.3
308.15	0.7522	1626.52	1.3
318.15	0.0346	1570.83	1.3
318.15	0.0581	1572.87	1.3
318.15	0.0748	1574.53	1.3
318.15	0.1166	1578.45	1.3
318.15	0.1697	1583.43	1.3
318.15	0.23	1588.99	1.3
318.15	0.414	1604.82	1.3
318.15	0.7522	1632	1.3

System: water + 2-aminoacetic acid + 1-hexyl-3-methylimidazolium chloride; phases: Liquid
Fixed: Solvent: Molality, mol/kg of 2-aminoacetic acid = 0.7041
Fixed: Pressure, kPa = 84.5
Fixed: Temperature, K = 308.15
Property: (Relative) activity of water (Liquid); method: vapor pressure osmometry
Molality, mol/kg of 1-hexyl-3-methylimidazolium chloride	(Relative) activity of water	uncertainty
0	0.9883	0.0387
0.1557	0.981	0.0387
0.3012	0.9756	0.0387
0.52	0.9687	0.0387
0.7416	0.9629	0.0387
0.8993	0.9594	0.0387

System: water + 2-aminoacetic acid + 1-hexyl-3-methylimidazolium chloride; phases: Liquid
Fixed: Pressure, kPa = 84.5
Fixed: Solvent: Molality, mol/kg of 2-aminoacetic acid = 0.7041
Property: Mass density, kg/m3 (Liquid); method: Vibrating tube method
Temperature, K	Molality, mol/kg of 1-hexyl-3-methylimidazolium chloride	Mass density, kg/m3	uncertainty
288.15	0.0224	1020.759	4.086
288.15	0.037	1020.844	4.087
288.15	0.0547	1020.958	4.087
288.15	0.072	1021.066	4.088
288.15	0.1075	1021.28	4.088
288.15	0.1526	1021.562	4.09
288.15	0.2056	1021.906	4.091
288.15	0.3033	1022.555	4.094
288.15	0.5376	1024.162	4.1
288.15	0.847	1026.218	4.108
298.15	0.0224	1018.19	4.076
298.15	0.037	1018.253	4.076
298.15	0.0547	1018.34	4.077
298.15	0.072	1018.425	4.077
298.15	0.1075	1018.591	4.078
298.15	0.1526	1018.809	4.079
298.15	0.2056	1019.075	4.08
298.15	0.3033	1019.581	4.082
298.15	0.5376	1020.832	4.087
298.15	0.847	1022.423	4.093
308.15	0.0224	1014.827	4.063
308.15	0.037	1014.87	4.063
308.15	0.0547	1014.937	4.063
308.15	0.072	1015	4.063
308.15	0.1075	1015.124	4.064
308.15	0.1526	1015.289	4.064
308.15	0.2056	1015.492	4.065
308.15	0.3033	1015.875	4.067
308.15	0.5376	1016.826	4.071
308.15	0.847	1018.032	4.075
318.15	0.0224	1010.777	4.046
318.15	0.037	1010.809	4.046
318.15	0.0547	1010.853	4.047
318.15	0.072	1010.904	4.047
318.15	0.1075	1010.991	4.047
318.15	0.1526	1011.108	4.048
318.15	0.2056	1011.252	4.048
318.15	0.3033	1011.529	4.049
318.15	0.5376	1012.229	4.052
318.15	0.847	1013.122	4.056

System: water + 2-aminoacetic acid + 1-hexyl-3-methylimidazolium chloride; phases: Liquid
Fixed: Pressure, kPa = 84.5
Fixed: Solvent: Molality, mol/kg of 2-aminoacetic acid = 0.7041
Property: Speed of sound, m/s (Liquid); method: Single path-length method
Temperature, K	Molality, mol/kg of 1-hexyl-3-methylimidazolium chloride	Speed of sound, m/s	uncertainty
288.15	0.0224	1507.94	1.3
288.15	0.037	1510.65	1.3
288.15	0.0547	1513.81	1.3
288.15	0.072	1516.76	1.3
288.15	0.1075	1522.95	1.3
288.15	0.1526	1530.55	1.3
288.15	0.2056	1539.39	1.3
288.15	0.3033	1554.79	1.3
288.15	0.5376	1588.07	1.3
288.15	0.847	1624.15	1.3
298.15	0.0224	1535.4	1.3
298.15	0.037	1537.68	1.3
298.15	0.0547	1540.39	1.3
298.15	0.072	1542.9	1.3
298.15	0.1075	1548.25	1.3
298.15	0.1526	1554.74	1.3
298.15	0.2056	1562.28	1.3
298.15	0.3033	1575.37	1.3
298.15	0.5376	1603.43	1.3
298.15	0.847	1633.14	1.3
308.15	0.0224	1555.99	1.31
308.15	0.037	1557.97	1.3
308.15	0.0547	1560.31	1.3
308.15	0.072	1562.53	1.3
308.15	0.1075	1567.05	1.3
308.15	0.1526	1572.57	1.3
308.15	0.2056	1578.97	1.3
308.15	0.3033	1590.05	1.3
308.15	0.5376	1613.54	1.3
308.15	0.847	1637.91	1.3
318.15	0.0224	1570.85	1.3
318.15	0.037	1572.47	1.3
318.15	0.0547	1574.44	1.3
318.15	0.072	1576.32	1.3
318.15	0.1075	1580.11	1.3
318.15	0.1526	1584.83	1.3
318.15	0.2056	1590.2	1.3
318.15	0.3033	1599.58	1.3
318.15	0.5376	1619.07	1.3
318.15	0.847	1638.88	1.3

System: water + 2-aminoacetic acid + 1-butyl-3-methylimidazolium trifluoromethanesulfonate; phases: Liquid
Fixed: Solvent: Molality, mol/kg of 2-aminoacetic acid = 0.7041
Fixed: Pressure, kPa = 84.5
Fixed: Temperature, K = 308.15
Property: (Relative) activity of water (Liquid); method: vapor pressure osmometry
Molality, mol/kg of 1-butyl-3-methylimidazolium trifluoromethanesulfonate	(Relative) activity of water	uncertainty
0	0.9883	0.0387
0.1513	0.9814	0.0387
0.303	0.9765	0.0387
0.5284	0.9711	0.0387
0.7462	0.9677	0.0387
0.8972	0.9659	0.0387

System: water + 2-aminoacetic acid + 1-butyl-3-methylimidazolium trifluoromethanesulfonate; phases: Liquid
Fixed: Pressure, kPa = 84.5
Fixed: Solvent: Molality, mol/kg of 2-aminoacetic acid = 0.7041
Property: Mass density, kg/m3 (Liquid); method: Vibrating tube method
Temperature, K	Molality, mol/kg of 1-butyl-3-methylimidazolium trifluoromethanesulfonate	Mass density, kg/m3	uncertainty
288.15	0.011	1021.6	4.09
288.15	0.0237	1022.444	4.093
288.15	0.0353	1023.208	4.096
288.15	0.0443	1023.794	4.099
288.15	0.0574	1024.659	4.102
288.15	0.0927	1026.953	4.111
288.15	0.1098	1028.061	4.116
288.15	0.2271	1035.396	4.145
288.15	0.2978	1039.674	4.163
288.15	0.4749	1049.862	4.204
288.15	0.6634	1059.864	4.244
288.15	0.8531	1069.125	4.281
298.15	0.011	1019.034	4.08
298.15	0.0237	1019.857	4.083
298.15	0.0353	1020.602	4.086
298.15	0.0443	1021.173	4.088
298.15	0.0574	1022.013	4.092
298.15	0.0927	1024.244	4.1
298.15	0.1098	1025.322	4.105
298.15	0.2271	1032.443	4.133
298.15	0.2978	1036.586	4.15
298.15	0.4749	1046.43	4.19
298.15	0.6634	1056.088	4.229
298.15	0.8531	1065.038	4.265
308.15	0.011	1015.672	4.066
308.15	0.0237	1016.477	4.069
308.15	0.0353	1017.203	4.072
308.15	0.0443	1017.762	4.074
308.15	0.0574	1018.578	4.078
308.15	0.0927	1020.755	4.086
308.15	0.1098	1021.803	4.091
308.15	0.2271	1028.728	4.119
308.15	0.2978	1032.748	4.135
308.15	0.4749	1042.294	4.173
308.15	0.6634	1051.649	4.211
308.15	0.8531	1060.328	4.246
318.15	0.011	1011.628	4.05
318.15	0.0237	1012.411	4.053
318.15	0.0353	1013.122	4.056
318.15	0.0443	1013.667	4.058
318.15	0.0574	1014.464	4.061
318.15	0.0927	1016.588	4.07
318.15	0.1098	1017.61	4.074
318.15	0.2271	1024.353	4.101
318.15	0.2978	1028.262	4.117
318.15	0.4749	1037.528	4.154
318.15	0.6634	1046.624	4.19
318.15	0.8531	1055.069	4.224

System: water + 2-aminoacetic acid + 1-butyl-3-methylimidazolium trifluoromethanesulfonate; phases: Liquid
Fixed: Pressure, kPa = 84.5
Fixed: Solvent: Molality, mol/kg of 2-aminoacetic acid = 0.7041
Property: Speed of sound, m/s (Liquid); method: Single path-length method
Temperature, K	Molality, mol/kg of 1-butyl-3-methylimidazolium trifluoromethanesulfonate	Speed of sound, m/s	uncertainty
288.15	0.011	1505.67	1.3
288.15	0.0237	1507.17	1.3
288.15	0.0353	1508.53	1.3
288.15	0.0443	1509.54	1.3
288.15	0.0574	1511.01	1.3
288.15	0.0927	1514.92	1.3
288.15	0.1098	1516.73	1.3
288.15	0.2271	1528.48	1.3
288.15	0.2978	1534.56	1.3
288.15	0.4749	1547.93	1.3
288.15	0.6634	1557.68	1.3
288.15	0.8531	1562.53	1.3
298.15	0.011	1533.34	1.31
298.15	0.0237	1534.48	1.3
298.15	0.0353	1535.53	1.3
298.15	0.0443	1536.3	1.3
298.15	0.0574	1537.43	1.3
298.15	0.0927	1540.38	1.3
298.15	0.1098	1541.77	1.3
298.15	0.2271	1550.45	1.3
298.15	0.2978	1554.93	1.3
298.15	0.4749	1564.38	1.3
298.15	0.6634	1570.4	1.3
298.15	0.8531	1572.57	1.3
308.15	0.011	1554.19	1.3
308.15	0.0237	1555.02	1.3
308.15	0.0353	1555.8	1.3
308.15	0.0443	1556.37	1.3
308.15	0.0574	1557.19	1.3
308.15	0.0927	1559.35	1.3
308.15	0.1098	1560.35	1.3
308.15	0.2271	1566.5	1.3
308.15	0.2978	1569.58	1.3
308.15	0.4749	1575.47	1.3
308.15	0.6634	1578.45	1.3
308.15	0.8531	1578.41	1.3
318.15	0.011	1569.18	1.3
318.15	0.0237	1569.74	1.3
318.15	0.0353	1570.28	1.3
318.15	0.0443	1570.67	1.3
318.15	0.0574	1571.22	1.3
318.15	0.0927	1572.66	1.3
318.15	0.1098	1573.32	1.3
318.15	0.2271	1577.2	1.3
318.15	0.2978	1579.01	1.3
318.15	0.4749	1581.94	1.3
318.15	0.6634	1582.27	1.3
318.15	0.8531	1580.33	1.3

System: 1-butyl-3-methylimidazolium chloride + water; phases: Liquid
Fixed: Pressure, kPa = 84.5
Property: Mass density, kg/m3 (Liquid); method: Vibrating tube method
Temperature, K	Molality, mol/kg of 1-butyl-3-methylimidazolium chloride	Mass density, kg/m3	uncertainty
288.15	0.0344	999.577	3.998
288.15	0.0526	999.828	3.999
288.15	0.0926	1000.374	4.002
288.15	0.1181	1000.72	4.003
288.15	0.1806	1001.564	4.006
288.15	0.2371	1002.326	4.01
288.15	0.479	1005.59	4.023
288.15	0.7374	1009.021	4.037
298.15	0.0344	997.479	3.99
298.15	0.0526	997.71	3.991
298.15	0.0926	998.209	3.993
298.15	0.1181	998.524	3.994
298.15	0.1806	999.3	3.997
298.15	0.2371	999.998	4
298.15	0.479	1002.982	4.012
298.15	0.7374	1006.112	4.025
308.15	0.0344	994.434	3.978
308.15	0.0526	994.648	3.979
308.15	0.0926	995.113	3.981
308.15	0.1181	995.403	3.982
308.15	0.1806	996.124	3.985
308.15	0.2371	996.773	3.987
308.15	0.479	999.537	3.998
308.15	0.7374	1002.435	4.01
318.15	0.0344	990.589	3.963
318.15	0.0526	990.791	3.963
318.15	0.0926	991.228	3.965
318.15	0.1181	991.504	3.966
318.15	0.1806	992.177	3.969
318.15	0.2371	992.785	3.971
318.15	0.479	995.37	3.982
318.15	0.7374	998.079	3.993

System: 1-butyl-3-methylimidazolium chloride + water; phases: Liquid
Fixed: Pressure, kPa = 84.5
Property: Speed of sound, m/s (Liquid); method: Single path-length method
Temperature, K	Molality, mol/kg of 1-butyl-3-methylimidazolium chloride	Speed of sound, m/s	uncertainty
288.15	0.0344	1471.98	1.02
288.15	0.0526	1474.71	1.03
288.15	0.0926	1480.82	1.03
288.15	0.1181	1484.95	1.03
288.15	0.1806	1493.82	1.03
288.15	0.2371	1502.23	1.04
288.15	0.479	1535.67	1.06
288.15	0.7374	1568.82	1.08
298.15	0.0344	1501.54	1.03
298.15	0.0526	1503.98	1.03
298.15	0.0926	1509.32	1.03
298.15	0.1181	1513.08	1.03
298.15	0.1806	1520.67	1.03
298.15	0.2371	1528.03	1.04
298.15	0.479	1557.12	1.06
298.15	0.7374	1585.96	1.08
308.15	0.0344	1523.93	1.03
308.15	0.0526	1526.07	1.02
308.15	0.0926	1530.78	1.03
308.15	0.1181	1534.05	1.03
308.15	0.1806	1540.71	1.03
308.15	0.2371	1547.13	1.04
308.15	0.479	1572.51	1.06
308.15	0.7374	1597.63	1.08
318.15	0.0344	1540.08	1.02
318.15	0.0526	1541.95	1.02
318.15	0.0926	1546.09	1.03
318.15	0.1181	1548.87	1.03
318.15	0.1806	1554.79	1.03
318.15	0.2371	1560.47	1.04
318.15	0.479	1582.65	1.06
318.15	0.7374	1604.46	1.08

System: 1-hexyl-3-methylimidazolium chloride + water; phases: Liquid
Fixed: Pressure, kPa = 84.5
Property: Mass density, kg/m3 (Liquid); method: Vibrating tube method
Temperature, K	Molality, mol/kg of 1-hexyl-3-methylimidazolium chloride	Mass density, kg/m3	uncertainty
288.15	0.0096	999.203	3.997
288.15	0.0296	999.412	3.998
288.15	0.0585	999.713	3.999
288.15	0.0734	999.867	4
288.15	0.0999	1000.148	4.001
288.15	0.1212	1000.374	4.002
288.15	0.1542	1000.726	4.003
288.15	0.2244	1001.473	4.006
288.15	0.2863	1002.124	4.009
288.15	0.469	1004.08	4.017
288.15	0.8901	1008.376	4.034
298.15	0.0096	997.128	3.989
298.15	0.0296	997.304	3.989
298.15	0.0585	997.562	3.99
298.15	0.0734	997.692	3.991
298.15	0.0999	997.932	3.992
298.15	0.1212	998.125	3.993
298.15	0.1542	998.421	3.994
298.15	0.2244	999.058	3.996
298.15	0.2863	999.62	3.999
298.15	0.469	1001.266	4.005
298.15	0.8901	1004.888	4.02
308.15	0.0096	994.101	3.977
308.15	0.0296	994.252	3.977
308.15	0.0585	994.471	3.978
308.15	0.0734	994.583	3.979
308.15	0.0999	994.787	3.979
308.15	0.1212	994.95	3.98
308.15	0.1542	995.204	3.981
308.15	0.2244	995.748	3.983
308.15	0.2863	996.227	3.985
308.15	0.469	997.628	3.991
308.15	0.8901	1000.699	4.003
318.15	0.0096	990.268	3.961
318.15	0.0296	990.4	3.962
318.15	0.0585	990.58	3.963
318.15	0.0734	990.681	3.963
318.15	0.0999	990.859	3.964
318.15	0.1212	990.996	3.964
318.15	0.1542	991.215	3.965
318.15	0.2244	991.681	3.967
318.15	0.2863	992.089	3.969
318.15	0.469	993.281	3.973
318.15	0.8901	995.899	3.984

System: 1-hexyl-3-methylimidazolium chloride + water; phases: Liquid
Fixed: Pressure, kPa = 84.5
Property: Speed of sound, m/s (Liquid); method: Single path-length method
Temperature, K	Molality, mol/kg of 1-hexyl-3-methylimidazolium chloride	Speed of sound, m/s	uncertainty
288.15	0.0096	1468.21	1.02
288.15	0.0296	1471.67	1.02
288.15	0.0585	1476.81	1.03
288.15	0.0734	1479.43	1.03
288.15	0.0999	1483.86	1.03
288.15	0.1212	1487.42	1.03
288.15	0.1542	1492.97	1.03
288.15	0.2244	1503.95	1.04
288.15	0.2863	1513.81	1.05
288.15	0.469	1540.24	1.06
288.15	0.8901	1591.4	1.11
298.15	0.0096	1498.23	1.03
298.15	0.0296	1501.33	1.02
298.15	0.0585	1505.68	1.03
298.15	0.0734	1507.91	1.03
298.15	0.0999	1511.69	1.03
298.15	0.1212	1514.76	1.03
298.15	0.1542	1519.49	1.03
298.15	0.2244	1528.86	1.04
298.15	0.2863	1537.32	1.05
298.15	0.469	1559.66	1.06
298.15	0.8901	1602.41	1.11
308.15	0.0096	1521.1	1.03
308.15	0.0296	1523.68	1.02
308.15	0.0585	1527.39	1.03
308.15	0.0734	1529.31	1.03
308.15	0.0999	1532.56	1.03
308.15	0.1212	1535.17	1.03
308.15	0.1542	1539.19	1.03
308.15	0.2244	1547.26	1.04
308.15	0.2863	1554.3	1.04
308.15	0.469	1573.2	1.06
308.15	0.8901	1608.73	1.11
318.15	0.0096	1537.61	1.02
318.15	0.0296	1539.79	1.02
318.15	0.0585	1542.96	1.03
318.15	0.0734	1544.56	1.03
318.15	0.0999	1547.33	1.03
318.15	0.1212	1549.56	1.03
318.15	0.1542	1552.97	1.03
318.15	0.2244	1559.8	1.04
318.15	0.2863	1565.76	1.04
318.15	0.469	1581.57	1.06
318.15	0.8901	1610.92	1.11

System: 1-butyl-3-methylimidazolium trifluoromethanesulfonate + water; phases: Liquid
Fixed: Pressure, kPa = 84.5
Property: Mass density, kg/m3 (Liquid); method: Vibrating tube method
Temperature, K	Molality, mol/kg of 1-butyl-3-methylimidazolium trifluoromethanesulfonate	Mass density, kg/m3	uncertainty
288.15	0.0164	1000.268	4.001
288.15	0.0259	1000.932	4.004
288.15	0.042	1002.06	4.009
288.15	0.0699	1003.987	4.016
288.15	0.1072	1006.541	4.026
288.15	0.1455	1009.121	4.037
288.15	0.3021	1019.308	4.078
288.15	0.4645	1029.211	4.118
288.15	0.6651	1040.599	4.163
288.15	0.8671	1051.208	4.206
298.15	0.0164	998.176	3.993
298.15	0.0259	998.823	3.996
298.15	0.042	999.922	4
298.15	0.0699	1001.795	4.007
298.15	0.1072	1004.279	4.017
298.15	0.1455	1006.783	4.027
298.15	0.3021	1016.656	4.067
298.15	0.4645	1026.224	4.106
298.15	0.6651	1037.208	4.15
298.15	0.8671	1047.439	4.191
308.15	0.0164	995.134	3.981
308.15	0.0259	995.765	3.983
308.15	0.042	996.836	3.988
308.15	0.0699	998.662	3.995
308.15	0.1072	1001.081	4.005
308.15	0.1455	1003.519	4.014
308.15	0.3021	1013.111	4.053
308.15	0.4645	1022.387	4.09
308.15	0.6651	1033.026	4.133
308.15	0.8671	1042.937	4.173
318.15	0.0164	991.289	3.965
318.15	0.0259	991.906	3.968
318.15	0.042	992.952	3.972
318.15	0.0699	994.732	3.979
318.15	0.1072	997.093	3.989
318.15	0.1455	999.47	3.998
318.15	0.3021	1008.807	4.036
318.15	0.4645	1017.825	4.072
318.15	0.6651	1028.161	4.114
318.15	0.8671	1037.796	4.152

System: 1-butyl-3-methylimidazolium trifluoromethanesulfonate + water; phases: Liquid
Fixed: Pressure, kPa = 84.5
Property: Speed of sound, m/s (Liquid); method: Single path-length method
Temperature, K	Molality, mol/kg of 1-butyl-3-methylimidazolium trifluoromethanesulfonate	Speed of sound, m/s	uncertainty
288.15	0.0164	1468.67	1.02
288.15	0.0259	1469.82	1.02
288.15	0.042	1471.85	1.03
288.15	0.0699	1475	1.03
288.15	0.1072	1479.24	1.03
288.15	0.1455	1483.76	1.04
288.15	0.3021	1499.64	1.06
288.15	0.4645	1513.44	1.08
288.15	0.6651	1526.73	1.11
288.15	0.8671	1535.56	1.15
298.15	0.0164	1498.52	1.03
298.15	0.0259	1499.43	1.02
298.15	0.042	1501.03	1.03
298.15	0.0699	1503.45	1.03
298.15	0.1072	1506.62	1.03
298.15	0.1455	1510.15	1.04
298.15	0.3021	1522.13	1.06
298.15	0.4645	1532.3	1.08
298.15	0.6651	1541.46	1.11
298.15	0.8671	1546.89	1.15
308.15	0.0164	1521.09	1.03
308.15	0.0259	1521.77	1.02
308.15	0.042	1523	1.03
308.15	0.0699	1524.8	1.03
308.15	0.1072	1527.24	1.03
308.15	0.1455	1529.84	1.04
308.15	0.3021	1538.42	1.06
308.15	0.4645	1545.4	1.08
308.15	0.6651	1551.08	1.11
308.15	0.8671	1553.82	1.15
318.15	0.0164	1537.41	1.02
318.15	0.0259	1537.89	1.02
318.15	0.042	1538.81	1.02
318.15	0.0699	1540.05	1.03
318.15	0.1072	1541.73	1.03
318.15	0.1455	1543.56	1.04
318.15	0.3021	1549.2	1.06
318.15	0.4645	1553.41	1.08
318.15	0.6651	1556.15	1.11
318.15	0.8671	1556.53	1.15

System: water + 2-aminoacetic acid; phases: Liquid
Property: (Relative) activity of water (Liquid); method: vapor pressure osmometry
Molality, mol/kg of 2-aminoacetic acid	Pressure, kPa	Temperature, K	(Relative) activity of water	uncertainty
0.7041	84.5	308.15	0.9883	0.0387
