Measured thermophysical data. Density, Viscosity, and Refractive Index Data for a Ternary System of Wine Congeners (Ethyl Butyrate + Diethyl Succinate + Isobutanol) in the Temperature Range from 288.15 to 323.15 K and at Atmospheric Pressure
Source: J. Chem. Eng. Data, 2017, 10.1021/acs.jced.6b00640
Compound 1: ethyl butanoate, C6H12O2, InChI=1S/C6H12O2/c1-3-5-6(7)8-4-2/h3-5H2,1-2H3, purity 99%
Compound 2: diethyl butanedioate, C8H14O4, InChI=1S/C8H14O4/c1-3-11-7(9)5-6-8(10)12-4-2/h3-6H2,1-2H3, purity 99%
Compound 3: 2-methyl-1-propanol, C4H10O, InChI=1S/C4H10O/c1-4(2)3-5/h4-5H,3H2,1-2H3, purity 99.7%

System: ethyl butanoate + diethyl butanedioate; phases: Liquid
Fixed: Pressure, kPa = 100
Property: Mass density, kg/m3 (Liquid); method: Vibrating tube method
Temperature, K	Mole fraction of ethyl butanoate	Mass density, kg/m3	uncertainty
288.15	0.0999	1032.25	0.83
293.15	0.0999	1027.04	0.83
298.15	0.0999	1021.84	0.83
303.15	0.0999	1016.65	0.83
308.15	0.0999	1011.46	0.83
313.15	0.0999	1006.27	0.83
318.15	0.0999	1001.09	0.83
323.15	0.0999	995.9	0.83
288.15	0.2	1018.97	0.83
298.15	0.2	1008.55	0.83
303.15	0.2	1003.35	0.83
308.15	0.2	998.15	0.83
293.15	0.2	1013.76	0.83
313.15	0.2	992.95	0.83
318.15	0.2	987.76	0.83
323.15	0.2	982.56	0.83
298.15	0.3003	994.54	0.83
288.15	0.3003	1004.96	0.83
303.15	0.3003	989.33	0.83
308.15	0.3003	984.12	0.83
313.15	0.3003	978.91	0.83
293.15	0.3003	999.74	0.83
318.15	0.3003	973.7	0.83
323.15	0.3003	968.49	0.83
298.15	0.3999	979.9	0.83
303.15	0.3999	974.68	0.83
288.15	0.3999	990.34	0.83
308.15	0.3999	969.46	0.83
313.15	0.3999	964.25	0.83
318.15	0.3999	959.02	0.83
293.15	0.3999	985.12	0.83
323.15	0.3999	953.79	0.83
298.15	0.5	964.41	0.83
308.15	0.5	953.96	0.83
288.15	0.5	974.86	0.83
313.15	0.5	948.72	0.83
293.15	0.5	969.64	0.83
318.15	0.5	943.48	0.83
303.15	0.5	959.18	0.83
323.15	0.5	938.24	0.83
308.15	0.5997	937.75	0.83
298.15	0.5997	948.23	0.83
313.15	0.5997	932.5	0.83
288.15	0.5997	958.7	0.83
293.15	0.5997	953.46	0.83
318.15	0.5997	927.25	0.83
303.15	0.5997	942.99	0.83
323.15	0.5997	921.98	0.83
293.15	0.7	936.32	0.83
313.15	0.7	915.31	0.83
308.15	0.7	920.58	0.83
298.15	0.7	931.08	0.83
318.15	0.7	910.04	0.83
288.15	0.7	941.56	0.83
303.15	0.7	925.83	0.83
323.15	0.7	904.75	0.83
303.15	0.7999	907.74	0.83
288.15	0.7999	923.5	0.83
298.15	0.7999	913	0.83
308.15	0.7999	902.47	0.83
318.15	0.7999	891.89	0.83
293.15	0.7999	918.25	0.83
313.15	0.7999	897.18	0.83
323.15	0.7999	886.58	0.83
308.15	0.8999	883.31	0.83
318.15	0.8999	872.69	0.83
293.15	0.8999	899.13	0.83
313.15	0.8999	878	0.83
298.15	0.8999	893.87	0.83
303.15	0.8999	888.59	0.83
288.15	0.8999	904.39	0.83
323.15	0.8999	867.36	0.83

System: ethyl butanoate + diethyl butanedioate; phases: Liquid
Fixed: Pressure, kPa = 100
Property: Viscosity, Pa*s (Liquid); method: Concentric cylinders viscometry
Temperature, K	Mole fraction of ethyl butanoate	Viscosity, Pa*s	uncertainty
288.15	0.0999	0.0027842	3.32e-05
293.15	0.0999	0.0024637	2.95e-05
298.15	0.0999	0.0022021	2.65e-05
303.15	0.0999	0.0019829	2.4e-05
308.15	0.0999	0.0017964	2.19e-05
313.15	0.0999	0.0016421	2.01e-05
318.15	0.0999	0.0014998	1.85e-05
323.15	0.0999	0.0013843	1.72e-05
288.15	0.2	0.0024075	2.89e-05
298.15	0.2	0.0019318	2.34e-05
303.15	0.2	0.0017493	2.13e-05
308.15	0.2	0.0015927	1.96e-05
293.15	0.2	0.002146	2.59e-05
313.15	0.2	0.0014646	1.81e-05
318.15	0.2	0.0013412	1.67e-05
323.15	0.2	0.001245	1.56e-05
298.15	0.3003	0.001684	2.06e-05
288.15	0.3003	0.00207	2.5e-05
303.15	0.3003	0.0015351	1.89e-05
308.15	0.3003	0.001405	1.74e-05
313.15	0.3003	0.0012973	1.62e-05
293.15	0.3003	0.001859	2.26e-05
318.15	0.3003	0.0011932	1.5e-05
323.15	0.3003	0.0011132	1.41e-05
298.15	0.3999	0.0014709	1.82e-05
303.15	0.3999	0.0013474	1.68e-05
288.15	0.3999	0.0017818	2.17e-05
308.15	0.3999	0.0012394	1.56e-05
313.15	0.3999	0.0011486	1.45e-05
318.15	0.3999	0.0010611	1.36e-05
293.15	0.3999	0.0016134	1.98e-05
323.15	0.3999	0.0009951	1.28e-05
298.15	0.5	0.0012864	1.61e-05
308.15	0.5	0.0010957	1.39e-05
288.15	0.5	0.0015365	1.89e-05
313.15	0.5	0.0010194	1.31e-05
293.15	0.5	0.0014019	1.74e-05
318.15	0.5	0.0009464	1.23e-05
303.15	0.5	0.0011851	1.49e-05
323.15	0.5	0.0008916	1.17e-05
308.15	0.5997	0.0009742	1.26e-05
298.15	0.5997	0.0011312	1.43e-05
313.15	0.5997	0.00091	1.19e-05
288.15	0.5997	0.0013335	1.66e-05
293.15	0.5997	0.001225	1.54e-05
318.15	0.5997	0.0008492	1.12e-05
303.15	0.5997	0.0010481	1.34e-05
323.15	0.5997	0.0007992	1.07e-05
293.15	0.7	0.0010767	1.37e-05
313.15	0.7	0.0008216	1.09e-05
308.15	0.7	0.0008745	1.15e-05
298.15	0.7	0.0010018	1.29e-05
318.15	0.7	0.0007706	1.03e-05
288.15	0.7	0.0011625	1.47e-05
303.15	0.7	0.0009351	1.22e-05
323.15	0.7	0.0007302	9.9e-06
303.15	0.7999	0.0008255	1.09e-05
288.15	0.7999	0.0010148	1.3e-05
298.15	0.7999	0.0008815	1.16e-05
308.15	0.7999	0.0007752	1.04e-05
318.15	0.7999	0.0006883	9.5e-06
293.15	0.7999	0.0009435	1.22e-05
313.15	0.7999	0.000731	9.9e-06
323.15	0.7999	0.0006542	9.1e-06
308.15	0.8999	0.0006811	9.4e-06
318.15	0.8999	0.0006086	8.6e-06
293.15	0.8999	0.0008176	1.09e-05
313.15	0.8999	0.0006451	9e-06
298.15	0.8999	0.0007679	1.03e-05
303.15	0.8999	0.0007228	9.8e-06
288.15	0.8999	0.0008744	1.15e-05
323.15	0.8999	0.0005785	8.3e-06

System: ethyl butanoate + diethyl butanedioate; phases: Liquid
Fixed: Pressure, kPa = 100
Property: Refractive index (Na D-line) (Liquid); method: Standard Abbe refractometry
Temperature, K	Mole fraction of ethyl butanoate	Refractive index (Na D-line)	uncertainty
288.15	0.0999	1.4198	0.0014
293.15	0.0999	1.4176	0.0014
298.15	0.0999	1.4154	0.0014
303.15	0.0999	1.4132	0.0014
308.15	0.0999	1.411	0.0014
313.15	0.0999	1.4088	0.0014
318.15	0.0999	1.4066	0.0014
323.15	0.0999	1.4044	0.0014
288.15	0.2	1.4177	0.0014
298.15	0.2	1.4132	0.0014
303.15	0.2	1.411	0.0014
308.15	0.2	1.4088	0.0014
293.15	0.2	1.4155	0.0014
313.15	0.2	1.4065	0.0014
318.15	0.2	1.4043	0.0014
323.15	0.2	1.402	0.0014
298.15	0.3003	1.4109	0.0014
288.15	0.3003	1.4154	0.0014
303.15	0.3003	1.4086	0.0014
308.15	0.3003	1.4063	0.0014
313.15	0.3003	1.4041	0.0014
293.15	0.3003	1.4132	0.0014
318.15	0.3003	1.4018	0.0014
323.15	0.3003	1.3995	0.0014
298.15	0.3999	1.4084	0.0014
303.15	0.3999	1.4061	0.0014
288.15	0.3999	1.413	0.0014
308.15	0.3999	1.4038	0.0014
313.15	0.3999	1.4015	0.0014
318.15	0.3999	1.3992	0.0014
293.15	0.3999	1.4107	0.0014
323.15	0.3999	1.3968	0.0014
298.15	0.5	1.4058	0.0014
308.15	0.5	1.4011	0.0014
288.15	0.5	1.4104	0.0014
313.15	0.5	1.3988	0.0014
293.15	0.5	1.4081	0.0014
318.15	0.5	1.3964	0.0014
303.15	0.5	1.4035	0.0014
323.15	0.5	1.394	0.0014
308.15	0.5997	1.3982	0.0014
298.15	0.5997	1.403	0.0014
313.15	0.5997	1.3959	0.0014
288.15	0.5997	1.4076	0.0014
293.15	0.5997	1.4053	0.0014
318.15	0.5997	1.3935	0.0014
303.15	0.5997	1.4006	0.0014
323.15	0.5997	1.391	0.0014
293.15	0.7	1.4024	0.0014
313.15	0.7	1.3928	0.0014
308.15	0.7	1.3952	0.0014
298.15	0.7	1.4	0.0014
318.15	0.7	1.3904	0.0014
288.15	0.7	1.4048	0.0014
303.15	0.7	1.3976	0.0014
323.15	0.7	1.3878	0.0014
303.15	0.7999	1.3944	0.0014
288.15	0.7999	1.4016	0.0014
298.15	0.7999	1.3968	0.0014
308.15	0.7999	1.392	0.0014
318.15	0.7999	1.387	0.0014
293.15	0.7999	1.3992	0.0014
313.15	0.7999	1.3895	0.0014
323.15	0.7999	1.3844	0.0014
308.15	0.8999	1.3888	0.0014
318.15	0.8999	1.3837	0.0014
293.15	0.8999	1.3961	0.0014
313.15	0.8999	1.3862	0.0014
298.15	0.8999	1.3937	0.0014
303.15	0.8999	1.3912	0.0014
288.15	0.8999	1.3986	0.0014
323.15	0.8999	1.3809	0.0014

System: 2-methyl-1-propanol + ethyl butanoate + diethyl butanedioate; phases: Liquid
Fixed: Pressure, kPa = 100
Property: Mass density, kg/m3 (Liquid); method: Vibrating tube method
Temperature, K	Mole fraction of ethyl butanoate	Mole fraction of diethyl butanedioate	Mass density, kg/m3	uncertainty
303.15	0.0901	0.0999	839.24	0.81
308.15	0.0901	0.0999	834.84	0.81
298.15	0.0901	0.0999	843.62	0.81
313.15	0.0901	0.0999	830.38	0.81
288.15	0.0901	0.0999	852.29	0.81
318.15	0.0901	0.0999	825.9	0.81
323.15	0.0901	0.0999	821.37	0.81
293.15	0.0901	0.0999	847.98	0.81
313.15	0.36	0.1	848.79	0.81
303.15	0.36	0.1	858.46	0.81
318.15	0.36	0.1	843.91	0.81
308.15	0.36	0.1	853.64	0.81
288.15	0.36	0.1	872.78	0.81
293.15	0.36	0.1	868.03	0.81
323.15	0.36	0.1	839	0.81
298.15	0.36	0.1	863.26	0.81
303.15	0.54	0.1	869.04	0.82
308.15	0.54	0.1	864.02	0.82
323.15	0.54	0.1	848.81	0.82
288.15	0.54	0.1	883.98	0.82
313.15	0.54	0.1	858.97	0.82
318.15	0.54	0.1	853.9	0.82
293.15	0.54	0.1	879.01	0.82
298.15	0.54	0.1	874.03	0.82
288.15	0.72	0.1	894.47	0.82
298.15	0.72	0.1	884.19	0.82
323.15	0.72	0.1	858.22	0.82
303.15	0.72	0.1	879.03	0.82
313.15	0.72	0.1	868.66	0.82
293.15	0.72	0.1	889.33	0.82
308.15	0.72	0.1	873.86	0.82
318.15	0.72	0.1	863.45	0.82
313.15	0.81	0.1	873.51	0.83
303.15	0.81	0.1	883.98	0.82
318.15	0.81	0.1	868.23	0.83
308.15	0.81	0.1	878.76	0.83
293.15	0.81	0.1	894.43	0.82
298.15	0.81	0.1	889.22	0.82
323.15	0.81	0.1	862.95	0.83
288.15	0.81	0.1	899.64	0.82
308.15	0.18	0.1001	841.62	0.81
313.15	0.18	0.1001	837.02	0.81
298.15	0.18	0.1001	850.72	0.81
318.15	0.18	0.1001	832.39	0.81
303.15	0.18	0.1001	846.18	0.81
293.15	0.18	0.1001	855.24	0.81
323.15	0.18	0.1001	827.71	0.81
288.15	0.18	0.1001	859.72	0.81
313.15	0.3199	0.1999	875.25	0.81
293.15	0.3199	0.1999	894.81	0.81
318.15	0.3199	0.1999	870.31	0.81
308.15	0.3199	0.1999	880.17	0.81
303.15	0.3199	0.1999	885.07	0.81
323.15	0.3199	0.1999	865.33	0.81
298.15	0.3199	0.1999	889.95	0.81
288.15	0.3199	0.1999	899.65	0.81
298.15	0.08	0.2	875.05	0.81
303.15	0.08	0.2	870.49	0.81
308.15	0.08	0.2	865.91	0.81
313.15	0.08	0.2	861.29	0.81
318.15	0.08	0.2	856.65	0.81
288.15	0.08	0.2	884.1	0.81
323.15	0.08	0.2	851.97	0.81
293.15	0.08	0.2	879.58	0.81
308.15	0.16	0.2	870.97	0.81
313.15	0.16	0.2	866.24	0.81
298.15	0.16	0.2	880.35	0.81
318.15	0.16	0.2	861.48	0.81
293.15	0.16	0.2	885	0.81
323.15	0.16	0.2	856.7	0.81
303.15	0.16	0.2	875.67	0.81
288.15	0.16	0.2	889.64	0.81
318.15	0.48	0.2	877.57	0.82
313.15	0.48	0.2	882.66	0.82
308.15	0.48	0.2	887.74	0.82
303.15	0.48	0.2	892.79	0.82
298.15	0.48	0.2	897.82	0.82
288.15	0.48	0.2	907.86	0.82
323.15	0.48	0.2	872.46	0.82
293.15	0.48	0.2	902.85	0.82
288.15	0.64	0.2	915.76	0.82
308.15	0.64	0.2	895.13	0.82
318.15	0.64	0.2	884.73	0.82
323.15	0.64	0.2	879.51	0.82
303.15	0.64	0.2	900.3	0.82
313.15	0.64	0.2	889.94	0.82
293.15	0.64	0.2	910.62	0.82
298.15	0.64	0.2	905.47	0.82
313.15	0.72	0.2	893.72	0.83
303.15	0.72	0.2	904.18	0.83
293.15	0.72	0.2	914.61	0.82
318.15	0.72	0.2	888.46	0.83
323.15	0.72	0.2	883.19	0.83
288.15	0.72	0.2	919.81	0.82
308.15	0.72	0.2	898.96	0.83
298.15	0.72	0.2	909.4	0.82
288.15	0.14	0.3	916.4	0.81
308.15	0.14	0.3	897.26	0.81
313.15	0.14	0.3	892.43	0.81
318.15	0.14	0.3	887.58	0.81
298.15	0.14	0.3	906.87	0.81
293.15	0.14	0.3	911.64	0.81
323.15	0.14	0.3	882.69	0.81
303.15	0.14	0.3	902.04	0.81
288.15	0.28	0.3	924.06	0.81
313.15	0.28	0.3	899.33	0.81
318.15	0.28	0.3	894.33	0.81
308.15	0.28	0.3	904.31	0.81
298.15	0.28	0.3	914.21	0.81
293.15	0.28	0.3	919.14	0.81
303.15	0.28	0.3	909.27	0.81
323.15	0.28	0.3	889.31	0.81
303.15	0.42	0.3	914.85	0.82
308.15	0.42	0.3	909.78	0.82
298.15	0.42	0.3	919.92	0.82
318.15	0.42	0.3	899.58	0.82
288.15	0.42	0.3	930.01	0.82
313.15	0.42	0.3	904.69	0.82
323.15	0.42	0.3	894.45	0.82
293.15	0.42	0.3	924.97	0.82
318.15	0.56	0.3	904.62	0.82
298.15	0.56	0.3	925.35	0.82
308.15	0.56	0.3	915	0.82
313.15	0.56	0.3	909.82	0.82
303.15	0.56	0.3	920.18	0.82
293.15	0.56	0.3	930.5	0.82
323.15	0.56	0.3	899.4	0.82
288.15	0.56	0.3	935.66	0.82
313.15	0.6301	0.3	912.63	0.83
293.15	0.6301	0.3	933.5	0.82
308.15	0.6301	0.3	917.86	0.83
288.15	0.6301	0.3	938.7	0.82
298.15	0.6301	0.3	928.29	0.82
323.15	0.6301	0.3	902.13	0.83
318.15	0.6301	0.3	907.38	0.83
303.15	0.6301	0.3	923.08	0.82
298.15	0.07	0.3	902.92	0.81
288.15	0.07	0.3	912.29	0.81
303.15	0.07	0.3	898.22	0.81
293.15	0.07	0.3	907.61	0.81
308.15	0.07	0.3	893.5	0.81
313.15	0.07	0.3	888.75	0.81
318.15	0.07	0.3	883.98	0.81
323.15	0.07	0.3	879.17	0.81
303.15	0.12	0.4	925.69	0.81
293.15	0.12	0.4	935.49	0.81
308.15	0.12	0.4	920.84	0.81
288.15	0.12	0.4	940.35	0.81
313.15	0.12	0.4	915.96	0.81
318.15	0.12	0.4	911.01	0.81
298.15	0.12	0.4	930.62	0.81
323.15	0.12	0.4	906.07	0.81
293.15	0.24	0.4	940.89	0.81
313.15	0.24	0.4	920.9	0.81
298.15	0.24	0.4	935.9	0.81
288.15	0.24	0.4	945.86	0.81
318.15	0.24	0.4	915.86	0.81
308.15	0.24	0.4	925.91	0.81
303.15	0.24	0.4	930.87	0.81
323.15	0.24	0.4	910.81	0.81
293.15	0.3601	0.4	945.31	0.82
288.15	0.3601	0.4	950.37	0.82
303.15	0.3601	0.4	935.1	0.82
318.15	0.3601	0.4	919.81	0.82
308.15	0.3601	0.4	930.04	0.82
313.15	0.3601	0.4	924.93	0.82
298.15	0.3601	0.4	940.21	0.82
323.15	0.3601	0.4	914.67	0.82
308.15	0.48	0.4	933.74	0.82
298.15	0.48	0.4	944.09	0.82
318.15	0.48	0.4	923.36	0.82
288.15	0.48	0.4	954.42	0.82
298.15	0.06	0.4	927.84	0.81
293.15	0.06	0.4	932.65	0.81
303.15	0.06	0.4	923.02	0.81
293.15	0.48	0.4	949.26	0.82
313.15	0.48	0.4	928.56	0.82
303.15	0.48	0.4	938.92	0.82
288.15	0.06	0.4	937.44	0.81
323.15	0.48	0.4	918.16	0.82
318.15	0.54	0.4	925.32	0.83
308.15	0.54	0.4	935.78	0.83
293.15	0.54	0.4	951.39	0.82
298.15	0.54	0.4	946.22	0.82
288.15	0.54	0.4	956.59	0.82
313.15	0.54	0.4	930.56	0.83
323.15	0.54	0.4	920.07	0.83
303.15	0.54	0.4	941	0.83
308.15	0.06	0.4	918.18	0.81
313.15	0.06	0.4	913.33	0.81
318.15	0.06	0.4	908.46	0.81
323.15	0.06	0.4	903.56	0.81
303.15	0.0501	0.4999	945.26	0.81
288.15	0.3999	0.4999	972.08	0.82
313.15	0.3999	0.4999	946.21	0.82
308.15	0.3999	0.4999	951.41	0.82
318.15	0.3999	0.4999	941.03	0.82
303.15	0.3999	0.4999	956.61	0.82
293.15	0.3999	0.4999	966.96	0.82
323.15	0.3999	0.4999	935.78	0.82
298.15	0.3999	0.4999	961.71	0.82
308.15	0.0501	0.4999	940.34	0.81
288.15	0.0501	0.4999	959.98	0.81
313.15	0.0501	0.4999	935.4	0.81
293.15	0.0501	0.4999	955.08	0.81
298.15	0.0501	0.4999	950.18	0.81
318.15	0.0501	0.4999	930.44	0.81
323.15	0.0501	0.4999	925.47	0.81
308.15	0.2001	0.5	945.75	0.81
313.15	0.2001	0.5	940.7	0.81
318.15	0.2001	0.5	935.62	0.82
303.15	0.2001	0.5	950.75	0.81
298.15	0.2001	0.5	955.81	0.81
288.15	0.2001	0.5	965.87	0.81
293.15	0.2001	0.5	960.86	0.81
323.15	0.2001	0.5	930.54	0.82
303.15	0.1	0.5	947.09	0.81
308.15	0.1	0.5	942.13	0.81
293.15	0.1	0.5	956.98	0.81
313.15	0.1	0.5	937.17	0.81
313.15	0.3	0.5	943.49	0.82
303.15	0.3	0.5	953.74	0.82
318.15	0.3	0.5	938.35	0.82
293.15	0.3	0.5	963.96	0.82
288.15	0.3	0.5	969.07	0.82
298.15	0.3	0.5	958.85	0.82
323.15	0.3	0.5	933.2	0.82
308.15	0.3	0.5	948.62	0.82
288.15	0.1	0.5	961.93	0.81
318.15	0.1	0.5	932.14	0.81
288.15	0.45	0.5	973.47	0.83
303.15	0.45	0.5	957.87	0.83
318.15	0.45	0.5	942.24	0.83
308.15	0.45	0.5	952.67	0.83
298.15	0.45	0.5	963.08	0.83
293.15	0.45	0.5	968.28	0.83
323.15	0.45	0.5	937.01	0.83
313.15	0.45	0.5	947.46	0.83
298.15	0.1	0.5	952.03	0.81
323.15	0.1	0.5	927.12	0.81
303.15	0.1602	0.5999	969.01	0.82
308.15	0.1602	0.5999	963.91	0.82
298.15	0.1602	0.5999	974.05	0.82
313.15	0.1602	0.5999	958.83	0.82
293.15	0.1602	0.5999	979.14	0.82
318.15	0.1602	0.5999	953.72	0.82
288.15	0.1602	0.5999	984.2	0.82
323.15	0.1602	0.5999	948.6	0.82
308.15	0.24	0.6	966	0.82
298.15	0.24	0.6	976.24	0.82
313.15	0.24	0.6	960.85	0.82
318.15	0.24	0.6	955.71	0.82
303.15	0.24	0.6	971.15	0.82
293.15	0.24	0.6	981.39	0.82
288.15	0.24	0.6	986.5	0.82
323.15	0.24	0.6	950.54	0.82
313.15	0.36	0.6	963.38	0.83
288.15	0.36	0.6	989.37	0.83
303.15	0.36	0.6	973.78	0.83
318.15	0.36	0.6	958.17	0.83
298.15	0.36	0.6	978.97	0.83
293.15	0.36	0.6	984.17	0.83
308.15	0.36	0.6	968.58	0.83
323.15	0.36	0.6	952.96	0.83
308.15	0.08	0.6001	961.48	0.81
308.15	0.04	0.6001	960.38	0.81
318.15	0.04	0.6001	950.38	0.81
323.15	0.04	0.6001	945.29	0.81
313.15	0.08	0.6001	956.44	0.81
293.15	0.08	0.6001	976.53	0.81
318.15	0.08	0.6001	951.39	0.81
313.15	0.04	0.6001	955.39	0.81
288.15	0.04	0.6001	980.3	0.81
298.15	0.08	0.6001	971.51	0.81
303.15	0.08	0.6001	966.53	0.81
288.15	0.08	0.6001	981.55	0.81
323.15	0.08	0.6001	946.33	0.81
293.15	0.04	0.6001	975.31	0.81
298.15	0.04	0.6001	970.35	0.81
303.15	0.04	0.6001	965.37	0.81
313.15	0.32	0.6002	962.72	0.82
298.15	0.32	0.6002	978.22	0.82
288.15	0.32	0.6002	988.61	0.82
318.15	0.32	0.6002	957.55	0.82
308.15	0.32	0.6002	967.92	0.82
293.15	0.32	0.6002	983.48	0.82
303.15	0.32	0.6002	973.12	0.82
323.15	0.32	0.6002	952.31	0.82
303.15	0.27	0.7	988.89	0.83
313.15	0.27	0.7	978.46	0.83
303.15	0.1799	0.7	987.06	0.82
323.15	0.1799	0.7	966.45	0.82
293.15	0.1799	0.7	997.35	0.82
298.15	0.27	0.7	994.05	0.83
318.15	0.1799	0.7	971.6	0.82
313.15	0.0599	0.7	974.06	0.82
318.15	0.0599	0.7	968.98	0.82
323.15	0.0599	0.7	963.88	0.82
288.15	0.0599	0.7	999.44	0.82
288.15	0.27	0.7	1004.45	0.83
318.15	0.27	0.7	973.27	0.83
293.15	0.27	0.7	999.26	0.83
323.15	0.27	0.7	968.06	0.83
308.15	0.1799	0.7	981.91	0.82
288.15	0.1799	0.7	1002.5	0.82
313.15	0.1799	0.7	976.76	0.82
298.15	0.1799	0.7	992.21	0.82
293.15	0.0599	0.7	994.36	0.82
308.15	0.0599	0.7	979.14	0.82
308.15	0.27	0.7	983.66	0.83
298.15	0.0599	0.7	989.29	0.82
303.15	0.0599	0.7	984.22	0.82
293.15	0.03	0.7	993.56	0.81
298.15	0.03	0.7	988.52	0.81
303.15	0.03	0.7	983.5	0.81
308.15	0.03	0.7	978.4	0.81
313.15	0.03	0.7	973.35	0.81
318.15	0.03	0.7	968.28	0.82
288.15	0.03	0.7	998.62	0.81
323.15	0.03	0.7	963.19	0.82
308.15	0.12	0.7001	980.68	0.82
313.15	0.12	0.7001	975.56	0.82
298.15	0.12	0.7001	990.9	0.82
308.15	0.2399	0.7001	983.22	0.82
288.15	0.2399	0.7001	1003.95	0.82
293.15	0.2399	0.7001	998.76	0.82
303.15	0.2399	0.7001	988.4	0.82
293.15	0.12	0.7001	996.02	0.82
318.15	0.12	0.7001	970.44	0.82
323.15	0.12	0.7001	965.28	0.82
313.15	0.2399	0.7001	978.04	0.82
298.15	0.2399	0.7001	993.58	0.82
318.15	0.2399	0.7001	972.85	0.82
323.15	0.2399	0.7001	967.66	0.82
288.15	0.12	0.7001	1001.13	0.82
303.15	0.12	0.7001	985.89	0.82
303.15	0.04	0.7999	1000.46	0.82
313.15	0.04	0.7999	990.23	0.82
318.15	0.04	0.7999	985.11	0.82
293.15	0.0201	0.7999	1010.33	0.82
298.15	0.0201	0.7999	1005.23	0.82
303.15	0.0201	0.7999	1000.12	0.82
308.15	0.0201	0.7999	995.02	0.82
313.15	0.0201	0.7999	989.91	0.82
318.15	0.0201	0.7999	984.81	0.82
323.15	0.0201	0.7999	979.69	0.82
288.15	0.0201	0.7999	1015.44	0.82
323.15	0.04	0.7999	979.99	0.82
308.15	0.04	0.7999	995.35	0.82
288.15	0.04	0.7999	1015.82	0.82
293.15	0.04	0.7999	1010.7	0.82
298.15	0.04	0.7999	1005.58	0.82
313.15	0.1799	0.8	992.72	0.83
318.15	0.12	0.8	986.58	0.82
298.15	0.12	0.8	1007.23	0.82
288.15	0.1799	0.8	1018.68	0.83
288.15	0.12	0.8	1017.58	0.83
318.15	0.16	0.8	987.21	0.83
323.15	0.12	0.8	981.39	0.82
323.15	0.1799	0.8	982.34	0.83
288.15	0.08	0.8	1016.73	0.82
293.15	0.08	0.8	1011.58	0.82
298.15	0.08	0.8	1006.44	0.82
313.15	0.08	0.8	991.01	0.82
313.15	0.12	0.8	991.74	0.82
303.15	0.16	0.8	1002.83	0.83
308.15	0.12	0.8	996.91	0.82
288.15	0.16	0.8	1018.32	0.83
293.15	0.12	0.8	1012.4	0.82
293.15	0.16	0.8	1013.13	0.83
303.15	0.08	0.8	1001.41	0.82
303.15	0.1799	0.8	1003.1	0.83
318.15	0.08	0.8	985.86	0.82
298.15	0.16	0.8	1007.94	0.83
298.15	0.1799	0.8	1008.29	0.83
323.15	0.08	0.8	980.69	0.82
308.15	0.16	0.8	997.57	0.83
313.15	0.16	0.8	992.39	0.83
323.15	0.16	0.8	982.01	0.83
318.15	0.1799	0.8	987.53	0.83
293.15	0.1799	0.8	1013.49	0.83
303.15	0.12	0.8	1002.18	0.82
308.15	0.1799	0.8	997.91	0.83
308.15	0.08	0.8	996.15	0.82
298.15	0.09	0.8998	1021.76	0.83
303.15	0.09	0.8998	1016.58	0.83
293.15	0.09	0.8998	1026.96	0.83
308.15	0.09	0.8998	1011.39	0.83
313.15	0.09	0.8998	1006.21	0.83
318.15	0.09	0.8998	1001.03	0.83
288.15	0.09	0.8998	1032.15	0.83
323.15	0.09	0.8998	995.84	0.83
313.15	0.08	0.8999	1006.04	0.83
318.15	0.08	0.8999	1000.86	0.83
303.15	0.08	0.8999	1016.39	0.83
323.15	0.08	0.8999	995.68	0.83
298.15	0.08	0.8999	1021.58	0.83
288.15	0.08	0.8999	1031.96	0.83
293.15	0.08	0.8999	1026.76	0.83
308.15	0.08	0.8999	1011.21	0.83
303.15	0.06	0.9	1016.24	0.83
308.15	0.06	0.9	1011.06	0.83
313.15	0.06	0.9	1005.9	0.83
288.15	0.06	0.9	1031.77	0.83
318.15	0.06	0.9	1000.72	0.83
323.15	0.06	0.9	995.55	0.83
323.15	0.04	0.9	995.07	0.82
313.15	0.04	0.9	1005.4	0.82
288.15	0.01	0.9	1030.77	0.83
293.15	0.01	0.9	1025.62	0.83
298.15	0.01	0.9	1020.46	0.83
303.15	0.01	0.9	1015.32	0.82
308.15	0.01	0.9	1010.17	0.82
303.15	0.04	0.9	1015.79	0.83
293.15	0.06	0.9	1026.59	0.83
313.15	0.01	0.9	1005.03	0.82
318.15	0.01	0.9	999.88	0.82
323.15	0.01	0.9	994.74	0.82
298.15	0.06	0.9	1021.41	0.83
288.15	0.04	0.9	1031.24	0.83
293.15	0.04	0.9	1026.06	0.83
318.15	0.04	0.9	1000.24	0.82
308.15	0.04	0.9	1010.56	0.83
298.15	0.04	0.9	1020.89	0.83
318.15	0.0199	0.9001	999.97	0.82
308.15	0.0199	0.9001	1010.27	0.82
288.15	0.0199	0.9001	1030.89	0.83
303.15	0.0199	0.9001	1015.42	0.83
313.15	0.0199	0.9001	1005.12	0.82
293.15	0.0199	0.9001	1025.73	0.83
323.15	0.0199	0.9001	994.82	0.82
298.15	0.0199	0.9001	1020.57	0.83

System: 2-methyl-1-propanol + ethyl butanoate + diethyl butanedioate; phases: Liquid
Fixed: Pressure, kPa = 100
Property: Viscosity, Pa*s (Liquid); method: Concentric cylinders viscometry
Temperature, K	Mole fraction of ethyl butanoate	Mole fraction of diethyl butanedioate	Viscosity, Pa*s	uncertainty
288.15	0.0901	0.0999	0.0024262	2.7e-05
288.15	0.08	0.2	0.002227	2.5e-05
288.15	0.07	0.3	0.0022228	2.51e-05
288.15	0.06	0.4	0.0022503	2.56e-05
288.15	0.0501	0.4999	0.0023265	2.66e-05
288.15	0.04	0.6001	0.0024508	2.82e-05
288.15	0.03	0.7	0.0025803	2.99e-05
288.15	0.0201	0.7999	0.0027863	3.25e-05
288.15	0.01	0.9	0.0029778	3.5e-05
288.15	0.18	0.1001	0.0019244	2.18e-05
288.15	0.16	0.2	0.0019286	2.2e-05
288.15	0.14	0.3	0.0019856	2.27e-05
288.15	0.12	0.4	0.0020782	2.39e-05
288.15	0.1	0.5	0.0021852	2.52e-05
288.15	0.08	0.6001	0.0023313	2.7e-05
288.15	0.0599	0.7	0.0025103	2.92e-05
288.15	0.04	0.7999	0.0027138	3.18e-05
288.15	0.0199	0.9001	0.0029564	3.48e-05
288.15	0.36	0.1	0.0013611	1.61e-05
288.15	0.3199	0.1999	0.001488	1.75e-05
288.15	0.28	0.3	0.001632	1.92e-05
288.15	0.24	0.4	0.0017738	2.08e-05
288.15	0.2001	0.5	0.0019549	2.29e-05
288.15	0.1602	0.5999	0.0021529	2.52e-05
288.15	0.12	0.7001	0.0023729	2.79e-05
288.15	0.08	0.8	0.0025929	3.06e-05
288.15	0.04	0.9	0.0029115	3.44e-05
288.15	0.54	0.1	0.0010855	1.34e-05
288.15	0.48	0.2	0.0012031	1.47e-05
288.15	0.42	0.3	0.0013645	1.65e-05
288.15	0.3601	0.4	0.0015536	1.86e-05
288.15	0.3	0.5	0.0017576	2.1e-05
288.15	0.24	0.6	0.0019736	2.35e-05
288.15	0.1799	0.7	0.0022205	2.63e-05
288.15	0.12	0.8	0.0025072	2.97e-05
288.15	0.06	0.9	0.0028417	3.37e-05
288.15	0.72	0.1	0.0009103	1.17e-05
288.15	0.64	0.2	0.0010541	1.33e-05
288.15	0.56	0.3	0.0012176	1.51e-05
288.15	0.48	0.4	0.0014084	1.72e-05
288.15	0.3999	0.4999	0.0016183	1.96e-05
288.15	0.32	0.6002	0.0018642	2.24e-05
288.15	0.2399	0.7001	0.0021425	2.56e-05
288.15	0.16	0.8	0.0024497	2.92e-05
288.15	0.08	0.8999	0.0028022	3.33e-05
288.15	0.81	0.1	0.0008682	1.13e-05
288.15	0.72	0.2	0.0010091	1.29e-05
288.15	0.6301	0.3	0.0011701	1.47e-05
288.15	0.54	0.4	0.0013589	1.68e-05
288.15	0.45	0.5	0.0015728	1.92e-05
288.15	0.36	0.6	0.0018171	2.2e-05
288.15	0.27	0.7	0.0021119	2.54e-05
288.15	0.1799	0.8	0.0024228	2.9e-05
288.15	0.09	0.8998	0.0027856	3.32e-05
293.15	0.0901	0.0999	0.0021155	2.37e-05
293.15	0.08	0.2	0.0019496	2.21e-05
293.15	0.07	0.3	0.0019352	2.2e-05
293.15	0.06	0.4	0.0019625	2.25e-05
293.15	0.0501	0.4999	0.0020341	2.34e-05
293.15	0.04	0.6001	0.0021443	2.49e-05
293.15	0.03	0.7	0.0022604	2.64e-05
293.15	0.0201	0.7999	0.002415	2.84e-05
293.15	0.01	0.9	0.0026053	3.08e-05
293.15	0.18	0.1001	0.0017096	1.95e-05
293.15	0.16	0.2	0.0017151	1.97e-05
293.15	0.14	0.3	0.00177	2.04e-05
293.15	0.12	0.4	0.0018516	2.14e-05
293.15	0.1	0.5	0.0019453	2.26e-05
293.15	0.08	0.6001	0.0020722	2.42e-05
293.15	0.0599	0.7	0.0022006	2.58e-05
293.15	0.04	0.7999	0.0023797	2.8e-05
293.15	0.0199	0.9001	0.0025883	3.06e-05
293.15	0.36	0.1	0.0012366	1.47e-05
293.15	0.3199	0.1999	0.0013478	1.6e-05
293.15	0.28	0.3	0.0014736	1.74e-05
293.15	0.24	0.4	0.0015993	1.89e-05
293.15	0.2001	0.5	0.0017545	2.07e-05
293.15	0.1602	0.5999	0.0019208	2.27e-05
293.15	0.12	0.7001	0.0020855	2.47e-05
293.15	0.08	0.8	0.0022745	2.7e-05
293.15	0.04	0.9	0.0025498	3.03e-05
293.15	0.54	0.1	0.0010041	1.25e-05
293.15	0.48	0.2	0.0011037	1.36e-05
293.15	0.42	0.3	0.0012461	1.52e-05
293.15	0.3601	0.4	0.0014101	1.7e-05
293.15	0.3	0.5	0.0015858	1.9e-05
293.15	0.24	0.6	0.001772	2.12e-05
293.15	0.1799	0.7	0.0019846	2.37e-05
293.15	0.12	0.8	0.0022269	2.65e-05
293.15	0.06	0.9	0.002487	2.96e-05
293.15	0.72	0.1	0.0008477	1.1e-05
293.15	0.64	0.2	0.0009758	1.24e-05
293.15	0.56	0.3	0.0011202	1.4e-05
293.15	0.48	0.4	0.0012876	1.59e-05
293.15	0.3999	0.4999	0.0014697	1.8e-05
293.15	0.32	0.6002	0.0016819	2.04e-05
293.15	0.2399	0.7001	0.0019194	2.31e-05
293.15	0.16	0.8	0.0021793	2.61e-05
293.15	0.08	0.8999	0.0024759	2.96e-05
293.15	0.81	0.1	0.0008106	1.07e-05
293.15	0.72	0.2	0.0009369	1.21e-05
293.15	0.6301	0.3	0.0010798	1.37e-05
293.15	0.54	0.4	0.0012439	1.55e-05
293.15	0.45	0.5	0.0014309	1.76e-05
293.15	0.36	0.6	0.001642	2e-05
293.15	0.27	0.7	0.0018944	2.29e-05
293.15	0.1799	0.8	0.0021598	2.6e-05
293.15	0.09	0.8998	0.0024612	2.94e-05
298.15	0.0901	0.0999	0.001871	2.11e-05
298.15	0.08	0.2	0.0017466	1.99e-05
298.15	0.07	0.3	0.001743	2e-05
298.15	0.06	0.4	0.0017841	2.06e-05
298.15	0.0501	0.4999	0.0018492	2.14e-05
298.15	0.04	0.6001	0.0019428	2.26e-05
298.15	0.03	0.7	0.0020439	2.4e-05
298.15	0.0201	0.7999	0.0021758	2.57e-05
298.15	0.01	0.9	0.0023366	2.78e-05
298.15	0.18	0.1001	0.0015307	1.76e-05
298.15	0.16	0.2	0.001544	1.79e-05
298.15	0.14	0.3	0.001591	1.85e-05
298.15	0.12	0.4	0.0016647	1.94e-05
298.15	0.1	0.5	0.0017492	2.05e-05
298.15	0.08	0.6001	0.0018592	2.18e-05
298.15	0.0599	0.7	0.001998	2.35e-05
298.15	0.04	0.7999	0.0021466	2.54e-05
298.15	0.0199	0.9001	0.0023246	2.76e-05
298.15	0.36	0.1	0.0011299	1.36e-05
298.15	0.3199	0.1999	0.0012278	1.47e-05
298.15	0.28	0.3	0.0013391	1.6e-05
298.15	0.24	0.4	0.0014554	1.73e-05
298.15	0.2001	0.5	0.0015878	1.89e-05
298.15	0.1602	0.5999	0.0017306	2.06e-05
298.15	0.12	0.7001	0.0018995	2.26e-05
298.15	0.08	0.8	0.0020567	2.45e-05
298.15	0.04	0.9	0.0022914	2.73e-05
298.15	0.54	0.1	0.0009182	1.16e-05
298.15	0.48	0.2	0.0010166	1.27e-05
298.15	0.42	0.3	0.0011436	1.41e-05
298.15	0.3601	0.4	0.0012885	1.57e-05
298.15	0.3	0.5	0.0014419	1.75e-05
298.15	0.24	0.6	0.0016048	1.93e-05
298.15	0.1799	0.7	0.0017903	2.15e-05
298.15	0.12	0.8	0.0019963	2.39e-05
298.15	0.06	0.9	0.0022396	2.68e-05
298.15	0.72	0.1	0.0007912	1.04e-05
298.15	0.64	0.2	0.000906	1.16e-05
298.15	0.56	0.3	0.0010346	1.31e-05
298.15	0.48	0.4	0.0011837	1.47e-05
298.15	0.3999	0.4999	0.001343	1.65e-05
298.15	0.32	0.6002	0.0015281	1.86e-05
298.15	0.2399	0.7001	0.0017351	2.1e-05
298.15	0.16	0.8	0.0019568	2.36e-05
298.15	0.08	0.8999	0.0022121	2.66e-05
298.15	0.81	0.1	0.0007593	1.01e-05
298.15	0.72	0.2	0.0008726	1.14e-05
298.15	0.6301	0.3	0.0010004	1.28e-05
298.15	0.54	0.4	0.0011454	1.44e-05
298.15	0.45	0.5	0.0013101	1.63e-05
298.15	0.36	0.6	0.0014937	1.83e-05
298.15	0.27	0.7	0.001714	2.09e-05
298.15	0.1799	0.8	0.0019437	2.35e-05
298.15	0.09	0.8998	0.0021975	2.64e-05
303.15	0.0901	0.0999	0.0016604	1.89e-05
303.15	0.08	0.2	0.0015615	1.8e-05
303.15	0.07	0.3	0.0015645	1.81e-05
303.15	0.06	0.4	0.0016054	1.87e-05
303.15	0.0501	0.4999	0.0016662	1.95e-05
303.15	0.04	0.6001	0.0017508	2.05e-05
303.15	0.03	0.7	0.0018418	2.17e-05
303.15	0.0201	0.7999	0.0019576	2.32e-05
303.15	0.01	0.9	0.0020984	2.51e-05
303.15	0.18	0.1001	0.0013771	1.6e-05
303.15	0.16	0.2	0.0013938	1.63e-05
303.15	0.14	0.3	0.0014386	1.69e-05
303.15	0.12	0.4	0.0015048	1.77e-05
303.15	0.1	0.5	0.0015829	1.86e-05
303.15	0.08	0.6001	0.0016799	1.98e-05
303.15	0.0599	0.7	0.0018024	2.14e-05
303.15	0.04	0.7999	0.0019349	2.3e-05
303.15	0.0199	0.9001	0.0020873	2.5e-05
303.15	0.36	0.1	0.0010358	1.26e-05
303.15	0.3199	0.1999	0.0011243	1.36e-05
303.15	0.28	0.3	0.0012248	1.48e-05
303.15	0.24	0.4	0.0013285	1.6e-05
303.15	0.2001	0.5	0.0014456	1.73e-05
303.15	0.1602	0.5999	0.0015706	1.88e-05
303.15	0.12	0.7001	0.0017201	2.06e-05
303.15	0.08	0.8	0.0018566	2.22e-05
303.15	0.04	0.9	0.0020593	2.47e-05
303.15	0.54	0.1	0.0008529	1.09e-05
303.15	0.48	0.2	0.000941	1.19e-05
303.15	0.42	0.3	0.0010536	1.31e-05
303.15	0.3601	0.4	0.0011832	1.46e-05
303.15	0.3	0.5	0.0013192	1.61e-05
303.15	0.24	0.6	0.0014628	1.78e-05
303.15	0.1799	0.7	0.0016235	1.96e-05
303.15	0.12	0.8	0.0018054	2.18e-05
303.15	0.06	0.9	0.0020123	2.42e-05
303.15	0.72	0.1	0.0007405	9.9e-06
303.15	0.64	0.2	0.0008444	1.1e-05
303.15	0.56	0.3	0.0009603	1.23e-05
303.15	0.48	0.4	0.0010919	1.37e-05
303.15	0.3999	0.4999	0.0012345	1.53e-05
303.15	0.32	0.6002	0.0013969	1.72e-05
303.15	0.2399	0.7001	0.001576	1.92e-05
303.15	0.16	0.8	0.0017713	2.15e-05
303.15	0.08	0.8999	0.0019889	2.4e-05
303.15	0.81	0.1	0.0007124	9.6e-06
303.15	0.72	0.2	0.0008141	1.07e-05
303.15	0.6301	0.3	0.0009292	1.2e-05
303.15	0.54	0.4	0.0010598	1.35e-05
303.15	0.45	0.5	0.0012056	1.51e-05
303.15	0.36	0.6	0.0013681	1.69e-05
303.15	0.27	0.7	0.001559	1.91e-05
303.15	0.1799	0.8	0.0017588	2.14e-05
303.15	0.09	0.8998	0.0019792	2.39e-05
308.15	0.0901	0.0999	0.0014824	1.7e-05
308.15	0.08	0.2	0.0014058	1.63e-05
308.15	0.07	0.3	0.0014128	1.65e-05
308.15	0.06	0.4	0.0014534	1.7e-05
308.15	0.0501	0.4999	0.0015098	1.78e-05
308.15	0.04	0.6001	0.0015874	1.88e-05
308.15	0.03	0.7	0.001669	1.98e-05
308.15	0.0201	0.7999	0.0017726	2.12e-05
308.15	0.01	0.9	0.0018957	2.28e-05
308.15	0.18	0.1001	0.0012448	1.47e-05
308.15	0.16	0.2	0.0012659	1.49e-05
308.15	0.14	0.3	0.0013074	1.55e-05
308.15	0.12	0.4	0.001368	1.62e-05
308.15	0.1	0.5	0.0014396	1.71e-05
308.15	0.08	0.6001	0.0015266	1.82e-05
308.15	0.0599	0.7	0.0016366	1.95e-05
308.15	0.04	0.7999	0.0017532	2.1e-05
308.15	0.0199	0.9001	0.0018864	2.27e-05
308.15	0.36	0.1	0.0009527	1.18e-05
308.15	0.3199	0.1999	0.001033	1.27e-05
308.15	0.28	0.3	0.0011237	1.37e-05
308.15	0.24	0.4	0.0012175	1.48e-05
308.15	0.2001	0.5	0.0013219	1.6e-05
308.15	0.1602	0.5999	0.0014336	1.73e-05
308.15	0.12	0.7001	0.0015653	1.89e-05
308.15	0.08	0.8	0.0016835	2.03e-05
308.15	0.04	0.9	0.0018619	2.25e-05
308.15	0.54	0.1	0.0007939	1.03e-05
308.15	0.48	0.2	0.0008726	1.11e-05
308.15	0.42	0.3	0.0009739	1.22e-05
308.15	0.3601	0.4	0.0010903	1.35e-05
308.15	0.3	0.5	0.0012113	1.49e-05
308.15	0.24	0.6	0.0013389	1.64e-05
308.15	0.1799	0.7	0.0014802	1.8e-05
308.15	0.12	0.8	0.0016398	1.99e-05
308.15	0.06	0.9	0.0018203	2.2e-05
308.15	0.72	0.1	0.0006938	9.4e-06
308.15	0.64	0.2	0.0007881	1.04e-05
308.15	0.56	0.3	0.0008929	1.15e-05
308.15	0.48	0.4	0.0010111	1.28e-05
308.15	0.3999	0.4999	0.0011386	1.43e-05
308.15	0.32	0.6002	0.0012823	1.59e-05
308.15	0.2399	0.7001	0.00144	1.77e-05
308.15	0.16	0.8	0.0016105	1.97e-05
308.15	0.08	0.8999	0.0018	2.19e-05
308.15	0.81	0.1	0.0006691	9.2e-06
308.15	0.72	0.2	0.0007628	1.02e-05
308.15	0.6301	0.3	0.0008658	1.13e-05
308.15	0.54	0.4	0.000983	1.26e-05
308.15	0.45	0.5	0.0011131	1.41e-05
308.15	0.36	0.6	0.0012572	1.57e-05
308.15	0.27	0.7	0.0014239	1.76e-05
308.15	0.1799	0.8	0.0016016	1.96e-05
308.15	0.09	0.8998	0.0017913	2.18e-05
313.15	0.0901	0.0999	0.0013356	1.55e-05
313.15	0.08	0.2	0.0012803	1.5e-05
313.15	0.07	0.3	0.0012917	1.52e-05
313.15	0.06	0.4	0.0013318	1.58e-05
313.15	0.0501	0.4999	0.0013851	1.64e-05
313.15	0.04	0.6001	0.0014556	1.73e-05
313.15	0.03	0.7	0.0015309	1.83e-05
313.15	0.0201	0.7999	0.0016233	1.95e-05
313.15	0.01	0.9	0.0017325	2.09e-05
313.15	0.18	0.1001	0.0011387	1.35e-05
313.15	0.16	0.2	0.0011632	1.39e-05
313.15	0.14	0.3	0.0012024	1.44e-05
313.15	0.12	0.4	0.0012589	1.51e-05
313.15	0.1	0.5	0.0013253	1.59e-05
313.15	0.08	0.6001	0.0014046	1.68e-05
313.15	0.0599	0.7	0.0015045	1.81e-05
313.15	0.04	0.7999	0.0016077	1.94e-05
313.15	0.0199	0.9001	0.0017251	2.09e-05
313.15	0.36	0.1	0.0008853	1.11e-05
313.15	0.3199	0.1999	0.0009596	1.19e-05
313.15	0.28	0.3	0.0010429	1.28e-05
313.15	0.24	0.4	0.0011295	1.38e-05
313.15	0.2001	0.5	0.0012239	1.49e-05
313.15	0.1602	0.5999	0.0013246	1.61e-05
313.15	0.12	0.7001	0.0014417	1.75e-05
313.15	0.08	0.8	0.0015451	1.88e-05
313.15	0.04	0.9	0.0017031	2.07e-05
313.15	0.54	0.1	0.0007444	9.7e-06
313.15	0.48	0.2	0.0008162	1.05e-05
313.15	0.42	0.3	0.0009096	1.16e-05
313.15	0.3601	0.4	0.0010161	1.27e-05
313.15	0.3	0.5	0.0011249	1.4e-05
313.15	0.24	0.6	0.0012404	1.53e-05
313.15	0.1799	0.7	0.0013667	1.68e-05
313.15	0.12	0.8	0.0015075	1.84e-05
313.15	0.06	0.9	0.0016653	2.03e-05
313.15	0.72	0.1	0.0006525	8.9e-06
313.15	0.64	0.2	0.0007407	9.9e-06
313.15	0.56	0.3	0.0008378	1.09e-05
313.15	0.48	0.4	0.0009461	1.21e-05
313.15	0.3999	0.4999	0.0010615	1.34e-05
313.15	0.32	0.6002	0.0011907	1.49e-05
313.15	0.2399	0.7001	0.0013316	1.65e-05
313.15	0.16	0.8	0.0014821	1.82e-05
313.15	0.08	0.8999	0.0016483	2.01e-05
313.15	0.81	0.1	0.0006301	8.8e-06
313.15	0.72	0.2	0.0007181	9.7e-06
313.15	0.6301	0.3	0.0008136	1.07e-05
313.15	0.54	0.4	0.000921	1.19e-05
313.15	0.45	0.5	0.0010393	1.32e-05
313.15	0.36	0.6	0.0011689	1.47e-05
313.15	0.27	0.7	0.0013169	1.64e-05
313.15	0.1799	0.8	0.0014741	1.82e-05
313.15	0.09	0.8998	0.0016409	2.01e-05
318.15	0.0901	0.0999	0.0012004	1.41e-05
318.15	0.08	0.2	0.0011581	1.37e-05
318.15	0.07	0.3	0.001169	1.39e-05
318.15	0.06	0.4	0.0012081	1.44e-05
318.15	0.0501	0.4999	0.0012594	1.51e-05
318.15	0.04	0.6001	0.0013239	1.59e-05
318.15	0.03	0.7	0.0013933	1.68e-05
318.15	0.0201	0.7999	0.0014767	1.79e-05
318.15	0.01	0.9	0.0015751	1.92e-05
318.15	0.18	0.1001	0.00103	1.24e-05
318.15	0.16	0.2	0.0010733	1.29e-05
318.15	0.14	0.3	0.0010941	1.32e-05
318.15	0.12	0.4	0.0011464	1.39e-05
318.15	0.1	0.5	0.0012082	1.46e-05
318.15	0.08	0.6001	0.0012807	1.55e-05
318.15	0.0599	0.7	0.0013682	1.66e-05
318.15	0.04	0.7999	0.0014633	1.78e-05
318.15	0.0199	0.9001	0.0015682	1.91e-05
318.15	0.36	0.1	0.0008137	1.03e-05
318.15	0.3199	0.1999	0.0008812	1.11e-05
318.15	0.28	0.3	0.0009567	1.19e-05
318.15	0.24	0.4	0.001037	1.28e-05
318.15	0.2001	0.5	0.0011214	1.38e-05
318.15	0.1602	0.5999	0.0012114	1.49e-05
318.15	0.12	0.7001	0.0013164	1.61e-05
318.15	0.08	0.8	0.0014075	1.72e-05
318.15	0.04	0.9	0.0015503	1.89e-05
318.15	0.54	0.1	0.0006946	9.2e-06
318.15	0.48	0.2	0.0007562	9.9e-06
318.15	0.42	0.3	0.0008397	1.08e-05
318.15	0.3601	0.4	0.0009355	1.19e-05
318.15	0.3	0.5	0.0010329	1.3e-05
318.15	0.24	0.6	0.0011364	1.42e-05
318.15	0.1799	0.7	0.001249	1.55e-05
318.15	0.12	0.8	0.0013742	1.69e-05
318.15	0.06	0.9	0.0015142	1.86e-05
318.15	0.72	0.1	0.0006119	8.5e-06
318.15	0.64	0.2	0.000691	9.3e-06
318.15	0.56	0.3	0.000778	1.03e-05
318.15	0.48	0.4	0.0008747	1.13e-05
318.15	0.3999	0.4999	0.0009783	1.25e-05
318.15	0.32	0.6002	0.0010933	1.38e-05
318.15	0.2399	0.7001	0.0012183	1.52e-05
318.15	0.16	0.8	0.0013524	1.67e-05
318.15	0.08	0.8999	0.0014994	1.84e-05
318.15	0.81	0.1	0.0005928	8.4e-06
318.15	0.72	0.2	0.0006716	9.2e-06
318.15	0.6301	0.3	0.0007567	1.01e-05
318.15	0.54	0.4	0.0008546	1.12e-05
318.15	0.45	0.5	0.0009587	1.23e-05
318.15	0.36	0.6	0.0010744	1.36e-05
318.15	0.27	0.7	0.0012064	1.51e-05
318.15	0.1799	0.8	0.0013457	1.67e-05
318.15	0.09	0.8998	0.0014963	1.84e-05
323.15	0.0901	0.0999	0.0010985	1.31e-05
323.15	0.08	0.2	0.0010657	1.28e-05
323.15	0.07	0.3	0.0010784	1.3e-05
323.15	0.06	0.4	0.0011164	1.35e-05
323.15	0.0501	0.4999	0.0011672	1.41e-05
323.15	0.04	0.6001	0.0012233	1.48e-05
323.15	0.03	0.7	0.0012909	1.57e-05
323.15	0.0201	0.7999	0.0013654	1.66e-05
323.15	0.01	0.9	0.0014541	1.78e-05
323.15	0.18	0.1001	0.0009499	1.16e-05
323.15	0.16	0.2	0.0009894	1.21e-05
323.15	0.14	0.3	0.0010132	1.24e-05
323.15	0.12	0.4	0.0010617	1.3e-05
323.15	0.1	0.5	0.0011234	1.37e-05
323.15	0.08	0.6001	0.0011838	1.45e-05
323.15	0.0599	0.7	0.0012691	1.55e-05
323.15	0.04	0.7999	0.0013532	1.65e-05
323.15	0.0199	0.9001	0.0014491	1.78e-05
323.15	0.36	0.1	0.0007601	9.8e-06
323.15	0.3199	0.1999	0.0008206	1.04e-05
323.15	0.28	0.3	0.000892	1.12e-05
323.15	0.24	0.4	0.000973	1.21e-05
323.15	0.2001	0.5	0.0010428	1.3e-05
323.15	0.1602	0.5999	0.0011269	1.39e-05
323.15	0.12	0.7001	0.0012221	1.51e-05
323.15	0.08	0.8	0.0013011	1.6e-05
323.15	0.04	0.9	0.0014309	1.76e-05
323.15	0.54	0.1	0.0006545	8.8e-06
323.15	0.48	0.2	0.0007097	9.4e-06
323.15	0.42	0.3	0.0007863	1.02e-05
323.15	0.3601	0.4	0.000876	1.12e-05
323.15	0.3	0.5	0.0009666	1.23e-05
323.15	0.24	0.6	0.0010628	1.33e-05
323.15	0.1799	0.7	0.0011631	1.45e-05
323.15	0.12	0.8	0.0012728	1.58e-05
323.15	0.06	0.9	0.0013987	1.73e-05
323.15	0.72	0.1	0.0005785	8.2e-06
323.15	0.64	0.2	0.0006517	8.9e-06
323.15	0.56	0.3	0.0007317	9.8e-06
323.15	0.48	0.4	0.0008218	1.08e-05
323.15	0.3999	0.4999	0.0009171	1.18e-05
323.15	0.32	0.6002	0.0010184	1.3e-05
323.15	0.2399	0.7001	0.0011349	1.43e-05
323.15	0.16	0.8	0.0012536	1.56e-05
323.15	0.08	0.8999	0.0013853	1.72e-05
323.15	0.81	0.1	0.0005633	8.1e-06
323.15	0.72	0.2	0.0006342	8.8e-06
323.15	0.6301	0.3	0.0007121	9.6e-06
323.15	0.54	0.4	0.0008048	1.07e-05
323.15	0.45	0.5	0.0008984	1.17e-05
323.15	0.36	0.6	0.0010038	1.29e-05
323.15	0.27	0.7	0.0011238	1.42e-05
323.15	0.1799	0.8	0.0012486	1.56e-05
323.15	0.09	0.8998	0.0013784	1.71e-05

System: 2-methyl-1-propanol + ethyl butanoate + diethyl butanedioate; phases: Liquid
Fixed: Pressure, kPa = 100
Property: Refractive index (Na D-line) (Liquid); method: Standard Abbe refractometry
Temperature, K	Mole fraction of ethyl butanoate	Mole fraction of diethyl butanedioate	Refractive index (Na D-line)	uncertainty
288.15	0.0901	0.0999	1.4009	0.0014
288.15	0.08	0.2	1.4042	0.0014
288.15	0.07	0.3	1.4072	0.0014
288.15	0.06	0.4	1.4099	0.0014
288.15	0.0501	0.4999	1.4123	0.0014
288.15	0.04	0.6001	1.4146	0.0014
288.15	0.03	0.7	1.4166	0.0014
288.15	0.0201	0.7999	1.4184	0.0014
288.15	0.01	0.9	1.4202	0.0014
288.15	0.18	0.1001	1.4004	0.0014
288.15	0.16	0.2	1.4037	0.0014
288.15	0.14	0.3	1.4068	0.0014
288.15	0.12	0.4	1.4095	0.0014
288.15	0.1	0.5	1.412	0.0014
288.15	0.08	0.6001	1.4143	0.0014
288.15	0.0599	0.7	1.4164	0.0014
288.15	0.04	0.7999	1.4183	0.0014
288.15	0.0199	0.9001	1.4202	0.0014
288.15	0.36	0.1	1.3996	0.0014
288.15	0.3199	0.1999	1.403	0.0014
288.15	0.28	0.3	1.406	0.0014
288.15	0.24	0.4	1.4089	0.0014
288.15	0.2001	0.5	1.4114	0.0014
288.15	0.1602	0.5999	1.4139	0.0014
288.15	0.12	0.7001	1.4161	0.0014
288.15	0.08	0.8	1.4181	0.0014
288.15	0.04	0.9	1.42	0.0014
288.15	0.54	0.1	1.399	0.0014
288.15	0.48	0.2	1.4023	0.0014
288.15	0.42	0.3	1.4054	0.0014
288.15	0.3601	0.4	1.4083	0.0014
288.15	0.3	0.5	1.411	0.0014
288.15	0.24	0.6	1.4135	0.0014
288.15	0.1799	0.7	1.4157	0.0014
288.15	0.12	0.8	1.4179	0.0014
288.15	0.06	0.9	1.42	0.0014
288.15	0.72	0.1	1.3987	0.0014
288.15	0.64	0.2	1.4019	0.0014
288.15	0.56	0.3	1.405	0.0014
288.15	0.48	0.4	1.4079	0.0014
288.15	0.3999	0.4999	1.4106	0.0014
288.15	0.32	0.6002	1.4132	0.0014
288.15	0.2399	0.7001	1.4156	0.0014
288.15	0.16	0.8	1.4178	0.0014
288.15	0.08	0.8999	1.4199	0.0014
288.15	0.81	0.1	1.3985	0.0014
288.15	0.72	0.2	1.4017	0.0014
288.15	0.6301	0.3	1.4048	0.0014
288.15	0.54	0.4	1.4077	0.0014
288.15	0.45	0.5	1.4104	0.0014
288.15	0.36	0.6	1.413	0.0014
288.15	0.27	0.7	1.4154	0.0014
288.15	0.1799	0.8	1.4177	0.0014
288.15	0.09	0.8998	1.4198	0.0014
293.15	0.0901	0.0999	1.3987	0.0014
293.15	0.08	0.2	1.402	0.0014
293.15	0.07	0.3	1.405	0.0014
293.15	0.06	0.4	1.4076	0.0014
293.15	0.0501	0.4999	1.4101	0.0014
293.15	0.04	0.6001	1.4123	0.0014
293.15	0.03	0.7	1.4144	0.0014
293.15	0.0201	0.7999	1.4162	0.0014
293.15	0.01	0.9	1.418	0.0014
293.15	0.18	0.1001	1.3982	0.0014
293.15	0.16	0.2	1.4015	0.0014
293.15	0.14	0.3	1.4045	0.0014
293.15	0.12	0.4	1.4073	0.0014
293.15	0.1	0.5	1.4097	0.0014
293.15	0.08	0.6001	1.4121	0.0014
293.15	0.0599	0.7	1.4142	0.0014
293.15	0.04	0.7999	1.4161	0.0014
293.15	0.0199	0.9001	1.418	0.0014
293.15	0.36	0.1	1.3973	0.0014
293.15	0.3199	0.1999	1.4007	0.0014
293.15	0.28	0.3	1.4038	0.0014
293.15	0.24	0.4	1.4066	0.0014
293.15	0.2001	0.5	1.4092	0.0014
293.15	0.1602	0.5999	1.4116	0.0014
293.15	0.12	0.7001	1.4139	0.0014
293.15	0.08	0.8	1.4159	0.0014
293.15	0.04	0.9	1.4178	0.0014
293.15	0.54	0.1	1.3967	0.0014
293.15	0.48	0.2	1.4	0.0014
293.15	0.42	0.3	1.4031	0.0014
293.15	0.3601	0.4	1.406	0.0014
293.15	0.3	0.5	1.4087	0.0014
293.15	0.24	0.6	1.4112	0.0014
293.15	0.1799	0.7	1.4135	0.0014
293.15	0.12	0.8	1.4157	0.0014
293.15	0.06	0.9	1.4177	0.0014
293.15	0.72	0.1	1.3963	0.0014
293.15	0.64	0.2	1.3995	0.0014
293.15	0.56	0.3	1.4027	0.0014
293.15	0.48	0.4	1.4056	0.0014
293.15	0.3999	0.4999	1.4083	0.0014
293.15	0.32	0.6002	1.4109	0.0014
293.15	0.2399	0.7001	1.4134	0.0014
293.15	0.16	0.8	1.4156	0.0014
293.15	0.08	0.8999	1.4177	0.0014
293.15	0.81	0.1	1.3961	0.0014
293.15	0.72	0.2	1.3993	0.0014
293.15	0.6301	0.3	1.4024	0.0014
293.15	0.54	0.4	1.4053	0.0014
293.15	0.45	0.5	1.4081	0.0014
293.15	0.36	0.6	1.4108	0.0014
293.15	0.27	0.7	1.4131	0.0014
293.15	0.1799	0.8	1.4154	0.0014
293.15	0.09	0.8998	1.4176	0.0014
298.15	0.0901	0.0999	1.3965	0.0014
298.15	0.08	0.2	1.3998	0.0014
298.15	0.07	0.3	1.4028	0.0014
298.15	0.06	0.4	1.4054	0.0014
298.15	0.0501	0.4999	1.4079	0.0014
298.15	0.04	0.6001	1.4101	0.0014
298.15	0.03	0.7	1.4121	0.0014
298.15	0.0201	0.7999	1.414	0.0014
298.15	0.01	0.9	1.4158	0.0014
298.15	0.18	0.1001	1.396	0.0014
298.15	0.16	0.2	1.3992	0.0014
298.15	0.14	0.3	1.4023	0.0014
298.15	0.12	0.4	1.405	0.0014
298.15	0.1	0.5	1.4075	0.0014
298.15	0.08	0.6001	1.4098	0.0014
298.15	0.0599	0.7	1.412	0.0014
298.15	0.04	0.7999	1.4139	0.0014
298.15	0.0199	0.9001	1.4158	0.0014
298.15	0.36	0.1	1.395	0.0014
298.15	0.3199	0.1999	1.3984	0.0014
298.15	0.28	0.3	1.4015	0.0014
298.15	0.24	0.4	1.4043	0.0014
298.15	0.2001	0.5	1.4069	0.0014
298.15	0.1602	0.5999	1.4094	0.0014
298.15	0.12	0.7001	1.4116	0.0014
298.15	0.08	0.8	1.4137	0.0014
298.15	0.04	0.9	1.4156	0.0014
298.15	0.54	0.1	1.3943	0.0014
298.15	0.48	0.2	1.3976	0.0014
298.15	0.42	0.3	1.4007	0.0014
298.15	0.3601	0.4	1.4037	0.0014
298.15	0.3	0.5	1.4064	0.0014
298.15	0.24	0.6	1.409	0.0014
298.15	0.1799	0.7	1.4112	0.0014
298.15	0.12	0.8	1.4134	0.0014
298.15	0.06	0.9	1.4155	0.0014
298.15	0.72	0.1	1.3938	0.0014
298.15	0.64	0.2	1.3972	0.0014
298.15	0.56	0.3	1.4003	0.0014
298.15	0.48	0.4	1.4033	0.0014
298.15	0.3999	0.4999	1.406	0.0014
298.15	0.32	0.6002	1.4086	0.0014
298.15	0.2399	0.7001	1.4111	0.0014
298.15	0.16	0.8	1.4134	0.0014
298.15	0.08	0.8999	1.4155	0.0014
298.15	0.81	0.1	1.3936	0.0014
298.15	0.72	0.2	1.3969	0.0014
298.15	0.6301	0.3	1.4001	0.0014
298.15	0.54	0.4	1.403	0.0014
298.15	0.45	0.5	1.4058	0.0014
298.15	0.36	0.6	1.4085	0.0014
298.15	0.27	0.7	1.4109	0.0014
298.15	0.1799	0.8	1.4132	0.0014
298.15	0.09	0.8998	1.4154	0.0014
303.15	0.0901	0.0999	1.3943	0.0014
303.15	0.08	0.2	1.3976	0.0014
303.15	0.07	0.3	1.4005	0.0014
303.15	0.06	0.4	1.4032	0.0014
303.15	0.0501	0.4999	1.4057	0.0014
303.15	0.04	0.6001	1.4079	0.0014
303.15	0.03	0.7	1.4099	0.0014
303.15	0.0201	0.7999	1.4118	0.0014
303.15	0.01	0.9	1.4136	0.0014
303.15	0.18	0.1001	1.3937	0.0014
303.15	0.16	0.2	1.397	0.0014
303.15	0.14	0.3	1.4	0.0014
303.15	0.12	0.4	1.4028	0.0014
303.15	0.1	0.5	1.4052	0.0014
303.15	0.08	0.6001	1.4076	0.0014
303.15	0.0599	0.7	1.4097	0.0014
303.15	0.04	0.7999	1.4117	0.0014
303.15	0.0199	0.9001	1.4136	0.0014
303.15	0.36	0.1	1.3927	0.0014
303.15	0.3199	0.1999	1.396	0.0014
303.15	0.28	0.3	1.3992	0.0014
303.15	0.24	0.4	1.402	0.0014
303.15	0.2001	0.5	1.4046	0.0014
303.15	0.1602	0.5999	1.4071	0.0014
303.15	0.12	0.7001	1.4094	0.0014
303.15	0.08	0.8	1.4114	0.0014
303.15	0.04	0.9	1.4134	0.0014
303.15	0.54	0.1	1.3919	0.0014
303.15	0.48	0.2	1.3952	0.0014
303.15	0.42	0.3	1.3984	0.0014
303.15	0.3601	0.4	1.4014	0.0014
303.15	0.3	0.5	1.4041	0.0014
303.15	0.24	0.6	1.4067	0.0014
303.15	0.1799	0.7	1.409	0.0014
303.15	0.12	0.8	1.4112	0.0014
303.15	0.06	0.9	1.4133	0.0014
303.15	0.72	0.1	1.3914	0.0014
303.15	0.64	0.2	1.3948	0.0014
303.15	0.56	0.3	1.398	0.0014
303.15	0.48	0.4	1.4009	0.0014
303.15	0.3999	0.4999	1.4037	0.0014
303.15	0.32	0.6002	1.4063	0.0014
303.15	0.2399	0.7001	1.4089	0.0014
303.15	0.16	0.8	1.4111	0.0014
303.15	0.08	0.8999	1.4132	0.0014
303.15	0.81	0.1	1.3912	0.0014
303.15	0.72	0.2	1.3945	0.0014
303.15	0.6301	0.3	1.3977	0.0014
303.15	0.54	0.4	1.4006	0.0014
303.15	0.45	0.5	1.4035	0.0014
303.15	0.36	0.6	1.4062	0.0014
303.15	0.27	0.7	1.4086	0.0014
303.15	0.1799	0.8	1.411	0.0014
303.15	0.09	0.8998	1.4132	0.0014
308.15	0.0901	0.0999	1.392	0.0014
308.15	0.08	0.2	1.3954	0.0014
308.15	0.07	0.3	1.3983	0.0014
308.15	0.06	0.4	1.401	0.0014
308.15	0.0501	0.4999	1.4034	0.0014
308.15	0.04	0.6001	1.4056	0.0014
308.15	0.03	0.7	1.4077	0.0014
308.15	0.0201	0.7999	1.4096	0.0014
308.15	0.01	0.9	1.4114	0.0014
308.15	0.18	0.1001	1.3914	0.0014
308.15	0.16	0.2	1.3947	0.0014
308.15	0.14	0.3	1.3977	0.0014
308.15	0.12	0.4	1.4005	0.0014
308.15	0.1	0.5	1.403	0.0014
308.15	0.08	0.6001	1.4054	0.0014
308.15	0.0599	0.7	1.4075	0.0014
308.15	0.04	0.7999	1.4095	0.0014
308.15	0.0199	0.9001	1.4113	0.0014
308.15	0.36	0.1	1.3903	0.0014
308.15	0.3199	0.1999	1.3937	0.0014
308.15	0.28	0.3	1.3968	0.0014
308.15	0.24	0.4	1.3997	0.0014
308.15	0.2001	0.5	1.4024	0.0014
308.15	0.1602	0.5999	1.4049	0.0014
308.15	0.12	0.7001	1.4072	0.0014
308.15	0.08	0.8	1.4092	0.0014
308.15	0.04	0.9	1.4112	0.0014
308.15	0.54	0.1	1.3895	0.0014
308.15	0.48	0.2	1.3929	0.0014
308.15	0.42	0.3	1.396	0.0014
308.15	0.3601	0.4	1.399	0.0014
308.15	0.3	0.5	1.4018	0.0014
308.15	0.24	0.6	1.4044	0.0014
308.15	0.1799	0.7	1.4068	0.0014
308.15	0.12	0.8	1.409	0.0014
308.15	0.06	0.9	1.4111	0.0014
308.15	0.72	0.1	1.389	0.0014
308.15	0.64	0.2	1.3923	0.0014
308.15	0.56	0.3	1.3956	0.0014
308.15	0.48	0.4	1.3986	0.0014
308.15	0.3999	0.4999	1.4014	0.0014
308.15	0.32	0.6002	1.404	0.0014
308.15	0.2399	0.7001	1.4066	0.0014
308.15	0.16	0.8	1.4089	0.0014
308.15	0.08	0.8999	1.411	0.0014
308.15	0.81	0.1	1.3887	0.0014
308.15	0.72	0.2	1.3921	0.0014
308.15	0.6301	0.3	1.3953	0.0014
308.15	0.54	0.4	1.3983	0.0014
308.15	0.45	0.5	1.4012	0.0014
308.15	0.36	0.6	1.4039	0.0014
308.15	0.27	0.7	1.4064	0.0014
308.15	0.1799	0.8	1.4087	0.0014
308.15	0.09	0.8998	1.411	0.0014
313.15	0.0901	0.0999	1.3898	0.0014
313.15	0.08	0.2	1.393	0.0014
313.15	0.07	0.3	1.396	0.0014
313.15	0.06	0.4	1.3987	0.0014
313.15	0.0501	0.4999	1.4012	0.0014
313.15	0.04	0.6001	1.4034	0.0014
313.15	0.03	0.7	1.4055	0.0014
313.15	0.0201	0.7999	1.4074	0.0014
313.15	0.01	0.9	1.4092	0.0014
313.15	0.18	0.1001	1.389	0.0014
313.15	0.16	0.2	1.3924	0.0014
313.15	0.14	0.3	1.3954	0.0014
313.15	0.12	0.4	1.3982	0.0014
313.15	0.1	0.5	1.4007	0.0014
313.15	0.08	0.6001	1.4031	0.0014
313.15	0.0599	0.7	1.4053	0.0014
313.15	0.04	0.7999	1.4073	0.0014
313.15	0.0199	0.9001	1.4092	0.0014
313.15	0.36	0.1	1.3879	0.0014
313.15	0.3199	0.1999	1.3913	0.0014
313.15	0.28	0.3	1.3945	0.0014
313.15	0.24	0.4	1.3974	0.0014
313.15	0.2001	0.5	1.4001	0.0014
313.15	0.1602	0.5999	1.4026	0.0014
313.15	0.12	0.7001	1.4049	0.0014
313.15	0.08	0.8	1.407	0.0014
313.15	0.04	0.9	1.409	0.0014
313.15	0.54	0.1	1.387	0.0014
313.15	0.48	0.2	1.3905	0.0014
313.15	0.42	0.3	1.3937	0.0014
313.15	0.3601	0.4	1.3967	0.0014
313.15	0.3	0.5	1.3995	0.0014
313.15	0.24	0.6	1.4021	0.0014
313.15	0.1799	0.7	1.4045	0.0014
313.15	0.12	0.8	1.4068	0.0014
313.15	0.06	0.9	1.4089	0.0014
313.15	0.72	0.1	1.3864	0.0014
313.15	0.64	0.2	1.3899	0.0014
313.15	0.56	0.3	1.3932	0.0014
313.15	0.48	0.4	1.3962	0.0014
313.15	0.3999	0.4999	1.3991	0.0014
313.15	0.32	0.6002	1.4018	0.0014
313.15	0.2399	0.7001	1.4043	0.0014
313.15	0.16	0.8	1.4067	0.0014
313.15	0.08	0.8999	1.4088	0.0014
313.15	0.81	0.1	1.3862	0.0014
313.15	0.72	0.2	1.3896	0.0014
313.15	0.6301	0.3	1.3929	0.0014
313.15	0.54	0.4	1.3959	0.0014
313.15	0.45	0.5	1.3989	0.0014
313.15	0.36	0.6	1.4016	0.0014
313.15	0.27	0.7	1.4041	0.0014
313.15	0.1799	0.8	1.4065	0.0014
313.15	0.09	0.8998	1.4088	0.0014
318.15	0.0901	0.0999	1.3876	0.0014
318.15	0.08	0.2	1.3908	0.0014
318.15	0.07	0.3	1.3937	0.0014
318.15	0.06	0.4	1.3964	0.0014
318.15	0.0501	0.4999	1.399	0.0014
318.15	0.04	0.6001	1.4012	0.0014
318.15	0.03	0.7	1.4032	0.0014
318.15	0.0201	0.7999	1.4052	0.0014
318.15	0.01	0.9	1.407	0.0014
318.15	0.18	0.1001	1.3867	0.0014
318.15	0.16	0.2	1.3901	0.0014
318.15	0.14	0.3	1.3931	0.0014
318.15	0.12	0.4	1.3959	0.0014
318.15	0.1	0.5	1.3985	0.0014
318.15	0.08	0.6001	1.4009	0.0014
318.15	0.0599	0.7	1.4031	0.0014
318.15	0.04	0.7999	1.4051	0.0014
318.15	0.0199	0.9001	1.407	0.0014
318.15	0.36	0.1	1.3855	0.0014
318.15	0.3199	0.1999	1.389	0.0014
318.15	0.28	0.3	1.3922	0.0014
318.15	0.24	0.4	1.3951	0.0014
318.15	0.2001	0.5	1.3978	0.0014
318.15	0.1602	0.5999	1.4003	0.0014
318.15	0.12	0.7001	1.4027	0.0014
318.15	0.08	0.8	1.4048	0.0014
318.15	0.04	0.9	1.4068	0.0014
318.15	0.54	0.1	1.3846	0.0014
318.15	0.48	0.2	1.388	0.0014
318.15	0.42	0.3	1.3913	0.0014
318.15	0.3601	0.4	1.3944	0.0014
318.15	0.3	0.5	1.3972	0.0014
318.15	0.24	0.6	1.3998	0.0014
318.15	0.1799	0.7	1.4022	0.0014
318.15	0.12	0.8	1.4045	0.0014
318.15	0.06	0.9	1.4068	0.0014
318.15	0.72	0.1	1.3839	0.0014
318.15	0.64	0.2	1.3874	0.0014
318.15	0.56	0.3	1.3908	0.0014
318.15	0.48	0.4	1.3939	0.0014
318.15	0.3999	0.4999	1.3968	0.0014
318.15	0.32	0.6002	1.3995	0.0014
318.15	0.2399	0.7001	1.402	0.0014
318.15	0.16	0.8	1.4044	0.0014
318.15	0.08	0.8999	1.4066	0.0014
318.15	0.81	0.1	1.3837	0.0014
318.15	0.72	0.2	1.3872	0.0014
318.15	0.6301	0.3	1.3905	0.0014
318.15	0.54	0.4	1.3936	0.0014
318.15	0.45	0.5	1.3965	0.0014
318.15	0.36	0.6	1.3993	0.0014
318.15	0.27	0.7	1.4019	0.0014
318.15	0.1799	0.8	1.4043	0.0014
318.15	0.09	0.8998	1.4066	0.0014
323.15	0.0901	0.0999	1.3853	0.0014
323.15	0.08	0.2	1.3885	0.0014
323.15	0.07	0.3	1.3915	0.0014
323.15	0.06	0.4	1.3942	0.0014
323.15	0.0501	0.4999	1.3967	0.0014
323.15	0.04	0.6001	1.399	0.0014
323.15	0.03	0.7	1.401	0.0014
323.15	0.0201	0.7999	1.403	0.0014
323.15	0.01	0.9	1.4048	0.0014
323.15	0.18	0.1001	1.3844	0.0014
323.15	0.16	0.2	1.3878	0.0014
323.15	0.14	0.3	1.3908	0.0014
323.15	0.12	0.4	1.3936	0.0014
323.15	0.1	0.5	1.3962	0.0014
323.15	0.08	0.6001	1.3986	0.0014
323.15	0.0599	0.7	1.4008	0.0014
323.15	0.04	0.7999	1.4029	0.0014
323.15	0.0199	0.9001	1.4048	0.0014
323.15	0.36	0.1	1.383	0.0014
323.15	0.3199	0.1999	1.3865	0.0014
323.15	0.28	0.3	1.3898	0.0014
323.15	0.24	0.4	1.3928	0.0014
323.15	0.2001	0.5	1.3955	0.0014
323.15	0.1602	0.5999	1.3981	0.0014
323.15	0.12	0.7001	1.4004	0.0014
323.15	0.08	0.8	1.4026	0.0014
323.15	0.04	0.9	1.4047	0.0014
323.15	0.54	0.1	1.382	0.0014
323.15	0.48	0.2	1.3856	0.0014
323.15	0.42	0.3	1.389	0.0014
323.15	0.3601	0.4	1.392	0.0014
323.15	0.3	0.5	1.3949	0.0014
323.15	0.24	0.6	1.3976	0.0014
323.15	0.1799	0.7	1.4	0.0014
323.15	0.12	0.8	1.4023	0.0014
323.15	0.06	0.9	1.4046	0.0014
323.15	0.72	0.1	1.3813	0.0014
323.15	0.64	0.2	1.385	0.0014
323.15	0.56	0.3	1.3884	0.0014
323.15	0.48	0.4	1.3915	0.0014
323.15	0.3999	0.4999	1.3945	0.0014
323.15	0.32	0.6002	1.3972	0.0014
323.15	0.2399	0.7001	1.3998	0.0014
323.15	0.16	0.8	1.4022	0.0014
323.15	0.08	0.8999	1.4044	0.0014
323.15	0.81	0.1	1.3811	0.0014
323.15	0.72	0.2	1.3847	0.0014
323.15	0.6301	0.3	1.388	0.0014
323.15	0.54	0.4	1.3912	0.0014
323.15	0.45	0.5	1.3942	0.0014
323.15	0.36	0.6	1.397	0.0014
323.15	0.27	0.7	1.3996	0.0014
323.15	0.1799	0.8	1.4021	0.0014
323.15	0.09	0.8998	1.4044	0.0014
