Measured thermophysical data. Measurement and Correlation of the Thermal Conductivity of 1,1,1,2,2,4,5,5,5-Nonafluoro-4-(trifluoromethyl)-3-pentanone
Source: J. Chem. Eng. Data, 2018, 10.1021/acs.jced.8b00132
Compound 1: dodecafluoro-2-methylpentan-3-one, C6F12O, InChI=1S/C6F12O/c7-2(4(10,11)12,5(13,14)15)1(19)3(8,9)6(16,17)18, purity 99.95%

System: dodecafluoro-2-methylpentan-3-one; phases: Gas
Property: Thermal conductivity, W/m/K (Gas); method: THOTW
Temperature, K	Pressure, kPa	Thermal conductivity, W/m/K	uncertainty
301.561	34	0.01199	0.00168
301.885	34	0.01211	0.00226
302.243	34	0.01182	0.00137
303.03	35	0.01196	0.00078
301.571	34	0.01211	0.0008
301.885	35	0.01203	0.00276
302.251	34	0.01189	0.00138
302.604	34	0.01198	0.00106
302.233	38	0.01171	0.00105
302.61	38	0.01193	0.00074
303.023	38	0.01194	0.00085
303.464	38	0.01198	0.00076
302.244	36	0.01189	0.00074
302.605	36	0.01183	0.00159
303.015	36	0.01199	0.00081
303.459	36	0.01187	0.00472
311.948	34	0.01258	0.00079
312.301	34	0.01253	0.00079
312.663	34	0.01257	0.00079
313.06	34	0.01264	0.0008
313.49	34	0.01265	0.0008
311.793	63	0.01255	0.00078
312.121	63	0.01261	0.00078
312.459	63	0.01291	0.00081
312.834	63	0.01281	0.00081
313.236	63	0.01285	0.0008
311.784	63	0.01265	0.00079
312.107	63	0.0127	0.00079
312.428	63	0.01278	0.0008
312.81	63	0.01297	0.00082
313.216	63	0.01291	0.00081
311.78	60	0.01276	0.0008
312.097	61	0.01276	0.00079
312.434	61	0.01283	0.0008
312.815	61	0.01287	0.00082
313.222	61	0.01297	0.00082
321.69	64	0.01346	0.00084
322.008	64	0.01355	0.00084
322.35	64	0.01367	0.00085
322.696	62	0.01363	0.00085
323.093	62	0.0139	0.00087
321.657	65	0.01365	0.00085
321.967	66	0.01368	0.0014
322.304	66	0.01358	0.00101
322.676	66	0.01369	0.00099
323.072	66	0.01363	0.00085
321.614	79	0.01361	0.00085
321.915	78	0.01359	0.00084
322.237	77	0.01349	0.00084
322.596	77	0.0137	0.00085
322.991	77	0.01375	0.00086
331.51	102	0.01402	0.00088
331.805	102	0.01364	0.00085
332.469	102	0.01373	0.00085
332.832	102	0.01371	0.00085
331.538	107	0.01383	0.00086
331.829	106	0.01386	0.00086
332.139	107	0.01388	0.00086
332.85	107	0.01391	0.00087
331.58	74	0.01363	0.00087
331.892	74	0.01368	0.00085
332.225	74	0.01373	0.00085
332.589	73	0.01379	0.00086
332.973	73	0.01383	0.00086
331.563	72	0.01361	0.00087
331.86	71	0.01366	0.00085
332.187	71	0.0138	0.00086
332.562	71	0.01389	0.00086
332.942	70	0.01377	0.00085
341.811	154	0.01416	0.00088
342.108	153	0.0142	0.00089
342.439	153	0.01429	0.00092
342.802	153	0.01428	0.00093
343.179	153	0.01436	0.00089
341.751	153	0.01409	0.00088
342.044	153	0.01411	0.00088
342.375	153	0.0142	0.00091
342.735	153	0.01422	0.00093
343.112	153	0.01428	0.00089
341.913	62	0.01468	0.00091
342.234	61	0.01466	0.00091
342.589	61	0.01463	0.00091
342.982	61	0.01475	0.00092
343.39	61	0.01474	0.00092
341.859	61	0.01468	0.00091
342.192	61	0.01474	0.00092
342.555	60	0.01477	0.00092
342.948	60	0.01472	0.00091
343.355	60	0.0147	0.00092
341.801	117	0.01432	0.00089
342.114	116	0.01434	0.00089
342.442	116	0.01444	0.0009
342.806	116	0.01448	0.0009
343.202	116	0.0145	0.0009
341.746	117	0.01428	0.00089
342.054	117	0.01436	0.00089
342.392	115	0.01437	0.00089
342.761	115	0.0144	0.0009
343.149	116	0.01455	0.0009
301.561	34	0.01199	0.00168
301.885	34	0.01211	0.00226
302.243	34	0.01182	0.00137
303.03	35	0.01196	0.00078
301.571	34	0.01211	0.0008
301.885	35	0.01203	0.00276
302.251	34	0.01189	0.00138
302.604	34	0.01198	0.00106
302.233	38	0.01171	0.00105
302.61	38	0.01193	0.00074
303.023	38	0.01194	0.00085
303.464	38	0.01198	0.00076
302.244	36	0.01189	0.00074
302.605	36	0.01183	0.00159
303.015	36	0.01199	0.00081
303.459	36	0.01187	0.00472
311.948	34	0.01258	0.00079
312.301	34	0.01253	0.00079
312.663	34	0.01257	0.00079
313.06	34	0.01264	0.0008
313.49	34	0.01265	0.0008
311.793	63	0.01255	0.00078
312.121	63	0.01261	0.00078
312.459	63	0.01291	0.00081
312.834	63	0.01281	0.00081
313.236	63	0.01285	0.0008
311.784	63	0.01265	0.00079
312.107	63	0.0127	0.00079
312.428	63	0.01278	0.0008
312.81	63	0.01297	0.00082
313.216	63	0.01291	0.00081
311.78	60	0.01276	0.0008
312.097	61	0.01276	0.00079
312.434	61	0.01283	0.0008
312.815	61	0.01287	0.00082
313.222	61	0.01297	0.00082
321.69	64	0.01346	0.00084
322.008	64	0.01355	0.00084
322.35	64	0.01367	0.00085
322.696	62	0.01363	0.00085
323.093	62	0.0139	0.00087
321.657	65	0.01365	0.00085
321.967	66	0.01368	0.0014
322.304	66	0.01358	0.00101
322.676	66	0.01369	0.00099
323.072	66	0.01363	0.00085
321.614	79	0.01361	0.00085
321.915	78	0.01359	0.00084
322.237	77	0.01349	0.00084
322.596	77	0.0137	0.00085
322.991	77	0.01375	0.00086
331.51	102	0.01402	0.00088
331.805	102	0.01364	0.00085
332.469	102	0.01373	0.00085
332.832	102	0.01371	0.00085
331.538	107	0.01383	0.00086
331.829	106	0.01386	0.00086
332.139	107	0.01388	0.00086
332.85	107	0.01391	0.00087
331.58	74	0.01363	0.00087
331.892	74	0.01368	0.00085
332.225	74	0.01373	0.00085
332.589	73	0.01379	0.00086
332.973	73	0.01383	0.00086
331.563	72	0.01361	0.00087
331.86	71	0.01366	0.00085
332.187	71	0.0138	0.00086
332.562	71	0.01389	0.00086
332.942	70	0.01377	0.00085
341.811	154	0.01416	0.00088
342.108	153	0.0142	0.00089
342.439	153	0.01429	0.00092
342.802	153	0.01428	0.00093
343.179	153	0.01436	0.00089
341.751	153	0.01409	0.00088
342.044	153	0.01411	0.00088
342.375	153	0.0142	0.00091
342.735	153	0.01422	0.00093
343.112	153	0.01428	0.00089
341.913	62	0.01468	0.00091
342.234	61	0.01466	0.00091
342.589	61	0.01463	0.00091
342.982	61	0.01475	0.00092
343.39	61	0.01474	0.00092
341.859	61	0.01468	0.00091
342.192	61	0.01474	0.00092
342.555	60	0.01477	0.00092
342.948	60	0.01472	0.00091
343.355	60	0.0147	0.00092
341.801	117	0.01432	0.00089
342.114	116	0.01434	0.00089
342.442	116	0.01444	0.0009
342.806	116	0.01448	0.0009
343.202	116	0.0145	0.0009
341.746	117	0.01428	0.00089
342.054	117	0.01436	0.00089
342.392	115	0.01437	0.00089
342.761	115	0.0144	0.0009
343.149	116	0.01455	0.0009

System: dodecafluoro-2-methylpentan-3-one; phases: Liquid
Property: Thermal conductivity, W/m/K (Liquid); method: THOTW
Temperature, K	Pressure, kPa	Thermal conductivity, W/m/K	uncertainty
182.752	277	0.07883	0.00162
182.754	315	0.07859	0.00161
183.087	352	0.0792	0.00163
183.089	355	0.07913	0.00162
183.468	372	0.07904	0.00162
183.461	394	0.07899	0.00162
183.879	417	0.07826	0.00161
183.877	441	0.07853	0.00161
184.34	428	0.07819	0.00161
184.335	453	0.0783	0.00161
182.888	21592	0.08301	0.0017
182.887	21600	0.08295	0.0017
183.209	21596	0.08274	0.0017
183.208	21614	0.08282	0.0017
183.569	21619	0.08258	0.00169
183.569	21616	0.0827	0.0017
183.965	21622	0.0819	0.00168
183.961	21629	0.08212	0.00168
184.406	21623	0.08222	0.00169
184.405	21641	0.08226	0.00169
182.89	19887	0.08218	0.00169
182.892	19910	0.08244	0.00169
183.216	19909	0.08195	0.00168
183.215	19917	0.08246	0.00169
183.571	19904	0.08223	0.00169
183.571	19917	0.08242	0.00169
183.971	19910	0.08222	0.00169
183.973	19889	0.08191	0.00168
184.414	19891	0.08157	0.00167
184.411	19917	0.08156	0.00167
182.897	13187	0.08114	0.00166
182.891	13189	0.08133	0.00167
183.22	13197	0.08104	0.00166
183.222	13203	0.08122	0.00167
183.583	13189	0.08088	0.00166
183.582	13189	0.0813	0.00167
183.98	13202	0.08101	0.00166
183.982	13198	0.08092	0.00166
184.425	13196	0.0804	0.00165
184.425	13197	0.08067	0.00166
183.16	13354	0.08121	0.00167
183.161	13358	0.08178	0.00168
183.492	13358	0.08133	0.00167
183.489	13357	0.0812	0.00167
183.857	13354	0.08129	0.00167
183.859	13353	0.08129	0.00167
184.258	13357	0.08106	0.00166
184.261	13366	0.08106	0.00166
184.71	13360	0.0804	0.00165
184.701	13354	0.08048	0.00165
183.183	6554	0.07996	0.00164
183.179	6555	0.08035	0.00165
183.511	6548	0.08023	0.00165
183.511	6554	0.08027	0.00165
183.884	6568	0.07993	0.00164
183.882	6566	0.0801	0.00164
184.29	6565	0.07964	0.00164
184.289	6575	0.07978	0.00164
184.74	6561	0.07906	0.00162
184.741	6562	0.07913	0.00162
183.191	92	0.07941	0.00163
183.186	88	0.07924	0.00163
183.528	84	0.07899	0.00162
183.519	86	0.07888	0.00162
183.899	66	0.07888	0.00162
184.308	77	0.07869	0.00162
184.31	72	0.07867	0.00162
184.77	70	0.07835	0.00161
184.764	74	0.07764	0.0016
191.326	9419	0.07979	0.00164
191.321	9411	0.08012	0.00165
191.674	9411	0.07946	0.00163
191.674	9418	0.07986	0.00164
192.065	9415	0.07961	0.00163
192.065	9425	0.07956	0.00163
192.497	9410	0.07887	0.00162
192.494	9414	0.0792	0.00163
192.973	9415	0.07862	0.00161
192.967	9417	0.07861	0.00161
191.319	6011	0.07821	0.00161
191.32	6012	0.0792	0.00163
191.676	6013	0.07908	0.00162
191.672	6032	0.07883	0.00162
192.066	6029	0.07889	0.00162
192.067	6037	0.07899	0.00162
192.5	6046	0.07875	0.00162
192.496	6046	0.07884	0.00162
192.983	6038	0.0783	0.00161
192.98	6049	0.07834	0.00161
191.317	109	0.078	0.0016
191.317	120	0.07787	0.0016
191.673	112	0.07744	0.00159
191.677	121	0.07734	0.00159
192.078	123	0.07723	0.00159
192.075	124	0.07716	0.00158
192.517	131	0.07714	0.00158
192.513	147	0.0771	0.00158
193	154	0.07718	0.00159
193	151	0.07702	0.00158
191.65	67642	0.08859	0.00181
191.651	67633	0.08918	0.00183
192.007	67622	0.08858	0.00181
192.001	67605	0.08855	0.00182
192.397	67603	0.08923	0.00183
192.39	67589	0.08872	0.00182
192.822	67584	0.08836	0.00181
192.823	67573	0.08822	0.00181
193.288	67565	0.0877	0.0018
193.287	67553	0.08802	0.0018
191.648	61105	0.08792	0.0018
191.65	61123	0.08784	0.0018
192.004	61093	0.08779	0.0018
192.007	61086	0.08772	0.0018
192.399	61080	0.08772	0.0018
192.393	61059	0.08761	0.0018
192.833	61067	0.08703	0.00178
192.833	61059	0.08671	0.00178
193.303	61029	0.08639	0.00177
193.315	61018	0.08674	0.00178
191.64	52630	0.08621	0.00177
191.645	52615	0.08649	0.00177
192.005	52639	0.08637	0.00177
191.999	52622	0.08646	0.00177
192.405	52617	0.08563	0.00176
192.401	52626	0.08558	0.00175
192.838	52611	0.08588	0.00176
192.833	52603	0.08551	0.00175
193.313	52615	0.08604	0.00176
193.313	52610	0.086	0.00176
191.636	44213	0.08541	0.00175
191.641	44196	0.08537	0.00175
192.008	44219	0.08526	0.00175
191.999	44217	0.08526	0.00175
192.407	44213	0.08463	0.00173
192.4	44218	0.08528	0.00175
192.845	44211	0.08516	0.00175
192.849	44221	0.08537	0.00175
193.328	44206	0.08413	0.00173
193.33	44213	0.08424	0.00173
191.637	36124	0.08408	0.00172
191.635	36162	0.08425	0.00173
192.005	36164	0.08417	0.00173
192.002	36150	0.084	0.00172
192.416	36146	0.08395	0.00172
192.409	36171	0.08404	0.00172
192.859	36164	0.08389	0.00172
192.856	36164	0.08381	0.00172
193.355	36154	0.08322	0.00171
193.349	36147	0.08312	0.00171
191.631	28273	0.08292	0.0017
191.628	28269	0.08273	0.0017
192.01	28268	0.08282	0.0017
192.005	28272	0.08275	0.0017
192.421	28275	0.08201	0.00168
192.414	28286	0.08272	0.0017
192.871	28295	0.08266	0.0017
192.868	28317	0.08252	0.00169
193.37	28302	0.08165	0.00168
193.369	28301	0.08185	0.00168
191.665	20246	0.08164	0.00167
191.659	20239	0.08175	0.00168
192.046	20236	0.0816	0.00167
192.041	20234	0.08155	0.00167
192.453	20243	0.08132	0.00167
192.456	20239	0.08136	0.00167
192.921	20252	0.08125	0.00167
192.916	20232	0.08125	0.00167
193.429	20237	0.08099	0.00166
193.419	20237	0.08068	0.00166
191.663	13243	0.0804	0.00165
191.659	13255	0.08025	0.00165
192.045	13262	0.08043	0.00165
192.038	13246	0.08024	0.00165
192.465	13253	0.08039	0.00165
192.465	13262	0.08013	0.00164
192.936	13254	0.08003	0.00164
192.937	13254	0.08003	0.00164
193.446	13265	0.07982	0.00164
193.448	13266	0.07945	0.00163
191.658	6412	0.07892	0.00162
191.658	6427	0.07902	0.00162
192.044	6436	0.07895	0.00162
192.05	6439	0.07899	0.00162
192.48	6434	0.07874	0.00162
192.477	6426	0.07848	0.00161
192.958	6437	0.07805	0.0016
192.956	6419	0.07805	0.0016
193.476	6427	0.07813	0.0016
193.476	6455	0.07812	0.0016
191.667	147	0.07786	0.0016
191.662	154	0.07783	0.0016
192.063	162	0.07742	0.00159
192.06	157	0.07749	0.00159
192.498	157	0.07741	0.00159
192.499	161	0.07715	0.00158
192.989	167	0.07692	0.00158
192.985	173	0.07695	0.00158
193.521	180	0.07688	0.00158
193.51	179	0.07701	0.00158
211.774	67154	0.087	0.00178
211.775	67150	0.08734	0.00179
212.176	67138	0.08699	0.00178
212.172	67130	0.08706	0.00178
212.607	67117	0.08664	0.00178
212.61	67097	0.08653	0.00177
213.1	67106	0.08599	0.00176
213.097	67106	0.08628	0.00177
213.634	67097	0.08628	0.00177
213.625	67087	0.08645	0.00177
211.772	60808	0.0862	0.00177
211.771	60806	0.08612	0.00177
212.171	60795	0.08562	0.00176
212.172	60783	0.08526	0.00175
212.622	60787	0.08543	0.00175
212.621	60785	0.08529	0.00175
213.113	60780	0.08539	0.00175
213.106	60772	0.08539	0.00175
213.644	60766	0.08543	0.00175
213.646	60770	0.08553	0.00175
211.761	52042	0.08451	0.00173
211.762	52040	0.08466	0.00174
212.177	52048	0.08429	0.00173
212.175	52063	0.08422	0.00173
212.626	52063	0.08349	0.00171
212.622	52074	0.0837	0.00172
213.126	52089	0.08383	0.00172
213.126	52081	0.08389	0.00172
213.671	52073	0.08388	0.00172
213.669	52074	0.08401	0.00172
211.809	43011	0.08307	0.0017
211.812	43012	0.0834	0.00171
212.227	43021	0.08227	0.00169
212.682	43009	0.08278	0.0017
212.684	43023	0.08262	0.00169
213.194	43036	0.08268	0.0017
213.193	43027	0.08245	0.00169
213.746	43019	0.08232	0.00169
213.741	43029	0.08234	0.00169
211.434	34778	0.08175	0.00168
211.428	34786	0.0823	0.00169
211.808	34801	0.08137	0.00167
211.808	34792	0.08166	0.00168
212.233	34793	0.08106	0.00166
212.227	34794	0.08097	0.00166
212.696	34796	0.08096	0.00166
212.694	34811	0.08103	0.00166
213.213	34810	0.08114	0.00166
213.207	34805	0.08073	0.00166
211.427	26838	0.08023	0.00165
211.43	26842	0.08059	0.00166
211.809	26841	0.07965	0.00163
211.806	26845	0.08017	0.00165
212.234	26847	0.0801	0.00164
212.236	26845	0.07971	0.00164
212.702	26854	0.0791	0.00162
212.707	26846	0.07958	0.00163
213.234	26845	0.07947	0.00163
213.235	26846	0.07959	0.00163
211.415	19434	0.07882	0.00162
211.414	19434	0.07893	0.00162
211.801	19450	0.07869	0.00162
211.8	19446	0.07881	0.00162
212.238	19437	0.07855	0.00161
212.719	19443	0.07837	0.00161
212.714	19432	0.07795	0.0016
213.25	19435	0.0774	0.00159
213.249	19430	0.07775	0.0016
211.415	12666	0.07746	0.00159
211.414	12664	0.07737	0.00159
211.805	12660	0.0775	0.00159
211.804	12660	0.07728	0.00159
212.248	12667	0.07727	0.00159
212.243	12668	0.07725	0.00159
212.733	12670	0.07626	0.00157
212.734	12671	0.0764	0.00157
213.271	12661	0.07617	0.00156
213.276	12679	0.0761	0.00156
211.412	5799	0.07599	0.00156
211.405	5800	0.0759	0.00156
211.81	5813	0.07576	0.00156
211.809	5801	0.07566	0.00156
212.266	5805	0.07454	0.00153
212.259	5796	0.07549	0.00155
212.749	5793	0.07492	0.00154
212.753	5801	0.0748	0.00154
213.308	5806	0.07469	0.00153
213.307	5813	0.07468	0.00153
211.408	170	0.07442	0.00153
211.41	165	0.07448	0.00153
211.816	163	0.07354	0.00151
211.815	173	0.07406	0.00152
212.277	168	0.07378	0.00152
212.274	173	0.0737	0.00152
212.786	181	0.07378	0.00152
212.771	172	0.07396	0.00152
213.334	180	0.07364	0.00151
213.331	173	0.07373	0.00152
241.679	68475	0.0844	0.00173
241.677	68451	0.08416	0.00173
242.105	68448	0.08374	0.00172
242.108	68433	0.08377	0.00172
242.591	68434	0.08369	0.00172
242.587	68418	0.08363	0.00171
243.11	68416	0.08398	0.00172
243.109	68406	0.084	0.00172
243.695	68403	0.08352	0.00171
243.685	68395	0.08376	0.00172
241.663	60336	0.08322	0.00171
241.656	60321	0.08312	0.0017
242.097	60314	0.08294	0.0017
242.083	60313	0.08307	0.0017
242.578	60314	0.08199	0.00168
242.579	60304	0.08223	0.00169
243.118	60300	0.082	0.00168
243.111	60298	0.08226	0.00169
243.706	60287	0.08216	0.00169
243.7	60284	0.08212	0.00168
241.652	50825	0.08126	0.00167
241.649	50824	0.0813	0.00167
242.092	50825	0.08098	0.00166
242.085	50804	0.081	0.00166
242.587	50816	0.07983	0.00164
242.587	50797	0.08019	0.00165
243.132	50797	0.08042	0.00165
243.131	50796	0.08047	0.00165
243.741	50794	0.08029	0.00165
243.732	50783	0.08028	0.00165
241.644	41986	0.0795	0.00163
241.645	41994	0.07941	0.00163
242.096	41988	0.07839	0.00161
242.088	41985	0.07857	0.00161
242.6	41989	0.07848	0.00161
242.599	41984	0.07877	0.00162
243.159	41982	0.07868	0.00162
243.155	41981	0.07861	0.00161
243.768	41985	0.07849	0.00161
243.766	41976	0.07861	0.00161
241.622	33678	0.07765	0.0016
241.628	33700	0.07761	0.00159
242.087	33695	0.07709	0.00158
242.082	33680	0.0771	0.00158
242.602	33703	0.07658	0.00157
242.595	33710	0.0767	0.00158
243.173	33693	0.07674	0.00158
243.172	33696	0.07679	0.00158
243.8	33707	0.07668	0.00157
243.798	33690	0.07668	0.00157
241.267	25696	0.07599	0.00156
241.262	25699	0.0759	0.00156
241.676	25692	0.0752	0.00155
241.673	25701	0.07567	0.00156
242.144	25703	0.07481	0.00154
242.143	25700	0.07474	0.00154
242.672	25698	0.07459	0.00153
242.675	25706	0.07494	0.00154
243.257	25691	0.07494	0.00154
243.249	25695	0.07494	0.00154
241.33	18761	0.07423	0.00153
241.329	18763	0.0739	0.00152
241.755	18761	0.07396	0.00152
241.744	18761	0.07395	0.00152
242.232	18761	0.07341	0.00151
242.229	18760	0.07343	0.00151
242.77	18761	0.07312	0.0015
242.767	18756	0.073	0.0015
243.364	18758	0.07321	0.00151
243.36	18761	0.07324	0.00151
241.321	12027	0.07227	0.00149
241.323	12027	0.07234	0.00149
241.76	12022	0.07209	0.00148
241.747	12028	0.07237	0.00149
242.24	12030	0.07138	0.00147
242.24	12027	0.07149	0.00147
242.796	12030	0.07148	0.00147
242.792	12031	0.07146	0.00147
243.406	12030	0.07139	0.00147
243.394	12032	0.07131	0.00147
241.393	5841	0.07049	0.00145
241.389	5844	0.07044	0.00145
241.834	5847	0.06983	0.00144
241.835	5846	0.07	0.00144
242.34	5849	0.06998	0.00144
242.335	5853	0.06965	0.00143
242.908	5853	0.06968	0.00143
242.905	5856	0.06976	0.00144
243.523	5859	0.0695	0.00143
243.52	5859	0.06954	0.00143
241.384	209	0.06892	0.00142
241.385	209	0.06884	0.00142
241.837	211	0.06786	0.0014
241.832	210	0.06806	0.0014
242.351	208	0.06798	0.0014
242.347	212	0.06825	0.00141
242.931	208	0.06804	0.0014
242.922	207	0.06801	0.0014
243.555	209	0.06794	0.0014
243.55	209	0.06795	0.0014
272.707	68236	0.08151	0.00167
272.707	68218	0.08167	0.00168
273.147	68218	0.08063	0.00166
273.138	68200	0.0807	0.00166
273.65	68193	0.08038	0.00165
273.649	68183	0.08044	0.00165
274.22	68173	0.08038	0.00165
274.216	68163	0.08055	0.00165
274.827	68153	0.08033	0.00165
274.827	68150	0.0803	0.00165
272.668	59542	0.0797	0.00164
272.656	59545	0.08002	0.00164
273.117	59533	0.07966	0.00164
273.114	59541	0.07959	0.00164
273.625	59531	0.07779	0.0016
273.614	59517	0.0783	0.00161
274.204	59504	0.07856	0.00161
274.192	59501	0.07896	0.00162
274.824	59496	0.07855	0.00161
274.821	59491	0.07869	0.00162
272.629	49567	0.07698	0.00158
272.631	49576	0.07734	0.00159
273.096	49569	0.07538	0.00155
273.102	49574	0.07648	0.00157
273.624	49566	0.07674	0.00158
273.621	49564	0.07642	0.00157
274.211	49570	0.07662	0.00157
274.214	49565	0.07644	0.00157
274.858	49571	0.07653	0.00157
274.856	49566	0.0765	0.00157
272.049	46118	0.07672	0.00158
272.042	46123	0.07637	0.00157
272.523	46119	0.07509	0.00154
272.52	46113	0.0755	0.00155
273.066	46114	0.07563	0.00155
273.054	46114	0.07568	0.00156
273.659	46113	0.07572	0.00156
273.65	46116	0.0758	0.00156
274.304	46107	0.07575	0.00156
274.292	46110	0.07571	0.00156
272.038	40373	0.07501	0.00154
272.029	40370	0.07538	0.00155
272.514	40379	0.07408	0.00152
272.503	40381	0.07419	0.00152
273.05	40384	0.07454	0.00153
273.045	40385	0.07459	0.00153
273.647	40387	0.07442	0.00153
273.646	40395	0.07429	0.00153
274.309	40378	0.07418	0.00152
274.305	40391	0.07426	0.00153
272.015	32230	0.07317	0.00151
272.011	32229	0.0734	0.00151
272.497	32238	0.07194	0.00148
272.498	32236	0.07245	0.00149
273.05	32241	0.07208	0.00148
273.046	32245	0.0724	0.00149
273.672	32245	0.07209	0.00148
273.668	32247	0.07216	0.00148
274.346	32249	0.0721	0.00148
274.349	32242	0.0723	0.00149
271.994	24380	0.07115	0.00147
271.986	24357	0.07109	0.00147
272.49	24363	0.06931	0.00143
273.056	24371	0.0701	0.00144
273.059	24365	0.07006	0.00144
273.703	24366	0.07016	0.00144
273.701	24370	0.07021	0.00144
274.4	24354	0.06999	0.00144
274.395	24361	0.07	0.00144
272.067	17554	0.06805	0.0014
272.064	17558	0.06827	0.00141
272.582	17564	0.06792	0.0014
272.58	17548	0.06807	0.0014
273.167	17567	0.06791	0.0014
273.166	17550	0.06792	0.0014
273.825	17545	0.06795	0.0014
273.813	17553	0.06799	0.0014
274.532	17544	0.068	0.0014
274.535	17533	0.06799	0.0014
272.052	11165	0.06595	0.00136
272.052	11155	0.06578	0.00136
272.586	11144	0.06607	0.00136
272.578	11163	0.0662	0.00136
273.182	11163	0.06608	0.00136
273.178	11149	0.066	0.00136
273.86	11155	0.06592	0.00136
273.849	11147	0.06585	0.00136
274.595	11134	0.06585	0.00136
274.59	11155	0.06582	0.00136
271.757	5170	0.06371	0.00132
271.747	5167	0.06405	0.00132
272.157	5173	0.06421	0.00132
272.151	5158	0.06391	0.00132
272.586	5172	0.06413	0.00132
272.584	5167	0.06402	0.00132
273.072	5155	0.06386	0.00132
273.077	5150	0.06384	0.00132
273.614	5151	0.06408	0.00132
273.608	5162	0.06401	0.00132
271.813	411	0.06198	0.00128
271.799	431	0.06194	0.00128
272.206	418	0.06216	0.00128
272.211	421	0.06256	0.00129
272.658	419	0.06231	0.00129
272.66	412	0.06211	0.00128
273.152	404	0.06203	0.00128
273.158	411	0.06212	0.00128
273.707	432	0.06209	0.00128
273.699	424	0.0621	0.00128
301.388	68825	0.07893	0.00162
301.39	68810	0.07913	0.00165
301.76	68808	0.07639	0.00157
301.749	68800	0.07711	0.00159
302.171	68805	0.07819	0.00161
302.166	68802	0.07801	0.0016
302.613	68801	0.07795	0.0016
302.611	68790	0.07804	0.0016
303.111	68772	0.07794	0.0016
303.105	68765	0.07805	0.0016
301.329	68621	0.07913	0.00163
301.317	68614	0.07896	0.00163
301.684	68604	0.07747	0.00159
301.68	68591	0.07706	0.00158
302.094	68583	0.07807	0.0016
302.088	68569	0.07801	0.0016
302.544	68548	0.07804	0.0016
302.543	68549	0.07799	0.0016
303.04	68564	0.07806	0.0016
303.04	68537	0.07796	0.0016
301.335	58469	0.07677	0.00158
301.338	58483	0.07689	0.00158
301.71	58480	0.07563	0.00155
301.705	58476	0.07534	0.00155
302.129	58453	0.07504	0.00154
302.128	58450	0.07511	0.00154
302.594	58445	0.07563	0.00155
302.582	58446	0.0756	0.00155
303.103	58439	0.07546	0.00155
303.099	58422	0.07541	0.00155
301.337	48192	0.07381	0.00152
301.337	48193	0.07385	0.00152
301.724	48184	0.07274	0.0015
301.715	48170	0.07234	0.00149
302.156	48161	0.07327	0.00151
302.154	48164	0.07319	0.0015
302.635	48162	0.07285	0.0015
302.63	48154	0.07294	0.0015
303.171	48152	0.07285	0.0015
303.16	48157	0.07292	0.0015
301.338	38645	0.07082	0.00146
301.34	38644	0.07116	0.00147
301.734	38651	0.0696	0.00143
301.732	38646	0.06956	0.00143
302.194	38653	0.07047	0.00145
302.187	38646	0.07042	0.00145
302.686	38638	0.07035	0.00145
302.679	38648	0.07035	0.00145
303.222	38643	0.07047	0.00145
303.227	38644	0.0705	0.00145
301.349	29988	0.06876	0.00142
301.343	29983	0.06887	0.00142
301.758	29978	0.06731	0.00139
302.221	29975	0.06769	0.00139
302.223	29975	0.06766	0.00139
302.741	29982	0.06772	0.00139
302.734	29973	0.06771	0.00139
303.3	29978	0.06778	0.0014
303.3	29993	0.06773	0.00139
301.368	22450	0.06542	0.00135
301.361	22446	0.0654	0.00135
301.791	22438	0.06507	0.00134
301.794	22452	0.06502	0.00134
302.275	22437	0.06518	0.00134
302.262	22430	0.06528	0.00135
302.801	22443	0.06527	0.00135
302.793	22448	0.06525	0.00135
303.381	22431	0.06529	0.00135
303.377	22430	0.06522	0.00134
301.205	15856	0.06469	0.00135
301.201	15861	0.06419	0.00134
301.592	15866	0.06262	0.00129
301.591	15869	0.06313	0.0013
302.037	15871	0.0631	0.0013
302.038	15874	0.0632	0.0013
302.529	15872	0.06281	0.0013
302.523	15868	0.06291	0.0013
303.074	15869	0.06282	0.0013
303.075	15868	0.06292	0.0013
301.331	15978	0.06437	0.00134
301.32	15982	0.06426	0.00133
301.72	15989	0.0629	0.0013
301.72	15988	0.06294	0.0013
302.157	15975	0.06301	0.0013
302.152	15982	0.0631	0.0013
302.647	15986	0.06304	0.0013
302.648	15984	0.06295	0.0013
303.196	15979	0.06281	0.0013
303.196	15974	0.06276	0.0013
301.353	9737	0.06163	0.00128
301.352	9734	0.06181	0.00128
301.751	9736	0.06053	0.00125
301.758	9735	0.06062	0.00125
302.208	9731	0.06057	0.00125
302.209	9730	0.06078	0.00126
302.72	9726	0.06095	0.00126
302.718	9724	0.06082	0.00126
303.286	9716	0.06072	0.00125
303.285	9741	0.06069	0.00125
301.369	4442	0.05915	0.00123
301.373	4437	0.05962	0.00124
301.791	4434	0.05801	0.0012
301.786	4440	0.05822	0.0012
302.262	4432	0.05857	0.00121
302.261	4429	0.05855	0.00121
302.79	4428	0.05856	0.00121
302.784	4430	0.0586	0.00121
303.374	4422	0.05844	0.00121
303.37	4436	0.05841	0.00121
301.394	100	0.05659	0.00117
301.389	94	0.05683	0.00118
301.832	95	0.05685	0.00118
301.82	102	0.05674	0.00117
302.305	92	0.05649	0.00117
302.31	97	0.05641	0.00117
302.854	95	0.05658	0.00117
302.861	96	0.05645	0.00117
303.459	91	0.05636	0.00117
303.457	92	0.05637	0.00117
331.363	69237	0.07531	0.00155
331.364	69235	0.07553	0.00155
331.756	69231	0.07536	0.00155
331.75	69214	0.07577	0.00156
332.194	69218	0.07551	0.00155
332.189	69215	0.07588	0.00156
332.685	69200	0.07558	0.00155
332.681	69200	0.07562	0.00155
333.215	69192	0.07561	0.00155
333.216	69183	0.07544	0.00155
331.368	57739	0.07238	0.00149
331.368	57734	0.07228	0.00149
331.769	57733	0.07259	0.00149
331.768	57729	0.0724	0.00149
332.224	57724	0.07259	0.00149
332.219	57721	0.07263	0.00149
332.732	57718	0.07251	0.00149
332.729	57710	0.07255	0.00149
333.288	57707	0.07259	0.00149
333.279	57706	0.07259	0.00149
331.382	45571	0.06916	0.00142
331.382	45565	0.06924	0.00143
331.802	45574	0.06925	0.00143
331.79	45573	0.06907	0.00142
332.277	45563	0.06904	0.00142
332.271	45566	0.06911	0.00142
332.8	45557	0.06917	0.00142
332.805	45558	0.06905	0.00142
333.386	45558	0.06943	0.00143
333.373	45549	0.06924	0.00143
331.398	36561	0.0672	0.00138
331.389	36560	0.06692	0.00138
331.831	36558	0.06686	0.00138
331.829	36555	0.06649	0.00137
332.326	36552	0.06642	0.00137
332.323	36553	0.06631	0.00137
332.872	36556	0.06639	0.00137
332.867	36553	0.06645	0.00137
333.478	36550	0.0665	0.00137
333.468	36549	0.06656	0.00137
331.217	28080	0.06416	0.00132
331.215	28078	0.06464	0.00133
331.641	28075	0.06383	0.00132
331.643	28068	0.06457	0.00133
332.116	28069	0.06418	0.00132
332.115	28065	0.06395	0.00132
332.656	28069	0.06388	0.00132
332.653	28066	0.0639	0.00132
333.262	28068	0.06353	0.00131
333.253	28069	0.06356	0.00131
331.233	20449	0.06095	0.00126
331.224	20447	0.06133	0.00127
331.674	20447	0.06118	0.00126
331.672	20446	0.06141	0.00127
332.177	20442	0.0612	0.00126
332.175	20442	0.06122	0.00126
332.735	20439	0.06126	0.00127
332.729	20437	0.06118	0.00126
333.364	20438	0.06085	0.00126
333.353	20435	0.06088	0.00126
331.25	14113	0.05865	0.00121
331.242	14112	0.05849	0.00121
331.71	14116	0.05838	0.00121
331.699	14109	0.0585	0.00121
332.23	14110	0.05828	0.00121
332.232	14111	0.05807	0.0012
332.832	14108	0.05829	0.00121
332.825	14107	0.05846	0.00121
333.471	14107	0.05827	0.00121
333.462	14103	0.05826	0.0012
331.281	8580	0.05626	0.00116
331.278	8582	0.05648	0.00117
331.757	8578	0.0562	0.00116
331.755	8577	0.05613	0.00116
332.297	8574	0.05582	0.00116
332.301	8573	0.0558	0.00116
332.91	8572	0.05573	0.00115
332.906	8573	0.05574	0.00115
333.581	8574	0.05562	0.00115
333.585	8568	0.0556	0.00115
331.093	3942	0.05385	0.00112
331.096	3945	0.05411	0.00112
331.548	3951	0.05379	0.00112
331.547	3950	0.05388	0.00112
332.083	3946	0.05395	0.00112
332.07	3947	0.05394	0.00112
332.675	3949	0.05349	0.00111
332.675	3944	0.05341	0.00111
333.347	3945	0.0533	0.00111
333.341	3947	0.05333	0.00111
331.356	73	0.05184	0.00108
331.367	107	0.05182	0.00108
331.836	107	0.05166	0.00107
331.836	107	0.05159	0.00107
332.387	107	0.05161	0.00107
332.382	108	0.05165	0.00107
333.011	108	0.05128	0.00107
333.006	108	0.05126	0.00106
333.711	108	0.051	0.00106
333.699	108	0.05109	0.00106
331.315	242	0.05138	0.00107
331.314	242	0.05151	0.00107
331.804	242	0.05139	0.00107
331.792	239	0.05138	0.00107
332.353	239	0.05131	0.00107
332.348	238	0.05149	0.00107
332.978	237	0.05109	0.00106
332.972	230	0.05124	0.00106
333.67	231	0.05113	0.00106
333.666	232	0.05114	0.00106

System: dodecafluoro-2-methylpentan-3-one; phases: Gas
Property: Thermal conductivity, W/m/K (Gas); method: NHOTW
Temperature, K	Pressure, kPa	Thermal conductivity, W/m/K	uncertainty
300.625	27	0.01161	0.00055
300.823	27	0.01167	0.00055
301.043	27	0.01166	0.00055
301.273	26	0.0117	0.00055
301.528	27	0.0117	0.00055
300.616	27	0.01166	0.00055
300.819	27	0.01167	0.00055
301.037	26	0.01169	0.00055
301.272	27	0.01169	0.00055
301.522	27	0.01171	0.00056
300.604	35	0.01177	0.00059
300.807	35	0.0117	0.00056
301.02	35	0.01175	0.00055
301.255	35	0.01177	0.00075
301.507	35	0.01178	0.00068
300.608	35	0.01163	0.00066
300.808	35	0.01167	0.00058
301.024	35	0.01169	0.00055
301.255	35	0.01172	0.00069
301.504	35	0.01174	0.00056
300.594	40	0.01173	0.00055
300.6	40	0.01173	0.00055
300.8	40	0.01173	0.00055
300.799	40	0.01174	0.00055
301.021	40	0.01176	0.00056
301.025	40	0.01171	0.00055
301.255	40	0.01175	0.00055
301.254	40	0.01177	0.00055
301.503	41	0.01177	0.00056
301.504	40	0.01178	0.00055
315.012	24	0.01262	0.00059
315.009	24	0.01267	0.00059
315.19	24	0.01259	0.00059
315.187	24	0.01259	0.00059
315.385	24	0.01262	0.00059
315.389	24	0.01261	0.00059
315.596	24	0.01263	0.00059
315.598	24	0.01263	0.00059
315.817	24	0.01264	0.00059
315.82	24	0.01263	0.00059
315.004	42	0.01266	0.00059
314.999	42	0.01273	0.0006
315.181	42	0.0127	0.0006
315.182	42	0.0127	0.0006
315.394	42	0.01258	0.00059
315.389	42	0.0126	0.00059
315.604	42	0.01262	0.00059
315.61	41	0.01258	0.00059
315.837	41	0.01259	0.00059
315.845	42	0.01252	0.00059
315.049	69	0.01239	0.0006
315.033	68	0.01269	0.0006
315.233	68	0.01265	0.00059
315.258	68	0.01263	0.00059
315.476	68	0.01258	0.00059
315.482	67	0.01259	0.00059
315.699	67	0.01258	0.00059
315.703	67	0.01255	0.00059
315.921	67	0.01258	0.00059
315.913	67	0.01259	0.00059
315.065	73	0.01282	0.00061
315.077	73	0.0128	0.0006
315.259	73	0.01275	0.0006
315.262	73	0.01272	0.0006
315.45	73	0.01275	0.0006
315.451	73	0.01277	0.0006
315.656	73	0.01275	0.0006
315.648	73	0.01278	0.0006
315.871	73	0.01277	0.00061
315.871	73	0.01278	0.00061
329.191	120	0.01389	0.00065
329.208	120	0.01385	0.00065
329.377	120	0.01375	0.00065
329.39	120	0.01376	0.00065
329.572	120	0.01381	0.00065
329.584	120	0.01371	0.00065
329.767	120	0.01378	0.00065
329.785	120	0.01373	0.00065
329.97	120	0.01385	0.00067
329.985	120	0.01382	0.00067
329.317	120	0.01375	0.00065
329.31	120	0.01393	0.00066
329.469	120	0.01394	0.00066
329.484	120	0.01386	0.00065
329.652	120	0.01392	0.00065
329.664	119	0.0139	0.00065
329.835	118	0.01407	0.00066
329.842	118	0.01403	0.00066
330.019	117	0.01412	0.00069
330.011	117	0.01411	0.00069
329.23	26	0.014	0.00066
329.217	27	0.01411	0.00067
329.37	26	0.01398	0.00066
329.364	26	0.01404	0.00066
329.527	26	0.01404	0.00066
329.521	26	0.01408	0.00066
329.703	26	0.01403	0.00066
329.701	26	0.01401	0.00066
329.942	26	0.01354	0.00064
329.94	26	0.01352	0.00064
329.19	27	0.01341	0.00063
329.196	26	0.01335	0.00063
329.347	27	0.01345	0.00064
329.341	27	0.01343	0.00064
329.507	27	0.01348	0.00064
329.505	26	0.01349	0.00064
329.688	27	0.0135	0.00064
329.684	27	0.01357	0.00064
329.873	27	0.01359	0.00064
329.873	27	0.01357	0.00064
329.1	72	0.01387	0.00066
329.116	72	0.01364	0.00065
329.263	72	0.01377	0.00065
329.263	72	0.01374	0.00065
329.43	72	0.01372	0.00065
329.427	72	0.01375	0.00065
329.609	72	0.01376	0.00065
329.604	72	0.01381	0.00065
329.857	72	0.01334	0.00063
329.851	73	0.01336	0.00063
329.095	73	0.01371	0.00065
329.096	73	0.01367	0.00065
329.252	72	0.01368	0.00064
329.254	73	0.0137	0.00064
329.417	73	0.01371	0.00065
329.418	73	0.01373	0.00066
329.602	73	0.01369	0.00065
329.602	73	0.01372	0.00065
329.793	73	0.01373	0.00065
329.791	73	0.01373	0.00065
329.074	105	0.01379	0.00065
329.074	105	0.0138	0.00065
329.228	105	0.01384	0.00065
329.228	105	0.01389	0.00065
329.399	105	0.01386	0.00065
329.394	105	0.01386	0.00065
329.569	105	0.01395	0.00066
329.568	105	0.01394	0.00066
329.756	104	0.01399	0.00066
329.753	104	0.01402	0.00067
343.995	26	0.01439	0.00068
343.991	26	0.01441	0.00068
344.144	26	0.01446	0.00068
344.144	26	0.01445	0.00068
344.311	26	0.01448	0.00068
344.307	26	0.01449	0.00068
344.492	26	0.01446	0.00068
344.49	26	0.01447	0.00068
344.669	26	0.01453	0.00069
344.678	26	0.01449	0.00069
343.944	82	0.0148	0.0007
343.942	82	0.01481	0.0007
344.097	82	0.01476	0.0007
344.099	83	0.01479	0.0007
344.259	83	0.01479	0.0007
344.253	83	0.0148	0.0007
344.433	83	0.0148	0.0007
344.437	83	0.01478	0.0007
344.61	83	0.01485	0.0007
344.619	83	0.0148	0.0007
343.909	134	0.01511	0.00072
343.91	134	0.01509	0.00072
344.059	134	0.01505	0.00071
344.066	134	0.01503	0.00071
344.213	133	0.01513	0.00072
344.213	133	0.01513	0.00072
344.376	133	0.01519	0.00072
344.377	132	0.01516	0.00072
344.55	132	0.01525	0.00073
344.553	132	0.01525	0.00073
343.903	170	0.01524	0.00072
343.905	170	0.0152	0.00072
344.044	170	0.01532	0.00073
344.043	170	0.01532	0.00073
344.187	169	0.01545	0.00074
344.19	169	0.01542	0.00074
344.347	169	0.01551	0.00074
344.346	169	0.01555	0.00074
344.511	169	0.01563	0.00075
344.508	169	0.01563	0.00075
343.88	192	0.01563	0.00078
343.89	192	0.01557	0.00076
344.027	192	0.01571	0.00078
344.023	192	0.01569	0.00078
344.166	191	0.01575	0.00078
344.165	191	0.01573	0.00078
344.312	191	0.01589	0.00079
344.316	191	0.01586	0.00079
344.474	191	0.01601	0.0008
344.466	191	0.01602	0.0008
358.366	26	0.01548	0.00073
358.365	26	0.01551	0.00073
358.51	26	0.0155	0.00073
358.505	26	0.01551	0.00073
358.656	26	0.01548	0.00073
358.664	26	0.01547	0.00073
358.821	26	0.01555	0.00073
358.817	26	0.0155	0.00073
358.991	26	0.0155	0.00073
358.984	26	0.01553	0.00073
358.336	91	0.01584	0.00075
358.335	91	0.01584	0.00075
358.473	91	0.01587	0.00075
358.469	91	0.0159	0.00075
358.621	91	0.01584	0.00075
358.618	91	0.01592	0.00075
358.767	92	0.01588	0.00075
358.775	92	0.01586	0.00075
358.948	92	0.01588	0.00075
358.939	92	0.01588	0.00075
358.296	189	0.01648	0.00078
358.304	188	0.01631	0.00078
358.431	188	0.01632	0.00078
358.432	187	0.01629	0.00078
358.571	187	0.01629	0.00077
358.568	187	0.01635	0.00078
358.706	187	0.01648	0.00078
358.711	187	0.01644	0.00078
358.85	186	0.0166	0.00079
358.852	186	0.01657	0.00079
358.259	257	0.01685	0.00079
358.252	257	0.01686	0.0008
358.381	257	0.01694	0.0008
358.383	256	0.01692	0.0008
358.516	256	0.0169	0.0008
358.505	256	0.01713	0.00081
358.629	256	0.01729	0.00082
358.625	255	0.01734	0.00082
358.777	255	0.01726	0.00081
358.77	255	0.01736	0.00082
374.078	25	0.01652	0.00078
374.078	25	0.01647	0.00078
374.218	25	0.01645	0.00078
374.213	25	0.01648	0.00078
374.353	25	0.01656	0.00078
374.35	25	0.01653	0.00078
374.5	25	0.01656	0.00078
374.496	25	0.01659	0.00078
374.656	25	0.0166	0.00078
374.656	25	0.01657	0.00078
374.003	102	0.01713	0.00081
373.996	102	0.01722	0.00081
374.145	102	0.01694	0.0008
374.139	102	0.01695	0.0008
374.285	102	0.01693	0.0008
374.284	102	0.01696	0.0008
374.424	102	0.01695	0.0008
374.433	102	0.01693	0.0008
374.594	101	0.01691	0.0008
374.582	101	0.01698	0.0008
373.967	207	0.0173	0.00081
373.972	206	0.01727	0.00081
374.098	206	0.01733	0.00082
374.1	205	0.01731	0.00082
374.229	205	0.0174	0.00082
374.231	205	0.01741	0.00082
374.371	204	0.01751	0.00083
374.363	203	0.01755	0.00083
374.509	203	0.01762	0.00083
374.515	202	0.0176	0.00083
373.922	308	0.01812	0.00086
373.917	307	0.01816	0.00086
374.033	306	0.01829	0.00087
374.03	306	0.01823	0.00086
374.154	305	0.01837	0.00087
374.166	305	0.01816	0.00086
374.277	305	0.01852	0.00088
374.284	304	0.01841	0.00087
374.415	303	0.01848	0.00088
374.417	303	0.01842	0.00087
388.097	26	0.01771	0.00083
388.102	26	0.01756	0.00083
388.225	26	0.01766	0.00083
388.227	26	0.0176	0.00083
388.362	26	0.0176	0.00083
388.366	26	0.01755	0.00082
388.502	26	0.01759	0.00083
388.51	26	0.01751	0.00082
388.658	26	0.01755	0.00082
388.654	26	0.01756	0.00083
388.069	128	0.01819	0.00086
388.072	128	0.01818	0.00086
388.197	128	0.01804	0.00085
388.19	128	0.01818	0.00086
388.329	128	0.01804	0.00085
388.334	127	0.01792	0.00084
388.472	127	0.01796	0.00084
388.477	127	0.0179	0.00084
388.622	127	0.01791	0.00084
388.623	127	0.01791	0.00084
388.061	258	0.01842	0.00087
388.076	257	0.01826	0.00086
388.18	257	0.01851	0.00087
388.189	256	0.0184	0.00087
388.295	256	0.01853	0.00087
388.307	256	0.01853	0.00087
388.428	255	0.01863	0.00088
388.431	254	0.01861	0.00088
388.56	255	0.01872	0.00088
388.559	254	0.01874	0.00088
388.001	395	0.01971	0.00093
387.992	395	0.0199	0.00094
388.101	395	0.01983	0.00094
388.096	394	0.01994	0.00095
388.203	395	0.01983	0.00094
388.216	394	0.01966	0.00093
388.317	395	0.01985	0.00094
388.314	396	0.01994	0.00095
388.432	396	0.01991	0.00095
388.45	397	0.01966	0.00093
402.383	27	0.01858	0.00088
402.384	27	0.01858	0.00088
402.505	27	0.01866	0.00088
402.503	27	0.01864	0.00088
402.634	27	0.01867	0.00088
402.636	27	0.01862	0.00088
402.777	27	0.01867	0.00088
402.783	27	0.01858	0.00088
402.934	27	0.01857	0.00088
402.928	27	0.01866	0.00088
402.311	156	0.01939	0.00091
402.309	157	0.01939	0.00091
402.441	159	0.01917	0.0009
402.442	159	0.01915	0.0009
402.571	160	0.01916	0.0009
402.572	161	0.0192	0.0009
402.711	162	0.01917	0.0009
402.708	163	0.01926	0.00091
402.854	164	0.01925	0.00091
402.849	164	0.01927	0.00091
402.266	307	0.02002	0.00094
402.275	307	0.01983	0.00093
402.374	306	0.0201	0.00095
402.375	306	0.02016	0.00095
402.491	306	0.02022	0.00095
402.489	306	0.02027	0.00095
402.623	305	0.02031	0.00096
402.622	305	0.02029	0.00096
402.75	305	0.02035	0.00096
402.741	305	0.02049	0.00096
402.212	448	0.02088	0.00098
402.23	447	0.02061	0.00097
402.33	446	0.02071	0.00098
402.339	445	0.02068	0.00097
402.455	445	0.02064	0.00097
402.469	444	0.02039	0.00096
402.568	444	0.02075	0.00098
402.59	443	0.02053	0.00097
402.689	442	0.02089	0.00099
402.693	441	0.02089	0.00099
416.896	36	0.02006	0.00094
417.029	36	0.01958	0.00092
417.157	36	0.01976	0.00093
417.137	36	0.02006	0.00094
417.271	36	0.02022	0.00095
417.271	36	0.02032	0.00095
417.422	36	0.02028	0.00095
417.423	36	0.02029	0.00095
417.155	141	0.02023	0.00095
417.154	141	0.0203	0.00096
417.314	140	0.02018	0.00095
417.317	140	0.02001	0.00094
416.909	372	0.02173	0.00102
416.897	371	0.0221	0.00104
417.014	369	0.02218	0.00104
417.002	369	0.0224	0.00105
417.122	368	0.02238	0.00105
417.161	367	0.02181	0.00102
417.29	367	0.02172	0.00102
416.693	596	0.0223	0.00105
416.697	595	0.02228	0.00138
416.894	590	0.02234	0.00135
416.903	588	0.02223	0.00131
417.039	587	0.0216	0.00101
417.046	587	0.02156	0.00101
417.154	588	0.02157	0.00134
417.156	587	0.02144	0.00248
432.91	42	0.02089	0.00098
432.903	43	0.02081	0.00098
433.015	43	0.02102	0.00099
433.01	43	0.02104	0.00099
433.136	43	0.02099	0.00098
433.127	43	0.02102	0.00099
433.25	43	0.02108	0.00099
433.25	43	0.02108	0.00099
433.385	43	0.02108	0.00099
433.389	43	0.02105	0.00099
432.867	159	0.02111	0.00099
432.87	158	0.02102	0.00099
432.99	157	0.02107	0.00099
432.991	157	0.02099	0.00099
433.117	156	0.02101	0.00099
433.114	155	0.02111	0.00099
433.244	155	0.02111	0.00099
433.25	156	0.02107	0.00099
433.375	159	0.02129	0.001
433.373	162	0.02126	0.001
432.826	376	0.02257	0.00106
432.824	375	0.02254	0.00106
432.93	375	0.02269	0.00107
432.927	374	0.02268	0.00106
433.037	373	0.02274	0.00107
433.045	372	0.02268	0.00106
433.159	372	0.02272	0.00107
433.162	372	0.02276	0.00107
433.282	371	0.0228	0.00107
433.278	371	0.02281	0.00108
432.71	656	0.02379	0.00112
432.808	655	0.02367	0.00111
432.807	652	0.02381	0.00112
432.905	650	0.02367	0.00111
433.016	648	0.02337	0.0011
433.021	647	0.02339	0.0011
433.122	646	0.02323	0.00109
433.129	644	0.02306	0.00108
453.8	48	0.02228	0.00105
453.783	48	0.02241	0.00105
453.884	47	0.02246	0.00105
453.876	47	0.02258	0.00106
453.983	48	0.02243	0.00105
453.977	48	0.02253	0.00106
454.096	48	0.0225	0.00106
454.093	48	0.02257	0.00106
454.218	47	0.0225	0.00106
454.216	47	0.02246	0.00105
453.73	174	0.0228	0.00107
453.732	171	0.02261	0.00106
453.837	171	0.02268	0.00107
453.847	170	0.02247	0.00106
453.95	170	0.0227	0.00107
453.955	170	0.02256	0.00106
454.068	170	0.02273	0.00107
454.076	169	0.02266	0.00106
454.203	169	0.0226	0.00106
454.211	169	0.02248	0.00106
453.703	353	0.02345	0.00111
453.72	350	0.02302	0.00108
453.801	347	0.02342	0.0011
453.802	344	0.0233	0.00109
453.903	342	0.02344	0.0011
453.903	340	0.02338	0.0011
454.018	339	0.02333	0.00115
454.015	338	0.02346	0.00121
454.13	338	0.0234	0.00115
454.134	337	0.02342	0.00116
453.644	526	0.02431	0.00114
453.646	526	0.02432	0.00114
453.741	525	0.0244	0.00115
453.749	524	0.02432	0.00114
453.843	524	0.02443	0.00115
453.858	523	0.02411	0.00113
453.945	524	0.02452	0.00115
453.952	524	0.02446	0.00115
454.056	523	0.02445	0.00115
454.066	522	0.02433	0.00114
473.229	47	0.02385	0.00112
473.215	47	0.02404	0.00113
473.303	47	0.02401	0.00113
473.284	47	0.02405	0.00113
473.36	47	0.02437	0.00114
473.35	47	0.02449	0.00115
473.453	47	0.02432	0.00114
473.444	47	0.02441	0.00114
473.558	46	0.02434	0.00114
473.544	46	0.0245	0.00115
473.142	204	0.0245	0.00115
473.144	204	0.02427	0.00114
473.236	203	0.02435	0.00114
473.24	203	0.02438	0.00114
473.339	203	0.02431	0.00114
473.331	202	0.02458	0.00115
473.456	202	0.02416	0.00113
473.437	201	0.0244	0.00115
473.552	201	0.02434	0.00114
473.538	201	0.02457	0.00115
473.126	429	0.02498	0.00117
473.113	430	0.0254	0.00119
473.211	427	0.02512	0.00118
473.221	426	0.02501	0.00117
473.298	425	0.02526	0.00119
473.294	423	0.02534	0.00119
473.383	420	0.02536	0.00119
473.389	419	0.0252	0.00118
473.486	418	0.02526	0.00119
473.48	419	0.02531	0.00119
473.073	605	0.02596	0.00122
473.083	606	0.02604	0.00122
473.17	607	0.02579	0.00121
473.176	607	0.02602	0.00122
473.266	607	0.02598	0.00122
473.272	607	0.02584	0.00121
473.371	607	0.0258	0.00121
473.359	606	0.02606	0.00122
473.457	606	0.02602	0.00122
473.448	606	0.02611	0.00123
499.472	60	0.02576	0.00121
499.453	60	0.02624	0.00123
499.545	61	0.02598	0.00122
499.538	61	0.02593	0.00122
499.621	61	0.02606	0.00122
499.623	61	0.02605	0.00122
499.696	60	0.02639	0.00124
499.702	60	0.0261	0.00122
499.795	60	0.02618	0.00123
499.794	60	0.02624	0.00123
499.412	221	0.02654	0.00125
499.421	220	0.02629	0.00123
499.507	220	0.02635	0.00124
499.507	219	0.02641	0.00124
499.597	219	0.0263	0.00123
499.598	218	0.02625	0.00123
499.691	218	0.02623	0.00123
499.691	218	0.0264	0.00124
499.794	218	0.02627	0.00123
499.801	217	0.02613	0.00123
499.412	422	0.0269	0.00126
499.401	421	0.02708	0.00127
499.493	419	0.0267	0.00125
499.496	419	0.02667	0.00125
499.558	419	0.02715	0.00127
499.572	419	0.02691	0.00126
499.653	419	0.02725	0.00128
499.658	418	0.02719	0.00128
499.75	418	0.02717	0.00127
499.763	417	0.02687	0.00126
499.374	647	0.02768	0.0013
499.37	646	0.02778	0.0013
499.453	645	0.02749	0.00129
499.447	645	0.02782	0.00131
499.531	644	0.02758	0.00129
499.549	644	0.02734	0.00128
499.63	643	0.02745	0.00129
499.64	644	0.02725	0.00128
499.731	643	0.02734	0.00128
499.727	643	0.02744	0.00129

System: dodecafluoro-2-methylpentan-3-one; phases: Gas
Property: Thermal conductivity, W/m/K (Gas); method: THOTW
Temperature, K	Pressure, kPa	Thermal conductivity, W/m/K	uncertainty
344.603	134	0.01526	0.00095
344.6	134	0.01525	0.00095
344.85	134	0.01542	0.00096
344.869	134	0.01544	0.00101
345.144	134	0.01546	0.00096
345.147	133	0.01547	0.00096
345.437	133	0.01551	0.00099
345.449	133	0.0155	0.00099
345.766	132	0.01531	0.00095
345.767	133	0.01548	0.00096
344.564	170	0.01468	0.00093
344.572	170	0.01503	0.00094
344.831	170	0.01525	0.00095
344.833	170	0.01449	0.00091
345.112	170	0.01528	0.00095
345.108	169	0.01531	0.00096
345.401	169	0.01485	0.00093
345.393	169	0.01534	0.00096
345.721	169	0.0154	0.00095
345.717	169	0.01511	0.00094
344.548	192	0.01458	0.00091
344.557	192	0.01463	0.00091
344.796	192	0.01479	0.00097
344.796	192	0.01481	0.00097
345.079	192	0.01491	0.00095
345.077	191	0.0149	0.00095
345.368	191	0.01504	0.00095
345.358	191	0.01503	0.00095
345.675	191	0.01514	0.00094
345.674	191	0.01515	0.00094
359.156	26	0.01687	0.00104
359.158	26	0.01687	0.00104
359.406	26	0.01672	0.00104
359.403	26	0.01671	0.00103
359.705	26	0.0168	0.00105
359.705	26	0.01681	0.00105
360.004	26	0.01679	0.00104
360.006	26	0.01682	0.00104
360.336	26	0.01682	0.00105
360.339	26	0.01675	0.00104
359.002	91	0.0172	0.00106
358.998	91	0.01701	0.00105
359.242	91	0.01701	0.00105
359.241	91	0.01691	0.00105
359.512	91	0.017	0.00105
359.504	91	0.01707	0.00106
359.788	91	0.01762	0.00109
359.786	92	0.01704	0.00105
360.086	92	0.01711	0.00106
360.087	92	0.01617	0.001
358.883	189	0.01639	0.00102
358.896	188	0.01635	0.00101
359.127	188	0.01636	0.00101
359.13	188	0.01636	0.00101
359.379	187	0.01639	0.00102
359.373	187	0.01646	0.00102
359.638	187	0.01647	0.00102
359.639	187	0.01644	0.00102
359.918	186	0.01654	0.00102
359.919	186	0.01651	0.00102
358.841	258	0.01621	0.001
358.842	257	0.01632	0.00101
359.071	257	0.01618	0.001
359.066	256	0.0162	0.001
359.299	256	0.01611	0.001
359.312	256	0.01615	0.001
359.559	256	0.01628	0.00101
359.566	256	0.01631	0.00101
359.834	255	0.01639	0.00101
359.832	255	0.01638	0.00101
374.588	207	0.01758	0.00109
374.595	206	0.01761	0.00109
374.809	206	0.01763	0.00109
374.807	206	0.01767	0.00109
375.047	205	0.01769	0.00109
375.297	204	0.01791	0.00111
375.299	204	0.0176	0.00109
375.567	202	0.01755	0.00108
374.52	308	0.01738	0.00107
374.534	307	0.01737	0.00107
374.741	306	0.01741	0.00108
374.967	306	0.01752	0.00108
374.971	305	0.0175	0.00108
375.207	304	0.01741	0.00108
375.205	304	0.01738	0.00107
375.472	303	0.01756	0.00108
375.477	303	0.01757	0.00109
374.495	377	0.01734	0.00107
374.485	376	0.01734	0.00107
374.695	376	0.01733	0.00107
374.7	376	0.01734	0.00107
374.917	375	0.01742	0.00108
374.917	374	0.01739	0.00107
375.152	374	0.01735	0.00107
375.149	373	0.01743	0.00108
375.4	373	0.01755	0.00108
375.4	372	0.01754	0.00108
388.619	257	0.01852	0.00114
388.815	257	0.01868	0.00115
388.821	256	0.01825	0.00113
389.04	256	0.01865	0.00115
389.052	256	0.01868	0.00115
389.256	256	0.01862	0.00115
389.274	255	0.0187	0.00115
389.499	254	0.01874	0.00116
389.506	255	0.01838	0.00113
388.534	395	0.01832	0.00113
388.722	394	0.01847	0.00114
388.731	395	0.01843	0.00114
388.931	394	0.01809	0.00112
388.928	394	0.01843	0.00114
389.152	395	0.01856	0.00115
389.377	396	0.01859	0.00115
389.384	397	0.01856	0.00115
388.49	516	0.01836	0.00113
388.683	516	0.01848	0.00114
388.671	515	0.01836	0.00113
388.869	514	0.01853	0.00114
389.08	515	0.01859	0.00115
389.29	514	0.01867	0.00115
389.291	513	0.01867	0.00115
388.766	619	0.01829	0.00113
388.788	619	0.0182	0.00112
388.975	619	0.01836	0.00113
388.984	619	0.01835	0.00113
389.193	619	0.01856	0.00115
389.19	619	0.01854	0.00114
402.924	307	0.01967	0.00121
403.116	307	0.01974	0.00122
403.116	306	0.01974	0.00122
403.337	306	0.01976	0.00122
403.353	306	0.01972	0.00122
403.575	305	0.01974	0.00122
403.566	305	0.01978	0.00122
403.806	305	0.01987	0.00123
403.809	305	0.01988	0.00123
402.867	448	0.01962	0.00121
402.871	447	0.01955	0.00121
403.074	447	0.01962	0.00121
403.08	446	0.01959	0.00121
403.283	445	0.01961	0.00121
403.295	445	0.01958	0.00121
403.515	444	0.01967	0.00121
403.537	443	0.01965	0.00121
403.753	442	0.01972	0.00122
403.758	442	0.01971	0.00122
402.815	609	0.01955	0.00121
402.809	608	0.01959	0.00121
403.004	607	0.01962	0.00121
403.002	607	0.01975	0.00122
403.21	606	0.01981	0.00122
403.203	605	0.01971	0.00122
403.41	605	0.01984	0.00122
403.418	604	0.01984	0.00122
403.628	603	0.01991	0.00123
403.639	602	0.01991	0.00123
402.738	748	0.01986	0.00123
402.735	747	0.01986	0.00123
402.923	746	0.01998	0.00123
402.908	746	0.01994	0.00123
403.099	745	0.02014	0.00124
403.099	744	0.02004	0.00124
403.328	744	0.02022	0.00125
403.338	743	0.02024	0.00125
403.532	742	0.02037	0.00126
403.531	742	0.02041	0.00126
402.686	835	0.02007	0.00124
402.68	835	0.02013	0.00124
402.869	836	0.02025	0.00125
402.878	836	0.0203	0.00125
403.054	836	0.02051	0.00126
403.06	836	0.02049	0.00126
403.253	836	0.02071	0.00128
403.255	837	0.02072	0.00128
417.556	372	0.02094	0.00129
417.761	372	0.0209	0.00129
417.756	371	0.02099	0.00129
417.949	370	0.02093	0.00129
417.953	369	0.02101	0.00129
418.163	369	0.02096	0.00129
418.164	367	0.02097	0.00129
418.457	367	0.02103	0.0013
418.472	366	0.02102	0.0013
417.413	597	0.02073	0.00128
417.427	595	0.02069	0.00128
417.612	594	0.02078	0.00128
417.603	591	0.02077	0.00128
417.817	589	0.02086	0.00129
418.048	588	0.02096	0.00129
418.288	587	0.02094	0.00129
418.302	587	0.02092	0.00129
417.335	791	0.02134	0.00132
417.33	788	0.02096	0.00129
417.502	788	0.02105	0.0013
417.501	788	0.02104	0.0013
417.697	788	0.02117	0.00131
417.675	785	0.02107	0.0013
417.881	785	0.02124	0.00131
418.077	784	0.02089	0.00129
417.287	996	0.02211	0.00136
417.287	996	0.02184	0.00135
417.452	995	0.022	0.00136
417.664	995	0.02218	0.00138
417.651	994	0.02218	0.00137
417.84	994	0.02265	0.0014
417.849	994	0.02241	0.00139
416.872	1131	0.02258	0.00075
417.005	1132	0.02284	0.00076
417.009	1132	0.02288	0.00076
417.166	1132	0.02232	0.00074
416.959	1022	0.02164	0.00073
416.966	1022	0.02164	0.00073
417.106	1022	0.02183	0.00073
417.112	1023	0.02181	0.00073
417.277	1023	0.02198	0.00073
417.277	1023	0.02197	0.00073
417.426	1024	0.02226	0.00074
417.432	1024	0.02228	0.00074
417.599	1024	0.0225	0.00075
433.506	377	0.02227	0.00137
433.505	375	0.02215	0.00136
433.701	375	0.02227	0.00137
433.702	374	0.02216	0.00136
433.894	373	0.02231	0.00137
433.904	373	0.02227	0.00137
434.121	372	0.02229	0.00137
434.125	372	0.02228	0.00137
434.328	371	0.02233	0.00137
434.349	371	0.02232	0.00137
433.534	655	0.02205	0.00136
433.531	654	0.02193	0.00135
433.723	652	0.02204	0.00136
433.742	651	0.02205	0.00136
433.937	649	0.02204	0.00136
433.938	648	0.02211	0.00136
434.145	646	0.02214	0.00136
434.144	645	0.02216	0.00136
433.279	922	0.02221	0.00137
433.432	922	0.02216	0.00136
433.441	922	0.02224	0.00137
433.6	922	0.02237	0.00138
433.785	922	0.02242	0.00138
433.956	922	0.02254	0.00139
433.975	922	0.02253	0.00139
433.209	1138	0.02265	0.00075
433.21	1138	0.02278	0.00075
433.354	1138	0.02299	0.00076
433.372	1138	0.02295	0.00076
433.525	1139	0.02308	0.00077
433.521	1139	0.02311	0.00077
433.697	1140	0.02335	0.00077
433.693	1141	0.02332	0.00077
433.869	1141	0.02354	0.00078
433.88	1141	0.02356	0.00078
432.878	1297	0.02344	0.00079
432.882	1298	0.02358	0.00079
432.994	1298	0.02366	0.00079
433.004	1299	0.02363	0.00079
433.143	1300	0.02391	0.00081
433.24	1299	0.02422	0.00082
433.271	1298	0.02415	0.00082
432.418	1424	0.02465	0.00153
432.428	1423	0.02466	0.00153
432.521	1423	0.0248	0.00155
432.526	1423	0.02469	0.00154
432.632	1422	0.02518	0.00157
432.723	1422	0.02498	0.00156
432.551	1420	0.0244	0.00152
432.544	1420	0.02444	0.00152
432.65	1419	0.02476	0.00155
432.651	1419	0.02477	0.00155
432.769	1419	0.02504	0.00156
432.769	1418	0.02496	0.00155
432.879	1418	0.02521	0.00156
432.134	1545	0.02726	0.00174
432.198	1545	0.02732	0.00171
432.255	1546	0.02765	0.00175
432.263	1546	0.0279	0.00177
432.183	1546	0.02748	0.00172
432.245	1546	0.02765	0.00175
432.241	1546	0.02788	0.00178

System: dodecafluoro-2-methylpentan-3-one; phases: Liquid
Property: Thermal conductivity, W/m/K (Liquid); method: THOTW
Temperature, K	Pressure, kPa	Thermal conductivity, W/m/K	uncertainty
301.356	186	0.05707	0.00118
301.373	186	0.05699	0.00118
301.627	186	0.05695	0.00118
301.633	185	0.05695	0.00118
301.897	185	0.05689	0.00118
301.906	185	0.05664	0.00117
302.183	185	0.05684	0.00118
302.189	184	0.05683	0.00118
302.481	184	0.05681	0.00118
302.49	184	0.05679	0.00118
301.412	182	0.057	0.00118
301.417	181	0.05699	0.00118
301.665	181	0.05696	0.00118
301.67	181	0.05695	0.00118
301.929	181	0.05689	0.00118
301.932	181	0.05687	0.00118
302.208	181	0.05683	0.00118
302.211	181	0.05685	0.00118
302.501	181	0.05679	0.00118
302.5	181	0.05678	0.00118
301.54	121	0.05731	0.00119
301.541	121	0.05707	0.00118
301.777	121	0.05702	0.00118
301.778	121	0.05701	0.00118
302.03	121	0.05696	0.00118
302.028	121	0.05696	0.00118
302.295	121	0.057	0.00118
302.288	121	0.05692	0.00118
302.571	121	0.05687	0.00118
302.573	121	0.05695	0.00118
301.433	4517	0.05911	0.00122
301.432	4512	0.0591	0.00122
301.667	4513	0.05926	0.00122
301.659	4510	0.05903	0.00122
301.907	4509	0.059	0.00122
301.941	4507	0.05898	0.00122
302.202	4509	0.05896	0.00122
302.197	4505	0.05895	0.00122
302.471	4505	0.05889	0.00122
302.464	4504	0.05889	0.00122
301.39	9943	0.06137	0.00127
301.384	9940	0.06178	0.00128
301.613	9935	0.06132	0.00127
301.611	9939	0.0613	0.00127
301.845	9941	0.06128	0.00127
301.851	9948	0.06126	0.00127
302.099	9951	0.06119	0.00126
302.087	9944	0.06121	0.00126
302.353	9940	0.06118	0.00126
302.349	9934	0.0612	0.00126
301.322	15647	0.06353	0.00131
301.315	15646	0.06353	0.00131
301.538	15641	0.06381	0.00132
301.54	15643	0.06352	0.00131
301.761	15639	0.06344	0.00131
301.766	15644	0.06346	0.00131
302.013	15646	0.06342	0.00131
302.011	15644	0.06317	0.0013
302.265	15648	0.06339	0.00131
302.267	15647	0.06339	0.00131
301.27	22366	0.06588	0.00136
301.27	22365	0.06588	0.00136
301.481	22365	0.06549	0.00135
301.487	22364	0.06585	0.00136
301.713	22368	0.06584	0.00136
301.715	22368	0.06583	0.00136
301.949	22372	0.06576	0.00136
301.955	22377	0.06549	0.00135
302.199	22378	0.06574	0.00136
302.201	22376	0.06575	0.00136
301.259	29951	0.06831	0.00141
301.259	29959	0.06831	0.00141
301.463	29951	0.06828	0.00141
301.467	29958	0.0683	0.00141
301.687	29958	0.06828	0.00141
301.686	29956	0.06826	0.00141
301.913	29959	0.06823	0.00141
301.916	29958	0.06824	0.00141
302.154	29954	0.06819	0.0014
302.155	29954	0.0682	0.0014
301.233	38570	0.07088	0.00146
301.232	38563	0.07045	0.00145
301.437	38562	0.07087	0.00146
301.434	38558	0.0709	0.00146
301.648	38555	0.07081	0.00146
301.647	38556	0.07081	0.00146
301.865	38555	0.07047	0.00145
301.867	38549	0.07078	0.00146
302.1	38544	0.07073	0.00146
302.105	38546	0.07074	0.00146
301.207	48059	0.07348	0.00151
301.204	48052	0.07348	0.00151
301.398	48041	0.07342	0.00151
301.399	48039	0.0735	0.00151
301.601	48035	0.07339	0.00151
301.603	48023	0.07341	0.00151
301.817	48021	0.07338	0.00151
301.816	48012	0.07336	0.00151
302.043	48005	0.07334	0.00151
302.045	48000	0.07334	0.00151
301.16	59421	0.07635	0.00157
301.164	59412	0.07633	0.00157
301.348	59405	0.07636	0.00157
301.345	59394	0.07632	0.00157
301.54	59392	0.07615	0.00156
301.544	59383	0.07629	0.00157
301.748	59380	0.07624	0.00157
301.745	59377	0.07624	0.00157
301.968	59377	0.07622	0.00157
301.968	59371	0.07623	0.00157
301.116	68619	0.07853	0.00161
301.117	68548	0.07848	0.00161
301.296	68477	0.07847	0.00161
301.29	68411	0.07844	0.00161
301.485	68338	0.07849	0.00161
301.5	68274	0.07839	0.00161
301.7	68201	0.07832	0.00161
301.694	68130	0.07843	0.00161
301.914	68063	0.07829	0.00161
301.913	67990	0.07824	0.00161
329.972	177	0.05208	0.00108
329.968	178	0.05208	0.00108
330.219	178	0.05205	0.00108
330.211	178	0.05173	0.00107
330.46	179	0.052	0.00108
330.467	179	0.05202	0.00108
330.73	179	0.05196	0.00108
330.73	179	0.05197	0.00108
331.009	179	0.05176	0.00107
331.009	179	0.05194	0.00108
329.992	180	0.05206	0.00108
329.987	180	0.05206	0.00108
330.229	180	0.05206	0.00108
330.237	180	0.05202	0.00108
330.481	180	0.05201	0.00108
330.481	181	0.052	0.00108
330.73	181	0.05196	0.00108
330.73	181	0.05215	0.00108
331.006	180	0.05194	0.00108
331.014	181	0.05193	0.00108
329.91	4467	0.05452	0.00113
329.913	4470	0.05445	0.00113
330.147	4473	0.05441	0.00113
330.144	4470	0.05444	0.00113
330.387	4469	0.0544	0.00113
330.384	4468	0.05439	0.00113
330.636	4463	0.05433	0.00113
330.635	4467	0.05435	0.00113
330.912	4465	0.05432	0.00113
330.909	4465	0.0543	0.00113
329.874	8621	0.05651	0.00117
329.863	8619	0.05649	0.00117
330.098	8617	0.05649	0.00117
330.098	8619	0.0565	0.00117
330.33	8620	0.05647	0.00117
330.326	8610	0.05657	0.00117
330.577	8615	0.0564	0.00117
330.578	8617	0.05641	0.00117
330.836	8608	0.05637	0.00117
330.837	8609	0.05639	0.00117
329.802	14125	0.05898	0.00122
329.799	14126	0.05901	0.00122
330.01	14129	0.05898	0.00122
330.015	14125	0.05895	0.00122
330.242	14124	0.05892	0.00122
330.237	14130	0.05892	0.00122
330.475	14128	0.05889	0.00122
330.483	14134	0.05891	0.00122
330.731	14130	0.05885	0.00122
330.735	14134	0.0589	0.00122
329.743	20516	0.0619	0.00128
329.743	20518	0.0616	0.00127
329.948	20523	0.06156	0.00127
329.942	20524	0.06153	0.00127
330.163	20518	0.06149	0.00127
330.161	20517	0.06186	0.00128
330.392	20517	0.06147	0.00127
330.396	20518	0.06147	0.00127
330.631	20513	0.06146	0.00127
330.636	20514	0.06146	0.00127
329.684	27946	0.0643	0.00133
329.681	27945	0.06427	0.00133
329.874	27941	0.06427	0.00133
329.88	27942	0.06429	0.00133
330.091	27945	0.06429	0.00133
330.089	27942	0.06426	0.00133
330.311	27943	0.06422	0.00132
330.306	27940	0.06422	0.00132
330.538	27944	0.06418	0.00132
330.534	27942	0.0642	0.00132
329.63	36735	0.06721	0.00138
329.634	36730	0.06726	0.00139
329.821	36730	0.0673	0.00139
329.817	36726	0.06718	0.00138
330.022	36720	0.06721	0.00138
330.02	36718	0.0672	0.00138
330.231	36715	0.06712	0.00138
330.233	36712	0.06716	0.00138
330.454	36716	0.06714	0.00138
330.45	36702	0.06713	0.00138
329.565	46614	0.07022	0.00145
329.562	46607	0.07024	0.00145
329.739	46598	0.07033	0.00145
329.742	46602	0.07022	0.00145
329.937	46601	0.07018	0.00144
329.935	46588	0.07021	0.00144
330.138	46583	0.07015	0.00144
330.143	46576	0.07022	0.00145
330.353	46569	0.07013	0.00144
330.351	46566	0.07011	0.00144
329.486	57474	0.07325	0.00151
329.484	57461	0.0733	0.00151
329.657	57448	0.07322	0.00151
329.679	57441	0.07323	0.00151
329.864	57423	0.07327	0.00151
329.86	57414	0.07321	0.00151
330.057	57404	0.07318	0.0015
330.058	57396	0.07315	0.0015
330.265	57385	0.07314	0.0015
330.262	57370	0.07313	0.0015
329.432	67830	0.07595	0.00156
329.428	67798	0.07589	0.00156
329.602	67790	0.07593	0.00156
329.602	67772	0.07593	0.00156
329.802	67755	0.07593	0.00156
329.805	67741	0.07589	0.00156
329.999	67724	0.07584	0.00156
329.993	67709	0.0759	0.00156
330.198	67695	0.07583	0.00156
330.191	67678	0.07583	0.00156
359.29	352	0.04741	0.00099
359.284	352	0.04735	0.00099
359.527	352	0.04692	0.00098
359.521	352	0.04737	0.00099
359.78	352	0.0473	0.00099
359.78	352	0.04737	0.00099
360.046	352	0.04729	0.00099
360.051	352	0.0475	0.00099
360.329	352	0.0473	0.00099
360.33	352	0.04729	0.00099
359.274	352	0.04733	0.00099
359.275	352	0.04736	0.00099
359.52	353	0.04735	0.00099
359.517	352	0.04738	0.00099
359.776	353	0.0473	0.00099
359.771	353	0.04733	0.00099
360.039	353	0.0473	0.00099
360.034	353	0.0473	0.00099
360.326	353	0.04728	0.00098
360.319	353	0.0473	0.00099
359.191	3419	0.04955	0.00103
359.189	3417	0.04968	0.00103
359.42	3418	0.04952	0.00103
359.416	3419	0.04953	0.00103
359.669	3420	0.04948	0.00103
359.669	3421	0.04951	0.00103
359.928	3420	0.04957	0.00103
359.916	3418	0.04946	0.00103
360.195	3421	0.04947	0.00103
360.189	3417	0.04945	0.00103
359.144	7110	0.05179	0.00108
359.139	7109	0.05182	0.00108
359.366	7108	0.05182	0.00108
359.362	7099	0.0518	0.00108
359.6	7096	0.05174	0.00107
359.601	7098	0.05175	0.00107
359.852	7099	0.05171	0.00107
359.847	7097	0.05177	0.00107
360.107	7096	0.05168	0.00107
360.114	7097	0.0517	0.00107
359.075	11964	0.05443	0.00113
359.073	11965	0.05441	0.00113
359.292	11964	0.05442	0.00113
359.291	11963	0.05419	0.00112
359.518	11964	0.05441	0.00113
359.514	11963	0.05441	0.00113
359.759	11965	0.05435	0.00113
359.75	11967	0.05434	0.00113
360.007	11965	0.05404	0.00112
359.994	11963	0.05432	0.00113
359.015	17992	0.05723	0.00118
359.216	17993	0.05729	0.00119
359.224	17993	0.05726	0.00118
359.438	17994	0.05721	0.00118
359.438	18001	0.05746	0.00119
359.667	18004	0.05719	0.00118
359.661	18006	0.0572	0.00118
359.895	18005	0.05715	0.00118
359.899	18006	0.05719	0.00118
358.919	24958	0.06023	0.00124
358.922	24957	0.06017	0.00124
359.137	24956	0.06017	0.00124
359.13	24956	0.06016	0.00124
359.341	24951	0.06017	0.00124
359.333	24951	0.06022	0.00124
359.554	24949	0.06011	0.00124
359.547	24946	0.06014	0.00124
359.777	24942	0.06009	0.00124
359.779	24941	0.06008	0.00124
358.826	33615	0.06347	0.00131
358.844	33614	0.06347	0.00131
359.027	33605	0.06342	0.00131
359.022	33597	0.06346	0.00131
359.227	33591	0.06345	0.00131
359.223	33590	0.06336	0.00131
359.43	33582	0.06336	0.00131
359.421	33575	0.06335	0.00131
359.64	33572	0.06333	0.00131
359.635	33565	0.06333	0.00131
358.773	43876	0.06686	0.00138
358.77	43866	0.06694	0.00138
358.95	43862	0.06691	0.00138
358.952	43858	0.06694	0.00138
359.14	43855	0.06693	0.00138
359.138	43845	0.06681	0.00138
359.323	43840	0.06681	0.00138
359.337	43843	0.06687	0.00138
359.543	43830	0.06684	0.00138
359.537	43829	0.06685	0.00138
358.69	56160	0.07055	0.00145
358.685	56156	0.07064	0.00145
358.854	56137	0.07063	0.00145
358.877	56124	0.07064	0.00145
359.048	56112	0.07057	0.00145
359.047	56095	0.07054	0.00145
359.235	56086	0.07061	0.00145
359.236	56073	0.07065	0.00145
359.436	56060	0.07057	0.00145
359.432	56047	0.07056	0.00145
358.651	67979	0.07391	0.00152
358.657	67960	0.07383	0.00152
358.822	67930	0.07402	0.00152
358.818	67912	0.07388	0.00152
358.989	67897	0.07388	0.00152
358.991	67877	0.0739	0.00152
359.166	67856	0.07389	0.00152
359.163	67834	0.07385	0.00152
359.362	67822	0.07392	0.00152
359.349	67807	0.07425	0.00153
389.844	669	0.04282	0.0009
389.841	669	0.04287	0.0009
390.062	669	0.0428	0.0009
390.278	669	0.04276	0.00089
390.28	669	0.04278	0.0009
390.523	669	0.04282	0.0009
390.518	669	0.04283	0.0009
390.779	669	0.04304	0.0009
390.765	669	0.04287	0.0009
389.652	670	0.04282	0.0009
389.645	670	0.04285	0.0009
389.848	670	0.0428	0.0009
389.854	670	0.04285	0.0009
390.057	670	0.04284	0.0009
390.058	670	0.04279	0.0009
390.288	670	0.04279	0.0009
390.285	670	0.04277	0.00089
390.53	670	0.04282	0.0009
390.527	670	0.04286	0.0009
389.768	2810	0.04491	0.00094
389.762	2811	0.04489	0.00094
389.967	2812	0.04492	0.00094
389.962	2811	0.04493	0.00094
390.183	2812	0.04486	0.00094
390.187	2812	0.04487	0.00094
390.419	2814	0.04483	0.00094
390.415	2815	0.04488	0.00094
390.66	2816	0.04487	0.00094
390.659	2817	0.04488	0.00094
389.74	5608	0.04712	0.00098
389.939	5610	0.04715	0.00098
389.946	5610	0.04716	0.00098
390.148	5609	0.04709	0.00098
390.15	5609	0.04706	0.00098
390.366	5610	0.04711	0.00098
390.369	5611	0.04706	0.00098
390.604	5609	0.04709	0.00098
390.574	5608	0.04706	0.00098
389.644	9504	0.04979	0.00104
389.638	9501	0.04974	0.00103
389.826	9503	0.04976	0.00103
389.828	9502	0.0497	0.00103
390.03	9500	0.04976	0.00103
390.034	9503	0.04976	0.00103
390.249	9501	0.04969	0.00103
390.243	9499	0.04963	0.00103
390.464	9500	0.04968	0.00103
390.463	9497	0.04961	0.00103
389.581	14725	0.05279	0.0011
389.585	14726	0.05278	0.0011
389.748	14721	0.0528	0.0011
389.756	14719	0.05276	0.00109
389.955	14717	0.05274	0.00109
389.96	14717	0.05275	0.00109
390.158	14712	0.05268	0.00109
390.152	14714	0.05264	0.00109
390.363	14712	0.05264	0.00109
390.36	14714	0.05262	0.00109
389.538	21442	0.05607	0.00116
389.534	21435	0.05599	0.00116
389.7	21438	0.05608	0.00116
389.699	21439	0.05607	0.00116
389.874	21435	0.05603	0.00116
390.065	21436	0.056	0.00116
390.057	21434	0.05598	0.00116
390.255	21437	0.05589	0.00116
390.264	21435	0.05593	0.00116
389.475	29881	0.05966	0.00123
389.63	29871	0.05964	0.00123
389.635	29870	0.05967	0.00123
389.787	29871	0.0597	0.00123
389.803	29864	0.05959	0.00123
389.974	29862	0.05955	0.00123
389.966	29861	0.05954	0.00123
390.164	29857	0.0595	0.00123
390.154	29850	0.0595	0.00123
389.419	40406	0.06374	0.00131
389.418	40396	0.06362	0.00131
389.565	40384	0.06363	0.00131
389.558	40379	0.06355	0.00131
389.716	40368	0.0636	0.00131
389.725	40356	0.06359	0.00131
389.885	40347	0.06347	0.00131
389.883	40337	0.06356	0.00131
390.063	40336	0.06349	0.00131
390.065	40331	0.0635	0.00131
389.311	53833	0.06806	0.0014
389.308	53809	0.06794	0.0014
389.51	53794	0.06804	0.0014
389.505	53787	0.06829	0.00141
389.652	53766	0.06802	0.0014
389.656	53751	0.06802	0.0014
389.801	53730	0.06799	0.0014
389.809	53715	0.06798	0.0014
389.971	53707	0.06846	0.00141
389.973	53688	0.06792	0.0014
389.309	67979	0.0723	0.00149
389.302	67954	0.07227	0.00149
389.43	67923	0.07209	0.00149
389.431	67897	0.07231	0.00149
389.574	67877	0.0722	0.00148
389.571	67853	0.07219	0.00149
389.72	67826	0.07217	0.00148
389.719	67805	0.07218	0.00148
389.873	67783	0.07218	0.00148
389.875	67759	0.07209	0.00148
416.352	1171	0.03902	0.00082
416.347	1171	0.03885	0.00082
416.506	1171	0.03892	0.00082
416.514	1171	0.03904	0.00082
416.678	1170	0.0389	0.00082
416.67	1170	0.03901	0.00082
416.862	1170	0.03904	0.00082
416.874	1170	0.03905	0.00082
417.071	1170	0.03917	0.00082
416.784	2205	0.04062	0.00085
416.792	2206	0.04049	0.00085
416.97	2207	0.04051	0.00085
416.957	2206	0.04045	0.00085
417.15	2206	0.04048	0.00085
417.128	2206	0.04049	0.00085
417.331	2205	0.04065	0.00085
417.336	2205	0.0406	0.00085
417.528	2206	0.04059	0.00085
417.534	2204	0.04067	0.00085
417.082	3784	0.04234	0.00089
417.082	3783	0.04192	0.00088
417.28	3783	0.04235	0.00089
417.279	3784	0.04243	0.00089
417.491	3785	0.04236	0.00089
417.477	3782	0.04235	0.00089
417.7	3782	0.04218	0.00088
417.697	3782	0.04238	0.00089
417.932	3784	0.04244	0.00089
417.931	3782	0.04241	0.00089
417.016	6421	0.04518	0.00094
417.039	6421	0.0448	0.00094
417.21	6422	0.04496	0.00094
417.22	6424	0.04481	0.00094
417.396	6422	0.04487	0.00094
417.405	6421	0.0453	0.00095
417.624	6421	0.0448	0.00094
417.608	6424	0.04484	0.00094
417.825	6421	0.0448	0.00094
417.838	6421	0.04481	0.00094
416.975	10573	0.04835	0.00101
416.976	10595	0.04788	0.001
417.152	10596	0.04784	0.001
417.133	10587	0.0479	0.001
417.32	10584	0.04786	0.001
417.323	10582	0.04781	0.001
417.52	10593	0.04792	0.001
417.517	10594	0.04785	0.001
417.727	10592	0.04786	0.001
417.715	10585	0.04785	0.001
416.884	16295	0.0514	0.00107
416.898	16292	0.05129	0.00107
417.056	16299	0.05141	0.00107
417.058	16291	0.05136	0.00107
417.231	16286	0.05137	0.00107
417.221	16290	0.05134	0.00107
417.39	16280	0.05131	0.00107
417.598	16284	0.05126	0.00106
417.594	16285	0.05128	0.00107
416.801	24840	0.05568	0.00115
416.808	24844	0.05562	0.00115
416.961	24851	0.05549	0.00115
416.962	24868	0.05555	0.00115
417.11	24870	0.05563	0.00115
417.122	24862	0.05569	0.00115
417.279	24856	0.0557	0.00115
417.28	24853	0.0557	0.00115
417.461	24856	0.05553	0.00115
417.459	24868	0.05553	0.00115
416.97	35765	0.06009	0.00124
416.96	35761	0.06013	0.00124
417.114	35760	0.06018	0.00124
417.111	35758	0.06018	0.00124
417.276	35756	0.06019	0.00124
417.28	35752	0.06016	0.00124
417.437	35746	0.06008	0.00124
417.427	35735	0.06006	0.00124
417.59	35701	0.06019	0.00124
417.59	35671	0.06014	0.00124
416.813	50957	0.06585	0.00136
416.819	50950	0.06577	0.00136
416.941	50918	0.06559	0.00135
416.945	50897	0.06577	0.00136
417.066	50875	0.06482	0.00135
417.078	50878	0.06554	0.00135
417.227	50866	0.06561	0.00137
417.21	50843	0.06558	0.00135
417.363	50814	0.06551	0.00135
417.37	50821	0.0652	0.00135
432.469	1710	0.03705	0.00079
432.625	1709	0.03738	0.00079
432.628	1709	0.0377	0.0008
432.785	1709	0.03809	0.00081
432.798	1709	0.03764	0.0008
432.95	1709	0.03814	0.00081
432.464	1706	0.03696	0.00079
432.472	1706	0.03707	0.00079
432.567	1705	0.03737	0.00079
432.568	1705	0.03712	0.00079
432.674	1705	0.03805	0.00081
432.684	1705	0.0373	0.00079
432.814	1704	0.03807	0.00081
432.808	1706	0.03761	0.0008
432.46	1978	0.03766	0.0008
432.468	1979	0.03775	0.0008
432.572	1979	0.0379	0.0008
432.558	1978	0.03769	0.00079
432.682	1978	0.03794	0.0008
432.675	1977	0.03782	0.0008
432.8	1977	0.03806	0.0008
432.81	1977	0.03794	0.0008
432.939	1977	0.03807	0.0008
432.934	1976	0.03821	0.00081
432.382	2635	0.0388	0.00082
432.38	2634	0.03887	0.00082
432.518	2633	0.03885	0.00082
432.529	2633	0.03887	0.00082
432.678	2632	0.03891	0.00082
432.679	2631	0.03893	0.00082
432.843	2631	0.03896	0.00082
432.86	2631	0.03897	0.00082
433.038	2631	0.03946	0.00083
433.042	2629	0.03906	0.00082
432.695	3940	0.04069	0.00085
432.692	3940	0.04067	0.00085
432.866	3941	0.04063	0.00085
433.03	3941	0.04082	0.00086
433.05	3942	0.04075	0.00085
433.236	3943	0.04078	0.00086
433.241	3944	0.04039	0.00085
433.446	3945	0.04079	0.00086
433.46	3946	0.04082	0.00086
433.005	6150	0.04309	0.0009
433.017	6152	0.04303	0.0009
433.192	6155	0.04297	0.0009
433.187	6159	0.04336	0.00091
433.394	6163	0.04307	0.0009
433.383	6166	0.04304	0.0009
433.591	6168	0.04309	0.0009
433.588	6172	0.04309	0.0009
433.81	6177	0.04299	0.0009
433.816	6182	0.04309	0.0009
433.117	9670	0.04595	0.00096
433.117	9671	0.04584	0.00096
433.302	9673	0.04596	0.00096
433.311	9675	0.04592	0.00096
433.499	9681	0.04597	0.00096
433.494	9685	0.046	0.00096
433.702	9688	0.04596	0.00096
433.703	9691	0.046	0.00096
433.917	9693	0.04597	0.00096
433.919	9695	0.04596	0.00096
432.997	15091	0.04962	0.00103
433.001	15095	0.04957	0.00103
433.188	15094	0.04947	0.00103
433.164	15084	0.04944	0.00103
433.369	15085	0.04954	0.00103
433.355	15082	0.04913	0.00102
433.547	15079	0.04951	0.00103
433.548	15081	0.04953	0.00103
433.762	15088	0.04948	0.00103
433.756	15091	0.04951	0.00103
432.83	22777	0.05369	0.00111
432.815	22767	0.05368	0.00111
432.977	22754	0.05357	0.00111
433.133	22752	0.05367	0.00111
433.126	22732	0.05371	0.00111
433.302	22710	0.05348	0.00111
433.357	22714	0.0536	0.00111
433.551	22714	0.05356	0.00111
433.548	22699	0.05365	0.00111
432.79	34245	0.05883	0.00122
432.929	34232	0.05866	0.00121
432.932	34243	0.05865	0.00122
433.077	34233	0.05874	0.00122
433.076	34226	0.05871	0.00121
433.242	34211	0.05857	0.00121
433.244	34207	0.05868	0.00121
433.427	34200	0.05865	0.00121
433.407	34187	0.05868	0.00121
432.704	49519	0.06451	0.00133
432.716	49517	0.06454	0.00133
432.84	49505	0.06438	0.00133
432.842	49496	0.06439	0.00133
432.978	49470	0.06431	0.00133
433.125	49466	0.06434	0.00133
433.13	49459	0.06442	0.00133
433.287	49444	0.06433	0.00133
433.28	49421	0.0643	0.00133

System: dodecafluoro-2-methylpentan-3-one; phases: Gas
Property: Thermal conductivity, W/m/K (Gas); method: THOTW
Temperature, K	Pressure, kPa	Thermal conductivity, W/m/K	uncertainty
454.317	354	0.02406	0.00148
454.32	351	0.02402	0.00148
454.499	348	0.02403	0.00148
454.498	345	0.02401	0.00148
454.675	343	0.02408	0.00148
454.677	341	0.02404	0.00148
454.877	340	0.02406	0.00148
454.865	339	0.02408	0.00148
455.08	338	0.02415	0.00149
455.068	337	0.02422	0.00149
454.231	526	0.02368	0.00146
454.261	526	0.02374	0.00146
454.408	526	0.02369	0.00146
454.413	524	0.02367	0.00146
454.577	524	0.02372	0.00146
454.6	523	0.02364	0.00145
454.781	524	0.02371	0.00146
454.786	524	0.02372	0.00146
454.978	523	0.02378	0.00146
454.977	523	0.02375	0.00146
454.15	782	0.02353	0.00145
454.167	779	0.02342	0.00144
454.326	781	0.02352	0.00145
454.49	780	0.02364	0.00145
454.5	779	0.02369	0.00146
454.682	778	0.02361	0.00145
454.673	776	0.0236	0.00145
454.855	776	0.02365	0.00146
454.869	774	0.02365	0.00146
453.909	1365	0.02445	0.00081
453.922	1364	0.02439	0.00081
454.069	1364	0.02449	0.00081
454.071	1365	0.02446	0.00081
454.197	1365	0.0246	0.00081
454.207	1366	0.02448	0.00081
454.359	1365	0.02461	0.00081
454.382	1365	0.02468	0.00081
454.544	1365	0.02476	0.00082
453.815	1718	0.02631	0.00087
453.94	1719	0.02663	0.00164
453.943	1718	0.02654	0.00163
454.072	1718	0.02688	0.00166
454.075	1718	0.02682	0.00165
453.562	1718	0.02564	0.0016
453.583	1718	0.02573	0.0016
453.673	1718	0.02603	0.0016
453.679	1718	0.02589	0.0016
453.751	1718	0.02601	0.0016
453.756	1718	0.02605	0.0016
453.881	1718	0.02616	0.00161
453.885	1718	0.02618	0.00161
453.339	1996	0.03032	0.00187
453.356	1997	0.02939	0.00181
453.416	1998	0.02991	0.00184
453.422	1998	0.02978	0.00184
453.522	1999	0.03046	0.00189
453.035	2137	0.03326	0.00206
452.999	2137	0.033	0.00209
453.166	2136	0.03394	0.00209
453.172	2136	0.03367	0.00207
453.222	2136	0.03435	0.00211
453.21	2136	0.03328	0.00205
453.039	2213	0.0384	0.00237
453.059	2213	0.03787	0.00232
452.936	2214	0.03736	0.0023
452.984	2213	0.03655	0.00225
453	2214	0.0364	0.00224
453.037	2213	0.03766	0.00232
453.028	2213	0.03832	0.00236
453.085	2213	0.03857	0.00237
453.076	2213	0.03787	0.00232
452.911	2283	0.03823	0.00235
452.965	2283	0.03736	0.00232
452.992	2283	0.03849	0.00236
453.003	2283	0.03799	0.00233
453.06	2283	0.039	0.00239
452.99	2349	0.03688	0.00226
453.01	2349	0.03694	0.00227
453.04	2349	0.03749	0.0023
453.09	2350	0.03794	0.00233
453.094	2350	0.03775	0.00232
453.143	2350	0.03841	0.00236
453.144	2350	0.03851	0.00236
453.008	2431	0.0358	0.00089
453.027	2432	0.03591	0.00087
453.048	2432	0.03632	0.00086
453.067	2432	0.03565	0.00085
453.114	2432	0.03612	0.00087
453.113	2432	0.03616	0.00087
453.169	2432	0.03641	0.00086
453.162	2433	0.03632	0.00087
453.219	2432	0.03662	0.00087
453.234	2433	0.03706	0.00088
453.11	2570	0.03577	0.00085
453.106	2570	0.03583	0.00085
453.149	2570	0.0359	0.00085
453.219	2570	0.03586	0.00085
453.21	2570	0.03619	0.00086
453.277	2570	0.03618	0.00086
453.287	2570	0.03626	0.00086
453.334	2570	0.03666	0.00088
453.357	2570	0.03639	0.00087
453.108	2808	0.03624	0.00086
453.111	2808	0.03614	0.00086
453.17	2808	0.03589	0.00085
453.216	2810	0.03611	0.00086
453.229	2810	0.03619	0.00086
453.296	2810	0.03661	0.00087
453.285	2810	0.03632	0.00086
453.355	2811	0.03631	0.00086
453.214	3283	0.03693	0.00088
453.215	3282	0.03735	0.00089
453.272	3283	0.03745	0.00089
453.339	3284	0.03709	0.00088
453.332	3284	0.03713	0.00088
453.411	3285	0.03741	0.00089
453.4	3286	0.03741	0.00089
453.478	3286	0.03719	0.00088
453.287	4172	0.03871	0.00092
453.294	4174	0.03872	0.00092
453.394	4177	0.03877	0.00092
453.494	4182	0.03866	0.00092
453.501	4184	0.03869	0.00092
453.617	4187	0.03872	0.00092
453.602	4188	0.03889	0.00092
453.725	4189	0.03831	0.00091
453.734	4192	0.03871	0.00092
453.195	5686	0.04064	0.00096
453.337	5680	0.0407	0.00097
453.339	5678	0.04058	0.00096
453.477	5676	0.04078	0.00097
453.487	5674	0.04064	0.00096
453.633	5671	0.04054	0.00096
453.63	5670	0.04057	0.00096
453.796	5666	0.0408	0.00097
453.274	5649	0.04057	0.00096
453.257	5649	0.04056	0.00096
453.404	5646	0.04064	0.00096
453.408	5645	0.04067	0.00096
453.538	5643	0.04051	0.00096
453.692	5641	0.04062	0.00096
453.701	5640	0.04066	0.00096
453.867	5638	0.0407	0.00097
453.234	8482	0.04362	0.00104
453.236	8482	0.04354	0.00103
453.37	8482	0.04354	0.00103
453.375	8480	0.0435	0.00103
453.492	8479	0.04353	0.00103
453.506	8480	0.04354	0.00103
453.657	8479	0.04348	0.00103
453.638	8480	0.04343	0.00103
453.803	8477	0.04345	0.00103
453.816	8478	0.0434	0.00103
453.404	13124	0.04703	0.00112
453.399	13124	0.04697	0.00112
453.53	13124	0.04696	0.00112
453.524	13123	0.04703	0.00112
453.68	13120	0.04693	0.00112
453.681	13121	0.04701	0.00112
453.836	13123	0.04696	0.00112
453.849	13121	0.04695	0.00112
454.023	13121	0.047	0.00112
454.018	13121	0.04696	0.00112
453.46	20262	0.05129	0.00124
453.48	20262	0.05134	0.00124
453.625	20261	0.05127	0.00123
453.622	20264	0.05121	0.00123
453.767	20261	0.05121	0.00123
453.772	20262	0.0513	0.00124
453.935	20259	0.05128	0.00124
453.932	20259	0.05122	0.00123
454.099	20256	0.0513	0.00124
454.101	20256	0.05118	0.00123
453.506	31255	0.05656	0.00138
453.5	31253	0.05652	0.00138
453.644	31251	0.05647	0.00138
453.629	31252	0.05654	0.00138
453.787	31248	0.05653	0.00138
453.782	31246	0.0566	0.00138
453.94	31248	0.05655	0.00138
453.947	31244	0.05645	0.00138
454.096	31244	0.05644	0.00138
454.097	31241	0.05644	0.00138
453.549	47061	0.06271	0.00157
453.663	47049	0.06259	0.00157
453.67	47042	0.06272	0.00157
453.813	47035	0.06264	0.00157
453.955	47020	0.06258	0.00157
453.957	47012	0.06261	0.00157
454.113	47006	0.06269	0.00157
454.154	47000	0.06263	0.00157
453.598	46979	0.06275	0.00157
453.596	46969	0.06282	0.00157
453.725	46969	0.06263	0.00157
453.731	46962	0.06254	0.00157
453.865	46957	0.06253	0.00157
453.876	46954	0.06253	0.00157
454.024	46945	0.06264	0.00157
454.022	46938	0.06262	0.00157
454.181	46933	0.06269	0.00157
454.179	46933	0.06261	0.00157
473.672	429	0.02546	0.00157
473.679	430	0.02555	0.00157
473.821	428	0.02569	0.00158
473.82	427	0.02562	0.00158
473.981	426	0.02562	0.00158
473.987	423	0.02558	0.00157
474.157	421	0.02567	0.00158
474.157	420	0.02565	0.00158
474.32	419	0.0257	0.00158
474.314	419	0.02566	0.00158
473.597	604	0.02513	0.00155
473.608	605	0.02525	0.00155
473.769	607	0.02516	0.00155
473.774	607	0.02531	0.00156
473.943	607	0.02517	0.00155
473.938	608	0.02532	0.00156
474.094	607	0.02539	0.00156
474.09	607	0.02526	0.00155
474.282	606	0.02535	0.00156
474.274	606	0.02536	0.00156
473.547	839	0.02508	0.00154
473.569	840	0.02498	0.00154
473.723	841	0.02507	0.00154
473.71	842	0.02515	0.00155
473.875	841	0.02504	0.00154
473.891	841	0.02504	0.00154
474.041	842	0.02513	0.00155
474.043	842	0.02512	0.00154
474.192	842	0.02519	0.00155
474.201	841	0.0252	0.00155
473.394	1474	0.02551	0.00084
473.506	1475	0.02577	0.00085
473.523	1475	0.02566	0.00084
473.65	1476	0.02571	0.00085
473.661	1476	0.02567	0.00084
473.786	1476	0.02574	0.00085
473.784	1476	0.02572	0.00085
473.957	1476	0.02582	0.00085
473.943	1476	0.02574	0.00085
473.376	1913	0.02688	0.00165
473.38	1913	0.02688	0.00165
473.475	1914	0.027	0.00166
473.458	1913	0.0269	0.00165
473.582	1912	0.02703	0.00166
473.583	1912	0.02697	0.00166
473.713	1912	0.02721	0.00167
473.709	1913	0.02727	0.00168
473.819	1914	0.0274	0.00168
473.815	1914	0.02747	0.00169
473.061	1890	0.02666	0.00164
473.081	1889	0.02628	0.00162
473.149	1888	0.0266	0.00164
473.276	1888	0.02686	0.00165
473.273	1888	0.02674	0.00165
473.387	1887	0.02688	0.00165
473.384	1887	0.02681	0.00165
473.495	1887	0.02709	0.00167
473.489	1887	0.027	0.00166
472.811	2264	0.02846	0.00175
472.811	2265	0.02848	0.00175
472.873	2265	0.02848	0.00175
472.963	2265	0.02876	0.00177
472.974	2265	0.02862	0.00176
473.061	2265	0.02868	0.00176
473.076	2265	0.02867	0.00176
473.163	2265	0.02905	0.00179
473.169	2265	0.0291	0.00179
472.675	2504	0.02998	0.00185
472.668	2504	0.03029	0.00186
472.749	2505	0.03037	0.00187
472.82	2505	0.03067	0.00189
472.821	2505	0.03052	0.00188
472.592	2711	0.03186	0.00196
472.574	2711	0.03198	0.00196
472.631	2711	0.03247	0.00199
472.638	2711	0.03224	0.00198
472.697	2712	0.03222	0.00198
472.702	2711	0.0322	0.00198
472.759	2711	0.03263	0.00201
472.774	2712	0.03232	0.00199
472.827	2712	0.03316	0.00204
472.836	2711	0.03262	0.002
472.512	2894	0.03274	0.00201
472.531	2894	0.034	0.00209
472.592	2894	0.03275	0.00201
472.578	2894	0.03316	0.00204
472.645	2894	0.03315	0.00204
472.636	2894	0.03273	0.00201
472.68	2894	0.03347	0.00206
472.707	2894	0.03401	0.00209
472.767	2894	0.03342	0.00205
472.755	2894	0.0336	0.00206
472.479	3077	0.03434	0.00211
472.488	3077	0.03339	0.00205
472.545	3077	0.03381	0.00208
472.532	3077	0.034	0.00209
472.596	3077	0.03356	0.00206
472.592	3077	0.03373	0.00207
472.646	3077	0.03407	0.00209
472.652	3077	0.03386	0.00208
472.703	3078	0.03422	0.0021
472.702	3078	0.0347	0.00213
472.616	3291	0.03462	0.00082
472.67	3291	0.03475	0.00083
472.67	3291	0.03505	0.00083
472.725	3291	0.03502	0.00083
472.732	3291	0.03525	0.00084
472.777	3291	0.03545	0.00084
472.832	3291	0.03561	0.00085
472.856	3292	0.03541	0.00084
472.739	3604	0.03572	0.00085
472.725	3605	0.036	0.00086
472.78	3605	0.03545	0.00084
472.852	3605	0.03577	0.00085
472.86	3605	0.0358	0.00085
472.927	3605	0.03577	0.00085
472.986	3605	0.03603	0.00086
472.99	3606	0.0358	0.00085
472.696	4062	0.03638	0.00086
472.709	4063	0.03625	0.00086
472.755	4063	0.03659	0.00087
472.769	4063	0.0364	0.00087
472.806	4062	0.03638	0.00086
472.835	4063	0.03659	0.00087
472.907	4063	0.03666	0.00087
472.922	4063	0.03656	0.00087
472.983	4064	0.0367	0.00087
472.962	4064	0.03659	0.00087
472.801	4819	0.03773	0.0009
472.815	4820	0.03801	0.0009
472.879	4820	0.03795	0.0009
472.871	4820	0.03777	0.0009
472.946	4821	0.03782	0.0009
472.939	4821	0.03795	0.0009
473.032	4823	0.038	0.0009
473.007	4823	0.03784	0.0009
473.103	4824	0.03789	0.0009
473.101	4824	0.03779	0.0009
472.988	5939	0.03924	0.00093
473.059	5939	0.03956	0.00094
473.078	5937	0.03959	0.00094
473.142	5937	0.03959	0.00094
473.136	5937	0.03958	0.00094
473.237	5937	0.03993	0.00095
473.22	5937	0.03959	0.00094
473.31	5936	0.03955	0.00094
473.293	5935	0.03933	0.00093
473.187	7819	0.04147	0.00099
473.278	7819	0.0414	0.00098
473.286	7822	0.04164	0.00099
473.329	7818	0.04161	0.00099
473.361	7821	0.04152	0.00099
473.418	7819	0.04151	0.00099
473.437	7822	0.0416	0.00099
473.52	7821	0.04156	0.00099
473.521	7822	0.04146	0.00099
473.458	10827	0.04414	0.00105
473.465	10825	0.04418	0.00105
473.531	10824	0.04374	0.00104
473.554	10823	0.0442	0.00105
473.629	10824	0.04429	0.00106
473.638	10823	0.04414	0.00105
473.737	10822	0.04424	0.00105
473.714	10824	0.04392	0.00105
473.814	10823	0.0442	0.00105
473.807	10823	0.04427	0.00106
473.494	15492	0.04746	0.00114
473.584	15493	0.04744	0.00114
473.6	15489	0.04749	0.00114
473.67	15488	0.04746	0.00114
473.774	15488	0.04755	0.00114
473.778	15486	0.04744	0.00114
473.852	15487	0.04761	0.00114
473.867	15485	0.04754	0.00114
473.391	22521	0.05152	0.00125
473.399	22522	0.05154	0.00125
473.479	22521	0.05152	0.00125
473.547	22519	0.05152	0.00125
473.56	22522	0.05162	0.00125
473.671	22520	0.05153	0.00125
473.751	22523	0.05151	0.00125
473.745	22523	0.05152	0.00125
473.336	33948	0.05717	0.0014
473.334	33947	0.05683	0.0014
473.404	33946	0.05711	0.0014
473.482	33946	0.05688	0.0014
473.473	33946	0.05693	0.0014
473.547	33944	0.05699	0.0014
473.553	33949	0.05683	0.0014
473.624	33950	0.05685	0.0014
473.207	49264	0.06294	0.00158
473.195	49267	0.06278	0.00158
473.262	49266	0.06275	0.00158
473.264	49261	0.06261	0.00157
473.386	49255	0.06285	0.00158
473.375	49255	0.06283	0.00158
473.454	49249	0.06286	0.00158
473.444	49246	0.06304	0.00158
473.53	49248	0.06293	0.00158
473.51	49242	0.0628	0.00158
473.274	49222	0.06278	0.00158
473.269	49223	0.06286	0.00158
473.345	49221	0.06272	0.00158
473.335	49216	0.06307	0.00158
473.394	49215	0.06271	0.00158
473.449	49207	0.06277	0.00158
473.449	49209	0.06279	0.00158
473.486	49134	0.06279	0.00158
499.894	422	0.02757	0.00169
499.9	421	0.02748	0.00169
500.059	419	0.02752	0.00169
500.045	419	0.02753	0.00169
500.197	419	0.02743	0.00169
500.164	419	0.02764	0.0017
500.327	419	0.02775	0.0017
500.338	418	0.02786	0.00171
500.486	417	0.02771	0.0017
500.476	417	0.02764	0.0017
499.831	647	0.02739	0.00168
499.832	646	0.02724	0.00167
499.995	646	0.02728	0.00168
499.978	645	0.02717	0.00167
500.127	645	0.02741	0.00168
500.115	644	0.02715	0.00167
500.284	643	0.02732	0.00168
500.277	643	0.02714	0.00167
500.446	643	0.0272	0.00167
500.425	643	0.02726	0.00168
499.8	869	0.02693	0.00165
499.8	869	0.02695	0.00166
499.932	870	0.02694	0.00166
499.945	869	0.0272	0.00167
500.076	870	0.02705	0.00166
500.077	870	0.02701	0.00166
500.232	871	0.02696	0.00166
500.242	872	0.02702	0.00166
500.399	872	0.02701	0.00166
500.399	874	0.02698	0.00166
499.642	1595	0.0274	0.0009
499.652	1595	0.02712	0.00089
499.765	1595	0.02727	0.0009
499.77	1595	0.0273	0.0009
499.883	1595	0.02725	0.00089
499.884	1594	0.02746	0.0009
500.02	1594	0.02737	0.0009
500.015	1594	0.02714	0.00089
500.147	1594	0.02739	0.0009
500.135	1594	0.02735	0.0009
499.534	2128	0.02828	0.00174
499.655	2128	0.02826	0.00174
499.649	2128	0.0282	0.00173
499.754	2128	0.02829	0.00174
499.881	2128	0.02824	0.00174
499.895	2128	0.02826	0.00174
500.024	2129	0.0285	0.00175
500.013	2129	0.02838	0.00174
499.813	2569	0.0294	0.00181
499.818	2568	0.02959	0.00182
499.914	2567	0.02946	0.00181
500.02	2566	0.0295	0.00181
500.017	2565	0.02947	0.00181
500.141	2565	0.0296	0.00182
500.239	2563	0.02975	0.00183
500.24	2563	0.02983	0.00183
499.671	2953	0.0308	0.00189
499.704	2953	0.03112	0.00191
499.789	2953	0.03092	0.0019
499.803	2952	0.03103	0.00191
499.892	2952	0.03116	0.00191
499.879	2952	0.03099	0.0019
499.999	2952	0.03119	0.00192
499.963	2952	0.03132	0.00192
500.087	2952	0.03151	0.00194
500.101	2952	0.03143	0.00193
499.643	3289	0.03215	0.00197
499.724	3288	0.03208	0.00197
499.739	3288	0.03222	0.00198
499.815	3287	0.0325	0.002
499.81	3287	0.03233	0.00199
499.909	3287	0.03278	0.00201
500	3286	0.03306	0.00203
499.999	3286	0.03284	0.00202
499.599	3614	0.03311	0.00203
499.63	3615	0.03333	0.00205
499.714	3616	0.03339	0.00205
499.697	3616	0.03337	0.00205
499.786	3618	0.03355	0.00206
499.846	3618	0.0337	0.00207
499.883	3619	0.03371	0.00207
499.965	3620	0.0341	0.00209
499.581	3937	0.03408	0.00209
499.662	3937	0.03435	0.00211
499.658	3937	0.03413	0.0021
499.736	3937	0.03429	0.00211
499.809	3936	0.03445	0.00211
499.801	3936	0.03437	0.00211
499.878	3936	0.03462	0.00213
499.886	3936	0.03474	0.00213
499.566	4325	0.0351	0.00215
499.64	4325	0.03518	0.00216
499.634	4324	0.03525	0.00216
499.722	4324	0.03516	0.00216
499.701	4324	0.03528	0.00217
499.788	4324	0.03534	0.00217
499.774	4324	0.03524	0.00216
499.854	4324	0.03554	0.00218
499.86	4325	0.03565	0.00219
499.519	4853	0.03589	0.00085
499.516	4853	0.03595	0.00086
499.58	4853	0.03611	0.00086
499.595	4853	0.036	0.00086
499.653	4853	0.03633	0.00086
499.652	4854	0.03629	0.00086
499.733	4855	0.03606	0.00086
499.732	4855	0.03623	0.00086
499.803	4855	0.03629	0.00086
499.617	5588	0.03699	0.00088
499.626	5589	0.03717	0.00088
499.693	5590	0.03719	0.00089
499.696	5590	0.03721	0.00089
499.778	5592	0.03734	0.00089
499.757	5594	0.03739	0.00089
499.869	5595	0.03732	0.00089
499.842	5595	0.03734	0.00089
499.947	5597	0.03741	0.00089
499.925	6552	0.0387	0.00092
499.924	6555	0.03863	0.00092
500.002	6555	0.03872	0.00092
500.005	6554	0.03863	0.00092
500.08	6554	0.03889	0.00093
500.084	6554	0.03865	0.00092
500.168	6553	0.03885	0.00092
500.184	6551	0.03865	0.00092
500.246	6550	0.0387	0.00092
500.259	6550	0.0388	0.00092
500.175	8283	0.0406	0.00097
500.174	8287	0.04057	0.00097
500.27	8290	0.04063	0.00097
500.268	8294	0.04069	0.00097
500.362	8300	0.04074	0.00097
500.46	8304	0.04072	0.00097
500.462	8307	0.04066	0.00097
500.582	8309	0.04075	0.00097
500.022	8108	0.04041	0.00096
500	8108	0.04046	0.00096
500.082	8107	0.04045	0.00096
500.103	8107	0.04058	0.00097
500.183	8108	0.04052	0.00096
500.172	8107	0.04052	0.00096
500.268	8107	0.04068	0.00097
500.272	8107	0.04066	0.00097
500.367	8107	0.04059	0.00097
500.346	8106	0.0405	0.00096
499.909	10172	0.0425	0.00101
499.922	10173	0.0424	0.00101
499.992	10173	0.04254	0.00101
499.996	10172	0.04249	0.00101
500.067	10171	0.04243	0.00101
500.155	10171	0.04243	0.00101
500.156	10174	0.04246	0.00101
500.245	10172	0.04247	0.00101
500.247	10172	0.04247	0.00101
499.84	13403	0.04494	0.00108
499.831	13400	0.04508	0.00108
499.929	13400	0.04487	0.00107
499.985	13400	0.04504	0.00108
499.989	13402	0.04506	0.00108
500.095	13402	0.04498	0.00108
500.159	13402	0.04495	0.00108
500.171	13401	0.04512	0.00108
499.723	18413	0.04809	0.00116
499.728	18416	0.04833	0.00116
499.842	18418	0.04825	0.00116
499.925	18421	0.04818	0.00116
499.936	18421	0.0482	0.00116
499.99	18421	0.04841	0.00116
500.016	18425	0.0483	0.00116
500.084	18421	0.04829	0.00116
499.709	25604	0.05236	0.00127
499.764	25602	0.05226	0.00127
499.762	25601	0.05218	0.00127
499.846	25604	0.05216	0.00127
499.915	25604	0.05225	0.00127
499.91	25600	0.05221	0.00127
499.972	25604	0.05228	0.00127
499.974	25600	0.05221	0.00127
499.607	35693	0.05695	0.0014
499.619	35696	0.05672	0.0014
499.666	35694	0.05685	0.0014
499.696	35697	0.05683	0.0014
499.746	35689	0.05686	0.0014
499.813	35689	0.05675	0.0014
499.786	35664	0.05692	0.0014
499.851	35654	0.05672	0.0014
499.618	35669	0.057	0.0014
499.635	35672	0.05682	0.0014
499.692	35675	0.05669	0.0014
499.689	35681	0.05715	0.00141
499.746	35673	0.05679	0.0014
499.732	35665	0.05687	0.0014
499.807	35680	0.05678	0.0014
499.817	35681	0.05686	0.0014
499.866	35670	0.05702	0.0014
499.89	35669	0.05673	0.0014
499.504	50295	0.06261	0.00158
499.52	50304	0.06215	0.00157
499.565	50302	0.06239	0.00157
499.57	50305	0.06236	0.00157
499.635	50307	0.06251	0.00158
499.608	50280	0.06265	0.00158
499.703	50292	0.06274	0.00158
499.675	50260	0.06229	0.00157
499.742	50254	0.06235	0.00158
499.746	50278	0.06281	0.00158
499.592	50258	0.06238	0.00157
499.589	50256	0.06271	0.00158
499.643	50259	0.06245	0.00157
499.687	50252	0.06264	0.00158
499.697	50253	0.06228	0.00157
499.76	50255	0.06232	0.00157
499.791	50251	0.06211	0.00156
499.809	50253	0.06239	0.00157
