Measured thermophysical data. Phase Equilibria of the Ternary Systems ZnCl2-MgCl2-H2O and ZnCl2-PbCl2-H2O at 323 K
Source: J. Chem. Eng. Data, 2019, 10.1021/acs.jced.8b00605
Compound 1: zinc chloride, Cl2Zn, InChI=1S/2ClH.Zn/h2*1H;/q;;+2/p-2
Compound 2: magnesium chloride, Cl2Mg, InChI=1S/2ClH.Mg/h2*1H;/q;;+2/p-2
Compound 3: lead(2+) dichloride, Cl2Pb, InChI=1S/2ClH.Pb/h2*1H;/q;;+2/p-2
Compound 4: water, H2O, InChI=1S/H2O/h1H2, purity 99.9%

System: zinc chloride + magnesium chloride + water; phases: Liquid, Crystal of intercomponent compound 1
Fixed: Pressure, kPa = 94.77
Fixed: Temperature, K = 323
Property: Mass fraction of magnesium chloride (Liquid); method: Titration method
Mass fraction of zinc chloride	Mass fraction of magnesium chloride	uncertainty
0	0.3725	0.0038
0.0286	0.3601	0.0037
0.0552	0.3521	0.0036
0.0949	0.3372	0.0035
0.1457	0.3217	0.0033
0.1713	0.3139	0.0032
0.1931	0.3083	0.0032
0.2428	0.3004	0.0031
0.2486	0.3023	0.0031

System: zinc chloride + magnesium chloride + water; phases: Liquid, Crystal of intercomponent compound 2
Fixed: Pressure, kPa = 94.77
Fixed: Temperature, K = 323
Property: Mass fraction of magnesium chloride (Liquid); method: Titration method
Mass fraction of zinc chloride	Mass fraction of magnesium chloride	uncertainty
0.2486	0.3023	0.0032
0.303	0.27	0.003
0.3306	0.253	0.0028
0.3583	0.2382	0.0027
0.3784	0.2279	0.0026
0.3951	0.2177	0.0026
0.4188	0.2055	0.0024
0.4752	0.1825	0.0022
0.5052	0.1683	0.0021
0.5215	0.1637	0.0018
0.5286	0.1622	0.0021
0.551	0.1504	0.0019
0.5713	0.1447	0.0016
0.6172	0.1333	0.0015
0.6388	0.1248	0.0016
0.6563	0.1159	0.0016

System: zinc chloride + magnesium chloride + water; phases: Liquid, Crystal
Fixed: Pressure, kPa = 94.77
Fixed: Temperature, K = 323
Property: Mass fraction of magnesium chloride (Liquid); method: Titration method
Mass fraction of zinc chloride	Mass fraction of magnesium chloride	uncertainty
0.6563	0.1159	0.0018
0.7058	0.0844	0.0014
0.7435	0.0641	0.0011
0.7622	0.054	0.0012
0.7833	0.0338	0.001
0.81	0.0178	0.0009
0.8257	0	

System: zinc chloride + lead(2+) dichloride + water; phases: Liquid, Crystal
Fixed: Pressure, kPa = 94.77
Fixed: Temperature, K = 323
Property: Mass fraction of lead(2+) dichloride (Liquid); method: Titration method
Mass fraction of zinc chloride	Mass fraction of lead(2+) dichloride	uncertainty
0	0.017	0.0007
0.0592	0.0045	0.0002
0.1168	0.0041	0.0002
0.1966	0.0029	0.0001
0.2717	0.0022	0.0001
0.3757	0.0019	0.0001
0.5157	0.0011	0.0001
0.6362	0.0013	0.0001
0.737	0.0042	0.0002
0.8058	0.0128	0.0005
0.8198	0.0141	0.0006

System: zinc chloride + lead(2+) dichloride + water; phases: Liquid, Crystal
Fixed: Pressure, kPa = 94.77
Fixed: Temperature, K = 323
Property: Mass fraction of lead(2+) dichloride (Liquid); method: Titration method
Mass fraction of zinc chloride	Mass fraction of lead(2+) dichloride	uncertainty
0.8198	0.0141	0.0032
0.8235	0.0134	0.0134
0.8256	0.0069	0.0069
0.8233	0.0039	0.0039
0.8275	0.0016	0.0009
0.8257	0	

System: magnesium chloride + water; phases: Liquid, Crystal of intercomponent compound 1
Property: Mass fraction of magnesium chloride (Liquid); method: Titration method
Pressure, kPa	Temperature, K	Mass fraction of magnesium chloride	uncertainty
94.77	323	0.3725	0.0038

System: zinc chloride + water; phases: Liquid, Crystal
Property: Mass fraction of zinc chloride (Liquid); method: Titration method
Pressure, kPa	Temperature, K	Mass fraction of zinc chloride	uncertainty
94.77	323	0.8257	0.002

System: lead(2+) dichloride + water; phases: Liquid, Crystal
Property: Mass fraction of lead(2+) dichloride (Liquid); method: Titration method
Pressure, kPa	Temperature, K	Mass fraction of lead(2+) dichloride	uncertainty
94.77	323	0.017	0.0007
