Measured thermophysical data. Electrolytic Effect on the Solubility and Solvation Thermodynamics of l-Serine and l-Isoleucine in Aqueous Media
Source: J. Chem. Eng. Data, 2019, 10.1021/acs.jced.9b00363
Compound 1: L-serine, C3H7NO3, InChI=1S/C3H7NO3/c4-2(1-5)3(6)7/h2,5H,1,4H2,(H,6,7)/t2-/m0/s1
Compound 2: 2-amino-3-methylpentanoic acid, C6H13NO2, InChI=1S/C6H13NO2/c1-3-4(2)5(7)6(8)9/h4-5H,3,7H2,1-2H3,(H,8,9)/t4-,5-/m0/s1
Compound 3: sodium nitrate, NNaO3, InChI=1S/NO3.Na/c2-1(3)4;/q-1;+1
Compound 4: potassium nitrate, KNO3, InChI=1S/K.NO3/c;2-1(3)4/q+1;-1
Compound 5: water, H2O, InChI=1S/H2O/h1H2, purity 99.8%

System: 2-amino-3-methylpentanoic acid + sodium nitrate + water; phases: Liquid, Crystal
Fixed: Pressure, kPa = 100
Property: Molality, mol/kg of 2-amino-3-methylpentanoic acid (Liquid); method: gravimetric
Temperature, K	Molality, mol/kg of sodium nitrate	Molality, mol/kg of 2-amino-3-methylpentanoic acid	uncertainty
288.15	0	0.2951	0.0236
293.15	0	0.3021	0.0242
298.15	0	0.3087	0.0247
303.15	0	0.3176	0.0254
308.15	0	0.3262	0.0261
313.15	0	0.339	0.0272
288.15	0.5	0.2731	0.0219
293.15	0.5	0.2808	0.0225
298.15	0.5	0.2884	0.0231
303.15	0.5	0.2956	0.0237
308.15	0.5	0.3033	0.0243
313.15	0.5	0.315	0.0252
288.15	1	0.2411	0.0193
293.15	1	0.2486	0.0199
298.15	1	0.2551	0.0204
303.15	1	0.2632	0.0211
308.15	1	0.2745	0.022
313.15	1	0.283	0.0227
288.15	1.5	0.2119	0.017
293.15	1.5	0.2242	0.018
298.15	1.5	0.2362	0.0189
303.15	1.5	0.2521	0.0202
308.15	1.5	0.2655	0.0213
313.15	1.5	0.2715	0.0217
288.15	2	0.1921	0.0154
293.15	2	0.2005	0.0161
298.15	2	0.2099	0.0168
303.15	2	0.22	0.0177
308.15	2	0.2458	0.0197
313.15	2	0.252	0.0202
288.15	2.5	0.1783	0.0143
293.15	2.5	0.1844	0.0148
298.15	2.5	0.1957	0.0157
303.15	2.5	0.2014	0.0161
308.15	2.5	0.2234	0.0179
313.15	2.5	0.2308	0.0185

System: 2-amino-3-methylpentanoic acid + potassium nitrate + water; phases: Liquid, Crystal
Fixed: Pressure, kPa = 100
Property: Molality, mol/kg of 2-amino-3-methylpentanoic acid (Liquid); method: gravimetric
Temperature, K	Molality, mol/kg of potassium nitrate	Molality, mol/kg of 2-amino-3-methylpentanoic acid	uncertainty
288.15	0	0.2951	0.0236
293.15	0	0.3021	0.0242
298.15	0	0.3087	0.0247
303.15	0	0.3176	0.0254
308.15	0	0.3262	0.0261
313.15	0	0.339	0.0271
288.15	0.5	0.2733	0.0219
293.15	0.5	0.2822	0.0226
298.15	0.5	0.2899	0.0232
303.15	0.5	0.3005	0.0241
308.15	0.5	0.3109	0.0249
313.15	0.5	0.3184	0.0255
288.15	1	0.2646	0.0212
293.15	1	0.2698	0.0216
298.15	1	0.2763	0.0221
303.15	1	0.2846	0.0228
308.15	1	0.2908	0.0233
313.15	1	0.2968	0.0238
288.15	1.5	0.2386	0.0191
293.15	1.5	0.2463	0.0197
298.15	1.5	0.2547	0.0204
303.15	1.5	0.264	0.0212
308.15	1.5	0.2743	0.022
313.15	1.5	0.2823	0.0226
288.15	2	0.2059	0.0165
293.15	2	0.2121	0.017
298.15	2	0.2312	0.0185
303.15	2	0.2374	0.019
308.15	2	0.2461	0.0197
313.15	2	0.2524	0.0202
288.15	2.5	0.1909	0.0153
293.15	2.5	0.1987	0.0159
298.15	2.5	0.2056	0.0165
303.15	2.5	0.2122	0.017
308.15	2.5	0.2304	0.0185
313.15	2.5	0.2386	0.0191

System: L-serine + sodium nitrate + water; phases: Liquid, Crystal
Fixed: Pressure, kPa = 100
Property: Molality, mol/kg of L-serine (Liquid); method: gravimetric
Temperature, K	Molality, mol/kg of sodium nitrate	Molality, mol/kg of L-serine	uncertainty
288.15	0	3.8252	0.3062
293.15	0	3.9733	0.3181
298.15	0	4.1213	0.3305
303.15	0	4.2524	0.341
308.15	0	4.3103	0.3457
313.15	0	4.9986	0.4015
288.15	0.5	3.9131	0.3133
293.15	0.5	4.1456	0.3322
298.15	0.5	4.6256	0.3709
303.15	0.5	4.7612	0.3815
308.15	0.5	4.9355	0.396
313.15	0.5	5.5094	0.4415
288.15	1	4.1638	0.3336
293.15	1	4.4903	0.36
298.15	1	5.0613	0.4054
303.15	1	5.1587	0.4131
308.15	1	5.5542	0.4449
313.15	1	5.7154	0.4575
288.15	1.5	4.421	0.3542
293.15	1.5	4.7119	0.3775
298.15	1.5	5.2144	0.4175
303.15	1.5	5.2244	0.4183
308.15	1.5	5.7666	0.4618
313.15	1.5	5.9408	0.4755
288.15	2	4.4672	0.3578
293.15	2	4.8188	0.3861
298.15	2	5.4037	0.4328
303.15	2	5.5682	0.4458
308.15	2	5.9796	0.4787
313.15	2	6.0778	0.4865
288.15	2.5	4.5619	0.3654
293.15	2.5	4.9325	0.3953
298.15	2.5	5.5388	0.4435
303.15	2.5	5.6116	0.4493
308.15	2.5	6.0872	0.4873
313.15	2.5	6.2778	0.5025

System: L-serine + potassium nitrate + water; phases: Liquid, Crystal
Fixed: Pressure, kPa = 100
Property: Molality, mol/kg of L-serine (Liquid); method: gravimetric
Temperature, K	Molality, mol/kg of potassium nitrate	Molality, mol/kg of L-serine	uncertainty
288.15	0	3.8252	0.3062
293.15	0	3.9733	0.3181
298.15	0	4.1213	0.3303
303.15	0	4.2524	0.3408
308.15	0	4.3103	0.3455
313.15	0	4.9986	0.4012
288.15	0.5	3.8851	0.311
293.15	0.5	4.1016	0.3286
298.15	0.5	4.5618	0.3656
303.15	0.5	4.6798	0.3749
308.15	0.5	4.8024	0.385
313.15	0.5	5.3138	0.4257
288.15	1	4.0986	0.3282
293.15	1	4.3231	0.3465
298.15	1	4.9689	0.3981
303.15	1	5.1038	0.4086
308.15	1	5.2131	0.4175
313.15	1	5.466	0.4377
288.15	1.5	4.2741	0.3424
293.15	1.5	4.577	0.3667
298.15	1.5	5.0362	0.4032
303.15	1.5	5.111	0.4092
308.15	1.5	5.4932	0.4399
313.15	1.5	5.8216	0.466
288.15	2	4.3189	0.3459
293.15	2	4.7111	0.3774
298.15	2	5.1477	0.4123
303.15	2	5.4882	0.4393
308.15	2	5.4021	0.4324
313.15	2	5.8469	0.4684
288.15	2.5	4.4882	0.3595
293.15	2.5	4.8065	0.385
298.15	2.5	5.226	0.4185
303.15	2.5	5.5507	0.4443
308.15	2.5	5.7047	0.4569
313.15	2.5	6.0464	0.4841

System: 2-amino-3-methylpentanoic acid + water; phases: Liquid, Crystal
Fixed: Pressure, kPa = 100
Property: Molality, mol/kg of 2-amino-3-methylpentanoic acid (Liquid); method: gravimetric
Temperature, K	Molality, mol/kg of 2-amino-3-methylpentanoic acid	uncertainty
288.15	0.2951	0.0236
293.15	0.3021	0.0242
298.15	0.3087	0.0247
303.15	0.3176	0.0254
308.15	0.3262	0.0261
313.15	0.339	0.0271

System: L-serine + water; phases: Liquid, Crystal
Fixed: Pressure, kPa = 100
Property: Molality, mol/kg of L-serine (Liquid); method: gravimetric
Temperature, K	Molality, mol/kg of L-serine	uncertainty
288.15	3.8252	0.3062
293.15	3.9733	0.318
298.15	4.1213	0.3299
303.15	4.2524	0.3403
308.15	4.3103	0.3453
313.15	4.9986	0.401
