Measured thermophysical data. Volumetric Properties of 1-Butyl-3-methylimidazolium Chloride with Organic Solvents
Source: J. Chem. Eng. Data, 2017, 10.1021/acs.jced.7b00654
Compound 1: 1-butyl-3-methylimidazolium chloride, C8H15ClN2, InChI=1S/C8H15N2.ClH/c1-3-4-5-10-7-6-9(2)8-10;/h6-8H,3-5H2,1-2H3;1H/q+1;/p-1, purity 98%
Compound 2: N,N-dimethylethanamide, C4H9NO, InChI=1S/C4H9NO/c1-4(6)5(2)3/h1-3H3, purity 98%
Compound 3: dimethylformamide, C3H7NO, InChI=1S/C3H7NO/c1-4(2)3-5/h3H,1-2H3, purity 99%
Compound 4: dimethyl sulfoxide, C2H6OS, InChI=1S/C2H6OS/c1-4(2)3/h1-2H3, purity 99%
Compound 5: pyridine, C5H5N, InChI=1S/C5H5N/c1-2-4-6-5-3-1/h1-5H, purity 99.8%

System: 1-butyl-3-methylimidazolium chloride; phases: Metastable liquid
Fixed: Pressure, kPa = 96.7
Property: Mass density, kg/m3 (Metastable liquid); method: Vibrating tube method
Temperature, K	Mass density, kg/m3	uncertainty
303.15	1079.41	2.34
308.15	1076.58	2.34
313.15	1073.78	2.33
318.15	1070.99	2.32
323.15	1068.19	2.32
328.15	1065.36	2.31
333.15	1062.6	2.3
338.15	1059.87	2.29
343.15	1057.15	2.29
348.15	1054.42	2.28
353.15	1051.69	2.27

System: 1-butyl-3-methylimidazolium chloride + N,N-dimethylethanamide; phases: Liquid
Fixed: Pressure, kPa = 96.7
Property: Mass density, kg/m3 (Liquid); method: Vibrating tube method
Temperature, K	Mole fraction of 1-butyl-3-methylimidazolium chloride	Mass density, kg/m3	uncertainty
303.15	0	931.85	1.99
308.15	0	927.26	1.98
313.15	0	922.66	1.97
318.15	0	918.06	1.96
323.15	0	913.44	1.95
328.15	0	908.81	1.94
333.15	0	904.16	1.93
338.15	0	899.53	1.92
343.15	0	894.87	1.91
348.15	0	890.19	1.9
353.15	0	885.51	1.89
303.15	0.177	980.28	2.1
308.15	0.177	976.2	2.09
313.15	0.177	972.2	2.08
318.15	0.177	968.23	2.07
323.15	0.177	964.27	2.06
328.15	0.177	960.32	2.05
333.15	0.177	956.38	2.05
338.15	0.177	952.45	2.04
343.15	0.177	948.53	2.03
348.15	0.177	944.61	2.02
353.15	0.177	940.67	2.01
303.15	0.332	1010.24	2.17
308.15	0.332	1006.61	2.16
313.15	0.332	1002.98	2.15
318.15	0.332	999.36	2.14
323.15	0.332	995.75	2.13
328.15	0.332	992.15	2.12
333.15	0.332	988.55	2.12
338.15	0.332	984.97	2.11
343.15	0.332	981.38	2.1
348.15	0.332	977.8	2.09
353.15	0.332	974.22	2.08
303.15	0.428	1025.06	2.21
308.15	0.428	1021.6	2.2
313.15	0.428	1018.15	2.19
318.15	0.428	1014.71	2.18
323.15	0.428	1011.28	2.17
328.15	0.428	1007.86	2.16
333.15	0.428	1004.46	2.15
338.15	0.428	1001.06	2.14
343.15	0.428	997.67	2.14
348.15	0.428	994.29	2.13
353.15	0.428	990.92	2.12
303.15	0.538	1038.52	2.24
308.15	0.538	1035.1	2.23
313.15	0.538	1031.7	2.22
318.15	0.538	1028.35	2.21
323.15	0.538	1024.85	2.2
328.15	0.538	1021.56	2.2
333.15	0.538	1018.33	2.19
338.15	0.538	1015.16	2.18
343.15	0.538	1012.07	2.17
348.15	0.538	1009.03	2.16
353.15	0.538	1006.06	2.16
303.15	0.664	1052.4	2.28
308.15	0.664	1049.19	2.27
313.15	0.664	1045.95	2.26
318.15	0.664	1042.78	2.25
323.15	0.664	1039.56	2.24
328.15	0.664	1036.44	2.23
333.15	0.664	1033.37	2.23
338.15	0.664	1030.34	2.22
343.15	0.664	1027.37	2.21
348.15	0.664	1024.45	2.2
353.15	0.664	1021.59	2.2
303.15	0.816	1066.29	2.31
308.15	0.816	1063.28	2.3
313.15	0.816	1060.2	2.3
318.15	0.816	1057.21	2.29
323.15	0.816	1054.27	2.28
328.15	0.816	1051.33	2.27
333.15	0.816	1048.41	2.26
338.15	0.816	1045.52	2.26
343.15	0.816	1042.67	2.25
348.15	0.816	1039.87	2.24
353.15	0.816	1037.13	2.24
303.15	0.904	1073.17	2.33
308.15	0.904	1070.28	2.32
313.15	0.904	1067.41	2.31
318.15	0.904	1064.54	2.31
323.15	0.904	1061.66	2.3
328.15	0.904	1058.85	2.29
333.15	0.904	1056.06	2.28
338.15	0.904	1053.26	2.28
343.15	0.904	1050.47	2.27
348.15	0.904	1047.69	2.26
353.15	0.904	1044.91	2.26
303.15	1	1079.41	2.34
308.15	1	1076.58	2.34
313.15	1	1073.78	2.33
318.15	1	1070.99	2.32
323.15	1	1068.19	2.32
328.15	1	1065.36	2.31
333.15	1	1062.6	2.3
338.15	1	1059.87	2.29
343.15	1	1057.15	2.29
348.15	1	1054.42	2.28
353.15	1	1051.69	2.27

System: 1-butyl-3-methylimidazolium chloride + dimethylformamide; phases: Liquid
Fixed: Pressure, kPa = 96.7
Property: Mass density, kg/m3 (Liquid); method: Vibrating tube method
Temperature, K	Mole fraction of 1-butyl-3-methylimidazolium chloride	Mass density, kg/m3	uncertainty
303.15	0	939.18	1.89
308.15	0	934.41	1.88
313.15	0	929.64	1.87
318.15	0	924.86	1.86
323.15	0	920.07	1.85
328.15	0	915.26	1.84
333.15	0	910.44	1.83
338.15	0	905.6	1.82
343.15	0	900.74	1.81
348.15	0	895.87	1.8
353.15	0	890.98	1.79
303.15	0.151	987.64	2
308.15	0.151	983.55	1.99
313.15	0.151	979.45	1.98
318.15	0.151	975.35	1.97
323.15	0.151	971.26	1.96
328.15	0.151	967.16	1.96
333.15	0.151	963.07	1.95
338.15	0.151	958.97	1.94
343.15	0.151	954.87	1.93
348.15	0.151	950.78	1.92
353.15	0.151	946.68	1.92
303.15	0.295	1016.34	2.06
308.15	0.295	1012.63	2.06
313.15	0.295	1008.93	2.05
318.15	0.295	1005.24	2.04
323.15	0.295	1001.56	2.03
328.15	0.295	997.89	2.02
333.15	0.295	994.21	2.02
338.15	0.295	990.55	2.01
343.15	0.295	986.89	2
348.15	0.295	983.24	2
353.15	0.295	979.59	1.99
303.15	0.385	1030.08	2.1
308.15	0.385	1026.56	2.09
313.15	0.385	1023.05	2.09
318.15	0.385	1019.54	2.08
323.15	0.385	1016.05	2.07
328.15	0.385	1012.57	2.06
333.15	0.385	1009.1	2.06
338.15	0.385	1005.66	2.05
343.15	0.385	1002.24	2.04
348.15	0.385	998.82	2.03
353.15	0.385	995.4	2.03
303.15	0.493	1043.12	2.14
308.15	0.493	1039.78	2.14
313.15	0.493	1036.46	2.13
318.15	0.493	1033.15	2.12
323.15	0.493	1029.85	2.11
328.15	0.493	1026.56	2.11
333.15	0.493	1023.29	2.1
338.15	0.493	1020.03	2.09
343.15	0.493	1016.78	2.08
348.15	0.493	1013.55	2.08
353.15	0.493	1010.33	2.07
303.15	0.626	1055.89	2.19
308.15	0.626	1052.75	2.18
313.15	0.626	1049.6	2.18
318.15	0.626	1046.6	2.17
323.15	0.626	1043.35	2.16
328.15	0.626	1040.24	2.16
333.15	0.626	1037.16	2.15
338.15	0.626	1034.08	2.14
343.15	0.626	1031.03	2.14
348.15	0.626	1027.98	2.13
353.15	0.626	1024.94	2.12
303.15	0.79	1067.73	2.25
308.15	0.79	1064.72	2.25
313.15	0.79	1061.75	2.24
318.15	0.79	1058.83	2.23
323.15	0.79	1055.91	2.23
328.15	0.79	1052.99	2.22
333.15	0.79	1050.07	2.21
338.15	0.79	1047.16	2.21
343.15	0.79	1044.26	2.2
348.15	0.79	1041.39	2.19
353.15	0.79	1038.53	2.18
303.15	0.887	1072.65	2.29
308.15	0.887	1069.74	2.28
313.15	0.887	1066.84	2.28
318.15	0.887	1063.95	2.27
323.15	0.887	1060.97	2.26
328.15	0.887	1058.13	2.26
333.15	0.887	1055.31	2.25
338.15	0.887	1052.48	2.24
343.15	0.887	1049.67	2.24
348.15	0.887	1046.88	2.23
353.15	0.887	1044.11	2.22
303.15	1	1079.41	2.34
308.15	1	1076.58	2.34
313.15	1	1073.78	2.33
318.15	1	1070.99	2.32
323.15	1	1068.19	2.32
328.15	1	1065.36	2.31
333.15	1	1062.6	2.3
338.15	1	1059.87	2.29
343.15	1	1057.15	2.29
348.15	1	1054.42	2.28
353.15	1	1051.69	2.27

System: 1-butyl-3-methylimidazolium chloride + dimethyl sulfoxide; phases: Liquid
Fixed: Pressure, kPa = 96.7
Property: Mass density, kg/m3 (Liquid); method: Vibrating tube method
Temperature, K	Mole fraction of 1-butyl-3-methylimidazolium chloride	Mass density, kg/m3	uncertainty
303.15	0	1090.29	2.2
308.15	0	1085.28	2.19
313.15	0	1080.3	2.18
318.15	0	1075.31	2.17
323.15	0	1070.32	2.16
328.15	0	1065.33	2.15
333.15	0	1060.34	2.14
338.15	0	1055.34	2.13
343.15	0	1050.35	2.12
348.15	0	1045.34	2.1
353.15	0	1040.33	2.09
303.15	0.161	1090.42	2.21
308.15	0.161	1086.85	2.2
313.15	0.161	1083.14	2.19
318.15	0.161	1079.58	2.19
323.15	0.161	1075.76	2.18
328.15	0.161	1072.19	2.17
333.15	0.161	1068.87	2.16
338.15	0.161	1065.13	2.16
343.15	0.161	1061.44	2.15
348.15	0.161	1057.69	2.14
353.15	0.161	1053.72	2.13
303.15	0.309	1093.72	2.23
308.15	0.309	1089.98	2.22
313.15	0.309	1086.25	2.21
318.15	0.309	1082.54	2.21
323.15	0.309	1078.83	2.2
328.15	0.309	1075.14	2.19
333.15	0.309	1071.45	2.18
338.15	0.309	1067.76	2.17
343.15	0.309	1064.1	2.17
348.15	0.309	1060.44	2.16
353.15	0.309	1056.79	2.15
303.15	0.401	1092.13	2.24
308.15	0.401	1088.58	2.23
313.15	0.401	1085.04	2.22
318.15	0.401	1081.51	2.21
323.15	0.401	1078	2.21
328.15	0.401	1074.5	2.2
333.15	0.401	1071.01	2.19
338.15	0.401	1067.54	2.18
343.15	0.401	1064.07	2.18
348.15	0.401	1060.63	2.17
353.15	0.401	1057.19	2.16
303.15	0.509	1089.44	2.25
308.15	0.509	1086.09	2.24
313.15	0.509	1082.74	2.23
318.15	0.509	1079.35	2.23
323.15	0.509	1076.05	2.22
328.15	0.509	1072.7	2.21
333.15	0.509	1069.47	2.2
338.15	0.509	1066.13	2.2
343.15	0.509	1062.88	2.19
348.15	0.509	1059.65	2.18
353.15	0.509	1056.42	2.17
303.15	0.641	1086.22	2.26
308.15	0.641	1082.96	2.26
313.15	0.641	1079.73	2.25
318.15	0.641	1076.52	2.24
323.15	0.641	1073.33	2.23
328.15	0.641	1070.18	2.23
333.15	0.641	1067.09	2.22
338.15	0.641	1064.06	2.21
343.15	0.641	1061.11	2.21
348.15	0.641	1058.17	2.2
353.15	0.641	1055.25	2.19
303.15	0.801	1083.66	2.3
308.15	0.801	1080.69	2.29
313.15	0.801	1077.69	2.28
318.15	0.801	1074.71	2.27
323.15	0.801	1071.78	2.27
328.15	0.801	1068.87	2.26
333.15	0.801	1065.95	2.25
338.15	0.801	1063.04	2.25
343.15	0.801	1060.14	2.24
348.15	0.801	1057.25	2.23
353.15	0.801	1054.38	2.22
303.15	0.894	1081.72	2.32
308.15	0.894	1078.88	2.31
313.15	0.894	1075.99	2.3
318.15	0.894	1073.12	2.3
323.15	0.894	1070.22	2.29
328.15	0.894	1067.39	2.28
333.15	0.894	1064.59	2.27
338.15	0.894	1061.79	2.27
343.15	0.894	1058.99	2.26
348.15	0.894	1056.19	2.25
353.15	0.894	1053.41	2.25
303.15	1	1079.41	2.34
308.15	1	1076.58	2.34
313.15	1	1073.78	2.33
318.15	1	1070.99	2.32
323.15	1	1068.19	2.32
328.15	1	1065.36	2.31
333.15	1	1062.6	2.3
338.15	1	1059.87	2.29
343.15	1	1057.15	2.29
348.15	1	1054.42	2.28
353.15	1	1051.69	2.27

System: 1-butyl-3-methylimidazolium chloride + pyridine; phases: Liquid
Fixed: Pressure, kPa = 96.7
Property: Mass density, kg/m3 (Liquid); method: Vibrating tube method
Temperature, K	Mole fraction of 1-butyl-3-methylimidazolium chloride	Mass density, kg/m3	uncertainty
303.15	0	973.09	1.95
308.15	0	968.06	1.94
313.15	0	963.02	1.93
318.15	0	957.97	1.92
323.15	0	952.9	1.91
328.15	0	947.82	1.9
333.15	0	942.72	1.89
338.15	0	937.6	1.88
343.15	0	932.46	1.87
348.15	0	927.3	1.86
353.15	0	922.12	1.85
303.15	0.163	1013.2	2.03
308.15	0.163	1009.09	2.02
313.15	0.163	1004.97	2.01
318.15	0.163	1000.85	2
323.15	0.163	996.73	2
328.15	0.163	992.6	1.99
333.15	0.163	988.47	1.98
338.15	0.163	984.34	1.97
343.15	0.163	980.21	1.96
348.15	0.163	976.06	1.96
353.15	0.163	971.91	1.95
303.15	0.313	1035.67	2.08
308.15	0.313	1032.05	2.07
313.15	0.313	1028.43	2.06
318.15	0.313	1024.82	2.06
323.15	0.313	1021.21	2.05
328.15	0.313	1017.6	2.04
333.15	0.313	1014	2.03
338.15	0.313	1010.4	2.03
343.15	0.313	1006.81	2.02
348.15	0.313	1003.22	2.01
353.15	0.313	999.63	2
303.15	0.404	1045.6	2.1
308.15	0.404	1042.19	2.1
313.15	0.404	1038.78	2.09
318.15	0.404	1035.39	2.08
323.15	0.404	1032.01	2.07
328.15	0.404	1028.63	2.07
333.15	0.404	1025.25	2.06
338.15	0.404	1021.89	2.05
343.15	0.404	1018.53	2.05
348.15	0.404	1015.17	2.04
353.15	0.404	1011.79	2.03
303.15	0.514	1054.49	2.13
308.15	0.514	1051.2	2.12
313.15	0.514	1047.94	2.12
318.15	0.514	1044.72	2.11
323.15	0.514	1041.52	2.1
328.15	0.514	1038.33	2.1
333.15	0.514	1035.14	2.09
338.15	0.514	1031.93	2.08
343.15	0.514	1028.66	2.08
348.15	0.514	1025.27	2.07
353.15	0.514	1021.81	2.06
303.15	0.644	1063.34	2.17
308.15	0.644	1060.26	2.16
313.15	0.644	1057.18	2.16
318.15	0.644	1054.11	2.15
323.15	0.644	1051.04	2.14
328.15	0.644	1047.99	2.14
333.15	0.644	1044.96	2.13
338.15	0.644	1041.94	2.12
343.15	0.644	1038.93	2.12
348.15	0.644	1035.92	2.11
353.15	0.644	1032.89	2.1
303.15	0.803	1072.41	2.23
308.15	0.803	1069.51	2.23
313.15	0.803	1066.59	2.22
318.15	0.803	1063.66	2.21
323.15	0.803	1060.72	2.21
328.15	0.803	1057.81	2.2
333.15	0.803	1054.92	2.19
338.15	0.803	1052.08	2.19
343.15	0.803	1049.29	2.18
348.15	0.803	1046.57	2.17
353.15	0.803	1044.02	2.17
303.15	0.895	1075.89	2.28
308.15	0.895	1073.02	2.27
313.15	0.895	1070.16	2.27
318.15	0.895	1067.3	2.26
323.15	0.895	1064.45	2.25
328.15	0.895	1061.65	2.24
333.15	0.895	1058.86	2.24
338.15	0.895	1056.09	2.23
343.15	0.895	1053.31	2.22
348.15	0.895	1050.53	2.22
353.15	0.895	1047.77	2.21
303.15	1	1079.41	2.34
308.15	1	1076.58	2.34
313.15	1	1073.78	2.33
318.15	1	1070.99	2.32
323.15	1	1068.19	2.32
328.15	1	1065.36	2.31
333.15	1	1062.6	2.3
338.15	1	1059.87	2.29
343.15	1	1057.15	2.29
348.15	1	1054.42	2.28
353.15	1	1051.69	2.27
