Measured thermophysical data. Salt Effect on Ethanol-Based Aqueous Biphasic Systems Applied to Alkaloids Partition: An Experimental and Theoretical Approach
Source: J. Chem. Eng. Data, 2019, 10.1021/acs.jced.8b01024
Compound 1: ethanol, C2H6O, InChI=1S/C2H6O/c1-2-3/h3H,2H2,1H3
Compound 2: sodium dihydrogen phosphate, H2NaO4P, InChI=1S/Na.H3O4P/c;1-5(2,3)4/h;(H3,1,2,3,4)/q+1;/p-1
Compound 3: dipotassium hydrogen phosphate, HK2O4P, InChI=1S/2K.H3O4P/c;;1-5(2,3)4/h;;(H3,1,2,3,4)/q2*+1;/p-2
Compound 4: tripotassium phosphate, K3O4P, InChI=1S/3K.H3O4P/c;;;1-5(2,3)4/h;;;(H3,1,2,3,4)/q3*+1;/p-3
Compound 5: potassium carbonate, CK2O3, InChI=1S/CH2O3.2K/c2-1(3)4;;/h(H2,2,3,4);;/q;2*+1/p-2
Compound 6: potassium citrate, C6H5K3O7, InChI=1S/C6H8O7.3K/c7-3(8)1-6(13,5(11)12)2-4(9)10;;;/h13H,1-2H2,(H,7,8)(H,9,10)(H,11,12);;;/q;3*+1/p-3
Compound 7: water, H2O, InChI=1S/H2O/h1H2, purity 99.9%

System: ethanol + sodium dihydrogen phosphate + water; phases: Liquid mixture 2, Liquid mixture 1
Fixed: Temperature, K = 298.15
Fixed: Pressure, kPa = 91
Property: Mass fraction of ethanol (Liquid mixture 2); method: Phase equilibration
Property: Mass fraction of sodium dihydrogen phosphate (Liquid mixture 1); method: Phase equilibration
Property: Mass fraction of ethanol (Liquid mixture 1); method: Phase equilibration
Mass fraction of sodium dihydrogen phosphate	Mass fraction of ethanol	uncertainty	Mass fraction of sodium dihydrogen phosphate	uncertainty	Mass fraction of ethanol	uncertainty
0.345	0.07	0.011	0.075	0.011	0.313	
0.367	0.059	0.011	0.067	0.011	0.328	
0.376	0.055	0.011	0.056	0.011	0.353	
0.386	0.051	0.011	0.047	0.011	0.376	
0.392	0.048	0.011	0.039	0.011	0.397	
0.408	0.042	0.011	0.034	0.01	0.416	

System: ethanol + sodium dihydrogen phosphate + water; phases: Liquid mixture 1, Liquid mixture 2
Fixed: Temperature, K = 298.15
Fixed: Pressure, kPa = 91
Property: Mass fraction of ethanol (Liquid mixture 1); method: Titration method
Mass fraction of sodium dihydrogen phosphate	Mass fraction of ethanol	uncertainty
0.018	0.485	0.018
0.023	0.459	0.017
0.03	0.434	0.016
0.034	0.408	0.015
0.042	0.387	0.013
0.051	0.366	0.012
0.059	0.345	0.012
0.064	0.333	0.011
0.072	0.319	0.011
0.078	0.307	0.01
0.088	0.292	0.009
0.098	0.279	0.009
0.107	0.267	0.009
0.114	0.258	0.009
0.12	0.246	0.008
0.131	0.231	0.008
0.138	0.225	0.007
0.149	0.214	0.007
0.158	0.207	0.007
0.17	0.191	0.006
0.18	0.185	0.006
0.194	0.173	0.006
0.209	0.159	0.005
0.224	0.148	0.005
0.245	0.13	0.004
0.266	0.117	0.004
0.296	0.096	0.004
0.325	0.078	0.003
0.357	0.063	0.003
0.398	0.046	0.003
0.439	0.036	0.002

System: ethanol + dipotassium hydrogen phosphate + water; phases: Liquid mixture 1, Liquid mixture 2
Fixed: Temperature, K = 298.15
Fixed: Pressure, kPa = 91
Property: Mass fraction of ethanol (Liquid mixture 1); method: Phase equilibration
Property: Mass fraction of dipotassium hydrogen phosphate (Liquid mixture 2); method: Phase equilibration
Property: Mass fraction of ethanol (Liquid mixture 2); method: Phase equilibration
Mass fraction of dipotassium hydrogen phosphate	Mass fraction of ethanol	uncertainty	Mass fraction of dipotassium hydrogen phosphate	uncertainty	Mass fraction of ethanol	uncertainty
0.254	0.091	0.011	0.095	0.012	0.239	
0.289	0.073	0.011	0.088	0.011	0.252	
0.301	0.068	0.011	0.075	0.011	0.278	
0.314	0.063	0.011	0.066	0.011	0.298	
0.326	0.058	0.011	0.06	0.011	0.315	
0.331	0.056	0.011	0.051	0.011	0.342	

System: ethanol + dipotassium hydrogen phosphate + water; phases: Liquid mixture 1, Liquid mixture 2
Fixed: Temperature, K = 298.15
Fixed: Pressure, kPa = 91
Property: Mass fraction of ethanol (Liquid mixture 1); method: Titration method
Mass fraction of dipotassium hydrogen phosphate	Mass fraction of ethanol	uncertainty
0.042	0.367	0.012
0.048	0.354	0.012
0.049	0.343	0.012
0.055	0.331	0.011
0.06	0.316	0.011
0.061	0.314	0.011
0.065	0.304	0.012
0.069	0.284	0.01
0.07	0.295	0.011
0.075	0.275	0.01
0.077	0.266	0.01
0.084	0.258	0.008
0.091	0.248	0.008
0.1	0.235	0.008
0.103	0.227	0.009
0.115	0.213	0.007
0.123	0.202	0.007
0.129	0.195	0.006
0.134	0.19	0.007
0.139	0.181	0.006
0.149	0.171	0.006
0.158	0.163	0.006
0.165	0.154	0.005
0.172	0.147	0.005
0.178	0.14	0.005
0.185	0.133	0.005
0.195	0.125	0.004
0.206	0.116	0.004
0.216	0.108	0.004
0.223	0.101	0.004
0.24	0.093	0.003
0.255	0.089	0.003
0.266	0.082	0.003
0.296	0.07	0.003
0.312	0.062	0.003
0.328	0.057	0.003
0.349	0.051	0.003
0.367	0.045	0.003
0.385	0.039	0.002
0.405	0.034	0.002
0.44	0.029	0.002
0.465	0.028	0.002

System: ethanol + tripotassium phosphate + water; phases: Liquid mixture 1, Liquid mixture 2
Fixed: Temperature, K = 298.15
Fixed: Pressure, kPa = 91
Property: Mass fraction of ethanol (Liquid mixture 1); method: Phase equilibration
Property: Mass fraction of tripotassium phosphate (Liquid mixture 2); method: Phase equilibration
Property: Mass fraction of ethanol (Liquid mixture 2); method: Phase equilibration
Mass fraction of tripotassium phosphate	Mass fraction of ethanol	uncertainty	Mass fraction of tripotassium phosphate	uncertainty	Mass fraction of ethanol	uncertainty
0.318	0.059	0.011	0.046	0.011	0.381	
0.34	0.048	0.011	0.039	0.01	0.403	
0.353	0.041	0.011	0.034	0.01	0.424	
0.354	0.041	0.011	0.029	0.01	0.444	
0.362	0.037	0.011	0.024	0.01	0.466	
0.379	0.031	0.011	0.021	0.01	0.484	

System: ethanol + tripotassium phosphate + water; phases: Liquid mixture 1, Liquid mixture 2
Fixed: Temperature, K = 298.15
Fixed: Pressure, kPa = 91
Property: Mass fraction of ethanol (Liquid mixture 1); method: Titration method
Mass fraction of tripotassium phosphate	Mass fraction of ethanol	uncertainty
0.007	0.586	0.017
0.015	0.539	0.022
0.022	0.464	0.018
0.038	0.406	0.014
0.058	0.353	0.012
0.078	0.305	0.01
0.095	0.276	0.009
0.112	0.25	0.008
0.13	0.226	0.008
0.144	0.207	0.007
0.163	0.185	0.006
0.18	0.165	0.006
0.192	0.152	0.005
0.203	0.139	0.005
0.215	0.129	0.005
0.228	0.117	0.004
0.242	0.105	0.004
0.256	0.096	0.004
0.276	0.082	0.003
0.297	0.07	0.003
0.326	0.055	0.003
0.353	0.043	0.003
0.386	0.033	0.002
0.401	0.03	0.002
0.432	0.02	0.002
0.489	0.015	0.002

System: ethanol + potassium carbonate + water; phases: Liquid mixture 1, Liquid mixture 2
Fixed: Temperature, K = 298.15
Fixed: Pressure, kPa = 91
Property: Mass fraction of ethanol (Liquid mixture 1); method: Phase equilibration
Property: Mass fraction of potassium carbonate (Liquid mixture 2); method: Phase equilibration
Property: Mass fraction of ethanol (Liquid mixture 2); method: Phase equilibration
Mass fraction of potassium carbonate	Mass fraction of ethanol	uncertainty	Mass fraction of potassium carbonate	uncertainty	Mass fraction of ethanol	uncertainty
0.241	0.092	0.013	0.052	0.01	0.408	
0.253	0.082	0.013	0.044	0.01	0.441	
0.262	0.076	0.013	0.036	0.01	0.481	
0.273	0.067	0.012	0.031	0.01	0.506	
0.282	0.061	0.013	0.026	0.01	0.537	
0.291	0.056	0.012	0.022	0.01	0.568	

System: ethanol + potassium carbonate + water; phases: Liquid mixture 1, Liquid mixture 2
Fixed: Temperature, K = 298.15
Fixed: Pressure, kPa = 91
Property: Mass fraction of ethanol (Liquid mixture 1); method: Titration method
Mass fraction of potassium carbonate	Mass fraction of ethanol	uncertainty
0.023	0.569	0.019
0.042	0.437	0.018
0.052	0.401	0.014
0.061	0.369	0.013
0.071	0.344	0.012
0.087	0.311	0.011
0.096	0.289	0.01
0.11	0.264	0.009
0.12	0.244	0.008
0.131	0.227	0.008
0.14	0.21	0.007
0.147	0.198	0.007
0.154	0.187	0.007
0.16	0.177	0.006
0.168	0.166	0.006
0.176	0.154	0.006
0.183	0.143	0.005
0.186	0.141	0.005
0.186	0.141	0.005
0.196	0.134	0.005
0.208	0.121	0.005
0.219	0.109	0.004
0.232	0.098	0.004
0.245	0.085	0.004
0.259	0.073	0.003
0.271	0.066	0.003
0.286	0.057	0.003
0.298	0.05	0.003
0.306	0.05	0.003
0.311	0.044	0.003
0.324	0.039	0.002
0.33	0.04	0.002
0.34	0.034	0.002
0.369	0.026	0.002
0.39	0.021	0.002
0.404	0.019	0.002

System: ethanol + potassium citrate + water; phases: Liquid mixture 1, Liquid mixture 2
Fixed: Temperature, K = 298.15
Fixed: Pressure, kPa = 91
Property: Mass fraction of ethanol (Liquid mixture 1); method: Phase equilibration
Property: Mass fraction of potassium citrate (Liquid mixture 2); method: Phase equilibration
Property: Mass fraction of ethanol (Liquid mixture 2); method: Phase equilibration
Mass fraction of potassium citrate	Mass fraction of ethanol	uncertainty	Mass fraction of potassium citrate	uncertainty	Mass fraction of ethanol	uncertainty
0.304	0.116	0.014	0.052	0.011	0.472	
0.314	0.106	0.014	0.038	0.011	0.51	
0.332	0.09	0.013	0.03	0.01	0.54	
0.345	0.079	0.013	0.023	0.01	0.571	
0.356	0.072	0.012	0.017	0.01	0.598	
0.373	0.059	0.013	0.014	0.01	0.619	

System: ethanol + potassium citrate + water; phases: Liquid mixture 1, Liquid mixture 2
Fixed: Temperature, K = 298.15
Fixed: Pressure, kPa = 91
Property: Mass fraction of ethanol (Liquid mixture 1); method: Titration method
Mass fraction of potassium citrate	Mass fraction of ethanol	uncertainty
0.014	0.634	0.019
0.025	0.553	0.019
0.032	0.519	0.016
0.042	0.495	0.016
0.05	0.483	0.016
0.061	0.447	0.015
0.075	0.416	0.014
0.087	0.395	0.013
0.091	0.389	0.012
0.116	0.348	0.011
0.116	0.348	0.011
0.129	0.328	0.011
0.144	0.308	0.01
0.148	0.3	0.01
0.157	0.29	0.009
0.168	0.274	0.009
0.177	0.261	0.009
0.182	0.254	0.008
0.197	0.235	0.008
0.199	0.23	0.008
0.205	0.225	0.007
0.214	0.213	0.007
0.221	0.202	0.007
0.222	0.203	0.007
0.239	0.183	0.006
0.247	0.173	0.006
0.251	0.168	0.006
0.257	0.163	0.005
0.266	0.153	0.005
0.276	0.142	0.005
0.283	0.135	0.005
0.289	0.131	0.005
0.304	0.118	0.004
0.332	0.096	0.004
