Measured thermophysical data. Atmospheric Ternary Liquid-Liquid Equilibrium for the Diethyl Carbonate + 1-Propanol + Water System at Temperature of 303.15, 313.15, 323.15, and 333.15 K
Source: J. Chem. Eng. Data, 2019, 10.1021/acs.jced.8b00937
Compound 1: diethyl carbonate, C5H10O3, InChI=1S/C5H10O3/c1-3-7-5(6)8-4-2/h3-4H2,1-2H3
Compound 2: propan-1-ol, C3H8O, InChI=1S/C3H8O/c1-2-3-4/h4H,2-3H2,1H3
Compound 3: water, H2O, InChI=1S/H2O/h1H2, purity 99.9%

System: diethyl carbonate + propan-1-ol + water; phases: Liquid mixture 2, Liquid mixture 1
Fixed: Pressure, kPa = 101.32
Property: Mole fraction of diethyl carbonate (Liquid mixture 2); method: Chromatography
Property: Mole fraction of propan-1-ol (Liquid mixture 1); method: Chromatography
Property: Mole fraction of diethyl carbonate (Liquid mixture 1); method: Chromatography
Temperature, K	Mole fraction of propan-1-ol	Mole fraction of diethyl carbonate	uncertainty	Mole fraction of propan-1-ol	uncertainty	Mole fraction of diethyl carbonate	uncertainty
303.15	0.0566	0.0053	0.0006	0.1815	0.0103	0.0437	
323.15	0.0319	0.0028	0.0006	0.268	0.0066	0.3583	
323.15	0.0267	0.0024	0.0006	0.2233	0.0066	0.4729	
313.15	0.031	0.0029	0.0006	0.2826	0.0064	0.3145	
323.15	0.0226	0.0025	0.0006	0.1795	0.0067	0.5902	
323.15	0.017	0.0028	0.0006	0.1183	0.0069	0.7086	
323.15	0.0071	0.0017	0.0006	0.0607	0.0071	0.8079	
303.15	0.0093	0.0017	0.0006	0.0549	0.0072	0.8398	
323.15	0	0.0011	0.0006	0		0.8982	
333.15	0.0441	0.0048	0.0006	0.1925	0.0081	0.0602	
333.15	0.039	0.0038	0.0006	0.2346	0.0074	0.1081	
323.15	0.0606	0.0078	0.0006	0.1532	0.0113	0.0337	
333.15	0.0362	0.0033	0.0006	0.2567	0.0066	0.1569	
303.15	0.0387	0.0029	0.0006	0.2787	0.0065	0.1846	
333.15	0.0342	0.0031	0.0006	0.2726	0.0064	0.2209	
313.15	0.0319	0.0027	0.0006	0.2688	0.0066	0.3652	
333.15	0.0304	0.0033	0.0007	0.2738	0.0063	0.283	
333.15	0.0313	0.0029	0.0006	0.264	0.0065	0.3422	
333.15	0.0238	0.0024	0.0006	0.2245	0.0066	0.4637	
333.15	0.0188	0.0022	0.0006	0.1737	0.0067	0.589	
303.15	0	0.0027	0.0006	0		0.9155	
333.15	0.014	0.002	0.0006	0.1199	0.0069	0.6951	
323.15	0.0436	0.0042	0.0006	0.2168	0.009	0.0734	
333.15	0.0061	0.0018	0.0006	0.0592	0.0072	0.7943	
333.15	0	0.0021	0.0006	0		0.8776	
303.15	0.0361	0.0032	0.0006	0.2899	0.0063	0.2575	
303.15	0.032	0.0027	0.0006	0.2827	0.0064	0.328	
303.15	0.0457	0.004	0.0006	0.2321	0.0082	0.0805	
303.15	0.0336	0.0026	0.0006	0.2684	0.0066	0.3815	
303.15	0.0315	0.0024	0.0006	0.2243	0.0066	0.5084	
303.15	0.0253	0.0023	0.0006	0.1666	0.0067	0.6403	
313.15	0.053	0.0059	0.0006	0.1765	0.0109	0.0414	
313.15	0.044	0.0042	0.0006	0.2208	0.0082	0.0735	
303.15	0.0211	0.0025	0.0006	0.1122	0.0069	0.7431	
313.15	0.0394	0.0034	0.0006	0.2555	0.007	0.1253	
313.15	0.0372	0.003	0.0006	0.2759	0.0065	0.1769	
313.15	0.0355	0.0029	0.0006	0.29	0.0063	0.2514	
313.15	0.0299	0.0026	0.0006	0.227	0.0066	0.4837	
313.15	0.0226	0.0022	0.0006	0.1759	0.0067	0.6081	
313.15	0.0178	0.003	0.0006	0.1181	0.0069	0.7181	
313.15	0.0076	0.002	0.0006	0.0589	0.007	0.8218	
313.15	0	0.0022	0.0006	0		0.9153	
323.15	0.0394	0.0037	0.0006	0.2441	0.007	0.1155	
323.15	0.0358	0.003	0.0006	0.2644	0.0065	0.1657	
323.15	0.0339	0.0028	0.0006	0.2823	0.0064	0.2371	
303.15	0.0411	0.0032	0.0006	0.2589	0.0068	0.1289	
323.15	0.031	0.0032	0.0006	0.2796	0.0064	0.3022	

System: diethyl carbonate + water; phases: Liquid mixture 2, Liquid mixture 1
Fixed: Pressure, kPa = 101.32
Property: Mole fraction of diethyl carbonate (Liquid mixture 2); method: Chromatography
Temperature, K	Mole fraction of diethyl carbonate	uncertainty
303.15	0.0027	0.0006
313.15	0.0022	0.0006
323.15	0.0011	0.0006
333.15	0.0021	0.0006

System: diethyl carbonate + water; phases: Liquid mixture 1, Liquid mixture 2
Fixed: Pressure, kPa = 101.32
Property: Mole fraction of diethyl carbonate (Liquid mixture 1); method: Chromatography
Temperature, K	Mole fraction of diethyl carbonate	uncertainty
303.15	0.9155	0.006
313.15	0.9153	0.006
323.15	0.8982	0.0061
333.15	0.8776	0.0061
