Measured thermophysical data. DIPPR Project 851 - Thirty Years of Vapor-Liquid Critical Point Measurements and Experimental Technique Development
Source: J. Chem. Eng. Data, 2018, 10.1021/acs.jced.8b00298
Compound 1: trans-1,4-bis(hydroxymethyl)cyclohexane, C8H16O2, InChI=1S/C8H16O2/c9-5-7-1-2-8(6-10)4-3-7/h7-10H,1-6H2/t7-,8-, purity 99.9%
Compound 2: cis-1,4-bis(hydroxymethyl)cyclohexane, C8H16O2, InChI=1S/C8H16O2/c9-5-7-1-2-8(6-10)4-3-7/h7-10H,1-6H2/t7-,8+, purity 99.9%
Compound 3: 2,4,4-trimethyl-1-pentene, C8H16, InChI=1S/C8H16/c1-7(2)6-8(3,4)5/h1,6H2,2-5H3, purity 99.2%
Compound 4: 4-methylbenzaldehyde, C8H8O, InChI=1S/C8H8O/c1-7-2-4-8(6-9)5-3-7/h2-6H,1H3, purity 99.4%
Compound 5: dimethyl 1,4-benzenedicarboxylate, C10H10O4, InChI=1S/C10H10O4/c1-13-9(11)7-3-5-8(6-4-7)10(12)14-2/h3-6H,1-2H3, purity 100%
Compound 6: N-methylacetamide, C3H7NO, InChI=1S/C3H7NO/c1-3(5)4-2/h1-2H3,(H,4,5), purity 99.9%
Compound 7: diphenylmethane, C13H12, InChI=1S/C13H12/c1-3-7-12(8-4-1)11-13-9-5-2-6-10-13/h1-10H,11H2, purity 99.8%
Compound 8: dimethyl carbonate, C3H6O3, InChI=1S/C3H6O3/c1-5-3(4)6-2/h1-2H3, purity 99.95%
Compound 9: 1-methoxy-2-propanone, C4H8O2, InChI=1S/C4H8O2/c1-4(5)3-6-2/h3H2,1-2H3, purity 99.8%
Compound 10: 2-methylthiophene, C5H6S, InChI=1S/C5H6S/c1-5-3-2-4-6-5/h2-4H,1H3, purity 98.7%
Compound 11: 3-methylthiophene, C5H6S, InChI=1S/C5H6S/c1-5-2-3-6-4-5/h2-4H,1H3, purity 98.9%
Compound 12: 2-phenoxyethanol, C8H10O2, InChI=1S/C8H10O2/c9-6-7-10-8-4-2-1-3-5-8/h1-5,9H,6-7H2, purity 99.7%
Compound 13: 2-methylpropanal, C4H8O, InChI=1S/C4H8O/c1-4(2)3-5/h3-4H,1-2H3, purity 99.62%
Compound 14: 2-methoxy-1-propanol, C4H10O2, InChI=1S/C4H10O2/c1-4(3-5)6-2/h4-5H,3H2,1-2H3, purity 99.7%
Compound 15: 2-ethoxyethan-1-ol, C4H10O2, InChI=1S/C4H10O2/c1-2-6-4-3-5/h5H,2-4H2,1H3, purity 99.98%
Compound 16: tetrahydrothiophene, C4H8S, InChI=1S/C4H8S/c1-2-4-5-3-1/h1-4H2, purity 99.9%
Compound 17: methyl 3-oxobutanoate, C5H8O3, InChI=1S/C5H8O3/c1-4(6)3-5(7)8-2/h3H2,1-2H3, purity 99.69%
Compound 18: ethylene diacetate, C6H10O4, InChI=1S/C6H10O4/c1-5(7)9-3-4-10-6(2)8/h3-4H2,1-2H3, purity 99.75%
Compound 19: benzenethiol, C6H6S, InChI=1S/C6H6S/c7-6-4-2-1-3-5-6/h1-5,7H, purity 99.8%
Compound 20: ethyl propenoate, C5H8O2, InChI=1S/C5H8O2/c1-3-5(6)7-4-2/h3H,1,4H2,2H3, purity 99.9%
Compound 21: methyl methacrylate, C5H8O2, InChI=1S/C5H8O2/c1-4(2)5(6)7-3/h1H2,2-3H3, purity 99.9%
Compound 22: 2,5,8-trioxanonane, C6H14O3, InChI=1S/C6H14O3/c1-7-3-5-9-6-4-8-2/h3-6H2,1-2H3, purity 99.95%
Compound 23: cyclohexanethiol, C6H12S, InChI=1S/C6H12S/c7-6-4-2-1-3-5-6/h6-7H,1-5H2, purity 98%
Compound 24: 2-pyrrolidinone, C4H7NO, InChI=1S/C4H7NO/c6-4-2-1-3-5-4/h1-3H2,(H,5,6), purity 99.6%
Compound 25: ethyl 2-methylpropenoate, C6H10O2, InChI=1S/C6H10O2/c1-4-8-6(7)5(2)3/h2,4H2,1,3H3, purity 99.3%
Compound 26: 1-methoxypropan-2-yl propionate, C7H14O3, InChI=1S/C7H14O3/c1-4-7(8)10-6(2)5-9-3/h6H,4-5H2,1-3H3, purity 99.7%
Compound 27: pyrrole, C4H5N, InChI=1S/C4H5N/c1-2-4-5-3-1/h1-5H, purity 99.95%
Compound 28: dimethylformamide, C3H7NO, InChI=1S/C3H7NO/c1-4(2)3-5/h3H,1-2H3, purity 99.94%
Compound 29: 2-ethylhexyl 2-propenoate, C11H20O2, InChI=1S/C11H20O2/c1-4-7-8-10(5-2)9-13-11(12)6-3/h6,10H,3-5,7-9H2,1-2H3, purity 99%
Compound 30: 2,5,8,11,14-pentaoxapentadecane, C10H22O5, InChI=1S/C10H22O5/c1-11-3-5-13-7-9-15-10-8-14-6-4-12-2/h3-10H2,1-2H3, purity 99.9%
Compound 31: 1-methylvinyl ethanoate, C5H8O2, InChI=1S/C5H8O2/c1-4(2)7-5(3)6/h1H2,2-3H3, purity 99.2%
Compound 32: piperidine, C5H11N, InChI=1S/C5H11N/c1-2-4-6-5-3-1/h6H,1-5H2, purity 99.3%
Compound 33: butyl 2-methyl-2-propenoate, C8H14O2, InChI=1S/C8H14O2/c1-4-5-6-10-8(9)7(2)3/h2,4-6H2,1,3H3, purity 99.6%
Compound 34: 3-methoxypropanenitrile, C4H7NO, InChI=1S/C4H7NO/c1-6-4-2-3-5/h2,4H2,1H3, purity 99.9%
Compound 35: 2,5,8,11-tetraoxadodecane, C8H18O4, InChI=1S/C8H18O4/c1-9-3-5-11-7-8-12-6-4-10-2/h3-8H2,1-2H3, purity 99.6%
Compound 36: N-methylformamide, C2H5NO, InChI=1S/C2H5NO/c1-3-2-4/h2H,1H3,(H,3,4), purity 99.6%
Compound 37: ethylene carbonate, C3H4O3, InChI=1S/C3H4O3/c4-3-5-1-2-6-3/h1-2H2, purity 99.8%
Compound 38: cis-1,3-dimethylcyclohexane, C8H16, InChI=1S/C8H16/c1-7-4-3-5-8(2)6-7/h7-8H,3-6H2,1-2H3/t7-,8+, purity 99.4%
Compound 39: trans-1,2-dimethylcyclohexane, C8H16, InChI=1S/C8H16/c1-7-5-3-4-6-8(7)2/h7-8H,3-6H2,1-2H3/t7-,8-/m1/s1, purity 98.5%
Compound 40: ethylcyclohexane, C8H16, InChI=1S/C8H16/c1-2-8-6-4-3-5-7-8/h8H,2-7H2,1H3, purity 99.6%
Compound 41: (1-methylethyl)cyclohexane, C9H18, InChI=1S/C9H18/c1-8(2)9-6-4-3-5-7-9/h8-9H,3-7H2,1-2H3, purity 99.3%
Compound 42: methyl propenoate, C4H6O2, InChI=1S/C4H6O2/c1-3-4(5)6-2/h3H,1H2,2H3, purity 100%
Compound 43: diethyl carbonate, C5H10O3, InChI=1S/C5H10O3/c1-3-7-5(6)8-4-2/h3-4H2,1-2H3, purity 99.9%
Compound 44: N-methylpiperidine, C6H13N, InChI=1S/C6H13N/c1-7-5-3-2-4-6-7/h2-6H2,1H3, purity 99.5%
Compound 45: N-methylpyrrole, C5H7N, InChI=1S/C5H7N/c1-6-4-2-3-5-6/h2-5H,1H3, purity 99.8%
Compound 46: N,N-dimethylethanamide, C4H9NO, InChI=1S/C4H9NO/c1-4(6)5(2)3/h1-3H3, purity 99.97%
Compound 47: 2,2,4-trimethyl-1,3-pentanediol, C8H18O2, InChI=1S/C8H18O2/c1-6(2)7(10)8(3,4)5-9/h6-7,9-10H,5H2,1-4H3, purity 99.92%
Compound 48: 1,1-dimethylethylcyclohexane, C10H20, InChI=1S/C10H20/c1-10(2,3)9-7-5-4-6-8-9/h9H,4-8H2,1-3H3, purity 99.7%
Compound 49: butylcyclohexane, C10H20, InChI=1S/C10H20/c1-2-3-7-10-8-5-4-6-9-10/h10H,2-9H2,1H3, purity 99.4%
Compound 50: butylbenzene, C10H14, InChI=1S/C10H14/c1-2-3-7-10-8-5-4-6-9-10/h4-6,8-9H,2-3,7H2,1H3, purity 99.7%
Compound 51: (1-methylpropyl)benzene, C10H14, InChI=1S/C10H14/c1-3-9(2)10-7-5-4-6-8-10/h4-9H,3H2,1-2H3, purity 99.8%
Compound 52: (1,1-dimethylethyl)benzene, C10H14, InChI=1S/C10H14/c1-10(2,3)9-7-5-4-6-8-9/h4-8H,1-3H3, purity 99.9%
Compound 53: carbon disulfide, CS2, InChI=1S/CS2/c2-1-3, purity 99.9%
Compound 54: trans-1,4-dimethylcyclohexane, C8H16, InChI=1S/C8H16/c1-7-3-5-8(2)6-4-7/h7-8H,3-6H2,1-2H3/t7-,8-, purity 99%
Compound 55: cis-1,2-dimethylcyclohexane, C8H16, InChI=1S/C8H16/c1-7-5-3-4-6-8(7)2/h7-8H,3-6H2,1-2H3/t7-,8+, purity 99%
Compound 56: 1,2-dimethoxyethane, C4H10O2, InChI=1S/C4H10O2/c1-5-3-4-6-2/h3-4H2,1-2H3, purity 99%
Compound 57: N-methylpyrrolidine, C5H11N, InChI=1S/C5H11N/c1-6-4-2-3-5-6/h2-5H2,1H3, purity 99%
Compound 58: (diethylamino)ethanol, C6H15NO, InChI=1S/C6H15NO/c1-3-7(4-2)5-6-8/h8H,3-6H2,1-2H3, purity 99.65%
Compound 59: N-(2-hydroxyethyl)piperazine, C6H14N2O, InChI=1S/C6H14N2O/c9-6-5-8-3-1-7-2-4-8/h7,9H,1-6H2, purity 99.9%
Compound 60: 2,6,10,15,19,23-hexamethyltetracosane, C30H62, InChI=1S/C30H62/c1-25(2)15-11-19-29(7)23-13-21-27(5)17-9-10-18-28(6)22-14-24-30(8)20-12-16-26(3)4/h25-30H,9-24H2,1-8H3, purity 99.6%
Compound 61: 2-methylpropanenitrile, C4H7N, InChI=1S/C4H7N/c1-4(2)3-5/h4H,1-2H3, purity 99.85%
Compound 62: 3-methyl-2,4-dioxapentane, C4H10O2, InChI=1S/C4H10O2/c1-4(5-2)6-3/h4H,1-3H3, purity 98.9%
Compound 63: dimethoxymethane, C3H8O2, InChI=1S/C3H8O2/c1-4-3-5-2/h3H2,1-2H3, purity 99.9%
Compound 64: dihexyl ether, C12H26O, InChI=1S/C12H26O/c1-3-5-7-9-11-13-12-10-8-6-4-2/h3-12H2,1-2H3, purity 99.5%
Compound 65: dioctyl ether, C16H34O, InChI=1S/C16H34O/c1-3-5-7-9-11-13-15-17-16-14-12-10-8-6-4-2/h3-16H2,1-2H3, purity 99.1%
Compound 66: 1,4-bis(hydroxymethyl)cyclohexane, C8H16O2, InChI=1S/C8H16O2/c9-5-7-1-2-8(6-10)4-3-7/h7-10H,1-6H2

System: 2,4,4-trimethyl-1-pentene; phases: Liquid, Gas
Property: Critical temperature, K (Liquid); method: Capillary flow
Critical temperature, K	uncertainty
550.7	4

System: 2,4,4-trimethyl-1-pentene; phases: Liquid, Gas
Property: Critical pressure, kPa (Liquid); method: Capillary flow
Critical pressure, kPa	uncertainty
2730	120

System: 4-methylbenzaldehyde; phases: Liquid, Gas
Property: Critical temperature, K (Liquid); method: Capillary flow
Critical temperature, K	uncertainty
715.8	4

System: 4-methylbenzaldehyde; phases: Liquid, Gas
Property: Critical pressure, kPa (Liquid); method: Capillary flow
Critical pressure, kPa	uncertainty
3920	90

System: dimethyl 1,4-benzenedicarboxylate; phases: Liquid, Gas
Property: Critical temperature, K (Liquid); method: Capillary flow
Critical temperature, K	uncertainty
779	20

System: dimethyl 1,4-benzenedicarboxylate; phases: Liquid, Gas
Property: Critical pressure, kPa (Liquid); method: Capillary flow
Critical pressure, kPa	uncertainty
2760	400

System: N-methylacetamide; phases: Liquid, Gas
Property: Critical temperature, K (Liquid); method: Capillary flow
Critical temperature, K	uncertainty
707.4	2

System: N-methylacetamide; phases: Liquid, Gas
Property: Critical pressure, kPa (Liquid); method: Capillary flow
Critical pressure, kPa	uncertainty
5090	200

System: diphenylmethane; phases: Liquid, Gas
Property: Critical temperature, K (Liquid); method: Capillary flow
Critical temperature, K	uncertainty
770	2

System: diphenylmethane; phases: Liquid, Gas
Property: Critical pressure, kPa (Liquid); method: Capillary flow
Critical pressure, kPa	uncertainty
2920	60

System: dimethyl carbonate; phases: Liquid, Gas
Property: Critical temperature, K (Liquid); method: Capillary flow
Critical temperature, K	uncertainty
556.3	3

System: dimethyl carbonate; phases: Liquid, Gas
Property: Critical pressure, kPa (Liquid); method: Capillary flow
Critical pressure, kPa	uncertainty
4450	130

System: 1-methoxy-2-propanone; phases: Liquid, Gas
Property: Critical temperature, K (Liquid); method: Capillary flow
Critical temperature, K	uncertainty
584	2

System: 1-methoxy-2-propanone; phases: Liquid, Gas
Property: Critical pressure, kPa (Liquid); method: Capillary flow
Critical pressure, kPa	uncertainty
4210	90

System: 2-methylthiophene; phases: Liquid, Gas
Property: Critical temperature, K (Liquid); method: Capillary flow
Critical temperature, K	uncertainty
602	2

System: 2-methylthiophene; phases: Liquid, Gas
Property: Critical pressure, kPa (Liquid); method: Capillary flow
Critical pressure, kPa	uncertainty
4620	140

System: 3-methylthiophene; phases: Liquid, Gas
Property: Critical temperature, K (Liquid); method: Capillary flow
Critical temperature, K	uncertainty
607.3	3

System: 3-methylthiophene; phases: Liquid, Gas
Property: Critical pressure, kPa (Liquid); method: Capillary flow
Critical pressure, kPa	uncertainty
4620	140

System: 2-phenoxyethanol; phases: Liquid, Gas
Property: Critical temperature, K (Liquid); method: Capillary flow
Critical temperature, K	uncertainty
749.4	2

System: 2-phenoxyethanol; phases: Liquid, Gas
Property: Critical pressure, kPa (Liquid); method: Capillary flow
Critical pressure, kPa	uncertainty
3860	120

System: 2-methylpropanal; phases: Liquid, Gas
Property: Critical temperature, K (Liquid); method: Capillary flow
Critical temperature, K	uncertainty
519	3

System: 2-methylpropanal; phases: Liquid, Gas
Property: Critical pressure, kPa (Liquid); method: Capillary flow
Critical pressure, kPa	uncertainty
4210	140

System: 2-methoxy-1-propanol; phases: Liquid, Gas
Property: Critical temperature, K (Liquid); method: Capillary flow
Critical temperature, K	uncertainty
596.6	3

System: 2-methoxy-1-propanol; phases: Liquid, Gas
Property: Critical pressure, kPa (Liquid); method: Capillary flow
Critical pressure, kPa	uncertainty
4310	140

System: 2-ethoxyethan-1-ol; phases: Liquid, Gas
Property: Critical temperature, K (Liquid); method: Capillary flow
Critical temperature, K	uncertainty
598.9	4

System: 2-ethoxyethan-1-ol; phases: Liquid, Gas
Property: Critical pressure, kPa (Liquid); method: Capillary flow
Critical pressure, kPa	uncertainty
4200	110

System: tetrahydrothiophene; phases: Liquid, Gas
Property: Critical temperature, K (Liquid); method: Capillary flow
Critical temperature, K	uncertainty
634.6	6

System: tetrahydrothiophene; phases: Liquid, Gas
Property: Critical pressure, kPa (Liquid); method: Capillary flow
Critical pressure, kPa	uncertainty
5430	300

System: methyl 3-oxobutanoate; phases: Liquid, Gas
Property: Critical temperature, K (Liquid); method: Capillary flow
Critical temperature, K	uncertainty
652.8	4

System: methyl 3-oxobutanoate; phases: Liquid, Gas
Property: Critical pressure, kPa (Liquid); method: Capillary flow
Critical pressure, kPa	uncertainty
3830	140

System: ethylene diacetate; phases: Liquid, Gas
Property: Critical temperature, K (Liquid); method: Capillary flow
Critical temperature, K	uncertainty
654.9	3

System: ethylene diacetate; phases: Liquid, Gas
Property: Critical pressure, kPa (Liquid); method: Capillary flow
Critical pressure, kPa	uncertainty
3080	100

System: benzenethiol; phases: Liquid, Gas
Property: Critical temperature, K (Liquid); method: Capillary flow
Critical temperature, K	uncertainty
689.2	4

System: benzenethiol; phases: Liquid, Gas
Property: Critical pressure, kPa (Liquid); method: Capillary flow
Critical pressure, kPa	uncertainty
4650	180

System: ethyl propenoate; phases: Liquid, Gas
Property: Critical temperature, K (Liquid); method: Capillary flow
Critical temperature, K	uncertainty
555.2	2

System: ethyl propenoate; phases: Liquid, Gas
Property: Critical pressure, kPa (Liquid); method: Capillary flow
Critical pressure, kPa	uncertainty
3710	100

System: methyl methacrylate; phases: Liquid, Gas
Property: Critical temperature, K (Liquid); method: Capillary flow
Critical temperature, K	uncertainty
557.9	1.6

System: methyl methacrylate; phases: Liquid, Gas
Property: Critical pressure, kPa (Liquid); method: Capillary flow
Critical pressure, kPa	uncertainty
3750	100

System: 2,5,8-trioxanonane; phases: Liquid, Gas
Property: Critical temperature, K (Liquid); method: Capillary flow
Critical temperature, K	uncertainty
619.7	4

System: 2,5,8-trioxanonane; phases: Liquid, Gas
Property: Critical pressure, kPa (Liquid); method: Capillary flow
Critical pressure, kPa	uncertainty
2830	120

System: cyclohexanethiol; phases: Liquid, Gas
Property: Critical temperature, K (Liquid); method: Capillary flow
Critical temperature, K	uncertainty
669.6	4

System: cyclohexanethiol; phases: Liquid, Gas
Property: Critical pressure, kPa (Liquid); method: Capillary flow
Critical pressure, kPa	uncertainty
3970	160

System: 2-pyrrolidinone; phases: Liquid, Gas
Property: Critical temperature, K (Liquid); method: Capillary flow
Critical temperature, K	uncertainty
789.1	3.6

System: 2-pyrrolidinone; phases: Liquid, Gas
Property: Critical pressure, kPa (Liquid); method: Capillary flow
Critical pressure, kPa	uncertainty
5590	220

System: ethyl 2-methylpropenoate; phases: Liquid, Gas
Property: Critical temperature, K (Liquid); method: Capillary flow
Critical temperature, K	uncertainty
572	3

System: ethyl 2-methylpropenoate; phases: Liquid, Gas
Property: Critical pressure, kPa (Liquid); method: Capillary flow
Critical pressure, kPa	uncertainty
3170	120

System: 1-methoxypropan-2-yl propionate; phases: Liquid, Gas
Property: Critical temperature, K (Liquid); method: Capillary flow
Critical temperature, K	uncertainty
611.7	2.4

System: 1-methoxypropan-2-yl propionate; phases: Liquid, Gas
Property: Critical pressure, kPa (Liquid); method: Capillary flow
Critical pressure, kPa	uncertainty
2600	80

System: pyrrole; phases: Liquid, Gas
Property: Critical temperature, K (Liquid); method: Capillary flow
Critical temperature, K	uncertainty
633.3	3

System: pyrrole; phases: Liquid, Gas
Property: Critical pressure, kPa (Liquid); method: Capillary flow
Critical pressure, kPa	uncertainty
6300	170

System: dimethylformamide; phases: Liquid, Gas
Property: Critical temperature, K (Liquid); method: Capillary flow
Critical temperature, K	uncertainty
650.6	3

System: dimethylformamide; phases: Liquid, Gas
Property: Critical pressure, kPa (Liquid); method: Capillary flow
Critical pressure, kPa	uncertainty
4720	140

System: 2-ethylhexyl 2-propenoate; phases: Liquid, Gas
Property: Critical temperature, K (Liquid); method: Capillary flow
Critical temperature, K	uncertainty
672.5	6

System: 2-ethylhexyl 2-propenoate; phases: Liquid, Gas
Property: Critical pressure, kPa (Liquid); method: Capillary flow
Critical pressure, kPa	uncertainty
2080	140

System: 2,5,8,11,14-pentaoxapentadecane; phases: Liquid, Gas
Property: Critical temperature, K (Liquid); method: Capillary flow
Critical temperature, K	uncertainty
726.6	4

System: 2,5,8,11,14-pentaoxapentadecane; phases: Liquid, Gas
Property: Critical pressure, kPa (Liquid); method: Capillary flow
Critical pressure, kPa	uncertainty
1980	120

System: 1-methylvinyl ethanoate; phases: Liquid, Gas
Property: Critical temperature, K (Liquid); method: Capillary flow
Critical temperature, K	uncertainty
549.8	2

System: 1-methylvinyl ethanoate; phases: Liquid, Gas
Property: Critical pressure, kPa (Liquid); method: Capillary flow
Critical pressure, kPa	uncertainty
3630	

System: piperidine; phases: Liquid, Gas
Property: Critical temperature, K (Liquid); method: Capillary flow
Critical temperature, K	uncertainty
594.4	3

System: piperidine; phases: Liquid, Gas
Property: Critical pressure, kPa (Liquid); method: Capillary flow
Critical pressure, kPa	uncertainty
4560	140

System: butyl 2-methyl-2-propenoate; phases: Liquid, Gas
Property: Critical temperature, K (Liquid); method: Capillary flow
Critical temperature, K	uncertainty
615.8	4

System: butyl 2-methyl-2-propenoate; phases: Liquid, Gas
Property: Critical pressure, kPa (Liquid); method: Capillary flow
Critical pressure, kPa	uncertainty
2520	120

System: 3-methoxypropanenitrile; phases: Liquid, Gas
Property: Critical temperature, K (Liquid); method: Capillary flow
Critical temperature, K	uncertainty
650.9	2.4

System: 3-methoxypropanenitrile; phases: Liquid, Gas
Property: Critical pressure, kPa (Liquid); method: Capillary flow
Critical pressure, kPa	uncertainty
4040	120

System: 2,5,8,11-tetraoxadodecane; phases: Liquid, Gas
Property: Critical temperature, K (Liquid); method: Capillary flow
Critical temperature, K	uncertainty
681.2	2.4

System: 2,5,8,11-tetraoxadodecane; phases: Liquid, Gas
Property: Critical pressure, kPa (Liquid); method: Capillary flow
Critical pressure, kPa	uncertainty
2310	60

System: N-methylformamide; phases: Liquid, Gas
Property: Critical temperature, K (Liquid); method: Capillary flow
Critical temperature, K	uncertainty
715.6	4

System: N-methylformamide; phases: Liquid, Gas
Property: Critical pressure, kPa (Liquid); method: Capillary flow
Critical pressure, kPa	uncertainty
6080	260

System: ethylene carbonate; phases: Liquid, Gas
Property: Critical temperature, K (Liquid); method: Capillary flow
Critical temperature, K	uncertainty
786	10

System: ethylene carbonate; phases: Liquid, Gas
Property: Critical pressure, kPa (Liquid); method: Capillary flow
Critical pressure, kPa	uncertainty
5280	800

System: cis-1,3-dimethylcyclohexane; phases: Liquid, Gas
Property: Critical temperature, K (Liquid); method: Visual observation in an unstirred cell
Critical temperature, K	uncertainty
586.1	0.2

System: cis-1,3-dimethylcyclohexane; phases: Liquid, Gas
Property: Critical pressure, kPa (Liquid); method: Visual
Critical pressure, kPa	uncertainty
3040	30

System: cis-1,3-dimethylcyclohexane; phases: Liquid, Gas
Property: Critical molar volume, m3/mol (Liquid); method: Visual
Critical molar volume, m3/mol	uncertainty
0.00043	2e-05

System: trans-1,2-dimethylcyclohexane; phases: Liquid, Gas
Property: Critical temperature, K (Liquid); method: Visual observation in an unstirred cell
Critical temperature, K	uncertainty
596.3	0.3

System: trans-1,2-dimethylcyclohexane; phases: Liquid, Gas
Property: Critical pressure, kPa (Liquid); method: Visual
Critical pressure, kPa	uncertainty
3080	30

System: trans-1,2-dimethylcyclohexane; phases: Liquid, Gas
Property: Critical molar volume, m3/mol (Liquid); method: Visual
Critical molar volume, m3/mol	uncertainty
0.00044	2e-05

System: ethylcyclohexane; phases: Liquid, Gas
Property: Critical temperature, K (Liquid); method: Visual observation in an unstirred cell
Critical temperature, K	uncertainty
605.9	0.2

System: ethylcyclohexane; phases: Liquid, Gas
Property: Critical pressure, kPa (Liquid); method: Visual
Critical pressure, kPa	uncertainty
3110	30

System: ethylcyclohexane; phases: Liquid, Gas
Property: Critical molar volume, m3/mol (Liquid); method: Visual
Critical molar volume, m3/mol	uncertainty
0.00043	2e-05

System: (1-methylethyl)cyclohexane; phases: Liquid, Gas
Property: Critical temperature, K (Liquid); method: Visual observation in an unstirred cell
Critical temperature, K	uncertainty
635.3	0.2

System: (1-methylethyl)cyclohexane; phases: Liquid, Gas
Property: Critical pressure, kPa (Liquid); method: Visual
Critical pressure, kPa	uncertainty
2940	30

System: (1-methylethyl)cyclohexane; phases: Liquid, Gas
Property: Critical molar volume, m3/mol (Liquid); method: Visual
Critical molar volume, m3/mol	uncertainty
0.00048	2e-05

System: methyl propenoate; phases: Liquid, Gas
Property: Critical temperature, K (Liquid); method: Capillary flow
Critical temperature, K	uncertainty
532.7	2.6

System: methyl propenoate; phases: Liquid, Gas
Property: Critical pressure, kPa (Liquid); method: Capillary flow
Critical pressure, kPa	uncertainty
3990	140

System: diethyl carbonate; phases: Liquid, Gas
Property: Critical temperature, K (Liquid); method: Capillary flow
Critical temperature, K	uncertainty
578.2	3

System: diethyl carbonate; phases: Liquid, Gas
Property: Critical pressure, kPa (Liquid); method: Capillary flow
Critical pressure, kPa	uncertainty
3080	120

System: N-methylpiperidine; phases: Liquid, Gas
Property: Critical temperature, K (Liquid); method: Capillary flow
Critical temperature, K	uncertainty
581.5	3.6

System: N-methylpiperidine; phases: Liquid, Gas
Property: Critical pressure, kPa (Liquid); method: Capillary flow
Critical pressure, kPa	uncertainty
3660	160

System: N-methylpyrrole; phases: Liquid, Gas
Property: Critical temperature, K (Liquid); method: Capillary flow
Critical temperature, K	uncertainty
587.4	3

System: N-methylpyrrole; phases: Liquid, Gas
Property: Critical pressure, kPa (Liquid); method: Capillary flow
Critical pressure, kPa	uncertainty
4210	140

System: N,N-dimethylethanamide; phases: Liquid, Gas
Property: Critical temperature, K (Liquid); method: Capillary flow
Critical temperature, K	uncertainty
660.2	2.6

System: N,N-dimethylethanamide; phases: Liquid, Gas
Property: Critical pressure, kPa (Liquid); method: Capillary flow
Critical pressure, kPa	uncertainty
4260	120

System: 2,2,4-trimethyl-1,3-pentanediol; phases: Liquid, Gas
Property: Critical temperature, K (Liquid); method: Capillary flow
Critical temperature, K	uncertainty
708.2	3.2

System: 2,2,4-trimethyl-1,3-pentanediol; phases: Liquid, Gas
Property: Critical pressure, kPa (Liquid); method: Capillary flow
Critical pressure, kPa	uncertainty
3110	140

System: 1,1-dimethylethylcyclohexane; phases: Liquid, Gas
Property: Critical temperature, K (Liquid); method: Visual observation in an unstirred cell
Critical temperature, K	uncertainty
646.9	0.2

System: 1,1-dimethylethylcyclohexane; phases: Liquid, Gas
Property: Critical pressure, kPa (Liquid); method: Visual
Critical pressure, kPa	uncertainty
2770	30

System: 1,1-dimethylethylcyclohexane; phases: Liquid, Gas
Property: Critical molar volume, m3/mol (Liquid); method: Visual
Critical molar volume, m3/mol	uncertainty
0.0005	2e-05

System: butylcyclohexane; phases: Liquid, Gas
Property: Critical temperature, K (Liquid); method: Visual observation in an unstirred cell
Critical temperature, K	uncertainty
649.3	0.2

System: butylcyclohexane; phases: Liquid, Gas
Property: Critical pressure, kPa (Liquid); method: Visual
Critical pressure, kPa	uncertainty
2510	30

System: butylcyclohexane; phases: Liquid, Gas
Property: Critical molar volume, m3/mol (Liquid); method: Visual
Critical molar volume, m3/mol	uncertainty
0.00056	2e-05

System: butylbenzene; phases: Liquid, Gas
Property: Critical temperature, K (Liquid); method: Visual observation in an unstirred cell
Critical temperature, K	uncertainty
660.3	0.2

System: butylbenzene; phases: Liquid, Gas
Property: Critical pressure, kPa (Liquid); method: Visual
Critical pressure, kPa	uncertainty
2890	30

System: butylbenzene; phases: Liquid, Gas
Property: Critical molar volume, m3/mol (Liquid); method: Visual
Critical molar volume, m3/mol	uncertainty
0.0005	2e-05

System: (1-methylpropyl)benzene; phases: Liquid, Gas
Property: Critical temperature, K (Liquid); method: Visual observation in an unstirred cell
Critical temperature, K	uncertainty
653	0.2

System: (1-methylpropyl)benzene; phases: Liquid, Gas
Property: Critical pressure, kPa (Liquid); method: Visual
Critical pressure, kPa	uncertainty
3030	30

System: (1-methylpropyl)benzene; phases: Liquid, Gas
Property: Critical molar volume, m3/mol (Liquid); method: Visual
Critical molar volume, m3/mol	uncertainty
0.00048	2e-05

System: (1,1-dimethylethyl)benzene; phases: Liquid, Gas
Property: Critical temperature, K (Liquid); method: Visual observation in an unstirred cell
Critical temperature, K	uncertainty
646.9	0.2

System: (1,1-dimethylethyl)benzene; phases: Liquid, Gas
Property: Critical pressure, kPa (Liquid); method: Visual
Critical pressure, kPa	uncertainty
2900	30

System: (1,1-dimethylethyl)benzene; phases: Liquid, Gas
Property: Critical molar volume, m3/mol (Liquid); method: Visual
Critical molar volume, m3/mol	uncertainty
0.00048	2e-05

System: carbon disulfide; phases: Liquid, Gas
Property: Critical temperature, K (Liquid); method: Visual observation in an unstirred cell
Critical temperature, K	uncertainty
552.5	0.2

System: carbon disulfide; phases: Liquid, Gas
Property: Critical pressure, kPa (Liquid); method: Visual
Critical pressure, kPa	uncertainty
7330	60

System: carbon disulfide; phases: Liquid, Gas
Property: Critical molar volume, m3/mol (Liquid); method: Visual
Critical molar volume, m3/mol	uncertainty
0.000176	9e-06

System: trans-1,4-dimethylcyclohexane; phases: Liquid, Gas
Property: Critical temperature, K (Liquid); method: Visual observation in an unstirred cell
Critical temperature, K	uncertainty
585.84	0.24

System: trans-1,4-dimethylcyclohexane; phases: Liquid, Gas
Property: Critical pressure, kPa (Liquid); method: Visual
Critical pressure, kPa	uncertainty
3060	30

System: trans-1,4-dimethylcyclohexane; phases: Liquid, Gas
Property: Critical molar volume, m3/mol (Liquid); method: Visual
Critical molar volume, m3/mol	uncertainty
0.00042	2e-05

System: cis-1,2-dimethylcyclohexane; phases: Liquid, Gas
Property: Critical temperature, K (Liquid); method: Visual observation in an unstirred cell
Critical temperature, K	uncertainty
607.29	0.24

System: cis-1,2-dimethylcyclohexane; phases: Liquid, Gas
Property: Critical pressure, kPa (Liquid); method: Visual
Critical pressure, kPa	uncertainty
3350	30

System: cis-1,2-dimethylcyclohexane; phases: Liquid, Gas
Property: Critical molar volume, m3/mol (Liquid); method: Visual
Critical molar volume, m3/mol	uncertainty
0.00041	2e-05

System: 1,2-dimethoxyethane; phases: Liquid, Gas
Property: Critical temperature, K (Liquid); method: Visual observation in an unstirred cell
Critical temperature, K	uncertainty
535.32	0.24

System: 1,2-dimethoxyethane; phases: Liquid, Gas
Property: Critical pressure, kPa (Liquid); method: Visual
Critical pressure, kPa	uncertainty
3830	40

System: 1,2-dimethoxyethane; phases: Liquid, Gas
Property: Critical molar volume, m3/mol (Liquid); method: Visual
Critical molar volume, m3/mol	uncertainty
0.00031	2e-05

System: N-methylpyrrolidine; phases: Liquid, Gas
Property: Critical temperature, K (Liquid); method: Visual observation in an unstirred cell
Critical temperature, K	uncertainty
548.62	0.24

System: N-methylpyrrolidine; phases: Liquid, Gas
Property: Critical pressure, kPa (Liquid); method: Visual
Critical pressure, kPa	uncertainty
4000	40

System: N-methylpyrrolidine; phases: Liquid, Gas
Property: Critical molar volume, m3/mol (Liquid); method: Visual
Critical molar volume, m3/mol	uncertainty
0.0003	2e-05

System: (diethylamino)ethanol; phases: Liquid, Gas
Property: Critical temperature, K (Liquid); method: Capillary flow
Critical temperature, K	uncertainty
625.9	4

System: (diethylamino)ethanol; phases: Liquid, Gas
Property: Critical pressure, kPa (Liquid); method: Capillary flow
Critical pressure, kPa	uncertainty
3247	133

System: N-(2-hydroxyethyl)piperazine; phases: Liquid, Gas
Property: Critical temperature, K (Liquid); method: Capillary flow
Critical temperature, K	uncertainty
760	12

System: N-(2-hydroxyethyl)piperazine; phases: Liquid, Gas
Property: Critical pressure, kPa (Liquid); method: Capillary flow
Critical pressure, kPa	uncertainty
3980	480

System: 2,6,10,15,19,23-hexamethyltetracosane; phases: Liquid, Gas
Property: Critical temperature, K (Liquid); method: Capillary flow
Critical temperature, K	uncertainty
805	20

System: 2,6,10,15,19,23-hexamethyltetracosane; phases: Liquid, Gas
Property: Critical pressure, kPa (Liquid); method: Capillary flow
Critical pressure, kPa	uncertainty
657	67

System: 2-methylpropanenitrile; phases: Liquid, Gas
Property: Critical temperature, K (Liquid); method: Capillary flow
Critical temperature, K	uncertainty
560.8	2

System: 2-methylpropanenitrile; phases: Liquid, Gas
Property: Critical pressure, kPa (Liquid); method: Capillary flow
Critical pressure, kPa	uncertainty
3672	149

System: 3-methyl-2,4-dioxapentane; phases: Liquid, Gas
Property: Critical temperature, K (Liquid); method: Capillary flow
Critical temperature, K	uncertainty
511.6	5.6

System: 3-methyl-2,4-dioxapentane; phases: Liquid, Gas
Property: Critical pressure, kPa (Liquid); method: Capillary flow
Critical pressure, kPa	uncertainty
4300	260

System: dimethoxymethane; phases: Liquid, Gas
Property: Critical temperature, K (Liquid); method: Capillary flow
Critical temperature, K	uncertainty
488.9	3.2

System: dimethoxymethane; phases: Liquid, Gas
Property: Critical pressure, kPa (Liquid); method: Capillary flow
Critical pressure, kPa	uncertainty
4550	280

System: dihexyl ether; phases: Liquid, Gas
Property: Critical temperature, K (Liquid); method: Capillary flow
Critical temperature, K	uncertainty
663	3

System: dihexyl ether; phases: Liquid, Gas
Property: Critical pressure, kPa (Liquid); method: Capillary flow
Critical pressure, kPa	uncertainty
1763	107

System: dioctyl ether; phases: Liquid, Gas
Property: Critical temperature, K (Liquid); method: Capillary flow
Critical temperature, K	uncertainty
727	4

System: dioctyl ether; phases: Liquid, Gas
Property: Critical pressure, kPa (Liquid); method: Capillary flow
Critical pressure, kPa	uncertainty
1446	85

System: 1,4-bis(hydroxymethyl)cyclohexane; phases: Liquid, Gas
Property: Critical temperature, K (Liquid); method: Capillary flow
Critical temperature, K	uncertainty
800.3	4

System: 1,4-bis(hydroxymethyl)cyclohexane; phases: Liquid, Gas
Property: Critical pressure, kPa (Liquid); method: Capillary flow
Critical pressure, kPa	uncertainty
4000	242

System: trans-1,4-bis(hydroxymethyl)cyclohexane + cis-1,4-bis(hydroxymethyl)cyclohexane; phases: Liquid, Gas
Property: Critical temperature, K (Liquid); method: Capillary flow
Mass fraction of trans-1,4-bis(hydroxymethyl)cyclohexane	Critical temperature, K	uncertainty
0.7	800.3	6.4

System: trans-1,4-bis(hydroxymethyl)cyclohexane + cis-1,4-bis(hydroxymethyl)cyclohexane; phases: Liquid, Gas
Property: Critical pressure, kPa (Liquid); method: Capillary flow
Mass fraction of trans-1,4-bis(hydroxymethyl)cyclohexane	Critical pressure, kPa	uncertainty
0.7	4000	240
