Measured thermophysical data. P-T-x Measurements for 1,1,1,2-Tetrafluoroethane (R134a) + N,N dimethylacetamide (DMA), and N-methyl-2-pyrrolidone (NMP)
Source: J. Chem. Eng. Data, 2016, 10.1021/acs.jced.5b00747
Compound 1: 1,1,1,2-tetrafluoroethane, C2H2F4, InChI=1S/C2H2F4/c3-1-2(4,5)6/h1H2, purity 99.5%
Compound 2: N,N-dimethylethanamide, C4H9NO, InChI=1S/C4H9NO/c1-4(6)5(2)3/h1-3H3, purity 99.9%
Compound 3: N-methylpyrrolidone, C5H9NO, InChI=1S/C5H9NO/c1-6-4-2-3-5(6)7/h2-4H2,1H3, purity 99.5%

System: 1,1,1,2-tetrafluoroethane; phases: Liquid, Gas
Property: Vapor or sublimation pressure, kPa (Liquid); method: Closed cell (Static) method
Temperature, K	Vapor or sublimation pressure, kPa	uncertainty
303.3	772.9	14
313.15	1018.8	18.4
323.15	1319	23.8
338.3	1889.6	34.1
353.45	2605.9	47.1

System: N,N-dimethylethanamide + 1,1,1,2-tetrafluoroethane; phases: Liquid, Gas
Property: Mole fraction of 1,1,1,2-tetrafluoroethane (Liquid); method: Chromatography
Pressure, kPa	Temperature, K	Mole fraction of 1,1,1,2-tetrafluoroethane	uncertainty
233.1	303.3	0.391	0.015
247.2	303.3	0.411	0.016
274.7	303.3	0.448	0.016
314.3	303.3	0.501	0.016
350.9	303.3	0.541	0.016
408.3	303.3	0.611	0.017
426.6	303.3	0.628	0.017
464.2	303.3	0.671	0.017
476.5	303.3	0.69	0.018
491.5	303.3	0.706	0.016
505	303.3	0.717	0.016
529	303.3	0.738	0.017
548.5	303.3	0.759	0.018
593.6	303.3	0.811	0.019
619.7	303.3	0.844	0.019
636.6	303.3	0.862	0.018
641	303.3	0.866	0.018
666.4	303.3	0.891	0.019
669.1	303.3	0.894	0.019
681.9	303.3	0.907	0.018
692.7	303.3	0.917	0.02
702	303.3	0.93	0.018
722.1	303.3	0.945	0.017
478.3	313.15	0.5482	0.0158
522.8	313.15	0.5909	0.017
550.8	313.15	0.6151	0.0169
591	313.15	0.6522	0.017
611	313.15	0.6699	0.018
641.3	313.15	0.697	0.0172
662.3	313.15	0.7152	0.0194
682.6	313.15	0.7335	0.0187
699.6	313.15	0.7461	0.0165
736.5	313.15	0.7754	0.0172
763	313.15	0.7958	0.0162
786.5	313.15	0.8155	0.0156
796.5	313.15	0.8242	0.0183
808.2	313.15	0.8333	0.018
821.3	313.15	0.8434	0.0186
831.6	313.15	0.8526	0.0195
845	313.15	0.8647	0.0189
874.8	313.15	0.8888	0.0191
903.3	313.15	0.9127	0.0196
920.4	313.15	0.9272	0.0199
215.8	323.3	0.2124	0.0144
442	323.3	0.3974	0.0166
477.2	323.3	0.4247	0.0157
565.5	323.3	0.4939	0.0166
629.1	323.3	0.542	0.0167
694.5	323.3	0.5929	0.0176
736.1	323.3	0.6236	0.0179
767.5	323.3	0.6483	0.0167
800	323.3	0.6706	0.0156
943.1	323.3	0.7662	0.0181
1022.2	323.3	0.8193	0.0186
1072	323.3	0.8514	0.0187
1110.2	323.3	0.8756	0.019
1172.4	323.3	0.9155	0.0195
388.2	338.3	0.2428	0.0148
453.6	338.3	0.2845	0.015
495.1	338.3	0.3061	0.015
598.8	338.3	0.3661	0.0154
711.2	338.3	0.4242	0.016
747	338.3	0.4512	0.0176
1544.7	338.3	0.8597	0.0187
1560.1	338.3	0.8665	0.0188
1604.2	338.3	0.8861	0.0197
1639.5	338.3	0.9046	0.0203
1679.4	338.3	0.9235	0.02
1404.3	353.3	0.603	0.018
1489.4	353.3	0.637	0.018
1565.4	353.3	0.667	0.018
1669.8	353.3	0.705	0.018
1774.8	353.3	0.745	0.018
1843.4	353.3	0.769	0.018
2126.5	353.3	0.864	0.019
2198.2	353.3	0.887	0.019
2249.9	353.3	0.903	0.018
2313.7	353.3	0.921	0.018
2356.8	353.3	0.933	0.018

System: 1,1,1,2-tetrafluoroethane + N-methylpyrrolidone; phases: Liquid, Gas
Property: Mole fraction of 1,1,1,2-tetrafluoroethane (Liquid); method: Chromatography
Pressure, kPa	Temperature, K	Mole fraction of 1,1,1,2-tetrafluoroethane	uncertainty
292.6	303.3	0.4386	0.0159
345.1	303.3	0.5076	0.0164
382.8	303.3	0.5492	0.0164
414	303.3	0.5868	0.0174
425.3	303.3	0.6068	0.0162
444.3	303.3	0.6184	0.0165
469.9	303.3	0.6518	0.0178
486.1	303.3	0.6705	0.0232
489.2	303.3	0.677	0.0233
509.1	303.3	0.6988	0.0166
522.4	303.3	0.7078	0.0181
559.5	303.3	0.7573	0.0193
597.6	303.3	0.8059	0.0186
626.7	303.3	0.8329	0.019
666.4	303.3	0.8835	0.0204
667.7	303.3	0.8868	0.0204
692	303.3	0.9129	0.0194
772.9	303.3	1	
447.8	313.15	0.4898	0.0162
495.1	313.15	0.5327	0.0165
531.1	313.15	0.5653	0.0169
579.5	313.15	0.6109	0.0174
616.3	313.15	0.6461	0.0175
649.1	313.15	0.6744	0.0183
710.2	313.15	0.7325	0.0183
738.9	313.15	0.7581	0.0206
769.6	313.15	0.789	0.0184
826	313.15	0.8388	0.0193
859	313.15	0.869	0.0199
1018.8	313.15	1	
696	323.15	0.5487	0.0173
752.2	323.15	0.5914	0.0177
856.8	323.15	0.6713	0.0186
893.6	323.15	0.7009	0.0184
944.8	323.15	0.736	0.0215
1020.2	323.15	0.7938	0.0212
1069.7	323.15	0.834	0.0183
1115.3	323.15	0.865	0.0175
1153.3	323.15	0.8957	0.017
1319	323.15	1	
1040.6	338.3	0.5827	0.016
1084.2	338.3	0.599	0.0199
1128.1	338.3	0.6257	0.0229
1146.2	338.3	0.633	0.0218
1194.2	338.3	0.6641	0.0173
1230.4	338.3	0.6868	0.0158
1285.8	338.3	0.7139	0.0215
1324.5	338.3	0.7376	0.0184
1377.7	338.3	0.7627	0.0154
1669.6	338.3	0.912	0.0198
1889.6	338.3	1	
1187.7	353.45	0.4644	0.0164
1303.3	353.45	0.5071	0.017
1329.6	353.45	0.5172	0.0189
1351.3	353.45	0.5319	0.0187
1404.9	353.45	0.5549	0.0187
1474.4	353.45	0.5902	0.0197
2297.3	353.45	0.9121	0.0207
2605.9	353.45	1	
