Measured thermophysical data. Thermodynamic and Self-Assembly Properties of Sodium Bis(2-ethylhexyl) Sulfosuccinate in Polyethylene Glycol 200 and Water Mixed Solvent Media
Source: J. Chem. Eng. Data, 2019, 10.1021/acs.jced.8b00250
Compound 1: sodium bis(2-ethylhexyl) sulfosuccinate, C20H37NaO7S, InChI=1S/C20H38O7S.Na/c1-5-9-11-16(7-3)14-26-19(21)13-18(28(23,24)25)20(22)27-15-17(8-4)12-10-6-2;/h16-18H,5-15H2,1-4H3,(H,23,24,25);/q;+1/p-1, purity 96%
Compound 2: water, H2O, InChI=1S/H2O/h1H2, purity 99.9%

System: sodium bis(2-ethylhexyl) sulfosuccinate + water; phases: Liquid
Fixed: Pressure, kPa = 101.3
Fixed: Temperature, K = 298.15
Property: Electrical conductivity, S/m (Liquid); method: Alternating current cell with electrodes
Molality, mol/kg of sodium bis(2-ethylhexyl) sulfosuccinate	Electrical conductivity, S/m	uncertainty
0	0.000327	1.3e-05
0.1687	0.001471	5.9e-05
0.5229	0.00389	0.00016
0.8008	0.00578	0.00023
1.108	0.00786	0.00031
1.3738	0.00965	0.00039
1.6627	0.0116	0.00046
2.0147	0.01394	0.00056
2.3269	0.01613	0.00065
2.6608	0.01841	0.00074
3.0264	0.0213	0.0009
3.3984	0.0239	0.001
3.6541	0.0258	0.001
3.9499	0.0279	0.0011
4.2019	0.0296	0.0012
4.4344	0.0313	0.0013
4.6501	0.0328	0.0013
4.8957	0.0345	0.0014
5.165	0.0363	0.0015
5.5128	0.0387	0.0015
5.7816	0.0405	0.0016

System: sodium bis(2-ethylhexyl) sulfosuccinate + water; phases: Liquid
Property: Molar enthalpy of dilution, kJ/mol (Liquid); method: titration calorimetry
Initial molality of solute, mol/kg	Temperature, K	Pressure, kPa	Final molality of solute, mol/kg	Molar enthalpy of dilution, kJ/mol	uncertainty
0.0120728	298.15	101.3	0.0003516	-2.9592	0.1203
