Measured thermophysical data. Effect of Cosolvents DMSO and Glycerol on the Self-Assembly Behavior of SDBS and CPC: An Experimental and Theoretical Approach
Source: J. Chem. Eng. Data, 2018, 10.1021/acs.jced.8b00326
Compound 1: cetylpyridinium chloride, C21H38ClN, InChI=1S/C21H38N.ClH/c1-2-3-4-5-6-7-8-9-10-11-12-13-14-16-19-22-20-17-15-18-21-22;/h15,17-18,20-21H,2-14,16,19H2,1H3;1H/q+1;/p-1, purity 99%
Compound 2: glycerol, C3H8O3, InChI=1S/C3H8O3/c4-1-3(6)2-5/h3-6H,1-2H2, purity 99%
Compound 3: dimethyl sulfoxide, C2H6OS, InChI=1S/C2H6OS/c1-4(2)3/h1-2H3, purity 99%
Compound 4: water, H2O, InChI=1S/H2O/h1H2, purity 99.9%

System: water + cetylpyridinium chloride; phases: Liquid
Fixed: Pressure, kPa = 100
Property: Electrical conductivity, S/m (Liquid); method: Alternating current cell with electrodes
Temperature, K	Molality, mol/kg of cetylpyridinium chloride	Electrical conductivity, S/m	uncertainty
293.15	0	0.0005	0.0012
293.15	0.0002	0.00277	0.00124
293.15	0.0004	0.00503	0.00124
293.15	0.0006	0.0073	0.0012
293.15	0.0008	0.00906	0.0011
293.15	0.001	0.01023	0.00105
293.15	0.0012	0.01118	0.00103
293.15	0.0014	0.01204	0.00103
293.15	0.0016	0.01284	0.00103
293.15	0.0018	0.01375	0.00103
293.15	0.002	0.0145	0.001
298.15	0	0.00053	0.00125
298.15	0.0002	0.00283	0.00125
298.15	0.0004	0.00513	0.00126
298.15	0.0006	0.00755	0.00126
298.15	0.0008	0.00982	0.00113
298.15	0.001	0.01088	0.00104
298.15	0.0012	0.01178	0.00104
298.15	0.0014	0.01279	0.00105
298.15	0.0016	0.01387	0.00105
298.15	0.0018	0.01486	0.00104
298.15	0.002	0.01577	0.00114
303.15	0	0.00057	0.00128
303.15	0.0002	0.00302	0.00131
303.15	0.0004	0.00574	0.00132
303.15	0.0006	0.00831	0.00131
303.15	0.0008	0.01098	0.0013
303.15	0.001	0.0134	0.0012
303.15	0.0012	0.01481	0.00108
303.15	0.0014	0.01597	0.00107
303.15	0.0016	0.01721	0.00107
303.15	0.0018	0.01839	0.00106
303.15	0.002	0.01939	0.00102
308.15	0	0.00058	0.00135
308.15	0.0002	0.00337	0.00139
308.15	0.0004	0.00645	0.00142
308.15	0.0006	0.00954	0.00141
308.15	0.0008	0.01255	0.00139
308.15	0.001	0.01546	0.00123
308.15	0.0012	0.01702	0.0011
308.15	0.0014	0.01831	0.00108
308.15	0.0016	0.01964	0.00109
308.15	0.0018	0.021	0.0011
308.15	0.002	0.0223	0.0011

System: cetylpyridinium chloride + glycerol + water; phases: Liquid
Fixed: Pressure, kPa = 100
Property: Electrical conductivity, S/m (Liquid); method: Alternating current cell with electrodes
Temperature, K	Solvent: Mass fraction of glycerol	Molality, mol/kg of cetylpyridinium chloride	Electrical conductivity, S/m	uncertainty
293.15	0.05	0	0.00057	0.00112
293.15	0.05	0.0002	0.00217	0.00114
293.15	0.05	0.0004	0.00401	0.00116
293.15	0.05	0.0006	0.00584	0.00116
293.15	0.05	0.0008	0.00764	0.0011
293.15	0.05	0.001	0.00872	0.00103
293.15	0.05	0.0012	0.00942	0.00102
293.15	0.05	0.0014	0.01017	0.00102
293.15	0.05	0.0016	0.01093	0.00102
293.15	0.05	0.0018	0.01168	0.00102
293.15	0.05	0.002	0.01244	0.00102
298.15	0.05	0	0.0007	0.0011
298.15	0.05	0.0002	0.00241	0.00114
298.15	0.05	0.0004	0.00416	0.00115
298.15	0.05	0.0006	0.0059	0.0011
298.15	0.05	0.0008	0.00763	0.00113
298.15	0.05	0.001	0.00925	0.00108
298.15	0.05	0.0012	0.01021	0.00103
298.15	0.05	0.0014	0.01094	0.00102
298.15	0.05	0.0016	0.0117	0.001
298.15	0.05	0.0018	0.01245	0.00102
298.15	0.05	0.002	0.01321	0.00107
303.15	0.05	0	0.00076	0.00115
303.15	0.05	0.0002	0.00251	0.00117
303.15	0.05	0.0004	0.00456	0.00119
303.15	0.05	0.0006	0.00654	0.00119
303.15	0.05	0.0008	0.00851	0.00119
303.15	0.05	0.001	0.01058	0.00112
303.15	0.05	0.0012	0.01174	0.00105
303.15	0.05	0.0014	0.01268	0.00104
303.15	0.05	0.0016	0.01355	0.00103
303.15	0.05	0.0018	0.01446	0.00103
303.15	0.05	0.002	0.01531	0.00107
308.15	0.05	0	0.00077	0.00122
308.15	0.05	0.0002	0.00292	0.00123
308.15	0.05	0.0004	0.00515	0.00126
308.15	0.05	0.0006	0.00762	0.00127
308.15	0.05	0.0008	0.01001	0.00126
308.15	0.05	0.001	0.01238	0.0012
308.15	0.05	0.0012	0.01407	0.00111
308.15	0.05	0.0014	0.01546	0.00107
308.15	0.05	0.0016	0.01647	0.00105
308.15	0.05	0.0018	0.01754	0.00105
308.15	0.05	0.002	0.01861	0.00105
293.15	0.1	0	0.00075	0.0011
293.15	0.1	0.0002	0.00215	0.00109
293.15	0.1	0.0004	0.00351	0.00109
293.15	0.1	0.0006	0.0049	0.0011
293.15	0.1	0.0008	0.00632	0.00108
293.15	0.1	0.001	0.00758	0.00104
293.15	0.1	0.0012	0.00832	0.00101
293.15	0.1	0.0014	0.00891	0.00101
293.15	0.1	0.0016	0.00951	0.00101
293.15	0.1	0.0018	0.0101	0.001
293.15	0.1	0.002	0.01065	0.00105
298.15	0.1	0	0.00078	0.00111
298.15	0.1	0.0002	0.00231	0.00111
298.15	0.1	0.0004	0.00385	0.00112
298.15	0.1	0.0006	0.00545	0.00113
298.15	0.1	0.0008	0.0071	0.0011
298.15	0.1	0.001	0.00868	0.00107
298.15	0.1	0.0012	0.00959	0.00103
298.15	0.1	0.0014	0.01028	0.00102
298.15	0.1	0.0016	0.01099	0.00102
298.15	0.1	0.0018	0.01169	0.00102
298.15	0.1	0.002	0.01238	0.00103
303.15	0.1	0	0.00083	0.00112
303.15	0.1	0.0002	0.00238	0.00115
303.15	0.1	0.0004	0.00432	0.00119
303.15	0.1	0.0006	0.00643	0.0012
303.15	0.1	0.0008	0.00844	0.00119
303.15	0.1	0.001	0.01048	0.00112
303.15	0.1	0.0012	0.01156	0.00104
303.15	0.1	0.0014	0.01248	0.00104
303.15	0.1	0.0016	0.01337	0.00103
303.15	0.1	0.0018	0.01426	0.00103
303.15	0.1	0.002	0.01516	0.00101
308.15	0.1	0	0.00084	0.00126
308.15	0.1	0.0002	0.00319	0.00125
308.15	0.1	0.0004	0.00544	0.00124
308.15	0.1	0.0006	0.00772	0.00124
308.15	0.1	0.0008	0.01	0.0012
308.15	0.1	0.001	0.01208	0.00116
308.15	0.1	0.0012	0.01367	0.00109
308.15	0.1	0.0014	0.01486	0.00105
308.15	0.1	0.0016	0.01585	0.00104
308.15	0.1	0.0018	0.01684	0.00104
308.15	0.1	0.002	0.01783	0.00101
293.15	0.15	0	0.0007	0.0011
293.15	0.15	0.0002	0.00185	0.00107
293.15	0.15	0.0004	0.00308	0.00107
293.15	0.15	0.0006	0.00435	0.00108
293.15	0.15	0.0008	0.00565	0.00107
293.15	0.15	0.001	0.00688	0.00106
293.15	0.15	0.0012	0.00794	0.00103
293.15	0.15	0.0014	0.00863	0.00101
293.15	0.15	0.0016	0.00918	0.00101
293.15	0.15	0.0018	0.00977	0.00101
293.15	0.15	0.002	0.01031	0.001
298.15	0.15	0	0.00072	0.0011
298.15	0.15	0.0002	0.00224	0.0011
298.15	0.15	0.0004	0.00368	0.0011
298.15	0.15	0.0006	0.00521	0.0011
298.15	0.15	0.0008	0.00664	0.0011
298.15	0.15	0.001	0.00809	0.00106
298.15	0.15	0.0012	0.00893	0.00102
298.15	0.15	0.0014	0.00951	0.00101
298.15	0.15	0.0016	0.01015	0.00101
298.15	0.15	0.0018	0.01082	0.00102
298.15	0.15	0.002	0.01151	0.00104
303.15	0.15	0	0.00083	0.00115
303.15	0.15	0.0002	0.00262	0.00114
303.15	0.15	0.0004	0.00427	0.00113
303.15	0.15	0.0006	0.00594	0.00114
303.15	0.15	0.0008	0.00766	0.00114
303.15	0.15	0.001	0.00931	0.00109
303.15	0.15	0.0012	0.0104	0.001
303.15	0.15	0.0014	0.01119	0.00102
303.15	0.15	0.0016	0.01195	0.00102
303.15	0.15	0.0018	0.01271	0.00102
303.15	0.15	0.002	0.01351	0.00104
308.15	0.15	0	0.00088	0.00122
308.15	0.15	0.0002	0.00315	0.00119
308.15	0.15	0.0004	0.00491	0.00116
308.15	0.15	0.0006	0.00683	0.00118
308.15	0.15	0.0008	0.00881	0.00118
308.15	0.15	0.001	0.0107	0.0011
308.15	0.15	0.0012	0.01231	0.00108
308.15	0.15	0.0014	0.01337	0.00104
308.15	0.15	0.0016	0.01426	0.00103
308.15	0.15	0.0018	0.01516	0.00103
308.15	0.15	0.002	0.01605	0.00106
293.15	0.2	0	0.0009	0.001
293.15	0.2	0.0002	0.00188	0.00105
293.15	0.2	0.0004	0.00297	0.00105
293.15	0.2	0.0006	0.00405	0.00105
293.15	0.2	0.0008	0.00517	0.00106
293.15	0.2	0.001	0.00635	0.00105
293.15	0.2	0.0012	0.00732	0.00102
293.15	0.2	0.0014	0.00792	0.00101
293.15	0.2	0.0016	0.00842	0.001
293.15	0.2	0.0018	0.00891	0.001
293.15	0.2	0.002	0.00942	0.001
298.15	0.2	0	0.001	0.0011
298.15	0.2	0.0002	0.00222	0.00108
298.15	0.2	0.0004	0.00359	0.00109
298.15	0.2	0.0006	0.00495	0.00109
298.15	0.2	0.0008	0.00633	0.00109
298.15	0.2	0.001	0.00776	0.00108
298.15	0.2	0.0012	0.00888	0.00103
298.15	0.2	0.0014	0.00951	0.00101
298.15	0.2	0.0016	0.0101	0.001
298.15	0.2	0.0018	0.01076	0.00101
298.15	0.2	0.002	0.01139	0.00099
303.15	0.2	0	0.0011	0.0012
303.15	0.2	0.0002	0.0029	0.0011
303.15	0.2	0.0004	0.00436	0.0011
303.15	0.2	0.0006	0.00584	0.00109
303.15	0.2	0.0008	0.00719	0.00109
303.15	0.2	0.001	0.00861	0.00107
303.15	0.2	0.0012	0.00965	0.00102
303.15	0.2	0.0014	0.0102	0.001
303.15	0.2	0.0016	0.01085	0.00101
303.15	0.2	0.0018	0.0115	0.001
303.15	0.2	0.002	0.01218	0.00109
308.15	0.2	0	0.0012	0.0012
308.15	0.2	0.0002	0.00319	0.00116
308.15	0.2	0.0004	0.00483	0.00113
308.15	0.2	0.0006	0.00653	0.00114
308.15	0.2	0.0008	0.00827	0.00114
308.15	0.2	0.001	0.00998	0.00112
308.15	0.2	0.0012	0.01149	0.00107
308.15	0.2	0.0014	0.01248	0.00104
308.15	0.2	0.0016	0.01347	0.00103
308.15	0.2	0.0018	0.01428	0.00103
308.15	0.2	0.002	0.01509	0.00103

System: cetylpyridinium chloride + dimethyl sulfoxide + water; phases: Liquid
Fixed: Pressure, kPa = 100
Property: Electrical conductivity, S/m (Liquid); method: Alternating current cell with electrodes
Temperature, K	Solvent: Mass fraction of dimethyl sulfoxide	Molality, mol/kg of cetylpyridinium chloride	Electrical conductivity, S/m	uncertainty
293.15	0.05	0	0.0006	0.0011
293.15	0.05	0.0002	0.00209	0.00111
293.15	0.05	0.0004	0.00369	0.00113
293.15	0.05	0.0006	0.00535	0.00114
293.15	0.05	0.0008	0.00714	0.00112
293.15	0.05	0.001	0.00853	0.00106
293.15	0.05	0.0012	0.00945	0.00103
293.15	0.05	0.0014	0.01016	0.00102
293.15	0.05	0.0016	0.01088	0.00102
293.15	0.05	0.0018	0.01158	0.00102
293.15	0.05	0.002	0.01231	0.00102
298.15	0.05	0	0.00065	0.00115
298.15	0.05	0.0002	0.00239	0.00115
298.15	0.05	0.0004	0.00418	0.00116
298.15	0.05	0.0006	0.00604	0.00115
298.15	0.05	0.0008	0.00776	0.00114
298.15	0.05	0.001	0.00945	0.00111
298.15	0.05	0.0012	0.01075	0.00106
298.15	0.05	0.0014	0.01169	0.00103
298.15	0.05	0.0016	0.01241	0.00102
298.15	0.05	0.0018	0.01317	0.00102
298.15	0.05	0.002	0.01396	0.00105
303.15	0.05	0	0.00068	0.00114
303.15	0.05	0.0002	0.00241	0.00116
303.15	0.05	0.0004	0.00436	0.0012
303.15	0.05	0.0006	0.00654	0.00121
303.15	0.05	0.0008	0.00862	0.00119
303.15	0.05	0.001	0.01059	0.00117
303.15	0.05	0.0012	0.01241	0.00111
303.15	0.05	0.0014	0.01367	0.00105
303.15	0.05	0.0016	0.01456	0.00103
303.15	0.05	0.0018	0.01545	0.00103
303.15	0.05	0.002	0.01635	0.00101
308.15	0.05	0	0.0007	0.0012
308.15	0.05	0.0002	0.00258	0.00119
308.15	0.05	0.0004	0.00475	0.00124
308.15	0.05	0.0006	0.00713	0.00125
308.15	0.05	0.0008	0.00941	0.00123
308.15	0.05	0.001	0.01159	0.00121
308.15	0.05	0.0012	0.01365	0.00113
308.15	0.05	0.0014	0.01486	0.00105
308.15	0.05	0.0016	0.01585	0.00104
308.15	0.05	0.0018	0.01684	0.00104
308.15	0.05	0.002	0.01783	0.00104
293.15	0.1	0	0.00065	0.00108
293.15	0.1	0.0002	0.00194	0.00109
293.15	0.1	0.0004	0.00339	0.0011
293.15	0.1	0.0006	0.00487	0.0011
293.15	0.1	0.0008	0.00633	0.00111
293.15	0.1	0.001	0.00785	0.00112
293.15	0.1	0.0012	0.00952	0.00108
293.15	0.1	0.0014	0.0104	0.001
293.15	0.1	0.0016	0.01101	0.00101
293.15	0.1	0.0018	0.01167	0.00101
293.15	0.1	0.002	0.01229	0.00101
298.15	0.1	0	0.00069	0.00108
298.15	0.1	0.0002	0.00201	0.0011
298.15	0.1	0.0004	0.00363	0.00113
298.15	0.1	0.0006	0.00535	0.00114
298.15	0.1	0.0008	0.00709	0.00114
298.15	0.1	0.001	0.00882	0.00114
298.15	0.1	0.0012	0.01056	0.00108
298.15	0.1	0.0014	0.01148	0.00103
298.15	0.1	0.0016	0.01221	0.00102
298.15	0.1	0.0018	0.01295	0.00102
298.15	0.1	0.002	0.01373	0.00103
303.15	0.1	0	0.0007	0.0011
303.15	0.1	0.0002	0.00231	0.00113
303.15	0.1	0.0004	0.00406	0.00116
303.15	0.1	0.0006	0.00594	0.00116
303.15	0.1	0.0008	0.00774	0.00117
303.15	0.1	0.001	0.00967	0.00119
303.15	0.1	0.0012	0.01171	0.00113
303.15	0.1	0.0014	0.01291	0.00105
303.15	0.1	0.0016	0.01376	0.00103
303.15	0.1	0.0018	0.01457	0.00103
303.15	0.1	0.002	0.01536	0.00106
308.15	0.1	0	0.00072	0.00112
308.15	0.1	0.0002	0.00234	0.00117
308.15	0.1	0.0004	0.00445	0.00121
308.15	0.1	0.0006	0.00654	0.00123
308.15	0.1	0.0008	0.00885	0.00125
308.15	0.1	0.001	0.01112	0.00124
308.15	0.1	0.0012	0.01335	0.00113
308.15	0.1	0.0014	0.01445	0.00104
308.15	0.1	0.0016	0.01535	0.00104
308.15	0.1	0.0018	0.01634	0.00104
308.15	0.1	0.002	0.01733	0.00107
293.15	0.15	0	0.0007	0.001
293.15	0.15	0.0002	0.00155	0.00106
293.15	0.15	0.0004	0.003	0.0011
293.15	0.15	0.0006	0.00449	0.00111
293.15	0.15	0.0008	0.00601	0.00111
293.15	0.15	0.001	0.00753	0.00112
293.15	0.15	0.0012	0.00912	0.00108
293.15	0.15	0.0014	0.0101	0.001
293.15	0.15	0.0016	0.01081	0.00102
293.15	0.15	0.0018	0.0115	0.001
293.15	0.15	0.002	0.01218	0.001
298.15	0.15	0	0.00074	0.00103
298.15	0.15	0.0002	0.00161	0.00107
298.15	0.15	0.0004	0.00317	0.00112
298.15	0.15	0.0006	0.00481	0.00113
298.15	0.15	0.0008	0.00649	0.00114
298.15	0.15	0.001	0.00821	0.00113
298.15	0.15	0.0012	0.00985	0.0011
298.15	0.15	0.0014	0.01106	0.00106
298.15	0.15	0.0016	0.01208	0.00103
298.15	0.15	0.0018	0.01287	0.00102
298.15	0.15	0.002	0.01365	0.00103
303.15	0.15	0	0.00075	0.00104
303.15	0.15	0.0002	0.00168	0.0011
303.15	0.15	0.0004	0.00368	0.00118
303.15	0.15	0.0006	0.00553	0.00118
303.15	0.15	0.0008	0.00752	0.00119
303.15	0.15	0.001	0.00951	0.0012
303.15	0.15	0.0012	0.01159	0.00114
303.15	0.15	0.0014	0.01291	0.00106
303.15	0.15	0.0016	0.01386	0.00104
303.15	0.15	0.0018	0.01486	0.00104
303.15	0.15	0.002	0.01575	0.00101
308.15	0.15	0	0.00076	0.00106
308.15	0.15	0.0002	0.00192	0.00113
308.15	0.15	0.0004	0.00406	0.00122
308.15	0.15	0.0006	0.00624	0.00124
308.15	0.15	0.0008	0.00862	0.00124
308.15	0.15	0.001	0.0108	0.0012
308.15	0.15	0.0012	0.01308	0.00116
308.15	0.15	0.0014	0.01442	0.00106
308.15	0.15	0.0016	0.01545	0.00105
308.15	0.15	0.0018	0.01653	0.00105
308.15	0.15	0.002	0.0176	0.001
293.15	0.2	0	0.0008	0.001
293.15	0.2	0.0002	0.00141	0.00104
293.15	0.2	0.0004	0.00272	0.00109
293.15	0.2	0.0006	0.00411	0.00109
293.15	0.2	0.0008	0.00555	0.00109
293.15	0.2	0.001	0.00688	0.00108
293.15	0.2	0.0012	0.00821	0.00106
293.15	0.2	0.0014	0.00925	0.00104
293.15	0.2	0.0016	0.01008	0.00102
293.15	0.2	0.0018	0.01074	0.00101
293.15	0.2	0.002	0.01141	0.00102
298.15	0.2	0	0.00082	0.00102
298.15	0.2	0.0002	0.00154	0.00105
298.15	0.2	0.0004	0.00295	0.0011
298.15	0.2	0.0006	0.00445	0.00111
298.15	0.2	0.0008	0.00594	0.00111
298.15	0.2	0.001	0.00753	0.00111
298.15	0.2	0.0012	0.00904	0.00111
298.15	0.2	0.0014	0.01061	0.00108
298.15	0.2	0.0016	0.01169	0.00103
298.15	0.2	0.0018	0.01243	0.00102
298.15	0.2	0.002	0.01317	0.00101
303.15	0.2	0	0.00085	0.00103
303.15	0.2	0.0002	0.00172	0.00107
303.15	0.2	0.0004	0.0033	0.0011
303.15	0.2	0.0006	0.00491	0.00113
303.15	0.2	0.0008	0.00664	0.00114
303.15	0.2	0.001	0.00832	0.00113
303.15	0.2	0.0012	0.00998	0.00115
303.15	0.2	0.0014	0.01182	0.00111
303.15	0.2	0.0016	0.01301	0.00105
303.15	0.2	0.0018	0.01386	0.00103
303.15	0.2	0.002	0.01467	0.00105
308.15	0.2	0	0.00086	0.00105
308.15	0.2	0.0002	0.00188	0.00109
308.15	0.2	0.0004	0.00369	0.00116
308.15	0.2	0.0006	0.00554	0.00118
308.15	0.2	0.0008	0.00753	0.00118
308.15	0.2	0.001	0.00941	0.00118
308.15	0.2	0.0012	0.01145	0.00122
308.15	0.2	0.0014	0.01377	0.00116
308.15	0.2	0.0016	0.01506	0.00106
308.15	0.2	0.0018	0.01604	0.00104
308.15	0.2	0.002	0.01701	0.00104
