Measured thermophysical data. Measurement of Viscosity of cis-1,1,1,4,4,4-Hexafluoro-2-butene (R-1336mzz(Z)) by Tandem Capillary Tubes Method
Source: J. Chem. Eng. Data, 2018, 10.1021/acs.jced.8b00036
Compound 1: (Z)-1,1,1,4,4,4-hexafluorobut-2-ene, C4H2F6, InChI=1S/C4H2F6/c5-3(6,7)1-2-4(8,9)10/h1-2H/b2-1-, purity 99.95%
Compound 2: 1,1,1,2-tetrafluoroethane, C2H2F4, InChI=1S/C2H2F4/c3-1-2(4,5)6/h1H2, purity 99.5%

System: (Z)-1,1,1,4,4,4-hexafluorobut-2-ene; phases: Liquid
Property: Viscosity, Pa*s (Liquid); method: Capillary tube (Ostwald; Ubbelohde) method
Temperature, K	Pressure, kPa	Viscosity, Pa*s	uncertainty
313.95	4049	0.0003197	1.932e-05
313.94	4041	0.00031978	1.932e-05
313.96	4002	0.0003194	1.93e-05
313.94	3001	0.00031457	1.901e-05
313.95	3000	0.00031428	1.899e-05
313.94	2996	0.00031432	1.9e-05
313.95	2025	0.00030977	1.872e-05
313.94	2037	0.00030967	1.872e-05
313.92	2053	0.00031145	1.883e-05
314.27	1041	0.00030684	1.857e-05
314.26	1040	0.00030737	1.858e-05
314.31	1050	0.00030811	1.864e-05
313.84	514	0.00030364	1.835e-05
313.84	513	0.00030345	1.834e-05
313.83	513	0.00030374	1.836e-05
331.87	4059	0.00026513	1.613e-05
331.85	4047	0.00026519	1.613e-05
331.84	4062	0.00026583	1.614e-05
331.94	3040	0.00026172	1.585e-05
331.94	3026	0.00026077	1.58e-05
331.94	3039	0.00026172	1.585e-05
331.57	2033	0.00025996	1.573e-05
331.57	2020	0.00025928	1.57e-05
331.57	2020	0.00025991	1.573e-05
331.82	1017	0.00025904	1.567e-05
331.83	1015	0.00025879	1.565e-05
331.81	1002	0.0002579	1.56e-05
331.5	503	0.00025774	1.559e-05
331.5	505	0.00025786	1.56e-05
331.51	506	0.00025779	1.559e-05
353.79	4019	0.00021218	1.285e-05
353.8	4020	0.00021202	1.284e-05
353.8	4020	0.00021171	1.282e-05
354.1	3021	0.00020317	1.231e-05
354.08	3022	0.00020466	1.24e-05
354	2064	0.00020101	1.218e-05
353.99	2066	0.0002011	1.219e-05
353.99	2067	0.00020106	1.218e-05
354.24	1031	0.00019303	1.17e-05
354.23	1032	0.00019437	1.178e-05
354.23	1033	0.00019417	1.177e-05
374.43	4050	0.00017023	1.033e-05
374.44	4050	0.00017052	1.035e-05
374.43	4056	0.00017016	1.033e-05
374.75	3026	0.00016349	9.93e-06
374.74	3026	0.00016321	9.91e-06
374.74	3026	0.00016447	9.99e-06
374.44	2025	0.0001613	9.79e-06
374.45	2025	0.00016181	9.83e-06
374.46	2025	0.00016111	9.78e-06
393.65	4017	0.00013771	8.38e-06
393.65	4017	0.00013799	8.4e-06
393.65	4017	0.00013781	8.38e-06
393.65	3044	0.00013319	8.11e-06
393.64	3044	0.00013393	8.15e-06
393.63	3044	0.00013361	8.13e-06
394.03	2016	0.00012822	7.81e-06
394.01	2016	0.000128	7.8e-06
394	2016	0.00012785	7.79e-06
413.56	4047	0.00011003	6.72e-06
413.56	4047	0.00011003	6.72e-06
413.55	4046	0.00011044	6.74e-06
413.63	3011	0.00010299	6.3e-06
413.63	3015	0.00010302	6.31e-06
413.75	3010	0.00010288	6.3e-06
434.37	4014	8.047e-05	4.95e-06
434.37	4014	8.072e-05	4.97e-06
434.37	4014	8.096e-05	4.98e-06
434.13	3016	7.045e-05	4.36e-06
434.12	3016	7.044e-05	4.36e-06
434.12	3016	7.094e-05	4.39e-06

System: (Z)-1,1,1,4,4,4-hexafluorobut-2-ene; phases: Gas
Property: Viscosity, Pa*s (Gas); method: Capillary tube (Ostwald; Ubbelohde) method
Temperature, K	Pressure, kPa	Viscosity, Pa*s	uncertainty
374.87	492	1.3e-05	8.2e-07
374.88	492	1.305e-05	8.2e-07
394.16	499	1.348e-05	8.5e-07
394.19	499	1.343e-05	8.5e-07
414.21	503	1.361e-05	8.6e-07
413.99	503	1.378e-05	8.7e-07
414.24	1014	1.449e-05	9.2e-07
414.29	1033	1.434e-05	9.1e-07
414.29	1033	1.444e-05	9.1e-07
434.28	1012	1.443e-05	9.1e-07
434.28	1011	1.451e-05	9.2e-07
434.23	503	1.384e-05	8.7e-07
434.23	502	1.388e-05	8.8e-07
454.24	506	1.429e-05	9e-07
454.27	506	1.43e-05	9e-07
454.34	1003	1.547e-05	9.7e-07
454.34	1003	1.568e-05	9.9e-07
454.57	2031	1.628e-05	1.03e-06
454.58	2030	1.633e-05	1.03e-06
474.84	2004	1.661e-05	1.05e-06
474.83	2004	1.69e-05	1.06e-06
474.85	1000	1.579e-05	9.9e-07
474.82	999	1.587e-05	1e-06
473.27	509	2.101e-05	1.33e-06
474.69	500	1.519e-05	9.8e-07
474.67	500	1.52e-05	9.8e-07

System: 1,1,1,2-tetrafluoroethane; phases: Liquid
Property: Viscosity, Pa*s (Liquid); method: Capillary tube (Ostwald; Ubbelohde) method
Temperature, K	Pressure, kPa	Viscosity, Pa*s	uncertainty
313.5	1796	0.00016557	1.006e-05
313.01	1763	0.00016539	1.005e-05
312.96	1701	0.00016499	1.003e-05
312.83	1706	0.00016557	1.006e-05
312.82	4048	0.00017303	1.051e-05
312.76	4069	0.00017314	1.051e-05
312.75	4064	0.00017228	1.047e-05
312.77	3061	0.00016806	1.021e-05
312.78	3061	0.00016817	1.022e-05
312.78	3042	0.00016842	1.023e-05
332.81	4011	0.00013252	8.07e-06
332.81	4008	0.00013245	8.07e-06
332.8	4005	0.00013252	8.07e-06
332.8	3079	0.00012823	7.82e-06
332.79	3083	0.00012841	7.83e-06
332.79	3072	0.00012788	7.8e-06
354.96	4007	9.565e-05	5.86e-06
355.51	4078	9.407e-05	5.77e-06
355.94	4155	9.335e-05	5.73e-06
