Measured thermophysical data. Solubility Determination, Modeling, and Preferential Solvation of Terephthalaldehydic Acid Dissolvend in Aqueous Solvent Mixtures of Methanol, Ethanol, Isopropanol, and N-Methyl-2-pyrrolidone
Source: J. Chem. Eng. Data, 2019, 10.1021/acs.jced.8b01262
Compound 1: 4-carboxybenzaldehyde, C8H6O3, InChI=1S/C8H6O3/c9-5-6-1-3-7(4-2-6)8(10)11/h1-5H,(H,10,11), purity 98.8%
Compound 2: ethanol, C2H6O, InChI=1S/C2H6O/c1-2-3/h3H,2H2,1H3, purity 99.4%
Compound 3: propan-2-ol, C3H8O, InChI=1S/C3H8O/c1-3(2)4/h3-4H,1-2H3, purity 99.4%
Compound 4: N-methylpyrrolidone, C5H9NO, InChI=1S/C5H9NO/c1-6-4-2-3-5(6)7/h2-4H2,1H3, purity 99.4%
Compound 5: methanol, CH4O, InChI=1S/CH4O/c1-2/h2H,1H3, purity 99.4%
Compound 6: water, H2O, InChI=1S/H2O/h1H2, purity 99.9%

System: 4-carboxybenzaldehyde + N-methylpyrrolidone + water; phases: Liquid, Crystal
Fixed: Pressure, kPa = 101.1
Property: Mole fraction of 4-carboxybenzaldehyde (Liquid); method: Chromatography
Solvent: Mass fraction of N-methylpyrrolidone	Temperature, K	Mole fraction of 4-carboxybenzaldehyde	uncertainty
0	283.15	2.146e-05	4.29e-06
0	288.15	2.827e-05	5.65e-06
0	293.15	3.615e-05	7.23e-06
0	298.15	4.645e-05	9.29e-06
0	303.15	5.906e-05	1.181e-05
0	308.15	7.67e-05	1.534e-05
0	313.15	9.572e-05	1.915e-05
0	318.15	0.00012	2.4e-05
0	323.15	0.0001482	2.96e-05
0.1	283.15	8.103e-05	1.621e-05
0.1	288.15	0.000103	2.06e-05
0.1	293.15	0.0001286	2.57e-05
0.1	298.15	0.0001644	3.29e-05
0.1	303.15	0.0002137	4.28e-05
0.1	308.15	0.0002689	5.38e-05
0.1	313.15	0.00033	6.6e-05
0.1	318.15	0.0003985	7.97e-05
0.1	323.15	0.0004851	9.71e-05
0.2	283.15	0.0002137	4.27e-05
0.2	288.15	0.0002667	5.34e-05
0.2	293.15	0.00034	6.8e-05
0.2	298.15	0.0004236	8.47e-05
0.2	303.15	0.0005289	0.0001058
0.2	308.15	0.0006479	0.0001296
0.2	313.15	0.0007925	0.0001585
0.2	318.15	0.0009626	0.0001926
0.2	323.15	0.00119	0.000238
0.3	283.15	0.0004543	9.09e-05
0.3	288.15	0.0005486	0.0001097
0.3	293.15	0.0006845	0.0001369
0.3	298.15	0.000854	0.0001708
0.3	303.15	0.00104	0.000208
0.3	308.15	0.001245	0.000249
0.3	313.15	0.001516	0.000303
0.3	318.15	0.001801	0.00036
0.3	323.15	0.002113	0.000423
0.4	283.15	0.0009898	0.000198
0.4	288.15	0.001235	0.000247
0.4	293.15	0.001491	0.000298
0.4	298.15	0.001845	0.000369
0.4	303.15	0.002174	0.000435
0.4	308.15	0.002647	0.00053
0.4	313.15	0.003118	0.000624
0.4	318.15	0.003644	0.000729
0.4	323.15	0.004293	0.000859
0.5	283.15	0.002192	0.000438
0.5	288.15	0.002582	0.000516
0.5	293.15	0.003118	0.000624
0.5	298.15	0.003765	0.000753
0.5	303.15	0.004509	0.000902
0.5	308.15	0.005445	0.001089
0.5	313.15	0.00631	0.001262
0.5	318.15	0.007314	0.001463
0.5	323.15	0.008407	0.001682
0.6	283.15	0.003859	0.000772
0.6	288.15	0.004621	0.000924
0.6	293.15	0.005626	0.001125
0.6	298.15	0.006683	0.001337
0.6	303.15	0.008069	0.001614
0.6	308.15	0.009352	0.001871
0.6	313.15	0.01084	0.00217
0.6	318.15	0.01298	0.0026
0.6	323.15	0.01517	0.00303
0.7	283.15	0.007873	0.001575
0.7	288.15	0.009276	0.001856
0.7	293.15	0.01075	0.00215
0.7	298.15	0.01288	0.00258
0.7	303.15	0.01542	0.00308
0.7	308.15	0.01832	0.00366
0.7	313.15	0.02105	0.00421
0.7	318.15	0.0246	0.00492
0.7	323.15	0.02898	0.0058
0.8	283.15	0.01504	0.00301
0.8	288.15	0.01802	0.0036
0.8	293.15	0.02158	0.00432
0.8	298.15	0.0248	0.00496
0.8	303.15	0.02946	0.00589
0.8	308.15	0.03415	0.00683
0.8	313.15	0.03958	0.00792
0.8	318.15	0.04625	0.00925
0.8	323.15	0.05273	0.01055
0.9	283.15	0.03224	0.00645
0.9	288.15	0.0383	0.00766
0.9	293.15	0.04587	0.00918
0.9	298.15	0.0536	0.01072
0.9	303.15	0.06263	0.01253
0.9	308.15	0.07319	0.01464
0.9	313.15	0.08344	0.01669
0.9	318.15	0.09436	0.01888
0.9	323.15	0.109	0.0218
1	283.15	0.06539	0.01308
1	288.15	0.07674	0.01535
1	293.15	0.08967	0.01794
1	298.15	0.1044	0.0209
1	303.15	0.121	0.0242
1	308.15	0.1397	0.0279
1	313.15	0.1607	0.0321
1	318.15	0.1843	0.0369
1	323.15	0.2106	0.0421

System: 4-carboxybenzaldehyde + methanol + water; phases: Liquid, Crystal
Fixed: Pressure, kPa = 101.1
Property: Mole fraction of 4-carboxybenzaldehyde (Liquid); method: Chromatography
Solvent: Mass fraction of methanol	Temperature, K	Mole fraction of 4-carboxybenzaldehyde	uncertainty
0	283.15	2.146e-05	3.01e-06
0	288.15	2.827e-05	3.96e-06
0	293.15	3.615e-05	5.06e-06
0	298.15	4.645e-05	6.5e-06
0	303.15	5.906e-05	8.27e-06
0	308.15	7.67e-05	1.074e-05
0	313.15	9.572e-05	1.34e-05
0	318.15	0.00012	1.68e-05
0	323.15	0.0001482	2.08e-05
0.1	283.15	3.891e-05	5.45e-06
0.1	288.15	5.123e-05	7.17e-06
0.1	293.15	6.66e-05	9.33e-06
0.1	298.15	8.413e-05	1.178e-05
0.1	303.15	0.0001076	1.51e-05
0.1	308.15	0.0001334	1.87e-05
0.1	313.15	0.0001675	2.35e-05
0.1	318.15	0.000209	2.93e-05
0.1	323.15	0.0002591	3.63e-05
0.2	283.15	5.962e-05	8.35e-06
0.2	288.15	7.766e-05	1.088e-05
0.2	293.15	9.75e-05	1.365e-05
0.2	298.15	0.0001254	1.76e-05
0.2	303.15	0.0001556	2.18e-05
0.2	308.15	0.0001941	2.72e-05
0.2	313.15	0.0002407	3.37e-05
0.2	318.15	0.0003022	4.23e-05
0.2	323.15	0.0003679	5.15e-05
0.3	283.15	9.506e-05	1.331e-05
0.3	288.15	0.0001206	1.69e-05
0.3	293.15	0.000152	2.13e-05
0.3	298.15	0.0001905	2.67e-05
0.3	303.15	0.0002374	3.32e-05
0.3	308.15	0.0002942	4.12e-05
0.3	313.15	0.0003628	5.08e-05
0.3	318.15	0.0004451	6.23e-05
0.3	323.15	0.0005435	7.61e-05
0.4	283.15	0.0001848	2.59e-05
0.4	288.15	0.0002263	3.17e-05
0.4	293.15	0.0002859	4e-05
0.4	298.15	0.0003589	5.03e-05
0.4	303.15	0.0004424	6.2e-05
0.4	308.15	0.0005452	7.63e-05
0.4	313.15	0.0006533	9.15e-05
0.4	318.15	0.0007997	0.000112
0.4	323.15	0.0009467	0.0001326
0.5	283.15	0.000313	4.38e-05
0.5	288.15	0.0003806	5.33e-05
0.5	293.15	0.0004618	6.47e-05
0.5	298.15	0.0005592	7.83e-05
0.5	303.15	0.0006758	9.46e-05
0.5	308.15	0.000815	0.0001141
0.5	313.15	0.0009809	0.0001374
0.5	318.15	0.00118	0.000165
0.5	323.15	0.00141	0.000197
0.6	283.15	0.0006808	9.54e-05
0.6	288.15	0.0008081	0.0001132
0.6	293.15	0.0009593	0.0001344
0.6	298.15	0.001141	0.00016
0.6	303.15	0.00135	0.000189
0.6	308.15	0.001601	0.000224
0.6	313.15	0.001901	0.000266
0.6	318.15	0.00225	0.000315
0.6	323.15	0.002671	0.000374
0.7	283.15	0.001581	0.000221
0.7	288.15	0.00183	0.000256
0.7	293.15	0.002121	0.000297
0.7	298.15	0.00247	0.000346
0.7	303.15	0.002861	0.000401
0.7	308.15	0.00335	0.000469
0.7	313.15	0.003901	0.000546
0.7	318.15	0.00456	0.000639
0.7	323.15	0.005341	0.000748
0.8	283.15	0.003281	0.000459
0.8	288.15	0.00388	0.000543
0.8	293.15	0.004511	0.000632
0.8	298.15	0.00514	0.00072
0.8	303.15	0.005871	0.000822
0.8	308.15	0.00673	0.000942
0.8	313.15	0.007751	0.001085
0.8	318.15	0.00893	0.001251
0.8	323.15	0.01004	0.00141
0.9	283.15	0.0055	0.00077
0.9	288.15	0.006411	0.000898
0.9	293.15	0.00711	0.000996
0.9	298.15	0.00813	0.001138
0.9	303.15	0.009211	0.00129
0.9	308.15	0.01044	0.00146
0.9	313.15	0.01179	0.00165
0.9	318.15	0.01344	0.00188
0.9	323.15	0.01492	0.00209
1	283.15	0.00781	0.001094
1	288.15	0.008991	0.001259
1	293.15	0.009991	0.001399
1	298.15	0.0115	0.00161
1	303.15	0.01285	0.0018
1	308.15	0.01444	0.00202
1	313.15	0.01633	0.00229
1	318.15	0.0178	0.00249
1	323.15	0.02001	0.0028

System: 4-carboxybenzaldehyde + ethanol + water; phases: Liquid, Crystal
Fixed: Pressure, kPa = 101.1
Property: Mole fraction of 4-carboxybenzaldehyde (Liquid); method: Chromatography
Solvent: Mass fraction of ethanol	Temperature, K	Mole fraction of 4-carboxybenzaldehyde	uncertainty
0	283.15	2.146e-05	4.29e-06
0	288.15	2.827e-05	5.65e-06
0	293.15	3.615e-05	7.23e-06
0	298.15	4.645e-05	9.29e-06
0	303.15	5.906e-05	1.181e-05
0	308.15	7.67e-05	1.534e-05
0	313.15	9.572e-05	1.915e-05
0	318.15	0.00012	2.4e-05
0	323.15	0.0001482	2.96e-05
0.1	283.15	3.325e-05	6.65e-06
0.1	288.15	4.183e-05	8.37e-06
0.1	293.15	5.545e-05	1.109e-05
0.1	298.15	6.885e-05	1.377e-05
0.1	303.15	8.95e-05	1.79e-05
0.1	308.15	0.0001118	2.24e-05
0.1	313.15	0.0001407	2.81e-05
0.1	318.15	0.0001747	3.49e-05
0.1	323.15	0.0002212	4.43e-05
0.2	283.15	6.448e-05	1.29e-05
0.2	288.15	8.272e-05	1.655e-05
0.2	293.15	0.0001048	2.1e-05
0.2	298.15	0.0001344	2.69e-05
0.2	303.15	0.0001669	3.34e-05
0.2	308.15	0.0002058	4.12e-05
0.2	313.15	0.0002589	5.18e-05
0.2	318.15	0.0003215	6.43e-05
0.2	323.15	0.0003991	7.98e-05
0.3	283.15	0.0001234	2.47e-05
0.3	288.15	0.0001594	3.19e-05
0.3	293.15	0.0001979	3.96e-05
0.3	298.15	0.0002506	5.01e-05
0.3	303.15	0.0003152	6.31e-05
0.3	308.15	0.0003939	7.88e-05
0.3	313.15	0.0004748	9.5e-05
0.3	318.15	0.0005848	0.000117
0.3	323.15	0.0007156	0.0001432
0.4	283.15	0.0002705	5.41e-05
0.4	288.15	0.0003396	6.79e-05
0.4	293.15	0.0004264	8.53e-05
0.4	298.15	0.000532	0.0001064
0.4	303.15	0.0006721	0.0001344
0.4	308.15	0.0008441	0.0001689
0.4	313.15	0.00102	0.000204
0.4	318.15	0.00125	0.00025
0.4	323.15	0.00149	0.000298
0.5	283.15	0.000586	0.0001172
0.5	288.15	0.0007276	0.0001455
0.5	293.15	0.0008982	0.0001797
0.5	298.15	0.001111	0.000222
0.5	303.15	0.00135	0.00027
0.5	308.15	0.001641	0.000328
0.5	313.15	0.00198	0.000396
0.5	318.15	0.002381	0.000476
0.5	323.15	0.00286	0.000572
0.6	283.15	0.001089	0.000218
0.6	288.15	0.001325	0.000265
0.6	293.15	0.001603	0.000321
0.6	298.15	0.001964	0.000393
0.6	303.15	0.002344	0.000469
0.6	308.15	0.002835	0.000567
0.6	313.15	0.003407	0.000681
0.6	318.15	0.0041	0.00082
0.6	323.15	0.00482	0.000964
0.7	283.15	0.001931	0.000386
0.7	288.15	0.00232	0.000464
0.7	293.15	0.002791	0.000558
0.7	298.15	0.00334	0.000668
0.7	303.15	0.003991	0.000798
0.7	308.15	0.00476	0.000952
0.7	313.15	0.005661	0.001132
0.7	318.15	0.00669	0.001338
0.7	323.15	0.007901	0.00158
0.8	283.15	0.00303	0.000606
0.8	288.15	0.00361	0.000722
0.8	293.15	0.0044	0.00088
0.8	298.15	0.005217	0.001044
0.8	303.15	0.00648	0.001296
0.8	308.15	0.007571	0.001514
0.8	313.15	0.00895	0.00179
0.8	318.15	0.01041	0.00208
0.8	323.15	0.01204	0.00241
0.9	283.15	0.004781	0.000956
0.9	288.15	0.005761	0.001152
0.9	293.15	0.00678	0.001356
0.9	298.15	0.008149	0.00163
0.9	303.15	0.00981	0.001962
0.9	308.15	0.01159	0.00232
0.9	313.15	0.01357	0.00271
0.9	318.15	0.01586	0.00317
0.9	323.15	0.01827	0.00365
1	283.15	0.008149	0.00163
1	288.15	0.009728	0.001946
1	293.15	0.01155	0.00231
1	298.15	0.01336	0.00267
1	303.15	0.01553	0.00311
1	308.15	0.01811	0.00362
1	313.15	0.02109	0.00422
1	318.15	0.02461	0.00492
1	323.15	0.02805	0.00561

System: 4-carboxybenzaldehyde + propan-2-ol + water; phases: Liquid, Crystal
Fixed: Pressure, kPa = 101.1
Property: Mole fraction of 4-carboxybenzaldehyde (Liquid); method: Chromatography
Solvent: Mass fraction of propan-2-ol	Temperature, K	Mole fraction of 4-carboxybenzaldehyde	uncertainty
0	283.15	2.146e-05	4.29e-06
0	288.15	2.827e-05	5.65e-06
0	293.15	3.615e-05	7.23e-06
0	298.15	4.645e-05	9.29e-06
0	303.15	5.906e-05	1.181e-05
0	308.15	7.67e-05	1.534e-05
0	313.15	9.572e-05	1.915e-05
0	318.15	0.00012	2.4e-05
0	323.15	0.0001482	2.96e-05
0.1	283.15	4.073e-05	8.15e-06
0.1	288.15	5.305e-05	1.061e-05
0.1	293.15	6.91e-05	1.382e-05
0.1	298.15	8.946e-05	1.79e-05
0.1	303.15	0.0001144	2.29e-05
0.1	308.15	0.0001445	2.89e-05
0.1	313.15	0.0001803	3.61e-05
0.1	318.15	0.0002277	4.55e-05
0.1	323.15	0.0002756	5.51e-05
0.2	283.15	8.321e-05	1.664e-05
0.2	288.15	0.0001094	2.19e-05
0.2	293.15	0.0001413	2.83e-05
0.2	298.15	0.0001802	3.6e-05
0.2	303.15	0.0002291	4.58e-05
0.2	308.15	0.0002883	5.77e-05
0.2	313.15	0.0003592	7.19e-05
0.2	318.15	0.0004454	8.91e-05
0.2	323.15	0.0005475	0.0001095
0.3	283.15	0.0001576	3.15e-05
0.3	288.15	0.0002034	4.07e-05
0.3	293.15	0.0002593	5.19e-05
0.3	298.15	0.0003283	6.57e-05
0.3	303.15	0.0004123	8.25e-05
0.3	308.15	0.0005139	0.0001028
0.3	313.15	0.0006359	0.0001272
0.3	318.15	0.0007814	0.0001563
0.3	323.15	0.0009538	0.0001908
0.4	283.15	0.0003159	6.32e-05
0.4	288.15	0.0004011	8.02e-05
0.4	293.15	0.0005052	0.0001011
0.4	298.15	0.0006316	0.0001263
0.4	303.15	0.0007841	0.0001568
0.4	308.15	0.0009669	0.0001934
0.4	313.15	0.00119	0.000238
0.4	318.15	0.00144	0.000288
0.4	323.15	0.00175	0.00035
0.5	283.15	0.0005904	0.0001181
0.5	288.15	0.0007395	0.0001479
0.5	293.15	0.0009202	0.0001841
0.5	298.15	0.00114	0.000228
0.5	303.15	0.0014	0.00028
0.5	308.15	0.00171	0.000342
0.5	313.15	0.00207	0.000414
0.5	318.15	0.002501	0.0005
0.5	323.15	0.00301	0.000602
0.6	283.15	0.001031	0.000206
0.6	288.15	0.00131	0.000262
0.6	293.15	0.001611	0.000322
0.6	298.15	0.00193	0.000386
0.6	303.15	0.002351	0.00047
0.6	308.15	0.00283	0.000566
0.6	313.15	0.003431	0.000686
0.6	318.15	0.00405	0.00081
0.6	323.15	0.00489	0.000978
0.7	283.15	0.00152	0.000304
0.7	288.15	0.001911	0.000382
0.7	293.15	0.00233	0.000466
0.7	298.15	0.00289	0.000578
0.7	303.15	0.003411	0.000682
0.7	308.15	0.00409	0.000818
0.7	313.15	0.004921	0.000984
0.7	318.15	0.00598	0.001196
0.7	323.15	0.006971	0.001394
0.8	283.15	0.00232	0.000464
0.8	288.15	0.002801	0.00056
0.8	293.15	0.00345	0.00069
0.8	298.15	0.004201	0.00084
0.8	303.15	0.00502	0.001004
0.8	308.15	0.006001	0.0012
0.8	313.15	0.00725	0.00145
0.8	318.15	0.008311	0.001662
0.8	323.15	0.00984	0.001968
0.9	283.15	0.00348	0.000696
0.9	288.15	0.004331	0.000866
0.9	293.15	0.00527	0.001054
0.9	298.15	0.006301	0.00126
0.9	303.15	0.007531	0.001506
0.9	308.15	0.00889	0.001778
0.9	313.15	0.01037	0.00207
0.9	318.15	0.01194	0.00239
0.9	323.15	0.01399	0.0028
1	283.15	0.004981	0.000996
1	288.15	0.00612	0.001224
1	293.15	0.007271	0.001454
1	298.15	0.00867	0.001734
1	303.15	0.01026	0.00205
1	308.15	0.01207	0.00241
1	313.15	0.01399	0.0028
1	318.15	0.01632	0.00326
1	323.15	0.01846	0.00369

System: 4-carboxybenzaldehyde + water; phases: Liquid, Crystal
Fixed: Pressure, kPa = 101.1
Property: Mole fraction of 4-carboxybenzaldehyde (Liquid); method: Chromatography
Temperature, K	Mole fraction of 4-carboxybenzaldehyde	uncertainty
283.15	2.146e-05	4.29e-06
288.15	2.827e-05	5.65e-06
293.15	3.615e-05	7.23e-06
298.15	4.645e-05	9.29e-06
303.15	5.906e-05	1.181e-05
308.15	7.67e-05	1.534e-05
313.15	9.572e-05	1.915e-05
318.15	0.00012	2.4e-05
323.15	0.0001482	2.96e-05

System: 4-carboxybenzaldehyde + N-methylpyrrolidone; phases: Liquid, Crystal
Fixed: Pressure, kPa = 101.1
Property: Mole fraction of 4-carboxybenzaldehyde (Liquid); method: Chromatography
Temperature, K	Mole fraction of 4-carboxybenzaldehyde	uncertainty
283.15	0.06539	0.01308
288.15	0.07674	0.01535
293.15	0.08967	0.01794
298.15	0.1044	0.0209
303.15	0.121	0.0242
308.15	0.1397	0.0279
313.15	0.1607	0.0321
318.15	0.1843	0.0369
323.15	0.2106	0.0421

System: 4-carboxybenzaldehyde + methanol; phases: Liquid, Crystal
Fixed: Pressure, kPa = 101.1
Property: Mole fraction of 4-carboxybenzaldehyde (Liquid); method: Chromatography
Temperature, K	Mole fraction of 4-carboxybenzaldehyde	uncertainty
283.15	0.00781	0.001094
288.15	0.008991	0.001259
293.15	0.009991	0.001399
298.15	0.0115	0.00161
303.15	0.01285	0.0018
308.15	0.01444	0.00202
313.15	0.01633	0.00229
318.15	0.0178	0.00249
323.15	0.02001	0.0028

System: 4-carboxybenzaldehyde + ethanol; phases: Liquid, Crystal
Fixed: Pressure, kPa = 101.1
Property: Mole fraction of 4-carboxybenzaldehyde (Liquid); method: Chromatography
Temperature, K	Mole fraction of 4-carboxybenzaldehyde	uncertainty
283.15	0.008149	0.00163
288.15	0.009728	0.001946
293.15	0.01155	0.00231
298.15	0.01336	0.00267
303.15	0.01553	0.00311
308.15	0.01811	0.00362
313.15	0.02109	0.00422
318.15	0.02461	0.00492
323.15	0.02805	0.00561

System: 4-carboxybenzaldehyde + propan-2-ol; phases: Liquid, Crystal
Fixed: Pressure, kPa = 101.1
Property: Mole fraction of 4-carboxybenzaldehyde (Liquid); method: Chromatography
Temperature, K	Mole fraction of 4-carboxybenzaldehyde	uncertainty
283.15	0.004981	0.000996
288.15	0.00612	0.001224
293.15	0.007271	0.001454
298.15	0.00867	0.001734
303.15	0.01026	0.00205
308.15	0.01207	0.00241
313.15	0.01399	0.0028
318.15	0.01632	0.00326
323.15	0.01846	0.00369
