Measured thermophysical data. p.rho.T Property of HFO-1336mzz(E) (trans-1,1,1,4,4,4- Hexafluoro-2-butene)
Source: J. Chem. Eng. Data, 2017, 10.1021/acs.jced.7b00381
Compound 1: trans-1,1,1,4,4,4-hexafluoro-2-butene, C4H2F6, InChI=1S/C4H2F6/c5-3(6,7)1-2-4(8,9)10/h1-2H/b2-1+

System: trans-1,1,1,4,4,4-hexafluoro-2-butene; phases: Fluid (supercritical or subcritical phases)
Property: Mass density, kg/m3 (Fluid (supercritical or subcritical phases)); method: ISOCHOR
Temperature, K	Pressure, kPa	Mass density, kg/m3	uncertainty
373.43	1203.4	83.9	10.7
383.44	1263	83.9	1
393.44	1320.8	83.8	0.9
403.44	1377.2	83.7	0.9
413.44	1432.9	83.6	0.8
423.43	1487.5	83.5	0.8
433.43	1541.9	83.4	0.7
443.42	1595.5	83.4	0.7
453.43	1648.3	83.3	0.7
463.42	1700	83.2	0.7
473.44	1751.3	83.1	0.6
483.45	1803.6	83	0.6
493.45	1854.7	83	0.6
503.45	1906.1	82.9	0.6
513.44	1956.7	82.8	0.6
523.45	2008.3	82.7	0.6
383.41	1661.4	129.2	6.5
393.42	1764.3	129.1	5.6
403.43	1863.4	128.9	1.9
413.42	1959.4	128.8	1.6
423.42	2053.6	128.7	1
433.42	2146.1	128.6	0.9
443.43	2237.3	128.4	0.9
453.42	2327.6	128.3	0.8
463.44	2415.5	128.2	0.8
473.46	2503.4	128.1	0.8
483.46	2590.8	128	0.7
493.43	2677.3	127.8	0.7
503.44	2763.1	127.7	0.7
513.42	2848.4	127.6	0.7
523.41	2933.2	127.5	0.7
403.44	2465.8	220.8	4
413.44	2664.9	220.6	1.7
423.45	2857.2	220.3	2
433.45	3045.2	220.1	1.4
443.45	3230.1	219.9	1.3
453.45	3412.1	219.7	1.2
463.46	3590.1	219.5	1.1
473.45	3766	219.3	1.1
483.46	3941.1	219.1	1.1
493.47	4117.6	218.9	1
503.47	4290.5	218.7	1
513.46	4460.3	218.4	1
523.46	4629.7	218.2	1
403.45	2727.9	325	23.4
413.45	3064.7	324.7	3.9
423.45	3387.7	324.4	2.4
433.44	3703.4	324.1	2
443.45	4013.8	323.8	1.8
453.44	4319.3	323.4	1.7
463.46	4621.8	323.1	1.6
473.45	4919.9	322.8	1.5
483.45	5216.5	322.5	1.5
493.46	5509.7	322.2	1.4
503.47	5802.6	321.9	1.4
513.47	6092.7	321.6	1.4
523.44	6379.8	321.3	1.4
403.44	2774.7	402.7	28.3
413.44	3213.6	402.3	5.4
423.45	3637.3	402	3.2
433.45	4055.4	401.6	2.5
443.44	4469	401.2	2.2
453.46	4880.1	400.8	2
463.45	5285.9	400.4	1.9
473.45	5690.2	400	1.8
483.44	6093	399.6	1.8
493.46	6493.6	399.3	1.7
503.46	6891.7	398.9	1.7
513.46	7287.8	398.5	1.7
523.45	7680.8	398.1	1.7
403.44	2774.4	460.7	22.5
413.44	3284.4	460.2	7.2
423.43	3786.7	459.8	3.9
433.43	4286.7	459.3	2.8
433.43	4284.4	459.3	2.8
443.43	4783.2	458.9	2.4
453.44	5280.1	458.5	2.2
463.46	5775.9	458	2.1
473.45	6269.7	457.6	2
483.44	6761.7	457.1	2
493.46	7253	456.7	1.9
503.45	7742.3	456.3	1.9
513.42	8228	455.8	1.9
523.41	8713.2	455.4	1.9
403.44	2776.5	535.5	22.1
413.43	3371.4	535	6.3
423.42	3980.8	534.4	3.6
433.42	4598	533.9	2.9
443.42	5218.7	533.4	2.6
453.42	5843.1	532.9	2.4
463.44	6468.5	532.4	2.3
473.43	7093.2	531.9	2.3
483.43	7718.7	531.4	2.2
493.42	8344.4	530.8	2.2
503.44	8968.2	530.3	2.2
513.43	9591.2	529.8	2.2
523.44	10213.2	529.3	2.2
403.43	2784.5	594.5	22.3
413.42	3461.5	594	4.2
423.42	4173.8	593.4	3.1
433.42	4900.8	592.8	2.7
443.42	5638.1	592.3	2.6
453.42	6380.9	591.7	2.5
463.42	7127.1	591.1	2.5
473.43	7877	590.5	2.4
483.44	8628.9	590	2.4
493.44	9378.9	589.4	2.4
503.45	10129.7	588.8	2.4
403.45	2855.7	688.4	5.1
413.46	3739.9	687.7	3.5
423.46	4672.9	687	3.1
433.45	5628.3	686.4	2.9
443.45	6600.4	685.7	2.8
453.46	7584.8	685	2.8
463.47	8574.6	684.4	2.8
473.46	9568.9	683.7	2.8
403.45	3069.1	755.5	4.3
413.45	4177.9	754.8	3.2
423.45	5329	754	3.1
433.45	6506.9	753.3	3.1
443.44	7698.7	752.6	3.1
453.46	8905	751.8	3.1
463.45	10114.8	751.1	3
403.43	3331.6	794.2	3.6
413.43	4600.2	793.4	3.3
423.43	5906.9	792.7	3.2
433.44	7237.5	791.9	3.2
443.44	8584	791.1	3.2
453.44	9941.5	790.4	3.2
393.45	2531	848.7	4.2
403.44	4004.8	847.9	3.4
413.43	5530.3	847.1	3.4
423.44	7088.7	846.2	3.4
433.43	8666.9	845.4	3.4
383.43	2410.5	940.3	4.4
393.45	4410.6	939.4	3.8
403.45	6453.8	938.5	3.8
413.44	8521.8	937.6	3.8
373.43	1779.9	991.3	13.8
383.44	4128.8	990.3	4
393.44	6524	989.3	4
403.44	8946	988.4	4
363.45	2343	1061.2	4.3
373.46	5302.7	1060.2	4.3
383.46	8290.7	1059.2	4.3
353.44	1232.2	1093.7	6
363.44	4495.7	1092.6	4.4
373.44	7789.6	1091.5	4.4
353.44	4087.2	1128.3	4.5
363.43	7766.9	1127.2	4.5
333.46	1305.2	1180.7	4.7
343.45	5602.3	1179.6	4.7
353.46	9911.4	1178.4	4.7
323.43	579.7	1212.1	4.9
333.44	5332.4	1210.9	4.9
343.44	10088	1209.8	4.9
