Measured thermophysical data. Density and Viscosity of Zinc Chloride Solution in N-Methylacetamide over the Temperature Range from 308.15 to 328.15 K at Atmospheric Pressure
Source: J. Chem. Eng. Data, 2018, 10.1021/acs.jced.8b00399
Compound 1: N-methylacetamide, C3H7NO, InChI=1S/C3H7NO/c1-3(5)4-2/h1-2H3,(H,4,5)
Compound 2: zinc chloride, Cl2Zn, InChI=1S/2ClH.Zn/h2*1H;/q;;+2/p-2

System: N-methylacetamide; phases: Liquid
Fixed: Pressure, kPa = 99.6
Property: Mass density, kg/m3 (Liquid); method: Vibrating tube method
Temperature, K	Mass density, kg/m3	uncertainty
308.15	946.01	1.9
313.15	941.81	1.9
318.15	937.59	1.89
323.15	933.36	1.88
328.15	929.17	1.87

System: N-methylacetamide; phases: Liquid
Fixed: Pressure, kPa = 99.6
Property: Viscosity, Pa*s (Liquid); method: Capillary tube (Ostwald; Ubbelohde) method
Temperature, K	Viscosity, Pa*s	uncertainty
308.15	0.00357	4.4e-05
313.15	0.003152	3.9e-05
318.15	0.0028	3.5e-05
323.15	0.002496	3.1e-05
328.15	0.002245	2.8e-05

System: N-methylacetamide + zinc chloride; phases: Liquid
Fixed: Pressure, kPa = 99.6
Property: Mass density, kg/m3 (Liquid); method: Vibrating tube method
Molality, mol/kg of zinc chloride	Temperature, K	Mass density, kg/m3	uncertainty
0	308.15	946.01	1.9
0.01212	308.15	947.01	1.91
0.02085	308.15	948.03	1.91
0.04092	308.15	949.55	1.91
0.04735	308.15	950.23	1.91
0.05898	308.15	951.13	1.91
0.06108	308.15	951.43	1.91
0.07786	308.15	952.85	1.92
0.09351	308.15	954.27	1.92
0.10252	308.15	955.14	1.92
0.10829	308.15	955.59	1.92
0.17024	308.15	961.31	1.93
0.22357	308.15	966.13	1.94
0.37203	308.15	979.32	1.97
0.69187	308.15	1007.77	2.02
1.29873	308.15	1060.68	2.13
0	313.15	941.81	1.9
0.01212	313.15	942.99	1.9
0.02085	313.15	943.83	1.9
0.04092	313.15	945.27	1.9
0.04735	313.15	946.04	1.9
0.05898	313.15	946.91	1.91
0.06108	313.15	947.18	1.91
0.07786	313.15	948.65	1.91
0.09351	313.15	949.99	1.91
0.10252	313.15	950.92	1.91
0.10829	313.15	951.41	1.91
0.17024	313.15	957.1	1.92
0.22357	313.15	961.88	1.93
0.37203	313.15	975.11	1.96
0.69187	313.15	1003.5	2.02
1.29873	313.15	1056.36	2.12
0	318.15	937.59	1.89
0.01212	318.15	938.78	1.89
0.02085	318.15	939.63	1.89
0.04092	318.15	941.06	1.89
0.04735	318.15	941.77	1.89
0.05898	318.15	942.72	1.9
0.06108	318.15	942.96	1.9
0.07786	318.15	944.45	1.9
0.09351	318.15	945.73	1.9
0.10252	318.15	946.63	1.9
0.10829	318.15	947.14	1.91
0.17024	318.15	952.84	1.92
0.22357	318.15	957.61	1.93
0.37203	318.15	970.87	1.95
0.69187	318.15	999.23	2.01
1.29873	318.15	1052	2.11
0	323.15	933.36	1.88
0.01212	323.15	934.4	1.88
0.02085	323.15	935.24	1.88
0.04092	323.15	936.82	1.89
0.04735	323.15	937.56	1.89
0.05898	323.15	938.63	1.89
0.06108	323.15	938.78	1.89
0.07786	323.15	940.25	1.89
0.09351	323.15	941.52	1.89
0.10252	323.15	942.41	1.9
0.10829	323.15	942.93	1.9
0.17024	323.15	948.64	1.91
0.22357	323.15	953.37	1.92
0.37203	323.15	966.57	1.94
0.69187	323.15	994.92	2
1.29873	323.15	1047.7	2.1
0	328.15	929.17	1.87
0.01212	328.15	930.23	1.87
0.02085	328.15	931.05	1.87
0.04092	328.15	932.75	1.88
0.04735	328.15	933.2	1.88
0.05898	328.15	934.26	1.88
0.06108	328.15	934.52	1.88
0.07786	328.15	935.97	1.88
0.09351	328.15	937.33	1.89
0.10252	328.15	938.12	1.89
0.10829	328.15	938.6	1.89
0.17024	328.15	944.4	1.9
0.22357	328.15	949.14	1.91
0.37203	328.15	962.36	1.93
0.69187	328.15	990.69	1.99
1.29873	328.15	1043.43	2.1

System: N-methylacetamide + zinc chloride; phases: Liquid
Fixed: Pressure, kPa = 99.6
Property: Viscosity, Pa*s (Liquid); method: Capillary tube (Ostwald; Ubbelohde) method
Molality, mol/kg of zinc chloride	Temperature, K	Viscosity, Pa*s	uncertainty
0	308.15	0.00357	4.4e-05
0.01212	308.15	0.003595	4.4e-05
0.02085	308.15	0.003615	4.4e-05
0.04092	308.15	0.003653	4.5e-05
0.04735	308.15	0.003669	4.5e-05
0.05898	308.15	0.003698	4.5e-05
0.06108	308.15	0.003703	4.5e-05
0.07786	308.15	0.003743	4.6e-05
0.09351	308.15	0.003778	4.6e-05
0.10252	308.15	0.003797	4.7e-05
0.10829	308.15	0.00381	4.7e-05
0.17024	308.15	0.003964	4.9e-05
0.22357	308.15	0.004112	5e-05
0.37203	308.15	0.004544	5.5e-05
0.69187	308.15	0.005686	6.9e-05
1.29873	308.15	0.008811	0.000104
0	313.15	0.003152	3.9e-05
0.01212	313.15	0.003169	3.9e-05
0.02085	313.15	0.003186	3.9e-05
0.04092	313.15	0.003223	4e-05
0.04735	313.15	0.003232	4e-05
0.05898	313.15	0.003255	4e-05
0.06108	313.15	0.003262	4e-05
0.07786	313.15	0.003293	4e-05
0.09351	313.15	0.003324	4.1e-05
0.10252	313.15	0.003347	4.1e-05
0.10829	313.15	0.003354	4.1e-05
0.17024	313.15	0.003495	4.3e-05
0.22357	313.15	0.003611	4.4e-05
0.37203	313.15	0.00397	4.8e-05
0.69187	313.15	0.004929	6e-05
1.29873	313.15	0.007487	8.9e-05
0	318.15	0.0028	3.5e-05
0.01212	318.15	0.002819	3.5e-05
0.02085	318.15	0.002834	3.5e-05
0.04092	318.15	0.002868	3.5e-05
0.04735	318.15	0.002876	3.5e-05
0.05898	318.15	0.002895	3.6e-05
0.06108	318.15	0.0029	3.6e-05
0.07786	318.15	0.002928	3.6e-05
0.09351	318.15	0.002955	3.6e-05
0.10252	318.15	0.002972	3.7e-05
0.10829	318.15	0.002982	3.7e-05
0.17024	318.15	0.003099	3.8e-05
0.22357	318.15	0.003202	3.9e-05
0.37203	318.15	0.003516	4.3e-05
0.69187	318.15	0.00432	5.2e-05
1.29873	318.15	0.006416	7.6e-05
0	323.15	0.002496	3.1e-05
0.01212	323.15	0.002512	3.1e-05
0.02085	323.15	0.002528	3.1e-05
0.04092	323.15	0.002558	3.2e-05
0.04735	323.15	0.002566	3.2e-05
0.05898	323.15	0.002584	3.2e-05
0.06108	323.15	0.002586	3.2e-05
0.07786	323.15	0.002612	3.2e-05
0.09351	323.15	0.002635	3.2e-05
0.10252	323.15	0.002652	3.3e-05
0.10829	323.15	0.002659	3.3e-05
0.17024	323.15	0.002765	3.4e-05
0.22357	323.15	0.002854	3.5e-05
0.37203	323.15	0.003132	3.8e-05
0.69187	323.15	0.00382	4.6e-05
1.29873	323.15	0.005603	6.7e-05
0	328.15	0.002245	2.8e-05
0.01212	328.15	0.00226	2.8e-05
0.02085	328.15	0.002271	2.8e-05
0.04092	328.15	0.002296	2.8e-05
0.04735	328.15	0.002304	2.8e-05
0.05898	328.15	0.002319	2.9e-05
0.06108	328.15	0.002322	2.9e-05
0.07786	328.15	0.002344	2.9e-05
0.09351	328.15	0.002364	2.9e-05
0.10252	328.15	0.002378	2.9e-05
0.10829	328.15	0.002384	2.9e-05
0.17024	328.15	0.002475	3e-05
0.22357	328.15	0.002553	3.1e-05
0.37203	328.15	0.002795	3.4e-05
0.69187	328.15	0.003381	4.1e-05
1.29873	328.15	0.0049	5.9e-05
