Measured thermophysical data. Phase Equilibria and Phase Diagrams for the Aqueous Ternary System Containing Sodium, Sulfate, and Metaborate Ions at 288.15 and 308.15 K and 101.325 kPa
Source: J. Chem. Eng. Data, 2019, 10.1021/acs.jced.9b00177
Compound 1: sodium sulfate, Na2O4S, InChI=1S/2Na.H2O4S/c;;1-5(2,3)4/h;;(H2,1,2,3,4)/q2*+1;/p-2, purity 99%
Compound 2: sodium metaborate, BNaO2, InChI=1S/BO2.Na/c2-1-3;/q-1;+1, purity 99%
Compound 3: water, H2O, InChI=1S/H2O/h1H2, purity 99.9%

System: sodium sulfate + sodium metaborate + water; phases: Liquid, Crystal of intercomponent compound 1
Fixed: Pressure, kPa = 100
Property: Mass fraction of sodium metaborate (Liquid); method: chemical analysis
Temperature, K	Mass fraction of sodium sulfate	Mass fraction of sodium metaborate	uncertainty
288.15	0	0.1874	0.004
288.15	0.0366	0.1686	0.0044
288.15	0.0721	0.157	0.0043
288.15	0.1038	0.1475	0.0042
308.15	0.0328	0.2375	0.0043
308.15	0.0633	0.2267	0.0044
308.15	0.088	0.2149	0.0043
308.15	0.1198	0.2051	0.0043
308.15	0.1661	0.1875	0.0042
308.15	0.1862	0.1851	0.0041

System: sodium sulfate + sodium metaborate + water; phases: Liquid, Crystal of intercomponent compound 2
Fixed: Temperature, K = 288.15
Fixed: Pressure, kPa = 100
Property: Mass fraction of sodium metaborate (Liquid); method: chemical analysis
Mass fraction of sodium sulfate	Mass fraction of sodium metaborate	uncertainty
0.1038	0.1475	0.004
0.1016	0.1158	0.004
0.1016	0.101	0.004
0.1045	0.0759	0.004
0.1101	0.0371	0.004
0.1174	0	

System: sodium sulfate + sodium metaborate + water; phases: Liquid, Crystal
Fixed: Temperature, K = 308.15
Fixed: Pressure, kPa = 100
Property: Mass fraction of sodium metaborate (Liquid); method: chemical analysis
Mass fraction of sodium sulfate	Mass fraction of sodium metaborate	uncertainty
0.1862	0.1851	0.0065
0.2325	0.1267	0.0067
0.25	0.0994	0.0065
0.2827	0.0619	0.0066
0.3028	0.0296	0.0078
0.3197	0	

System: sodium sulfate + sodium metaborate + water; phases: Liquid
Fixed: Pressure, kPa = 101.3
Property: Mass density, kg/m3 (Liquid); method: Vibrating tube method
Temperature, K	Mass fraction of sodium sulfate	Mass fraction of sodium metaborate	Mass density, kg/m3	uncertainty
288.15	0	0.1874	1253.69	7.14
288.15	0.0366	0.1686	1259.75	8.07
288.15	0.0721	0.157	1272.43	10.01
288.15	0.1038	0.1475	1310.76	11
288.15	0.1016	0.1158	1231.12	10.71
288.15	0.1016	0.101	1208.68	7.69
288.15	0.1045	0.0759	1172.18	7.44
288.15	0.1101	0.0371	1120.24	6.3
288.15	0.1174	0	1083.4	3.11
308.15	0	0.2625	1317.16	3.54
308.15	0.0328	0.2375	1335.58	5.09
308.15	0.0633	0.2267	1358.46	5.09
308.15	0.088	0.2149	1375.19	5.64
308.15	0.1198	0.2051	1389.22	5.64
308.15	0.1661	0.1875	1424.1	6.17
308.15	0.1862	0.1851	1435.36	6.17
308.15	0.2325	0.1267	1400.72	6.45
308.15	0.25	0.0994	1384.99	6.45
308.15	0.2827	0.0619	1367.37	8.44
308.15	0.3028	0.0296	1342.3	5.49
308.15	0.3197	0	1328.91	5.46

System: sodium sulfate + sodium metaborate + water; phases: Liquid
Fixed: Pressure, kPa = 101.3
Property: Refractive index (Na D-line) (Liquid); method: Standard Abbe refractometry
Temperature, K	Mass fraction of sodium sulfate	Mass fraction of sodium metaborate	Refractive index (Na D-line)	uncertainty
288.15	0	0.1874	1.3806	0.0016
288.15	0.0366	0.1686	1.3834	0.0018
288.15	0.0721	0.157	1.3858	0.0017
288.15	0.1038	0.1475	1.3878	0.0018
288.15	0.1016	0.1158	1.378	0.0017
288.15	0.1016	0.101	1.3743	0.0016
288.15	0.1045	0.0759	1.3682	0.0016
288.15	0.1101	0.0371	1.3592	0.0015
288.15	0.1174	0	1.3514	0.0012
308.15	0	0.2625	1.3936	0.0011
308.15	0.0328	0.2375	1.3945	0.0012
308.15	0.0633	0.2267	1.3964	0.0012
308.15	0.088	0.2149	1.3979	0.0013
308.15	0.1198	0.2051	1.3991	0.0013
308.15	0.1661	0.1875	1.4014	0.0015
308.15	0.1862	0.1851	1.4033	0.0015
308.15	0.2325	0.1267	1.3953	0.0014
308.15	0.25	0.0994	1.3916	0.0014
308.15	0.2827	0.0619	1.3867	0.0013
308.15	0.3028	0.0296	1.382	0.0015
308.15	0.3197	0	1.3782	0.0015

System: sodium metaborate + water; phases: Liquid, Crystal of intercomponent compound 1
Property: Mass fraction of sodium metaborate (Liquid); method: chemical analysis
Temperature, K	Pressure, kPa	Mass fraction of sodium metaborate	uncertainty
288.15	100	0.1874	0.004

System: sodium metaborate + water; phases: Liquid
Fixed: Pressure, kPa = 101.3
Property: Mass density, kg/m3 (Liquid); method: Vibrating tube method
Temperature, K	Mass fraction of sodium metaborate	Mass density, kg/m3	uncertainty
288.15	0.1874	1253.69	3.06
308.15	0.2625	1317.16	3.07

System: sodium metaborate + water; phases: Liquid
Fixed: Pressure, kPa = 101.3
Property: Refractive index (Na D-line) (Liquid); method: Standard Abbe refractometry
Temperature, K	Mass fraction of sodium metaborate	Refractive index (Na D-line)	uncertainty
288.15	0.1874	1.3806	0.001
308.15	0.2625	1.3936	0.001

System: sodium sulfate + water; phases: Liquid, Crystal of intercomponent compound 2
Property: Solid-liquid equilibrium temperature, K (Liquid); method: chemical analysis
Mass fraction of sodium sulfate	Pressure, kPa	Solid-liquid equilibrium temperature, K	uncertainty
0.1174	100	288.15	0.41

System: sodium sulfate + water; phases: Liquid, Crystal
Property: Solid-liquid equilibrium temperature, K (Liquid); method: chemical analysis
Mass fraction of sodium sulfate	Pressure, kPa	Solid-liquid equilibrium temperature, K	uncertainty
0.3197	100	308.15	0.41

System: sodium sulfate + water; phases: Liquid
Fixed: Pressure, kPa = 101.3
Property: Mass density, kg/m3 (Liquid); method: Vibrating tube method
Temperature, K	Mass fraction of sodium sulfate	Mass density, kg/m3	uncertainty
288.15	0.1174	1083.4	3.04
308.15	0.3197	1328.91	3.07

System: sodium sulfate + water; phases: Liquid
Fixed: Pressure, kPa = 101.3
Property: Refractive index (Na D-line) (Liquid); method: Standard Abbe refractometry
Temperature, K	Mass fraction of sodium sulfate	Refractive index (Na D-line)	uncertainty
288.15	0.1174	1.3514	0.001
308.15	0.3197	1.3782	0.001
