Measured thermophysical data. Experiments and Modeling of Absorption of CO2 by Amino-cation and Amino-anion Dual Functionalized Ionic Liquid with the Addition of Aqueous Medium
Source: J. Chem. Eng. Data, 2017, 10.1021/acs.jced.7b00462
Compound 1: (3-aminopropyl)tributylphosphonium glycinate, C17H39N2O2P, InChI=1S/C15H35NP.C2H5NO2/c1-4-7-12-17(13-8-5-2,14-9-6-3)15-10-11-16;3-1-2(4)5/h4-16H2,1-3H3;1,3H2,(H,4,5)/q+1;/p-1
Compound 2: carbon dioxide, CO2, InChI=1S/CO2/c2-1-3
Compound 3: water, H2O, InChI=1S/H2O/h1H2, purity 99.8%

System: (3-aminopropyl)tributylphosphonium glycinate + water + carbon dioxide; phases: Liquid, Gas
Property: Molality, mol/kg of carbon dioxide (Liquid); method: phase equilibration
Solvent: Mass fraction of water	Temperature, K	Pressure, kPa	Molality, mol/kg of carbon dioxide	uncertainty
0.599	278.17	220	0.436	0.018
0.599	278.17	654	0.718	0.029
0.599	278.17	1143	0.922	0.037
0.599	278.17	2098	1.344	0.054
0.599	278.17	3010	1.867	0.077
0.599	287.95	225	0.439	0.018
0.599	287.95	677	0.721	0.029
0.599	287.95	1185	0.928	0.037
0.599	287.95	2195	1.352	0.055
0.599	287.95	3178	1.886	0.077
0.599	287.95	4301	2.408	0.099
0.599	298.06	239	0.432	0.018
0.599	298.06	723	0.699	0.028
0.599	298.06	1244	0.917	0.037
0.599	298.06	2311	1.337	0.054
0.599	298.06	3364	1.876	0.078
0.599	298.06	4598	2.444	0.101
0.599	307.98	277	0.403	0.016
0.599	307.98	790	0.656	0.026
0.599	307.98	1332	0.873	0.035
0.599	307.98	2454	1.287	0.053
0.599	307.98	3580	1.815	0.076
0.599	307.98	4937	2.364	0.098
0.599	318.08	321	0.37	0.015
0.599	318.08	861	0.613	0.025
0.599	318.08	1428	0.825	0.033
0.599	318.08	2609	1.228	0.05
0.599	318.08	3800	1.754	0.073
0.599	318.08	5285	2.285	0.095
0.599	327.98	362	0.341	0.014
0.599	327.98	939	0.566	0.023
0.599	327.98	1532	0.77	0.031
0.599	327.98	2762	1.173	0.048
0.599	327.98	4034	1.679	0.07
0.599	327.98	5628	2.208	0.093
0.599	338.09	410	0.308	0.013
0.599	338.09	1027	0.512	0.021
0.599	338.09	1656	0.701	0.028
0.599	338.09	2960	1.073	0.044
0.599	338.09	4307	1.565	0.066
0.599	338.09	6025	2.074	0.087
0.599	348.01	459	0.276	0.011
0.599	348.01	1132	0.446	0.018
0.599	348.01	1800	0.616	0.025
0.599	348.01	3206	0.929	0.038
0.599	348.01	4654	1.366	0.057
0.599	348.01	6496	1.831	0.077
0.801	278.14	171	0.373	0.016
0.801	278.14	692	0.663	0.027
0.801	278.14	1132	0.835	0.034
0.801	278.14	1981	1.163	0.048
0.801	278.14	2936	1.467	0.062
0.801	287.94	176	0.374	0.016
0.801	287.94	715	0.666	0.028
0.801	287.94	1172	0.84	0.035
0.801	287.94	2066	1.171	0.048
0.801	287.94	3095	1.481	0.063
0.801	287.94	4107	1.895	0.081
0.801	298.02	184	0.373	0.016
0.801	298.02	775	0.644	0.027
0.801	298.02	1264	0.809	0.034
0.801	298.02	2225	1.123	0.047
0.801	298.02	3330	1.422	0.062
0.801	298.02	4436	1.84	0.081
0.801	308.02	216	0.358	0.015
0.801	308.02	845	0.618	0.026
0.801	308.02	1362	0.776	0.033
0.801	308.02	2388	1.075	0.046
0.801	308.02	3571	1.359	0.06
0.801	308.02	4770	1.779	0.077
0.801	318.11	251	0.342	0.014
0.801	318.11	921	0.59	0.024
0.801	318.11	1472	0.739	0.031
0.801	318.11	2560	1.024	0.044
0.801	318.11	3825	1.297	0.059
0.801	318.11	5133	1.7	0.073
0.801	327.99	288	0.326	0.013
0.801	327.99	1003	0.56	0.023
0.801	327.99	1582	0.704	0.029
0.801	327.99	2728	0.979	0.026
0.801	327.99	4072	1.239	0.056
0.801	327.99	5502	1.618	0.07
0.801	338.06	337	0.304	0.012
0.801	338.06	1103	0.522	0.021
0.801	338.06	1717	0.656	0.027
0.801	338.06	2926	0.918	0.039
0.801	338.06	4361	1.159	0.053
0.801	338.06	5895	1.52	0.066
0.801	348.01	395	0.278	0.011
0.801	348.01	1229	0.472	0.019
0.801	348.01	1900	0.583	0.024
0.801	348.01	3167	0.834	0.035
0.801	348.01	4728	1.026	0.045
0.801	348.01	6422	1.321	0.058
0.9	278.17	606	0.509	0.025
0.9	278.17	996	0.665	0.03
0.9	278.17	2058	1.021	0.043
0.9	278.17	3102	1.313	0.053
0.9	287.96	103	0.219	0.017
0.9	287.96	680	0.478	0.026
0.9	287.96	1108	0.619	0.031
0.9	287.96	2253	0.947	0.042
0.9	287.96	3356	1.25	0.053
0.9	287.96	4718	1.673	0.078
0.9	298.1	120	0.212	0.018
0.9	298.1	759	0.448	0.027
0.9	298.1	1230	0.572	0.031
0.9	298.1	2475	0.866	0.041
0.9	298.1	3665	1.147	0.05
0.9	298.1	5176	1.582	0.068
0.9	308.01	139	0.204	0.017
0.9	308.01	831	0.423	0.026
0.9	308.01	1339	0.535	0.031
0.9	308.01	2687	0.798	0.04
0.9	308.01	3966	1.061	0.045
0.9	308.01	5636	1.488	0.064
0.9	318.08	160	0.196	0.016
0.9	318.08	901	0.401	0.025
0.9	318.08	1450	0.502	0.03
0.9	318.08	2883	0.745	0.038
0.9	318.08	4281	0.978	0.027
0.9	318.08	6132	1.367	0.062
0.9	327.96	184	0.187	0.015
0.9	327.96	970	0.38	0.024
0.9	327.96	1551	0.474	0.029
0.9	327.96	3079	0.697	0.028
0.9	327.96	4564	0.922	0.039
0.9	327.96	6573	1.314	0.057
0.9	338.01	212	0.176	0.015
0.9	338.01	1046	0.359	0.022
0.9	338.01	1658	0.446	0.027
0.9	338.01	3273	0.655	0.026
0.9	338.01	4853	0.87	0.035
0.9	338.01	7040	1.251	0.052
0.9	348.08	241	0.166	0.011
0.9	348.08	1130	0.334	0.021
0.9	348.08	1777	0.414	0.024
0.9	348.08	3478	0.61	0.032
0.9	348.08	5150	0.816	0.033
0.9	348.08	7525	1.174	0.048
0.95	278.09	124	0.139	0.017
0.95	278.09	552	0.395	0.027
0.95	278.09	977	0.588	0.029
0.95	278.09	1988	0.992	0.008
0.95	278.09	2978	1.392	0.061
0.95	287.98	139	0.135	0.022
0.95	287.98	626	0.374	0.024
0.95	287.98	1089	0.558	0.026
0.95	287.98	2152	0.959	0.04
0.95	287.98	3231	1.353	0.061
0.95	287.98	4529	1.814	0.084
0.95	298.06	162	0.128	0.021
0.95	298.06	726	0.345	0.024
0.95	298.06	1250	0.51	0.025
0.95	298.06	2427	0.877	0.035
0.95	298.06	3606	1.24	0.055
0.95	298.06	5021	1.694	0.075
0.95	307.99	188	0.121	0.02
0.95	307.99	815	0.322	0.025
0.95	307.99	1403	0.469	0.024
0.95	307.99	2665	0.819	0.034
0.95	307.99	3936	1.166	0.053
0.95	307.99	5497	1.6	0.073
0.95	318.06	215	0.114	0.02
0.95	318.06	902	0.301	0.025
0.95	318.06	1538	0.438	0.024
0.95	318.06	2904	0.766	0.031
0.95	318.06	4297	1.083	0.048
0.95	318.06	6022	1.492	0.067
0.95	328.05	250	0.105	0.021
0.95	328.05	989	0.281	0.025
0.95	328.05	1674	0.409	0.024
0.95	328.05	3135	0.721	0.029
0.95	328.05	4644	1.016	0.044
0.95	328.05	6519	1.411	0.061
0.95	338.09	300	0.091	0.021
0.95	338.09	1087	0.26	0.026
0.95	338.09	1814	0.381	0.024
0.95	338.09	3382	0.672	0.027
0.95	338.09	5013	0.947	0.04
0.95	338.09	7062	1.319	0.054
0.95	348.1	1213	0.23	0.025
0.95	348.1	1986	0.343	0.024
0.95	348.1	3688	0.605	0.026
0.95	348.1	5464	0.846	0.034
0.95	348.1	7747	1.157	0.047
