Measured thermophysical data. Investigation of Binary Mixtures Containing 1-Ethyl-3-methylimidazolium Bis(trifluoromethanesulfonyl)azanide and Ethylene Carbonate
Source: J. Chem. Eng. Data, 2016, 10.1021/acs.jced.5b00338
Compound 1: 1-ethyl-3-methylimidazolium bis((trifluoromethyl)sulfonyl)imide, C8H11F6N3O4S2, InChI=1S/C6H11N2.C2F6NO4S2/c1-3-8-5-4-7(2)6-8;3-1(4,5)14(10,11)9-15(12,13)2(6,7)8/h4-6H,3H2,1-2H3;/q+1;-1, purity 99%
Compound 2: ethylene carbonate, C3H4O3, InChI=1S/C3H4O3/c4-3-5-1-2-6-3/h1-2H2, purity 99%

System: 1-ethyl-3-methylimidazolium bis((trifluoromethyl)sulfonyl)imide; phases: Crystal, Liquid, Air at 1 atmosphere
Property: Normal melting temperature, K (Crystal); method: DTA
Normal melting temperature, K	uncertainty
266.45	6

System: 1-ethyl-3-methylimidazolium bis((trifluoromethyl)sulfonyl)imide; phases: Glass, Liquid, Air at 1 atmosphere
Property: Triple point temperature, K (Glass); method: DSC
Triple point temperature, K	uncertainty
183.75	6

System: 1-ethyl-3-methylimidazolium bis((trifluoromethyl)sulfonyl)imide; phases: Liquid
Fixed: Pressure, kPa = 100
Property: Viscosity, Pa*s (Liquid); method: Cone and plate viscometry
Temperature, K	Viscosity, Pa*s	uncertainty
298.15	0.0339	0.0034
293.15	0.0416	0.0042
303.15	0.0273	0.0027
313.15	0.0191	0.0019
323.15	0.0144	0.0014
333.15	0.0113	0.0011
343.15	0.0083	0.0008
353.15	0.0068	0.0007
363.15	0.0056	0.0006
373.15	0.0048	0.0005
383.15	0.0042	0.0004
393.15	0.0037	0.0004

System: 1-ethyl-3-methylimidazolium bis((trifluoromethyl)sulfonyl)imide; phases: Liquid
Fixed: Pressure, kPa = 100
Property: Electrical conductivity, S/m (Liquid); method: Alternating current cell with electrodes
Temperature, K	Electrical conductivity, S/m	uncertainty
298.15	0.9	0.05
293.15	0.73	0.04
313.15	1.29	0.08
333.15	1.94	0.12
353.15	2.73	0.16

System: 1-ethyl-3-methylimidazolium bis((trifluoromethyl)sulfonyl)imide; phases: Liquid
Fixed: Pressure, kPa = 100
Property: Mass density, kg/m3 (Liquid); method: Vibrating tube method
Temperature, K	Mass density, kg/m3	uncertainty
298.15	1516.8	1.2
293.15	1524	1.2
313.15	1503.8	1.2
333.15	1483.8	1.2
353.15	1464.2	1.2

System: ethylene carbonate; phases: Crystal, Liquid, Air at 1 atmosphere
Property: Normal melting temperature, K (Crystal); method: DTA
Normal melting temperature, K	uncertainty
314.45	6

System: ethylene carbonate; phases: Liquid
Fixed: Pressure, kPa = 100
Property: Viscosity, Pa*s (Liquid); method: Cone and plate viscometry
Temperature, K	Viscosity, Pa*s	uncertainty
313.15	0.00181	0.00018
323.15	0.00156	0.00016
333.15	0.0014	0.00014
343.15	0.00116	0.00012
353.15	0.00107	0.00011
363.15	0.00096	0.0001
373.15	0.00085	9e-05
383.15	0.00074	7e-05
393.15	0.00071	7e-05

System: ethylene carbonate; phases: Liquid
Fixed: Pressure, kPa = 100
Property: Mass density, kg/m3 (Liquid); method: Vibrating tube method
Temperature, K	Mass density, kg/m3	uncertainty
313.15	1321.9	1.1
333.15	1299.1	1.1
353.15	1276.3	1.1

System: ethylene carbonate + 1-ethyl-3-methylimidazolium bis((trifluoromethyl)sulfonyl)imide; phases: Crystal, Crystal, Liquid, Air at 1 atmosphere
Property: Eutectic temperature, K (Crystal); method: DTA
Eutectic temperature, K	uncertainty
245.95	6

System: ethylene carbonate + 1-ethyl-3-methylimidazolium bis((trifluoromethyl)sulfonyl)imide; phases: Liquid
Fixed: Pressure, kPa = 100
Property: Mass density, kg/m3 (Liquid); method: Vibrating tube method
Temperature, K	Mole fraction of ethylene carbonate	Mass density, kg/m3	uncertainty
293.15	0.9756	1360.7	1.1
293.15	0.9467	1376.5	1.1
293.15	0.912	1392	1.1
293.15	0.8696	1409.6	1.1
293.15	0.8163	1429	1.1
293.15	0.7476	1447.6	1.2
293.15	0.6557	1467.3	1.2
293.15	0.5263	1485.8	1.2
293.15	0.4395	1495.1	1.2
293.15	0.3305	1508	1.2
293.15	0.1896	1514.1	1.2
293.15	0	1524	1.2
313.15	1	1321.9	1.1
313.15	0.9756	1337.9	1.1
313.15	0.9467	1354.1	1.1
313.15	0.912	1369.3	1.1
313.15	0.8696	1387.3	1.1
313.15	0.8163	1407	1.1
313.15	0.7476	1425.9	1.1
313.15	0.6557	1448.9	1.2
313.15	0.5263	1464.6	1.2
313.15	0.4395	1474.2	1.2
313.15	0.3305	1482.8	1.2
313.15	0.1896	1493.6	1.2
313.15	0	1503.8	1.2
333.15	1	1299.1	1.1
333.15	0.9756	1315.3	1.1
333.15	0.9467	1331.6	1.1
333.15	0.912	1346.9	1.1
333.15	0.8696	1365.3	1.1
333.15	0.8163	1385.2	1.1
333.15	0.7476	1404.4	1.1
333.15	0.6557	1424.7	1.1
333.15	0.5263	1443.8	1.2
333.15	0.4395	1453.5	1.2
333.15	0.3305	1466.9	1.2
333.15	0.1896	1473.5	1.2
333.15	0	1483.8	1.2
353.15	1	1276.3	1.1
353.15	0.9756	1292.7	1.1
353.15	0.9467	1309.2	1.1
353.15	0.912	1324.7	1.1
353.15	0.8696	1343.4	1.1
353.15	0.8163	1363.6	1.1
353.15	0.7476	1383.1	1.1
353.15	0.6557	1403.7	1.1
353.15	0.5263	1423.2	1.1
353.15	0.4395	1433.2	1.1
353.15	0.3305	1446.8	1.2
353.15	0.1896	1453.6	1.2
353.15	0	1464.2	1.2

System: ethylene carbonate + 1-ethyl-3-methylimidazolium bis((trifluoromethyl)sulfonyl)imide; phases: Liquid, Crystal
Fixed: Pressure, kPa = 100
Property: Solid-liquid equilibrium temperature, K (Liquid); method: DTA
Mole fraction of ethylene carbonate	Solid-liquid equilibrium temperature, K	uncertainty
0.55987	263.95	6
0.3305	247.65	6
0.5263	259.15	6
0.6557	272.25	6
0.7476	281.95	6
0.8163	289.75	6
0.8696	297.35	6
0.912	301.45	6
0.9467	307.35	6
0.9756	309.65	6
1	314.45	6

System: ethylene carbonate + 1-ethyl-3-methylimidazolium bis((trifluoromethyl)sulfonyl)imide; phases: Liquid, Crystal
Fixed: Pressure, kPa = 100
Property: Solid-liquid equilibrium temperature, K (Liquid); method: DTA
Mole fraction of ethylene carbonate	Solid-liquid equilibrium temperature, K	uncertainty
0.10594	258.55	6
0.14583	256.95	6
0.19598	254.35	6
0.26143	251.35	6
0	266.45	6

System: ethylene carbonate + 1-ethyl-3-methylimidazolium bis((trifluoromethyl)sulfonyl)imide; phases: Liquid
Fixed: Pressure, kPa = 100
Property: Viscosity, Pa*s (Liquid); method: Cone and plate viscometry
Temperature, K	Mole fraction of 1-ethyl-3-methylimidazolium bis((trifluoromethyl)sulfonyl)imide	Viscosity, Pa*s	uncertainty
298.15	1	0.0339	0.0034
293.15	1	0.0416	0.0042
303.15	1	0.0273	0.0027
313.15	1	0.0191	0.0019
323.15	1	0.0144	0.0014
333.15	1	0.0113	0.0011
343.15	1	0.0083	0.0008
353.15	1	0.0068	0.0007
363.15	1	0.0056	0.0006
373.15	1	0.0048	0.0005
383.15	1	0.0042	0.0004
393.15	1	0.0037	0.0004
293.15	0.4737	0.0151	0.0015
303.15	0.4737	0.0115	0.0012
313.15	0.4737	0.009	0.0009
323.15	0.4737	0.0071	0.0007
333.15	0.4737	0.0058	0.0006
343.15	0.4737	0.0046	0.0005
353.15	0.4737	0.004	0.0004
363.15	0.4737	0.0034	0.0003
373.15	0.4737	0.003	0.0003
383.15	0.4737	0.0027	0.0003
393.15	0.4737	0.0024	0.0002
293.15	0.2524	0.0081	0.0008
303.15	0.2524	0.0061	0.0006
313.15	0.2524	0.0046	0.0005
323.15	0.2524	0.0039	0.0004
333.15	0.2524	0.0033	0.0003
343.15	0.2524	0.0027	0.0003
353.15	0.2524	0.0023	0.0002
363.15	0.2524	0.00203	0.0002
373.15	0.2524	0.00183	0.00018
383.15	0.2524	0.00163	0.00016
393.15	0.2524	0.00149	0.00015
293.15	0.1837	0.005	0.0005
303.15	0.1837	0.0041	0.0004
313.15	0.1837	0.0034	0.0003
323.15	0.1837	0.0028	0.0003
333.15	0.1837	0.0024	0.0002
343.15	0.1837	0.00197	0.0002
353.15	0.1837	0.00174	0.00017
363.15	0.1837	0.00156	0.00016
373.15	0.1837	0.0014	0.00014
383.15	0.1837	0.00129	0.00013
393.15	0.1837	0.00119	0.00012
303.15	0.0533	0.003	0.0003
313.15	0.0533	0.0024	0.0002
323.15	0.0533	0.0021	0.0002
333.15	0.0533	0.00184	0.00018
343.15	0.0533	0.00148	0.00015
353.15	0.0533	0.00133	0.00013
363.15	0.0533	0.0012	0.00012
373.15	0.0533	0.00108	0.00011
383.15	0.0533	0.00097	0.0001
393.15	0.0533	0.00091	9e-05
313.15	0	0.00181	0.00018
323.15	0	0.00156	0.00016
333.15	0	0.0014	0.00014
343.15	0	0.00116	0.00012
353.15	0	0.00107	0.00011
363.15	0	0.00096	0.0001
373.15	0	0.00085	9e-05
383.15	0	0.00074	7e-05
393.15	0	0.00071	7e-05

System: ethylene carbonate + 1-ethyl-3-methylimidazolium bis((trifluoromethyl)sulfonyl)imide; phases: Liquid
Fixed: Pressure, kPa = 100
Property: Electrical conductivity, S/m (Liquid); method: Alternating current cell with electrodes
Temperature, K	Mole fraction of ethylene carbonate	Electrical conductivity, S/m	uncertainty
298.15	0	0.9	0.05
293.15	0	0.73	0.04
293.15	0.3305	1.02	0.06
293.15	0.5263	1.24	0.07
293.15	0.6557	1.52	0.09
293.15	0.7476	1.57	0.09
293.15	0.8163	1.52	0.09
293.15	0.8695	1.44	0.09
293.15	0.912	1.33	0.08
293.15	0.9467	1.03	0.06
293.15	0.9756	0.62	0.04
313.15	0	1.29	0.08
313.15	0.3305	1.68	0.1
313.15	0.5263	1.97	0.12
313.15	0.6557	2.32	0.14
313.15	0.7476	2.34	0.14
313.15	0.8163	2.23	0.13
313.15	0.8695	2.05	0.12
313.15	0.912	1.86	0.11
313.15	0.9467	1.42	0.09
313.15	0.9756	0.85	0.05
333.15	0	1.94	0.12
333.15	0.3305	2.45	0.15
333.15	0.5263	2.71	0.16
333.15	0.6557	3.2	0.19
333.15	0.7476	3.18	0.19
333.15	0.8163	2.98	0.18
333.15	0.8695	2.7	0.16
333.15	0.912	2.45	0.15
333.15	0.9467	1.84	0.11
333.15	0.9756	1.1	0.07
353.15	0	2.73	0.16
353.15	0.3305	3.29	0.2
353.15	0.5263	4.04	0.24
353.15	0.6557	4.47	0.27
353.15	0.7476	4.43	0.27
353.15	0.8163	4.06	0.24
353.15	0.8695	3.59	0.22
353.15	0.912	3.01	0.18
353.15	0.9467	2.29	0.14
353.15	0.9756	1.37	0.08
