Measured thermophysical data. Isopiestic Measurements of Osmotic and Activity Coefficients of NiCl2-NH4Cl-H2O Systems at 308.15 K
Source: J. Chem. Eng. Data, 2018, 10.1021/acs.jced.8b00400
Compound 1: ammonium chloride (NH4Cl), ClH4N, InChI=1S/ClH.H3N/h1H;1H3, purity 99.5%
Compound 2: nickel chloride (NiCl2), Cl2Ni, InChI=1S/2ClH.Ni/h2*1H;/q;;+2/p-2, purity 99.99%
Compound 3: potassium chloride, ClK, InChI=1S/ClH.K/h1H;/q;+1/p-1, purity 99.99%
Compound 4: water, H2O, InChI=1S/H2O/h1H2, purity 99.9%
Compound 5: sodium hydroxide, HNaO, InChI=1S/Na.H2O/h;1H2/q+1;/p-1, purity 99%

System: sodium hydroxide + water; phases: Liquid
Fixed: Pressure, kPa = 100
Fixed: Temperature, K = 298.15
Property: Osmotic coefficient (Liquid); method: ISOPIE
Molality, mol/kg of sodium hydroxide	Osmotic coefficient	uncertainty
1.0038	0.9589	0.0089
2.0105	1.0324	0.0089

System: potassium chloride + water; phases: Liquid
Fixed: Pressure, kPa = 100
Fixed: Temperature, K = 298.15
Property: Osmotic coefficient (Liquid); method: ISOPIE
Molality, mol/kg of potassium chloride	Osmotic coefficient	uncertainty
0.9956	0.9011	0.0108
2.0024	0.9163	0.0106

System: nickel chloride (NiCl2) + water; phases: Liquid
Fixed: Pressure, kPa = 100
Fixed: Temperature, K = 298.15
Property: (Relative) activity of water (Liquid); method: ISOPIE
Molality, mol/kg of nickel chloride (NiCl2)	(Relative) activity of water	uncertainty
0.0453	0.9979	0.04
0.0933	0.9957	0.04
0.1976	0.991	0.04
0.5611	0.9716	0.04
0.5842	0.9704	0.04
0.8713	0.9524	0.04
0.9799	0.9447	0.04
1.0457	0.9398	0.04
1.2523	0.9241	0.04
1.551	0.8988	0.04
1.565	0.8976	0.04
1.8328	0.8729	0.04
1.9214	0.8644	0.04
1.9665	0.86	0.04
2.1453	0.8422	0.04
2.2024	0.8363	0.04

System: ammonium chloride (NH4Cl) + water; phases: Liquid
Fixed: Pressure, kPa = 100
Fixed: Temperature, K = 298.15
Property: (Relative) activity of water (Liquid); method: ISOPIE
Molality, mol/kg of ammonium chloride (NH4Cl)	(Relative) activity of water	uncertainty
0.2736	0.991	0.039
0.3956	0.987	0.039
0.8823	0.9716	0.039
0.9281	0.9704	0.039
1.394	0.9558	0.039
1.734	0.9447	0.039
1.8958	0.9398	0.039
2.3852	0.9241	0.039
2.5992	0.9175	0.039
3.1797	0.8992	0.039
3.2201	0.8977	0.039
4.0155	0.8728	0.039
4.3161	0.8634	0.039
4.4582	0.8592	0.039
5.2481	0.8358	0.039
6.0151	0.8119	0.039

System: nickel chloride (NiCl2) + ammonium chloride (NH4Cl) + water; phases: Liquid
Fixed: Pressure, kPa = 100
Fixed: Temperature, K = 298.15
Property: (Relative) activity of water (Liquid); method: ISOPIE
Molality, mol/kg of nickel chloride (NiCl2)	Molality, mol/kg of ammonium chloride (NH4Cl)	(Relative) activity of water	uncertainty
0.0541	0.0543	0.9957	0.0409
0.1601	0.1648	0.987	0.0409
0.3336	0.3605	0.9716	0.0409
0.6346	0.6421	0.9447	0.0409
0.8377	0.8462	0.9241	0.0409
1.0637	1.0776	0.8992	0.0409
1.4063	1.4115	0.86	0.0409
1.6074	1.5925	0.8358	0.0409
0.2235	0.1066	0.9863	0.0409
0.4465	0.2226	0.9704	0.0409
0.6401	0.32	0.9558	0.0409
0.8429	0.4107	0.9398	0.0409
1.0784	0.5395	0.9175	0.0409
1.2823	0.6365	0.8977	0.0409
1.5228	0.7651	0.8728	0.0409
1.8046	0.9031	0.8426	0.0409
