Measured thermophysical data. Activity Coefficients of CsCl in PEG 200 H2O and PEG 600 H2O Mixtures at 298.15 K
Source: J. Chem. Eng. Data, 2017, 10.1021/acs.jced.7b00024
Compound 1: cesium chloride, ClCs, InChI=1S/ClH.Cs/h1H;/q;+1/p-1, purity 99.5%
Compound 2: water, H2O, InChI=1S/H2O/h1H2, purity 99.8%

System: cesium chloride + water; phases: Liquid
Fixed: Temperature, K = 298.15
Fixed: Pressure, kPa = 100
Property: Mean ionic activity coefficient of cesium chloride (Liquid); method: Potentiometry
Molality, mol/kg of cesium chloride	Mean ionic activity coefficient of cesium chloride	uncertainty
0.0085	0.9052	0.0406
0.028	0.8434	0.0406
0.0574	0.7943	0.0406
0.0969	0.7528	0.0406
0.1937	0.6923	0.0406
0.3873	0.6283	0.0406
0.6802	0.5769	0.0406
1.073	0.5383	0.0406
1.5605	0.5104	0.0406
2.1523	0.4908	0.0406
2.9473	0.4772	0.0406
3.9436	0.4716	0.0406
0.01	0.898	0.0406
0.0297	0.8398	0.0406
0.0706	0.7784	0.0406
0.1497	0.7154	0.0406
0.2985	0.6525	0.0406
0.5981	0.5884	0.0406
0.9033	0.5524	0.0406
1.5039	0.513	0.0406
2.1055	0.492	0.0406
3.0078	0.4765	0.0406
4.0015	0.4715	0.0406
