Measured thermophysical data. Structure-Property Relationship for 1-Isopropyl-3-methylimidazolium- and 1-tert-Butyl-3-methylimidazolium-Based Ionic Liquids: Thermal Properties, Densities, Viscosities, and Quantum Chemical Calculations
Source: J. Chem. Eng. Data, 2019, 10.1021/acs.jced.9b00776
Compound 1: 1-methyl-3-(1-methylethyl)imidazolium iodide, C7H13IN2, InChI=1S/C7H13N2.HI/c1-7(2)9-5-4-8(3)6-9;/h4-7H,1-3H3;1H/q+1;/p-1, purity 99.9%
Compound 2: 1-methyl-3-(1-methylethyl)imidazolium hexafluorophosphate, C7H13F6N2P, InChI=1S/C7H13N2.F6P/c1-7(2)9-5-4-8(3)6-9;1-7(2,3,4,5)6/h4-7H,1-3H3;/q+1;-1, purity 99.9%
Compound 3: 1-isopropyl-3-methylimidazolium bis(fluorosulfonyl)imide, C7H13F2N3O4S2, InChI=1S/C7H13N2.F2NO4S2/c1-7(2)9-5-4-8(3)6-9;1-8(4,5)3-9(2,6)7/h4-7H,1-3H3;/q+1;-1, purity 99.9%
Compound 4: 1-methyl-3-(1-methylethyl)imidazolium bis[(trifluoromethyl)sulfonyl]imide, C9H13F6N3O4S2, InChI=1S/C7H13N2.C2F6NO4S2/c1-7(2)9-5-4-8(3)6-9;3-1(4,5)14(10,11)9-15(12,13)2(6,7)8/h4-7H,1-3H3;/q+1;-1, purity 99.9%
Compound 5: 1-isopropyl-3-methylimidazolium bis(pentafluoroethylsulfonyl)imide, C11H13F10N3O4S2, InChI=1S/C7H13N2.C4F10NO4S2/c1-7(2)9-5-4-8(3)6-9;5-1(6,7)3(11,12)20(16,17)15-21(18,19)4(13,14)2(8,9)10/h4-7H,1-3H3;/q+1;-1, purity 99.3%
Compound 6: 1-tert-butyl-3-methylimidazolium iodide, C8H15IN2, InChI=1S/C8H15N2.HI/c1-8(2,3)10-6-5-9(4)7-10;/h5-7H,1-4H3;1H/q+1;/p-1, purity 99.9%
Compound 7: 1-tert-butyl-3-methylimidazolium hexafluorophosphate, C8H15F6N2P, InChI=1S/C8H15N2.F6P/c1-8(2,3)10-6-5-9(4)7-10;1-7(2,3,4,5)6/h5-7H,1-4H3;/q+1;-1, purity 99.9%
Compound 8: 1-tert-butyl-3-methylimidazolium bis(fluorosulfonyl)imide, C8H15F2N3O4S2, InChI=1S/C8H15N2.F2NO4S2/c1-8(2,3)10-6-5-9(4)7-10;1-8(4,5)3-9(2,6)7/h5-7H,1-4H3;/q+1;-1, purity 99.9%
Compound 9: 1-tert-butyl-3-methylimidazolium bis(trifluoromethylsulfonyl)imide, C10H15F6N3O4S2, InChI=1S/C8H15N2.C2F6NO4S2/c1-8(2,3)10-6-5-9(4)7-10;3-1(4,5)14(10,11)9-15(12,13)2(6,7)8/h5-7H,1-4H3;/q+1;-1, purity 99.9%
Compound 10: 1-tert-butyl-3-methylimidazolium bis(pentafluoroethylsulfonyl)imide, C12H15F10N3O4S2, InChI=1S/C8H15N2.C4F10NO4S2/c1-8(2,3)10-6-5-9(4)7-10;5-1(6,7)3(11,12)20(16,17)15-21(18,19)4(13,14)2(8,9)10/h5-7H,1-4H3;/q+1;-1, purity 99.9%
Compound 11: 1-methyl-3-propylimidazolium bis(fluorosulfonyl)imide, C7H13F2N3O4S2, InChI=1S/C7H13N2.F2NO4S2/c1-3-4-9-6-5-8(2)7-9;1-8(4,5)3-9(2,6)7/h5-7H,3-4H2,1-2H3;/q+1;-1, purity 99.9%

System: 1-methyl-3-(1-methylethyl)imidazolium iodide; phases: Crystal, Liquid, Air at 1 atmosphere
Property: Triple point temperature, K (Crystal); method: DSC
Triple point temperature, K	uncertainty
383.4	1.8

System: 1-methyl-3-(1-methylethyl)imidazolium iodide; phases: Crystal, Liquid, Air at 1 atmosphere
Property: Molar enthalpy of transition or fusion, kJ/mol (Crystal); method: DSC
Molar enthalpy of transition or fusion, kJ/mol	uncertainty
16.3	0.5

System: 1-methyl-3-(1-methylethyl)imidazolium hexafluorophosphate; phases: Crystal, Liquid, Air at 1 atmosphere
Property: Triple point temperature, K (Crystal); method: DSC
Triple point temperature, K	uncertainty
374	1.8

System: 1-methyl-3-(1-methylethyl)imidazolium hexafluorophosphate; phases: Crystal, Liquid, Air at 1 atmosphere
Property: Molar enthalpy of transition or fusion, kJ/mol (Crystal); method: DSC
Molar enthalpy of transition or fusion, kJ/mol	uncertainty
15.7	0.5

System: 1-isopropyl-3-methylimidazolium bis(fluorosulfonyl)imide; phases: Crystal, Liquid, Air at 1 atmosphere
Property: Triple point temperature, K (Crystal); method: DSC
Triple point temperature, K	uncertainty
269.2	1.8

System: 1-isopropyl-3-methylimidazolium bis(fluorosulfonyl)imide; phases: Crystal, Liquid, Air at 1 atmosphere
Property: Molar enthalpy of transition or fusion, kJ/mol (Crystal); method: DSC
Molar enthalpy of transition or fusion, kJ/mol	uncertainty
14.3	0.5

System: 1-isopropyl-3-methylimidazolium bis(fluorosulfonyl)imide; phases: Liquid
Fixed: Pressure, kPa = 100.9
Property: Mass density, kg/m3 (Liquid); method: Vibrating tube method
Temperature, K	Mass density, kg/m3	uncertainty
293.15	1399.4	2
298.15	1394.9	2
303.15	1390.6	2
313.15	1382.1	2
323.15	1373.2	2
333.15	1364.8	2
343.15	1356.3	2
353.15	1347.8	2

System: 1-isopropyl-3-methylimidazolium bis(fluorosulfonyl)imide; phases: Liquid
Fixed: Pressure, kPa = 100.9
Property: Viscosity, Pa*s (Liquid); method: Cone and plate viscometry
Temperature, K	Viscosity, Pa*s	uncertainty
293.2	0.0316	0.0025
298.2	0.0264	0.0021
303.2	0.022	0.0018
313.2	0.0159	0.0013
323.2	0.0131	0.0011
333.2	0.0104	0.0008
343.2	0.0084	0.0007
353.2	0.007	0.0006

System: 1-methyl-3-(1-methylethyl)imidazolium bis[(trifluoromethyl)sulfonyl]imide; phases: Crystal, Liquid, Air at 1 atmosphere
Property: Triple point temperature, K (Crystal); method: DSC
Triple point temperature, K	uncertainty
283.5	1.8

System: 1-methyl-3-(1-methylethyl)imidazolium bis[(trifluoromethyl)sulfonyl]imide; phases: Crystal, Liquid, Air at 1 atmosphere
Property: Molar enthalpy of transition or fusion, kJ/mol (Crystal); method: DSC
Molar enthalpy of transition or fusion, kJ/mol	uncertainty
24.2	0.7

System: 1-methyl-3-(1-methylethyl)imidazolium bis[(trifluoromethyl)sulfonyl]imide; phases: Liquid
Fixed: Pressure, kPa = 100.9
Property: Mass density, kg/m3 (Liquid); method: Vibrating tube method
Temperature, K	Mass density, kg/m3	uncertainty
293.15	1481.9	2
298.15	1476.8	2
303.15	1472	2
313.15	1462.5	2
323.15	1452.4	2
333.15	1442.9	2
343.15	1433.4	2
353.15	1423.7	2

System: 1-methyl-3-(1-methylethyl)imidazolium bis[(trifluoromethyl)sulfonyl]imide; phases: Liquid
Fixed: Pressure, kPa = 100.9
Property: Viscosity, Pa*s (Liquid); method: Cone and plate viscometry
Temperature, K	Viscosity, Pa*s	uncertainty
293.2	0.0583	0.0047
298.2	0.0455	0.0037
303.2	0.0369	0.003
313.2	0.0245	0.002
323.2	0.0193	0.0016
333.2	0.0145	0.0012
343.2	0.0112	0.0009
353.2	0.0089	0.0007

System: 1-isopropyl-3-methylimidazolium bis(pentafluoroethylsulfonyl)imide; phases: Glass, Liquid, Air at 1 atmosphere
Property: Triple point temperature, K (Glass); method: DSC
Triple point temperature, K	uncertainty
197.4	1.8

System: 1-isopropyl-3-methylimidazolium bis(pentafluoroethylsulfonyl)imide; phases: Liquid
Fixed: Pressure, kPa = 100.9
Property: Mass density, kg/m3 (Liquid); method: Vibrating tube method
Temperature, K	Mass density, kg/m3	uncertainty
293.15	1556.7	2
298.15	1551.3	2
303.15	1546	2
313.15	1535.5	2
323.15	1524.6	2
333.15	1514	2
343.15	1503.5	2
353.15	1492.8	2

System: 1-isopropyl-3-methylimidazolium bis(pentafluoroethylsulfonyl)imide; phases: Liquid
Fixed: Pressure, kPa = 100.9
Property: Viscosity, Pa*s (Liquid); method: Cone and plate viscometry
Temperature, K	Viscosity, Pa*s	uncertainty
293.2	0.1726	0.0145
298.2	0.1214	0.0101
303.2	0.0917	0.0075
313.2	0.053	0.0043
323.2	0.038	0.0031
333.2	0.0264	0.0021
343.2	0.0191	0.0015
353.2	0.0144	0.0012

System: 1-tert-butyl-3-methylimidazolium iodide; phases: Crystal, Liquid, Air at 1 atmosphere
Property: Triple point temperature, K (Crystal); method: DSC
Triple point temperature, K	uncertainty
432.7	1.8

System: 1-tert-butyl-3-methylimidazolium iodide; phases: Crystal, Liquid, Air at 1 atmosphere
Property: Molar enthalpy of transition or fusion, kJ/mol (Crystal); method: DSC
Molar enthalpy of transition or fusion, kJ/mol	uncertainty
15.2	0.5

System: 1-tert-butyl-3-methylimidazolium hexafluorophosphate; phases: Crystal, Liquid, Air at 1 atmosphere
Property: Triple point temperature, K (Crystal); method: DSC
Triple point temperature, K	uncertainty
421	1.8

System: 1-tert-butyl-3-methylimidazolium hexafluorophosphate; phases: Crystal, Liquid, Air at 1 atmosphere
Property: Molar enthalpy of transition or fusion, kJ/mol (Crystal); method: DSC
Molar enthalpy of transition or fusion, kJ/mol	uncertainty
23.1	0.7

System: 1-tert-butyl-3-methylimidazolium bis(fluorosulfonyl)imide; phases: Crystal, Liquid, Air at 1 atmosphere
Property: Triple point temperature, K (Crystal); method: DSC
Triple point temperature, K	uncertainty
326.6	1.8

System: 1-tert-butyl-3-methylimidazolium bis(fluorosulfonyl)imide; phases: Crystal, Liquid, Air at 1 atmosphere
Property: Molar enthalpy of transition or fusion, kJ/mol (Crystal); method: DSC
Molar enthalpy of transition or fusion, kJ/mol	uncertainty
17.4	0.5

System: 1-tert-butyl-3-methylimidazolium bis(fluorosulfonyl)imide; phases: Liquid
Fixed: Pressure, kPa = 100.9
Property: Viscosity, Pa*s (Liquid); method: Cone and plate viscometry
Temperature, K	Viscosity, Pa*s	uncertainty
323.2	0.0255	0.002
333.2	0.0189	0.0015
343.2	0.0146	0.0012
353.2	0.0115	0.0009

System: 1-tert-butyl-3-methylimidazolium bis(trifluoromethylsulfonyl)imide; phases: Crystal, Liquid, Air at 1 atmosphere
Property: Triple point temperature, K (Crystal); method: DSC
Triple point temperature, K	uncertainty
280.4	1.8

System: 1-tert-butyl-3-methylimidazolium bis(trifluoromethylsulfonyl)imide; phases: Crystal, Liquid, Air at 1 atmosphere
Property: Molar enthalpy of transition or fusion, kJ/mol (Crystal); method: DSC
Molar enthalpy of transition or fusion, kJ/mol	uncertainty
22.9	0.7

System: 1-tert-butyl-3-methylimidazolium bis(trifluoromethylsulfonyl)imide; phases: Liquid
Fixed: Pressure, kPa = 100.9
Property: Mass density, kg/m3 (Liquid); method: Vibrating tube method
Temperature, K	Mass density, kg/m3	uncertainty
293.15	1451.5	2
298.15	1446.6	2
303.15	1442	2
313.15	1432.8	2
323.15	1423.1	2
333.15	1413.8	2
343.15	1404.5	2
353.15	1395	2

System: 1-tert-butyl-3-methylimidazolium bis(trifluoromethylsulfonyl)imide; phases: Liquid
Fixed: Pressure, kPa = 100.9
Property: Viscosity, Pa*s (Liquid); method: Cone and plate viscometry
Temperature, K	Viscosity, Pa*s	uncertainty
293.2	0.1673	0.014
298.2	0.1214	0.01
303.2	0.0915	0.0074
313.2	0.0556	0.0045
323.2	0.0375	0.003
333.2	0.0262	0.0021
343.2	0.019	0.0015
353.2	0.0145	0.0012

System: 1-tert-butyl-3-methylimidazolium bis(pentafluoroethylsulfonyl)imide; phases: Crystal, Liquid, Air at 1 atmosphere
Property: Triple point temperature, K (Crystal); method: DSC
Triple point temperature, K	uncertainty
294.3	1.8

System: 1-tert-butyl-3-methylimidazolium bis(pentafluoroethylsulfonyl)imide; phases: Crystal, Liquid, Air at 1 atmosphere
Property: Molar enthalpy of transition or fusion, kJ/mol (Crystal); method: DSC
Molar enthalpy of transition or fusion, kJ/mol	uncertainty
16.7	0.5

System: 1-tert-butyl-3-methylimidazolium bis(pentafluoroethylsulfonyl)imide; phases: Glass, Liquid, Air at 1 atmosphere
Property: Triple point temperature, K (Glass); method: DSC
Triple point temperature, K	uncertainty
215.1	1.8

System: 1-tert-butyl-3-methylimidazolium bis(pentafluoroethylsulfonyl)imide; phases: Liquid
Fixed: Pressure, kPa = 100.9
Property: Mass density, kg/m3 (Liquid); method: Vibrating tube method
Temperature, K	Mass density, kg/m3	uncertainty
293.15	1530.8	2
298.15	1525.2	2
303.15	1519.9	2
313.15	1509.6	2
323.15	1498.9	2
333.15	1488.6	2
343.15	1478.4	2
353.15	1467.8	2

System: 1-tert-butyl-3-methylimidazolium bis(pentafluoroethylsulfonyl)imide; phases: Liquid
Fixed: Pressure, kPa = 100.9
Property: Viscosity, Pa*s (Liquid); method: Cone and plate viscometry
Temperature, K	Viscosity, Pa*s	uncertainty
293.2	0.5711	0.053
298.2	0.3672	0.033
303.2	0.2467	0.0213
313.2	0.1261	0.0105
323.2	0.0809	0.0066
333.2	0.0507	0.0041
343.2	0.0339	0.0027
353.2	0.0238	0.0019

System: 1-methyl-3-propylimidazolium bis(fluorosulfonyl)imide; phases: Liquid
Fixed: Pressure, kPa = 100.9
Property: Mass density, kg/m3 (Liquid); method: Vibrating tube method
Temperature, K	Mass density, kg/m3	uncertainty
293.15	1399.4	2
298.15	1395.1	2
303.15	1390.6	2
313.15	1381.8	2
323.15	1373.1	2
333.15	1364.5	2
343.15	1355.8	2
353.15	1347.2	2

System: 1-methyl-3-propylimidazolium bis(fluorosulfonyl)imide; phases: Liquid
Fixed: Pressure, kPa = 100.9
Property: Viscosity, Pa*s (Liquid); method: Cone and plate viscometry
Temperature, K	Viscosity, Pa*s	uncertainty
293.2	0.0371	0.003
298.2	0.0299	0.0024
303.2	0.0248	0.002
313.2	0.0174	0.0014
323.2	0.0132	0.0011
333.2	0.0104	0.0008
343.2	0.0084	0.0007
353.2	0.0069	0.0006
