Measured thermophysical data. Isobaric Vapor-Liquid Equilibrium Data for the Acetone + Hexamethyl Disiloxane + Ethyl Acetate Ternary System at 101.3 kPa: Determination and Correlation
Source: J. Chem. Eng. Data, 2018, 10.1021/acs.jced.8b00488
Compound 1: acetone, C3H6O, InChI=1S/C3H6O/c1-3(2)4/h1-2H3
Compound 2: hexamethyldisiloxane, C6H18OSi2, InChI=1S/C6H18OSi2/c1-8(2,3)7-9(4,5)6/h1-6H3
Compound 3: ethyl acetate, C4H8O2, InChI=1S/C4H8O2/c1-3-6-4(2)5/h3H2,1-2H3

System: acetone; phases: Liquid, Gas
Property: Vapor or sublimation pressure, kPa (Liquid); method: Ebulliometric method (Recirculating still)
Temperature, K	Vapor or sublimation pressure, kPa	uncertainty
329.33	101.3	0.8

System: hexamethyldisiloxane; phases: Liquid, Gas
Property: Vapor or sublimation pressure, kPa (Liquid); method: Ebulliometric method (Recirculating still)
Temperature, K	Vapor or sublimation pressure, kPa	uncertainty
374.12	101.3	0.8

System: acetone + hexamethyldisiloxane; phases: Liquid, Gas
Fixed: Pressure, kPa = 101.3
Property: Boiling temperature at pressure P, K (Liquid); method: Ebulliometric method (Recirculating still)
Mole fraction of acetone	Boiling temperature at pressure P, K	uncertainty
0	374.12	0.17
0.0164	369.09	2.44
0.0317	364.46	1.61
0.0758	356.78	1.17
0.1376	349.03	0.8
0.2102	343.64	0.55
0.2847	339.51	0.4
0.3884	335.53	0.34
0.4378	334.01	0.22
0.5178	333.31	0.19
0.5613	332.72	0.21
0.6429	331.54	0.2
0.7417	330.7	0.19
0.7896	330.3	0.19
0.8401	329.78	0.19
0.8793	329.5	0.19
0.914	329.2	0.18
0.946	329.04	0.18
0.9692	329.01	0.18
0.9874	329.24	0.19
1	329.33	0.17

System: acetone + hexamethyldisiloxane; phases: Gas, Liquid
Fixed: Pressure, kPa = 101.3
Property: Mole fraction of acetone (Gas); method: Chromatography
Mole fraction of acetone	Mole fraction of acetone	uncertainty
0	0	
0.0164	0.1552	0.0681
0.0317	0.2674	0.0377
0.0758	0.4396	0.0254
0.1376	0.5871	0.0174
0.2102	0.693	0.0126
0.2847	0.7586	0.0098
0.3884	0.8105	0.009
0.4378	0.8288	0.0084
0.5178	0.8448	0.0083
0.5613	0.8544	0.0083
0.6429	0.8688	0.0082
0.7417	0.8828	0.0082
0.7896	0.8882	0.0083
0.8401	0.9047	0.0085
0.8793	0.9197	0.0087
0.914	0.9341	0.0089
0.946	0.9522	0.0095
0.9692	0.969	0.0103
0.9874	0.9863	0.0113
1	1	

System: acetone + hexamethyldisiloxane + ethyl acetate; phases: Liquid, Gas
Fixed: Pressure, kPa = 101.3
Property: Mole fraction of hexamethyldisiloxane (Liquid); method: Chromatography
Property: Mole fraction of hexamethyldisiloxane (Gas); method: Chromatography
Property: Mole fraction of acetone (Gas); method: Chromatography
Temperature, K	Mole fraction of acetone	Mole fraction of hexamethyldisiloxane	uncertainty	Mole fraction of hexamethyldisiloxane	uncertainty	Mole fraction of acetone	uncertainty
330.63	0.8977	0.0408	0.008	0.0401	0.008	0.9301	
343.16	0.2085	0.0547	0.008	0.0479	0.008	0.3666	
346.52	0.1184	0.0539	0.008	0.051	0.008	0.2353	
346.81	0.0842	0.0559	0.008	0.0448	0.008	0.1742	
330.69	0.8282	0.0951	0.008	0.0706	0.008	0.8952	
330.97	0.7935	0.0812	0.008	0.0666	0.008	0.8778	
333.01	0.6516	0.1162	0.008	0.0838	0.008	0.7893	
334.87	0.5984	0.1077	0.008	0.0768	0.008	0.7581	
335.12	0.5575	0.1039	0.008	0.0776	0.008	0.7279	
335.78	0.4779	0.1302	0.0081	0.0897	0.008	0.6685	
338.07	0.4181	0.1224	0.008	0.0897	0.008	0.6227	
330.83	0.8577	0.0378	0.008	0.0366	0.008	0.913	
339.58	0.3215	0.1264	0.0081	0.0915	0.008	0.5245	
341.86	0.2325	0.1254	0.008	0.0953	0.008	0.4241	
346.35	0.1246	0.1132	0.008	0.092	0.008	0.2612	
332.43	0.7178	0.2057	0.0081	0.1013	0.008	0.8403	
332.66	0.6639	0.2072	0.0081	0.1056	0.0081	0.8119	
333.91	0.571	0.2186	0.0081	0.1095	0.0081	0.762	
335.7	0.4737	0.232	0.0082	0.1148	0.0081	0.7013	
338.3	0.3503	0.2495	0.0082	0.1314	0.0081	0.5906	
341.3	0.2521	0.2487	0.0082	0.141	0.0081	0.4796	
346.55	0.1034	0.2669	0.0082	0.1664	0.0081	0.2478	
331.48	0.7869	0.0391	0.008	0.0384	0.008	0.8741	
332.36	0.5859	0.3258	0.0083	0.137	0.0081	0.8229	
334.75	0.488	0.3353	0.0084	0.141	0.0081	0.7431	
337.66	0.3468	0.3667	0.0084	0.1633	0.0081	0.629	
343.06	0.201	0.3898	0.0085	0.1953	0.0082	0.4573	
346.48	0.1073	0.3904	0.0085	0.2179	0.0082	0.2868	
335.9	0.4087	0.4969	0.0088	0.176	0.0081	0.7642	
339.29	0.2912	0.5134	0.0087	0.1975	0.0082	0.6415	
343.62	0.1897	0.5189	0.0087	0.224	0.0082	0.4935	
345.9	0.1662	0.7281	0.0082	0.3073	0.0084	0.5676	
333.46	0.6987	0.048	0.008	0.045	0.008	0.8203	
335.01	0.6047	0.0472	0.008	0.045	0.008	0.7505	
337.36	0.4596	0.0516	0.008	0.0483	0.008	0.6401	
338.95	0.4124	0.0489	0.008	0.0438	0.008	0.6064	
339.59	0.3605	0.0489	0.008	0.0419	0.008	0.5501	
340.64	0.2874	0.0543	0.008	0.0438	0.008	0.4648	
