Measured thermophysical data. Vapor Pressures and Thermophysical Properties of Dimethyl Carbonate, Diethyl Carbonate, and Dipropyl Carbonate
Source: J. Chem. Eng. Data, 2017, 10.1021/acs.jced.7b00295
Compound 1: dimethyl carbonate, C3H6O3, InChI=1S/C3H6O3/c1-5-3(4)6-2/h1-2H3, purity 99.9%
Compound 2: diethyl carbonate, C5H10O3, InChI=1S/C5H10O3/c1-3-7-5(6)8-4-2/h3-4H2,1-2H3, purity 100%
Compound 3: dipropyl carbonate, C7H14O3, InChI=1S/C7H14O3/c1-3-5-9-7(8)10-6-4-2/h3-6H2,1-2H3, purity 99.6%

System: dimethyl carbonate; phases: Crystal 1, Liquid, Air at 1 atmosphere
Property: Normal melting temperature, K (Crystal 1); method: DTA
Normal melting temperature, K	uncertainty
277.57	0.7

System: dimethyl carbonate; phases: Crystal 2, Crystal 1, Air at 1 atmosphere
Property: Triple point temperature, K (Crystal 2); method: DSC
Triple point temperature, K	uncertainty
219.78	0.93

System: dimethyl carbonate; phases: Crystal 1, Liquid, Air at 1 atmosphere
Property: Molar enthalpy of transition or fusion, kJ/mol (Crystal 1); method: DSC
Molar enthalpy of transition or fusion, kJ/mol	uncertainty
11.9	0.7

System: dimethyl carbonate; phases: Crystal, Gas
Property: Vapor or sublimation pressure, kPa (Crystal); method: Closed cell (Static) method
Temperature, K	Vapor or sublimation pressure, kPa	uncertainty
258.13	0.41534	0.00603
258.14	0.41558	0.00603
258.13	0.41523	0.00603
263.14	0.65901	0.00898
263.13	0.65824	0.00897
263.13	0.65853	0.00897
267.14	0.93964	0.01247
267.14	0.93977	0.01247
267.13	0.93912	0.01247
269.14	1.1169	0.01472
269.14	1.1173	0.01472
269.14	1.1171	0.01472
269.64	1.1662	0.0154
269.64	1.166	0.0154
269.64	1.1661	0.0154
270.14	1.2168	0.01603
270.14	1.2171	0.01604
270.14	1.2167	0.01603
270.64	1.2694	0.0167
270.64	1.2696	0.01671
270.64	1.2697	0.01671
271.14	1.3248	0.01664
271.14	1.3245	0.01664
271.14	1.3248	0.01664
271.64	1.3817	0.01716
271.64	1.3815	0.01715
271.64	1.3817	0.01716

System: dimethyl carbonate; phases: Crystal
Fixed: Pressure, kPa = 100
Property: Molar heat capacity at constant pressure, J/K/mol (Crystal); method: Extra sensitive DSC
Temperature, K	Molar heat capacity at constant pressure, J/K/mol	uncertainty
260.7	129.54	5.02
262	130.26	5.05
264	131.25	5.08
266	132.15	5.12
268	132.96	5.15

System: dimethyl carbonate; phases: Liquid
Fixed: Pressure, kPa = 100
Property: Molar heat capacity at constant pressure, J/K/mol (Liquid); method: Extra sensitive DSC
Temperature, K	Molar heat capacity at constant pressure, J/K/mol	uncertainty
286.62	163.86	6.35
290	164.3	6.36
295	164.85	6.38
300	165.48	6.41
305	166.2	6.44
310	166.83	6.46
315	167.55	6.49
320	168.36	6.52
322.98	168.81	6.54

System: diethyl carbonate; phases: Crystal, Liquid, Air at 1 atmosphere
Property: Normal melting temperature, K (Crystal); method: DTA
Normal melting temperature, K	uncertainty
196.4	0.7

System: diethyl carbonate; phases: Crystal, Liquid, Air at 1 atmosphere
Property: Molar enthalpy of transition or fusion, kJ/mol (Crystal); method: DSC
Molar enthalpy of transition or fusion, kJ/mol	uncertainty
9.1	0.6

System: diethyl carbonate; phases: Liquid, Gas
Property: Vapor or sublimation pressure, kPa (Liquid); method: Closed cell (Static) method
Temperature, K	Vapor or sublimation pressure, kPa	uncertainty
238.15	0.01254	0.0005
238.15	0.01253	0.0005
238.15	0.01253	0.0005
243.15	0.02072	0.00063
243.15	0.0207	0.00063
243.15	0.02073	0.00064
248.15	0.03351	0.00086
248.15	0.03354	0.00086
248.15	0.03354	0.00086
253.15	0.05312	0.0012
253.15	0.05313	0.0012
253.15	0.05315	0.0012
258.15	0.08236	0.00171
258.15	0.08229	0.00171
258.15	0.08232	0.00171
263.15	0.12488	0.00246
263.15	0.12494	0.00246
263.15	0.12488	0.00246
268.15	0.18592	0.003
268.15	0.18593	0.003
268.15	0.18597	0.003
273.15	0.27203	0.00406
273.15	0.272	0.00406
273.15	0.27212	0.00406
273.65	0.28275	0.00419
273.65	0.28266	0.00419
273.65	0.28267	0.00419
276.15	0.33966	0.00488
276.15	0.3394	0.00488
276.15	0.33951	0.00488
278.15	0.39188	0.00552
278.15	0.39184	0.00552
278.15	0.39194	0.00552
288.15	0.77441	0.01023
288.15	0.7744	0.01023
288.15	0.77454	0.01024
293.15	1.0658	0.01387
293.15	1.0658	0.01387
293.15	1.0658	0.01387
296.15	1.2824	0.01655
296.15	1.2828	0.01655
296.15	1.2827	0.01655

System: diethyl carbonate; phases: Liquid
Fixed: Pressure, kPa = 100
Property: Molar heat capacity at constant pressure, J/K/mol (Liquid); method: Extra sensitive DSC
Temperature, K	Molar heat capacity at constant pressure, J/K/mol	uncertainty
265.05	210.63	8.16
270	211.69	8.2
275	212.87	8.24
280	214.06	8.29
285	215.24	8.34
290	216.54	8.39
295	217.84	8.44
300	219.25	8.49
305	220.67	8.55
310	222.09	8.6
315	223.63	8.66
320	225.16	8.72
325	226.58	8.78
330	228.11	8.83
335	229.65	8.89
340	231.19	8.95
345	232.72	9.01
350	234.26	9.07
355	235.67	9.13
358.17	236.62	9.16

System: dipropyl carbonate; phases: Crystal, Liquid, Air at 1 atmosphere
Property: Normal melting temperature, K (Crystal); method: DTA
Normal melting temperature, K	uncertainty
215.4	0.7

System: dipropyl carbonate; phases: Crystal, Liquid, Air at 1 atmosphere
Property: Molar enthalpy of transition or fusion, kJ/mol (Crystal); method: DSC
Molar enthalpy of transition or fusion, kJ/mol	uncertainty
17.5	0.7

System: dipropyl carbonate; phases: Liquid, Gas
Property: Vapor or sublimation pressure, kPa (Liquid); method: Closed cell (Static) method
Temperature, K	Vapor or sublimation pressure, kPa	uncertainty
238.15	0.00075	0.0001
238.15	0.00075	0.0001
238.15	0.00075	0.0001
243.15	0.00135	0.00012
243.15	0.00135	0.00012
243.15	0.00135	0.00012
248.15	0.00237	0.00014
248.15	0.00237	0.00014
248.15	0.00237	0.00014
253.15	0.00406	0.00019
253.15	0.00406	0.00019
253.15	0.00406	0.00019
258.14	0.00677	0.00028
258.14	0.00678	0.00029
258.15	0.00678	0.00029
263.14	0.01111	0.00045
263.14	0.01111	0.00045
263.14	0.0111	0.00044
268.15	0.01779	0.00059
268.15	0.01778	0.00059
268.15	0.01778	0.00059
273.15	0.02791	0.00076
273.15	0.0279	0.00076
273.15	0.02791	0.00076
273.65	0.02917	0.00078
273.65	0.0292	0.00078
273.65	0.02919	0.00078
278.15	0.04293	0.00102
278.15	0.04295	0.00102
278.15	0.04291	0.00102
283.15	0.06469	0.0014
283.15	0.0647	0.0014
283.15	0.0647	0.0014
288.15	0.09595	0.00195
288.15	0.09584	0.00194
288.15	0.09587	0.00194
293.15	0.13989	0.00243
293.15	0.13989	0.00243
293.15	0.13991	0.00243
298.15	0.20051	0.00317
298.15	0.2005	0.00317
298.15	0.20042	0.00316
303.15	0.28339	0.00418
303.15	0.28337	0.00418
303.15	0.28336	0.00418
308.15	0.3952	0.00553
308.15	0.39545	0.00554
308.15	0.39531	0.00553

System: dipropyl carbonate; phases: Liquid
Fixed: Pressure, kPa = 100
Property: Molar heat capacity at constant pressure, J/K/mol (Liquid); method: Extra sensitive DSC
Temperature, K	Molar heat capacity at constant pressure, J/K/mol	uncertainty
262.11	263.42	10.2
265	264.44	10.24
270	266.05	10.3
275	267.66	10.37
280	269.41	10.43
285	271.16	10.5
290	272.92	10.57
295	274.67	10.64
300	276.43	10.71
305	278.33	10.78
310	280.23	10.85
315	282.13	10.93
320	284.03	11
325	285.93	11.07
330	287.97	11.15
335	290.02	11.23
340	292.21	11.32
345	294.26	11.4
350	296.45	11.48
355	298.65	11.57
358.48	300.25	11.63
