Measured thermophysical data. Experimental Determination and Modeling of the Solubility of Sodium Chloride in Subcritical Water from (568 to 598) K and (10 to 25) MPa
Source: J. Chem. Eng. Data, 2017, 10.1021/acs.jced.7b00436
Compound 1: sodium chloride, ClNa, InChI=1S/ClH.Na/h1H;/q;+1/p-1, purity 99.7%
Compound 2: water, H2O, InChI=1S/H2O/h1H2, purity 99.7%

System: sodium chloride + water; phases: Fluid (supercritical or subcritical phases), Crystal
Property: Molality, mol/kg of sodium chloride (Fluid (supercritical or subcritical phases)); method: chromatography
Temperature, K	Pressure, kPa	Molality, mol/kg of sodium chloride	uncertainty
671.2	17400	0.00154	6e-05
669.35	18500	0.00202	8e-05
671.85	19500	0.00229	9e-05
670.95	20400	0.00296	0.00012

System: sodium chloride + water; phases: Liquid, Crystal
Property: Molality, mol/kg of sodium chloride (Liquid); method: chromatography
Temperature, K	Pressure, kPa	Molality, mol/kg of sodium chloride	uncertainty
567.95	10000	0.16068	0.02328
568.95	10000	0.1433	0.0219
573.35	10000	0.08526	0.02138
573.85	10000	0.0698	0.02417
569.8	15000	0.17502	0.08752
570.5	15000	0.15851	0.02194
570.8	15000	0.14682	0.02177
571.6	15000	0.12079	0.02125
582.05	15000	0.0626	0.00253
584	15000	0.06236	0.00252
586.1	15000	0.0624	0.0025
586.6	15000	0.06231	0.0025
588.9	15000	0.06221	0.00282
589.45	15000	0.05964	0.0027
589.65	15000	0.05946	0.00269
592.85	15000	0.05741	0.00235
596.6	15000	0.05723	0.00229
597.5	15000	0.05705	0.00229
571.05	20000	0.34145	0.05608
572.05	20000	0.24085	0.0362
577.55	20000	0.12138	0.03209
577.65	20000	0.11373	0.03234
580.25	20000	0.08154	0.00849
580.8	20000	0.0749	0.00852
581.15	20000	0.07443	0.00872
587.1	20000	0.06291	0.00365
589.75	20000	0.06236	0.00256
589.5	20000	0.06103	0.00253
594	20000	0.06029	0.00259
594.7	20000	0.05966	0.00257
575.65	25000	0.2689	0.05224
580.25	25000	0.12206	0.02905
586.45	25000	0.06996	0.01251
587.55	25000	0.06639	0.0111
588.15	25000	0.06415	0.00393
589.45	25000	0.06329	0.00285
590.35	25000	0.06251	0.0026
592.15	25000	0.06246	0.00251
595.3	25000	0.06195	0.00251
597.1	25000	0.06123	0.0025
598.8	25000	0.06085	0.00246
