Measured thermophysical data. Volumetric Properties of Alkyltrimethylammonium Bromides in Aqueous Solutions
Source: J. Chem. Eng. Data, 2016, 10.1021/acs.jced.5b00451
Compound 1: hexyltrimethylammonium bromide, C9H22BrN, InChI=1S/C9H22N.BrH/c1-5-6-7-8-9-10(2,3)4;/h5-9H2,1-4H3;1H/q+1;/p-1, purity 98%
Compound 2: octyl trimethyl ammonium bromide, C11H26BrN, InChI=1S/C11H26N.BrH/c1-5-6-7-8-9-10-11-12(2,3)4;/h5-11H2,1-4H3;1H/q+1;/p-1, purity 98%
Compound 3: N,N,N-trimethyl-1-decanaminium bromide, C13H30BrN, InChI=1S/C13H30N.BrH/c1-5-6-7-8-9-10-11-12-13-14(2,3)4;/h5-13H2,1-4H3;1H/q+1;/p-1, purity 98%
Compound 4: dodecyltrimethylammonium bromide, C15H34BrN, InChI=1S/C15H34N.BrH/c1-5-6-7-8-9-10-11-12-13-14-15-16(2,3)4;/h5-15H2,1-4H3;1H/q+1;/p-1, purity 98%
Compound 5: tetradecyltrimethylammonium bromide, C17H38BrN, InChI=1S/C17H38N.BrH/c1-5-6-7-8-9-10-11-12-13-14-15-16-17-18(2,3)4;/h5-17H2,1-4H3;1H/q+1;/p-1, purity 99%
Compound 6: N,N,N-trimethyl-1-hexadecanaminium bromide, C19H42BrN, InChI=1S/C19H42N.BrH/c1-5-6-7-8-9-10-11-12-13-14-15-16-17-18-19-20(2,3)4;/h5-19H2,1-4H3;1H/q+1;/p-1, purity 98%
Compound 7: water, H2O, InChI=1S/H2O/h1H2, purity 99.8%

System: water; phases: Liquid
Fixed: Pressure, kPa = 101.325
Property: Mass density, kg/m3 (Liquid); method: Vibrating tube method
Temperature, K	Mass density, kg/m3	uncertainty
293.15	998.209	0.203
298.15	997.043	0.203
303.15	995.647	0.203

System: hexyltrimethylammonium bromide + water; phases: Liquid
Fixed: Pressure, kPa = 101.325
Property: Mass density, kg/m3 (Liquid); method: Vibrating tube method
Temperature, K	Molality, mol/kg of hexyltrimethylammonium bromide	Mass density, kg/m3	uncertainty
293.15	0	998.209	0.203
293.15	0.04932	999.719	0.203
293.15	0.07746	1000.553	0.204
293.15	0.08812	1000.879	0.204
293.15	0.1186	1001.762	0.204
293.15	0.17743	1003.492	0.205
293.15	0.18545	1003.72	0.205
293.15	0.27571	1006.265	0.206
293.15	0.37119	1008.994	0.207
293.15	0.4703	1011.798	0.208
293.15	0.52739	1013.145	0.209
293.15	0.58026	1014.751	0.21
293.15	0.63595	1016.193	0.211
298.15	0	997.043	0.203
298.15	0.04932	998.528	0.204
298.15	0.07746	999.34	0.204
298.15	0.08812	999.654	0.204
298.15	0.1186	1000.521	0.204
298.15	0.17743	1002.19	0.204
298.15	0.18545	1002.412	0.205
298.15	0.27571	1004.927	0.205
298.15	0.37119	1007.659	0.207
298.15	0.4703	1010.343	0.208
298.15	0.52739	1011.762	0.209
298.15	0.58026	1013.127	0.21
298.15	0.63595	1014.591	0.211
303.15	0	995.647	0.203
303.15	0.04932	997.065	0.204
303.15	0.07746	997.873	0.204
303.15	0.08812	998.174	0.204
303.15	0.1186	999.049	0.204
303.15	0.17743	1000.781	0.204
303.15	0.18545	1000.969	0.204
303.15	0.27571	1003.528	0.205
303.15	0.37119	1006.15	0.207
303.15	0.4703	1008.801	0.208
303.15	0.52739	1010.297	0.209
303.15	0.58026	1011.669	0.21
303.15	0.63595	1013.124	0.211

System: octyl trimethyl ammonium bromide + water; phases: Liquid
Fixed: Pressure, kPa = 101.325
Property: Mass density, kg/m3 (Liquid); method: Vibrating tube method
Temperature, K	Molality, mol/kg of octyl trimethyl ammonium bromide	Mass density, kg/m3	uncertainty
293.15	0	998.209	0.203
293.15	0.04535	999.46	0.203
293.15	0.09122	1000.721	0.204
293.15	0.12226	1001.54	0.204
293.15	0.14439	1002.137	0.204
293.15	0.17592	1002.965	0.205
293.15	0.1958	1003.523	0.205
293.15	0.23376	1004.578	0.205
293.15	0.26209	1005.292	0.206
293.15	0.27732	1005.653	0.206
293.15	0.30027	1006.326	0.206
298.15	0	997.043	0.203
298.15	0.04535	998.261	0.204
298.15	0.09122	999.486	0.204
298.15	0.12226	1000.302	0.204
298.15	0.14439	1000.836	0.204
298.15	0.17592	1001.748	0.205
298.15	0.1958	1002.129	0.205
298.15	0.23376	1003.152	0.205
298.15	0.26209	1003.835	0.206
298.15	0.27732	1004.236	0.206
298.15	0.30027	1004.761	0.206
303.15	0	995.647	0.203
303.15	0.04535	996.848	0.204
303.15	0.09122	998.045	0.204
303.15	0.12226	998.815	0.204
303.15	0.14439	999.391	0.204
303.15	0.17592	1000.195	0.204
303.15	0.1958	1000.692	0.205
303.15	0.23376	1001.634	0.205
303.15	0.26209	1002.324	0.205
303.15	0.27732	1002.694	0.206
303.15	0.30027	1003.247	0.206

System: N,N,N-trimethyl-1-decanaminium bromide + water; phases: Liquid
Fixed: Pressure, kPa = 101.325
Property: Mass density, kg/m3 (Liquid); method: Vibrating tube method
Temperature, K	Molality, mol/kg of N,N,N-trimethyl-1-decanaminium bromide	Mass density, kg/m3	uncertainty
293.15	0	998.209	0.203
293.15	0.01879	998.685	0.203
293.15	0.02836	998.921	0.203
293.15	0.04784	999.399	0.204
293.15	0.05741	999.635	0.204
293.15	0.06268	999.765	0.204
293.15	0.0767	1000.055	0.204
293.15	0.08783	1000.281	0.204
293.15	0.09727	1000.465	0.204
293.15	0.12065	1000.858	0.204
293.15	0.13828	1001.226	0.204
298.15	0	997.043	0.203
298.15	0.01879	997.496	0.203
298.15	0.02836	997.716	0.204
298.15	0.04784	998.157	0.204
298.15	0.05741	998.379	0.204
298.15	0.06268	998.511	0.204
298.15	0.0767	998.788	0.204
298.15	0.08783	998.987	0.204
298.15	0.09727	999.17	0.204
298.15	0.12065	999.597	0.204
298.15	0.13828	999.91	0.204
303.15	0	995.647	0.203
303.15	0.01879	996.082	0.204
303.15	0.02836	996.312	0.204
303.15	0.04784	996.748	0.204
303.15	0.05741	996.949	0.204
303.15	0.06268	997.055	0.204
303.15	0.0767	997.334	0.204
303.15	0.08783	997.534	0.204
303.15	0.09727	997.707	0.204
303.15	0.12065	998.105	0.204
303.15	0.13828	998.375	0.204

System: dodecyltrimethylammonium bromide + water; phases: Liquid
Fixed: Pressure, kPa = 101.325
Property: Mass density, kg/m3 (Liquid); method: Vibrating tube method
Temperature, K	Molality, mol/kg of dodecyltrimethylammonium bromide	Mass density, kg/m3	uncertainty
293.15	0	998.209	0.203
293.15	0.00799	998.38	0.203
293.15	0.00998	998.422	0.203
293.15	0.01168	998.455	0.203
293.15	0.01448	998.514	0.203
293.15	0.01695	998.566	0.203
293.15	0.01883	998.601	0.203
293.15	0.02825	998.739	0.203
293.15	0.04703	998.998	0.204
293.15	0.09497	999.663	0.204
293.15	0.1963	1001.053	0.205
293.15	0.30105	1002.392	0.207
298.15	0	997.043	0.203
298.15	0.00799	997.201	0.203
298.15	0.00998	997.244	0.203
298.15	0.01168	997.278	0.203
298.15	0.01448	997.332	0.203
298.15	0.01695	997.376	0.203
298.15	0.01883	997.406	0.203
298.15	0.02825	997.528	0.204
298.15	0.04703	997.783	0.204
298.15	0.09497	998.401	0.204
298.15	0.1963	999.701	0.205
298.15	0.30105	1000.957	0.206
303.15	0	995.647	0.203
303.15	0.00799	995.799	0.204
303.15	0.00998	995.839	0.204
303.15	0.01168	995.868	0.204
303.15	0.01448	995.921	0.204
303.15	0.01695	995.96	0.204
303.15	0.01883	995.987	0.204
303.15	0.02825	996.106	0.204
303.15	0.04703	996.34	0.204
303.15	0.09497	996.928	0.204
303.15	0.1963	998.119	0.205
303.15	0.30105	999.316	0.206

System: tetradecyltrimethylammonium bromide + water; phases: Liquid
Fixed: Pressure, kPa = 101.325
Property: Mass density, kg/m3 (Liquid); method: Vibrating tube method
Temperature, K	Molality, mol/kg of tetradecyltrimethylammonium bromide	Mass density, kg/m3	uncertainty
293.15	0	998.209	0.203
293.15	0.00291	998.259	0.203
293.15	0.00325	998.265	0.203
293.15	0.00379	998.273	0.203
293.15	0.00393	998.275	0.203
293.15	0.0049	998.286	0.203
293.15	0.0065	998.302	0.203
293.15	0.00821	998.32	0.203
293.15	0.01087	998.344	0.203
293.15	0.04969	998.72	0.203
293.15	0.09742	999.176	0.204
293.15	0.14676	999.632	0.204
293.15	0.19552	1000.076	0.204
293.15	0.30229	1001	0.204
298.15	0	997.043	0.203
298.15	0.00291	997.091	0.204
298.15	0.00325	997.097	0.203
298.15	0.00379	997.103	0.203
298.15	0.00393	997.105	0.203
298.15	0.0049	997.115	0.203
298.15	0.0065	997.127	0.203
298.15	0.00821	997.144	0.203
298.15	0.01087	997.164	0.203
298.15	0.04969	997.499	0.204
298.15	0.09742	997.906	0.204
298.15	0.14676	998.322	0.204
298.15	0.19552	998.719	0.204
298.15	0.30229	999.537	0.204
303.15	0	995.647	0.203
303.15	0.00291	995.687	0.203
303.15	0.00325	995.692	0.203
303.15	0.00379	995.706	0.203
303.15	0.00393	995.704	0.203
303.15	0.0049	995.708	0.203
303.15	0.0065	995.727	0.203
303.15	0.00821	995.739	0.203
303.15	0.01087	995.749	0.203
303.15	0.04969	996.055	0.204
303.15	0.09742	996.41	0.204
303.15	0.14676	996.79	0.204
303.15	0.19552	997.144	0.204
303.15	0.30229	997.713	0.205

System: N,N,N-trimethyl-1-hexadecanaminium bromide + water; phases: Liquid
Fixed: Pressure, kPa = 101.325
Property: Mass density, kg/m3 (Liquid); method: Vibrating tube method
Temperature, K	Molality, mol/kg of N,N,N-trimethyl-1-hexadecanaminium bromide	Mass density, kg/m3	uncertainty
293.15	0	998.209	0.203
293.15	0.00082	998.23	0.203
293.15	0.00093	998.234	0.203
293.15	0.00104	998.238	0.203
293.15	0.00205	998.239	0.203
293.15	0.00309	998.245	0.203
293.15	0.00411	998.243	0.203
293.15	0.00625	998.254	0.203
293.15	0.00726	998.258	0.203
293.15	0.00801	998.255	0.203
293.15	0.00931	998.264	0.203
293.15	0.01038	998.274	0.203
293.15	0.01139	998.276	0.203
293.15	0.01252	998.279	0.203
293.15	0.01454	998.293	0.203
293.15	0.01561	998.296	0.203
298.15	0	997.043	0.204
298.15	0.00082	997.052	0.213
298.15	0.00093	997.055	0.203
298.15	0.00104	997.058	0.212
298.15	0.00205	997.06	0.203
298.15	0.00309	997.062	0.203
298.15	0.00411	997.065	0.203
298.15	0.00625	997.073	0.203
298.15	0.00726	997.076	0.203
298.15	0.00801	997.076	0.203
298.15	0.00931	997.078	0.203
298.15	0.01038	997.082	0.203
298.15	0.01139	997.089	0.203
298.15	0.01252	997.093	0.203
298.15	0.01454	997.098	0.203
298.15	0.01561	997.105	0.204
303.15	0	995.647	0.203
303.15	0.00082	995.673	0.203
303.15	0.00093	995.669	0.203
303.15	0.00104	995.669	0.203
303.15	0.00205	995.666	0.203
303.15	0.00309	995.67	0.203
303.15	0.00411	995.678	0.203
303.15	0.00625	995.681	0.203
303.15	0.00726	995.678	0.204
303.15	0.00801	995.687	0.204
303.15	0.00931	995.679	0.204
303.15	0.01038	995.679	0.204
303.15	0.01139	995.693	0.204
303.15	0.01252	995.676	0.204
303.15	0.01454	995.699	0.204
303.15	0.01561	995.676	0.204
