Measured thermophysical data. High Pressure Phase Equilibrium Data for the Ternary System Containing Carbon Dioxide, Dichloromethane, and epsilon-Caprolactone
Source: J. Chem. Eng. Data, 2019, 10.1021/acs.jced.8b01017
Compound 1: 6-hexanolactone, C6H10O2, InChI=1S/C6H10O2/c7-6-4-2-1-3-5-8-6/h1-5H2, purity 97%
Compound 2: dichloromethane, CH2Cl2, InChI=1S/CH2Cl2/c2-1-3/h1H2, purity 99.8%
Compound 3: carbon dioxide, CO2, InChI=1S/CO2/c2-1-3, purity 99.9%

System: carbon dioxide + 6-hexanolactone + dichloromethane; phases: Liquid, Gas
Property: Vapor or sublimation pressure, kPa (Liquid); method: Closed cell (Static) method
Temperature, K	Mass fraction of carbon dioxide	Mass fraction of 6-hexanolactone	Vapor or sublimation pressure, kPa	uncertainty
323.15	0.2788	0.4807	6830	500
333.15	0.2788	0.4807	8020	510
343.15	0.2788	0.4807	9420	510
353.15	0.2788	0.4807	10870	510
323.15	0.3272	0.448	7760	510
333.15	0.3272	0.448	9240	510
343.15	0.3272	0.448	10970	510
353.15	0.3272	0.448	12830	510
323.15	0.4003	0.3993	8530	510
333.15	0.4003	0.3993	10640	520
343.15	0.4003	0.3993	13190	520
353.15	0.4003	0.3993	15400	520
323.15	0.4353	0.3769	9000	510
333.15	0.4353	0.3769	11090	520
343.15	0.4353	0.3769	13820	520
353.15	0.4353	0.3769	16420	520
323.15	0.4702	0.3526	9660	520
333.15	0.4702	0.3526	12520	520
343.15	0.4702	0.3526	15020	520
353.15	0.4702	0.3526	17600	520
323.15	0.2255	0.387	5540	500
333.15	0.2255	0.387	6350	500
343.15	0.2255	0.387	7240	500
353.15	0.2255	0.387	8170	500
323.15	0.3352	0.3322	7020	500
333.15	0.3352	0.3322	8090	510
343.15	0.3352	0.3322	9500	510
353.15	0.3352	0.3322	10930	510
323.15	0.4347	0.2819	7960	510
333.15	0.4347	0.2819	9540	510
343.15	0.4347	0.2819	11600	510
353.15	0.4347	0.2819	13960	520
323.15	0.4766	0.262	8360	510
333.15	0.4766	0.262	10060	510
343.15	0.4766	0.262	12490	520
353.15	0.4766	0.262	15260	530
323.15	0.4969	0.2517	8700	510
333.15	0.4969	0.2517	10300	510
343.15	0.4969	0.2517	13000	530
353.15	0.4969	0.2517	16160	530
323.15	0.2485	0.2473	5050	500
333.15	0.2485	0.2473	5770	500
343.15	0.2485	0.2473	6570	500
353.15	0.2485	0.2473	7500	500
323.15	0.3664	0.2113	6280	500
333.15	0.3664	0.2113	7490	500
343.15	0.3664	0.2113	8780	510
353.15	0.3664	0.2113	10200	510
323.15	0.4189	0.192	6970	500
333.15	0.4189	0.192	8180	510
343.15	0.4189	0.192	9640	510
353.15	0.4189	0.192	11200	510
323.15	0.4731	0.1754	7540	510
333.15	0.4731	0.1754	8950	510
343.15	0.4731	0.1754	10480	510
353.15	0.4731	0.1754	12150	510
323.15	0.5014	0.1646	7760	510
333.15	0.5014	0.1646	9110	510
343.15	0.5014	0.1646	10750	510
353.15	0.5014	0.1646	12530	510
323.15	0.5395	0.1536	7980	510
333.15	0.5395	0.1536	9570	510
343.15	0.5395	0.1536	11380	510
353.15	0.5395	0.1536	13160	510

System: carbon dioxide + 6-hexanolactone + dichloromethane; phases: Liquid mixture 1, Liquid mixture 2
Property: Vapor or sublimation pressure, kPa (Liquid mixture 1); method: Closed cell (Static) method
Temperature, K	Mass fraction of carbon dioxide	Mass fraction of 6-hexanolactone	Vapor or sublimation pressure, kPa	uncertainty
323.15	0.5073	0.3284	10530	530
333.15	0.5073	0.3284	13770	540
343.15	0.5073	0.3284	16930	540
353.15	0.5073	0.3284	19850	540
323.15	0.5482	0.3012	12750	540
333.15	0.5482	0.3012	16620	540
343.15	0.5482	0.3012	19770	540
353.15	0.5482	0.3012	22830	540
323.15	0.5943	0.2711	16350	550
333.15	0.5943	0.2711	19780	560
343.15	0.5943	0.2711	23890	570
323.15	0.5249	0.2389	9650	530
333.15	0.5249	0.2389	12680	530
343.15	0.5249	0.2389	16110	540
353.15	0.5249	0.2389	19470	540
323.15	0.5764	0.2119	11760	530
333.15	0.5764	0.2119	14870	530
343.15	0.5764	0.2119	18500	530
353.15	0.5764	0.2119	21530	530
323.15	0.6279	0.1846	19070	550
333.15	0.6279	0.1846	22020	550
343.15	0.6279	0.1846	25470	560
323.15	0.6681	0.166	25750	560
323.15	0.5719	0.142	10990	540
333.15	0.5719	0.142	14190	540
343.15	0.5719	0.142	17180	540
353.15	0.5719	0.142	20590	540
323.15	0.6129	0.1291	15550	540
333.15	0.6129	0.1291	18830	540
343.15	0.6129	0.1291	21580	540
353.15	0.6129	0.1291	24530	530

System: carbon dioxide + 6-hexanolactone + dichloromethane; phases: Liquid, Gas
Property: Vapor or sublimation pressure, kPa (Liquid); method: Closed cell (Static) method
Temperature, K	Mass fraction of carbon dioxide	Mass fraction of 6-hexanolactone	Vapor or sublimation pressure, kPa	uncertainty
323.15	0.5073	0.3284	10400	520
333.15	0.5073	0.3284	13300	530
343.15	0.5073	0.3284	16500	530
353.15	0.5073	0.3284	19600	530
323.15	0.5482	0.3012	10450	520
333.15	0.5482	0.3012	13400	530
343.15	0.5482	0.3012	16500	530
353.15	0.5482	0.3012	19700	530
323.15	0.5943	0.2711	10500	520
333.15	0.5943	0.2711	13500	530
343.15	0.5943	0.2711	16600	530
353.15	0.5943	0.2711	19700	530
323.15	0.5249	0.2389	8400	510
333.15	0.5249	0.2389	10630	520
343.15	0.5249	0.2389	13070	520
353.15	0.5249	0.2389	15100	520
323.15	0.5764	0.2119	8660	510
333.15	0.5764	0.2119	10830	510
343.15	0.5764	0.2119	13070	520
353.15	0.5764	0.2119	16300	530
323.15	0.6279	0.1846	8900	510
333.15	0.6279	0.1846	11000	510
343.15	0.6279	0.1846	13200	510
323.15	0.6681	0.166	8810	510
323.15	0.5719	0.142	8000	510
333.15	0.5719	0.142	10200	510
343.15	0.5719	0.142	12000	510
353.15	0.5719	0.142	13200	510
323.15	0.6129	0.1291	8200	510
333.15	0.6129	0.1291	10300	510
343.15	0.6129	0.1291	12100	510
353.15	0.6129	0.1291	13500	510
323.15	0.7091	0.0968	8300	510
333.15	0.7091	0.0968	10300	510
343.15	0.7091	0.0968	12200	510
353.15	0.7091	0.0968	13400	510
323.15	0.8336	0.0555	8200	510
333.15	0.8336	0.0555	10400	510
343.15	0.8336	0.0555	12100	510
353.15	0.8336	0.0555	13600	510
