Measured thermophysical data. Vapor-Liquid Phase Equilibrium of a Cyclohexene + Water + Cyclohexanol + Isophorone Quaternary System at 500 kPa
Source: J. Chem. Eng. Data, 2018, 10.1021/acs.jced.8b00273
Compound 1: cyclohexene, C6H10, InChI=1S/C6H10/c1-2-4-6-5-3-1/h1-2H,3-6H2, purity 99.9%
Compound 2: cyclohexanol, C6H12O, InChI=1S/C6H12O/c7-6-4-2-1-3-5-6/h6-7H,1-5H2, purity 99.9%
Compound 3: 3,5,5-trimethyl-2-cyclohexen-1-one, C9H14O, InChI=1S/C9H14O/c1-7-4-8(10)6-9(2,3)5-7/h4H,5-6H2,1-3H3, purity 99.9%

System: cyclohexene + cyclohexanol + 3,5,5-trimethyl-2-cyclohexen-1-one; phases: Liquid, Gas
Fixed: Pressure, kPa = 500
Property: Mole fraction of cyclohexanol (Liquid); method: Chromatography
Property: Mole fraction of cyclohexanol (Gas); method: Chromatography
Property: Mole fraction of cyclohexene (Gas); method: Chromatography
Temperature, K	Mole fraction of cyclohexene	Mole fraction of cyclohexanol	uncertainty	Mole fraction of cyclohexanol	uncertainty	Mole fraction of cyclohexene	uncertainty
427.6	0.819	0.172	0.004	0.029	0.004	0.97	
433.9	0.828	0.164	0.004	0.022	0.004	0.968	
434.7	0.805	0.147	0.004	0.022	0.004	0.968	
435.8	0.753	0.141	0.004	0.03	0.004	0.958	
439.8	0.746	0.137	0.004	0.033	0.004	0.955	
443.8	0.728	0.124	0.004	0.024	0.004	0.954	
446.5	0.696	0.105	0.004	0.025	0.004	0.953	
448.5	0.609	0.082	0.004	0.025	0.004	0.953	
454.2	0.542	0.07	0.004	0.025	0.004	0.952	
459.7	0.516	0.059	0.004	0.027	0.004	0.95	
460.9	0.513	0.055	0.004	0.024	0.004	0.949	
469	0.45	0.05	0.004	0.032	0.004	0.942	
472.4	0.385	0.043	0.004	0.032	0.004	0.941	
477.9	0.332	0.03	0.004	0.042	0.004	0.93	
484.5	0.285	0.021	0.004	0.048	0.004	0.917	
493.9	0.145	0.047	0.004	0.057	0.004	0.695	
506.7	0.105	0.042	0.004	0.063	0.004	0.597	
517	0.08	0.036	0.004	0.064	0.004	0.511	
527.4	0.059	0.029	0.004	0.06	0.004	0.418	
532.5	0.049	0.025	0.004	0.057	0.004	0.372	
539.5	0.038	0.021	0.004	0.051	0.004	0.305	
