Measured thermophysical data. Influence of Temperature and Carbon Chain on Thermophysical Properties of Benzaldehyde/Alkan-2-ol Binary Mixtures
Source: J. Chem. Eng. Data, 2017, 10.1021/acs.jced.7b00335
Compound 1: benzaldehyde, C7H6O, InChI=1S/C7H6O/c8-6-7-4-2-1-3-5-7/h1-6H, purity 99%
Compound 2: propan-2-ol, C3H8O, InChI=1S/C3H8O/c1-3(2)4/h3-4H,1-2H3, purity 99.7%
Compound 3: butan-2-ol, C4H10O, InChI=1S/C4H10O/c1-3-4(2)5/h4-5H,3H2,1-2H3, purity 99.5%
Compound 4: pentan-2-ol, C5H12O, InChI=1S/C5H12O/c1-3-4-5(2)6/h5-6H,3-4H2,1-2H3, purity 99%

System: benzaldehyde; phases: Liquid
Fixed: Pressure, kPa = 100
Property: Mass density, kg/m3 (Liquid); method: Vibrating tube method
Temperature, K	Mass density, kg/m3	uncertainty
293.15	1046.3	1
298.15	1041.7	1
303.15	1037.1	1
308.15	1032.4	1
313.15	1027.9	1
318.15	1023.4	1
323.15	1019.1	1

System: benzaldehyde; phases: Liquid
Fixed: Pressure, kPa = 100
Property: Viscosity, Pa*s (Liquid); method: Concentric cylinders viscometry
Temperature, K	Viscosity, Pa*s	uncertainty
293.15	0.00152	6e-05
298.15	0.00141	6e-05
303.15	0.00131	5e-05
308.15	0.00122	5e-05
313.15	0.00115	5e-05
318.15	0.00109	4e-05
323.15	0.00103	4e-05

System: propan-2-ol; phases: Liquid
Fixed: Pressure, kPa = 100
Property: Mass density, kg/m3 (Liquid); method: Vibrating tube method
Temperature, K	Mass density, kg/m3	uncertainty
293.15	785.4	1
298.15	781.1	1
303.15	776.8	1
308.15	772.4	1
313.15	768	1
318.15	763.4	1
323.15	758.8	1

System: propan-2-ol; phases: Liquid
Fixed: Pressure, kPa = 100
Property: Viscosity, Pa*s (Liquid); method: Concentric cylinders viscometry
Temperature, K	Viscosity, Pa*s	uncertainty
293.15	0.00242	0.0001
298.15	0.00208	8e-05
303.15	0.0018	7e-05
308.15	0.00156	6e-05
313.15	0.00136	6e-05
318.15	0.00119	5e-05
323.15	0.00105	4e-05

System: butan-2-ol; phases: Liquid
Fixed: Pressure, kPa = 100
Property: Mass density, kg/m3 (Liquid); method: Vibrating tube method
Temperature, K	Mass density, kg/m3	uncertainty
293.15	806.7	1
298.15	802.7	1
303.15	798.4	1
308.15	794.1	1
313.15	789.8	1
318.15	785.2	1
323.15	780.6	1

System: butan-2-ol; phases: Liquid
Fixed: Pressure, kPa = 100
Property: Viscosity, Pa*s (Liquid); method: Concentric cylinders viscometry
Temperature, K	Viscosity, Pa*s	uncertainty
293.15	0.00367	0.00015
298.15	0.00304	0.00012
303.15	0.00254	0.0001
308.15	0.00213	9e-05
313.15	0.0018	7e-05
318.15	0.00154	6e-05
323.15	0.00133	5e-05

System: pentan-2-ol; phases: Liquid
Fixed: Pressure, kPa = 100
Property: Mass density, kg/m3 (Liquid); method: Vibrating tube method
Temperature, K	Mass density, kg/m3	uncertainty
293.15	809.3	1
298.15	805.3	1
303.15	801.2	1
308.15	797	1
313.15	792.7	1
318.15	788.4	1
323.15	784	1

System: pentan-2-ol; phases: Liquid
Fixed: Pressure, kPa = 100
Property: Viscosity, Pa*s (Liquid); method: Concentric cylinders viscometry
Temperature, K	Viscosity, Pa*s	uncertainty
293.15	0.00397	0.00016
298.15	0.00332	0.00013
303.15	0.00281	0.00011
308.15	0.00237	0.0001
313.15	0.00199	8e-05
318.15	0.00166	7e-05
323.15	0.00139	6e-05

System: benzaldehyde + propan-2-ol; phases: Liquid
Fixed: Pressure, kPa = 100
Property: Mass density, kg/m3 (Liquid); method: Vibrating tube method
Temperature, K	Mole fraction of benzaldehyde	Mass density, kg/m3	uncertainty
293.15	0	785.4	1
293.15	0.0809	809.6	1
293.15	0.1596	830.7	1
293.15	0.24	852.5	1
293.15	0.3492	882.3	1
293.15	0.4399	906.4	1
293.15	0.5693	940.8	1
293.15	0.6495	962.2	1
293.15	0.7399	986.2	1
293.15	0.8498	1012.8	1
293.15	0.9399	1033.3	1
293.15	1	1046.3	1
298.15	0	781.1	1
298.15	0.0809	804.3	1
298.15	0.1596	826.4	1
298.15	0.24	848.2	1
298.15	0.3492	877.9	1
298.15	0.4399	901.9	1
298.15	0.5693	936.2	1
298.15	0.6495	957.6	1
298.15	0.7399	981.7	1
298.15	0.8498	1008	1
298.15	0.9399	1029	1
298.15	1	1041.7	1
303.15	0	776.8	1
303.15	0.0809	799.9	1
303.15	0.1596	821.8	1
303.15	0.24	843.7	1
303.15	0.3492	873.4	1
303.15	0.4399	897.4	1
303.15	0.5693	931.7	1
303.15	0.6495	953.1	1
303.15	0.7399	976.7	1
303.15	0.8498	1004.1	1
303.15	0.9399	1024.1	1
303.15	1	1037.1	1
308.15	0	772.4	1
308.15	0.0809	795.6	1
308.15	0.1596	817.6	1
308.15	0.24	839.2	1
308.15	0.3492	868.8	1
308.15	0.4399	892.9	1
308.15	0.5693	927.2	1
308.15	0.6495	948.6	1
308.15	0.7399	972.6	1
308.15	0.8498	999.3	1
308.15	0.9399	1019.7	1
308.15	1	1032.4	1
313.15	0	768	1
313.15	0.0809	791	1
313.15	0.1596	813	1
313.15	0.24	834.8	1
313.15	0.3492	864.4	1
313.15	0.4399	888.3	1
313.15	0.5693	922.6	1
313.15	0.6495	944	1
313.15	0.7399	967	1
313.15	0.8498	994.1	1
313.15	0.9399	1014.6	1
313.15	1	1027.9	1
318.15	0	763.4	1
318.15	0.0809	786.7	1
318.15	0.1596	808.6	1
318.15	0.24	830.3	1
318.15	0.3492	859.8	1
318.15	0.4399	883.7	1
318.15	0.5693	918	1
318.15	0.6495	939.4	1
318.15	0.7399	963.2	1
318.15	0.8498	989.7	1
318.15	0.9399	1010.8	1
318.15	1	1023.4	1
323.15	0	758.8	1
323.15	0.0809	782	1
323.15	0.1596	803.7	1
323.15	0.24	825.6	1
323.15	0.3492	855.1	1
323.15	0.4399	879.1	1
323.15	0.5693	913.4	1
323.15	0.6495	934.9	1
323.15	0.7399	958.9	1
323.15	0.8498	985	1
323.15	0.9399	1006	1
323.15	1	1019.1	1

System: benzaldehyde + propan-2-ol; phases: Liquid
Fixed: Pressure, kPa = 100
Property: Viscosity, Pa*s (Liquid); method: Concentric cylinders viscometry
Temperature, K	Mole fraction of benzaldehyde	Viscosity, Pa*s	uncertainty
293.15	0	0.00242	0.0001
293.15	0.0809	0.00211	9e-05
293.15	0.1596	0.00186	8e-05
293.15	0.24	0.001675	6.8e-05
293.15	0.3492	0.001499	6.1e-05
293.15	0.4399	0.00142	6e-05
293.15	0.5693	0.001402	5.7e-05
293.15	0.6495	0.001414	5.7e-05
293.15	0.7399	0.001434	5.8e-05
293.15	0.8498	0.00147	6e-05
293.15	0.9399	0.001502	6.1e-05
293.15	1	0.00152	6e-05
298.15	0	0.00208	8e-05
298.15	0.0809	0.00182	7e-05
298.15	0.1596	0.00163	7e-05
298.15	0.24	0.00147	6e-05
298.15	0.3492	0.001342	5.4e-05
298.15	0.4399	0.001296	5.2e-05
298.15	0.5693	0.001284	5.2e-05
298.15	0.6495	0.001298	5.3e-05
298.15	0.7399	0.001318	5.4e-05
298.15	0.8498	0.001354	5.5e-05
298.15	0.9399	0.001385	5.6e-05
298.15	1	0.00141	6e-05
303.15	0	0.0018	7e-05
303.15	0.0809	0.00159	6e-05
303.15	0.1596	0.00143	6e-05
303.15	0.24	0.00133	5e-05
303.15	0.3492	0.001233	5e-05
303.15	0.4399	0.001197	4.9e-05
303.15	0.5693	0.001187	4.8e-05
303.15	0.6495	0.001196	4.9e-05
303.15	0.7399	0.001216	4.9e-05
303.15	0.8498	0.001252	5.1e-05
303.15	0.9399	0.001286	5.2e-05
303.15	1	0.00131	5e-05
308.15	0	0.00156	6e-05
308.15	0.0809	0.00141	6e-05
308.15	0.1596	0.00129	5e-05
308.15	0.24	0.0012	5e-05
308.15	0.3492	0.001126	4.6e-05
308.15	0.4399	0.0011	4e-05
308.15	0.5693	0.001098	4.5e-05
308.15	0.6495	0.001109	4.5e-05
308.15	0.7399	0.001131	4.6e-05
308.15	0.8498	0.001163	4.7e-05
308.15	0.9399	0.001197	4.9e-05
308.15	1	0.00122	5e-05
313.15	0	0.00136	6e-05
313.15	0.0809	0.00123	5e-05
313.15	0.1596	0.00114	5e-05
313.15	0.24	0.00108	4e-05
313.15	0.3492	0.00103	4e-05
313.15	0.4399	0.001011	4.1e-05
313.15	0.5693	0.001018	4.1e-05
313.15	0.6495	0.001032	4.2e-05
313.15	0.7399	0.001051	4.3e-05
313.15	0.8498	0.001093	4.4e-05
313.15	0.9399	0.001124	4.6e-05
313.15	1	0.00115	5e-05
318.15	0	0.00119	5e-05
318.15	0.0809	0.00108	4e-05
318.15	0.1596	0.001	4e-05
318.15	0.24	0.00095	4e-05
318.15	0.3492	0.000918	3.7e-05
318.15	0.4399	0.000909	3.7e-05
318.15	0.5693	0.000916	3.7e-05
318.15	0.6495	0.000933	3.8e-05
318.15	0.7399	0.000967	3.9e-05
318.15	0.8498	0.001015	4.1e-05
318.15	0.9399	0.001058	4.3e-05
318.15	1	0.00109	4e-05
323.15	0	0.00105	4e-05
323.15	0.0809	0.00097	4e-05
323.15	0.1596	0.000913	3.7e-05
323.15	0.24	0.000873	3.6e-05
323.15	0.3492	0.000848	3.5e-05
323.15	0.4399	0.00084	3e-05
323.15	0.5693	0.000844	3.4e-05
323.15	0.6495	0.000863	3.5e-05
323.15	0.7399	0.000892	3.6e-05
323.15	0.8498	0.000943	3.8e-05
323.15	0.9399	0.000991	4e-05
323.15	1	0.00103	4e-05

System: benzaldehyde + butan-2-ol; phases: Liquid
Fixed: Pressure, kPa = 100
Property: Mass density, kg/m3 (Liquid); method: Vibrating tube method
Temperature, K	Mole fraction of benzaldehyde	Mass density, kg/m3	uncertainty
293.15	0	806.7	1
293.15	0.0813	824.7	1
293.15	0.1623	842.8	1
293.15	0.2401	860.9	1
293.15	0.3517	886.9	1
293.15	0.4404	908.4	1
293.15	0.5612	938.1	1
293.15	0.6519	961	1
293.15	0.7423	984.4	1
293.15	0.8511	1012.1	1
293.15	0.94	1032.5	1
293.15	1	1046.3	1
298.15	0	802.7	1
298.15	0.0813	821.2	1
298.15	0.1623	839.5	1
298.15	0.2401	857.3	1
298.15	0.3517	883.2	1
298.15	0.4404	905.3	1
298.15	0.5612	934.6	1
298.15	0.6519	957.6	1
298.15	0.7423	980.2	1
298.15	0.8511	1007.3	1
298.15	0.94	1028.6	1
298.15	1	1041.7	1
303.15	0	798.4	1
303.15	0.0813	816.3	1
303.15	0.1623	834.1	1
303.15	0.2401	852.4	1
303.15	0.3517	878.1	1
303.15	0.4404	899.7	1
303.15	0.5612	929.2	1
303.15	0.6519	952.1	1
303.15	0.7423	975.7	1
303.15	0.8511	1002.1	1
303.15	0.94	1023.2	1
303.15	1	1037.1	1
308.15	0	794.1	1
308.15	0.0813	812.3	1
308.15	0.1623	829.9	1
308.15	0.2401	848.1	1
308.15	0.3517	873.9	1
308.15	0.4404	895.3	1
308.15	0.5612	924.7	1
308.15	0.6519	947.6	1
308.15	0.7423	971.1	1
308.15	0.8511	997	1
308.15	0.94	1019	1
308.15	1	1032.4	1
313.15	0	789.8	1
313.15	0.0813	807.8	1
313.15	0.1623	825.5	1
313.15	0.2401	843.7	1
313.15	0.3517	869.3	1
313.15	0.4404	890.8	1
313.15	0.5612	920.3	1
313.15	0.6519	944.4	1
313.15	0.7423	966.7	1
313.15	0.8511	993.4	1
313.15	0.94	1014.1	1
313.15	1	1027.9	1
318.15	0	785.2	1
318.15	0.0813	803	1
318.15	0.1623	820.8	1
318.15	0.2401	839	1
318.15	0.3517	864.6	1
318.15	0.4404	886.1	1
318.15	0.5612	915.7	1
318.15	0.6519	940	1
318.15	0.7423	962.1	1
318.15	0.8511	987.7	1
318.15	0.94	1009.3	1
318.15	1	1023.4	1
323.15	0	780.6	1
323.15	0.0813	798.9	1
323.15	0.1623	816.4	1
323.15	0.2401	834.6	1
323.15	0.3517	860	1
323.15	0.4404	881.5	1
323.15	0.5612	911	1
323.15	0.6519	933.9	1
323.15	0.7423	956	1
323.15	0.8511	982.1	1
323.15	0.94	1003.9	1
323.15	1	1019.1	1

System: benzaldehyde + butan-2-ol; phases: Liquid
Fixed: Pressure, kPa = 100
Property: Viscosity, Pa*s (Liquid); method: Concentric cylinders viscometry
Temperature, K	Mole fraction of benzaldehyde	Viscosity, Pa*s	uncertainty
293.15	0	0.00367	0.00015
293.15	0.0813	0.00308	0.00012
293.15	0.1623	0.00262	0.00011
293.15	0.2401	0.0023	9e-05
293.15	0.3517	0.00197	8e-05
293.15	0.4404	0.001791	7.2e-05
293.15	0.5612	0.001648	6.7e-05
293.15	0.6519	0.001576	6.4e-05
293.15	0.7423	0.001528	6.2e-05
293.15	0.8511	0.001506	6.1e-05
293.15	0.94	0.001511	6.1e-05
293.15	1	0.00152	6e-05
298.15	0	0.00304	0.00012
298.15	0.0813	0.00265	0.00011
298.15	0.1623	0.00231	9e-05
298.15	0.2401	0.002027	8.2e-05
298.15	0.3517	0.00175	7e-05
298.15	0.4404	0.00161	7e-05
298.15	0.5612	0.001487	6e-05
298.15	0.6519	0.001426	5.8e-05
298.15	0.7423	0.00139	6e-05
298.15	0.8511	0.00138	6e-05
298.15	0.94	0.00139	6e-05
298.15	1	0.00141	6e-05
303.15	0	0.00254	0.0001
303.15	0.0813	0.00223	9e-05
303.15	0.1623	0.001984	8e-05
303.15	0.2401	0.00178	7e-05
303.15	0.3517	0.001561	6.3e-05
303.15	0.4404	0.001438	5.8e-05
303.15	0.5612	0.001322	5.4e-05
303.15	0.6519	0.001279	5.2e-05
303.15	0.7423	0.001255	5.1e-05
303.15	0.8511	0.001255	5.1e-05
303.15	0.94	0.001277	5.2e-05
303.15	1	0.00131	5e-05
308.15	0	0.00213	9e-05
308.15	0.0813	0.001897	7.7e-05
308.15	0.1623	0.0017	7e-05
308.15	0.2401	0.00155	6e-05
308.15	0.3517	0.001383	5.6e-05
308.15	0.4404	0.001284	5.2e-05
308.15	0.5612	0.001194	4.8e-05
308.15	0.6519	0.001156	4.7e-05
308.15	0.7423	0.001139	4.6e-05
308.15	0.8511	0.001149	4.7e-05
308.15	0.94	0.001182	4.8e-05
308.15	1	0.00122	5e-05
313.15	0	0.0018	7e-05
313.15	0.0813	0.001636	6.6e-05
313.15	0.1623	0.00149	6e-05
313.15	0.2401	0.001366	5.5e-05
313.15	0.3517	0.00123	5e-05
313.15	0.4404	0.001146	4.7e-05
313.15	0.5612	0.001079	4.4e-05
313.15	0.6519	0.00105	4e-05
313.15	0.7423	0.001038	4.2e-05
313.15	0.8511	0.001057	4.3e-05
313.15	0.94	0.0011	5e-05
313.15	1	0.00115	5e-05
318.15	0	0.00154	6e-05
318.15	0.0813	0.001388	5.6e-05
318.15	0.1623	0.001265	5.1e-05
318.15	0.2401	0.001172	4.8e-05
318.15	0.3517	0.001068	4.3e-05
318.15	0.4404	0.00101	4e-05
318.15	0.5612	0.000966	3.9e-05
318.15	0.6519	0.00095	4e-05
318.15	0.7423	0.000948	3.9e-05
318.15	0.8511	0.000979	4e-05
318.15	0.94	0.001026	4.2e-05
318.15	1	0.00109	4e-05
323.15	0	0.00133	5e-05
323.15	0.0813	0.001215	4.9e-05
323.15	0.1623	0.001128	4.6e-05
323.15	0.2401	0.001056	4.3e-05
323.15	0.3517	0.000977	4e-05
323.15	0.4404	0.000932	3.8e-05
323.15	0.5612	0.000895	3.6e-05
323.15	0.6519	0.000882	3.6e-05
323.15	0.7423	0.000887	3.6e-05
323.15	0.8511	0.000913	3.7e-05
323.15	0.94	0.000962	3.9e-05
323.15	1	0.00103	4e-05

System: benzaldehyde + pentan-2-ol; phases: Liquid
Fixed: Pressure, kPa = 100
Property: Mass density, kg/m3 (Liquid); method: Vibrating tube method
Temperature, K	Mole fraction of benzaldehyde	Mass density, kg/m3	uncertainty
293.15	0	809.3	1
293.15	0.0809	825.2	1
293.15	0.1662	841.4	1
293.15	0.2441	858.3	1
293.15	0.3552	882.5	1
293.15	0.4418	903	1
293.15	0.5664	933.2	1
293.15	0.6565	956.4	1
293.15	0.7447	980	1
293.15	0.8528	1008.5	1
293.15	0.9419	1031.8	1
293.15	1	1046.3	1
298.15	0	805.3	1
298.15	0.0809	821.1	1
298.15	0.1662	837.2	1
298.15	0.2441	854	1
298.15	0.3552	878.2	1
298.15	0.4418	898	1
298.15	0.5664	928.2	1
298.15	0.6565	951.2	1
298.15	0.7447	975.4	1
298.15	0.8528	1004.1	1
298.15	0.9419	1027.4	1
298.15	1	1041.7	1
303.15	0	801.2	1
303.15	0.0809	817	1
303.15	0.1662	833	1
303.15	0.2441	849.7	1
303.15	0.3552	873.9	1
303.15	0.4418	894.4	1
303.15	0.5664	923.8	1
303.15	0.6565	946.9	1
303.15	0.7447	971	1
303.15	0.8528	1000	1
303.15	0.9419	1023.1	1
303.15	1	1037.1	1
308.15	0	797	1
308.15	0.0809	812.9	1
308.15	0.1662	828.8	1
308.15	0.2441	845.5	1
308.15	0.3552	869.6	1
308.15	0.4418	890.3	1
308.15	0.5664	919.3	1
308.15	0.6565	942.3	1
308.15	0.7447	966.5	1
308.15	0.8528	995.5	1
308.15	0.9419	1018	1
308.15	1	1032.4	1
313.15	0	792.7	1
313.15	0.0809	808.6	1
313.15	0.1662	824.4	1
313.15	0.2441	841.1	1
313.15	0.3552	865.2	1
313.15	0.4418	885.2	1
313.15	0.5664	914.8	1
313.15	0.6565	937.8	1
313.15	0.7447	962	1
313.15	0.8528	991.1	1
313.15	0.9419	1013.9	1
313.15	1	1027.9	1
318.15	0	788.4	1
318.15	0.0809	804.2	1
318.15	0.1662	820	1
318.15	0.2441	836.7	1
318.15	0.3552	860.8	1
318.15	0.4418	881.4	1
318.15	0.5664	910.4	1
318.15	0.6565	933.4	1
318.15	0.7447	957.4	1
318.15	0.8528	986.6	1
318.15	0.9419	1009.1	1
318.15	1	1023.4	1
323.15	0	784	1
323.15	0.0809	799.7	1
323.15	0.1662	815.6	1
323.15	0.2441	832.2	1
323.15	0.3552	856.3	1
323.15	0.4418	876.9	1
323.15	0.5664	906.7	1
323.15	0.6565	928.9	1
323.15	0.7447	952.9	1
323.15	0.8528	981.6	1
323.15	0.9419	1004.5	1
323.15	1	1019.1	1

System: benzaldehyde + pentan-2-ol; phases: Liquid
Fixed: Pressure, kPa = 100
Property: Viscosity, Pa*s (Liquid); method: Concentric cylinders viscometry
Temperature, K	Mole fraction of benzaldehyde	Viscosity, Pa*s	uncertainty
293.15	0	0.00397	0.00016
293.15	0.0809	0.0033	0.00013
293.15	0.1662	0.00275	0.00011
293.15	0.2441	0.00236	0.0001
293.15	0.3552	0.00195	8e-05
293.15	0.4418	0.001757	7.1e-05
293.15	0.5664	0.00162	7e-05
293.15	0.6565	0.001568	6.4e-05
293.15	0.7447	0.001537	6.2e-05
293.15	0.8528	0.001516	6.2e-05
293.15	0.9419	0.00151	6e-05
293.15	1	0.00152	6e-05
298.15	0	0.00332	0.00013
298.15	0.0809	0.002775	0.000113
298.15	0.1662	0.00235	0.0001
298.15	0.2441	0.00205	8e-05
298.15	0.3552	0.001731	7e-05
298.15	0.4418	0.001584	6.4e-05
298.15	0.5664	0.001458	5.9e-05
298.15	0.6565	0.001416	5.8e-05
298.15	0.7447	0.001395	5.7e-05
298.15	0.8528	0.00139	6e-05
298.15	0.9419	0.001395	5.7e-05
298.15	1	0.00141	6e-05
303.15	0	0.00281	0.00011
303.15	0.0809	0.0024	0.0001
303.15	0.1662	0.00206	8e-05
303.15	0.2441	0.001809	7.3e-05
303.15	0.3552	0.00155	6e-05
303.15	0.4418	0.001411	5.7e-05
303.15	0.5664	0.001301	5.3e-05
303.15	0.6565	0.001259	5.1e-05
303.15	0.7447	0.00125	5e-05
303.15	0.8528	0.001259	5.1e-05
303.15	0.9419	0.00128	5e-05
303.15	1	0.00131	5e-05
308.15	0	0.00237	0.0001
308.15	0.0809	0.002035	8.3e-05
308.15	0.1662	0.00178	7e-05
308.15	0.2441	0.001584	6.4e-05
308.15	0.3552	0.001369	5.6e-05
308.15	0.4418	0.00125	5e-05
308.15	0.5664	0.001159	4.7e-05
308.15	0.6565	0.001128	4.6e-05
308.15	0.7447	0.001117	4.6e-05
308.15	0.8528	0.001138	4.6e-05
308.15	0.9419	0.001175	4.8e-05
308.15	1	0.00122	5e-05
313.15	0	0.00199	8e-05
313.15	0.0809	0.001746	7.1e-05
313.15	0.1662	0.001537	6.2e-05
313.15	0.2441	0.00137	6e-05
313.15	0.3552	0.001185	4.8e-05
313.15	0.4418	0.001088	4.4e-05
313.15	0.5664	0.001021	4.2e-05
313.15	0.6565	0.000999	4.1e-05
313.15	0.7447	0.000999	4.1e-05
313.15	0.8528	0.001035	4.2e-05
313.15	0.9419	0.001088	4.4e-05
313.15	1	0.00115	5e-05
318.15	0	0.00166	7e-05
318.15	0.0809	0.00146	6e-05
318.15	0.1662	0.001291	5.3e-05
318.15	0.2441	0.001167	4.8e-05
318.15	0.3552	0.001032	4.2e-05
318.15	0.4418	0.000963	3.9e-05
318.15	0.5664	0.0009	4e-05
318.15	0.6565	0.000881	3.6e-05
318.15	0.7447	0.000884	3.6e-05
318.15	0.8528	0.000932	3.8e-05
318.15	0.9419	0.001011	4.1e-05
318.15	1	0.00109	4e-05
323.15	0	0.00139	6e-05
323.15	0.0809	0.001206	4.9e-05
323.15	0.1662	0.001068	4.4e-05
323.15	0.2441	0.000984	4e-05
323.15	0.3552	0.000887	3.6e-05
323.15	0.4418	0.000831	3.4e-05
323.15	0.5664	0.000789	3.2e-05
323.15	0.6565	0.000782	3.2e-05
323.15	0.7447	0.000799	3.3e-05
323.15	0.8528	0.00085	4e-05
323.15	0.9419	0.000941	3.8e-05
323.15	1	0.00103	4e-05
