Measured thermophysical data. Density and Volumetric Behavior of CO2 + Undecane System from 313.15 to 353.15 K and Pressures up to 19 MPa
Source: J. Chem. Eng. Data, 2016, 10.1021/acs.jced.6b00026
Compound 1: carbon dioxide, CO2, InChI=1S/CO2/c2-1-3, purity 99.99%
Compound 2: undecane, C11H24, InChI=1S/C11H24/c1-3-5-7-9-11-10-8-6-4-2/h3-11H2,1-2H3, purity 99.6%

System: undecane; phases: Liquid
Property: Mass density, kg/m3 (Liquid); method: Buoyancy - hydrostatic balance with magnetic suspension - one sinker
Temperature, K	Pressure, kPa	Mass density, kg/m3	uncertainty
313.24	8029	733.14	0.33
313.18	9997	734.69	0.33
313.19	12016	736.18	0.33
313.22	14009	737.62	0.33
313.23	16006	739.05	0.33
313.19	18013	740.5	0.33
313.17	19009	741.21	0.33
323.24	7997	726.03	0.33
323.22	10009	727.67	0.33
323.23	12003	729.24	0.33
323.23	14022	730.8	0.33
323.19	16026	732.35	0.33
323.19	17995	733.8	0.33
323.18	19002	734.54	0.33
333.14	8001	718.68	0.33
333.16	10001	720.38	0.33
333.13	12007	722.07	0.33
333.15	14012	723.7	0.33
333.12	16003	725.32	0.33
333.12	17990	726.87	0.33
333.14	19027	727.66	0.33
343.29	7989	711.51	0.33
343.29	9998	713.33	0.33
343.26	11021	714.27	0.33
343.28	11999	715.12	0.33
343.25	13005	716	0.33
343.26	14019	716.86	0.33
343.3	14998	717.66	0.33
343.27	15997	718.51	0.33
343.25	16996	719.36	0.33
343.27	18006	720.27	0.33
343.28	19019	720.98	0.33
353.33	7993	704.36	0.33
353.35	9996	706.27	0.33
353.31	11002	707.25	0.33
353.16	12003	708.19	0.33
353.32	13007	709.08	0.33
353.33	14003	709.98	0.33
353.32	14999	710.86	0.33
353.34	16001	711.73	0.33
353.31	17012	712.63	0.33
353.33	18010	713.48	0.33
353.32	19024	714.35	0.33

System: carbon dioxide + undecane; phases: Fluid (supercritical or subcritical phases)
Property: Mass density, kg/m3 (Fluid (supercritical or subcritical phases)); method: Buoyancy - hydrostatic balance with magnetic suspension - one sinker
Temperature, K	Pressure, kPa	Mole fraction of carbon dioxide	Mass density, kg/m3	uncertainty
313.18	13999	0.2483	745.92	0.38
313.18	18977	0.2483	749.97	0.39
313.18	8001	0.6797	776.08	0.38
313.18	16002	0.6797	808.24	0.39
313.18	18070	0.8874	825.37	0.38
313.19	19014	0.6797	817.41	0.4
313.19	16008	0.2483	747.58	0.38
313.2	12013	0.2483	744.22	0.38
313.2	10002	0.6797	785.54	0.37
313.21	12003	0.6797	793.85	0.38
313.21	13997	0.6797	801.3	0.38
313.21	8004	0.2483	740.68	0.38
313.21	18002	0.2483	749.16	0.39
313.21	10007	0.2483	742.45	0.38
313.22	19000	0.4641	772.52	0.4
313.23	16004	0.4641	769.05	0.4
313.23	17996	0.4641	771.37	0.4
313.24	10003	0.4641	761.59	0.38
313.24	12000	0.4641	764.15	0.39
313.24	18003	0.6797	814.33	0.39
313.25	7997	0.4641	758.91	0.38
313.26	10039	0.8874	773.99	0.38
313.26	11990	0.8874	789.91	0.38
313.26	14074	0.8874	803.72	0.38
313.27	16066	0.8874	815	0.38
313.27	19015	0.8874	829.45	0.38
313.29	14002	0.4641	766.59	0.39
323.11	18008	0.6797	792.77	0.38
323.14	11997	0.2483	736.47	0.38
323.15	16006	0.4641	758.48	0.39
323.17	7997	0.4641	747.66	0.38
323.17	14005	0.4641	755.92	0.38
323.17	19002	0.6797	795.98	0.38
323.19	9992	0.6797	757.97	0.38
323.2	9999	0.2483	734.59	0.38
323.2	16011	0.2483	739.99	0.38
323.2	18000	0.2483	741.72	0.38
323.2	11998	0.6797	768.5	0.37
323.23	14011	0.2483	738.22	0.38
323.23	19001	0.2483	742.54	0.38
323.25	16042	0.6797	785.42	0.38
323.25	19040	0.8874	798.97	0.38
323.26	10008	0.4641	750.42	0.37
323.26	12004	0.4641	753.18	0.38
323.26	19006	0.4641	762.09	0.39
323.27	18003	0.4641	760.86	0.39
323.27	8000	0.2483	732.65	0.38
323.3	14004	0.6797	777.17	0.37
323.31	13971	0.8874	764.29	0.39
323.31	18051	0.8874	793.06	0.38
323.32	11984	0.8874	745.06	0.4
323.32	16015	0.8874	779.89	0.38
333.05	15991	0.2483	732.43	0.38
333.06	18013	0.2483	734.27	0.38
333.06	8008	0.2483	724.69	0.38
333.07	19007	0.2483	735.15	0.38
333.07	18027	0.6797	770.02	0.37
333.09	18042	0.8874	758.98	0.38
333.11	12010	0.8874	701.45	0.44
333.14	18003	0.4641	751.23	0.38
333.14	10000	0.2483	726.64	0.38
333.14	11987	0.6797	745.9	0.38
333.14	19000	0.6797	773.23	0.37
333.16	16006	0.4641	748.54	0.38
333.16	11998	0.4641	742.85	0.37
333.16	12018	0.2483	728.6	0.38
333.16	10004	0.4641	739.87	0.38
333.16	19039	0.8874	765.91	0.38
333.17	13998	0.6797	754.83	0.38
333.17	14013	0.2483	730.5	0.38
333.17	14005	0.8874	721.01	0.41
333.17	8004	0.4641	736.7	0.37
333.19	13997	0.4641	745.71	0.38
333.19	16015	0.8874	741.91	0.39
333.21	19000	0.4641	752.46	0.38
333.23	16000	0.6797	762.53	0.37
343.19	12000	0.2483	720.79	0.37
343.2	14004	0.2483	722.81	0.38
343.2	17005	0.2483	725.76	0.38
343.21	11985	0.6797	729.1	0.37
343.24	10010	0.2483	718.69	0.37
343.25	13002	0.6797	731.82	0.37
343.25	16001	0.4641	738.42	0.37
343.26	17011	0.4641	739.9	0.37
343.26	14997	0.2483	723.76	0.38
343.27	13999	0.6797	736.08	0.4
343.27	17005	0.6797	747.33	0.38
343.27	14997	0.4641	736.9	0.37
343.28	14995	0.6797	739.94	0.39
343.28	15997	0.6797	743.79	0.38
343.28	18018	0.6797	750.83	0.37
343.28	14027	0.8874	673.56	0.49
343.3	16007	0.2483	724.72	0.38
343.3	11002	0.2483	719.69	0.37
343.3	11003	0.4641	730.57	0.37
343.3	12002	0.4641	732.18	0.37
343.3	18033	0.8874	723.56	0.4
343.31	13003	0.4641	733.77	0.37
343.31	8003	0.4641	725.39	0.37
343.32	19002	0.4641	742.71	0.38
343.32	7999	0.2483	716.46	0.37
343.32	17016	0.8874	713.66	0.41
343.34	9998	0.4641	728.83	0.37
343.34	19012	0.2483	727.57	0.38
343.34	16020	0.8874	702.38	0.43
343.35	17999	0.4641	741.25	0.37
343.35	15016	0.8874	689.29	0.46
343.37	19021	0.6797	753.8	0.37
343.37	19004	0.8874	731.75	0.39
343.39	13010	0.2483	721.68	0.37
343.4	18008	0.2483	726.58	0.38
343.41	14002	0.4641	735.22	0.37
353.4	7998	0.2483	708.29	0.37
353.12	10003	0.2483	710.71	0.37
353.08	11003	0.2483	711.86	0.37
353.43	12003	0.2483	712.78	0.37
353.13	13017	0.2483	714.01	0.37
353.34	14014	0.2483	715.02	0.37
353.35	14995	0.2483	716.05	0.37
353.14	16002	0.2483	717.14	0.37
353.31	16999	0.2483	718.15	0.37
353.33	18011	0.2483	719.15	0.37
353.4	19017	0.2483	720.08	0.38
353.31	8017	0.4641	712.03	0.37
353.33	9996	0.4641	717.59	0.37
353.41	11004	0.4641	719.34	0.37
353.09	11995	0.4641	721.32	0.37
353.39	13004	0.4641	722.88	0.37
353.23	14005	0.4641	724.68	0.37
353.19	14997	0.4641	726.33	0.37
353.4	16003	0.4641	727.85	0.37
353.44	16998	0.4641	729.38	0.37
353.13	17994	0.4641	731.12	0.37
353.38	19001	0.4641	732.5	0.37
353.44	15006	0.6797	702.5	0.39
353.34	16078	0.6797	710.53	0.42
353.44	17006	0.6797	716.04	0.41
353.42	17964	0.6797	722.19	0.39
353.44	19016	0.6797	727.96	0.39
353.46	16003	0.8874	649.3	0.49
353.46	17018	0.8874	665.72	0.88
353.52	18000	0.8874	678.79	0.43
353.43	19052	0.8874	691.56	0.41
353.43	15953	0.8874	651.24	0.49
353.52	17018	0.8874	668.1	0.88
353.45	17976	0.8874	681.1	0.43
353.43	18953	0.8874	692.79	0.42
