Measured thermophysical data. Measurement and Correlation of the Solubility of Baicalin in Several Mixed Solvents
Source: J. Chem. Eng. Data, 2019, 10.1021/acs.jced.8b01186
Compound 1: baicalin, C21H18O11, InChI=1S/C21H18O11/c22-9-6-10(8-4-2-1-3-5-8)30-11-7-12(14(23)15(24)13(9)11)31-21-18(27)16(25)17(26)19(32-21)20(28)29/h1-7,16-19,21,23-27H,(H,28,29)/t16-,17-,18+,19-,21+/m0/s1, purity 98.9%
Compound 2: methanol, CH4O, InChI=1S/CH4O/c1-2/h2H,1H3, purity 99.5%
Compound 3: ethanol, C2H6O, InChI=1S/C2H6O/c1-2-3/h3H,2H2,1H3, purity 99.4%
Compound 4: propan-1-ol, C3H8O, InChI=1S/C3H8O/c1-2-3-4/h4H,2-3H2,1H3, purity 99.4%
Compound 5: propan-2-ol, C3H8O, InChI=1S/C3H8O/c1-3(2)4/h3-4H,1-2H3, purity 99.5%
Compound 6: water, H2O, InChI=1S/H2O/h1H2, purity 99.9%

System: baicalin + methanol + water; phases: Liquid, Crystal
Fixed: Pressure, kPa = 101.1
Property: Mole fraction of baicalin (Liquid); method: Chromatography
Solvent: Mass fraction of methanol	Temperature, K	Mole fraction of baicalin	uncertainty
1	278.15	8.112e-05	7.3e-06
1	283.15	9.111e-05	8.2e-06
1	288.15	0.0001013	9.1e-06
1	293.15	0.0001132	1.02e-05
1	298.15	0.0001272	1.15e-05
1	303.15	0.0001429	1.29e-05
1	308.15	0.0001571	1.41e-05
1	313.15	0.0001713	1.54e-05
1	318.15	0.0001919	1.73e-05
0.9	278.15	6.779e-05	6.1e-06
0.9	283.15	7.82e-05	7.04e-06
0.9	288.15	8.902e-05	8.01e-06
0.9	293.15	0.0001013	9.1e-06
0.9	298.15	0.0001148	1.03e-05
0.9	303.15	0.0001297	1.17e-05
0.9	308.15	0.0001444	1.3e-05
0.9	313.15	0.0001591	1.43e-05
0.9	318.15	0.0001784	1.61e-05
0.8	278.15	5.212e-05	4.69e-06
0.8	283.15	6.012e-05	5.41e-06
0.8	288.15	6.959e-05	6.27e-06
0.8	293.15	8.121e-05	7.31e-06
0.8	298.15	9.428e-05	8.49e-06
0.8	303.15	0.0001089	9.8e-06
0.8	308.15	0.0001234	1.11e-05
0.8	313.15	0.000138	1.24e-05
0.8	318.15	0.0001542	1.39e-05
0.7	278.15	3.746e-05	3.37e-06
0.7	283.15	4.387e-05	3.95e-06
0.7	288.15	5.192e-05	4.67e-06
0.7	293.15	6.047e-05	5.44e-06
0.7	298.15	6.975e-05	6.28e-06
0.7	303.15	8.227e-05	7.41e-06
0.7	308.15	9.43e-05	8.49e-06
0.7	313.15	0.0001069	9.6e-06
0.7	318.15	0.0001256	1.13e-05
0.6	278.15	2.559e-05	2.3e-06
0.6	283.15	3.046e-05	2.74e-06
0.6	288.15	3.688e-05	3.32e-06
0.6	293.15	4.472e-05	4.03e-06
0.6	298.15	5.313e-05	4.78e-06
0.6	303.15	6.295e-05	5.67e-06
0.6	308.15	7.38e-05	6.64e-06
0.6	313.15	8.526e-05	7.68e-06
0.6	318.15	9.791e-05	8.82e-06
0.5	278.15	1.69e-05	1.52e-06
0.5	283.15	2.045e-05	1.84e-06
0.5	288.15	2.535e-05	2.28e-06
0.5	293.15	3.112e-05	2.8e-06
0.5	298.15	3.758e-05	3.38e-06
0.5	303.15	4.555e-05	4.1e-06
0.5	308.15	5.403e-05	4.86e-06
0.5	313.15	6.368e-05	5.73e-06
0.5	318.15	7.408e-05	6.67e-06
0.4	278.15	1.098e-05	9.9e-07
0.4	283.15	1.351e-05	1.22e-06
0.4	288.15	1.715e-05	1.54e-06
0.4	293.15	2.127e-05	1.92e-06
0.4	298.15	2.594e-05	2.34e-06
0.4	303.15	3.183e-05	2.87e-06
0.4	308.15	3.855e-05	3.47e-06
0.4	313.15	4.564e-05	4.11e-06
0.4	318.15	5.524e-05	4.97e-06
0.3	278.15	7.14e-06	6.43e-07
0.3	283.15	8.94e-06	8.05e-07
0.3	288.15	1.162e-05	1.05e-06
0.3	293.15	1.468e-05	1.32e-06
0.3	298.15	1.818e-05	1.64e-06
0.3	303.15	2.268e-05	2.04e-06
0.3	308.15	2.795e-05	2.52e-06
0.3	313.15	3.359e-05	3.02e-06
0.3	318.15	4.124e-05	3.71e-06
0.2	278.15	4.73e-06	4.26e-07
0.2	283.15	6.03e-06	5.43e-07
0.2	288.15	8.02e-06	7.22e-07
0.2	293.15	1.033e-05	9.3e-07
0.2	298.15	1.298e-05	1.17e-06
0.2	303.15	1.645e-05	1.48e-06
0.2	308.15	2.062e-05	1.86e-06
0.2	313.15	2.516e-05	2.27e-06
0.2	318.15	3.132e-05	2.82e-06
0.1	278.15	3.26e-06	2.94e-07
0.1	283.15	4.22e-06	3.8e-07
0.1	288.15	5.74e-06	5.17e-07
0.1	293.15	7.53e-06	6.78e-07
0.1	298.15	9.6e-06	8.64e-07
0.1	303.15	1.235e-05	1.11e-06
0.1	308.15	1.575e-05	1.42e-06
0.1	313.15	1.949e-05	1.75e-06
0.1	318.15	2.46e-05	2.22e-06
0	278.15	2.38e-06	2.14e-07
0	283.15	3.13e-06	2.82e-07
0	288.15	4.35e-06	3.92e-07
0	293.15	5.8e-06	5.22e-07
0	298.15	7.49e-06	6.74e-07
0	303.15	9.78e-06	8.81e-07
0	308.15	1.267e-05	1.14e-06
0	313.15	1.589e-05	1.43e-06
0	318.15	2.031e-05	1.83e-06

System: baicalin + ethanol + water; phases: Liquid, Crystal
Fixed: Pressure, kPa = 101.1
Property: Mole fraction of baicalin (Liquid); method: Chromatography
Solvent: Mass fraction of ethanol	Temperature, K	Mole fraction of baicalin	uncertainty
1	278.15	0.0001713	1.54e-05
1	283.15	0.0001761	1.59e-05
1	288.15	0.0001811	1.63e-05
1	293.15	0.0001861	1.68e-05
1	298.15	0.0001912	1.72e-05
1	303.15	0.0001962	1.77e-05
1	308.15	0.000202	1.82e-05
1	313.15	0.0002053	1.85e-05
1	318.15	0.0002121	1.91e-05
0.9	278.15	0.0001369	1.23e-05
0.9	283.15	0.0001444	1.3e-05
0.9	288.15	0.0001528	1.38e-05
0.9	293.15	0.0001615	1.45e-05
0.9	298.15	0.0001691	1.52e-05
0.9	303.15	0.0001768	1.59e-05
0.9	308.15	0.0001847	1.66e-05
0.9	313.15	0.0001914	1.72e-05
0.9	318.15	0.0002005	1.81e-05
0.8	278.15	0.0001015	9.1e-06
0.8	283.15	0.0001086	9.8e-06
0.8	288.15	0.0001177	1.06e-05
0.8	293.15	0.0001264	1.14e-05
0.8	298.15	0.0001353	1.22e-05
0.8	303.15	0.0001446	1.3e-05
0.8	308.15	0.0001556	1.4e-05
0.8	313.15	0.0001646	1.48e-05
0.8	318.15	0.0001773	1.6e-05
0.7	278.15	7.084e-05	6.38e-06
0.7	283.15	7.705e-05	6.94e-06
0.7	288.15	8.549e-05	7.7e-06
0.7	293.15	9.531e-05	8.58e-06
0.7	298.15	0.0001043	9.4e-06
0.7	303.15	0.0001144	1.03e-05
0.7	308.15	0.0001251	1.13e-05
0.7	313.15	0.0001355	1.22e-05
0.7	318.15	0.0001488	1.34e-05
0.6	278.15	4.72e-05	4.25e-06
0.6	283.15	5.312e-05	4.78e-06
0.6	288.15	6.085e-05	5.48e-06
0.6	293.15	6.829e-05	6.15e-06
0.6	298.15	7.718e-05	6.95e-06
0.6	303.15	8.636e-05	7.78e-06
0.6	308.15	9.658e-05	8.7e-06
0.6	313.15	0.0001062	9.6e-06
0.6	318.15	0.00012	1.08e-05
0.5	278.15	3.035e-05	2.73e-06
0.5	283.15	3.559e-05	3.2e-06
0.5	288.15	4.216e-05	3.8e-06
0.5	293.15	4.893e-05	4.41e-06
0.5	298.15	5.592e-05	5.03e-06
0.5	303.15	6.394e-05	5.76e-06
0.5	308.15	7.336e-05	6.6e-06
0.5	313.15	8.202e-05	7.38e-06
0.5	318.15	9.371e-05	8.44e-06
0.4	278.15	1.898e-05	1.71e-06
0.4	283.15	2.246e-05	2.02e-06
0.4	288.15	2.751e-05	2.48e-06
0.4	293.15	3.286e-05	2.96e-06
0.4	298.15	3.851e-05	3.47e-06
0.4	303.15	4.541e-05	4.09e-06
0.4	308.15	5.337e-05	4.81e-06
0.4	313.15	6.121e-05	5.51e-06
0.4	318.15	7.148e-05	6.44e-06
0.3	278.15	1.162e-05	1.05e-06
0.3	283.15	1.411e-05	1.27e-06
0.3	288.15	1.783e-05	1.61e-06
0.3	293.15	2.188e-05	1.97e-06
0.3	298.15	2.626e-05	2.36e-06
0.3	303.15	3.175e-05	2.86e-06
0.3	308.15	3.821e-05	3.44e-06
0.3	313.15	4.48e-05	4.03e-06
0.3	318.15	5.349e-05	4.82e-06
0.2	278.15	6.98e-06	6.28e-07
0.2	283.15	8.7e-06	7.83e-07
0.2	288.15	1.134e-05	1.02e-06
0.2	293.15	1.431e-05	1.29e-06
0.2	298.15	1.76e-05	1.58e-06
0.2	303.15	2.182e-05	1.96e-06
0.2	308.15	2.691e-05	2.42e-06
0.2	313.15	3.225e-05	2.9e-06
0.2	318.15	3.938e-05	3.55e-06
0.1	278.15	4.12e-06	3.71e-07
0.1	283.15	5.27e-06	4.75e-07
0.1	288.15	7.09e-06	6.38e-07
0.1	293.15	9.2e-06	8.28e-07
0.1	298.15	1.159e-05	1.04e-06
0.1	303.15	1.475e-05	1.33e-06
0.1	308.15	1.863e-05	1.68e-06
0.1	313.15	2.284e-05	2.06e-06
0.1	318.15	2.854e-05	2.57e-06
0	278.15	2.38e-06	2.14e-07
0	283.15	3.13e-06	2.82e-07
0	288.15	4.35e-06	3.92e-07
0	293.15	5.8e-06	5.22e-07
0	298.15	7.49e-06	6.74e-07
0	303.15	9.78e-06	8.81e-07
0	308.15	1.267e-05	1.14e-06
0	313.15	1.589e-05	1.43e-06
0	318.15	2.031e-05	1.83e-06

System: baicalin + propan-1-ol + water; phases: Liquid, Crystal
Fixed: Pressure, kPa = 101.1
Property: Mole fraction of baicalin (Liquid); method: Chromatography
Solvent: Mass fraction of propan-1-ol	Temperature, K	Mole fraction of baicalin	uncertainty
1	278.15	0.0007679	6.92e-05
1	283.15	0.001007	9.1e-05
1	288.15	0.001327	0.000119
1	293.15	0.001709	0.000154
1	298.15	0.00224	0.000202
1	303.15	0.00289	0.00026
1	308.15	0.003631	0.000327
1	313.15	0.004507	0.000406
1	318.15	0.005513	0.000496
0.9	278.15	0.0006814	6.14e-05
0.9	283.15	0.0008865	7.98e-05
0.9	288.15	0.001229	0.000111
0.9	293.15	0.001578	0.000142
0.9	298.15	0.001984	0.000179
0.9	303.15	0.002575	0.000232
0.9	308.15	0.003202	0.000288
0.9	313.15	0.003912	0.000352
0.9	318.15	0.004699	0.000423
0.8	278.15	0.0005162	4.65e-05
0.8	283.15	0.0006812	6.13e-05
0.8	288.15	0.0009055	8.15e-05
0.8	293.15	0.001179	0.000106
0.8	298.15	0.001493	0.000134
0.8	303.15	0.001898	0.000171
0.8	308.15	0.002362	0.000213
0.8	313.15	0.002882	0.000259
0.8	318.15	0.003487	0.000314
0.7	278.15	0.0003763	3.39e-05
0.7	283.15	0.0004849	4.37e-05
0.7	288.15	0.0006382	5.75e-05
0.7	293.15	0.0008377	7.54e-05
0.7	298.15	0.00108	9.7e-05
0.7	303.15	0.001368	0.000123
0.7	308.15	0.001691	0.000152
0.7	313.15	0.00208	0.000187
0.7	318.15	0.002503	0.000225
0.6	278.15	0.0002812	2.53e-05
0.6	283.15	0.0003749	3.38e-05
0.6	288.15	0.0004966	4.47e-05
0.6	293.15	0.0006291	5.66e-05
0.6	298.15	0.0008039	7.24e-05
0.6	303.15	0.001006	9.1e-05
0.6	308.15	0.00125	0.000113
0.6	313.15	0.001523	0.000137
0.6	318.15	0.001836	0.000165
0.5	278.15	0.000217	1.95e-05
0.5	283.15	0.0002767	2.49e-05
0.5	288.15	0.0003644	3.28e-05
0.5	293.15	0.0004758	4.28e-05
0.5	298.15	0.0006055	5.45e-05
0.5	303.15	0.000757	6.82e-05
0.5	308.15	0.0009402	8.47e-05
0.5	313.15	0.001144	0.000103
0.5	318.15	0.001385	0.000125
0.4	278.15	0.0001646	1.48e-05
0.4	283.15	0.0002088	1.88e-05
0.4	288.15	0.000275	2.48e-05
0.4	293.15	0.0003587	3.23e-05
0.4	298.15	0.0004541	4.09e-05
0.4	303.15	0.0005654	5.09e-05
0.4	308.15	0.0007012	6.31e-05
0.4	313.15	0.0008458	7.62e-05
0.4	318.15	0.001029	9.3e-05
0.3	278.15	0.0001104	9.9e-06
0.3	283.15	0.0001396	1.26e-05
0.3	288.15	0.0001843	1.66e-05
0.3	293.15	0.000235	2.12e-05
0.3	298.15	0.0002948	2.65e-05
0.3	303.15	0.0003714	3.34e-05
0.3	308.15	0.000462	4.16e-05
0.3	313.15	0.0005604	5.05e-05
0.3	318.15	0.0006864	6.18e-05
0.2	278.15	5.567e-05	5.01e-06
0.2	283.15	7.056e-05	6.35e-06
0.2	288.15	9.384e-05	8.45e-06
0.2	293.15	0.0001203	1.08e-05
0.2	298.15	0.0001509	1.36e-05
0.2	303.15	0.0001907	1.72e-05
0.2	308.15	0.0002383	2.15e-05
0.2	313.15	0.0002898	2.61e-05
0.2	318.15	0.000357	3.22e-05
0.1	278.15	1.698e-05	1.53e-06
0.1	283.15	2.176e-05	1.96e-06
0.1	288.15	2.94e-05	2.65e-06
0.1	293.15	3.819e-05	3.44e-06
0.1	298.15	4.833e-05	4.35e-06
0.1	303.15	6.169e-05	5.56e-06
0.1	308.15	7.804e-05	7.03e-06
0.1	313.15	9.584e-05	8.63e-06
0.1	318.15	0.0001196	1.08e-05
0	278.15	2.38e-06	2.14e-07
0	283.15	3.13e-06	2.82e-07
0	288.15	4.35e-06	3.92e-07
0	293.15	5.8e-06	5.22e-07
0	298.15	7.49e-06	6.74e-07
0	303.15	9.78e-06	8.81e-07
0	308.15	1.267e-05	1.14e-06
0	313.15	1.589e-05	1.43e-06
0	318.15	2.031e-05	1.83e-06

System: baicalin + propan-2-ol + water; phases: Liquid, Crystal
Fixed: Pressure, kPa = 101.1
Property: Mole fraction of baicalin (Liquid); method: Chromatography
Solvent: Mass fraction of propan-2-ol	Temperature, K	Mole fraction of baicalin	uncertainty
1	278.15	0.0006757	6.08e-05
1	283.15	0.0008545	7.69e-05
1	288.15	0.001121	0.000101
1	293.15	0.001453	0.000131
1	298.15	0.00191	0.000172
1	303.15	0.002457	0.000221
1	308.15	0.003143	0.000283
1	313.15	0.003917	0.000353
1	318.15	0.004722	0.000425
0.9	278.15	0.0005447	4.9e-05
0.9	283.15	0.0006871	6.19e-05
0.9	288.15	0.0009303	8.38e-05
0.9	293.15	0.001208	0.000109
0.9	298.15	0.001563	0.000141
0.9	303.15	0.001991	0.000179
0.9	308.15	0.002525	0.000227
0.9	313.15	0.003137	0.000282
0.9	318.15	0.003716	0.000335
0.8	278.15	0.0004137	3.73e-05
0.8	283.15	0.0005213	4.69e-05
0.8	288.15	0.0006844	6.16e-05
0.8	293.15	0.0009174	8.26e-05
0.8	298.15	0.001202	0.000108
0.8	303.15	0.001554	0.00014
0.8	308.15	0.001938	0.000174
0.8	313.15	0.002354	0.000212
0.8	318.15	0.002777	0.00025
0.7	278.15	0.000315	2.84e-05
0.7	283.15	0.0004131	3.72e-05
0.7	288.15	0.0005463	4.92e-05
0.7	293.15	0.000721	6.49e-05
0.7	298.15	0.0008976	8.08e-05
0.7	303.15	0.001118	0.000101
0.7	308.15	0.001419	0.000128
0.7	313.15	0.001742	0.000157
0.7	318.15	0.002079	0.000187
0.6	278.15	0.0002459	2.21e-05
0.6	283.15	0.0003088	2.78e-05
0.6	288.15	0.000406	3.66e-05
0.6	293.15	0.0005338	4.81e-05
0.6	298.15	0.0006857	6.17e-05
0.6	303.15	0.0008654	7.79e-05
0.6	308.15	0.001087	9.8e-05
0.6	313.15	0.001324	0.000119
0.6	318.15	0.001591	0.000143
0.5	278.15	0.0001935	1.74e-05
0.5	283.15	0.0002376	2.14e-05
0.5	288.15	0.0003141	2.83e-05
0.5	293.15	0.0004039	3.64e-05
0.5	298.15	0.0005094	4.59e-05
0.5	303.15	0.000642	5.78e-05
0.5	308.15	0.0008113	7.31e-05
0.5	313.15	0.0009948	8.96e-05
0.5	318.15	0.001226	0.00011
0.4	278.15	0.0001452	1.31e-05
0.4	283.15	0.0001818	1.64e-05
0.4	288.15	0.0002394	2.16e-05
0.4	293.15	0.0003134	2.82e-05
0.4	298.15	0.0003975	3.58e-05
0.4	303.15	0.0004986	4.49e-05
0.4	308.15	0.0006226	5.61e-05
0.4	313.15	0.0007522	6.77e-05
0.4	318.15	0.0009064	8.16e-05
0.3	278.15	9.45e-05	8.51e-06
0.3	283.15	0.0001185	1.07e-05
0.3	288.15	0.0001565	1.41e-05
0.3	293.15	0.0002003	1.8e-05
0.3	298.15	0.000252	2.27e-05
0.3	303.15	0.0003178	2.86e-05
0.3	308.15	0.0003981	3.58e-05
0.3	313.15	0.0004843	4.36e-05
0.3	318.15	0.0005916	5.33e-05
0.2	278.15	4.663e-05	4.2e-06
0.2	283.15	5.883e-05	5.3e-06
0.2	288.15	7.838e-05	7.06e-06
0.2	293.15	0.0001008	9.1e-06
0.2	298.15	0.0001269	1.14e-05
0.2	303.15	0.0001606	1.45e-05
0.2	308.15	0.0002019	1.82e-05
0.2	313.15	0.0002462	2.22e-05
0.2	318.15	0.0003032	2.73e-05
0.1	278.15	1.467e-05	1.32e-06
0.1	283.15	1.878e-05	1.69e-06
0.1	288.15	2.541e-05	2.29e-06
0.1	293.15	3.311e-05	2.98e-06
0.1	298.15	4.2e-05	3.78e-06
0.1	303.15	5.371e-05	4.84e-06
0.1	308.15	6.82e-05	6.14e-06
0.1	313.15	8.395e-05	7.56e-06
0.1	318.15	0.0001048	9.4e-06
0	278.15	2.38e-06	2.14e-07
0	283.15	3.13e-06	2.82e-07
0	288.15	4.35e-06	3.92e-07
0	293.15	5.8e-06	5.22e-07
0	298.15	7.49e-06	6.74e-07
0	303.15	9.78e-06	8.81e-07
0	308.15	1.267e-05	1.14e-06
0	313.15	1.589e-05	1.43e-06
0	318.15	2.031e-05	1.83e-06

System: baicalin + methanol; phases: Liquid, Crystal
Fixed: Pressure, kPa = 101.1
Property: Mole fraction of baicalin (Liquid); method: Chromatography
Temperature, K	Mole fraction of baicalin	uncertainty
278.15	8.112e-05	7.3e-06
283.15	9.111e-05	8.2e-06
288.15	0.0001013	9.1e-06
293.15	0.0001132	1.02e-05
298.15	0.0001272	1.15e-05
303.15	0.0001429	1.29e-05
308.15	0.0001571	1.41e-05
313.15	0.0001713	1.54e-05
318.15	0.0001919	1.73e-05

System: baicalin + water; phases: Liquid, Crystal
Fixed: Pressure, kPa = 101.1
Property: Mole fraction of baicalin (Liquid); method: Chromatography
Temperature, K	Mole fraction of baicalin	uncertainty
278.15	2.38e-06	2.14e-07
283.15	3.13e-06	2.82e-07
288.15	4.35e-06	3.92e-07
293.15	5.8e-06	5.22e-07
298.15	7.49e-06	6.74e-07
303.15	9.78e-06	8.81e-07
308.15	1.267e-05	1.14e-06
313.15	1.589e-05	1.43e-06
318.15	2.031e-05	1.83e-06

System: baicalin + ethanol; phases: Liquid, Crystal
Fixed: Pressure, kPa = 101.1
Property: Mole fraction of baicalin (Liquid); method: Chromatography
Temperature, K	Mole fraction of baicalin	uncertainty
278.15	0.0001713	1.54e-05
283.15	0.0001761	1.59e-05
288.15	0.0001811	1.63e-05
293.15	0.0001861	1.68e-05
298.15	0.0001912	1.72e-05
303.15	0.0001962	1.77e-05
308.15	0.000202	1.82e-05
313.15	0.0002053	1.85e-05
318.15	0.0002121	1.91e-05

System: baicalin + propan-1-ol; phases: Liquid, Crystal
Fixed: Pressure, kPa = 101.1
Property: Mole fraction of baicalin (Liquid); method: Chromatography
Temperature, K	Mole fraction of baicalin	uncertainty
278.15	0.0007679	6.92e-05
283.15	0.001007	9.1e-05
288.15	0.001327	0.000119
293.15	0.001709	0.000154
298.15	0.00224	0.000202
303.15	0.00289	0.00026
308.15	0.003631	0.000327
313.15	0.004507	0.000406
318.15	0.005513	0.000496

System: baicalin + propan-2-ol; phases: Liquid, Crystal
Fixed: Pressure, kPa = 101.1
Property: Mole fraction of baicalin (Liquid); method: Chromatography
Temperature, K	Mole fraction of baicalin	uncertainty
278.15	0.0006757	6.08e-05
283.15	0.0008545	7.69e-05
288.15	0.001121	0.000101
293.15	0.001453	0.000131
298.15	0.00191	0.000172
303.15	0.002457	0.000221
308.15	0.003143	0.000283
313.15	0.003917	0.000353
318.15	0.004722	0.000425
