Measured thermophysical data. Liquid-Liquid Equilibrium for the Ternary System of 3-Mercaptopropionic Acid + Water + Trichloromethane
Source: J. Chem. Eng. Data, 2019, 10.1021/acs.jced.8b01187
Compound 1: 3-mercaptopropionic acid, C3H6O2S, InChI=1S/C3H6O2S/c4-3(5)1-2-6/h6H,1-2H2,(H,4,5), purity 99%
Compound 2: trichloromethane, CHCl3, InChI=1S/CHCl3/c2-1(3)4/h1H, purity 99.8%
Compound 3: water, H2O, InChI=1S/H2O/h1H2, purity 99.8%

System: 3-mercaptopropionic acid + water + trichloromethane; phases: Liquid mixture 2, Liquid mixture 1
Fixed: Pressure, kPa = 99.2
Property: Mass fraction of trichloromethane (Liquid mixture 2); method: Chromatography
Property: Mass fraction of trichloromethane (Liquid mixture 1); method: Chromatography
Property: Mass fraction of 3-mercaptopropionic acid (Liquid mixture 1); method: Chromatography
Temperature, K	Mass fraction of 3-mercaptopropionic acid	Mass fraction of trichloromethane	uncertainty	Mass fraction of trichloromethane	uncertainty	Mass fraction of 3-mercaptopropionic acid	uncertainty
303.2	0.0538	0.0046	0.0046	0.9468	0.0144	0.0508	
323.2	0.2558	0.0139	0.0101	0.6846	0.0159	0.2571	
323.2	0.312	0.0225	0.0104	0.6185	0.0166	0.3107	
323.2	0.3728	0.0476	0.0108	0.5528	0.0172	0.3587	
303.2	0.092	0.0056	0.0056	0.889	0.0144	0.1067	
303.2	0.1323	0.0063	0.0063	0.8224	0.0152	0.1705	
303.2	0.2042	0.0113	0.01	0.6796	0.0157	0.2909	
303.2	0.242	0.0168	0.0102	0.6086	0.0184	0.3506	
303.2	0.2763	0.0243	0.0102	0.5117	0.0221	0.4005	
313.2	0.0554	0.0046	0.0046	0.9471	0.0144	0.0452	
313.2	0.1014	0.0058	0.0058	0.8899	0.015	0.1005	
313.2	0.1493	0.0072	0.0072	0.8094	0.0152	0.1688	
313.2	0.2309	0.0141	0.0101	0.6879	0.0159	0.2779	
313.2	0.2781	0.0331	0.0105	0.6048	0.0183	0.3362	
313.2	0.3252	0.0412	0.0102	0.522	0.0199	0.385	
323.2	0.0606	0.0034	0.0034	0.944	0.0153	0.0424	
323.2	0.1111	0.0049	0.0049	0.8851	0.0157	0.0934	
323.2	0.1582	0.0055	0.0055	0.816	0.0159	0.149	
