Measured thermophysical data. Phase Separation of Alcohol (1-Propanol, 2-Propanol, or tert-Butanol) from Its Aqueous Solution in the Presence of Biological Buffer MOPS
Source: J. Chem. Eng. Data, 2017, 10.1021/acs.jced.6b00954
Compound 1: propan-1-ol, C3H8O, InChI=1S/C3H8O/c1-2-3-4/h4H,2-3H2,1H3, purity 99.7%
Compound 2: propan-2-ol, C3H8O, InChI=1S/C3H8O/c1-3(2)4/h3-4H,1-2H3, purity 99.5%
Compound 3: 2-methylpropan-2-ol, C4H10O, InChI=1S/C4H10O/c1-4(2,3)5/h5H,1-3H3, purity 99.5%
Compound 4: 4-morpholinepropanesulfonic acid, C7H15NO4S, InChI=1S/C7H15NO4S/c9-13(10,11)7-1-2-8-3-5-12-6-4-8/h1-7H2,(H,9,10,11), purity 99.5%
Compound 5: water, H2O, InChI=1S/H2O/h1H2, purity 99.9%

System: propan-1-ol + 4-morpholinepropanesulfonic acid + water; phases: Liquid mixture 1, Liquid mixture 2
Fixed: Temperature, K = 298.15
Fixed: Pressure, kPa = 101.3
Property: Mass fraction of 4-morpholinepropanesulfonic acid (Liquid mixture 1); method: Titration method
Mass fraction of water	Mass fraction of 4-morpholinepropanesulfonic acid	uncertainty
0.4685	0.4141	0.0295
0.5169	0.2614	0.0211
0.4803	0.1991	0.0231
0.4282	0.1437	0.0314
0.3649	0.0881	0.0135

System: propan-1-ol + 4-morpholinepropanesulfonic acid + water; phases: Liquid, Crystal
Fixed: Temperature, K = 298.15
Fixed: Pressure, kPa = 101.3
Property: Mass fraction of 4-morpholinepropanesulfonic acid (Liquid); method: Density calibration data
Mass fraction of water	Mass fraction of 4-morpholinepropanesulfonic acid	uncertainty
0.3918	0.6082	0.0183
0.3753	0.583	0.0183
0.1383	0.0177	0.0177

System: propan-1-ol + 4-morpholinepropanesulfonic acid + water; phases: Liquid mixture 2, Liquid mixture 1
Fixed: Temperature, K = 298.15
Fixed: Pressure, kPa = 101.3
Property: Mass fraction of water (Liquid mixture 2); method: Density calibration data
Property: Mass fraction of 4-morpholinepropanesulfonic acid (Liquid mixture 1); method: Density calibration data
Property: Mass fraction of water (Liquid mixture 1); method: Density calibration data
Mass fraction of 4-morpholinepropanesulfonic acid	Mass fraction of water	uncertainty	Mass fraction of 4-morpholinepropanesulfonic acid	uncertainty	Mass fraction of water	uncertainty
0.3062	0.5145	0.0144	0.0661	0.0101	0.3176	
0.3237	0.5103	0.0148	0.0598	0.0107	0.3026	
0.3579	0.4981	0.0153	0.0503	0.0102	0.2733	
0.4267	0.4591	0.0155	0.0373	0.0109	0.2223	
0.3866	0.4801	0.0153	0.0501	0.0104	0.2506	
0.5017	0.4026	0.015	0.0287	0.0102	0.199	
0.5691	0.3567	0.0125	0.0219	0.01	0.1516	

System: propan-2-ol + 4-morpholinepropanesulfonic acid + water; phases: Liquid mixture 1, Liquid mixture 2
Fixed: Temperature, K = 298.15
Fixed: Pressure, kPa = 101.3
Property: Mass fraction of 4-morpholinepropanesulfonic acid (Liquid mixture 1); method: Titration method
Mass fraction of water	Mass fraction of 4-morpholinepropanesulfonic acid	uncertainty
0.4154	0.4066	0.0302
0.428	0.2866	0.0961
0.3905	0.219	0.0361
0.3434	0.1416	0.0168
0.2784	0.0722	0.0148

System: propan-2-ol + 4-morpholinepropanesulfonic acid + water; phases: Liquid, Crystal
Fixed: Temperature, K = 298.15
Fixed: Pressure, kPa = 101.3
Property: Mass fraction of 4-morpholinepropanesulfonic acid (Liquid); method: Density calibration data
Mass fraction of water	Mass fraction of 4-morpholinepropanesulfonic acid	uncertainty
0.3918	0.6082	0.0159
0.373	0.5852	0.0163
0.353	0.5587	0.0166
0.14	0.008	0.008

System: propan-2-ol + 4-morpholinepropanesulfonic acid + water; phases: Liquid mixture 2, Liquid mixture 1
Fixed: Temperature, K = 298.15
Fixed: Pressure, kPa = 101.3
Property: Mass fraction of water (Liquid mixture 2); method: Density calibration data
Property: Mass fraction of 4-morpholinepropanesulfonic acid (Liquid mixture 1); method: Density calibration data
Property: Mass fraction of water (Liquid mixture 1); method: Density calibration data
Mass fraction of 4-morpholinepropanesulfonic acid	Mass fraction of water	uncertainty	Mass fraction of 4-morpholinepropanesulfonic acid	uncertainty	Mass fraction of water	uncertainty
0.3686	0.4254	0.0135	0.093	0.0102	0.3013	
0.3938	0.4192	0.0137	0.0786	0.0124	0.2884	
0.4345	0.4059	0.0142	0.0607	0.0114	0.2579	
0.4485	0.3871	0.0154	0.0558	0.0108	0.2439	
0.4665	0.3786	0.0137	0.0502	0.0109	0.2346	
0.4802	0.3714	0.0144	0.0469	0.0104	0.2234	
0.5276	0.3382	0.0123	0.0345	0.01	0.1793	

System: 2-methylpropan-2-ol + 4-morpholinepropanesulfonic acid + water; phases: Liquid mixture 1, Liquid mixture 2
Fixed: Temperature, K = 298.15
Fixed: Pressure, kPa = 101.3
Property: Mass fraction of 4-morpholinepropanesulfonic acid (Liquid mixture 1); method: Titration method
Mass fraction of water	Mass fraction of 4-morpholinepropanesulfonic acid	uncertainty
0.4397	0.4604	0.0261
0.5588	0.3015	0.0524
0.5677	0.1889	0.0184
0.5242	0.1261	0.0216
0.4564	0.087	0.087
0.377	0.0573	0.0289
0.2902	0.0327	0.0104
0.198	0.0124	0.0102

System: 2-methylpropan-2-ol + 4-morpholinepropanesulfonic acid + water; phases: Liquid, Crystal
Fixed: Temperature, K = 298.15
Fixed: Pressure, kPa = 101.3
Property: Mass fraction of 4-morpholinepropanesulfonic acid (Liquid); method: Density calibration data
Mass fraction of water	Mass fraction of 4-morpholinepropanesulfonic acid	uncertainty
0.3918	0.6082	0.0101
0.3717	0.587	0.0101

System: 2-methylpropan-2-ol + 4-morpholinepropanesulfonic acid + water; phases: Liquid mixture 2, Liquid mixture 1
Fixed: Temperature, K = 298.15
Fixed: Pressure, kPa = 101.3
Property: Mass fraction of 4-morpholinepropanesulfonic acid (Liquid mixture 2); method: Density calibration data
Property: Mass fraction of water (Liquid mixture 1); method: Density calibration data
Property: Mass fraction of 4-morpholinepropanesulfonic acid (Liquid mixture 1); method: Density calibration data
Mass fraction of water	Mass fraction of 4-morpholinepropanesulfonic acid	uncertainty	Mass fraction of water	uncertainty	Mass fraction of 4-morpholinepropanesulfonic acid	uncertainty
0.3827	0.0473	0.0101	0.5651	0.0136	0.2311	
0.3772	0.0439	0.01	0.5589	0.0137	0.2429	
0.2938	0.0276	0.0102	0.5334	0.0145	0.3221	
0.2701	0.0234	0.0101	0.5223	0.0154	0.3531	
0.2229	0.0167	0.0101	0.4694	0.0159	0.4321	
0.2038	0.0146	0.0101	0.4398	0.0161	0.4642	
0.1451	0.0092	0.0092	0.3487	0.0124	0.5731	

System: 4-morpholinepropanesulfonic acid + water; phases: Liquid, Crystal
Property: Mass fraction of 4-morpholinepropanesulfonic acid (Liquid); method: Density calibration data
Temperature, K	Pressure, kPa	Mass fraction of 4-morpholinepropanesulfonic acid	uncertainty
298.15	101.3	0.6082	0.0101
