Measured thermophysical data. Solid-Liquid Phase Equilibria in the Ternary Systems NaCl-ZnCl2-H2O and CaCl2-ZnCl2-H2O at 323 K
Source: J. Chem. Eng. Data, 2019, 10.1021/acs.jced.9b00422
Compound 1: sodium chloride, ClNa, InChI=1S/ClH.Na/h1H;/q;+1/p-1, purity 99.5%
Compound 2: calcium chloride, CaCl2, InChI=1S/Ca.2ClH/h;2*1H/q+2;;/p-2, purity 98%
Compound 3: zinc chloride, Cl2Zn, InChI=1S/2ClH.Zn/h2*1H;/q;;+2/p-2, purity 99%
Compound 4: water, H2O, InChI=1S/H2O/h1H2, purity 99.9%

System: sodium chloride + zinc chloride + water; phases: Liquid, Crystal
Fixed: Temperature, K = 323
Fixed: Pressure, kPa = 101.3
Property: Mass fraction of sodium chloride (Liquid); method: Titration method
Mass fraction of zinc chloride	Mass fraction of sodium chloride	uncertainty
0	0.2722	0.01
0.0682	0.269	0.01
0.1329	0.2665	0.01
0.2334	0.2583	0.01
0.3727	0.252	0.01
0.4017	0.2508	0.01

System: sodium chloride + zinc chloride + water; phases: Liquid, Crystal of intercomponent compound 1
Fixed: Temperature, K = 323
Fixed: Pressure, kPa = 101.3
Property: Mass fraction of sodium chloride (Liquid); method: Titration method
Mass fraction of zinc chloride	Mass fraction of sodium chloride	uncertainty
0.4017	0.2508	0.0108
0.4825	0.1962	0.0106
0.5708	0.154	0.0104
0.6359	0.1238	0.0103
0.6724	0.1111	0.0102
0.7004	0.1038	0.0102
0.7609	0.0855	0.0102

System: sodium chloride + zinc chloride + water; phases: Liquid, Crystal
Fixed: Temperature, K = 323
Fixed: Pressure, kPa = 101.3
Property: Mass fraction of sodium chloride (Liquid); method: Titration method
Mass fraction of zinc chloride	Mass fraction of sodium chloride	uncertainty
0.7609	0.0855	0.0114
0.7882	0.061	0.0117
0.7908	0.0526	0.0118
0.8071	0.0383	0.0141
0.8127	0.0228	0.0139
0.8225	0	

System: sodium chloride + zinc chloride + water; phases: Liquid
Fixed: Temperature, K = 323
Fixed: Pressure, kPa = 101.3
Property: Mass density, kg/m3 (Liquid); method: Pycnometric method
Mass fraction of zinc chloride	Mass fraction of sodium chloride	Mass density, kg/m3	uncertainty
0	0.2722	1175	2.4
0.0682	0.269	1243.3	276.2
0.1329	0.2665	1293.3	32.4
0.2334	0.2583	1357.2	7.6
0.3727	0.252	1567.1	24.5
0.4017	0.2508	1621.3	24.5
0.4825	0.1962	1662.5	14
0.5708	0.154	1774.5	19.1
0.6359	0.1238	1873.8	102
0.6724	0.1111	1969.9	23.9
0.7004	0.1038	2000.9	26.2
0.7609	0.0855	2100.1	12.5
0.7882	0.061	2159.8	11.6
0.7908	0.0526	2172.6	12.5
0.8071	0.0383	2202.8	27.1
0.8127	0.0228	2247.5	15.9
0.8225	0	2274.8	7

System: calcium chloride + zinc chloride + water; phases: Liquid, Crystal of intercomponent compound 1
Fixed: Temperature, K = 323
Fixed: Pressure, kPa = 101.3
Property: Mass fraction of calcium chloride (Liquid); method: Titration method
Mass fraction of zinc chloride	Mass fraction of calcium chloride	uncertainty
0	0.568	0.0061
0.0427	0.5267	0.0079
0.0801	0.5022	0.0072
0.186	0.4367	0.0074
0.2818	0.3608	0.0078
0.3275	0.3212	0.008

System: calcium chloride + zinc chloride + water; phases: Liquid, Crystal of intercomponent compound 2
Fixed: Temperature, K = 323
Fixed: Pressure, kPa = 101.3
Property: Mass fraction of calcium chloride (Liquid); method: Titration method
Mass fraction of zinc chloride	Mass fraction of calcium chloride	uncertainty
0.3275	0.3212	0.0066
0.4452	0.2682	0.0066
0.4841	0.2523	0.007
0.5537	0.2056	0.0069
0.622	0.1752	0.0066

System: calcium chloride + zinc chloride + water; phases: Liquid, Crystal
Fixed: Temperature, K = 323
Fixed: Pressure, kPa = 101.3
Property: Mass fraction of calcium chloride (Liquid); method: Titration method
Mass fraction of zinc chloride	Mass fraction of calcium chloride	uncertainty
0.622	0.1752	0.0074
0.6665	0.1428	0.0072
0.7227	0.1081	0.008
0.7743	0.0484	0.0089
0.8032	0.0214	0.0085
0.8225	0	

System: calcium chloride + zinc chloride + water; phases: Liquid
Fixed: Temperature, K = 323
Fixed: Pressure, kPa = 101.3
Property: Mass density, kg/m3 (Liquid); method: Pycnometric method
Mass fraction of zinc chloride	Mass fraction of calcium chloride	Mass density, kg/m3	uncertainty
0	0.568	1538.2	6.6
0.0427	0.5267	1559.1	11.1
0.0801	0.5022	1589.5	5.5
0.186	0.4367	1696.9	6.1
0.2818	0.3608	1806.6	3.5
0.3275	0.3212	1824.9	3.4
0.4452	0.2682	1872.9	15.3
0.4841	0.2523	1904.2	15.3
0.5537	0.2056	1924.8	19.3
0.622	0.1752	1983.6	5.8
0.6665	0.1428	2030.6	18.7
0.7227	0.1081	2101.8	7.5
0.7743	0.0484	2171.8	14.4
0.8032	0.0214	2239.8	36.6
0.8225	0	2274.8	31.5

System: sodium chloride + water; phases: Liquid, Crystal
Property: Mass fraction of sodium chloride (Liquid); method: Titration method
Temperature, K	Pressure, kPa	Mass fraction of sodium chloride	uncertainty
323	101.3	0.2722	0.01

System: sodium chloride + water; phases: Liquid
Property: Mass density, kg/m3 (Liquid); method: Pycnometric method
Mass fraction of sodium chloride	Temperature, K	Pressure, kPa	Mass density, kg/m3	uncertainty
0.2722	323	101.3	1175	2.4

System: zinc chloride + water; phases: Liquid, Crystal
Property: Mass fraction of zinc chloride (Liquid); method: Titration method
Temperature, K	Pressure, kPa	Mass fraction of zinc chloride	uncertainty
323	101.3	0.8225	

System: zinc chloride + water; phases: Liquid
Property: Mass density, kg/m3 (Liquid); method: Pycnometric method
Mass fraction of zinc chloride	Temperature, K	Pressure, kPa	Mass density, kg/m3	uncertainty
0.8225	323	101.3	2274.8	7

System: calcium chloride + water; phases: Liquid, Crystal of intercomponent compound 1
Property: Mass fraction of calcium chloride (Liquid); method: Titration method
Temperature, K	Pressure, kPa	Mass fraction of calcium chloride	uncertainty
323	101.3	0.568	0.0061

System: calcium chloride + water; phases: Liquid
Property: Mass density, kg/m3 (Liquid); method: Pycnometric method
Mass fraction of calcium chloride	Temperature, K	Pressure, kPa	Mass density, kg/m3	uncertainty
0.568	323	101.3	1538.2	6.6
