Measured thermophysical data. Solubility Measurement and Modeling of 3-Hydroxy-2-nitropyridine in Ten Pure Solvents and Two Binary Mixed Solvents for T = (278.15-318.15) K
Source: J. Chem. Eng. Data, 2019, 10.1021/acs.jced.9b00564
Compound 1: 2-nitropyridin-3-ol, C5H4N2O3, InChI=1S/C5H4N2O3/c8-4-2-1-3-6-5(4)7(9)10/h1-3,8H, purity 98%
Compound 2: hexane, C6H14, InChI=1S/C6H14/c1-3-5-6-4-2/h3-6H2,1-2H3, purity 99%
Compound 3: methanol, CH4O, InChI=1S/CH4O/c1-2/h2H,1H3, purity 99.7%
Compound 4: ethanol, C2H6O, InChI=1S/C2H6O/c1-2-3/h3H,2H2,1H3, purity 99%
Compound 5: propan-1-ol, C3H8O, InChI=1S/C3H8O/c1-2-3-4/h4H,2-3H2,1H3, purity 99.5%
Compound 6: propan-2-ol, C3H8O, InChI=1S/C3H8O/c1-3(2)4/h3-4H,1-2H3, purity 99.5%
Compound 7: ethyl acetate, C4H8O2, InChI=1S/C4H8O2/c1-3-6-4(2)5/h3H2,1-2H3, purity 99.5%
Compound 8: acetone, C3H6O, InChI=1S/C3H6O/c1-3(2)4/h1-2H3, purity 99%
Compound 9: acetonitrile, C2H3N, InChI=1S/C2H3N/c1-2-3/h1H3, purity 99%
Compound 10: tetrahydrofuran, C4H8O, InChI=1S/C4H8O/c1-2-4-5-3-1/h1-4H2, purity 99%
Compound 11: water, H2O, InChI=1S/H2O/h1H2, purity 99.9%

System: 2-nitropyridin-3-ol; phases: Crystal, Liquid, Air at 1 atmosphere
Property: Triple point temperature, K (Crystal); method: DSC
Triple point temperature, K	uncertainty
342.77	1.22

System: 2-nitropyridin-3-ol; phases: Crystal, Liquid, Air at 1 atmosphere
Property: Molar enthalpy of transition or fusion, kJ/mol (Crystal); method: DSC
Molar enthalpy of transition or fusion, kJ/mol	uncertainty
22.04	0.76

System: 2-nitropyridin-3-ol + hexane; phases: Liquid, Crystal
Fixed: Pressure, kPa = 101.3
Property: Mole fraction of 2-nitropyridin-3-ol (Liquid); method: gravimetric
Temperature, K	Mole fraction of 2-nitropyridin-3-ol	uncertainty
278.15	0.00055	0.00011
283.15	0.00077	0.00016
288.15	0.00105	0.00021
293.15	0.00144	0.00029
298.15	0.00192	0.00039
303.15	0.00266	0.00054
308.15	0.00373	0.00075
313.15	0.00522	0.00105
318.15	0.00736	0.00148

System: 2-nitropyridin-3-ol + methanol; phases: Liquid, Crystal
Fixed: Pressure, kPa = 101.3
Property: Mole fraction of 2-nitropyridin-3-ol (Liquid); method: gravimetric
Temperature, K	Mole fraction of 2-nitropyridin-3-ol	uncertainty
278.15	0.03952	0.008
283.15	0.05511	0.01114
288.15	0.08069	0.01629
293.15	0.1108	0.0223
298.15	0.1531	0.0309
303.15	0.206	0.0415
308.15	0.2714	0.0546
313.15	0.3519	0.0707
318.15	0.4456	0.0894

System: 2-nitropyridin-3-ol + ethanol; phases: Liquid, Crystal
Fixed: Pressure, kPa = 101.3
Property: Mole fraction of 2-nitropyridin-3-ol (Liquid); method: gravimetric
Temperature, K	Mole fraction of 2-nitropyridin-3-ol	uncertainty
278.15	0.02357	0.00478
283.15	0.03338	0.00675
288.15	0.04823	0.00973
293.15	0.06527	0.01317
298.15	0.0924	0.01865
303.15	0.1279	0.0258
308.15	0.1729	0.0348
313.15	0.2318	0.0467
318.15	0.3063	0.0616

System: 2-nitropyridin-3-ol + propan-1-ol; phases: Liquid, Crystal
Fixed: Pressure, kPa = 101.3
Property: Mole fraction of 2-nitropyridin-3-ol (Liquid); method: gravimetric
Temperature, K	Mole fraction of 2-nitropyridin-3-ol	uncertainty
278.15	0.02988	0.00602
283.15	0.03905	0.00786
288.15	0.05229	0.01054
293.15	0.07162	0.01443
298.15	0.09473	0.01907
303.15	0.1265	0.0255
308.15	0.1698	0.0342
313.15	0.2243	0.0451
318.15	0.2917	0.0586

System: 2-nitropyridin-3-ol + propan-2-ol; phases: Liquid, Crystal
Fixed: Pressure, kPa = 101.3
Property: Mole fraction of 2-nitropyridin-3-ol (Liquid); method: gravimetric
Temperature, K	Mole fraction of 2-nitropyridin-3-ol	uncertainty
278.15	0.01575	0.0032
283.15	0.02258	0.00456
288.15	0.03179	0.00642
293.15	0.04419	0.00892
298.15	0.06212	0.01254
303.15	0.08631	0.01742
308.15	0.1197	0.0241
313.15	0.165	0.0333
318.15	0.2243	0.0451

System: 2-nitropyridin-3-ol + ethyl acetate; phases: Liquid, Crystal
Fixed: Pressure, kPa = 101.3
Property: Mole fraction of 2-nitropyridin-3-ol (Liquid); method: gravimetric
Temperature, K	Mole fraction of 2-nitropyridin-3-ol	uncertainty
278.15	0.1078	0.0216
283.15	0.1279	0.0256
288.15	0.1513	0.0303
293.15	0.1806	0.0362
298.15	0.2151	0.0431
303.15	0.2542	0.051
308.15	0.3008	0.0603
313.15	0.3568	0.0715
318.15	0.4234	0.0849

System: 2-nitropyridin-3-ol + acetonitrile; phases: Liquid, Crystal
Fixed: Pressure, kPa = 101.3
Property: Mole fraction of 2-nitropyridin-3-ol (Liquid); method: gravimetric
Temperature, K	Mole fraction of 2-nitropyridin-3-ol	uncertainty
278.15	0.1134	0.0228
283.15	0.1406	0.0282
288.15	0.1709	0.0343
293.15	0.2074	0.0416
298.15	0.2469	0.0495
303.15	0.2989	0.06
308.15	0.3587	0.0719
313.15	0.4281	0.0858
318.15	0.5018	0.0998

System: 2-nitropyridin-3-ol + acetone; phases: Liquid, Crystal
Fixed: Pressure, kPa = 101.3
Property: Mole fraction of 2-nitropyridin-3-ol (Liquid); method: gravimetric
Temperature, K	Mole fraction of 2-nitropyridin-3-ol	uncertainty
278.15	0.1574	0.0316
283.15	0.1843	0.0369
288.15	0.2187	0.0438
293.15	0.2594	0.052
298.15	0.3038	0.0609
303.15	0.3536	0.0709
308.15	0.4103	0.0822
313.15	0.4738	0.0949
318.15	0.5438	0.0914

System: 2-nitropyridin-3-ol + tetrahydrofuran; phases: Liquid, Crystal
Fixed: Pressure, kPa = 101.3
Property: Mole fraction of 2-nitropyridin-3-ol (Liquid); method: gravimetric
Temperature, K	Mole fraction of 2-nitropyridin-3-ol	uncertainty
278.15	0.2132	0.0427
283.15	0.2433	0.0487
288.15	0.2736	0.0548
293.15	0.312	0.0625
298.15	0.3504	0.0702
303.15	0.3959	0.0793
308.15	0.4457	0.0892
313.15	0.5021	0.0997
318.15	0.5698	0.0862

System: 2-nitropyridin-3-ol + water; phases: Liquid, Crystal
Fixed: Pressure, kPa = 101.3
Property: Mole fraction of 2-nitropyridin-3-ol (Liquid); method: gravimetric
Temperature, K	Mole fraction of 2-nitropyridin-3-ol	uncertainty
278.15	0.00083	0.00017
283.15	0.00107	0.00022
288.15	0.00149	0.0003
293.15	0.0021	0.00042
298.15	0.00283	0.00057
303.15	0.00393	0.00079
308.15	0.00544	0.0011
313.15	0.00753	0.00152
318.15	0.0109	0.0022

System: 2-nitropyridin-3-ol + tetrahydrofuran + hexane; phases: Liquid, Crystal
Fixed: Pressure, kPa = 101.3
Property: Mole fraction of 2-nitropyridin-3-ol (Liquid); method: gravimetric
Temperature, K	Solvent: Mass fraction of tetrahydrofuran	Mole fraction of 2-nitropyridin-3-ol	uncertainty
278.15	1	0.2132	0.0427
283.15	1	0.2433	0.0487
288.15	1	0.2736	0.0548
293.15	1	0.312	0.0625
298.15	1	0.3504	0.0702
303.15	1	0.3959	0.0793
308.15	1	0.4457	0.0892
313.15	1	0.5021	0.0997
318.15	1	0.5698	0.0862
278.15	0.9	0.1721	0.0345
283.15	0.9	0.1974	0.0395
288.15	0.9	0.2238	0.0448
293.15	0.9	0.2581	0.0517
298.15	0.9	0.2937	0.0588
303.15	0.9	0.3387	0.0678
308.15	0.9	0.3876	0.0776
313.15	0.9	0.4459	0.0893
318.15	0.9	0.5168	0.0968
278.15	0.8	0.1309	0.0262
283.15	0.8	0.1515	0.0304
288.15	0.8	0.174	0.0349
293.15	0.8	0.2044	0.041
298.15	0.8	0.2369	0.0475
303.15	0.8	0.2814	0.0564
308.15	0.8	0.3296	0.0661
313.15	0.8	0.3896	0.0781
318.15	0.8	0.4539	0.0909
278.15	0.7	0.09483	0.01901
283.15	0.7	0.111	0.0222
288.15	0.7	0.1296	0.026
293.15	0.7	0.154	0.0309
298.15	0.7	0.1817	0.0364
303.15	0.7	0.2187	0.0439
308.15	0.7	0.2626	0.0527
313.15	0.7	0.318	0.0638
318.15	0.7	0.3773	0.0756
278.15	0.6	0.05875	0.01176
283.15	0.6	0.07052	0.01414
288.15	0.6	0.08524	0.01714
293.15	0.6	0.1136	0.0228
298.15	0.6	0.1265	0.0254
303.15	0.6	0.156	0.0313
308.15	0.6	0.1957	0.0393
313.15	0.6	0.2364	0.0474
318.15	0.6	0.2908	0.0583
278.15	0.5	0.0391	0.00785
283.15	0.5	0.0475	0.00953
288.15	0.5	0.05756	0.01155
293.15	0.5	0.07032	0.01411
298.15	0.5	0.08618	0.0173
303.15	0.5	0.1061	0.0213
308.15	0.5	0.1324	0.0266
313.15	0.5	0.1655	0.0332
318.15	0.5	0.2072	0.0416
278.15	0.4	0.01946	0.00389
283.15	0.4	0.02448	0.00491
288.15	0.4	0.02988	0.006
293.15	0.4	0.03701	0.00743
298.15	0.4	0.04584	0.0092
303.15	0.4	0.05623	0.0113
308.15	0.4	0.07217	0.0145
313.15	0.4	0.09165	0.01843
318.15	0.4	0.1206	0.0243
278.15	0.3	0.01309	0.00265
283.15	0.3	0.01686	0.00339
288.15	0.3	0.02113	0.00424
293.15	0.3	0.02635	0.00529
298.15	0.3	0.03261	0.00654
303.15	0.3	0.03968	0.00796
308.15	0.3	0.04822	0.00967
313.15	0.3	0.05788	0.01161
318.15	0.3	0.06925	0.01391
278.15	0.2	0.00367	0.00074
283.15	0.2	0.00492	0.00099
288.15	0.2	0.00624	0.00125
293.15	0.2	0.00816	0.00164
298.15	0.2	0.01093	0.0022
303.15	0.2	0.01314	0.00264
308.15	0.2	0.01828	0.00368
313.15	0.2	0.02411	0.00486
318.15	0.2	0.03291	0.00669
278.15	0.1	0.00143	0.00029
283.15	0.1	0.00193	0.00039
288.15	0.1	0.00257	0.00052
293.15	0.1	0.00346	0.0007
298.15	0.1	0.00446	0.0009
303.15	0.1	0.00603	0.00122
308.15	0.1	0.0082	0.00165
313.15	0.1	0.01116	0.00225
318.15	0.1	0.01533	0.00312
278.15	0	0.00055	0.00011
283.15	0	0.00077	0.00016
288.15	0	0.00105	0.00021
293.15	0	0.00144	0.00029
298.15	0	0.00192	0.00039
303.15	0	0.00266	0.00054
308.15	0	0.00373	0.00075
313.15	0	0.00522	0.00105
318.15	0	0.00736	0.00148

System: 2-nitropyridin-3-ol + tetrahydrofuran + propan-2-ol; phases: Liquid, Crystal
Fixed: Pressure, kPa = 101.3
Property: Mole fraction of 2-nitropyridin-3-ol (Liquid); method: gravimetric
Temperature, K	Solvent: Mass fraction of tetrahydrofuran	Mole fraction of 2-nitropyridin-3-ol	uncertainty
278.15	1	0.2132	0.0427
283.15	1	0.2433	0.0487
288.15	1	0.2736	0.0548
293.15	1	0.312	0.0625
298.15	1	0.3504	0.0702
303.15	1	0.3959	0.0793
308.15	1	0.4457	0.0892
313.15	1	0.5021	0.0997
318.15	1	0.5698	0.0862
278.15	0.9	0.1673	0.0335
283.15	0.9	0.1953	0.0391
288.15	0.9	0.2245	0.045
293.15	0.9	0.2611	0.0523
298.15	0.9	0.2998	0.0601
303.15	0.9	0.3457	0.0693
308.15	0.9	0.3973	0.0796
313.15	0.9	0.4566	0.0915
318.15	0.9	0.5374	0.0928
278.15	0.8	0.1374	0.0276
283.15	0.8	0.1639	0.0329
288.15	0.8	0.1925	0.0386
293.15	0.8	0.2281	0.0457
298.15	0.8	0.2676	0.0536
303.15	0.8	0.3147	0.0631
308.15	0.8	0.3689	0.0739
313.15	0.8	0.4322	0.0866
318.15	0.8	0.508	0.0986
278.15	0.7	0.1134	0.0228
283.15	0.7	0.1382	0.0277
288.15	0.7	0.1658	0.0333
293.15	0.7	0.2001	0.0401
298.15	0.7	0.2399	0.0481
303.15	0.7	0.2877	0.0577
308.15	0.7	0.3441	0.069
313.15	0.7	0.4109	0.0824
318.15	0.7	0.4812	0.0964
278.15	0.6	0.09115	0.01831
283.15	0.6	0.1136	0.0228
288.15	0.6	0.1393	0.028
293.15	0.6	0.1713	0.0344
298.15	0.6	0.2099	0.0421
303.15	0.6	0.2568	0.0515
308.15	0.6	0.3134	0.0629
313.15	0.6	0.3817	0.0766
318.15	0.6	0.4544	0.0911
278.15	0.5	0.07148	0.01438
283.15	0.5	0.09109	0.0183
288.15	0.5	0.1142	0.0229
293.15	0.5	0.1433	0.0288
298.15	0.5	0.1795	0.036
303.15	0.5	0.2241	0.045
308.15	0.5	0.2792	0.0561
313.15	0.5	0.3469	0.0696
318.15	0.5	0.4195	0.0841
278.15	0.4	0.0545	0.011
283.15	0.4	0.071	0.0143
288.15	0.4	0.0911	0.0183
293.15	0.4	0.1166	0.0234
298.15	0.4	0.1494	0.03
303.15	0.4	0.1905	0.0383
308.15	0.4	0.2424	0.0487
313.15	0.4	0.3073	0.0617
318.15	0.4	0.3825	0.0767
278.15	0.3	0.04045	0.00815
283.15	0.3	0.05399	0.01087
288.15	0.3	0.07087	0.01426
293.15	0.3	0.09258	0.01863
298.15	0.3	0.1214	0.0244
303.15	0.3	0.1581	0.0318
308.15	0.3	0.2055	0.0413
313.15	0.3	0.266	0.0535
318.15	0.3	0.3417	0.0686
278.15	0.2	0.03046	0.00615
283.15	0.2	0.04161	0.00838
288.15	0.2	0.05588	0.01125
293.15	0.2	0.07449	0.015
298.15	0.2	0.0999	0.02012
303.15	0.2	0.1329	0.0268
308.15	0.2	0.1765	0.0355
313.15	0.2	0.2331	0.0469
318.15	0.2	0.3051	0.0613
278.15	0.1	0.02212	0.00447
283.15	0.1	0.03095	0.00624
288.15	0.1	0.04255	0.00858
293.15	0.1	0.05791	0.01168
298.15	0.1	0.0795	0.01603
303.15	0.1	0.108	0.0218
308.15	0.1	0.1466	0.0295
313.15	0.1	0.1979	0.0399
318.15	0.1	0.2639	0.0531
278.15	0	0.01575	0.0032
283.15	0	0.02258	0.00456
288.15	0	0.03179	0.00642
293.15	0	0.04419	0.00892
298.15	0	0.06212	0.01254
303.15	0	0.08631	0.01742
308.15	0	0.1197	0.0241
313.15	0	0.165	0.0333
318.15	0	0.2243	0.0451
