Measured thermophysical data. Solubilities of Phosphoramidic Acid, N-(phenylmethyl)-, Diphenyl Ester in Selected Solvents
Source: J. Chem. Eng. Data, 2015, 10.1021/acs.jced.5b00007
Compound 1: methanol, CH4O, InChI=1S/CH4O/c1-2/h2H,1H3, purity 98%
Compound 2: dichloromethane, CH2Cl2, InChI=1S/CH2Cl2/c2-1-3/h1H2, purity 98%
Compound 3: acetonitrile, C2H3N, InChI=1S/C2H3N/c1-2-3/h1H3, purity 98%
Compound 4: ethyl acetate, C4H8O2, InChI=1S/C4H8O2/c1-3-6-4(2)5/h3H2,1-2H3, purity 98%
Compound 5: tetrahydrofuran, C4H8O, InChI=1S/C4H8O/c1-2-4-5-3-1/h1-4H2, purity 98%
Compound 6: trichloromethane, CHCl3, InChI=1S/CHCl3/c2-1(3)4/h1H, purity 98%
Compound 7: methyl ethanoate, C3H6O2, InChI=1S/C3H6O2/c1-3(4)5-2/h1-2H3, purity 98%
Compound 8: toluene, C7H8, InChI=1S/C7H8/c1-7-5-3-2-4-6-7/h2-6H,1H3, purity 98%
Compound 9: acetone, C3H6O, InChI=1S/C3H6O/c1-3(2)4/h1-2H3, purity 98%
Compound 10: diphenyl benzylphosphoramidate, C19H18NO3P, InChI=1S/C19H18NO3P/c21-24(22-18-12-6-2-7-13-18,23-19-14-8-3-9-15-19)20-16-17-10-4-1-5-11-17/h1-15H,16H2,(H,20,21), purity 99%

System: methanol + diphenyl benzylphosphoramidate; phases: Liquid, Crystal
Fixed: Pressure, kPa = 100
Property: Mole fraction of diphenyl benzylphosphoramidate (Liquid); method: Gravimetric
Temperature, K	Mole fraction of diphenyl benzylphosphoramidate	uncertainty
293.15	0.01112	0.004
298.15	0.01576	0.004
303.15	0.02306	0.004
308.15	0.03224	0.004
313.15	0.04488	0.004
318.15	0.06292	0.004
323.15	0.08751	0.00401
328.15	0.12532	0.00401
333.15	0.16642	0.00402

System: acetone + diphenyl benzylphosphoramidate; phases: Liquid, Crystal
Fixed: Pressure, kPa = 100
Property: Mole fraction of diphenyl benzylphosphoramidate (Liquid); method: Gravimetric
Temperature, K	Mole fraction of diphenyl benzylphosphoramidate	uncertainty
293.15	0.04467	0.004
298.15	0.05869	0.004
303.15	0.07412	0.004
308.15	0.09857	0.00401
313.15	0.12221	0.00401
318.15	0.15434	0.00402
323.15	0.1983	0.00403

System: tetrahydrofuran + diphenyl benzylphosphoramidate; phases: Liquid, Crystal
Fixed: Pressure, kPa = 100
Property: Mole fraction of diphenyl benzylphosphoramidate (Liquid); method: Gravimetric
Temperature, K	Mole fraction of diphenyl benzylphosphoramidate	uncertainty
293.15	0.0978	0.00401
298.15	0.11528	0.00401
303.15	0.13202	0.00401
308.15	0.15703	0.00402
313.15	0.18269	0.00402
318.15	0.2083	0.00403
323.15	0.23954	0.00403

System: ethyl acetate + diphenyl benzylphosphoramidate; phases: Liquid, Crystal
Fixed: Pressure, kPa = 100
Property: Mole fraction of diphenyl benzylphosphoramidate (Liquid); method: Gravimetric
Temperature, K	Mole fraction of diphenyl benzylphosphoramidate	uncertainty
293.15	0.01989	0.004
298.15	0.02786	0.004
303.15	0.03684	0.004
308.15	0.04842	0.004
313.15	0.06266	0.004
318.15	0.08235	0.004
323.15	0.10433	0.00401
328.15	0.1369	0.00401
333.15	0.18152	0.00402

System: trichloromethane + diphenyl benzylphosphoramidate; phases: Liquid, Crystal
Fixed: Pressure, kPa = 100
Property: Mole fraction of diphenyl benzylphosphoramidate (Liquid); method: Gravimetric
Temperature, K	Mole fraction of diphenyl benzylphosphoramidate	uncertainty
288.15	0.09503	0.00401
293.15	0.10859	0.00401
298.15	0.1263	0.00401
303.15	0.14271	0.00401
308.15	0.16428	0.00402
313.15	0.19052	0.00402
318.15	0.2181	0.00403
323.15	0.24757	0.00404
328.15	0.27526	0.00404

System: dichloromethane + diphenyl benzylphosphoramidate; phases: Liquid, Crystal
Fixed: Pressure, kPa = 100
Property: Mole fraction of diphenyl benzylphosphoramidate (Liquid); method: Gravimetric
Temperature, K	Mole fraction of diphenyl benzylphosphoramidate	uncertainty
288.15	0.05501	0.004
293.15	0.07239	0.004
298.15	0.09652	0.00401
303.15	0.12551	0.00401
308.15	0.15709	0.00402

System: methyl ethanoate + diphenyl benzylphosphoramidate; phases: Liquid, Crystal
Fixed: Pressure, kPa = 100
Property: Mole fraction of diphenyl benzylphosphoramidate (Liquid); method: Gravimetric
Temperature, K	Mole fraction of diphenyl benzylphosphoramidate	uncertainty
288.15	0.01682	0.004
293.15	0.02338	0.004
298.15	0.03088	0.004
303.15	0.0407	0.004
308.15	0.05502	0.004
313.15	0.0699	0.004
318.15	0.09402	0.00401
323.15	0.12217	0.00401

System: toluene + diphenyl benzylphosphoramidate; phases: Liquid, Crystal
Fixed: Pressure, kPa = 100
Property: Mole fraction of diphenyl benzylphosphoramidate (Liquid); method: Gravimetric
Temperature, K	Mole fraction of diphenyl benzylphosphoramidate	uncertainty
293.15	0.01086	0.004
298.15	0.01604	0.004
303.15	0.02277	0.004
308.15	0.03122	0.004
313.15	0.04278	0.004
318.15	0.05741	0.004
323.15	0.08142	0.00401
328.15	0.10822	0.00401
333.15	0.14637	0.00402
338.15	0.18715	0.00402
343.15	0.24296	0.00404

System: acetonitrile + diphenyl benzylphosphoramidate; phases: Liquid, Crystal
Fixed: Pressure, kPa = 100
Property: Mole fraction of diphenyl benzylphosphoramidate (Liquid); method: Gravimetric
Temperature, K	Mole fraction of diphenyl benzylphosphoramidate	uncertainty
293.15	0.01477	0.004
298.15	0.01964	0.004
303.15	0.0264	0.004
308.15	0.03444	0.004
313.15	0.04308	0.004
318.15	0.05909	0.004
323.15	0.07422	0.004
328.15	0.09477	0.00401
333.15	0.12174	0.00401
338.15	0.15484	0.00402
