Measured thermophysical data. Apparent Molar Volumes and Isentropic Compressibilities of Tetraalkylammonium Bromides in Aqueous Propane-1,2-diol. An Attempt to Design Hydraulic Liquids
Source: J. Chem. Eng. Data, 2016, 10.1021/acs.jced.5b00964
Compound 1: 1,2-propanediol, C3H8O2, InChI=1S/C3H8O2/c1-3(5)2-4/h3-5H,2H2,1H3, purity 99.5%
Compound 2: tetramethylammonium bromide, C4H12BrN, InChI=1S/C4H12N.BrH/c1-5(2,3)4;/h1-4H3;1H/q+1;/p-1, purity 98%
Compound 3: tetraethylammonium bromide, C8H20BrN, InChI=1S/C8H20N.BrH/c1-5-9(6-2,7-3)8-4;/h5-8H2,1-4H3;1H/q+1;/p-1, purity 99%
Compound 4: tetrapropylammonium bromide, C12H28BrN, InChI=1S/C12H28N.BrH/c1-5-9-13(10-6-2,11-7-3)12-8-4;/h5-12H2,1-4H3;1H/q+1;/p-1, purity 98%
Compound 5: tetrabutylammonium bromide, C16H36BrN, InChI=1S/C16H36N.BrH/c1-5-9-13-17(14-10-6-2,15-11-7-3)16-12-8-4;/h5-16H2,1-4H3;1H/q+1;/p-1, purity 99%
Compound 6: water, H2O, InChI=1S/H2O/h1H2, purity 99.8%

System: 1,2-propanediol; phases: Liquid
Fixed: Pressure, kPa = 100
Property: Mass density, kg/m3 (Liquid); method: Vibrating tube method
Temperature, K	Mass density, kg/m3	uncertainty
288.15	1039.77	0.14
293.15	1036.15	0.13
298.15	1032.49	0.13
303.15	1028.78	0.13
308.15	1025.03	0.13
313.15	1021.25	0.13
318.15	1017.43	0.13
288.15	1039.78	0.14
293.15	1036.16	0.13
313.15	1021.24	0.13
318.15	1017.42	0.13
298.15	1032.48	0.13
303.15	1028.77	0.13

System: 1,2-propanediol; phases: Liquid
Property: Speed of sound, m/s (Liquid); method: Pulse-echo method
Pressure, kPa	Temperature, K	Speed of sound, m/s	uncertainty
100	298.15	1508.8	0.9

System: water; phases: Liquid
Fixed: Pressure, kPa = 100
Property: Mass density, kg/m3 (Liquid); method: Vibrating tube method
Temperature, K	Mass density, kg/m3	uncertainty
288.15	999.09	0.11
293.15	998.2	0.11
298.15	997.04	0.11
303.15	995.64	0.11
308.15	994.02	0.11
313.15	992.21	0.11
318.15	990.21	0.11
288.15	999.1	0.106
293.15	998.21	0.106
303.15	995.65	0.107
308.15	994.03	0.107

System: water; phases: Liquid
Property: Speed of sound, m/s (Liquid); method: Pulse-echo method
Pressure, kPa	Temperature, K	Speed of sound, m/s	uncertainty
100	298.15	1496.69	0.77

System: 1,2-propanediol + tetramethylammonium bromide + water; phases: Liquid
Fixed: Pressure, kPa = 100
Property: Mass density, kg/m3 (Liquid); method: Vibrating tube method
Temperature, K	Molality, mol/kg of tetramethylammonium bromide	Solvent: Mass fraction of 1,2-propanediol	Mass density, kg/m3	uncertainty
288.15	0.01656	0	999.77	0.16
288.15	0.02243	0	1000.01	0.16
288.15	0.02892	0	1000.28	0.15
288.15	0.03698	0	1000.6	0.15
288.15	0.04656	0	1000.99	0.16
288.15	0.05827	0	1001.47	0.16
288.15	0.0748	0	1002.14	0.16
288.15	0.09027	0	1002.76	0.15
288.15	0.1058	0	1003.38	0.16
288.15	0.1246	0	1004.14	0.16
288.15	0.1407	0	1004.79	0.16
288.15	0	0	999.09	0.16
293.15	0.01656	0	998.88	0.15
293.15	0.02243	0	999.11	0.15
293.15	0.02892	0	999.37	0.16
293.15	0.03698	0	999.7	0.16
293.15	0.04656	0	1000.08	0.15
293.15	0.05827	0	1000.55	0.16
293.15	0.0748	0	1001.21	0.15
293.15	0.09027	0	1001.83	0.15
293.15	0.1058	0	1002.45	0.15
293.15	0.1246	0	1003.19	0.15
293.15	0.1407	0	1003.83	0.15
293.15	0	0	998.2	0.16
298.15	0.01656	0	997.71	0.15
298.15	0.02243	0	997.94	0.15
298.15	0.02892	0	998.2	0.16
298.15	0.03698	0	998.52	0.15
298.15	0.04656	0	998.9	0.15
298.15	0.05827	0	999.36	0.15
298.15	0.0748	0	1000.01	0.15
298.15	0.09027	0	1000.62	0.15
298.15	0.1058	0	1001.23	0.15
298.15	0.1246	0	1001.97	0.15
298.15	0.1407	0	1002.6	0.15
298.15	0	0	997.04	0.16
303.15	0.01656	0	996.3	0.15
303.15	0.02243	0	996.53	0.15
303.15	0.02892	0	996.79	0.16
303.15	0.03698	0	997.11	0.15
303.15	0.04656	0	997.48	0.15
303.15	0.05827	0	997.94	0.15
303.15	0.0748	0	998.59	0.15
303.15	0.09027	0	999.19	0.15
303.15	0.1058	0	999.8	0.15
303.15	0.1246	0	1000.53	0.15
303.15	0.1407	0	1001.16	0.15
303.15	0	0	995.64	0.16
308.15	0.01656	0	994.68	0.15
308.15	0.02243	0	994.91	0.15
308.15	0.02892	0	995.16	0.15
308.15	0.03698	0	995.48	0.15
308.15	0.04656	0	995.85	0.15
308.15	0.05827	0	996.31	0.15
308.15	0.0748	0	996.95	0.15
308.15	0.09027	0	997.55	0.15
308.15	0.1058	0	998.15	0.15
308.15	0.1246	0	998.88	0.15
308.15	0.1407	0	999.51	0.15
308.15	0	0	994.02	0.16
313.15	0.01656	0	992.86	0.15
313.15	0.02243	0	993.09	0.15
313.15	0.02892	0	993.34	0.16
313.15	0.03698	0	993.66	0.15
313.15	0.04656	0	994.03	0.15
313.15	0.05827	0	994.48	0.15
313.15	0.0748	0	995.12	0.15
313.15	0.09027	0	995.72	0.15
313.15	0.1058	0	996.31	0.15
313.15	0.1246	0	997.04	0.15
313.15	0.1407	0	997.65	0.15
313.15	0	0	992.21	0.16
318.15	0.01656	0	990.86	0.15
318.15	0.02243	0	991.08	0.15
318.15	0.02892	0	991.33	0.15
318.15	0.03698	0	991.65	0.15
318.15	0.04656	0	992.01	0.15
318.15	0.05827	0	992.46	0.15
318.15	0.0748	0	993.1	0.15
318.15	0.09027	0	993.69	0.15
318.15	0.1058	0	994.29	0.15
318.15	0.1246	0	995.01	0.15
318.15	0.1407	0	995.62	0.15
318.15	0	0	990.21	0.15
288.15	0.01633	0.25	1021.65	0.15
288.15	0.02216	0.25	1021.89	0.18
288.15	0.02836	0.25	1022.14	0.18
288.15	0.03633	0.25	1022.46	0.18
288.15	0.04544	0.25	1022.83	0.18
288.15	0.0576	0.25	1023.31	0.22
288.15	0.07391	0.25	1023.96	0.15
288.15	0.08984	0.25	1024.59	0.16
288.15	0.1044	0.25	1025.16	0.16
288.15	0.1253	0.25	1025.96	0.16
288.15	0.1409	0.25	1026.56	0.16
288.15	0	0.25	1020.98	0.21
293.15	0.01633	0.25	1019.75	0.15
293.15	0.02216	0.25	1019.98	0.19
293.15	0.02836	0.25	1020.23	0.19
293.15	0.03633	0.25	1020.55	0.18
293.15	0.04544	0.25	1020.92	0.18
293.15	0.0576	0.25	1021.4	0.21
293.15	0.07391	0.25	1022.04	0.15
293.15	0.08984	0.25	1022.66	0.15
293.15	0.1044	0.25	1023.23	0.15
293.15	0.1253	0.25	1024.01	0.16
293.15	0.1409	0.25	1024.61	0.16
293.15	0	0.25	1019.08	0.19
298.15	0.01633	0.25	1017.67	0.15
298.15	0.02216	0.25	1017.91	0.19
298.15	0.02836	0.25	1018.15	0.19
298.15	0.03633	0.25	1018.47	0.18
298.15	0.04544	0.25	1018.83	0.18
298.15	0.0576	0.25	1019.31	0.21
298.15	0.07391	0.25	1019.95	0.15
298.15	0.08984	0.25	1020.56	0.15
298.15	0.1044	0.25	1021.12	0.15
298.15	0.1253	0.25	1021.91	0.16
298.15	0.1409	0.25	1022.5	0.16
298.15	0	0.25	1017.01	0.2
303.15	0.01633	0.25	1015.44	0.15
303.15	0.02216	0.25	1015.67	0.19
303.15	0.02836	0.25	1015.91	0.19
303.15	0.03633	0.25	1016.23	0.18
303.15	0.04544	0.25	1016.58	0.18
303.15	0.0576	0.25	1017.06	0.21
303.15	0.07391	0.25	1017.69	0.15
303.15	0.08984	0.25	1018.3	0.15
303.15	0.1044	0.25	1018.86	0.15
303.15	0.1253	0.25	1019.63	0.16
303.15	0.1409	0.25	1020.22	0.16
303.15	0	0.25	1014.78	0.2
308.15	0.01633	0.25	1013.03	0.15
308.15	0.02216	0.25	1013.26	0.2
308.15	0.02836	0.25	1013.51	0.19
308.15	0.03633	0.25	1013.82	0.18
308.15	0.04544	0.25	1014.18	0.18
308.15	0.0576	0.25	1014.65	0.21
308.15	0.07391	0.25	1015.28	0.15
308.15	0.08984	0.25	1015.89	0.15
308.15	0.1044	0.25	1016.44	0.15
308.15	0.1253	0.25	1017.22	0.15
308.15	0.1409	0.25	1017.8	0.15
308.15	0	0.25	1012.38	0.2
313.15	0.01633	0.25	1010.49	0.15
313.15	0.02216	0.25	1010.72	0.2
313.15	0.02836	0.25	1010.96	0.19
313.15	0.03633	0.25	1011.27	0.19
313.15	0.04544	0.25	1011.63	0.18
313.15	0.0576	0.25	1012.1	0.21
313.15	0.07391	0.25	1012.72	0.15
313.15	0.08984	0.25	1013.32	0.15
313.15	0.1044	0.25	1013.87	0.15
313.15	0.1253	0.25	1014.65	0.15
313.15	0.1409	0.25	1015.23	0.15
313.15	0	0.25	1009.84	0.2
318.15	0.01633	0.25	1007.8	0.14
318.15	0.02216	0.25	1008.02	0.19
318.15	0.02836	0.25	1008.27	0.2
318.15	0.03633	0.25	1008.58	0.18
318.15	0.04544	0.25	1008.93	0.18
318.15	0.0576	0.25	1009.4	0.21
318.15	0.07391	0.25	1010.02	0.15
318.15	0.08984	0.25	1010.62	0.15
318.15	0.1044	0.25	1011.17	0.15
318.15	0.1253	0.25	1011.95	0.15
318.15	0.1409	0.25	1012.53	0.16
318.15	0	0.25	1007.15	0.24
288.15	0.0144	0.5	1041.74	0.27
288.15	0.01958	0.5	1041.94	0.29
288.15	0.02529	0.5	1042.17	0.21
288.15	0.03248	0.5	1042.45	0.22
288.15	0.04025	0.5	1042.75	0.35
288.15	0.05065	0.5	1043.15	0.29
288.15	0.065	0.5	1043.7	0.17
288.15	0.07985	0.5	1044.26	0.22
288.15	0.09314	0.5	1044.76	0.21
288.15	0.1099	0.5	1045.4	0.2
288.15	0.1251	0.5	1045.98	0.55
288.15	0	0.5	1041.16	0.73
293.15	0.0144	0.5	1038.6	0.22
293.15	0.01958	0.5	1038.8	0.34
293.15	0.02529	0.5	1039.03	0.26
293.15	0.03248	0.5	1039.31	0.24
293.15	0.04025	0.5	1039.61	0.34
293.15	0.05065	0.5	1040.01	0.28
293.15	0.065	0.5	1040.56	0.16
293.15	0.07985	0.5	1041.12	0.23
293.15	0.09314	0.5	1041.62	0.21
293.15	0.1099	0.5	1042.25	0.21
293.15	0.1251	0.5	1042.83	0.33
293.15	0	0.5	1038.02	0.47
298.15	0.0144	0.5	1035.37	0.21
298.15	0.01958	0.5	1035.57	0.32
298.15	0.02529	0.5	1035.8	0.25
298.15	0.03248	0.5	1036.08	0.23
298.15	0.04025	0.5	1036.38	0.33
298.15	0.05065	0.5	1036.78	0.27
298.15	0.065	0.5	1037.33	0.16
298.15	0.07985	0.5	1037.89	0.23
298.15	0.09314	0.5	1038.39	0.21
298.15	0.1099	0.5	1039.04	0.2
298.15	0.1251	0.5	1039.6	0.32
298.15	0	0.5	1034.79	0.45
303.15	0.0144	0.5	1032.07	0.2
303.15	0.01958	0.5	1032.27	0.3
303.15	0.02529	0.5	1032.5	0.24
303.15	0.03248	0.5	1032.78	0.22
303.15	0.04025	0.5	1033.08	0.32
303.15	0.05065	0.5	1033.48	0.27
303.15	0.065	0.5	1034.03	0.16
303.15	0.07985	0.5	1034.59	0.22
303.15	0.09314	0.5	1035.09	0.2
303.15	0.1099	0.5	1035.72	0.2
303.15	0.1251	0.5	1036.3	0.3
303.15	0	0.5	1031.49	0.43
308.15	0.0144	0.5	1028.69	0.19
308.15	0.01958	0.5	1028.89	0.29
308.15	0.02529	0.5	1029.12	0.23
308.15	0.03248	0.5	1029.4	0.21
308.15	0.04025	0.5	1029.7	0.31
308.15	0.05065	0.5	1030.1	0.26
308.15	0.065	0.5	1030.65	0.16
308.15	0.07985	0.5	1031.21	0.22
308.15	0.09314	0.5	1031.71	0.2
308.15	0.1099	0.5	1032.34	0.2
308.15	0.1251	0.5	1032.92	0.28
308.15	0	0.5	1028.11	0.41
313.15	0.0144	0.5	1025.24	0.18
313.15	0.01958	0.5	1025.44	0.27
313.15	0.02529	0.5	1025.67	0.22
313.15	0.03248	0.5	1025.95	0.2
313.15	0.04025	0.5	1026.25	0.3
313.15	0.05065	0.5	1026.65	0.25
313.15	0.065	0.5	1027.2	0.16
313.15	0.07985	0.5	1027.76	0.21
313.15	0.09314	0.5	1028.26	0.19
313.15	0.1099	0.5	1028.89	0.19
313.15	0.1251	0.5	1029.47	0.27
313.15	0	0.5	1024.66	0.4
318.15	0.0144	0.5	1021.71	0.2
318.15	0.01958	0.5	1021.91	0.21
318.15	0.02529	0.5	1022.14	0.17
318.15	0.03248	0.5	1022.42	0.17
318.15	0.04025	0.5	1022.72	0.29
318.15	0.05065	0.5	1023.12	0.25
318.15	0.065	0.5	1023.67	0.16
318.15	0.07985	0.5	1024.24	0.2
318.15	0.09314	0.5	1024.74	0.19
318.15	0.1099	0.5	1025.37	0.18
318.15	0.1251	0.5	1025.95	0.39
318.15	0	0.5	1021.13	0.56
288.15	0.01485	0.75	1048.28	0.32
288.15	0.01981	0.75	1048.48	0.36
288.15	0.02565	0.75	1048.71	0.38
288.15	0.03235	0.75	1048.98	0.3
288.15	0.04084	0.75	1049.31	0.35
288.15	0.05164	0.75	1049.74	0.3
288.15	0.06663	0.75	1050.33	0.15
288.15	0.08051	0.75	1050.87	0.16
288.15	0.09417	0.75	1051.39	0.21
288.15	0.1108	0.75	1052.03	0.17
288.15	0.1261	0.75	1052.61	0.17
288.15	0	0.75	1047.67	0.74
293.15	0.01485	0.75	1044.65	0.27
293.15	0.01981	0.75	1044.85	0.36
293.15	0.02565	0.75	1045.08	0.39
293.15	0.03235	0.75	1045.35	0.29
293.15	0.04084	0.75	1045.69	0.35
293.15	0.05164	0.75	1046.12	0.29
293.15	0.06663	0.75	1046.7	0.15
293.15	0.08051	0.75	1047.24	0.15
293.15	0.09417	0.75	1047.77	0.2
293.15	0.1108	0.75	1048.41	0.17
293.15	0.1261	0.75	1048.99	0.17
293.15	0	0.75	1044.04	0.48
298.15	0.01485	0.75	1040.98	0.26
298.15	0.01981	0.75	1041.18	0.35
298.15	0.02565	0.75	1041.42	0.39
298.15	0.03235	0.75	1041.69	0.28
298.15	0.04084	0.75	1042.03	0.34
298.15	0.05164	0.75	1042.45	0.29
298.15	0.06663	0.75	1043.04	0.15
298.15	0.08051	0.75	1043.58	0.15
298.15	0.09417	0.75	1044.11	0.2
298.15	0.1108	0.75	1044.75	0.17
298.15	0.1261	0.75	1045.33	0.16
298.15	0	0.75	1040.37	0.47
303.15	0.01485	0.75	1037.25	0.25
303.15	0.01981	0.75	1037.45	0.35
303.15	0.02565	0.75	1037.69	0.38
303.15	0.03235	0.75	1037.96	0.28
303.15	0.04084	0.75	1038.3	0.3
303.15	0.05164	0.75	1038.73	0.28
303.15	0.06663	0.75	1039.31	0.15
303.15	0.08051	0.75	1039.86	0.15
303.15	0.09417	0.75	1040.39	0.2
303.15	0.1108	0.75	1041.03	0.17
303.15	0.1261	0.75	1041.62	0.16
303.15	0	0.75	1036.64	0.46
308.15	0.01485	0.75	1033.49	0.24
308.15	0.01981	0.75	1033.69	0.34
308.15	0.02565	0.75	1033.93	0.37
308.15	0.03235	0.75	1034.2	0.27
308.15	0.04084	0.75	1034.54	0.33
308.15	0.05164	0.75	1034.97	0.28
308.15	0.06663	0.75	1035.56	0.15
308.15	0.08051	0.75	1036.11	0.15
308.15	0.09417	0.75	1036.64	0.2
308.15	0.1108	0.75	1037.29	0.16
308.15	0.1261	0.75	1037.88	0.16
308.15	0	0.75	1032.88	0.45
313.15	0.01485	0.75	1029.67	0.23
313.15	0.01981	0.75	1029.88	0.33
313.15	0.02565	0.75	1030.12	0.36
313.15	0.03235	0.75	1030.39	0.27
313.15	0.04084	0.75	1030.73	0.32
313.15	0.05164	0.75	1031.16	0.28
313.15	0.06663	0.75	1031.76	0.15
313.15	0.08051	0.75	1032.3	0.15
313.15	0.09417	0.75	1032.84	0.2
313.15	0.1108	0.75	1033.49	0.16
313.15	0.1261	0.75	1034.08	0.16
313.15	0	0.75	1029.06	0.44
318.15	0.01485	0.75	1025.81	0.26
318.15	0.01981	0.75	1026.01	0.32
318.15	0.02565	0.75	1026.25	0.34
318.15	0.03235	0.75	1026.52	0.27
318.15	0.04084	0.75	1026.86	0.31
318.15	0.05164	0.75	1027.3	0.27
318.15	0.06663	0.75	1027.9	0.15
318.15	0.08051	0.75	1028.45	0.15
318.15	0.09417	0.75	1028.99	0.2
318.15	0.1108	0.75	1029.64	0.16
318.15	0.1261	0.75	1030.23	0.16
318.15	0	0.75	1025.19	0.63
288.15	0.0189	1	1040.6	0.17
288.15	0.02403	1	1040.83	0.17
288.15	0.03096	1	1041.13	0.17
288.15	0.03759	1	1041.41	0.17
288.15	0.04799	1	1041.85	0.17
288.15	0.0596	1	1042.33	0.17
288.15	0.07011	1	1042.76	0.17
288.15	0.08244	1	1043.27	0.17
288.15	0.09346	1	1043.71	0.17
288.15	0	1	1039.77	0.17
293.15	0.0189	1	1036.98	0.17
293.15	0.02403	1	1037.21	0.17
293.15	0.03096	1	1037.51	0.17
293.15	0.03759	1	1037.79	0.17
293.15	0.04799	1	1038.23	0.17
293.15	0.0596	1	1038.71	0.17
293.15	0.07011	1	1039.14	0.17
293.15	0.08244	1	1039.64	0.17
293.15	0.09346	1	1040.09	0.17
293.15	0	1	1036.15	0.17
298.15	0.0189	1	1033.33	0.17
298.15	0.02403	1	1033.55	0.17
298.15	0.03096	1	1033.84	0.17
298.15	0.03759	1	1034.12	0.17
298.15	0.04799	1	1034.56	0.17
298.15	0.0596	1	1035.04	0.17
298.15	0.07011	1	1035.48	0.17
298.15	0.08244	1	1035.98	0.17
298.15	0.09346	1	1036.43	0.17
298.15	0	1	1032.49	0.17
303.15	0.0189	1	1029.62	0.17
303.15	0.02403	1	1029.84	0.17
303.15	0.03096	1	1030.14	0.17
303.15	0.03759	1	1030.42	0.17
303.15	0.04799	1	1030.86	0.17
303.15	0.0596	1	1031.34	0.16
303.15	0.07011	1	1031.77	0.16
303.15	0.08244	1	1032.28	0.17
303.15	0.09346	1	1032.74	0.16
303.15	0	1	1028.78	0.17
308.15	0.0189	1	1025.87	0.17
308.15	0.02403	1	1026.09	0.17
308.15	0.03096	1	1026.4	0.17
308.15	0.03759	1	1026.68	0.16
308.15	0.04799	1	1027.12	0.16
308.15	0.0596	1	1027.61	0.16
308.15	0.07011	1	1028.04	0.16
308.15	0.08244	1	1028.55	0.16
308.15	0.09346	1	1029.01	0.16
308.15	0	1	1025.03	0.17
313.15	0.0189	1	1022.09	0.17
313.15	0.02403	1	1022.31	0.17
313.15	0.03096	1	1022.62	0.16
313.15	0.03759	1	1022.9	0.16
313.15	0.04799	1	1023.35	0.16
313.15	0.0596	1	1023.83	0.16
313.15	0.07011	1	1024.27	0.16
313.15	0.08244	1	1024.78	0.16
313.15	0.09346	1	1025.24	0.16
313.15	0	1	1021.25	0.17
318.15	0.0189	1	1018.27	0.16
318.15	0.02403	1	1018.5	0.16
318.15	0.03096	1	1018.8	0.16
318.15	0.03759	1	1019.08	0.16
318.15	0.04799	1	1019.53	0.16
318.15	0.0596	1	1020.02	0.16
318.15	0.07011	1	1020.46	0.16
318.15	0.08244	1	1020.98	0.16
318.15	0.09346	1	1021.44	0.16
318.15	0	1	1017.43	0.16

System: 1,2-propanediol + tetramethylammonium bromide + water; phases: Liquid
Fixed: Pressure, kPa = 100
Fixed: Temperature, K = 298.15
Property: Speed of sound, m/s (Liquid); method: Pulse-echo method
Molality, mol/kg of tetramethylammonium bromide	Solvent: Mass fraction of 1,2-propanediol	Speed of sound, m/s	uncertainty
0	0	1496.69	0.95
0.01656	0	1497.7	0.95
0.02243	0	1498.05	0.95
0.02892	0	1498.44	0.95
0.03698	0	1498.95	0.95
0.04656	0	1499.5	0.95
0.05827	0	1500.2	0.95
0.0748	0	1501.13	0.95
0.09027	0	1502.02	0.95
0.1058	0	1502.87	0.95
0.1246	0	1503.99	0.95
0.1407	0	1504.84	0.95
0	0.25	1639.91	3.63
0.01633	0.25	1640.75	1.93
0.02216	0.25	1641.02	2.06
0.02836	0.25	1641.32	2.09
0.03633	0.25	1641.69	1.71
0.04544	0.25	1642.1	1.68
0.0576	0.25	1642.6	1.86
0.07391	0.25	1643.27	1.14
0.08984	0.25	1643.94	1.07
0.1044	0.25	1644.52	1
0.1253	0.25	1645.29	1
0.1409	0.25	1645.87	1
0	0.5	1700.04	4.3
0.01958	0.5	1700.98	2.33
0.02529	0.5	1701.22	2.22
0.03248	0.5	1701.48	2.24
0.04025	0.5	1701.75	2.39
0.05065	0.5	1702.11	1.88
0.065	0.5	1702.57	1.01
0.07985	0.5	1702.93	1.29
0.09314	0.5	1703.29	1.26
0.1099	0.5	1703.65	1.14
0.1251	0.5	1704.02	5.38
0	0.75	1640.25	2.69
0.01981	0.75	1641.1	1.29
0.02565	0.75	1641.3	1.74
0.03235	0.75	1641.59	1.38
0.04084	0.75	1641.92	1.58
0.05164	0.75	1642.25	1.37
0.06663	0.75	1642.61	1.01
0.08051	0.75	1642.9	0.99
0.09417	0.75	1643.27	1.06
0.1108	0.75	1643.61	0.99
0.1261	0.75	1643.94	0.99
0	1	1508.8	0.95
0.0189	1	1509.94	0.95
0.02403	1	1510.22	0.95
0.03096	1	1510.61	0.95
0.03759	1	1511	0.95
0.04799	1	1511.6	0.95
0.0596	1	1512.22	0.95
0.07011	1	1512.75	0.95
0.08244	1	1513.36	0.95
0.09346	1	1513.93	0.95

System: 1,2-propanediol + tetraethylammonium bromide + water; phases: Liquid
Fixed: Pressure, kPa = 100
Property: Mass density, kg/m3 (Liquid); method: Vibrating tube method
Temperature, K	Molality, mol/kg of tetraethylammonium bromide	Solvent: Mass fraction of 1,2-propanediol	Mass density, kg/m3	uncertainty
288.15	0.01661	0	999.72	0.152
288.15	0.02227	0	999.94	0.152
288.15	0.02929	0	1000.2	0.151
288.15	0.03728	0	1000.5	0.152
288.15	0.04698	0	1000.86	0.152
288.15	0.05948	0	1001.33	0.152
288.15	0.0769	0	1001.97	0.151
288.15	0.09286	0	1002.55	0.151
288.15	0.1087	0	1003.12	0.151
288.15	0.1292	0	1003.86	0.151
288.15	0.1462	0	1004.47	0.151
288.15	0	0	999.09	0.152
293.15	0.01661	0	998.82	0.15
293.15	0.02227	0	999.03	0.153
293.15	0.02929	0	999.3	0.152
293.15	0.03728	0	999.59	0.152
293.15	0.04698	0	999.95	0.152
293.15	0.05948	0	1000.41	0.151
293.15	0.0769	0	1001.04	0.15
293.15	0.09286	0	1001.61	0.15
293.15	0.1087	0	1002.17	0.151
293.15	0.1292	0	1002.9	0.15
293.15	0.1462	0	1003.5	0.146
293.15	0	0	998.2	0.157
298.15	0.01661	0	997.66	0.15
298.15	0.02227	0	997.86	0.152
298.15	0.02929	0	998.12	0.151
298.15	0.03728	0	998.41	0.151
298.15	0.04698	0	998.76	0.151
298.15	0.05948	0	999.21	0.151
298.15	0.0769	0	999.83	0.15
298.15	0.09286	0	1000.4	0.15
298.15	0.1087	0	1000.96	0.15
298.15	0.1292	0	1001.68	0.149
298.15	0.1462	0	1002.27	0.146
298.15	0	0	997.04	0.157
303.15	0.01661	0	996.25	0.15
303.15	0.02227	0	996.46	0.152
303.15	0.02929	0	996.71	0.151
303.15	0.03728	0	997	0.151
303.15	0.04698	0	997.35	0.151
303.15	0.05948	0	997.79	0.15
303.15	0.0769	0	998.41	0.15
303.15	0.09286	0	998.97	0.149
303.15	0.1087	0	999.52	0.149
303.15	0.1292	0	1000.23	0.149
303.15	0.1462	0	1000.82	0.145
303.15	0	0	995.64	0.156
308.15	0.01661	0	994.62	0.15
308.15	0.02227	0	994.83	0.153
308.15	0.02929	0	995.09	0.151
308.15	0.03728	0	995.37	0.151
308.15	0.04698	0	995.72	0.151
308.15	0.05948	0	996.16	0.15
308.15	0.0769	0	996.77	0.149
308.15	0.09286	0	997.32	0.149
308.15	0.1087	0	997.87	0.149
308.15	0.1292	0	998.57	0.149
308.15	0.1462	0	999.15	0.145
308.15	0	0	994.02	0.155
313.15	0.01661	0	992.81	0.15
313.15	0.02227	0	993.01	0.151
313.15	0.02929	0	993.26	0.151
313.15	0.03728	0	993.54	0.151
313.15	0.04698	0	993.88	0.151
313.15	0.05948	0	994.32	0.151
313.15	0.0769	0	994.93	0.15
313.15	0.09286	0	995.48	0.149
313.15	0.1087	0	996.02	0.149
313.15	0.1292	0	996.72	0.149
313.15	0.1462	0	997.29	0.145
313.15	0	0	992.21	0.155
318.15	0.01661	0	990.79	0.151
318.15	0.02227	0	991	0.151
318.15	0.02929	0	991.24	0.15
318.15	0.03728	0	991.52	0.151
318.15	0.04698	0	991.86	0.151
318.15	0.05948	0	992.3	0.15
318.15	0.0769	0	992.9	0.15
318.15	0.09286	0	993.45	0.15
318.15	0.1087	0	993.99	0.149
318.15	0.1292	0	994.68	0.148
318.15	0.1462	0	995.23	0.148
318.15	0	0	990.21	0.151
288.15	0.01469	0.25	1021.57	0.145
288.15	0.02048	0.25	1021.8	0.149
288.15	0.02668	0.25	1022.04	0.149
288.15	0.03467	0.25	1022.34	0.15
288.15	0.04306	0.25	1022.67	0.153
288.15	0.0538	0.25	1023.08	0.154
288.15	0.06956	0.25	1023.68	0.159
288.15	0.08443	0.25	1024.24	0.159
288.15	0.09834	0.25	1024.77	0.166
288.15	0.1174	0.25	1025.48	0.158
288.15	0.1329	0.25	1026.05	0.141
288.15	0	0.25	1020.99	0.21
293.15	0.01469	0.25	1019.67	0.144
293.15	0.02048	0.25	1019.89	0.145
293.15	0.02668	0.25	1020.13	0.144
293.15	0.03467	0.25	1020.43	0.146
293.15	0.04306	0.25	1020.75	0.149
293.15	0.0538	0.25	1021.16	0.15
293.15	0.06956	0.25	1021.75	0.157
293.15	0.08443	0.25	1022.3	0.158
293.15	0.09834	0.25	1022.82	0.165
293.15	0.1174	0.25	1023.51	0.157
293.15	0.1329	0.25	1024.08	0.14
293.15	0	0.25	1019.1	0.194
298.15	0.01469	0.25	1017.58	0.143
298.15	0.02048	0.25	1017.8	0.143
298.15	0.02668	0.25	1018.04	0.143
298.15	0.03467	0.25	1018.34	0.145
298.15	0.04306	0.25	1018.66	0.148
298.15	0.0538	0.25	1019.06	0.148
298.15	0.06956	0.25	1019.64	0.156
298.15	0.08443	0.25	1020.18	0.156
298.15	0.09834	0.25	1020.69	0.165
298.15	0.1174	0.25	1021.37	0.156
298.15	0.1329	0.25	1021.93	0.139
298.15	0	0.25	1017.02	0.196
303.15	0.01469	0.25	1015.34	0.141
303.15	0.02048	0.25	1015.56	0.141
303.15	0.02668	0.25	1015.79	0.141
303.15	0.03467	0.25	1016.09	0.143
303.15	0.04306	0.25	1016.4	0.145
303.15	0.0538	0.25	1016.79	0.146
303.15	0.06956	0.25	1017.36	0.155
303.15	0.08443	0.25	1017.9	0.155
303.15	0.09834	0.25	1018.4	0.165
303.15	0.1174	0.25	1019.08	0.155
303.15	0.1329	0.25	1019.63	0.138
303.15	0	0.25	1014.79	0.2
308.15	0.01469	0.25	1012.94	0.139
308.15	0.02048	0.25	1013.15	0.139
308.15	0.02668	0.25	1013.38	0.139
308.15	0.03467	0.25	1013.67	0.141
308.15	0.04306	0.25	1013.98	0.144
308.15	0.0538	0.25	1014.37	0.145
308.15	0.06956	0.25	1014.94	0.154
308.15	0.08443	0.25	1015.47	0.154
308.15	0.09834	0.25	1015.96	0.164
308.15	0.1174	0.25	1016.63	0.154
308.15	0.1329	0.25	1017.18	0.138
308.15	0	0.25	1012.39	0.203
313.15	0.01469	0.25	1010.39	0.138
313.15	0.02048	0.25	1010.6	0.138
313.15	0.02668	0.25	1010.83	0.138
313.15	0.03467	0.25	1011.12	0.139
313.15	0.04306	0.25	1011.42	0.143
313.15	0.0538	0.25	1011.81	0.143
313.15	0.06956	0.25	1012.37	0.153
313.15	0.08443	0.25	1012.89	0.153
313.15	0.09834	0.25	1013.38	0.163
313.15	0.1174	0.25	1014.04	0.153
313.15	0.1329	0.25	1014.58	0.137
313.15	0	0.25	1009.85	0.206
318.15	0.01469	0.25	1007.69	0.135
318.15	0.02048	0.25	1007.9	0.138
318.15	0.02668	0.25	1008.12	0.139
318.15	0.03467	0.25	1008.41	0.14
318.15	0.04306	0.25	1008.71	0.145
318.15	0.0538	0.25	1009.1	0.146
318.15	0.06956	0.25	1009.66	0.152
318.15	0.08443	0.25	1010.18	0.152
318.15	0.09834	0.25	1010.66	0.164
318.15	0.1174	0.25	1011.32	0.152
318.15	0.1329	0.25	1011.85	0.15
318.15	0	0.25	1007.15	0.248
288.15	0.01492	0.5	1041.71	0.192
288.15	0.0206	0.5	1041.92	0.19
288.15	0.02742	0.5	1042.17	0.245
288.15	0.03489	0.5	1042.44	0.188
288.15	0.04277	0.5	1042.73	0.18
288.15	0.05482	0.5	1043.16	0.196
288.15	0.07059	0.5	1043.71	0.164
288.15	0.08628	0.5	1044.265	0.165
288.15	0.1006	0.5	1044.77	0.192
288.15	0.1187	0.5	1045.4	0.155
288.15	0.1352	0.5	1045.96	0.487
288.15	0	0.5	1041.16	0.699
293.15	0.01492	0.5	1038.57	0.154
293.15	0.0206	0.5	1038.78	0.172
293.15	0.02742	0.5	1039.02	0.243
293.15	0.03489	0.5	1039.29	0.185
293.15	0.04277	0.5	1039.575	0.157
293.15	0.05482	0.5	1040	0.186
293.15	0.07059	0.5	1040.56	0.164
293.15	0.08628	0.5	1041.1	0.167
293.15	0.1006	0.5	1041.595	0.185
293.15	0.1187	0.5	1042.23	0.156
293.15	0.1352	0.5	1042.78	0.258
293.15	0	0.5	1038.02	0.446
298.15	0.01492	0.5	1035.34	0.151
298.15	0.0206	0.5	1035.54	0.17
298.15	0.02742	0.5	1035.79	0.238
298.15	0.03489	0.5	1036.06	0.183
298.15	0.04277	0.5	1036.34	0.156
298.15	0.05482	0.5	1036.76	0.183
298.15	0.07059	0.5	1037.31	0.163
298.15	0.08628	0.5	1037.85	0.166
298.15	0.1006	0.5	1038.34	0.182
298.15	0.1187	0.5	1038.97	0.155
298.15	0.1352	0.5	1039.53	0.244
298.15	0	0.5	1034.79	0.427
303.15	0.01492	0.5	1032.03	0.148
303.15	0.0206	0.5	1032.24	0.169
303.15	0.02742	0.5	1032.48	0.232
303.15	0.03489	0.5	1032.75	0.18
303.15	0.04277	0.5	1033.03	0.155
303.15	0.05482	0.5	1033.45	0.181
303.15	0.07059	0.5	1034	0.161
303.15	0.08628	0.5	1034.53	0.164
303.15	0.1006	0.5	1035.02	0.18
303.15	0.1187	0.5	1035.64	0.154
303.15	0.1352	0.5	1036.2	0.232
303.15	0	0.5	1031.49	0.41
308.15	0.01492	0.5	1028.65	0.146
308.15	0.0206	0.5	1028.86	0.167
308.15	0.02742	0.5	1029.1	0.225
308.15	0.03489	0.5	1029.36	0.178
308.15	0.04277	0.5	1029.64	0.154
308.15	0.05482	0.5	1030.06	0.179
308.15	0.07059	0.5	1030.61	0.16
308.15	0.08628	0.5	1031.14	0.163
308.15	0.1006	0.5	1031.63	0.177
308.15	0.1187	0.5	1032.24	0.153
308.15	0.1352	0.5	1032.8	0.221
308.15	0	0.5	1028.11	0.394
313.15	0.01492	0.5	1025.2	0.144
313.15	0.0206	0.5	1025.4	0.166
313.15	0.02742	0.5	1025.65	0.222
313.15	0.03489	0.5	1025.91	0.175
313.15	0.04277	0.5	1026.18	0.153
313.15	0.05482	0.5	1026.6	0.176
313.15	0.07059	0.5	1027.14	0.159
313.15	0.08628	0.5	1027.68	0.162
313.15	0.1006	0.5	1028.16	0.175
313.15	0.1187	0.5	1028.78	0.152
313.15	0.1352	0.5	1029.33	0.213
313.15	0	0.5	1024.66	0.38
318.15	0.01492	0.5	1021.67	0.158
318.15	0.0206	0.5	1021.87	0.176
318.15	0.02742	0.5	1022.11	0.213
318.15	0.03489	0.5	1022.37	0.175
318.15	0.04277	0.5	1022.65	0.169
318.15	0.05482	0.5	1023.07	0.181
318.15	0.07059	0.5	1023.61	0.158
318.15	0.08628	0.5	1024.14	0.158
318.15	0.1006	0.5	1024.62	0.177
318.15	0.1187	0.5	1025.24	0.152
318.15	0.1352	0.5	1025.79	0.349
318.15	0	0.5	1021.13	0.535
288.15	0.01474	0.75	1048.21	0.249
288.15	0.02101	0.75	1048.43	0.155
288.15	0.02703	0.75	1048.65	0.15
288.15	0.03472	0.75	1048.92	0.148
288.15	0.04443	0.75	1049.26	0.148
288.15	0.05539	0.75	1049.64	0.15
288.15	0.07129	0.75	1050.18	0.151
288.15	0.08692	0.75	1050.72	0.164
288.15	0.1018	0.75	1051.22	0.252
288.15	0.1203	0.75	1051.84	0.164
288.15	0.1365	0.75	1052.37	0.395
288.15	0	0.75	1047.67	0.739
293.15	0.01474	0.75	1044.58	0.21
293.15	0.02101	0.75	1044.8	0.157
293.15	0.02703	0.75	1045.02	0.15
293.15	0.03472	0.75	1045.29	0.153
293.15	0.04443	0.75	1045.63	0.15
293.15	0.05539	0.75	1046.01	0.149
293.15	0.07129	0.75	1046.55	0.154
293.15	0.08692	0.75	1047.09	0.163
293.15	0.1018	0.75	1047.59	0.256
293.15	0.1203	0.75	1048.21	0.162
293.15	0.1365	0.75	1048.74	0.149
293.15	0	0.75	1044.04	0.475
298.15	0.01474	0.75	1040.91	0.204
298.15	0.02101	0.75	1041.13	0.155
298.15	0.02703	0.75	1041.35	0.148
298.15	0.03472	0.75	1041.62	0.151
298.15	0.04443	0.75	1041.96	0.148
298.15	0.05539	0.75	1042.34	0.147
298.15	0.07129	0.75	1042.89	0.152
298.15	0.08692	0.75	1043.42	0.161
298.15	0.1018	0.75	1043.92	0.251
298.15	0.1203	0.75	1044.54	0.161
298.15	0.1365	0.75	1045.07	0.147
298.15	0	0.75	1040.37	0.464
303.15	0.01474	0.75	1037.18	0.198
303.15	0.02101	0.75	1037.41	0.152
303.15	0.02703	0.75	1037.62	0.147
303.15	0.03472	0.75	1037.89	0.148
303.15	0.04443	0.75	1038.24	0.147
303.15	0.05539	0.75	1038.62	0.146
303.15	0.07129	0.75	1039.17	0.149
303.15	0.08692	0.75	1039.71	0.161
303.15	0.1018	0.75	1040.21	0.247
303.15	0.1203	0.75	1040.83	0.16
303.15	0.1365	0.75	1041.36	0.146
303.15	0	0.75	1036.64	0.451
308.15	0.01474	0.75	1033.42	0.193
308.15	0.02101	0.75	1033.64	0.15
308.15	0.02703	0.75	1033.86	0.145
308.15	0.03472	0.75	1034.13	0.146
308.15	0.04443	0.75	1034.48	0.145
308.15	0.05539	0.75	1034.86	0.144
308.15	0.07129	0.75	1035.41	0.148
308.15	0.08692	0.75	1035.95	0.159
308.15	0.1018	0.75	1036.45	0.243
308.15	0.1203	0.75	1037.07	0.159
308.15	0.1365	0.75	1037.6	0.145
308.15	0	0.75	1032.88	0.441
313.15	0.01474	0.75	1029.6	0.188
313.15	0.02101	0.75	1029.82	0.148
313.15	0.02703	0.75	1030.04	0.143
313.15	0.03472	0.75	1030.31	0.145
313.15	0.04443	0.75	1030.66	0.143
313.15	0.05539	0.75	1031.04	0.143
313.15	0.07129	0.75	1031.59	0.146
313.15	0.08692	0.75	1032.13	0.159
313.15	0.1018	0.75	1032.64	0.24
313.15	0.1203	0.75	1033.26	0.158
313.15	0.1365	0.75	1033.79	0.144
313.15	0	0.75	1029.06	0.43
318.15	0.01474	0.75	1025.73	0.207
318.15	0.02101	0.75	1025.96	0.144
318.15	0.02703	0.75	1026.18	0.146
318.15	0.03472	0.75	1026.45	0.143
318.15	0.04443	0.75	1026.79	0.143
318.15	0.05539	0.75	1027.18	0.146
318.15	0.07129	0.75	1027.74	0.143
318.15	0.08692	0.75	1028.28	0.157
318.15	0.1018	0.75	1028.79	0.231
318.15	0.1203	0.75	1029.41	0.157
318.15	0.1365	0.75	1029.95	0.324
318.15	0	0.75	1025.19	0.625
288.15	0.01687	1	1040.42	0.16
288.15	0.0223	1	1040.63	0.16
288.15	0.02829	1	1040.85	0.16
288.15	0.03708	1	1041.18	0.16
288.15	0.04876	1	1041.61	0.16
288.15	0.06124	1	1042.07	0.16
288.15	0.07768	1	1042.65	0.16
288.15	0.09596	1	1043.29	0.16
288.15	0.1109	1	1043.81	0.16
288.15	0.131	1	1044.5	0.16
288.15	0.1484	1	1045.09	0.16
288.15	0	1	1039.78	0.16
293.15	0.01687	1	1036.81	0.16
293.15	0.0223	1	1037.01	0.16
293.15	0.02829	1	1037.24	0.16
293.15	0.03708	1	1037.56	0.16
293.15	0.04876	1	1037.99	0.16
293.15	0.06124	1	1038.45	0.16
293.15	0.07768	1	1039.04	0.16
293.15	0.09596	1	1039.68	0.16
293.15	0.1109	1	1040.2	0.16
293.15	0.131	1	1040.89	0.16
293.15	0.1484	1	1041.49	0.16
293.15	0	1	1036.16	0.16
298.15	0.01687	1	1033.14	0.16
298.15	0.0223	1	1033.35	0.16
298.15	0.02829	1	1033.57	0.16
298.15	0.03708	1	1033.9	0.16
298.15	0.04876	1	1034.33	0.16
298.15	0.06124	1	1034.8	0.16
298.15	0.07768	1	1035.38	0.16
298.15	0.09596	1	1036.01	0.16
298.15	0.1109	1	1036.53	0.16
298.15	0.131	1	1037.23	0.16
298.15	0.1484	1	1037.83	0.16
298.15	0	1	1032.49	0.16
303.15	0.01687	1	1029.44	0.16
303.15	0.0223	1	1029.64	0.16
303.15	0.02829	1	1029.86	0.16
303.15	0.03708	1	1030.19	0.16
303.15	0.04876	1	1030.63	0.16
303.15	0.06124	1	1031.09	0.16
303.15	0.07768	1	1031.69	0.16
303.15	0.09596	1	1032.32	0.16
303.15	0.1109	1	1032.84	0.16
303.15	0.131	1	1033.55	0.16
303.15	0.1484	1	1034.14	0.16
303.15	0	1	1028.78	0.16
308.15	0.01687	1	1025.69	0.16
308.15	0.0223	1	1025.9	0.16
308.15	0.02829	1	1026.12	0.16
308.15	0.03708	1	1026.45	0.16
308.15	0.04876	1	1026.89	0.16
308.15	0.06124	1	1027.35	0.16
308.15	0.07768	1	1027.95	0.16
308.15	0.09596	1	1028.59	0.16
308.15	0.1109	1	1029.11	0.16
308.15	0.131	1	1029.82	0.16
308.15	0.1484	1	1030.42	0.16
308.15	0	1	1025.03	0.16
313.15	0.01687	1	1021.9	0.16
313.15	0.0223	1	1022.11	0.16
313.15	0.02829	1	1022.34	0.16
313.15	0.03708	1	1022.67	0.16
313.15	0.04876	1	1023.11	0.16
313.15	0.06124	1	1023.58	0.16
313.15	0.07768	1	1024.18	0.16
313.15	0.09596	1	1024.82	0.16
313.15	0.1109	1	1025.35	0.16
313.15	0.131	1	1026.06	0.16
313.15	0.1484	1	1026.66	0.16
313.15	0	1	1021.24	0.16
318.15	0.01687	1	1018.09	0.16
318.15	0.0223	1	1018.3	0.16
318.15	0.02829	1	1018.53	0.16
318.15	0.03708	1	1018.86	0.16
318.15	0.04876	1	1019.3	0.16
318.15	0.06124	1	1019.76	0.16
318.15	0.07768	1	1020.37	0.16
318.15	0.09596	1	1021.02	0.16
318.15	0.1109	1	1021.55	0.16
318.15	0.131	1	1022.26	0.16
318.15	0.1484	1	1022.87	0.16
318.15	0	1	1017.42	0.16

System: 1,2-propanediol + tetraethylammonium bromide + water; phases: Liquid
Fixed: Pressure, kPa = 100
Fixed: Temperature, K = 298.15
Property: Speed of sound, m/s (Liquid); method: Pulse-echo method
Molality, mol/kg of tetraethylammonium bromide	Solvent: Mass fraction of 1,2-propanediol	Speed of sound, m/s	uncertainty
0.01661	0	1498.53	0.96
0.02227	0	1499.15	0.96
0.02929	0	1499.92	0.96
0.03728	0	1500.76	0.96
0.04698	0	1501.8	0.96
0.05948	0	1503.15	0.96
0.0769	0	1504.98	0.96
0.09286	0	1506.54	0.96
0.1087	0	1508.24	0.96
0.1292	0	1510.22	0.96
0.1462	0	1511.93	0.96
0.01469	0.25	1641.25	7.76
0.02048	0.25	1641.75	1.37
0.02668	0.25	1642.26	1.32
0.03467	0.25	1642.93	1.25
0.04306	0.25	1643.62	1.07
0.0538	0.25	1644.38	1.04
0.06956	0.25	1645.61	1
0.08443	0.25	1646.64	1
0.09834	0.25	1647.66	1.23
0.1174	0.25	1649.01	1
0.1329	0.25	1650.03	3.44
0.01492	0.5	1701.12	21.72
0.0206	0.5	1701.49	1.14
0.02742	0.5	1701.85	1.58
0.03489	0.5	1702.41	1.14
0.04277	0.5	1702.93	1.09
0.05482	0.5	1703.65	1.19
0.07059	0.5	1704.38	1.01
0.08628	0.5	1705.1	1
0.1006	0.5	1705.83	1.15
0.1187	0.5	1706.55	1.01
0.1352	0.5	1707.28	4.69
0.02101	0.75	1641.35	7.51
0.02703	0.75	1641.59	1
0.03472	0.75	1641.99	1.01
0.04443	0.75	1642.43	1.02
0.05539	0.75	1642.94	0.99
0.07129	0.75	1643.61	0.99
0.08692	0.75	1644.28	0.99
0.1018	0.75	1644.96	0.99
0.1203	0.75	1645.63	0.99
0.1365	0.75	1646.32	2.23
0.01687	1	1510.05	0.95
0.0223	1	1510.39	0.95
0.02829	1	1510.76	0.95
0.03708	1	1511.36	0.95
0.04876	1	1512.18	0.95
0.06124	1	1512.95	0.95
0.07768	1	1513.93	0.95
0.09596	1	1515.07	0.95
0.1109	1	1515.93	0.95
0.131	1	1517.08	0.95
0.1484	1	1517.94	0.95

System: 1,2-propanediol + tetrapropylammonium bromide + water; phases: Liquid
Fixed: Pressure, kPa = 100
Property: Mass density, kg/m3 (Liquid); method: Vibrating tube method
Temperature, K	Molality, mol/kg of tetrapropylammonium bromide	Solvent: Mass fraction of 1,2-propanediol	Mass density, kg/m3	uncertainty
288.15	0.01618	0	999.56	0.144
288.15	0.02208	0	999.73	0.144
288.15	0.0287	0	999.92	0.144
288.15	0.037	0	1000.16	0.144
288.15	0.04631	0	1000.43	0.144
288.15	0.05791	0	1000.76	0.144
288.15	0.07524	0	1001.25	0.143
288.15	0.0912	0	1001.69	0.144
288.15	0.1071	0	1002.15	0.144
288.15	0.1272	0	1002.73	0.144
288.15	0.1446	0	1003.22	0.144
288.15	0	0	999.1	0.144
293.15	0.01618	0	998.66	0.142
293.15	0.02208	0	998.83	0.144
293.15	0.0287	0	999.01	0.144
293.15	0.037	0	999.25	0.144
293.15	0.04631	0	999.51	0.143
293.15	0.05791	0	999.83	0.143
293.15	0.07524	0	1000.31	0.143
293.15	0.0912	0	1000.75	0.143
293.15	0.1071	0	1001.19	0.144
293.15	0.1272	0	1001.76	0.144
293.15	0.1446	0	1002.24	0.14
293.15	0	0	998.21	0.148
298.15	0.01618	0	997.48	0.142
298.15	0.02208	0	997.65	0.144
298.15	0.0287	0	997.83	0.144
298.15	0.037	0	998.06	0.144
298.15	0.04631	0	998.32	0.144
298.15	0.05791	0	998.64	0.143
298.15	0.07524	0	999.11	0.143
298.15	0.0912	0	999.54	0.142
298.15	0.1071	0	999.97	0.143
298.15	0.1272	0	1000.52	0.143
298.15	0.1446	0	1000.99	0.14
298.15	0	0	997.04	0.147
303.15	0.01618	0	996.08	0.142
303.15	0.02208	0	996.24	0.143
303.15	0.0287	0	996.42	0.144
303.15	0.037	0	996.65	0.143
303.15	0.04631	0	996.9	0.143
303.15	0.05791	0	997.21	0.143
303.15	0.07524	0	997.68	0.142
303.15	0.0912	0	998.09	0.142
303.15	0.1071	0	998.52	0.143
303.15	0.1272	0	999.06	0.142
303.15	0.1446	0	999.52	0.139
303.15	0	0	995.65	0.147
308.15	0.01618	0	994.46	0.142
308.15	0.02208	0	994.61	0.143
308.15	0.0287	0	994.79	0.144
308.15	0.037	0	995.01	0.143
308.15	0.04631	0	995.26	0.143
308.15	0.05791	0	995.56	0.143
308.15	0.07524	0	996.02	0.142
308.15	0.0912	0	996.43	0.142
308.15	0.1071	0	996.85	0.143
308.15	0.1272	0	997.38	0.142
308.15	0.1446	0	997.83	0.139
308.15	0	0	994.03	0.146
313.15	0.01618	0	992.63	0.142
313.15	0.02208	0	992.78	0.143
313.15	0.0287	0	992.96	0.144
313.15	0.037	0	993.18	0.143
313.15	0.04631	0	993.42	0.143
313.15	0.05791	0	993.72	0.143
313.15	0.07524	0	994.17	0.142
313.15	0.0912	0	994.57	0.142
313.15	0.1071	0	994.98	0.142
313.15	0.1272	0	995.49	0.142
313.15	0.1446	0	995.93	0.139
313.15	0	0	992.21	0.146
318.15	0.01618	0	990.62	0.143
318.15	0.02208	0	990.77	0.143
318.15	0.0287	0	990.94	0.143
318.15	0.037	0	991.15	0.143
318.15	0.04631	0	991.39	0.143
318.15	0.05791	0	991.68	0.143
318.15	0.07524	0	992.12	0.143
318.15	0.0912	0	992.53	0.142
318.15	0.1071	0	992.92	0.142
318.15	0.1272	0	993.4	0.142
318.15	0.1446	0	993.84	0.142
318.15	0	0	990.21	0.143
288.15	0.01734	0.25	1021.53	0.143
288.15	0.02323	0.25	1021.71	0.154
288.15	0.03053	0.25	1021.93	0.152
288.15	0.03915	0.25	1022.2	0.151
288.15	0.04851	0.25	1022.48	0.155
288.15	0.06184	0.25	1022.89	0.156
288.15	0.08013	0.25	1023.45	0.151
288.15	0.09668	0.25	1023.95	0.218
288.15	0.1135	0.25	1024.46	0.229
288.15	0.1351	0.25	1025.11	0.21
288.15	0.1531	0.25	1025.65	0.16
288.15	0	0.25	1020.98	0.189
293.15	0.01734	0.25	1019.62	0.143
293.15	0.02323	0.25	1019.8	0.153
293.15	0.03053	0.25	1020.02	0.15
293.15	0.03915	0.25	1020.28	0.148
293.15	0.04851	0.25	1020.55	0.151
293.15	0.06184	0.25	1020.94	0.153
293.15	0.08013	0.25	1021.48	0.149
293.15	0.09668	0.25	1021.96	0.226
293.15	0.1135	0.25	1022.45	0.23
293.15	0.1351	0.25	1023.07	0.224
293.15	0.1531	0.25	1023.6	0.256
293.15	0	0.25	1019.09	0.177
298.15	0.01734	0.25	1017.53	0.142
298.15	0.02323	0.25	1017.7	0.151
298.15	0.03053	0.25	1017.91	0.148
298.15	0.03915	0.25	1018.16	0.147
298.15	0.04851	0.25	1018.43	0.15
298.15	0.06184	0.25	1018.8	0.152
298.15	0.08013	0.25	1019.32	0.148
298.15	0.09668	0.25	1019.79	0.222
298.15	0.1135	0.25	1020.26	0.226
298.15	0.1351	0.25	1020.87	0.22
298.15	0.1531	0.25	1021.37	0.251
298.15	0	0.25	1017.02	0.178
303.15	0.01734	0.25	1015.28	0.14
303.15	0.02323	0.25	1015.44	0.149
303.15	0.03053	0.25	1015.64	0.147
303.15	0.03915	0.25	1015.89	0.146
303.15	0.04851	0.25	1016.15	0.149
303.15	0.06184	0.25	1016.51	0.151
303.15	0.08013	0.25	1017.01	0.147
303.15	0.09668	0.25	1017.46	0.219
303.15	0.1135	0.25	1017.92	0.223
303.15	0.1351	0.25	1018.51	0.216
303.15	0.1531	0.25	1019	0.246
303.15	0	0.25	1014.79	0.18
308.15	0.01734	0.25	1012.87	0.139
308.15	0.02323	0.25	1013.03	0.148
308.15	0.03053	0.25	1013.22	0.145
308.15	0.03915	0.25	1013.46	0.144
308.15	0.04851	0.25	1013.71	0.147
308.15	0.06184	0.25	1014.06	0.15
308.15	0.08013	0.25	1014.55	0.145
308.15	0.09668	0.25	1014.99	0.215
308.15	0.1135	0.25	1015.43	0.219
308.15	0.1351	0.25	1016	0.212
308.15	0.1531	0.25	1016.47	0.241
308.15	0	0.25	1012.39	0.181
313.15	0.01734	0.25	1010.31	0.137
313.15	0.02323	0.25	1010.46	0.147
313.15	0.03053	0.25	1010.65	0.144
313.15	0.03915	0.25	1010.89	0.143
313.15	0.04851	0.25	1011.13	0.146
313.15	0.06184	0.25	1011.47	0.148
313.15	0.08013	0.25	1011.94	0.144
313.15	0.09668	0.25	1012.37	0.212
313.15	0.1135	0.25	1012.8	0.216
313.15	0.1351	0.25	1013.36	0.209
313.15	0.1531	0.25	1013.81	0.237
313.15	0	0.25	1009.85	0.182
318.15	0.01734	0.25	1007.6	0.135
318.15	0.02323	0.25	1007.76	0.149
318.15	0.03053	0.25	1007.94	0.145
318.15	0.03915	0.25	1008.17	0.143
318.15	0.04851	0.25	1008.4	0.148
318.15	0.06184	0.25	1008.74	0.149
318.15	0.08013	0.25	1009.2	0.143
318.15	0.09668	0.25	1009.61	0.198
318.15	0.1135	0.25	1010.03	0.208
318.15	0.1351	0.25	1010.58	0.192
318.15	0.1531	0.25	1011.02	0.155
318.15	0	0.25	1007.15	0.214
288.15	0.01833	0.5	1041.62	0.166
288.15	0.02479	0.5	1041.78	0.424
288.15	0.0332	0.5	1041.98	0.412
288.15	0.04218	0.5	1042.19	0.408
288.15	0.05199	0.5	1042.43	0.355
288.15	0.06588	0.5	1042.75	0.268
288.15	0.08536	0.5	1043.21	0.28
288.15	0.1038	0.5	1043.63	0.154
288.15	0.1211	0.5	1044.025	0.375
288.15	0.1442	0.5	1044.56	0.154
288.15	0.1643	0.5	1045	0.235
288.15	0	0.5	1041.16	0.566
293.15	0.01833	0.5	1038.46	0.145
293.15	0.02479	0.5	1038.62	0.425
293.15	0.0332	0.5	1038.82	0.438
293.15	0.04218	0.5	1039.03	0.429
293.15	0.05199	0.5	1039.25	0.354
293.15	0.06588	0.5	1039.57	0.266
293.15	0.08536	0.5	1040.02	0.302
293.15	0.1038	0.5	1040.43	0.152
293.15	0.1211	0.5	1040.81	0.379
293.15	0.1442	0.5	1041.33	0.152
293.15	0.1643	0.5	1041.77	0.614
293.15	0	0.5	1038.02	0.362
298.15	0.01833	0.5	1035.23	0.144
298.15	0.02479	0.5	1035.38	0.406
298.15	0.0332	0.5	1035.58	0.418
298.15	0.04218	0.5	1035.78	0.41
298.15	0.05199	0.5	1036	0.339
298.15	0.06588	0.5	1036.31	0.257
298.15	0.08536	0.5	1036.75	0.292
298.15	0.1038	0.5	1037.15	0.151
298.15	0.1211	0.5	1037.53	0.364
298.15	0.1442	0.5	1038.03	0.151
298.15	0.1643	0.5	1038.46	0.588
298.15	0	0.5	1034.79	0.347
303.15	0.01833	0.5	1031.92	0.143
303.15	0.02479	0.5	1032.07	0.388
303.15	0.0332	0.5	1032.26	0.398
303.15	0.04218	0.5	1032.45	0.391
303.15	0.05199	0.5	1032.67	0.326
303.15	0.06588	0.5	1032.98	0.248
303.15	0.08536	0.5	1033.41	0.282
303.15	0.1038	0.5	1033.8	0.149
303.15	0.1211	0.5	1034.16	0.351
303.15	0.1442	0.5	1034.66	0.15
303.15	0.1643	0.5	1035.08	0.563
303.15	0	0.5	1031.49	0.333
308.15	0.01833	0.5	1028.53	0.142
308.15	0.02479	0.5	1028.67	0.371
308.15	0.0332	0.5	1028.86	0.383
308.15	0.04218	0.5	1029.06	0.376
308.15	0.05199	0.5	1029.28	0.313
308.15	0.06588	0.5	1029.58	0.24
308.15	0.08536	0.5	1030	0.273
308.15	0.1038	0.5	1030.38	0.148
308.15	0.1211	0.5	1030.74	0.338
308.15	0.1442	0.5	1031.22	0.148
308.15	0.1643	0.5	1031.63	0.54
308.15	0	0.5	1028.11	0.32
313.15	0.01833	0.5	1025.07	0.14
313.15	0.02479	0.5	1025.22	0.357
313.15	0.0332	0.5	1025.4	0.366
313.15	0.04218	0.5	1025.59	0.36
313.15	0.05199	0.5	1025.8	0.301
313.15	0.06588	0.5	1026.09	0.233
313.15	0.08536	0.5	1026.51	0.265
313.15	0.1038	0.5	1026.89	0.147
313.15	0.1211	0.5	1027.24	0.326
313.15	0.1442	0.5	1027.71	0.147
313.15	0.1643	0.5	1028.12	0.519
313.15	0	0.5	1024.66	0.308
318.15	0.01833	0.5	1021.54	0.149
318.15	0.02479	0.5	1021.68	0.328
318.15	0.0332	0.5	1021.86	0.319
318.15	0.04218	0.5	1022.04	0.315
318.15	0.05199	0.5	1022.25	0.279
318.15	0.06588	0.5	1022.54	0.22
318.15	0.08536	0.5	1022.94	0.234
318.15	0.1038	0.5	1023.32	0.146
318.15	0.1211	0.5	1023.67	0.302
318.15	0.1442	0.5	1024.13	0.146
318.15	0.1643	0.5	1024.54	0.205
318.15	0	0.5	1021.13	0.429
288.15	0.01678	0.75	1048.01	0.261
288.15	0.02256	0.75	1048.13	0.208
288.15	0.02941	0.75	1048.26	0.243
288.15	0.03776	0.75	1048.42	0.223
288.15	0.04738	0.75	1048.61	0.205
288.15	0.06013	0.75	1048.85	0.152
288.15	0.07772	0.75	1049.18	0.153
288.15	0.0946	0.75	1049.5	0.153
288.15	0.1106	0.75	1049.79	0.178
288.15	0.1307	0.75	1050.17	0.153
288.15	0.1487	0.75	1050.49	0.494
288.15	0	0.75	1047.67	0.631
293.15	0.01678	0.75	1044.38	0.213
293.15	0.02256	0.75	1044.5	0.253
293.15	0.02941	0.75	1044.63	0.295
293.15	0.03776	0.75	1044.79	0.26
293.15	0.04738	0.75	1044.98	0.243
293.15	0.06013	0.75	1045.22	0.163
293.15	0.07772	0.75	1045.55	0.152
293.15	0.0946	0.75	1045.86	0.152
293.15	0.1106	0.75	1046.15	0.174
293.15	0.1307	0.75	1046.52	0.152
293.15	0.1487	0.75	1046.84	0.298
293.15	0	0.75	1044.04	0.401
298.15	0.01678	0.75	1040.7	0.207
298.15	0.02256	0.75	1040.82	0.246
298.15	0.02941	0.75	1040.95	0.286
298.15	0.03776	0.75	1041.11	0.253
298.15	0.04738	0.75	1041.3	0.236
298.15	0.06013	0.75	1041.54	0.16
298.15	0.07772	0.75	1041.88	0.151
298.15	0.0946	0.75	1042.19	0.151
298.15	0.1106	0.75	1042.48	0.172
298.15	0.1307	0.75	1042.84	0.151
298.15	0.1487	0.75	1043.15	0.29
298.15	0	0.75	1040.36	0.39
303.15	0.01678	0.75	1036.98	0.203
303.15	0.02256	0.75	1037.09	0.239
303.15	0.02941	0.75	1037.23	0.277
303.15	0.03776	0.75	1037.39	0.246
303.15	0.04738	0.75	1037.58	0.23
303.15	0.06013	0.75	1037.82	0.158
303.15	0.07772	0.75	1038.15	0.15
303.15	0.0946	0.75	1038.46	0.15
303.15	0.1106	0.75	1038.75	0.17
303.15	0.1307	0.75	1039.11	0.15
303.15	0.1487	0.75	1039.43	0.282
303.15	0	0.75	1036.64	0.38
308.15	0.01678	0.75	1033.21	0.198
308.15	0.02256	0.75	1033.32	0.232
308.15	0.02941	0.75	1033.46	0.269
308.15	0.03776	0.75	1033.62	0.239
308.15	0.04738	0.75	1033.81	0.224
308.15	0.06013	0.75	1034.05	0.156
308.15	0.07772	0.75	1034.38	0.148
308.15	0.0946	0.75	1034.68	0.148
308.15	0.1106	0.75	1034.97	0.168
308.15	0.1307	0.75	1035.33	0.148
308.15	0.1487	0.75	1035.65	0.273
308.15	0	0.75	1032.87	0.371
313.15	0.01678	0.75	1029.39	0.193
313.15	0.02256	0.75	1029.5	0.226
313.15	0.02941	0.75	1029.64	0.261
313.15	0.03776	0.75	1029.8	0.232
313.15	0.04738	0.75	1029.99	0.218
313.15	0.06013	0.75	1030.23	0.153
313.15	0.07772	0.75	1030.56	0.147
313.15	0.0946	0.75	1030.86	0.147
313.15	0.1106	0.75	1031.15	0.166
313.15	0.1307	0.75	1031.51	0.147
313.15	0.1487	0.75	1031.83	0.266
313.15	0	0.75	1029.05	0.361
318.15	0.01678	0.75	1025.53	0.222
318.15	0.02256	0.75	1025.64	0.182
318.15	0.02941	0.75	1025.78	0.207
318.15	0.03776	0.75	1025.94	0.193
318.15	0.04738	0.75	1026.13	0.179
318.15	0.06013	0.75	1026.37	0.144
318.15	0.07772	0.75	1026.7	0.146
318.15	0.0946	0.75	1027	0.146
318.15	0.1106	0.75	1027.29	0.167
318.15	0.1307	0.75	1027.65	0.146
318.15	0.1487	0.75	1027.96	0.409
318.15	0	0.75	1025.19	0.53
288.15	0.01681	1	1040.13	0.152
288.15	0.0228	1	1040.25	0.151
288.15	0.02985	1	1040.4	0.151
288.15	0.03823	1	1040.57	0.151
288.15	0.0504	1	1040.81	0.151
288.15	0.06162	1	1041.04	0.151
288.15	0.08083	1	1041.41	0.151
288.15	0.09848	1	1041.74	0.151
288.15	0.1152	1	1042.05	0.151
288.15	0.135	1	1042.42	0.151
288.15	0.1532	1	1042.73	0.15
288.15	0	1	1039.77	0.152
293.15	0.01681	1	1036.52	0.15
293.15	0.0228	1	1036.65	0.15
293.15	0.02985	1	1036.79	0.15
293.15	0.03823	1	1036.96	0.15
293.15	0.0504	1	1037.2	0.15
293.15	0.06162	1	1037.42	0.15
293.15	0.08083	1	1037.8	0.15
293.15	0.09848	1	1038.13	0.15
293.15	0.1152	1	1038.44	0.15
293.15	0.135	1	1038.81	0.15
293.15	0.1532	1	1039.13	0.149
293.15	0	1	1036.16	0.151
298.15	0.01681	1	1032.85	0.149
298.15	0.0228	1	1032.98	0.149
298.15	0.02985	1	1033.12	0.149
298.15	0.03823	1	1033.29	0.149
298.15	0.0504	1	1033.53	0.149
298.15	0.06162	1	1033.76	0.149
298.15	0.08083	1	1034.14	0.149
298.15	0.09848	1	1034.47	0.148
298.15	0.1152	1	1034.78	0.148
298.15	0.135	1	1035.15	0.148
298.15	0.1532	1	1035.47	0.148
298.15	0	1	1032.49	0.15
303.15	0.01681	1	1029.14	0.148
303.15	0.0228	1	1029.27	0.148
303.15	0.02985	1	1029.42	0.148
303.15	0.03823	1	1029.59	0.148
303.15	0.0504	1	1029.84	0.148
303.15	0.06162	1	1030.06	0.148
303.15	0.08083	1	1030.44	0.148
303.15	0.09848	1	1030.79	0.147
303.15	0.1152	1	1031.09	0.147
303.15	0.135	1	1031.46	0.147
303.15	0.1532	1	1031.79	0.147
303.15	0	1	1028.78	0.149
308.15	0.01681	1	1025.39	0.147
308.15	0.0228	1	1025.53	0.148
308.15	0.02985	1	1025.68	0.147
308.15	0.03823	1	1025.85	0.147
308.15	0.0504	1	1026.1	0.147
308.15	0.06162	1	1026.33	0.147
308.15	0.08083	1	1026.71	0.147
308.15	0.09848	1	1027.06	0.146
308.15	0.1152	1	1027.36	0.146
308.15	0.135	1	1027.73	0.146
308.15	0.1532	1	1028.07	0.146
308.15	0	1	1025.03	0.147
313.15	0.01681	1	1021.62	0.146
313.15	0.0228	1	1021.75	0.146
313.15	0.02985	1	1021.9	0.146
313.15	0.03823	1	1022.08	0.146
313.15	0.0504	1	1022.33	0.146
313.15	0.06162	1	1022.56	0.145
313.15	0.08083	1	1022.94	0.145
313.15	0.09848	1	1023.3	0.145
313.15	0.1152	1	1023.6	0.145
313.15	0.135	1	1023.98	0.145
313.15	0.1532	1	1024.32	0.145
313.15	0	1	1021.25	0.147
318.15	0.01681	1	1017.8	0.145
318.15	0.0228	1	1017.94	0.145
318.15	0.02985	1	1018.09	0.145
318.15	0.03823	1	1018.27	0.145
318.15	0.0504	1	1018.53	0.144
318.15	0.06162	1	1018.75	0.144
318.15	0.08083	1	1019.13	0.144
318.15	0.09848	1	1019.5	0.144
318.15	0.1152	1	1019.8	0.144
318.15	0.135	1	1020.19	0.144
318.15	0.1532	1	1020.53	0.144
318.15	0	1	1017.43	0.145

System: 1,2-propanediol + tetrapropylammonium bromide + water; phases: Liquid
Fixed: Pressure, kPa = 100
Fixed: Temperature, K = 298.15
Property: Speed of sound, m/s (Liquid); method: Pulse-echo method
Molality, mol/kg of tetrapropylammonium bromide	Solvent: Mass fraction of 1,2-propanediol	Speed of sound, m/s	uncertainty
0.01618	0	1499.49	1
0.02208	0	1500.49	1
0.0287	0	1501.6	1
0.037	0	1503.01	1
0.04631	0	1504.56	1
0.05791	0	1506.5	1
0.07524	0	1509.37	1
0.0912	0	1511.93	1
0.1071	0	1514.5	1
0.1272	0	1517.74	1
0.1446	0	1520.53	1
0.01734	0.25	1642.04	9.83
0.02323	0.25	1642.76	1.13
0.03053	0.25	1643.61	1.02
0.03915	0.25	1644.62	1
0.04851	0.25	1645.73	1.11
0.06184	0.25	1647.32	1.13
0.08013	0.25	1649.35	1
0.09668	0.25	1651.22	2.11
0.1135	0.25	1653.09	2.29
0.1351	0.25	1655.48	1.93
0.1531	0.25	1657.43	2.07
0.01833	0.5	1701.12	8.37
0.02479	0.5	1701.49	3.31
0.0332	0.5	1701.85	3.19
0.04218	0.5	1702.21	3.14
0.05199	0.5	1702.57	2.68
0.06588	0.5	1703.29	1.91
0.08536	0.5	1704.02	1.8
0.1038	0.5	1704.74	1.01
0.1211	0.5	1705.2	2.45
0.1442	0.5	1705.83	1.01
0.1643	0.5	1706.55	1.47
0.02256	0.75	1640.92	5.62
0.02941	0.75	1641.12	1.47
0.03776	0.75	1641.35	1.38
0.04738	0.75	1641.59	1.3
0.06013	0.75	1641.88	1.04
0.07772	0.75	1642.27	0.99
0.0946	0.75	1642.6	0.99
0.1106	0.75	1642.9	0.99
0.1307	0.75	1643.27	0.99
0.1487	0.75	1643.61	2.62
0.02279	1	1509.85	0.95
0.02985	1	1510.2	0.95
0.03823	1	1510.51	0.95
0.05044	1	1511.08	0.95
0.06162	1	1511.48	0.95
0.08083	1	1512.22	0.95
0.09847	1	1512.9	0.95
0.1152	1	1513.54	0.95
0.135	1	1514.22	0.95
0.1532	1	1514.79	0.95

System: 1,2-propanediol + tetrabutylammonium bromide + water; phases: Liquid
Fixed: Pressure, kPa = 100
Property: Mass density, kg/m3 (Liquid); method: Vibrating tube method
Temperature, K	Molality, mol/kg of tetrabutylammonium bromide	Solvent: Mass fraction of 1,2-propanediol	Mass density, kg/m3	uncertainty
288.15	0.01572	0	999.49	0.141
288.15	0.02172	0	999.64	0.14
288.15	0.02808	0	999.79	0.141
288.15	0.03597	0	999.99	0.141
288.15	0.04541	0	1000.22	0.141
288.15	0.05713	0	1000.51	0.141
288.15	0.07361	0	1000.91	0.141
288.15	0.08955	0	1001.31	0.141
288.15	0.1051	0	1001.69	0.141
288.15	0.1248	0	1002.19	0.142
288.15	0.1416	0	1002.6	0.141
288.15	0	0	999.1	0.141
293.15	0.01572	0	998.58	0.139
293.15	0.02172	0	998.72	0.14
293.15	0.02808	0	998.87	0.141
293.15	0.03597	0	999.06	0.141
293.15	0.04541	0	999.28	0.14
293.15	0.05713	0	999.55	0.14
293.15	0.07361	0	999.93	0.14
293.15	0.08955	0	1000.32	0.14
293.15	0.1051	0	1000.68	0.141
293.15	0.1248	0	1001.16	0.14
293.15	0.1416	0	1001.55	0.137
293.15	0	0	998.21	0.145
298.15	0.01572	0	997.39	0.139
298.15	0.02172	0	997.53	0.14
298.15	0.02808	0	997.68	0.141
298.15	0.03597	0	997.86	0.14
298.15	0.04541	0	998.07	0.14
298.15	0.05713	0	998.34	0.14
298.15	0.07361	0	998.7	0.139
298.15	0.08955	0	999.07	0.139
298.15	0.1051	0	999.41	0.14
298.15	0.1248	0	999.87	0.139
298.15	0.1416	0	1000.24	0.137
298.15	0	0	997.04	0.143
303.15	0.01572	0	995.98	0.138
303.15	0.02172	0	996.11	0.14
303.15	0.02808	0	996.25	0.14
303.15	0.03597	0	996.42	0.14
303.15	0.04541	0	996.63	0.14
303.15	0.05713	0	996.88	0.139
303.15	0.07361	0	997.23	0.139
303.15	0.08955	0	997.58	0.139
303.15	0.1051	0	997.91	0.139
303.15	0.1248	0	998.35	0.139
303.15	0.1416	0	998.71	0.136
303.15	0	0	995.65	0.142
308.15	0.01572	0	994.35	0.138
308.15	0.02172	0	994.48	0.139
308.15	0.02808	0	994.61	0.14
308.15	0.03597	0	994.78	0.139
308.15	0.04541	0	994.97	0.139
308.15	0.05713	0	995.21	0.139
308.15	0.07361	0	995.55	0.139
308.15	0.08955	0	995.88	0.139
308.15	0.1051	0	996.2	0.139
308.15	0.1248	0	996.62	0.139
308.15	0.1416	0	996.96	0.136
308.15	0	0	994.03	0.142
313.15	0.01572	0	992.52	0.138
313.15	0.02172	0	992.64	0.139
313.15	0.02808	0	992.77	0.139
313.15	0.03597	0	992.93	0.139
313.15	0.04541	0	993.12	0.139
313.15	0.05713	0	993.35	0.139
313.15	0.07361	0	993.68	0.139
313.15	0.08955	0	993.99	0.138
313.15	0.1051	0	994.29	0.139
313.15	0.1248	0	994.69	0.139
313.15	0.1416	0	995.02	0.136
313.15	0	0	992.21	0.141
318.15	0.01572	0	990.5	0.139
318.15	0.02172	0	990.62	0.139
318.15	0.02808	0	990.74	0.139
318.15	0.03597	0	990.89	0.139
318.15	0.04541	0	991.07	0.139
318.15	0.05713	0	991.29	0.139
318.15	0.07361	0	991.6	0.139
318.15	0.08955	0	991.9	0.138
318.15	0.1051	0	992.19	0.139
318.15	0.1248	0	992.57	0.139
318.15	0.1416	0	992.89	0.138
318.15	0	0	990.21	0.139
288.15	0.01428	0.25	1021.36	0.139
288.15	0.01985	0.25	1021.5	0.139
288.15	0.02606	0.25	1021.66	0.139
288.15	0.03327	0.25	1021.84	0.139
288.15	0.04258	0.25	1022.08	0.141
288.15	0.05362	0.25	1022.36	0.141
288.15	0.06796	0.25	1022.71	0.185
288.15	0.08315	0.25	1023.08	0.208
288.15	0.0975	0.25	1023.43	0.148
288.15	0.1166	0.25	1023.89	0.142
288.15	0.1323	0.25	1024.27	0.148
288.15	0	0.25	1020.98	0.192
293.15	0.01428	0.25	1019.44	0.138
293.15	0.01985	0.25	1019.57	0.142
293.15	0.02606	0.25	1019.72	0.139
293.15	0.03327	0.25	1019.89	0.139
293.15	0.04258	0.25	1020.11	0.139
293.15	0.05362	0.25	1020.37	0.139
293.15	0.06796	0.25	1020.7	0.204
293.15	0.08315	0.25	1021.03	0.228
293.15	0.0975	0.25	1021.35	0.146
293.15	0.1166	0.25	1021.8	0.142
293.15	0.1323	0.25	1022.15	0.144
293.15	0	0.25	1019.09	0.176
298.15	0.01428	0.25	1017.34	0.138
298.15	0.01985	0.25	1017.47	0.144
298.15	0.02606	0.25	1017.61	0.14
298.15	0.03327	0.25	1017.77	0.139
298.15	0.04258	0.25	1017.97	0.138
298.15	0.05362	0.25	1018.21	0.138
298.15	0.06796	0.25	1018.51	0.202
298.15	0.08315	0.25	1018.83	0.224
298.15	0.0975	0.25	1019.13	0.144
298.15	0.1166	0.25	1019.53	0.141
298.15	0.1323	0.25	1019.85	0.143
298.15	0	0.25	1017.02	0.177
303.15	0.01428	0.25	1015.08	0.137
303.15	0.01985	0.25	1015.2	0.147
303.15	0.02606	0.25	1015.33	0.142
303.15	0.03327	0.25	1015.48	0.14
303.15	0.04258	0.25	1015.67	0.137
303.15	0.05362	0.25	1015.89	0.137
303.15	0.06796	0.25	1016.17	0.201
303.15	0.08315	0.25	1016.46	0.223
303.15	0.0975	0.25	1016.74	0.143
303.15	0.1166	0.25	1017.11	0.141
303.15	0.1323	0.25	1017.41	0.141
303.15	0	0.25	1014.78	0.178
308.15	0.01428	0.25	1012.67	0.137
308.15	0.01985	0.25	1012.77	0.151
308.15	0.02606	0.25	1012.89	0.143
308.15	0.03327	0.25	1013.03	0.141
308.15	0.04258	0.25	1013.2	0.137
308.15	0.05362	0.25	1013.41	0.136
308.15	0.06796	0.25	1013.67	0.2
308.15	0.08315	0.25	1013.94	0.22
308.15	0.0975	0.25	1014.2	0.141
308.15	0.1166	0.25	1014.54	0.14
308.15	0.1323	0.25	1014.82	0.14
308.15	0	0.25	1012.38	0.18
313.15	0.01428	0.25	1010.1	0.137
313.15	0.01985	0.25	1010.2	0.154
313.15	0.02606	0.25	1010.31	0.145
313.15	0.03327	0.25	1010.44	0.142
313.15	0.04258	0.25	1010.6	0.136
313.15	0.05362	0.25	1010.79	0.136
313.15	0.06796	0.25	1011.04	0.198
313.15	0.08315	0.25	1011.29	0.218
313.15	0.0975	0.25	1011.53	0.14
313.15	0.1166	0.25	1011.85	0.14
313.15	0.1323	0.25	1012.1	0.138
313.15	0	0.25	1009.84	0.18
318.15	0.01428	0.25	1007.4	0.14
318.15	0.01985	0.25	1007.49	0.149
318.15	0.02606	0.25	1007.59	0.141
318.15	0.03327	0.25	1007.71	0.139
318.15	0.04258	0.25	1007.86	0.135
318.15	0.05362	0.25	1008.04	0.135
318.15	0.06796	0.25	1008.26	0.18
318.15	0.08315	0.25	1008.49	0.199
318.15	0.0975	0.25	1008.71	0.139
318.15	0.1166	0.25	1009.02	0.14
318.15	0.1323	0.25	1009.25	0.138
318.15	0	0.25	1007.15	0.22
288.15	0.01594	0.5	1041.36	0.187
288.15	0.02216	0.5	1041.44	0.329
288.15	0.02841	0.5	1041.51	0.376
288.15	0.03683	0.5	1041.61	0.291
288.15	0.04533	0.5	1041.7	0.226
288.15	0.05773	0.5	1041.84	0.201
288.15	0.07547	0.5	1042.03	0.148
288.15	0.09038	0.5	1042.19	0.148
288.15	0.1066	0.5	1042.36	0.148
288.15	0.1265	0.5	1042.57	0.157
288.15	0.1447	0.5	1042.73	0.147
288.15	0	0.5	1041.16	0.614
293.15	0.01594	0.5	1038.2	0.152
293.15	0.02216	0.5	1038.27	0.355
293.15	0.02841	0.5	1038.34	0.369
293.15	0.03683	0.5	1038.43	0.311
293.15	0.04533	0.5	1038.52	0.207
293.15	0.05773	0.5	1038.64	0.191
293.15	0.07547	0.5	1038.82	0.146
293.15	0.09038	0.5	1038.97	0.146
293.15	0.1066	0.5	1039.13	0.146
293.15	0.1265	0.5	1039.32	0.159
293.15	0.1447	0.5	1039.46	0.146
293.15	0	0.5	1038.01	0.378
298.15	0.01594	0.5	1034.95	0.15
298.15	0.02216	0.5	1035.02	0.338
298.15	0.02841	0.5	1035.08	0.35
298.15	0.03683	0.5	1035.17	0.297
298.15	0.04533	0.5	1035.25	0.2
298.15	0.05773	0.5	1035.36	0.186
298.15	0.07547	0.5	1035.53	0.145
298.15	0.09038	0.5	1035.67	0.145
298.15	0.1066	0.5	1035.81	0.145
298.15	0.1265	0.5	1035.99	0.157
298.15	0.1447	0.5	1036.11	0.145
298.15	0	0.5	1034.78	0.359
303.15	0.01594	0.5	1031.64	0.149
303.15	0.02216	0.5	1031.7	0.321
303.15	0.02841	0.5	1031.75	0.333
303.15	0.03683	0.5	1031.83	0.284
303.15	0.04533	0.5	1031.91	0.195
303.15	0.05773	0.5	1032.02	0.181
303.15	0.07547	0.5	1032.17	0.144
303.15	0.09038	0.5	1032.297	0.144
303.15	0.1066	0.5	1032.43	0.144
303.15	0.1265	0.5	1032.59	0.154
303.15	0.1447	0.5	1032.71	0.143
303.15	0	0.5	1031.48	0.342
308.15	0.01594	0.5	1028.25	0.148
308.15	0.02216	0.5	1028.31	0.308
308.15	0.02841	0.5	1028.36	0.318
308.15	0.03683	0.5	1028.43	0.271
308.15	0.04533	0.5	1028.5	0.189
308.15	0.05773	0.5	1028.6	0.176
308.15	0.07547	0.5	1028.74	0.142
308.15	0.09038	0.5	1028.86	0.143
308.15	0.1066	0.5	1028.98	0.143
308.15	0.1265	0.5	1029.13	0.152
308.15	0.1447	0.5	1029.24	0.142
308.15	0	0.5	1028.11	0.327
313.15	0.01594	0.5	1024.79	0.146
313.15	0.02216	0.5	1024.84	0.294
313.15	0.02841	0.5	1024.89	0.305
313.15	0.03683	0.5	1024.95	0.259
313.15	0.04533	0.5	1025.01	0.184
313.15	0.05773	0.5	1025.11	0.172
313.15	0.07547	0.5	1025.24	0.141
313.15	0.09038	0.5	1025.34	0.141
313.15	0.1066	0.5	1025.46	0.141
313.15	0.1265	0.5	1025.6	0.15
313.15	0.1447	0.5	1025.7	0.141
313.15	0	0.5	1024.65	0.313
318.15	0.01594	0.5	1021.25	0.165
318.15	0.02216	0.5	1021.29	0.253
318.15	0.02841	0.5	1021.34	0.285
318.15	0.03683	0.5	1021.4	0.228
318.15	0.04533	0.5	1021.46	0.186
318.15	0.05773	0.5	1021.54	0.171
318.15	0.07547	0.5	1021.66	0.14
318.15	0.09038	0.5	1021.76	0.14
318.15	0.1066	0.5	1021.87	0.14
318.15	0.1265	0.5	1022	0.147
318.15	0.1447	0.5	1022.09	0.14
318.15	0	0.5	1021.12	0.453
288.15	0.0158	0.75	1047.74	0.25
288.15	0.02183	0.75	1047.76	0.15
288.15	0.02764	0.75	1047.78	0.16
288.15	0.03625	0.75	1047.81	0.16
288.15	0.04644	0.75	1047.84	0.16
288.15	0.05849	0.75	1047.87	0.16
288.15	0.07464	0.75	1047.91	0.16
288.15	0.09041	0.75	1047.95	0.15
288.15	0.1064	0.75	1047.99	0.15
288.15	0.1271	0.75	1048.04	0.15
288.15	0.1446	0.75	1048.08	0.15
288.15	0	0.75	1047.67	0.63
293.15	0.0158	0.75	1044.11	0.2
293.15	0.02183	0.75	1044.13	0.15
293.15	0.02764	0.75	1044.14	0.2
293.15	0.03625	0.75	1044.17	0.17
293.15	0.04644	0.75	1044.2	0.15
293.15	0.05849	0.75	1044.23	0.15
293.15	0.07464	0.75	1044.27	0.17
293.15	0.09041	0.75	1044.31	0.15
293.15	0.1064	0.75	1044.35	0.15
293.15	0.1271	0.75	1044.39	0.15
293.15	0.1446	0.75	1044.43	0.15
293.15	0	0.75	1044.04	0.39
298.15	0.0158	0.75	1040.43	0.2
298.15	0.02183	0.75	1040.45	0.15
298.15	0.02764	0.75	1040.47	0.2
298.15	0.03625	0.75	1040.49	0.17
298.15	0.04644	0.75	1040.52	0.15
298.15	0.05849	0.75	1040.55	0.15
298.15	0.07464	0.75	1040.6	0.17
298.15	0.09041	0.75	1040.63	0.15
298.15	0.1064	0.75	1040.66	0.15
298.15	0.1271	0.75	1040.7	0.15
298.15	0.1446	0.75	1040.74	0.15
298.15	0	0.75	1040.36	0.38
303.15	0.0158	0.75	1036.7	0.19
303.15	0.02183	0.75	1036.72	0.15
303.15	0.02764	0.75	1036.74	0.2
303.15	0.03625	0.75	1036.76	0.17
303.15	0.04644	0.75	1036.79	0.15
303.15	0.05849	0.75	1036.82	0.15
303.15	0.07464	0.75	1036.86	0.16
303.15	0.09041	0.75	1036.9	0.14
303.15	0.1064	0.75	1036.93	0.14
303.15	0.1271	0.75	1036.98	0.14
303.15	0.1446	0.75	1037.01	0.14
303.15	0	0.75	1036.64	0.37
308.15	0.0158	0.75	1032.93	0.19
308.15	0.02183	0.75	1032.95	0.14
308.15	0.02764	0.75	1032.97	0.19
308.15	0.03625	0.75	1032.99	0.16
308.15	0.04644	0.75	1033.02	0.15
308.15	0.05849	0.75	1033.05	0.15
308.15	0.07464	0.75	1033.09	0.16
308.15	0.09041	0.75	1033.12	0.14
308.15	0.1064	0.75	1033.15	0.14
308.15	0.1271	0.75	1033.19	0.14
308.15	0.1446	0.75	1033.23	0.14
308.15	0	0.75	1032.88	0.36
313.15	0.0158	0.75	1029.11	0.19
313.15	0.02183	0.75	1029.14	0.14
313.15	0.02764	0.75	1029.15	0.19
313.15	0.03625	0.75	1029.18	0.16
313.15	0.04644	0.75	1029.21	0.15
313.15	0.05849	0.75	1029.24	0.15
313.15	0.07464	0.75	1029.27	0.16
313.15	0.09041	0.75	1029.31	0.14
313.15	0.1064	0.75	1029.34	0.14
313.15	0.1271	0.75	1029.38	0.14
313.15	0.1446	0.75	1029.41	0.14
313.15	0	0.75	1029.06	0.35
318.15	0.0158	0.75	1025.25	0.22
318.15	0.02183	0.75	1025.27	0.14
318.15	0.02764	0.75	1025.29	0.15
318.15	0.03625	0.75	1025.32	0.15
318.15	0.04644	0.75	1025.35	0.15
318.15	0.05849	0.75	1025.38	0.15
318.15	0.07464	0.75	1025.43	0.15
318.15	0.09041	0.75	1025.46	0.14
318.15	0.1064	0.75	1025.49	0.14
318.15	0.1271	0.75	1025.52	0.14
318.15	0.1446	0.75	1025.54	0.14
318.15	0	0.75	1025.19	0.53
288.15	0.01582	1	1039.87	0.15
288.15	0.01829	1	1039.88	0.15
288.15	0.02164	1	1039.9	0.15
288.15	0.02961	1	1039.95	0.15
288.15	0.03804	1	1040	0.15
288.15	0.04728	1	1040.06	0.15
288.15	0.05314	1	1040.09	0.15
288.15	0.05937	1	1040.1	0.15
288.15	0.07842	1	1040.2	0.15
288.15	0.09719	1	1040.28	0.15
288.15	0.1142	1	1040.34	0.15
288.15	0.13404	1	1040.43	0.15
288.15	0.1528	1	1040.49	0.15
288.15	0	1	1039.77	0.15
293.15	0.01582	1	1036.26	0.15
293.15	0.01829	1	1036.27	0.14
293.15	0.02164	1	1036.29	0.15
293.15	0.02961	1	1036.34	0.14
293.15	0.03804	1	1036.39	0.14
293.15	0.04728	1	1036.45	0.14
293.15	0.05314	1	1036.46	0.14
293.15	0.05937	1	1036.5	0.14
293.15	0.07842	1	1036.59	0.14
293.15	0.09719	1	1036.66	0.14
293.15	0.1142	1	1036.73	0.14
293.15	0.13404	1	1036.82	0.14
293.15	0.1528	1	1036.9	0.14
293.15	0	1	1036.16	0.15
298.15	0.01582	1	1032.58	0.14
298.15	0.01829	1	1032.59	0.14
298.15	0.02164	1	1032.62	0.14
298.15	0.02961	1	1032.67	0.14
298.15	0.03804	1	1032.72	0.14
298.15	0.04728	1	1032.77	0.14
298.15	0.05314	1	1032.79	0.14
298.15	0.05937	1	1032.83	0.14
298.15	0.07842	1	1032.92	0.14
298.15	0.09719	1	1033	0.14
298.15	0.1142	1	1033.06	0.14
298.15	0.13404	1	1033.15	0.14
298.15	0.1528	1	1033.23	0.14
298.15	0	1	1032.48	0.14
303.15	0.01582	1	1028.88	0.14
303.15	0.01829	1	1028.89	0.14
303.15	0.02164	1	1028.92	0.14
303.15	0.02961	1	1028.97	0.14
303.15	0.03804	1	1029.02	0.14
303.15	0.04728	1	1029.07	0.14
303.15	0.05314	1	1029.08	0.14
303.15	0.05937	1	1029.13	0.14
303.15	0.07842	1	1029.22	0.14
303.15	0.09719	1	1029.3	0.14
303.15	0.1142	1	1029.37	0.14
303.15	0.13404	1	1029.46	0.14
303.15	0.1528	1	1029.54	0.14
303.15	0	1	1028.77	0.14
308.15	0.01582	1	1025.14	0.14
308.15	0.01829	1	1025.15	0.14
308.15	0.02164	1	1025.18	0.14
308.15	0.02961	1	1025.23	0.14
308.15	0.03804	1	1025.28	0.14
308.15	0.04728	1	1025.33	0.14
308.15	0.05314	1	1025.35	0.14
308.15	0.05937	1	1025.39	0.14
308.15	0.07842	1	1025.49	0.14
308.15	0.09719	1	1025.57	0.14
308.15	0.1142	1	1025.64	0.17
308.15	0.13404	1	1027.4	0.14
308.15	0.1528	1	1025.81	0.22
308.15	0	1	1025.03	0.14
313.15	0.01582	1	1021.36	0.14
313.15	0.01829	1	1021.37	0.14
313.15	0.02164	1	1021.4	0.14
313.15	0.02961	1	1021.45	0.14
313.15	0.03804	1	1021.5	0.14
313.15	0.04728	1	1021.55	0.14
313.15	0.05314	1	1021.58	0.14
313.15	0.05937	1	1021.62	0.14
313.15	0.07842	1	1021.72	0.14
313.15	0.09719	1	1021.8	0.14
313.15	0.1142	1	1021.88	0.14
313.15	0.13404	1	1021.98	0.14
313.15	0.1528	1	1022.06	0.14
313.15	0	1	1021.24	0.14
318.15	0.01582	1	1017.54	0.14
318.15	0.01829	1	1017.56	0.14
318.15	0.02164	1	1017.58	0.14
318.15	0.02961	1	1017.63	0.14
318.15	0.03804	1	1017.69	0.14
318.15	0.04728	1	1017.75	0.14
318.15	0.05314	1	1017.76	0.14
318.15	0.05937	1	1017.81	0.14
318.15	0.07842	1	1017.91	0.14
318.15	0.09719	1	1018	0.14
318.15	0.1142	1	1018.08	0.14
318.15	0.13404	1	1018.18	0.14
318.15	0.1528	1	1018.27	0.14
318.15	0	1	1017.42	0.14

System: 1,2-propanediol + tetrabutylammonium bromide + water; phases: Liquid
Fixed: Pressure, kPa = 100
Fixed: Temperature, K = 298.15
Property: Speed of sound, m/s (Liquid); method: Pulse-echo method
Molality, mol/kg of tetrabutylammonium bromide	Solvent: Mass fraction of 1,2-propanediol	Speed of sound, m/s	uncertainty
0.01572	0	1500.44	1.05
0.02172	0	1501.84	1.05
0.02808	0	1503.3	1.05
0.03597	0	1505.12	1.05
0.04541	0	1507.29	1.05
0.05713	0	1509.94	1.04
0.07361	0	1513.64	1.04
0.08955	0	1517.08	1.04
0.1051	0	1520.53	1.04
0.1248	0	1524.56	1.06
0.1416	0	1529.34	1.11
0.01428	0.25	1641.98	14.19
0.01985	0.25	1642.75	4.82
0.02606	0.25	1643.61	3.42
0.03327	0.25	1644.62	3.05
0.04258	0.25	1645.83	2.52
0.05362	0.25	1647.32	1.87
0.06796	0.25	1649.06	2.52
0.08315	0.25	1651.05	2.94
0.0975	0.25	1652.75	1
0.1166	0.25	1655.14	1.29
0.1323	0.25	1657.09	1.68
0.0158	0.75	1639.64	19.03
0.02183	0.75	1639.44	9.54
0.02764	0.75	1639.24	1
0.03625	0.75	1639	1.02
0.04644	0.75	1638.67	1.37
0.05849	0.75	1638.33	1.43
0.07464	0.75	1637.9	1
0.09041	0.75	1637.57	2.44
0.1064	0.75	1637.23	1
0.1271	0.75	1636.9	1.92
0.1446	0.75	1636.57	0.99
0.02961	1	1509.37	0.94
0.03804	1	1509.52	0.94
0.04728	1	1509.66	0.94
0.05314	1	1509.8	0.94
0.05937	1	1509.92	0.94
0.07842	1	1510.22	0.94
0.09719	1	1510.5	0.94
0.1142	1	1510.79	0.94
0.134	1	1511.08	0.94
0.1528	1	1511.36	0.94

System: tetramethylammonium bromide + water; phases: Liquid
Fixed: Pressure, kPa = 100
Property: Mass density, kg/m3 (Liquid); method: Vibrating tube method
Temperature, K	Molality, mol/kg of tetramethylammonium bromide	Mass density, kg/m3	uncertainty
288.15	0.01656	999.77	0.13
288.15	0.02243	1000.01	0.13
288.15	0.02892	1000.28	0.13
288.15	0.03698	1000.6	0.13
288.15	0.04656	1000.99	0.13
288.15	0.05827	1001.47	0.13
288.15	0.0748	1002.14	0.13
288.15	0.09027	1002.76	0.13
288.15	0.1058	1003.38	0.13
288.15	0.1246	1004.14	0.13
288.15	0.1407	1004.79	0.13
293.15	0.01656	998.88	0.15
293.15	0.02243	999.11	0.13
293.15	0.02892	999.37	0.13
293.15	0.03698	999.7	0.13
293.15	0.04656	1000.08	0.13
293.15	0.05827	1000.55	0.13
293.15	0.0748	1001.21	0.13
293.15	0.09027	1001.83	0.13
293.15	0.1058	1002.45	0.13
293.15	0.1246	1003.19	0.13
293.15	0.1407	1003.83	0.13
298.15	0.01656	997.71	0.15
298.15	0.02243	997.94	0.13
298.15	0.02892	998.2	0.13
298.15	0.03698	998.52	0.13
298.15	0.04656	998.9	0.13
298.15	0.05827	999.36	0.13
298.15	0.0748	1000.01	0.13
298.15	0.09027	1000.62	0.13
298.15	0.1058	1001.23	0.13
298.15	0.1246	1001.97	0.13
298.15	0.1407	1002.6	0.13
303.15	0.01656	996.3	0.15
303.15	0.02243	996.53	0.13
303.15	0.02892	996.79	0.13
303.15	0.03698	997.11	0.13
303.15	0.04656	997.48	0.13
303.15	0.05827	997.94	0.13
303.15	0.0748	998.59	0.13
303.15	0.09027	999.19	0.13
303.15	0.1058	999.8	0.13
303.15	0.1246	1000.53	0.13
303.15	0.1407	1001.16	0.13
308.15	0.01656	994.68	0.15
308.15	0.02243	994.91	0.13
308.15	0.02892	995.16	0.13
308.15	0.03698	995.48	0.13
308.15	0.04656	995.85	0.13
308.15	0.05827	996.31	0.13
308.15	0.0748	996.95	0.13
308.15	0.09027	997.55	0.13
308.15	0.1058	998.15	0.13
308.15	0.1246	998.88	0.13
308.15	0.1407	999.51	0.13
313.15	0.01656	992.86	0.15
313.15	0.02243	993.09	0.13
313.15	0.02892	993.34	0.13
313.15	0.03698	993.66	0.13
313.15	0.04656	994.03	0.13
313.15	0.05827	994.48	0.13
313.15	0.0748	995.12	0.13
313.15	0.09027	995.72	0.13
313.15	0.1058	996.31	0.13
313.15	0.1246	997.04	0.13
313.15	0.1407	997.65	0.13
318.15	0.01656	990.86	0.13
318.15	0.02243	991.08	0.13
318.15	0.02892	991.33	0.13
318.15	0.03698	991.65	0.13
318.15	0.04656	992.01	0.13
318.15	0.05827	992.46	0.13
318.15	0.0748	993.1	0.13
318.15	0.09027	993.69	0.13
318.15	0.1058	994.29	0.13
318.15	0.1246	995.01	0.13
318.15	0.1407	995.62	0.13

System: tetramethylammonium bromide + water; phases: Liquid
Fixed: Pressure, kPa = 100
Fixed: Temperature, K = 298.15
Property: Speed of sound, m/s (Liquid); method: Pulse-echo method
Molality, mol/kg of tetramethylammonium bromide	Speed of sound, m/s	uncertainty
0.01656	1497.7	0.78
0.02243	1498.05	0.78
0.02892	1498.44	0.79
0.03698	1498.95	0.79
0.04656	1499.5	0.79
0.05827	1500.2	0.79
0.0748	1501.13	0.79
0.09027	1502.02	0.79
0.1058	1502.87	0.79
0.1246	1503.99	0.79
0.1407	1504.84	0.78

System: 1,2-propanediol + water; phases: Liquid
Fixed: Pressure, kPa = 100
Property: Mass density, kg/m3 (Liquid); method: Vibrating tube method
Temperature, K	Mass fraction of 1,2-propanediol	Mass density, kg/m3	uncertainty
288.15	0.25	1020.98	0.11
293.15	0.25	1019.08	0.11
298.15	0.25	1017.01	0.11
303.15	0.25	1014.78	0.11
308.15	0.25	1012.38	0.11
313.15	0.25	1009.84	0.11
318.15	0.25	1007.15	0.11
288.15	0.5	1041.16	0.12
293.15	0.5	1038.02	0.12
298.15	0.5	1034.79	0.12
303.15	0.5	1031.49	0.12
308.15	0.5	1028.11	0.12
313.15	0.5	1024.66	0.12
318.15	0.5	1021.13	0.12
288.15	0.75	1047.67	0.13
293.15	0.75	1044.04	0.13
298.15	0.75	1040.37	0.13
303.15	0.75	1036.64	0.13
308.15	0.75	1032.88	0.13
313.15	0.75	1029.06	0.12
318.15	0.75	1025.19	0.12
288.15	0.25	1020.99	0.114
293.15	0.25	1019.1	0.113
298.15	0.25	1017.02	0.113
303.15	0.25	1014.79	0.112
308.15	0.25	1012.39	0.112
313.15	0.25	1009.85	0.111
293.15	0.25	1019.09	0.113
298.15	0.75	1040.36	0.128
308.15	0.75	1032.87	0.126
313.15	0.75	1029.05	0.125
293.15	0.5	1038.01	0.123
298.15	0.5	1034.78	0.122
303.15	0.5	1031.48	0.121
313.15	0.5	1024.65	0.119
318.15	0.5	1021.12	0.12

System: 1,2-propanediol + water; phases: Liquid
Fixed: Pressure, kPa = 100
Fixed: Temperature, K = 298.15
Property: Speed of sound, m/s (Liquid); method: Pulse-echo method
Mass fraction of 1,2-propanediol	Speed of sound, m/s	uncertainty
0.25	1639.91	0.85
0.5	1700.04	0.9
0.75	1640.25	0.91

System: 1,2-propanediol + tetramethylammonium bromide; phases: Liquid
Fixed: Pressure, kPa = 100
Property: Mass density, kg/m3 (Liquid); method: Vibrating tube method
Temperature, K	Molality, mol/kg of tetramethylammonium bromide	Mass density, kg/m3	uncertainty
288.15	0.0189	1040.6	0.16
288.15	0.02403	1040.83	0.16
288.15	0.03096	1041.13	0.16
288.15	0.03759	1041.41	0.16
288.15	0.04799	1041.85	0.16
288.15	0.0596	1042.33	0.16
288.15	0.07011	1042.76	0.16
288.15	0.08244	1043.27	0.16
288.15	0.09346	1043.71	0.16
293.15	0.0189	1036.98	0.16
293.15	0.02403	1037.21	0.16
293.15	0.03096	1037.51	0.16
293.15	0.03759	1037.79	0.16
293.15	0.04799	1038.23	0.16
293.15	0.0596	1038.71	0.16
293.15	0.07011	1039.14	0.16
293.15	0.08244	1039.64	0.16
293.15	0.09346	1040.09	0.16
298.15	0.0189	1033.33	0.16
298.15	0.02403	1033.55	0.16
298.15	0.03096	1033.84	0.16
298.15	0.03759	1034.12	0.16
298.15	0.04799	1034.56	0.16
298.15	0.0596	1035.04	0.16
298.15	0.07011	1035.48	0.16
298.15	0.08244	1035.98	0.16
298.15	0.09346	1036.43	0.16
303.15	0.0189	1029.62	0.16
303.15	0.02403	1029.84	0.16
303.15	0.03096	1030.14	0.16
303.15	0.03759	1030.42	0.16
303.15	0.04799	1030.86	0.16
303.15	0.0596	1031.34	0.16
303.15	0.07011	1031.77	0.16
303.15	0.08244	1032.28	0.16
303.15	0.09346	1032.74	0.16
308.15	0.0189	1025.87	0.16
308.15	0.02403	1026.09	0.16
308.15	0.03096	1026.4	0.16
308.15	0.03759	1026.68	0.16
308.15	0.04799	1027.12	0.16
308.15	0.0596	1027.61	0.16
308.15	0.07011	1028.04	0.16
308.15	0.08244	1028.55	0.16
308.15	0.09346	1029.01	0.16
313.15	0.0189	1022.09	0.16
313.15	0.02403	1022.31	0.16
313.15	0.03096	1022.62	0.16
313.15	0.03759	1022.9	0.16
313.15	0.04799	1023.35	0.16
313.15	0.0596	1023.83	0.16
313.15	0.07011	1024.27	0.16
313.15	0.08244	1024.78	0.16
313.15	0.09346	1025.24	0.16
318.15	0.0189	1018.27	0.16
318.15	0.02403	1018.5	0.16
318.15	0.03096	1018.8	0.16
318.15	0.03759	1019.08	0.16
318.15	0.04799	1019.53	0.16
318.15	0.0596	1020.02	0.16
318.15	0.07011	1020.46	0.16
318.15	0.08244	1020.98	0.16
318.15	0.09346	1021.44	0.16

System: 1,2-propanediol + tetramethylammonium bromide; phases: Liquid
Fixed: Pressure, kPa = 100
Fixed: Temperature, K = 298.15
Property: Speed of sound, m/s (Liquid); method: Pulse-echo method
Molality, mol/kg of tetramethylammonium bromide	Speed of sound, m/s	uncertainty
0.0189	1509.94	0.9
0.02403	1510.22	0.91
0.03096	1510.61	0.91
0.03759	1511	0.91
0.04799	1511.6	0.91
0.0596	1512.22	0.91
0.07011	1512.75	0.91
0.08244	1513.36	0.91
0.09346	1513.93	0.91

System: tetraethylammonium bromide + water; phases: Liquid
Fixed: Pressure, kPa = 100
Property: Mass density, kg/m3 (Liquid); method: Vibrating tube method
Temperature, K	Molality, mol/kg of tetraethylammonium bromide	Mass density, kg/m3	uncertainty
288.15	0.01661	999.72	0.132
288.15	0.02227	999.94	0.13
288.15	0.02929	1000.2	0.13
288.15	0.03728	1000.5	0.13
288.15	0.04698	1000.86	0.13
288.15	0.05948	1001.33	0.13
288.15	0.0769	1001.97	0.129
288.15	0.09286	1002.55	0.129
288.15	0.1087	1003.12	0.129
288.15	0.1292	1003.86	0.129
288.15	0.1462	1004.47	0.129
293.15	0.01661	998.82	0.149
293.15	0.02227	999.03	0.132
293.15	0.02929	999.3	0.13
293.15	0.03728	999.59	0.13
293.15	0.04698	999.95	0.13
293.15	0.05948	1000.41	0.13
293.15	0.0769	1001.04	0.128
293.15	0.09286	1001.61	0.128
293.15	0.1087	1002.17	0.129
293.15	0.1292	1002.9	0.128
293.15	0.1462	1003.5	0.123
298.15	0.01661	997.66	0.146
298.15	0.02227	997.86	0.13
298.15	0.02929	998.12	0.13
298.15	0.03728	998.41	0.129
298.15	0.04698	998.76	0.129
298.15	0.05948	999.21	0.129
298.15	0.0769	999.83	0.128
298.15	0.09286	1000.4	0.128
298.15	0.1087	1000.96	0.128
298.15	0.1292	1001.68	0.128
298.15	0.1462	1002.27	0.123
303.15	0.01661	996.25	0.146
303.15	0.02227	996.46	0.13
303.15	0.02929	996.71	0.129
303.15	0.03728	997	0.129
303.15	0.04698	997.35	0.129
303.15	0.05948	997.79	0.129
303.15	0.0769	998.41	0.128
303.15	0.09286	998.97	0.128
303.15	0.1087	999.52	0.128
303.15	0.1292	1000.23	0.127
303.15	0.1462	1000.82	0.123
308.15	0.01661	994.62	0.143
308.15	0.02227	994.83	0.131
308.15	0.02929	995.09	0.129
308.15	0.03728	995.37	0.129
308.15	0.04698	995.72	0.129
308.15	0.05948	996.16	0.128
308.15	0.0769	996.77	0.127
308.15	0.09286	997.32	0.127
308.15	0.1087	997.87	0.127
308.15	0.1292	998.57	0.127
308.15	0.1462	999.15	0.123
313.15	0.01661	992.81	0.144
313.15	0.02227	993.01	0.129
313.15	0.02929	993.26	0.129
313.15	0.03728	993.54	0.129
313.15	0.04698	993.88	0.129
313.15	0.05948	994.32	0.129
313.15	0.0769	994.93	0.128
313.15	0.09286	995.48	0.127
313.15	0.1087	996.02	0.127
313.15	0.1292	996.72	0.127
313.15	0.1462	997.29	0.123
318.15	0.01661	990.79	0.131
318.15	0.02227	991	0.129
318.15	0.02929	991.24	0.128
318.15	0.03728	991.52	0.128
318.15	0.04698	991.86	0.128
318.15	0.05948	992.3	0.128
318.15	0.0769	992.9	0.128
318.15	0.09286	993.45	0.128
318.15	0.1087	993.99	0.127
318.15	0.1292	994.68	0.126
318.15	0.1462	995.23	0.126

System: tetraethylammonium bromide + water; phases: Liquid
Fixed: Pressure, kPa = 100
Fixed: Temperature, K = 298.15
Property: Speed of sound, m/s (Liquid); method: Pulse-echo method
Molality, mol/kg of tetraethylammonium bromide	Speed of sound, m/s	uncertainty
0.01661	1498.53	0.78
0.02227	1499.15	0.81
0.02929	1499.92	0.81
0.03728	1500.76	0.81
0.04698	1501.8	0.81
0.05948	1503.15	0.81
0.0769	1504.98	0.81
0.09286	1506.54	0.81
0.1087	1508.24	0.81
0.1292	1510.22	0.81
0.1462	1511.93	0.79

System: 1,2-propanediol + tetraethylammonium bromide; phases: Liquid
Fixed: Pressure, kPa = 100
Property: Mass density, kg/m3 (Liquid); method: Vibrating tube method
Temperature, K	Molality, mol/kg of tetraethylammonium bromide	Mass density, kg/m3	uncertainty
288.15	0.01687	1040.42	0.16
288.15	0.0223	1040.63	0.16
288.15	0.02829	1040.85	0.16
288.15	0.03708	1041.18	0.16
288.15	0.04876	1041.61	0.16
288.15	0.06124	1042.07	0.16
288.15	0.07768	1042.65	0.15
288.15	0.09596	1043.29	0.15
288.15	0.1109	1043.81	0.15
288.15	0.131	1044.5	0.16
288.15	0.1484	1045.09	0.16
293.15	0.01687	1036.81	0.16
293.15	0.0223	1037.01	0.16
293.15	0.02829	1037.24	0.15
293.15	0.03708	1037.56	0.15
293.15	0.04876	1037.99	0.15
293.15	0.06124	1038.45	0.15
293.15	0.07768	1039.04	0.15
293.15	0.09596	1039.68	0.15
293.15	0.1109	1040.2	0.15
293.15	0.131	1040.89	0.15
293.15	0.1484	1041.49	0.15
298.15	0.01687	1033.14	0.16
298.15	0.0223	1033.35	0.15
298.15	0.02829	1033.57	0.15
298.15	0.03708	1033.9	0.15
298.15	0.04876	1034.33	0.15
298.15	0.06124	1034.8	0.15
298.15	0.07768	1035.38	0.15
298.15	0.09596	1036.01	0.15
298.15	0.1109	1036.53	0.15
298.15	0.131	1037.23	0.15
298.15	0.1484	1037.83	0.15
303.15	0.01687	1029.44	0.16
303.15	0.0223	1029.64	0.15
303.15	0.02829	1029.86	0.15
303.15	0.03708	1030.19	0.15
303.15	0.04876	1030.63	0.15
303.15	0.06124	1031.09	0.15
303.15	0.07768	1031.69	0.15
303.15	0.09596	1032.32	0.15
303.15	0.1109	1032.84	0.15
303.15	0.131	1033.55	0.15
303.15	0.1484	1034.14	0.15
308.15	0.01687	1025.69	0.16
308.15	0.0223	1025.9	0.15
308.15	0.02829	1026.12	0.15
308.15	0.03708	1026.45	0.15
308.15	0.04876	1026.89	0.15
308.15	0.06124	1027.35	0.15
308.15	0.07768	1027.95	0.15
308.15	0.09596	1028.59	0.15
308.15	0.1109	1029.11	0.15
308.15	0.131	1029.82	0.15
308.15	0.1484	1030.42	0.15
313.15	0.01687	1021.9	0.15
313.15	0.0223	1022.11	0.15
313.15	0.02829	1022.34	0.15
313.15	0.03708	1022.67	0.15
313.15	0.04876	1023.11	0.15
313.15	0.06124	1023.58	0.15
313.15	0.07768	1024.18	0.15
313.15	0.09596	1024.82	0.15
313.15	0.1109	1025.35	0.15
313.15	0.131	1026.06	0.15
313.15	0.1484	1026.66	0.15
318.15	0.01687	1018.09	0.15
318.15	0.0223	1018.3	0.15
318.15	0.02829	1018.53	0.15
318.15	0.03708	1018.86	0.15
318.15	0.04876	1019.3	0.15
318.15	0.06124	1019.76	0.15
318.15	0.07768	1020.37	0.15
318.15	0.09596	1021.02	0.15
318.15	0.1109	1021.55	0.15
318.15	0.131	1022.26	0.15
318.15	0.1484	1022.87	0.15

System: 1,2-propanediol + tetraethylammonium bromide; phases: Liquid
Fixed: Pressure, kPa = 100
Fixed: Temperature, K = 298.15
Property: Speed of sound, m/s (Liquid); method: Pulse-echo method
Molality, mol/kg of tetraethylammonium bromide	Speed of sound, m/s	uncertainty
0.01687	1510.05	0.91
0.0223	1510.39	0.91
0.02829	1510.76	0.92
0.03708	1511.36	0.92
0.04876	1512.18	0.92
0.06124	1512.95	0.92
0.07768	1513.93	0.92
0.09596	1515.07	0.92
0.1109	1515.93	0.92
0.131	1517.08	0.92
0.1484	1517.94	0.91

System: tetrapropylammonium bromide + water; phases: Liquid
Fixed: Pressure, kPa = 100
Property: Mass density, kg/m3 (Liquid); method: Vibrating tube method
Temperature, K	Molality, mol/kg of tetrapropylammonium bromide	Mass density, kg/m3	uncertainty
288.15	0.01618	999.56	0.121
288.15	0.02208	999.73	0.121
288.15	0.0287	999.92	0.121
288.15	0.037	1000.16	0.121
288.15	0.04631	1000.43	0.121
288.15	0.05791	1000.76	0.121
288.15	0.07524	1001.25	0.12
288.15	0.0912	1001.69	0.121
288.15	0.1071	1002.15	0.122
288.15	0.1272	1002.73	0.121
288.15	0.1446	1003.22	0.121
293.15	0.01618	998.66	0.139
293.15	0.02208	998.83	0.121
293.15	0.0287	999.01	0.121
293.15	0.037	999.25	0.121
293.15	0.04631	999.51	0.121
293.15	0.05791	999.83	0.121
293.15	0.07524	1000.31	0.12
293.15	0.0912	1000.75	0.12
293.15	0.1071	1001.19	0.121
293.15	0.1272	1001.76	0.121
293.15	0.1446	1002.24	0.116
298.15	0.01618	997.48	0.135
298.15	0.02208	997.65	0.121
298.15	0.0287	997.83	0.121
298.15	0.037	998.06	0.121
298.15	0.04631	998.32	0.121
298.15	0.05791	998.64	0.12
298.15	0.07524	999.11	0.12
298.15	0.0912	999.54	0.12
298.15	0.1071	999.97	0.12
298.15	0.1272	1000.52	0.12
298.15	0.1446	1000.99	0.116
303.15	0.01618	996.08	0.133
303.15	0.02208	996.24	0.12
303.15	0.0287	996.42	0.121
303.15	0.037	996.65	0.12
303.15	0.04631	996.9	0.12
303.15	0.05791	997.21	0.12
303.15	0.07524	997.68	0.119
303.15	0.0912	998.09	0.119
303.15	0.1071	998.52	0.12
303.15	0.1272	999.06	0.119
303.15	0.1446	999.52	0.116
308.15	0.01618	994.46	0.13
308.15	0.02208	994.61	0.12
308.15	0.0287	994.79	0.12
308.15	0.037	995.01	0.12
308.15	0.04631	995.26	0.12
308.15	0.05791	995.56	0.12
308.15	0.07524	996.02	0.119
308.15	0.0912	996.43	0.119
308.15	0.1071	996.85	0.12
308.15	0.1272	997.38	0.119
308.15	0.1446	997.83	0.116
313.15	0.01618	992.63	0.129
313.15	0.02208	992.78	0.12
313.15	0.0287	992.96	0.12
313.15	0.037	993.18	0.12
313.15	0.04631	993.42	0.12
313.15	0.05791	993.72	0.12
313.15	0.07524	994.17	0.119
313.15	0.0912	994.57	0.119
313.15	0.1071	994.98	0.119
313.15	0.1272	995.49	0.119
313.15	0.1446	995.93	0.116
318.15	0.01618	990.62	0.119
318.15	0.02208	990.77	0.119
318.15	0.0287	990.94	0.119
318.15	0.037	991.15	0.119
318.15	0.04631	991.39	0.119
318.15	0.05791	991.68	0.119
318.15	0.07524	992.12	0.119
318.15	0.0912	992.53	0.119
318.15	0.1071	992.92	0.118
318.15	0.1272	993.4	0.119
318.15	0.1446	993.84	0.119

System: tetrapropylammonium bromide + water; phases: Liquid
Fixed: Pressure, kPa = 100
Fixed: Temperature, K = 298.15
Property: Speed of sound, m/s (Liquid); method: Pulse-echo method
Molality, mol/kg of tetrapropylammonium bromide	Speed of sound, m/s	uncertainty
0.01618	1499.49	0.78
0.02208	1500.49	0.85
0.0287	1501.6	0.85
0.037	1503.01	0.85
0.04631	1504.56	0.85
0.05791	1506.5	0.85
0.07524	1509.37	0.85
0.0912	1511.93	0.85
0.1071	1514.5	0.85
0.1272	1517.74	0.85
0.1446	1520.53	0.79

System: 1,2-propanediol + tetrapropylammonium bromide; phases: Liquid
Fixed: Pressure, kPa = 100
Property: Mass density, kg/m3 (Liquid); method: Vibrating tube method
Temperature, K	Molality, mol/kg of tetrapropylammonium bromide	Mass density, kg/m3	uncertainty
288.15	0.01681	1040.13	0.142
288.15	0.0228	1040.25	0.143
288.15	0.02985	1040.4	0.143
288.15	0.03823	1040.57	0.142
288.15	0.0504	1040.81	0.143
288.15	0.06162	1041.04	0.143
288.15	0.08083	1041.41	0.143
288.15	0.09848	1041.74	0.143
288.15	0.1152	1042.05	0.143
288.15	0.135	1042.42	0.143
288.15	0.1532	1042.73	0.143
293.15	0.01681	1036.52	0.144
293.15	0.0228	1036.65	0.142
293.15	0.02985	1036.79	0.141
293.15	0.03823	1036.96	0.141
293.15	0.0504	1037.2	0.141
293.15	0.06162	1037.42	0.142
293.15	0.08083	1037.8	0.142
293.15	0.09848	1038.13	0.142
293.15	0.1152	1038.44	0.142
293.15	0.135	1038.81	0.143
293.15	0.1532	1039.13	0.142
298.15	0.01681	1032.85	0.142
298.15	0.0228	1032.98	0.14
298.15	0.02985	1033.12	0.14
298.15	0.03823	1033.29	0.14
298.15	0.0504	1033.53	0.141
298.15	0.06162	1033.76	0.141
298.15	0.08083	1034.14	0.141
298.15	0.09848	1034.47	0.141
298.15	0.1152	1034.78	0.141
298.15	0.135	1035.15	0.141
298.15	0.1532	1035.47	0.141
303.15	0.01681	1029.14	0.141
303.15	0.0228	1029.27	0.14
303.15	0.02985	1029.42	0.14
303.15	0.03823	1029.59	0.14
303.15	0.0504	1029.84	0.14
303.15	0.06162	1030.06	0.14
303.15	0.08083	1030.44	0.14
303.15	0.09848	1030.79	0.14
303.15	0.1152	1031.09	0.14
303.15	0.135	1031.46	0.141
303.15	0.1532	1031.79	0.14
308.15	0.01681	1025.39	0.141
308.15	0.0228	1025.53	0.139
308.15	0.02985	1025.68	0.139
308.15	0.03823	1025.85	0.139
308.15	0.0504	1026.1	0.139
308.15	0.06162	1026.33	0.139
308.15	0.08083	1026.71	0.139
308.15	0.09848	1027.06	0.139
308.15	0.1152	1027.36	0.139
308.15	0.135	1027.73	0.14
308.15	0.1532	1028.07	0.14
313.15	0.01681	1021.62	0.14
313.15	0.0228	1021.75	0.138
313.15	0.02985	1021.9	0.138
313.15	0.03823	1022.08	0.138
313.15	0.0504	1022.33	0.138
313.15	0.06162	1022.56	0.138
313.15	0.08083	1022.94	0.138
313.15	0.09848	1023.3	0.138
313.15	0.1152	1023.6	0.138
313.15	0.135	1023.98	0.139
313.15	0.1532	1024.32	0.139
318.15	0.01681	1017.8	0.138
318.15	0.0228	1017.94	0.137
318.15	0.02985	1018.09	0.137
318.15	0.03823	1018.27	0.137
318.15	0.0504	1018.53	0.137
318.15	0.06162	1018.75	0.137
318.15	0.08083	1019.13	0.137
318.15	0.09848	1019.5	0.137
318.15	0.1152	1019.8	0.137
318.15	0.135	1020.19	0.138
318.15	0.1532	1020.53	0.138

System: 1,2-propanediol + tetrapropylammonium bromide; phases: Liquid
Fixed: Pressure, kPa = 100
Fixed: Temperature, K = 298.15
Property: Speed of sound, m/s (Liquid); method: Pulse-echo method
Molality, mol/kg of tetrapropylammonium bromide	Speed of sound, m/s	uncertainty
0.02279	1509.85	0.91
0.02985	1510.2	0.91
0.03823	1510.51	0.91
0.05044	1511.08	0.91
0.06162	1511.48	0.91
0.08083	1512.22	0.91
0.09847	1512.9	0.92
0.1152	1513.54	0.92
0.135	1514.22	0.92
0.1532	1514.79	0.92

System: tetrabutylammonium bromide + water; phases: Liquid
Fixed: Pressure, kPa = 100
Property: Mass density, kg/m3 (Liquid); method: Vibrating tube method
Temperature, K	Molality, mol/kg of tetrabutylammonium bromide	Mass density, kg/m3	uncertainty
288.15	0.01572	999.49	0.117
288.15	0.02172	999.64	0.117
288.15	0.02808	999.79	0.117
288.15	0.03597	999.99	0.117
288.15	0.04541	1000.22	0.117
288.15	0.05713	1000.51	0.117
288.15	0.07361	1000.91	0.118
288.15	0.08955	1001.31	0.118
288.15	0.1051	1001.69	0.118
288.15	0.1248	1002.19	0.118
288.15	0.1416	1002.6	0.118
293.15	0.01572	998.58	0.132
293.15	0.02172	998.72	0.117
293.15	0.02808	998.87	0.117
293.15	0.03597	999.06	0.117
293.15	0.04541	999.28	0.117
293.15	0.05713	999.55	0.117
293.15	0.07361	999.93	0.117
293.15	0.08955	1000.32	0.117
293.15	0.1051	1000.68	0.117
293.15	0.1248	1001.16	0.117
293.15	0.1416	1001.55	0.113
298.15	0.01572	997.39	0.128
298.15	0.02172	997.53	0.117
298.15	0.02808	997.68	0.117
298.15	0.03597	997.86	0.116
298.15	0.04541	998.07	0.116
298.15	0.05713	998.34	0.116
298.15	0.07361	998.7	0.116
298.15	0.08955	999.07	0.116
298.15	0.1051	999.41	0.116
298.15	0.1248	999.87	0.116
298.15	0.1416	1000.24	0.113
303.15	0.01572	995.98	0.127
303.15	0.02172	996.11	0.116
303.15	0.02808	996.25	0.116
303.15	0.03597	996.42	0.116
303.15	0.04541	996.63	0.116
303.15	0.05713	996.88	0.116
303.15	0.07361	997.23	0.115
303.15	0.08955	997.58	0.115
303.15	0.1051	997.91	0.116
303.15	0.1248	998.35	0.116
303.15	0.1416	998.71	0.113
308.15	0.01572	994.35	0.126
308.15	0.02172	994.48	0.115
308.15	0.02808	994.61	0.116
308.15	0.03597	994.78	0.115
308.15	0.04541	994.97	0.115
308.15	0.05713	995.21	0.115
308.15	0.07361	995.55	0.115
308.15	0.08955	995.88	0.115
308.15	0.1051	996.2	0.116
308.15	0.1248	996.62	0.115
308.15	0.1416	996.96	0.113
313.15	0.01572	992.52	0.124
313.15	0.02172	992.64	0.115
313.15	0.02808	992.77	0.115
313.15	0.03597	992.93	0.115
313.15	0.04541	993.12	0.115
313.15	0.05713	993.35	0.115
313.15	0.07361	993.68	0.115
313.15	0.08955	993.99	0.114
313.15	0.1051	994.29	0.115
313.15	0.1248	994.69	0.115
313.15	0.1416	995.02	0.112
318.15	0.01572	990.5	0.115
318.15	0.02172	990.62	0.114
318.15	0.02808	990.74	0.114
318.15	0.03597	990.89	0.114
318.15	0.04541	991.07	0.114
318.15	0.05713	991.29	0.114
318.15	0.07361	991.6	0.114
318.15	0.08955	991.9	0.114
318.15	0.1051	992.19	0.115
318.15	0.1248	992.57	0.115
318.15	0.1416	992.89	0.115

System: tetrabutylammonium bromide + water; phases: Liquid
Fixed: Pressure, kPa = 100
Fixed: Temperature, K = 298.15
Property: Speed of sound, m/s (Liquid); method: Pulse-echo method
Molality, mol/kg of tetrabutylammonium bromide	Speed of sound, m/s	uncertainty
0.01572	1500.44	0.78
0.02172	1501.84	0.9
0.02808	1503.3	0.9
0.03597	1505.12	0.91
0.04541	1507.29	0.9
0.05713	1509.94	0.9
0.07361	1513.64	0.9
0.08955	1517.08	0.9
0.1051	1520.53	0.9
0.1248	1524.56	0.93
0.1416	1529.34	0.8

System: 1,2-propanediol + tetrabutylammonium bromide; phases: Liquid
Fixed: Pressure, kPa = 100
Property: Mass density, kg/m3 (Liquid); method: Vibrating tube method
Temperature, K	Molality, mol/kg of tetrabutylammonium bromide	Mass density, kg/m3	uncertainty
288.15	0.01582	1039.87	0.14
288.15	0.01829	1039.88	0.14
288.15	0.02164	1039.9	0.14
288.15	0.02961	1039.95	0.14
288.15	0.03804	1040	0.14
288.15	0.04728	1040.06	0.14
288.15	0.05314	1040.09	0.14
288.15	0.05937	1040.1	0.14
288.15	0.07842	1040.2	0.14
288.15	0.09719	1040.28	0.14
288.15	0.1142	1040.34	0.14
288.15	0.13404	1040.43	0.14
288.15	0.1528	1040.49	0.14
293.15	0.01582	1036.26	0.14
293.15	0.01829	1036.27	0.14
293.15	0.02164	1036.29	0.14
293.15	0.02961	1036.34	0.14
293.15	0.03804	1036.39	0.14
293.15	0.04728	1036.45	0.14
293.15	0.05314	1036.46	0.14
293.15	0.05937	1036.5	0.14
293.15	0.07842	1036.59	0.14
293.15	0.09719	1036.66	0.14
293.15	0.1142	1036.73	0.14
293.15	0.13404	1036.82	0.14
293.15	0.1528	1036.9	0.14
298.15	0.01582	1032.58	0.13
298.15	0.01829	1032.59	0.13
298.15	0.02164	1032.62	0.14
298.15	0.02961	1032.67	0.13
298.15	0.03804	1032.72	0.14
298.15	0.04728	1032.77	0.14
298.15	0.05314	1032.79	0.14
298.15	0.05937	1032.83	0.14
298.15	0.07842	1032.92	0.14
298.15	0.09719	1033	0.14
298.15	0.1142	1033.06	0.14
298.15	0.13404	1033.15	0.14
298.15	0.1528	1033.23	0.14
303.15	0.01582	1028.88	0.13
303.15	0.01829	1028.89	0.13
303.15	0.02164	1028.92	0.13
303.15	0.02961	1028.97	0.13
303.15	0.03804	1029.02	0.13
303.15	0.04728	1029.07	0.13
303.15	0.05314	1029.08	0.13
303.15	0.05937	1029.13	0.13
303.15	0.07842	1029.22	0.13
303.15	0.09719	1029.3	0.14
303.15	0.1142	1029.37	0.14
303.15	0.13404	1029.46	0.14
303.15	0.1528	1029.54	0.14
308.15	0.01582	1025.14	0.13
308.15	0.01829	1025.15	0.13
308.15	0.02164	1025.18	0.13
308.15	0.02961	1025.23	0.13
308.15	0.03804	1025.28	0.13
308.15	0.04728	1025.33	0.13
308.15	0.05314	1025.35	0.13
308.15	0.05937	1025.39	0.13
308.15	0.07842	1025.49	0.13
308.15	0.09719	1025.57	0.13
308.15	0.1142	1025.64	0.17
308.15	0.13404	1027.4	0.14
308.15	0.1528	1025.81	0.22
313.15	0.01582	1021.36	0.13
313.15	0.01829	1021.37	0.13
313.15	0.02164	1021.4	0.13
313.15	0.02961	1021.45	0.13
313.15	0.03804	1021.5	0.13
313.15	0.04728	1021.55	0.13
313.15	0.05314	1021.58	0.13
313.15	0.05937	1021.62	0.13
313.15	0.07842	1021.72	0.13
313.15	0.09719	1021.8	0.13
313.15	0.1142	1021.88	0.13
313.15	0.13404	1021.98	0.13
313.15	0.1528	1022.06	0.13
318.15	0.01582	1017.54	0.13
318.15	0.01829	1017.56	0.13
318.15	0.02164	1017.58	0.13
318.15	0.02961	1017.63	0.13
318.15	0.03804	1017.69	0.13
318.15	0.04728	1017.75	0.13
318.15	0.05314	1017.76	0.13
318.15	0.05937	1017.81	0.13
318.15	0.07842	1017.91	0.13
318.15	0.09719	1018	0.13
318.15	0.1142	1018.08	0.13
318.15	0.13404	1018.18	0.13
318.15	0.1528	1018.27	0.13

System: 1,2-propanediol + tetrabutylammonium bromide; phases: Liquid
Fixed: Pressure, kPa = 100
Fixed: Temperature, K = 298.15
Property: Speed of sound, m/s (Liquid); method: Pulse-echo method
Molality, mol/kg of tetrabutylammonium bromide	Speed of sound, m/s	uncertainty
0.02961	1509.37	0.91
0.03804	1509.52	0.91
0.04728	1509.66	0.91
0.05314	1509.8	0.91
0.05937	1509.92	0.91
0.07842	1510.22	0.91
0.09719	1510.5	0.91
0.1142	1510.79	0.91
0.134	1511.08	0.92
0.1528	1511.36	0.92
