Measured thermophysical data. Measurements of the Solid-Liquid Phase Equilibria in Quinary System NaBr-KBr-MgBr2-SrBr2-H2O at 323 K
Source: J. Chem. Eng. Data, 2019, 10.1021/acs.jced.9b00225
Compound 1: magnesium bromide (MgBr2), Br2Mg, InChI=1S/2BrH.Mg/h2*1H;/q;;+2/p-2, purity 99%
Compound 2: strontium bromide (SrBr2), Br2Sr, InChI=1S/2BrH.Sr/h2*1H;/q;;+2/p-2, purity 99%
Compound 3: sodium bromide, BrNa, InChI=1S/BrH.Na/h1H;/q;+1/p-1, purity 99%
Compound 4: potassium bromide, BrK, InChI=1S/BrH.K/h1H;/q;+1/p-1, purity 99%
Compound 5: water, H2O, InChI=1S/H2O/h1H2, purity 99.9%

System: sodium bromide + strontium bromide (SrBr2) + water; phases: Liquid, Crystal of intercomponent compound 1
Property: Mass fraction of strontium bromide (SrBr2) (Liquid); method: Titration method
Mass fraction of sodium bromide	Temperature, K	Pressure, kPa	Mass fraction of strontium bromide (SrBr2)	uncertainty
0.1912	323	100	0.3978	0.01

System: sodium bromide + strontium bromide (SrBr2) + water; phases: Liquid, Crystal of intercomponent compound 2
Property: Mass fraction of strontium bromide (SrBr2) (Liquid); method: Titration method
Mass fraction of sodium bromide	Temperature, K	Pressure, kPa	Mass fraction of strontium bromide (SrBr2)	uncertainty
0.1912	323	100	0.3978	0.01

System: potassium bromide + strontium bromide (SrBr2) + water; phases: Liquid, Crystal of intercomponent compound 1
Property: Mass fraction of strontium bromide (SrBr2) (Liquid); method: Titration method
Mass fraction of potassium bromide	Temperature, K	Pressure, kPa	Mass fraction of strontium bromide (SrBr2)	uncertainty
0.0703	323	100	0.5076	0.0101

System: potassium bromide + strontium bromide (SrBr2) + water; phases: Liquid, Crystal
Property: Mass fraction of strontium bromide (SrBr2) (Liquid); method: Titration method
Mass fraction of potassium bromide	Temperature, K	Pressure, kPa	Mass fraction of strontium bromide (SrBr2)	uncertainty
0.0703	323	100	0.5076	0.0101

System: sodium bromide + magnesium bromide (MgBr2) + water; phases: Liquid, Crystal of intercomponent compound 1
Property: Mass fraction of magnesium bromide (MgBr2) (Liquid); method: Titration method
Mass fraction of sodium bromide	Temperature, K	Pressure, kPa	Mass fraction of magnesium bromide (MgBr2)	uncertainty
0.0051	323	100	0.5172	0.0101

System: sodium bromide + magnesium bromide (MgBr2) + water; phases: Liquid, Crystal
Fixed: Temperature, K = 323
Fixed: Pressure, kPa = 100
Property: Mass fraction of magnesium bromide (MgBr2) (Liquid); method: Titration method
Mass fraction of sodium bromide	Mass fraction of magnesium bromide (MgBr2)	uncertainty
0.0051	0.5172	0.0123
0.1737	0.2822	0.0172

System: sodium bromide + magnesium bromide (MgBr2) + water; phases: Liquid, Crystal of intercomponent compound 2
Property: Mass fraction of magnesium bromide (MgBr2) (Liquid); method: Titration method
Mass fraction of sodium bromide	Temperature, K	Pressure, kPa	Mass fraction of magnesium bromide (MgBr2)	uncertainty
0.1737	323	100	0.2822	0.01

System: magnesium bromide (MgBr2) + strontium bromide (SrBr2) + water; phases: Liquid, Crystal of intercomponent compound 1
Property: Mass fraction of strontium bromide (SrBr2) (Liquid); method: Titration method
Mass fraction of magnesium bromide (MgBr2)	Temperature, K	Pressure, kPa	Mass fraction of strontium bromide (SrBr2)	uncertainty
0.3981	323	100	0.159	0.01

System: magnesium bromide (MgBr2) + strontium bromide (SrBr2) + water; phases: Liquid, Crystal of intercomponent compound 2
Property: Mass fraction of strontium bromide (SrBr2) (Liquid); method: Titration method
Mass fraction of magnesium bromide (MgBr2)	Temperature, K	Pressure, kPa	Mass fraction of strontium bromide (SrBr2)	uncertainty
0.3981	323	100	0.159	0.01

System: potassium bromide + magnesium bromide (MgBr2) + water; phases: Liquid, Crystal of intercomponent compound 1
Property: Mass fraction of magnesium bromide (MgBr2) (Liquid); method: Titration method
Mass fraction of potassium bromide	Temperature, K	Pressure, kPa	Mass fraction of magnesium bromide (MgBr2)	uncertainty
0.008	323	100	0.518	0.0101

System: potassium bromide + magnesium bromide (MgBr2) + water; phases: Liquid, Crystal of intercomponent compound 2
Fixed: Temperature, K = 323
Fixed: Pressure, kPa = 100
Property: Mass fraction of magnesium bromide (MgBr2) (Liquid); method: Titration method
Mass fraction of potassium bromide	Mass fraction of magnesium bromide (MgBr2)	uncertainty
0.008	0.518	0.0101
0.0488	0.4433	0.01

System: potassium bromide + magnesium bromide (MgBr2) + water; phases: Liquid, Crystal
Property: Mass fraction of magnesium bromide (MgBr2) (Liquid); method: Titration method
Mass fraction of potassium bromide	Temperature, K	Pressure, kPa	Mass fraction of magnesium bromide (MgBr2)	uncertainty
0.0488	323	100	0.4433	0.01
