Measured thermophysical data. Phase Equilibria of the Na+, NH4+//SO42-, NO3--H2O Quaternary System at 303.15 and 323.15 K
Source: J. Chem. Eng. Data, 2018, 10.1021/acs.jced.7b01015
Compound 1: ammonium nitrate, H4N2O3, InChI=1S/NO3.H3N/c2-1(3)4;/h;1H3/q-1;/p+1, purity 99%
Compound 2: sodium nitrate, NNaO3, InChI=1S/NO3.Na/c2-1(3)4;/q-1;+1, purity 99%
Compound 3: ammonium sulfate, H8N2O4S, InChI=1S/2H3N.H2O4S/c;;1-5(2,3)4/h2*1H3;(H2,1,2,3,4), purity 99%
Compound 4: sodium sulfate, Na2O4S, InChI=1S/2Na.H2O4S/c;;1-5(2,3)4/h;;(H2,1,2,3,4)/q2*+1;/p-2, purity 99%
Compound 5: water, H2O, InChI=1S/H2O/h1H2, purity 99.9%

System: sodium sulfate + ammonium sulfate + water; phases: Liquid
Fixed: Pressure, kPa = 100
Property: Mass density, kg/m3 (Liquid); method: Pycnometric method
Temperature, K	Mole fraction of sodium sulfate	Mole fraction of ammonium sulfate	Mass density, kg/m3	uncertainty
303.15	0.01825	0.089	1295	4
303.15	0.05032	0.03393	1320	4
323.15	0.04088	0.06631	1343	4
323.15	0.03061	0.0899	1335	4

System: sodium sulfate + ammonium sulfate + water; phases: Liquid
Fixed: Pressure, kPa = 100
Property: Refractive index (Na D-line) (Liquid); method: Standard Abbe refractometry
Temperature, K	Mole fraction of sodium sulfate	Mole fraction of ammonium sulfate	Refractive index (Na D-line)	uncertainty
303.15	0.01825	0.089	1.3998	0.0004
303.15	0.05032	0.03393	1.3894	0.0004
323.15	0.04088	0.06631	1.397	0.0005
323.15	0.03061	0.0899	1.402	0.0005

System: sodium sulfate + ammonium sulfate + water; phases: Liquid, Crystal
Fixed: Pressure, kPa = 100
Property: Mole fraction of ammonium sulfate (Liquid); method: Titration method
Temperature, K	Mole fraction of sodium sulfate	Mole fraction of ammonium sulfate	uncertainty
303.15	0.01825	0.089	0.00179
323.15	0.03061	0.0899	0.00181

System: sodium sulfate + ammonium sulfate + water; phases: Liquid, Crystal of intercomponent compound 1
Fixed: Pressure, kPa = 100
Property: Mole fraction of ammonium sulfate (Liquid); method: Titration method
Temperature, K	Mole fraction of sodium sulfate	Mole fraction of ammonium sulfate	uncertainty
303.15	0.01825	0.089	0.0019
303.15	0.05032	0.03393	0.00186
323.15	0.04088	0.06631	0.00232
323.15	0.03061	0.0899	0.00231

System: sodium sulfate + ammonium sulfate + water; phases: Liquid, Crystal of intercomponent compound 2
Property: Mole fraction of ammonium sulfate (Liquid); method: Titration method
Temperature, K	Mole fraction of sodium sulfate	Pressure, kPa	Mole fraction of ammonium sulfate	uncertainty
303.15	0.05032	100	0.03393	0.00068

System: sodium sulfate + ammonium sulfate + water; phases: Liquid, Crystal
Property: Mole fraction of ammonium sulfate (Liquid); method: Titration method
Temperature, K	Mole fraction of sodium sulfate	Pressure, kPa	Mole fraction of ammonium sulfate	uncertainty
323.15	0.04088	100	0.06631	0.00133

System: sodium nitrate + ammonium nitrate + water; phases: Liquid
Fixed: Pressure, kPa = 100
Property: Mass density, kg/m3 (Liquid); method: Pycnometric method
Temperature, K	Mole fraction of sodium nitrate	Mole fraction of ammonium nitrate	Mass density, kg/m3	uncertainty
303.15	0.09594	0.29806	1470	4
323.15	0.11707	0.39415	1535	4

System: sodium nitrate + ammonium nitrate + water; phases: Liquid
Fixed: Pressure, kPa = 100
Property: Refractive index (Na D-line) (Liquid); method: Standard Abbe refractometry
Temperature, K	Mole fraction of sodium nitrate	Mole fraction of ammonium nitrate	Refractive index (Na D-line)	uncertainty
303.15	0.09594	0.29806	1.4356	0.0004
323.15	0.11707	0.39415	1.4449	0.0004

System: sodium nitrate + ammonium nitrate + water; phases: Liquid, Crystal
Fixed: Pressure, kPa = 100
Property: Mole fraction of ammonium nitrate (Liquid); method: Titration method
Temperature, K	Mole fraction of sodium nitrate	Mole fraction of ammonium nitrate	uncertainty
303.15	0.09594	0.29806	0.00607
323.15	0.11707	0.39415	0.00799

System: sodium nitrate + ammonium nitrate + water; phases: Liquid, Crystal
Fixed: Pressure, kPa = 100
Property: Mole fraction of ammonium nitrate (Liquid); method: Titration method
Temperature, K	Mole fraction of sodium nitrate	Mole fraction of ammonium nitrate	uncertainty
303.15	0.09594	0.29806	0.00607
323.15	0.11707	0.39415	0.00799

System: sodium nitrate + sodium sulfate + water; phases: Liquid
Fixed: Pressure, kPa = 100
Property: Mass density, kg/m3 (Liquid); method: Pycnometric method
Temperature, K	Mole fraction of sodium nitrate	Mole fraction of sodium sulfate	Mass density, kg/m3	uncertainty
303.15	0.02669	0.04937	1318	4
303.15	0.09732	0.02202	1353	5
303.15	0.16225	0.00583	1414	5
323.15	0.18637	0.00424	1442	5
323.15	0.15314	0.00792	1412	5

System: sodium nitrate + sodium sulfate + water; phases: Liquid
Fixed: Pressure, kPa = 100
Property: Refractive index (Na D-line) (Liquid); method: Standard Abbe refractometry
Temperature, K	Mole fraction of sodium nitrate	Mole fraction of sodium sulfate	Refractive index (Na D-line)	uncertainty
303.15	0.02669	0.04937	1.377	0.0004
303.15	0.09732	0.02202	1.382	0.0005
303.15	0.16225	0.00583	1.3893	0.0005
323.15	0.18637	0.00424	1.3902	0.0004
323.15	0.15314	0.00792	1.3885	0.0004

System: sodium nitrate + sodium sulfate + water; phases: Liquid, Crystal of intercomponent compound 1
Property: Mole fraction of sodium sulfate (Liquid); method: Titration method
Temperature, K	Mole fraction of sodium nitrate	Pressure, kPa	Mole fraction of sodium sulfate	uncertainty
303.15	0.02669	100	0.04937	0.00099

System: sodium nitrate + sodium sulfate + water; phases: Liquid, Crystal
Fixed: Pressure, kPa = 100
Property: Mole fraction of sodium sulfate (Liquid); method: Titration method
Temperature, K	Mole fraction of sodium nitrate	Mole fraction of sodium sulfate	uncertainty
303.15	0.02669	0.04937	0.00101
303.15	0.09732	0.02202	0.00087
323.15	0.15314	0.00792	0.00044

System: sodium nitrate + sodium sulfate + water; phases: Liquid, Crystal of intercomponent compound 2
Fixed: Pressure, kPa = 100
Property: Mole fraction of sodium sulfate (Liquid); method: Titration method
Temperature, K	Mole fraction of sodium nitrate	Mole fraction of sodium sulfate	uncertainty
303.15	0.09732	0.02202	0.00066
303.15	0.16225	0.00583	0.00082
323.15	0.18637	0.00424	0.00043
323.15	0.15314	0.00792	0.00037

System: sodium nitrate + sodium sulfate + water; phases: Liquid, Crystal
Fixed: Pressure, kPa = 100
Property: Mole fraction of sodium sulfate (Liquid); method: Titration method
Temperature, K	Mole fraction of sodium nitrate	Mole fraction of sodium sulfate	uncertainty
303.15	0.16225	0.00583	0.00012
323.15	0.18637	0.00424	9e-05

System: ammonium nitrate + ammonium sulfate + water; phases: Liquid
Fixed: Pressure, kPa = 100
Property: Mass density, kg/m3 (Liquid); method: Pycnometric method
Temperature, K	Mole fraction of ammonium nitrate	Mole fraction of ammonium sulfate	Mass density, kg/m3	uncertainty
303.15	0.22694	0.03664	1303	4
303.15	0.27269	0.0234	1315	4
303.15	0.3336	0.01044	1338	6
323.15	0.29446	0.03031	1333	4
323.15	0.33909	0.02102	1342	5
323.15	0.44333	0.01047	1370	5

System: ammonium nitrate + ammonium sulfate + water; phases: Liquid
Fixed: Pressure, kPa = 100
Property: Refractive index (Na D-line) (Liquid); method: Standard Abbe refractometry
Temperature, K	Mole fraction of ammonium nitrate	Mole fraction of ammonium sulfate	Refractive index (Na D-line)	uncertainty
303.15	0.22694	0.03664	1.4188	0.0004
303.15	0.27269	0.0234	1.4224	0.0004
303.15	0.3336	0.01044	1.4292	0.0014
323.15	0.29446	0.03031	1.4267	0.0006
323.15	0.33909	0.02102	1.4301	0.0006
323.15	0.44333	0.01047	1.4374	0.0007

System: ammonium nitrate + ammonium sulfate + water; phases: Liquid, Crystal
Fixed: Pressure, kPa = 100
Property: Mole fraction of ammonium sulfate (Liquid); method: Titration method
Temperature, K	Mole fraction of ammonium nitrate	Mole fraction of ammonium sulfate	uncertainty
303.15	0.22694	0.03664	0.00074
323.15	0.29446	0.03031	0.00061

System: ammonium nitrate + ammonium sulfate + water; phases: Liquid, Crystal of intercomponent compound 1
Fixed: Pressure, kPa = 100
Property: Mole fraction of ammonium sulfate (Liquid); method: Titration method
Temperature, K	Mole fraction of ammonium nitrate	Mole fraction of ammonium sulfate	uncertainty
303.15	0.22694	0.03664	0.00151
303.15	0.27269	0.0234	0.00165
323.15	0.29446	0.03031	0.00137
323.15	0.33909	0.02102	0.00148

System: ammonium nitrate + ammonium sulfate + water; phases: Liquid, Crystal of intercomponent compound 2
Fixed: Pressure, kPa = 100
Property: Mole fraction of ammonium sulfate (Liquid); method: Titration method
Temperature, K	Mole fraction of ammonium nitrate	Mole fraction of ammonium sulfate	uncertainty
303.15	0.27269	0.0234	0.00125
303.15	0.3336	0.01044	0.00144
323.15	0.33909	0.02102	0.00081
323.15	0.44333	0.01047	0.00092

System: ammonium nitrate + ammonium sulfate + water; phases: Liquid, Crystal
Fixed: Pressure, kPa = 100
Property: Mole fraction of ammonium sulfate (Liquid); method: Titration method
Temperature, K	Mole fraction of ammonium nitrate	Mole fraction of ammonium sulfate	uncertainty
303.15	0.3336	0.01044	0.00021
323.15	0.44333	0.01047	0.00021
