Measured thermophysical data. Investigation on the Vapor-Liquid Equilibrium for the Ternary Mixture HFC-32 + HFC-125 + HFC-161 at Temperatures from 265.15 K to 303.15 K
Source: J. Chem. Eng. Data, 2015, 10.1021/acs.jced.5b00405
Compound 1: difluoromethane, CH2F2, InChI=1S/CH2F2/c2-1-3/h1H2, purity 99.74%
Compound 2: pentafluoroethane, C2HF5, InChI=1S/C2HF5/c3-1(4)2(5,6)7/h1H, purity 99.98%
Compound 3: fluoroethane, C2H5F, InChI=1S/C2H5F/c1-2-3/h2H2,1H3, purity 99.98%

System: difluoromethane + fluoroethane + pentafluoroethane; phases: Liquid, Gas
Property: Mole fraction of pentafluoroethane (Liquid); method: Chromatography
Property: Mole fraction of pentafluoroethane (Gas); method: Chromatography
Property: Mole fraction of fluoroethane (Gas); method: Chromatography
Temperature, K	Pressure, kPa	Mole fraction of fluoroethane	Mole fraction of pentafluoroethane	uncertainty	Mole fraction of pentafluoroethane	uncertainty	Mole fraction of fluoroethane	uncertainty
265.15	475	0.2035	0.5329	0.0069	0.5773	0.007	0.2291	
283.15	1027	0.5609	0.3788	0.0066	0.3393	0.0067	0.6349	
293.15	1161	0.2167	0.4531	0.0068	0.446	0.007	0.3107	
265.15	496	0.2603	0.5403	0.0068	0.5696	0.007	0.272	
293.15	1239	0.2636	0.5193	0.0069	0.5042	0.0073	0.3518	
293.15	1306	0.3649	0.4972	0.007	0.449	0.007	0.4306	
293.15	1339	0.4207	0.4566	0.0068	0.4159	0.007	0.4813	
293.15	1360	0.4628	0.4245	0.0067	0.3825	0.0068	0.5215	
293.15	1378	0.5142	0.384	0.0066	0.3579	0.0067	0.5611	
303.15	1686	0.2329	0.4271	0.0067	0.4094	0.0069	0.3053	
303.15	1699	0.2744	0.5162	0.0069	0.4769	0.0072	0.339	
275.15	770	0.4266	0.4304	0.0067	0.4008	0.0069	0.514	
303.15	1715	0.3412	0.5072	0.0069	0.4691	0.0072	0.4065	
303.15	1764	0.4412	0.4395	0.0068	0.4068	0.0069	0.4795	
303.15	1776	0.4509	0.4346	0.0067	0.3911	0.0069	0.4993	
265.15	546	0.3866	0.4655	0.0068	0.4496	0.0071	0.4432	
303.15	1798	0.4925	0.3903	0.0066	0.3677	0.0068	0.5291	
265.15	558	0.43	0.4402	0.0068	0.4162	0.007	0.4947	
265.15	573	0.5011	0.3846	0.0066	0.3542	0.0067	0.5752	
265.15	590	0.6158	0.2914	0.0063	0.2568	0.0064	0.6819	
275.15	687	0.2622	0.4435	0.0068	0.4515	0.0071	0.3463	
275.15	700	0.2856	0.445	0.0068	0.4569	0.0071	0.3671	
275.15	817	0.5991	0.306	0.0064	0.2679	0.0064	0.6771	
275.15	766	0.3842	0.4701	0.0069	0.4445	0.0071	0.4509	
275.15	826	0.6522	0.2774	0.0063	0.2323	0.0063	0.7068	
283.15	876	0.2447	0.4438	0.0068	0.4405	0.0071	0.3393	
283.15	932	0.3325	0.5165	0.0069	0.4916	0.0073	0.4086	
283.15	984	0.4511	0.4335	0.0067	0.407	0.007	0.5232	
283.15	998	0.4951	0.4205	0.0067	0.3624	0.0067	0.5804	
283.15	1013	0.5227	0.4141	0.0067	0.3631	0.0067	0.6049	
