Measured thermophysical data. Simultaneous Measurement of Dynamic Viscosity and Density of n-Alkanes at High Pressures
Source: J. Chem. Eng. Data, 2017, 10.1021/acs.jced.7b00650
Compound 1: pentane, C5H12, InChI=1S/C5H12/c1-3-5-4-2/h3-5H2,1-2H3, purity 99.4%
Compound 2: octane, C8H18, InChI=1S/C8H18/c1-3-5-7-8-6-4-2/h3-8H2,1-2H3, purity 99.5%
Compound 3: nonane, C9H20, InChI=1S/C9H20/c1-3-5-7-9-8-6-4-2/h3-9H2,1-2H3, purity 99.4%
Compound 4: decane, C10H22, InChI=1S/C10H22/c1-3-5-7-9-10-8-6-4-2/h3-10H2,1-2H3, purity 99.5%
Compound 5: dodecane, C12H26, InChI=1S/C12H26/c1-3-5-7-9-11-12-10-8-6-4-2/h3-12H2,1-2H3, purity 99.4%

System: pentane; phases: Liquid
Property: Mass density, kg/m3 (Liquid); method: Vibrating tube method
Temperature, K	Pressure, kPa	Mass density, kg/m3	uncertainty
293.211	2000	628.05	0.84
293.214	3998	630.31	0.85
293.213	6000	632.63	0.86
293.211	8003	634.89	0.87
293.217	10008	636.91	0.88
293.214	13008	640.02	0.9
293.22	16007	643	0.92
293.219	19009	645.81	0.94
293.218	22010	648.59	0.96
293.219	25002	651.19	0.98
293.217	28002	653.72	1
293.213	30000	655.38	1.01
313.103	2005	608.49	0.82
313.105	4002	611.31	0.83
313.102	6001	613.99	0.84
313.104	7999	616.58	0.85
313.104	10005	619.09	0.87
313.104	13001	622.65	0.89
313.103	16005	626.03	0.91
313.1	19002	629.28	0.93
313.102	22002	632.38	0.95
313.102	25004	635.4	0.97
313.102	28002	638.2	0.99
313.102	30005	640.09	1.01
333.007	2009	587.87	0.8
333.006	3997	591.4	0.81
333.007	6002	594.59	0.82
333.01	8008	597.69	0.84
333.012	10001	600.61	0.85
333.011	12998	604.82	0.87
333.011	15996	608.78	0.89
333.008	19000	612.5	0.91
333.007	21997	616.1	0.94
333.01	25000	619.39	0.96
333.01	27997	622.68	0.98
333.009	30006	624.71	1
353.121	2006	565.77	0.77
353.12	3997	570.01	0.79
353.122	6002	574.02	0.8
353.122	8003	577.79	0.82
353.123	10008	581.28	0.83
353.124	13000	586.31	0.85
353.123	16001	590.9	0.88
353.122	18997	595.21	0.9
353.126	22000	599.29	0.93
353.125	25002	603.1	0.95
353.124	28005	606.77	0.98
353.122	30001	609.1	1

System: pentane; phases: Liquid
Property: Viscosity, Pa*s (Liquid); method: Capillary tube (Ostwald; Ubbelohde) method
Temperature, K	Pressure, kPa	Viscosity, Pa*s	uncertainty
293.211	2000	0.000232	2.9e-06
293.214	3998	0.0002382	2.9e-06
293.213	6000	0.0002439	3e-06
293.211	8003	0.0002495	3.1e-06
293.217	10008	0.0002551	3.1e-06
293.214	13008	0.0002637	3.2e-06
293.22	16007	0.0002719	3.3e-06
293.219	19009	0.0002806	3.4e-06
293.218	22010	0.0002885	3.5e-06
293.219	25002	0.0002967	3.6e-06
293.217	28002	0.0003046	3.6e-06
293.213	30000	0.00031	3.7e-06
313.103	2005	0.0001968	2.5e-06
313.105	4002	0.0002023	2.6e-06
313.102	6001	0.0002075	2.6e-06
313.104	7999	0.0002126	2.7e-06
313.104	10005	0.000218	2.7e-06
313.104	13001	0.0002259	2.8e-06
313.103	16005	0.0002334	2.9e-06
313.1	19002	0.0002409	3e-06
313.102	22002	0.0002485	3.1e-06
313.102	25004	0.0002558	3.1e-06
313.102	28002	0.0002628	3.2e-06
313.102	30005	0.0002676	3.3e-06
333.007	2009	0.0001679	2.2e-06
333.006	3997	0.0001737	2.3e-06
333.007	6002	0.0001787	2.3e-06
333.01	8008	0.0001837	2.4e-06
333.012	10001	0.0001888	2.4e-06
333.011	12998	0.0001958	2.5e-06
333.011	15996	0.0002029	2.6e-06
333.008	19000	0.00021	2.6e-06
333.007	21997	0.000217	2.7e-06
333.01	25000	0.0002239	2.8e-06
333.01	27997	0.0002306	2.9e-06
333.009	30006	0.0002348	2.9e-06
353.121	2006	0.0001452	2e-06
353.12	3997	0.0001504	2e-06
353.122	6002	0.0001557	2.1e-06
353.122	8003	0.0001606	2.1e-06
353.123	10008	0.0001654	2.2e-06
353.124	13000	0.0001724	2.3e-06
353.123	16001	0.0001792	2.3e-06
353.122	18997	0.0001857	2.4e-06
353.126	22000	0.0001922	2.5e-06
353.125	25002	0.0001987	2.5e-06
353.124	28005	0.0002047	2.6e-06
353.122	30001	0.0002087	2.6e-06

System: octane; phases: Liquid
Property: Mass density, kg/m3 (Liquid); method: Vibrating tube method
Temperature, K	Pressure, kPa	Mass density, kg/m3	uncertainty
293.214	1996	703.76	0.93
293.217	3994	705.71	0.94
293.216	6001	707.57	0.94
293.21	8004	709.25	0.95
293.216	10009	710.88	0.96
293.213	13010	713.21	0.97
293.219	16009	715.43	0.98
293.22	19011	717.57	0.99
293.219	22012	719.76	1.01
293.22	25004	721.88	1.02
293.218	28004	724.19	1.03
293.214	30002	725.54	1.04
313.107	2007	688.27	0.91
313.109	4000	690.26	0.92
313.104	5999	692.07	0.93
313.106	7997	693.85	0.93
313.106	10009	695.59	0.94
313.106	13005	698.26	0.95
313.105	16009	700.84	0.97
313.102	19006	703.5	0.98
313.103	21998	706.05	0.99
313.103	25000	708.39	1.01
313.103	27998	710.67	1.02
313.103	30001	712.15	1.03
333.008	2005	672.19	0.89
333.008	3993	674.49	0.9
333.009	5998	676.69	0.91
333.008	8014	678.82	0.92
333.01	10007	680.8	0.93
333.009	13004	683.6	0.94
333.009	16002	686.47	0.95
333.006	19006	689.24	0.97
333.005	22003	691.91	0.98
333.008	25006	694.49	1
333.008	28003	696.99	1.01
333.007	30012	698.61	1.03
353.119	2008	655.38	0.87
353.118	3999	657.99	0.88
353.121	6000	660.5	0.89
353.121	8001	663.11	0.9
353.122	10006	665.45	0.91
353.127	13003	668.83	0.93
353.126	16004	672.05	0.94
353.12	19000	674.99	0.96
353.124	22003	677.96	0.97
353.123	25005	680.81	0.99
353.122	28008	683.56	1.01
353.12	30004	685.34	1.02

System: octane; phases: Liquid
Property: Viscosity, Pa*s (Liquid); method: Capillary tube (Ostwald; Ubbelohde) method
Temperature, K	Pressure, kPa	Viscosity, Pa*s	uncertainty
293.214	1996	0.0005512	6.2e-06
293.217	3994	0.0005631	6.3e-06
293.216	6001	0.0005752	6.4e-06
293.21	8004	0.0005874	6.6e-06
293.216	10009	0.0005997	6.7e-06
293.213	13010	0.0006183	6.9e-06
293.219	16009	0.0006371	7.1e-06
293.22	19011	0.0006566	7.3e-06
293.219	22012	0.0006759	7.5e-06
293.22	25004	0.0006954	7.7e-06
293.218	28004	0.0007152	7.9e-06
293.214	30002	0.0007285	8e-06
313.107	2007	0.0004402	5e-06
313.109	4000	0.0004497	5.1e-06
313.104	5999	0.0004593	5.2e-06
313.106	7997	0.000469	5.3e-06
313.106	10009	0.0004788	5.4e-06
313.106	13005	0.0004935	5.6e-06
313.105	16009	0.0005083	5.7e-06
313.102	19006	0.0005234	5.9e-06
313.103	21998	0.0005385	6.1e-06
313.103	25000	0.0005539	6.2e-06
313.103	27998	0.0005694	6.4e-06
313.103	30001	0.0005798	6.5e-06
333.008	2005	0.0003601	4.2e-06
333.008	3993	0.0003681	4.3e-06
333.009	5998	0.0003761	4.4e-06
333.008	8014	0.0003841	4.4e-06
333.01	10007	0.0003921	4.5e-06
333.009	13004	0.0004043	4.6e-06
333.009	16002	0.0004166	4.8e-06
333.006	19006	0.0004289	4.9e-06
333.005	22003	0.0004414	5e-06
333.008	25006	0.0004539	5.2e-06
333.008	28003	0.0004666	5.3e-06
333.007	30012	0.0004751	5.4e-06
353.119	2008	0.0002974	3.5e-06
353.118	3999	0.0003043	3.6e-06
353.121	6000	0.0003112	3.7e-06
353.121	8001	0.0003181	3.7e-06
353.122	10006	0.000325	3.8e-06
353.127	13003	0.0003354	3.9e-06
353.126	16004	0.0003458	4e-06
353.12	19000	0.0003563	4.1e-06
353.124	22003	0.0003669	4.3e-06
353.123	25005	0.0003775	4.4e-06
353.122	28008	0.0003882	4.5e-06
353.12	30004	0.0003954	4.6e-06

System: nonane; phases: Liquid
Property: Mass density, kg/m3 (Liquid); method: Vibrating tube method
Temperature, K	Pressure, kPa	Mass density, kg/m3	uncertainty
293.208	1993	719.36	0.95
293.211	3991	721.16	0.96
293.21	5993	722.88	0.96
293.208	7996	724.42	0.97
293.213	10001	725.92	0.98
293.21	13001	728	0.99
293.216	16000	730.02	1
293.215	19004	732.11	1.01
293.214	22005	734.14	1.02
293.215	24997	736.13	1.03
293.213	27997	738.31	1.05
293.209	29995	739.58	1.05
313.108	2000	704.08	0.93
313.11	4007	705.88	0.94
313.107	6006	707.62	0.95
313.109	8004	709.24	0.95
313.109	10007	710.92	0.96
313.109	13003	713.28	0.97
313.108	16007	715.76	0.98
313.102	19007	718.18	1
313.104	22007	720.52	1.01
313.104	25009	722.7	1.02
313.104	28007	724.82	1.04
313.104	30010	726.21	1.05
333.005	2014	688.53	0.92
333.004	3990	690.6	0.92
333.005	5995	692.58	0.93
333.008	8001	694.51	0.94
333.011	10007	696.11	0.95
333.01	13004	698.84	0.96
333.01	16002	701.48	0.97
333.007	19006	704.03	0.98
333.006	22003	706.5	1
333.009	25006	708.9	1.01
333.009	28003	711.23	1.03
333.008	30012	712.74	1.04
353.117	2004	672.27	0.9
353.116	3995	674.59	0.9
353.118	6000	676.83	0.91
353.118	8005	679.1	0.92
353.121	10010	681.31	0.93
353.122	13002	684.37	0.94
353.121	16003	687.3	0.96
353.12	18999	689.99	0.97
353.124	22002	692.72	0.99
353.123	25004	695.35	1
353.122	28007	697.9	1.02
353.12	30003	699.56	1.03

System: nonane; phases: Liquid
Property: Viscosity, Pa*s (Liquid); method: Capillary tube (Ostwald; Ubbelohde) method
Temperature, K	Pressure, kPa	Viscosity, Pa*s	uncertainty
293.208	1993	0.0007109	8e-06
293.211	3991	0.0007266	8.1e-06
293.21	5993	0.0007426	8.3e-06
293.208	7996	0.0007587	8.5e-06
293.213	10001	0.000775	8.6e-06
293.21	13001	0.0008	8.9e-06
293.216	16000	0.0008254	9.2e-06
293.215	19004	0.0008517	9.5e-06
293.214	22005	0.0008782	9.7e-06
293.215	24997	0.0009052	1e-05
293.213	27997	0.0009329	1.03e-05
293.209	29995	0.0009516	1.05e-05
313.108	2000	0.000559	6.3e-06
313.11	4007	0.0005709	6.5e-06
313.107	6006	0.0005829	6.6e-06
313.109	8004	0.000595	6.7e-06
313.109	10007	0.0006072	6.8e-06
313.109	13003	0.0006256	7e-06
313.108	16007	0.0006444	7.2e-06
313.102	19007	0.0006634	7.4e-06
313.104	22007	0.0006827	7.7e-06
313.104	25009	0.0007023	7.9e-06
313.104	28007	0.0007222	8.1e-06
313.104	30010	0.0007357	8.2e-06
333.005	2014	0.0004535	5.2e-06
333.004	3990	0.0004631	5.3e-06
333.005	5995	0.0004727	5.4e-06
333.008	8001	0.0004824	5.5e-06
333.011	10007	0.0004921	5.6e-06
333.01	13004	0.0005067	5.8e-06
333.01	16002	0.0005215	5.9e-06
333.007	19006	0.0005364	6.1e-06
333.006	22003	0.0005515	6.3e-06
333.009	25006	0.0005667	6.4e-06
333.009	28003	0.0005821	6.6e-06
333.008	30012	0.0005925	6.7e-06
353.117	2004	0.0003733	4.4e-06
353.116	3995	0.0003814	4.5e-06
353.118	6000	0.0003894	4.5e-06
353.118	8005	0.0003975	4.6e-06
353.121	10010	0.0004056	4.7e-06
353.122	13002	0.0004178	4.8e-06
353.121	16003	0.00043	5e-06
353.12	18999	0.0004422	5.1e-06
353.124	22002	0.0004546	5.2e-06
353.123	25004	0.000467	5.4e-06
353.122	28007	0.0004795	5.5e-06
353.12	30003	0.0004879	5.6e-06

System: decane; phases: Liquid
Property: Mass density, kg/m3 (Liquid); method: Vibrating tube method
Temperature, K	Pressure, kPa	Mass density, kg/m3	uncertainty
303.152	2001	724.01	0.96
303.151	3991	725.58	0.96
303.152	6003	727.19	0.97
303.154	8001	728.75	0.97
303.155	9992	730.27	0.98
303.151	13006	732.5	0.99
303.152	16005	734.69	1
303.15	18998	736.88	1.01
303.151	21997	739	1.02
303.151	25008	741.03	1.03
303.15	27989	743.02	1.04
303.152	29988	744.3	1.05
323.152	1995	708.76	0.94
323.15	4003	710.68	0.94
323.149	5997	712.57	0.95
323.153	8005	714.3	0.96
323.151	10006	715.96	0.96
323.154	12995	718.36	0.98
323.153	15989	720.73	0.99
323.152	18994	723	1
323.154	21997	725.28	1.01
323.152	25006	727.5	1.02
323.154	28004	729.62	1.04
323.153	30005	731.03	1.04
353.156	2000	685.65	0.91
353.157	3999	687.9	0.9
353.155	5998	689.96	0.92
353.155	7997	691.97	0.93
353.156	9991	694.06	0.94
353.157	13003	697.01	0.95
353.158	15994	699.86	0.97
353.156	19005	702.43	0.98
353.155	22010	704.95	0.99
353.156	25000	707.44	1.01
353.156	27992	710.01	1.02
353.157	29995	711.67	1.03

System: decane; phases: Liquid
Property: Viscosity, Pa*s (Liquid); method: Capillary tube (Ostwald; Ubbelohde) method
Temperature, K	Pressure, kPa	Viscosity, Pa*s	uncertainty
303.152	2001	0.0008079	8.9e-06
303.151	3991	0.0008268	9.1e-06
303.152	6003	0.0008461	9.3e-06
303.154	8001	0.0008655	9.5e-06
303.155	9992	0.000885	9.7e-06
303.151	13006	0.000915	1e-05
303.152	16005	0.0009445	1.03e-05
303.15	18998	0.0009734	1.06e-05
303.151	21997	0.001004	1.09e-05
303.151	25008	0.001035	1.13e-05
303.15	27989	0.0010659	1.16e-05
303.152	29988	0.0010862	1.18e-05
323.152	1995	0.0006249	7e-06
323.15	4003	0.0006386	7.1e-06
323.149	5997	0.0006529	7.3e-06
323.153	8005	0.0006676	7.4e-06
323.151	10006	0.0006824	7.6e-06
323.154	12995	0.0007045	7.8e-06
323.153	15989	0.0007274	8e-06
323.152	18994	0.0007511	8.3e-06
323.154	21997	0.000774	8.5e-06
323.152	25006	0.0007981	8.8e-06
323.154	28004	0.000822	9e-06
323.153	30005	0.0008382	9.2e-06
353.156	2000	0.000448	5.1e-06
353.157	3999	0.0004596	5.2e-06
353.155	5998	0.0004714	5.3e-06
353.155	7997	0.0004825	5.5e-06
353.156	9991	0.000494	5.6e-06
353.157	13003	0.0005106	5.8e-06
353.158	15994	0.0005272	5.9e-06
353.156	19005	0.0005442	6.1e-06
353.155	22010	0.0005612	6.3e-06
353.156	25000	0.0005788	6.5e-06
353.156	27992	0.0005967	6.7e-06
353.157	29995	0.0006086	6.8e-06

System: dodecane; phases: Liquid
Property: Mass density, kg/m3 (Liquid); method: Vibrating tube method
Temperature, K	Pressure, kPa	Mass density, kg/m3	uncertainty
293.211	2007	750.58	0.99
293.214	3977	752.18	1
293.213	5979	753.71	1
293.211	7982	755.06	1.01
293.217	9987	756.38	1.01
293.213	12987	758.27	1.02
293.217	15986	760.07	1.03
293.217	18994	761.82	1.04
293.217	21995	763.63	1.05
293.217	24987	765.5	1.06
293.216	27987	767.37	1.07
293.212	29985	768.5	1.07
313.102	1990	736.16	0.97
313.104	4017	737.72	0.98
313.101	6016	739.14	0.98
313.103	8014	740.64	0.99
313.103	10011	742.11	1
313.103	13007	744.26	1.01
313.104	16011	746.36	1.01
313.101	19017	748.61	1.03
313.103	22017	750.69	1.04
313.103	25019	752.63	1.05
313.103	28017	754.52	1.06
313.103	30020	755.75	1.06
333.006	2024	721.82	0.96
333.005	3976	723.61	0.96
333.006	5981	725.32	0.97
333.009	7987	726.99	0.97
333.011	10019	728.35	0.98
333.01	13016	730.73	0.99
333.011	16014	733.04	1
333.008	19018	735.29	1.01
333.007	22015	737.46	1.02
333.01	25018	739.58	1.04
333.01	28015	741.65	1.05
333.009	30024	742.99	1.06
353.117	2000	706.86	0.94
353.117	3991	708.83	0.94
353.118	5996	710.75	0.95
353.118	8009	712.81	0.96
353.123	10014	714.63	0.97
353.124	13006	717.28	0.98
353.123	16007	719.83	0.99
353.122	19003	722.16	1
353.124	22006	724.55	1.01
353.124	25008	726.87	1.03
353.124	28011	729.13	1.04
353.122	30007	730.59	1.05

System: dodecane; phases: Liquid
Property: Viscosity, Pa*s (Liquid); method: Capillary tube (Ostwald; Ubbelohde) method
Temperature, K	Pressure, kPa	Viscosity, Pa*s	uncertainty
293.211	2007	0.0015218	1.66e-05
293.214	3977	0.0015604	1.7e-05
293.213	5979	0.0015995	1.74e-05
293.211	7982	0.001639	1.78e-05
293.217	9987	0.0016789	1.83e-05
293.213	12987	0.0017397	1.89e-05
293.217	15986	0.0018015	1.96e-05
293.217	18994	0.0018648	2.02e-05
293.217	21995	0.0019289	2.09e-05
293.217	24987	0.0019942	2.16e-05
293.216	27987	0.0020607	2.23e-05
293.212	29985	0.0021058	2.28e-05
313.102	1990	0.0010889	1.2e-05
313.104	4017	0.001116	1.23e-05
313.101	6016	0.0011433	1.26e-05
313.103	8014	0.0011709	1.29e-05
313.103	10011	0.0011986	1.32e-05
313.103	13007	0.0012406	1.36e-05
313.104	16011	0.001283	1.4e-05
313.101	19017	0.001326	1.45e-05
313.103	22017	0.0013696	1.5e-05
313.103	25019	0.0014137	1.54e-05
313.103	28017	0.0014584	1.59e-05
313.103	30020	0.0014886	1.62e-05
333.006	2024	0.000823	9.1e-06
333.005	3976	0.0008436	9.4e-06
333.006	5981	0.0008643	9.6e-06
333.009	7987	0.000885	9.8e-06
333.011	10019	0.0009059	1e-05
333.01	13016	0.0009374	1.04e-05
333.011	16014	0.0009691	1.07e-05
333.008	19018	0.001001	1.1e-05
333.007	22015	0.0010331	1.14e-05
333.01	25018	0.0010656	1.17e-05
333.01	28015	0.0010985	1.21e-05
333.009	30024	0.0011205	1.23e-05
353.117	2000	0.0006433	7.2e-06
353.117	3991	0.0006598	7.4e-06
353.118	5996	0.0006763	7.6e-06
353.118	8009	0.0006929	7.8e-06
353.123	10014	0.0007095	7.9e-06
353.124	13006	0.0007344	8.2e-06
353.123	16007	0.0007594	8.5e-06
353.122	19003	0.0007845	8.7e-06
353.124	22006	0.0008098	9e-06
353.124	25008	0.0008352	9.3e-06
353.124	28011	0.0008607	9.5e-06
353.122	30007	0.0008778	9.7e-06
