Measured thermophysical data. Recovery of PhSO3K from Industrial Waste Based on Solid-Liquid Equilibrium of the PhSO3K-K2CO3-H2O System
Source: J. Chem. Eng. Data, 2018, 10.1021/acs.jced.7b00998
Compound 1: potassium carbonate, CK2O3, InChI=1S/CH2O3.2K/c2-1(3)4;;/h(H2,2,3,4);;/q;2*+1/p-2, purity 99%
Compound 2: potassium benzenesulfonate, C6H5KO3S, InChI=1S/C6H6O3S.K/c7-10(8,9)6-4-2-1-3-5-6;/h1-5H,(H,7,8,9);/q;+1/p-1
Compound 3: water, H2O, InChI=1S/H2O/h1H2, purity 99.9%

System: potassium benzenesulfonate + potassium carbonate + water; phases: Liquid, Crystal
Fixed: Pressure, kPa = 100
Property: Mass fraction of potassium benzenesulfonate (Liquid); method: UV spectroscopy and titration
Mass fraction of potassium carbonate	Temperature, K	Mass fraction of potassium benzenesulfonate	uncertainty
0	288.15	0.3076	0.03
0.0266	288.15	0.2826	0.0318
0.0486	288.15	0.2426	0.0321
0.0727	288.15	0.2164	0.0311
0.0909	288.15	0.1994	0.0315
0.1266	288.15	0.1538	0.0312
0.1518	288.15	0.1353	0.0313
0.1854	288.15	0.0897	0.0315
0.2043	288.15	0.0732	0.0308
0.2486	288.15	0.0352	0.0304
0.3093	288.15	0.0108	0.0108
0	298.15	0.3387	0.03
0.0215	298.15	0.3115	0.0313
0.0495	298.15	0.2838	0.031
0.0677	298.15	0.269	0.0321
0.1055	298.15	0.2062	0.0315
0.1741	298.15	0.1391	0.0314
0.2117	298.15	0.0776	0.0309
0.257	298.15	0.0631	0.0304
0.2928	298.15	0.03	0.03
0.3222	298.15	0.0187	0.0187
0	308.15	0.3675	0.03
0.0189	308.15	0.3515	0.0308
0.069	308.15	0.3021	0.0315
0.0982	308.15	0.2572	0.032
0.1368	308.15	0.2125	0.0312
0.1845	308.15	0.1657	0.0309
0.2083	308.15	0.1469	0.0308
0.2507	308.15	0.1019	0.0305
0.3334	308.15	0.0546	0.0302
0.4043	308.15	0.0302	0.0302
0.4196	308.15	0.0211	0.0211
0	318.15	0.3782	0.03
0.0539	318.15	0.3364	0.0308
0.0772	318.15	0.3092	0.0315
0.119	318.15	0.2582	0.0314
0.1685	318.15	0.2041	0.031
0.1908	318.15	0.1894	0.0307
0.2557	318.15	0.1345	0.0309
0.2789	318.15	0.1098	0.0308
0.3187	318.15	0.0798	0.0306
0.3489	318.15	0.059	0.03
0.4396	318.15	0.0239	0.0239
0	328.15	0.3942	0.03
0.0523	328.15	0.3464	0.0309
0.1056	328.15	0.2982	0.0308
0.1273	328.15	0.2834	0.031
0.1634	328.15	0.2441	0.0311
0.2108	328.15	0.1994	0.0311
0.2492	328.15	0.1558	0.031
0.2989	328.15	0.1134	0.0307
0.3287	328.15	0.0898	0.0306
0.3589	328.15	0.0688	0.0305
0.4896	328.15	0.0334	0.0301

System: potassium benzenesulfonate + potassium carbonate + water; phases: Liquid, Crystal of intercomponent compound 1
Fixed: Pressure, kPa = 100
Property: Mass fraction of potassium benzenesulfonate (Liquid); method: UV spectroscopy and titration
Mass fraction of potassium carbonate	Temperature, K	Mass fraction of potassium benzenesulfonate	uncertainty
0.3093	288.15	0.0108	0.0108
0.3222	298.15	0.0187	0.0187
0.4196	308.15	0.0211	0.0211
0.4396	318.15	0.0239	0.0239
0.4896	328.15	0.0334	0.0301
