Measured thermophysical data. Solubility Determination, Correlation, and Solute-Solvent Molecular Interactions of 5-Aminotetrazole in Various Pure Solvents
Source: J. Chem. Eng. Data, 2019, 10.1021/acs.jced.9b00385
Compound 1: 5-aminotetrazole, CH3N5, InChI=1S/CH3N5/c2-1-3-5-6-4-1/h(H3,2,3,4,5,6), purity 98%
Compound 2: methanol, CH4O, InChI=1S/CH4O/c1-2/h2H,1H3, purity 99.6%
Compound 3: ethanol, C2H6O, InChI=1S/C2H6O/c1-2-3/h3H,2H2,1H3, purity 99.5%
Compound 4: propan-1-ol, C3H8O, InChI=1S/C3H8O/c1-2-3-4/h4H,2-3H2,1H3, purity 99.6%
Compound 5: propan-2-ol, C3H8O, InChI=1S/C3H8O/c1-3(2)4/h3-4H,1-2H3, purity 99.7%
Compound 6: butan-1-ol, C4H10O, InChI=1S/C4H10O/c1-2-3-4-5/h5H,2-4H2,1H3, purity 99.5%
Compound 7: acetonitrile, C2H3N, InChI=1S/C2H3N/c1-2-3/h1H3, purity 99.6%
Compound 8: acetone, C3H6O, InChI=1S/C3H6O/c1-3(2)4/h1-2H3, purity 99.5%
Compound 9: ethyl acetate, C4H8O2, InChI=1S/C4H8O2/c1-3-6-4(2)5/h3H2,1-2H3, purity 99.5%
Compound 10: toluene, C7H8, InChI=1S/C7H8/c1-7-5-3-2-4-6-7/h2-6H,1H3, purity 99.6%
Compound 11: 1,4-dioxane, C4H8O2, InChI=1S/C4H8O2/c1-2-6-4-3-5-1/h1-4H2, purity 99.5%
Compound 12: dimethylformamide, C3H7NO, InChI=1S/C3H7NO/c1-4(2)3-5/h3H,1-2H3, purity 99.5%
Compound 13: N-methylpyrrolidone, C5H9NO, InChI=1S/C5H9NO/c1-6-4-2-3-5(6)7/h2-4H2,1H3, purity 99.5%

System: 5-aminotetrazole + methanol; phases: Liquid, Crystal
Fixed: Pressure, kPa = 101.1
Property: Mole fraction of 5-aminotetrazole (Liquid); method: Chromatography
Temperature, K	Mole fraction of 5-aminotetrazole	uncertainty
283.15	0.000615	4.4e-05
288.15	0.000681	4.9e-05
293.15	0.000764	5.5e-05
298.15	0.000858	6.2e-05
303.15	0.000954	6.9e-05
308.15	0.001062	7.7e-05
313.15	0.001179	8.5e-05
318.15	0.001315	9.5e-05
323.15	0.00147	0.000106

System: 5-aminotetrazole + ethanol; phases: Liquid, Crystal
Fixed: Pressure, kPa = 101.1
Property: Mole fraction of 5-aminotetrazole (Liquid); method: Chromatography
Temperature, K	Mole fraction of 5-aminotetrazole	uncertainty
283.15	0.0008	5.8e-05
288.15	0.000896	6.5e-05
293.15	0.00099	7.1e-05
298.15	0.001094	7.9e-05
303.15	0.001207	8.7e-05
308.15	0.001328	9.6e-05
313.15	0.001453	0.000105
318.15	0.001599	0.000115
323.15	0.001752	0.000126

System: 5-aminotetrazole + propan-1-ol; phases: Liquid, Crystal
Fixed: Pressure, kPa = 101.1
Property: Mole fraction of 5-aminotetrazole (Liquid); method: Chromatography
Temperature, K	Mole fraction of 5-aminotetrazole	uncertainty
283.15	0.000694	5e-05
288.15	0.000773	5.6e-05
293.15	0.000868	6.3e-05
298.15	0.000962	6.9e-05
303.15	0.001063	7.7e-05
308.15	0.001173	8.4e-05
313.15	0.00129	9.3e-05
318.15	0.00142	0.000102
323.15	0.001567	0.000113

System: 5-aminotetrazole + propan-2-ol; phases: Liquid, Crystal
Fixed: Pressure, kPa = 101.1
Property: Mole fraction of 5-aminotetrazole (Liquid); method: Chromatography
Temperature, K	Mole fraction of 5-aminotetrazole	uncertainty
283.15	0.000762	5.5e-05
288.15	0.000853	6.1e-05
293.15	0.000946	6.8e-05
298.15	0.00105	7.6e-05
303.15	0.001161	8.4e-05
308.15	0.001279	9.2e-05
313.15	0.001408	0.000101
318.15	0.001541	0.000111
323.15	0.001692	0.000122

System: 5-aminotetrazole + butan-1-ol; phases: Liquid, Crystal
Fixed: Pressure, kPa = 101.1
Property: Mole fraction of 5-aminotetrazole (Liquid); method: Chromatography
Temperature, K	Mole fraction of 5-aminotetrazole	uncertainty
283.15	0.000455	3.3e-05
288.15	0.00051	3.7e-05
293.15	0.000577	4.2e-05
298.15	0.00066	4.8e-05
303.15	0.000755	5.4e-05
308.15	0.000869	6.3e-05
313.15	0.001001	7.2e-05
318.15	0.001151	8.3e-05
323.15	0.001315	9.5e-05

System: 5-aminotetrazole + acetonitrile; phases: Liquid, Crystal
Fixed: Pressure, kPa = 101.1
Property: Mole fraction of 5-aminotetrazole (Liquid); method: Chromatography
Temperature, K	Mole fraction of 5-aminotetrazole	uncertainty
283.15	0.000193	1.4e-05
288.15	0.000213	1.5e-05
293.15	0.000235	1.7e-05
298.15	0.000256	1.8e-05
303.15	0.00028	2e-05
308.15	0.000304	2.2e-05
313.15	0.000329	2.4e-05
318.15	0.000357	2.6e-05
323.15	0.000385	2.8e-05

System: 5-aminotetrazole + ethyl acetate; phases: Liquid, Crystal
Fixed: Pressure, kPa = 101.1
Property: Mole fraction of 5-aminotetrazole (Liquid); method: Chromatography
Temperature, K	Mole fraction of 5-aminotetrazole	uncertainty
283.15	0.000499	3.6e-05
288.15	0.000572	4.1e-05
293.15	0.000649	4.7e-05
298.15	0.000734	5.3e-05
303.15	0.000834	6e-05
308.15	0.000943	6.8e-05
313.15	0.001068	7.7e-05
318.15	0.001221	8.8e-05
323.15	0.001393	0.0001

System: 5-aminotetrazole + acetone; phases: Liquid, Crystal
Fixed: Pressure, kPa = 101.1
Property: Mole fraction of 5-aminotetrazole (Liquid); method: Chromatography
Temperature, K	Mole fraction of 5-aminotetrazole	uncertainty
283.15	0.000749	5.4e-05
288.15	0.000832	6e-05
293.15	0.000916	6.6e-05
298.15	0.001016	7.3e-05
303.15	0.001117	8e-05
308.15	0.001231	8.9e-05
313.15	0.001354	9.8e-05
318.15	0.001488	0.000107
323.15	0.00162	0.000117

System: 5-aminotetrazole + 1,4-dioxane; phases: Liquid, Crystal
Fixed: Pressure, kPa = 101.1
Property: Mole fraction of 5-aminotetrazole (Liquid); method: Chromatography
Temperature, K	Mole fraction of 5-aminotetrazole	uncertainty
288.15	0.0178	0.00128
293.15	0.02167	0.00156
298.15	0.02674	0.00193
303.15	0.03276	0.00236
308.15	0.03929	0.00283
313.15	0.04626	0.00333
318.15	0.05506	0.00397
323.15	0.06523	0.0047

System: 5-aminotetrazole + toluene; phases: Liquid, Crystal
Fixed: Pressure, kPa = 101.1
Property: Mole fraction of 5-aminotetrazole (Liquid); method: Chromatography
Temperature, K	Mole fraction of 5-aminotetrazole	uncertainty
283.15	0.001348	9.7e-05
288.15	0.001556	0.000112
293.15	0.001767	0.000127
298.15	0.002011	0.000145
303.15	0.002287	0.000165
308.15	0.002596	0.000187
313.15	0.002945	0.000212
318.15	0.003348	0.000241
323.15	0.003811	0.000275

System: 5-aminotetrazole + N-methylpyrrolidone; phases: Liquid, Crystal
Fixed: Pressure, kPa = 101.1
Property: Mole fraction of 5-aminotetrazole (Liquid); method: Chromatography
Temperature, K	Mole fraction of 5-aminotetrazole	uncertainty
283.15	0.02232	0.00161
288.15	0.02649	0.00191
293.15	0.03115	0.00224
298.15	0.0366	0.00264
303.15	0.04319	0.00311
308.15	0.05015	0.00361
313.15	0.05768	0.00416
318.15	0.0657	0.00473
323.15	0.07415	0.00534

System: 5-aminotetrazole + dimethylformamide; phases: Liquid, Crystal
Fixed: Pressure, kPa = 101.1
Property: Mole fraction of 5-aminotetrazole (Liquid); method: Chromatography
Temperature, K	Mole fraction of 5-aminotetrazole	uncertainty
283.15	0.02843	0.00205
288.15	0.0326	0.00235
293.15	0.03796	0.00273
298.15	0.04368	0.00315
303.15	0.04933	0.00355
308.15	0.05588	0.00403
313.15	0.06281	0.00452
318.15	0.07074	0.0051
323.15	0.07951	0.00573
