Measured thermophysical data. Solubility of Acetylene in Alcohols and Ketones
Source: J. Chem. Eng. Data, 2018, 10.1021/acs.jced.8b00126
Compound 1: 1,4-butanediol, C4H10O2, InChI=1S/C4H10O2/c5-3-1-2-4-6/h5-6H,1-4H2
Compound 2: diethylene glycol, C4H10O3, InChI=1S/C4H10O3/c5-1-3-7-4-2-6/h5-6H,1-4H2
Compound 3: 3,7-dimethyl-1,6-octadien-3-ol, C10H18O, InChI=1S/C10H18O/c1-5-10(4,11)8-6-7-9(2)3/h5,7,11H,1,6,8H2,2-4H3
Compound 4: 1,2-ethanediol, C2H6O2, InChI=1S/C2H6O2/c3-1-2-4/h3-4H,1-2H2
Compound 5: propan-2-ol, C3H8O, InChI=1S/C3H8O/c1-3(2)4/h3-4H,1-2H3
Compound 6: 2-methyl-1-propanol, C4H10O, InChI=1S/C4H10O/c1-4(2)3-5/h4-5H,3H2,1-2H3
Compound 7: butan-1-ol, C4H10O, InChI=1S/C4H10O/c1-2-3-4-5/h5H,2-4H2,1H3
Compound 8: N-methylpyrrolidone, C5H9NO, InChI=1S/C5H9NO/c1-6-4-2-3-5(6)7/h2-4H2,1H3
Compound 9: 2-pyrrolidinone, C4H7NO, InChI=1S/C4H7NO/c6-4-2-1-3-5-4/h1-3H2,(H,5,6)
Compound 10: N-vinylpyrrolidone, C6H9NO, InChI=1S/C6H9NO/c1-2-7-5-3-4-6(7)8/h2H,1,3-5H2
Compound 11: 6-methyl-5-hepten-2-one, C8H14O, InChI=1S/C8H14O/c1-7(2)5-4-6-8(3)9/h5H,4,6H2,1-3H3
Compound 12: (E)-6,10-dimethyl-5,9-undecadien-2-one, C13H22O, InChI=1S/C13H22O/c1-11(2)7-5-8-12(3)9-6-10-13(4)14/h7,9H,5-6,8,10H2,1-4H3/b12-9+
Compound 13: ethyne, C2H2, InChI=1S/C2H2/c1-2/h1-2H

System: ethyne + diethylene glycol; phases: Liquid, Gas
Property: Mole fraction of ethyne (Liquid); method: Phase equilibration
Temperature, K	Pressure, kPa	Mole fraction of ethyne	uncertainty
278.15	39	0.0158	0.01
278.15	60	0.0248	0.01
278.15	90	0.0372	0.01
278.15	122	0.0486	0.01
278.15	152	0.0592	0.01
278.15	180	0.0702	0.01
278.15	201	0.0791	0.01
288.15	62	0.0192	0.01
288.15	94	0.0297	0.01
288.15	122	0.0368	0.01
288.15	141	0.0445	0.01
288.15	154	0.0492	0.01
288.15	178	0.0561	0.01
288.15	201	0.0624	0.01
298.15	44	0.0109	0.01
298.15	69	0.0184	0.01
298.15	101	0.0265	0.01
298.15	131	0.0344	0.01
298.15	152	0.0398	0.01
298.15	176	0.0463	0.01
298.15	199	0.0523	0.01
308.15	53	0.0129	0.01
308.15	84	0.0202	0.01
308.15	101	0.0242	0.01
308.15	135	0.0321	0.01
308.15	166	0.0398	0.01
308.15	181	0.0426	0.01
308.15	203	0.0482	0.01
318.15	70	0.0146	0.01
318.15	93	0.0193	0.01
318.15	122	0.0242	0.01
318.15	145	0.0291	0.01
318.15	159	0.033	0.01
318.15	183	0.0374	0.01
318.15	201	0.0419	0.01

System: ethyne + 1,2-ethanediol; phases: Liquid, Gas
Property: Mole fraction of ethyne (Liquid); method: Phase equilibration
Temperature, K	Pressure, kPa	Mole fraction of ethyne	uncertainty
278.15	69	0.0081	0.0081
278.15	86	0.0104	0.01
278.15	101	0.0123	0.01
278.15	137	0.0158	0.01
278.15	156	0.0178	0.01
278.15	172	0.0202	0.01
278.15	181	0.0213	0.01
288.15	71	0.0067	0.0067
288.15	80	0.0077	0.0077
288.15	94	0.0092	0.0092
288.15	135	0.0128	0.01
288.15	151	0.0146	0.01
288.15	173	0.0165	0.01
288.15	185	0.0176	0.01
298.15	70	0.005	0.005
298.15	91	0.0067	0.0067
298.15	95	0.0071	0.0071
298.15	98	0.0073	0.0073
298.15	129	0.0098	0.0098
298.15	153	0.0115	0.01
298.15	187	0.0139	0.01
308.15	69	0.004	0.004
308.15	79	0.0046	0.0046
308.15	91	0.0053	0.0053
308.15	121	0.0071	0.0071
308.15	143	0.0082	0.0082
308.15	152	0.0087	0.0087
308.15	181	0.0106	0.01
318.15	69	0.0033	0.0033
318.15	81	0.0039	0.0039
318.15	93	0.0045	0.0045
318.15	114	0.0053	0.0053
318.15	131	0.006	0.006
318.15	151	0.0069	0.0069
318.15	181	0.0082	0.0082

System: ethyne + propan-2-ol; phases: Liquid, Gas
Property: Mole fraction of ethyne (Liquid); method: Phase equilibration
Temperature, K	Pressure, kPa	Mole fraction of ethyne	uncertainty
278.15	73	0.0209	0.01
278.15	79	0.0229	0.01
278.15	88	0.0251	0.01
278.15	117	0.0337	0.01
278.15	134	0.0384	0.01
278.15	156	0.0454	0.01
278.15	177	0.0532	0.01
288.15	73	0.0179	0.01
288.15	90	0.0222	0.01
288.15	111	0.0279	0.01
288.15	135	0.0329	0.01
288.15	152	0.0387	0.01
288.15	174	0.0435	0.01
288.15	184	0.0484	0.0101
298.15	78	0.017	0.01
298.15	92	0.02	0.01
298.15	127	0.0274	0.01
298.15	147	0.0318	0.01
298.15	161	0.0356	0.01
298.15	174	0.0393	0.01
298.15	188	0.0421	0.01
308.15	76	0.0126	0.01
308.15	93	0.0155	0.01
308.15	112	0.0185	0.01
308.15	136	0.0223	0.01
308.15	146	0.0245	0.01
308.15	164	0.0295	0.01
308.15	185	0.0331	0.01
318.15	75	0.0094	0.0094
318.15	98	0.0114	0.01
318.15	113	0.0127	0.01
318.15	140	0.0166	0.01
318.15	146	0.017	0.01
318.15	161	0.0193	0.01
318.15	172	0.0211	0.01

System: ethyne + 2-methyl-1-propanol; phases: Liquid, Gas
Property: Mole fraction of ethyne (Liquid); method: Phase equilibration
Temperature, K	Pressure, kPa	Mole fraction of ethyne	uncertainty
278.15	62	0.0222	0.01
278.15	88	0.0315	0.01
278.15	112	0.0399	0.01
278.15	120	0.0426	0.01
278.15	131	0.0467	0.01
278.15	151	0.0563	0.01
278.15	169	0.063	0.01
288.15	61	0.0151	0.01
288.15	89	0.0225	0.01
288.15	95	0.0233	0.01
288.15	116	0.03	0.01
288.15	146	0.0374	0.01
288.15	167	0.0434	0.01
288.15	194	0.0502	0.01
298.15	61	0.0124	0.01
298.15	87	0.017	0.01
298.15	111	0.021	0.01
298.15	126	0.0238	0.01
298.15	150	0.029	0.01
298.15	165	0.0333	0.01
298.15	179	0.0371	0.01
308.15	67	0.0099	0.0099
308.15	93	0.0145	0.01
308.15	112	0.0166	0.01
308.15	125	0.0185	0.01
308.15	144	0.0223	0.01
308.15	161	0.0257	0.01
308.15	183	0.0289	0.01
318.15	70	0.0088	0.0088
318.15	90	0.0109	0.01
318.15	101	0.0124	0.01
318.15	115	0.0139	0.01
318.15	133	0.0164	0.01
318.15	161	0.0211	0.01
318.15	173	0.0226	0.01

System: ethyne + butan-1-ol; phases: Liquid, Gas
Property: Mole fraction of ethyne (Liquid); method: Phase equilibration
Temperature, K	Pressure, kPa	Mole fraction of ethyne	uncertainty
278.15	62	0.0151	0.01
278.15	89	0.0214	0.01
278.15	76	0.0194	0.01
278.15	101	0.0241	0.01
278.15	133	0.0331	0.01
278.15	156	0.0382	0.01
278.15	176	0.0442	0.01
288.15	60	0.0112	0.01
288.15	92	0.0164	0.01
288.15	124	0.0225	0.01
288.15	137	0.0261	0.01
288.15	147	0.0273	0.01
288.15	152	0.0282	0.0101
288.15	180	0.033	0.01
298.15	75	0.0115	0.01
298.15	83	0.0132	0.01
298.15	101	0.0155	0.01
298.15	120	0.0177	0.01
298.15	139	0.0207	0.01
298.15	168	0.0263	0.01
298.15	181	0.0288	0.01
308.15	66	0.0087	0.0087
308.15	75	0.0102	0.01
308.15	92	0.0124	0.01
308.15	101	0.0132	0.01
308.15	129	0.0172	0.01
308.15	150	0.0195	0.01
308.15	180	0.0235	0.01
318.15	68	0.0072	0.0072
318.15	83	0.009	0.009
318.15	101	0.0106	0.01
318.15	122	0.0134	0.01
318.15	142	0.0149	0.01
318.15	161	0.0171	0.01
318.15	181	0.0187	0.01

System: ethyne + 1,4-butanediol; phases: Liquid, Gas
Property: Mole fraction of ethyne (Liquid); method: Phase equilibration
Temperature, K	Pressure, kPa	Mole fraction of ethyne	uncertainty
298.15	65	0.0105	0.01
298.15	73	0.0117	0.01
298.15	81	0.0127	0.01
298.15	115	0.0177	0.01
298.15	139	0.0218	0.01
298.15	158	0.0248	0.01
298.15	178	0.0277	0.01
308.15	66	0.0085	0.0085
308.15	75	0.0099	0.0099
308.15	86	0.0108	0.01
308.15	116	0.014	0.01
308.15	140	0.0172	0.01
308.15	154	0.0187	0.01
308.15	175	0.0214	0.01
318.15	67	0.006	0.006
318.15	79	0.007	0.007
318.15	91	0.0082	0.0082
318.15	101	0.0087	0.0087
318.15	135	0.0112	0.01
318.15	156	0.013	0.01
318.15	181	0.0156	0.01

System: ethyne + 3,7-dimethyl-1,6-octadien-3-ol; phases: Liquid, Gas
Property: Mole fraction of ethyne (Liquid); method: Phase equilibration
Temperature, K	Pressure, kPa	Mole fraction of ethyne	uncertainty
298.15	70	0.0307	0.0101
298.15	83	0.0382	0.0101
298.15	95	0.0452	0.01
298.15	111	0.0511	0.01
298.15	133	0.0617	0.01
298.15	163	0.0749	0.01
298.15	176	0.0799	0.01
308.15	69	0.0242	0.01
308.15	81	0.0283	0.01
308.15	94	0.0331	0.01
308.15	112	0.0383	0.01
308.15	145	0.0523	0.01
308.15	163	0.0578	0.01
308.15	183	0.0661	0.01
318.15	62	0.0139	0.01
318.15	82	0.0177	0.01
318.15	95	0.0218	0.01
318.15	111	0.0256	0.01
318.15	130	0.0294	0.01
318.15	153	0.035	0.01
318.15	186	0.0406	0.01

System: ethyne + N-methylpyrrolidone; phases: Liquid, Gas
Property: Mole fraction of ethyne (Liquid); method: Phase equilibration
Temperature, K	Pressure, kPa	Mole fraction of ethyne	uncertainty
278.15	32	0.0675	0.011
278.15	53	0.1153	0.0109
278.15	75	0.1603	0.011
278.15	102	0.2242	0.0112
278.15	127	0.2842	0.0111
278.15	149	0.3296	0.0108
278.15	187	0.3907	0.0108
288.15	30	0.0525	0.0105
288.15	63	0.1053	0.0106
288.15	95	0.1603	0.0106
288.15	119	0.1942	0.0106
288.15	130	0.2103	0.0105
288.15	156	0.2516	0.0105
288.15	201	0.3104	0.0106
298.15	43	0.0601	0.0103
298.15	52	0.0711	0.0105
298.15	92	0.1204	0.0103
298.15	141	0.1732	0.0103
298.15	161	0.198	0.0104
298.15	171	0.2116	0.0103
298.15	181	0.2196	0.0102
308.15	36	0.0316	0.0101
308.15	77	0.0647	0.0102
308.15	101	0.0878	0.0102
308.15	141	0.1294	0.0102
308.15	161	0.1391	0.0101
308.15	181	0.153	0.0102
308.15	201	0.1711	0.0102
318.15	41	0.0299	0.0101
318.15	71	0.0529	0.0101
318.15	97	0.0715	0.0101
318.15	141	0.1034	0.0101
318.15	161	0.1182	0.0101
318.15	181	0.1287	0.0101
318.15	201	0.1381	0.0101

System: ethyne + 6-methyl-5-hepten-2-one; phases: Liquid, Gas
Property: Mole fraction of ethyne (Liquid); method: Phase equilibration
Temperature, K	Pressure, kPa	Mole fraction of ethyne	uncertainty
278.15	65	0.0972	0.0101
278.15	77	0.107	0.0105
278.15	89	0.1343	0.0106
278.15	118	0.179	0.0104
278.15	131	0.187	0.0104
278.15	158	0.2288	0.0104
278.15	181	0.2532	0.0104
288.15	59	0.0637	0.0103
288.15	71	0.0767	0.0103
288.15	84	0.0924	0.0103
288.15	95	0.1041	0.0103
288.15	127	0.1488	0.0104
288.15	146	0.173	0.0102
288.15	194	0.2104	0.0102
298.15	72	0.0592	0.0101
298.15	88	0.0712	0.0101
298.15	101	0.084	0.0102
298.15	126	0.1083	0.0102
298.15	149	0.1288	0.0102
298.15	161	0.1367	0.0102
298.15	183	0.1591	0.0103
308.15	69	0.0389	0.01
308.15	80	0.0454	0.0101
308.15	97	0.0588	0.0101
308.15	111	0.0649	0.0101
308.15	135	0.0824	0.0101
308.15	171	0.0979	0.0101
308.15	183	0.1058	0.0104
318.15	71	0.0306	0.01
318.15	86	0.0363	0.01
318.15	98	0.0425	0.01
318.15	132	0.0528	0.01
318.15	147	0.0646	0.0101
318.15	154	0.0617	0.01
318.15	186	0.0809	0.0101

System: ethyne + (E)-6,10-dimethyl-5,9-undecadien-2-one; phases: Liquid, Gas
Property: Mole fraction of ethyne (Liquid); method: Phase equilibration
Temperature, K	Pressure, kPa	Mole fraction of ethyne	uncertainty
278.15	63	0.0947	0.0106
278.15	72	0.1099	0.0104
278.15	94	0.1395	0.0104
278.15	126	0.1825	0.0105
278.15	139	0.2088	0.0104
278.15	161	0.231	0.0104
278.15	188	0.2692	0.0105
288.15	72	0.0835	0.0102
288.15	83	0.1013	0.0104
288.15	99	0.122	0.0103
288.15	118	0.1412	0.0103
288.15	143	0.173	0.0103
288.15	155	0.1794	0.0103
288.15	178	0.2093	0.0104
298.15	70	0.0737	0.0103
298.15	85	0.0882	0.0102
298.15	96	0.0983	0.0102
298.15	126	0.1312	0.0102
298.15	145	0.1474	0.0103
298.15	161	0.1673	0.0103
298.15	176	0.1813	0.0101
308.15	62	0.044	0.0101
308.15	71	0.0501	0.0101
308.15	90	0.0634	0.0101
308.15	119	0.0838	0.0101
308.15	153	0.115	0.0102
308.15	174	0.1277	0.0101
308.15	181	0.127	0.01
318.15	68	0.034	0.01
318.15	83	0.041	0.0101
318.15	97	0.0506	0.0101
318.15	137	0.0692	0.0101
318.15	157	0.0854	0.0101
318.15	171	0.0854	0.0101
318.15	188	0.1015	0.0102

System: ethyne + N-vinylpyrrolidone; phases: Liquid, Gas
Property: Mole fraction of ethyne (Liquid); method: Phase equilibration
Temperature, K	Pressure, kPa	Mole fraction of ethyne	uncertainty
288.15	54	0.0443	0.0101
288.15	66	0.0542	0.0102
288.15	91	0.0784	0.0101
288.15	131	0.1084	0.0102
288.15	148	0.1313	0.0103
288.15	161	0.14	0.0102
288.15	181	0.1633	0.0103
298.15	66	0.0431	0.0102
298.15	84	0.0587	0.0101
298.15	114	0.0747	0.0101
298.15	141	0.0915	0.0101
298.15	161	0.1077	0.0101
298.15	181	0.1172	0.0101
298.15	201	0.1389	0.0103
308.15	46	0.0258	0.01
308.15	72	0.0365	0.0101
308.15	86	0.0479	0.0101
308.15	111	0.0563	0.0101
308.15	141	0.0758	0.0101
308.15	181	0.0982	0.0101
308.15	201	0.1058	0.0101
318.15	57	0.0273	0.01
318.15	74	0.0337	0.01
318.15	95	0.043	0.01
318.15	140	0.0647	0.0101
318.15	156	0.0731	0.0101
318.15	181	0.0854	0.0101
318.15	201	0.0943	0.0101

System: ethyne + 2-pyrrolidinone; phases: Liquid, Gas
Property: Mole fraction of ethyne (Liquid); method: Phase equilibration
Temperature, K	Pressure, kPa	Mole fraction of ethyne	uncertainty
298.15	57	0.0315	0.0101
298.15	69	0.0384	0.0101
298.15	91	0.049	0.0101
298.15	141	0.0763	0.0101
298.15	161	0.0842	0.0101
298.15	181	0.0945	0.0101
298.15	201	0.1078	0.0101
308.15	71	0.0293	0.01
308.15	87	0.0357	0.0101
308.15	95	0.0396	0.0101
308.15	141	0.0573	0.01
308.15	161	0.0656	0.01
308.15	181	0.0741	0.01
308.15	201	0.082	0.0101
318.15	44	0.0161	0.01
318.15	61	0.0222	0.01
318.15	97	0.0345	0.01
318.15	141	0.051	0.01
318.15	161	0.0569	0.01
318.15	181	0.0629	0.01
318.15	201	0.0694	0.01
