Measured thermophysical data. Solid-Liquid Equilibrium and Phase Diagram for Ternary 2-Methyl-1,4-naphthoquinone + Phthalic Anhydride +1,4-Dioxane System
Source: J. Chem. Eng. Data, 2017, 10.1021/acs.jced.7b00609
Compound 1: 2-methyl-1,4-naphthalenedione, C11H8O2, InChI=1S/C11H8O2/c1-7-6-10(12)8-4-2-3-5-9(8)11(7)13/h2-6H,1H3, purity 99%
Compound 2: isobenzofuran-1,3-dione, C8H4O3, InChI=1S/C8H4O3/c9-7-5-3-1-2-4-6(5)8(10)11-7/h1-4H, purity 99.7%
Compound 3: 1,4-dioxane, C4H8O2, InChI=1S/C4H8O2/c1-2-6-4-3-5-1/h1-4H2, purity 99.9%

System: 2-methyl-1,4-naphthalenedione + isobenzofuran-1,3-dione + 1,4-dioxane; phases: Liquid, Crystal
Fixed: Pressure, kPa = 100
Property: Mass fraction of isobenzofuran-1,3-dione (Liquid); method: Chromatography
Temperature, K	Mass fraction of 2-methyl-1,4-naphthalenedione	Mass fraction of isobenzofuran-1,3-dione	uncertainty
283.15	0	0.0851	0.00341
283.15	0.03313	0.0856	0.00343
283.15	0.0584	0.08501	0.00341
283.15	0.08838	0.08277	0.00332
283.15	0.1122	0.08166	0.00328
283.15	0.1343	0.08054	0.00324
283.15	0.1502	0.08	0.00321
293.15	0	0.1354	0.0054
293.15	0.0272	0.1342	0.0054
293.15	0.0535	0.1325	0.0053
293.15	0.08103	0.1302	0.0052
293.15	0.1159	0.128	0.0051
293.15	0.1536	0.125	0.005
293.15	0.1884	0.1232	0.005
303.15	0	0.21	0.0084
303.15	0.0468	0.208	0.0083
303.15	0.07735	0.2029	0.0081
303.15	0.112	0.1987	0.008
303.15	0.149	0.1929	0.0078
303.15	0.1887	0.1878	0.0076
303.15	0.2403	0.1802	0.0074

System: 2-methyl-1,4-naphthalenedione + isobenzofuran-1,3-dione + 1,4-dioxane; phases: Liquid, Crystal
Fixed: Pressure, kPa = 100
Property: Mass fraction of isobenzofuran-1,3-dione (Liquid); method: Chromatography
Temperature, K	Mass fraction of 2-methyl-1,4-naphthalenedione	Mass fraction of isobenzofuran-1,3-dione	uncertainty
283.15	0.1502	0.08	0.08
283.15	0.1506	0.0672	0.0672
283.15	0.1514	0.05097	0.05097
283.15	0.1526	0.04374	0.04374
283.15	0.1526	0.03145	0.03145
283.15	0.1532	0.01975	0.01975
283.15	0.1527	0	
293.15	0.1884	0.1232	0.0408
293.15	0.1946	0.0899	0.04372
293.15	0.1964	0.0778	0.06598
293.15	0.1982	0.0597	0.0597
293.15	0.2004	0.0455	0.0455
293.15	0.2037	0.0232	0.0232
293.15	0.2052	0	
303.15	0.2403	0.1802	0.1124
303.15	0.2439	0.1382	0.0829
303.15	0.248	0.1144	0.0595
303.15	0.2521	0.0892	0.06282
303.15	0.2562	0.0634	0.0634
303.15	0.2597	0.0357	0.0357
303.15	0.2653	0	

System: 2-methyl-1,4-naphthalenedione + isobenzofuran-1,3-dione + 1,4-dioxane; phases: Liquid
Fixed: Pressure, kPa = 100
Property: Mass density, kg/m3 (Liquid); method: Pycnometric method
Temperature, K	Mass fraction of 2-methyl-1,4-naphthalenedione	Mass fraction of isobenzofuran-1,3-dione	Mass density, kg/m3	uncertainty
283.15	0	0.0851	1052.7	14.3
283.15	0.03313	0.0856	1061.5	14.1
283.15	0.0584	0.08501	1069.1	14.1
283.15	0.08838	0.08277	1074.7	14.1
283.15	0.1122	0.08166	1081	14.1
283.15	0.1343	0.08054	1086	14.1
283.15	0.1502	0.08	1088.9	14.2
283.15	0.1506	0.0672	1080.5	14.1
283.15	0.1514	0.05097	1079.5	14.1
283.15	0.1526	0.04374	1074.6	14.3
283.15	0.1526	0.03145	1062.8	14.1
283.15	0.1532	0.01975	1059.9	14
283.15	0.1527	0	1052.8	14.1
293.15	0	0.1354	1059.7	14
293.15	0.0272	0.1342	1066.4	14
293.15	0.0535	0.1325	1073.8	14.7
293.15	0.08103	0.1302	1078.5	14.2
293.15	0.1159	0.128	1085.8	14.2
293.15	0.1536	0.125	1090.9	14.1
293.15	0.1884	0.1232	1096.1	14.1
293.15	0.1946	0.0899	1090.8	14.1
293.15	0.1964	0.0778	1089	14.2
293.15	0.1982	0.0597	1079.8	14.5
293.15	0.2004	0.0455	1065.8	14.3
293.15	0.2037	0.0232	1058.5	14.1
293.15	0.2052	0	1056.2	14
303.15	0	0.21	1061.9	14.1
303.15	0.0468	0.208	1072.9	14.1
303.15	0.07735	0.2029	1079.7	14.5
303.15	0.112	0.1987	1086.3	15.2
303.15	0.149	0.1929	1092.9	14.4
303.15	0.1887	0.1878	1098.9	14.4
303.15	0.2403	0.1802	1104.2	14.2
303.15	0.2439	0.1382	1094.5	14.2
303.15	0.248	0.1144	1084.6	14.5
303.15	0.2521	0.0892	1072.8	14.7
303.15	0.2562	0.0634	1059.9	14.5
303.15	0.2597	0.0357	1057.8	14
303.15	0.2653	0	1057.1	14

System: 2-methyl-1,4-naphthalenedione + 1,4-dioxane; phases: Liquid, Crystal
Fixed: Pressure, kPa = 100
Property: Mole fraction of 2-methyl-1,4-naphthalenedione (Liquid); method: Chromatography
Temperature, K	Mole fraction of 2-methyl-1,4-naphthalenedione	uncertainty
283.15	0.0851	0.0034
288.15	0.0995	0.004
293.15	0.1168	0.0047
298.15	0.1352	0.0054
303.15	0.1561	0.0063
308.15	0.1779	0.0071

System: 2-methyl-1,4-naphthalenedione + 1,4-dioxane; phases: Liquid, Crystal
Fixed: Pressure, kPa = 100
Property: Solid-liquid equilibrium temperature, K (Liquid); method: chromatography
Mass fraction of 2-methyl-1,4-naphthalenedione	Solid-liquid equilibrium temperature, K	uncertainty
0.1527	283.15	1.23
0.2052	293.15	1.51
0.2653	303.15	1.81

System: 2-methyl-1,4-naphthalenedione + 1,4-dioxane; phases: Liquid
Fixed: Pressure, kPa = 100
Property: Mass density, kg/m3 (Liquid); method: Pycnometric method
Temperature, K	Mass fraction of 2-methyl-1,4-naphthalenedione	Mass density, kg/m3	uncertainty
283.15	0.1527	1052.8	14
293.15	0.2052	1056.2	14.3
303.15	0.2653	1057.1	14.4

System: isobenzofuran-1,3-dione + 1,4-dioxane; phases: Liquid, Crystal
Fixed: Pressure, kPa = 100
Property: Mole fraction of isobenzofuran-1,3-dione (Liquid); method: Chromatography
Temperature, K	Mole fraction of isobenzofuran-1,3-dione	uncertainty
283.15	0.05241	0.0021
288.15	0.06754	0.00271
293.15	0.0852	0.00341
298.15	0.107	0.0043
303.15	0.1366	0.0055
308.15	0.1735	0.007

System: isobenzofuran-1,3-dione + 1,4-dioxane; phases: Liquid, Crystal
Fixed: Pressure, kPa = 100
Property: Mass fraction of isobenzofuran-1,3-dione (Liquid); method: Chromatography
Temperature, K	Mass fraction of isobenzofuran-1,3-dione	uncertainty
283.15	0.0851	0.00341
293.15	0.1354	0.0054
303.15	0.21	0.0084

System: isobenzofuran-1,3-dione + 1,4-dioxane; phases: Liquid
Fixed: Pressure, kPa = 100
Property: Mass density, kg/m3 (Liquid); method: Pycnometric method
Temperature, K	Mass fraction of isobenzofuran-1,3-dione	Mass density, kg/m3	uncertainty
283.15	0.0851	1052.7	14
293.15	0.1354	1059.7	14
303.15	0.21	1061.9	14
