Measured thermophysical data. Effect of Alkyl Chain Branching on Physicochemical Properties of Imidazolium-Based Ionic Liquids
Source: J. Chem. Eng. Data, 2016, 10.1021/acs.jced.5b00658
Compound 1: 1-methyl-3-propylimidazolium bis[(trifluoromethyl)sulfonyl]imide, C9H13F6N3O4S2, InChI=1S/C7H13N2.C2F6NO4S2/c1-3-4-9-6-5-8(2)7-9;3-1(4,5)14(10,11)9-15(12,13)2(6,7)8/h5-7H,3-4H2,1-2H3;/q+1;-1
Compound 2: 1-butyl-3-methylimidazolium bis(trifluoromethylsulfonyl)imide, C10H15F6N3O4S2, InChI=1S/C8H15N2.C2F6NO4S2/c1-3-4-5-10-7-6-9(2)8-10;3-1(4,5)14(10,11)9-15(12,13)2(6,7)8/h6-8H,3-5H2,1-2H3;/q+1;-1
Compound 3: 1-methyl-3-pentylimidazolium bis(trifluoromethylsulfonyl)imide, C11H17F6N3O4S2, InChI=1S/C9H17N2.C2F6NO4S2/c1-3-4-5-6-11-8-7-10(2)9-11;3-1(4,5)14(10,11)9-15(12,13)2(6,7)8/h7-9H,3-6H2,1-2H3;/q+1;-1
Compound 4: 1-hexyl-3-methylimidazolium bis[(trifluoromethyl)sulfonyl]imide, C12H19F6N3O4S2, InChI=1S/C10H19N2.C2F6NO4S2/c1-3-4-5-6-7-12-9-8-11(2)10-12;3-1(4,5)14(10,11)9-15(12,13)2(6,7)8/h8-10H,3-7H2,1-2H3;/q+1;-1
Compound 5: 1-heptyl-3-methylimidazolium bis(trifluoromethylsulfonyl)amide, C13H21F6N3O4S2, InChI=1S/C11H21N2.C2F6NO4S2/c1-3-4-5-6-7-8-13-10-9-12(2)11-13;3-1(4,5)14(10,11)9-15(12,13)2(6,7)8/h9-11H,3-8H2,1-2H3;/q+1;-1
Compound 6: 1-methyl-3-(1-methylethyl)imidazolium bis[(trifluoromethyl)sulfonyl]imide, C9H13F6N3O4S2, InChI=1S/C7H13N2.C2F6NO4S2/c1-7(2)9-5-4-8(3)6-9;3-1(4,5)14(10,11)9-15(12,13)2(6,7)8/h4-7H,1-3H3;/q+1;-1
Compound 7: 1-isobutyl-3-methylimidazolium bis[(trifluoromethyl)sulfonyl]amide, C10H15F6N3O4S2, InChI=1S/C8H15N2.C2F6NO4S2/c1-8(2)6-10-5-4-9(3)7-10;3-1(4,5)14(10,11)9-15(12,13)2(6,7)8/h4-5,7-8H,6H2,1-3H3;/q+1;-1
Compound 8: 1-(3-methylbutyl)-3-methylimidazolium bis[(trifluoromethyl)sulfonyl]imide, C11H17F6N3O4S2, InChI=1S/C9H17N2.C2F6NO4S2/c1-9(2)4-5-11-7-6-10(3)8-11;3-1(4,5)14(10,11)9-15(12,13)2(6,7)8/h6-9H,4-5H2,1-3H3;/q+1;-1
Compound 9: 1-(4-methylpentyl)-3-methylimidazolium bis[(trifluoromethyl)sulfonyl]imide, C12H19F6N3O4S2, InChI=1S/C10H19N2.C2F6NO4S2/c1-10(2)5-4-6-12-8-7-11(3)9-12;3-1(4,5)14(10,11)9-15(12,13)2(6,7)8/h7-10H,4-6H2,1-3H3;/q+1;-1
Compound 10: 1-(5-methylhexyl)-3-methylimidazolium bis[(trifluoromethyl)sulfonyl]imide, C13H21F6N3O4S2, InChI=1S/C11H21N2.C2F6NO4S2/c1-11(2)6-4-5-7-13-9-8-12(3)10-13;3-1(4,5)14(10,11)9-15(12,13)2(6,7)8/h8-11H,4-7H2,1-3H3;/q+1;-1

System: 1-methyl-3-propylimidazolium bis[(trifluoromethyl)sulfonyl]imide; phases: Liquid
Fixed: Pressure, kPa = 101.325
Property: Mass density, kg/m3 (Liquid); method: Vibrating tube method
Temperature, K	Mass density, kg/m3	uncertainty
283.15	1490.2	1
288.15	1485.2	1
293.15	1480.6	1
298.15	1475.6	1
303.15	1470.8	1
308.15	1465.8	1
313.15	1460.6	1

System: 1-methyl-3-propylimidazolium bis[(trifluoromethyl)sulfonyl]imide; phases: Liquid
Fixed: Pressure, kPa = 101.325
Property: Viscosity, Pa*s (Liquid); method: Concentric cylinders viscometry
Temperature, K	Viscosity, Pa*s	uncertainty
278.2	0.103	0.004
288.15	0.064	0.004
298.15	0.043	0.004
308.15	0.03	0.004
318.15	0.022	0.004
328.15	0.017	0.004
338.15	0.013	0.004

System: 1-butyl-3-methylimidazolium bis(trifluoromethylsulfonyl)imide; phases: Glass, Liquid, Air at 1 atmosphere
Property: Triple point temperature, K (Glass); method: DSC
Triple point temperature, K	uncertainty
184.2	2.9

System: 1-butyl-3-methylimidazolium bis(trifluoromethylsulfonyl)imide; phases: Crystal, Liquid, Air at 1 atmosphere
Property: Normal melting temperature, K (Crystal); method: DTA
Normal melting temperature, K	uncertainty
268.5	3

System: 1-butyl-3-methylimidazolium bis(trifluoromethylsulfonyl)imide; phases: Crystal, Liquid, Air at 1 atmosphere
Property: Molar enthalpy of transition or fusion, kJ/mol (Crystal); method: DSC
Molar enthalpy of transition or fusion, kJ/mol	uncertainty
24.1	1.3

System: 1-butyl-3-methylimidazolium bis(trifluoromethylsulfonyl)imide; phases: Liquid
Fixed: Pressure, kPa = 101.325
Property: Mass density, kg/m3 (Liquid); method: Vibrating tube method
Temperature, K	Mass density, kg/m3	uncertainty
283.15	1451.2	1
288.15	1446.5	1
293.15	1441.9	1
298.15	1436.9	1
303.15	1432.1	1
308.15	1427.1	1
313.15	1422.6	1

System: 1-methyl-3-pentylimidazolium bis(trifluoromethylsulfonyl)imide; phases: Liquid
Fixed: Pressure, kPa = 101.325
Property: Mass density, kg/m3 (Liquid); method: Vibrating tube method
Temperature, K	Mass density, kg/m3	uncertainty
283.15	1417.5	1
288.15	1412.9	1
293.15	1408.4	1
298.15	1403.6	1
303.15	1399	1
308.15	1393.9	1
313.15	1389.3	1

System: 1-hexyl-3-methylimidazolium bis[(trifluoromethyl)sulfonyl]imide; phases: Glass, Liquid, Air at 1 atmosphere
Property: Triple point temperature, K (Glass); method: DSC
Triple point temperature, K	uncertainty
187.4	2.9

System: 1-hexyl-3-methylimidazolium bis[(trifluoromethyl)sulfonyl]imide; phases: Crystal, Liquid, Air at 1 atmosphere
Property: Normal melting temperature, K (Crystal); method: DTA
Normal melting temperature, K	uncertainty
261.9	3.4

System: 1-hexyl-3-methylimidazolium bis[(trifluoromethyl)sulfonyl]imide; phases: Crystal, Liquid, Air at 1 atmosphere
Property: Molar enthalpy of transition or fusion, kJ/mol (Crystal); method: DSC
Molar enthalpy of transition or fusion, kJ/mol	uncertainty
6.9	6.4

System: 1-hexyl-3-methylimidazolium bis[(trifluoromethyl)sulfonyl]imide; phases: Liquid
Fixed: Pressure, kPa = 101.325
Property: Mass density, kg/m3 (Liquid); method: Vibrating tube method
Temperature, K	Mass density, kg/m3	uncertainty
283.15	1386.1	1
288.15	1381.5	1
293.15	1377.2	1
298.15	1372.7	1
303.15	1368.3	1
308.15	1363.6	1
313.15	1358.8	1

System: 1-heptyl-3-methylimidazolium bis(trifluoromethylsulfonyl)amide; phases: Glass, Liquid, Air at 1 atmosphere
Property: Triple point temperature, K (Glass); method: DSC
Triple point temperature, K	uncertainty
187.7	2.9

System: 1-heptyl-3-methylimidazolium bis(trifluoromethylsulfonyl)amide; phases: Crystal, Liquid, Air at 1 atmosphere
Property: Normal melting temperature, K (Crystal); method: DTA
Normal melting temperature, K	uncertainty
272.2	3.4

System: 1-heptyl-3-methylimidazolium bis(trifluoromethylsulfonyl)amide; phases: Crystal, Liquid, Air at 1 atmosphere
Property: Molar enthalpy of transition or fusion, kJ/mol (Crystal); method: DSC
Molar enthalpy of transition or fusion, kJ/mol	uncertainty
0.4	1.6

System: 1-heptyl-3-methylimidazolium bis(trifluoromethylsulfonyl)amide; phases: Liquid
Fixed: Pressure, kPa = 101.325
Property: Mass density, kg/m3 (Liquid); method: Vibrating tube method
Temperature, K	Mass density, kg/m3	uncertainty
283.15	1358.4	1
288.15	1354.1	1
293.15	1349.8	1
298.15	1345.4	1
303.15	1341	1
308.15	1336.4	1
313.15	1331.6	1

System: 1-heptyl-3-methylimidazolium bis(trifluoromethylsulfonyl)amide; phases: Liquid
Fixed: Pressure, kPa = 101.325
Property: Viscosity, Pa*s (Liquid); method: Concentric cylinders viscometry
Temperature, K	Viscosity, Pa*s	uncertainty
278.2	0.234	0.006
288.15	0.132	0.004
298.15	0.082	0.004
308.15	0.054	0.004
318.15	0.037	0.004
328.15	0.027	0.004
338.15	0.02	0.004

System: 1-methyl-3-(1-methylethyl)imidazolium bis[(trifluoromethyl)sulfonyl]imide; phases: Glass, Liquid, Air at 1 atmosphere
Property: Triple point temperature, K (Glass); method: DSC
Triple point temperature, K	uncertainty
190	2.9

System: 1-methyl-3-(1-methylethyl)imidazolium bis[(trifluoromethyl)sulfonyl]imide; phases: Crystal, Liquid, Air at 1 atmosphere
Property: Normal melting temperature, K (Crystal); method: DTA
Normal melting temperature, K	uncertainty
282.1	3.4

System: 1-methyl-3-(1-methylethyl)imidazolium bis[(trifluoromethyl)sulfonyl]imide; phases: Crystal, Liquid, Air at 1 atmosphere
Property: Molar enthalpy of transition or fusion, kJ/mol (Crystal); method: DSC
Molar enthalpy of transition or fusion, kJ/mol	uncertainty
23.9	1.7

System: 1-methyl-3-(1-methylethyl)imidazolium bis[(trifluoromethyl)sulfonyl]imide; phases: Liquid
Fixed: Pressure, kPa = 101.325
Property: Mass density, kg/m3 (Liquid); method: Vibrating tube method
Temperature, K	Mass density, kg/m3	uncertainty
283.15	1492.2	1
288.15	1487.2	1
293.15	1482.5	1
298.15	1477.6	1
303.15	1472.8	1
308.15	1467.8	1
313.15	1462.6	1

System: 1-methyl-3-(1-methylethyl)imidazolium bis[(trifluoromethyl)sulfonyl]imide; phases: Liquid
Fixed: Pressure, kPa = 101.325
Property: Viscosity, Pa*s (Liquid); method: Concentric cylinders viscometry
Temperature, K	Viscosity, Pa*s	uncertainty
278.15	0.122	0.004
288.15	0.075	0.004
293.15	0.059	0.004
298.15	0.048	0.004
303.15	0.039	0.004
313.15	0.028	0.004
323.15	0.021	0.004
333.15	0.016	0.004

System: 1-isobutyl-3-methylimidazolium bis[(trifluoromethyl)sulfonyl]amide; phases: Glass, Liquid, Air at 1 atmosphere
Property: Triple point temperature, K (Glass); method: DSC
Triple point temperature, K	uncertainty
191.9	2.9

System: 1-isobutyl-3-methylimidazolium bis[(trifluoromethyl)sulfonyl]amide; phases: Crystal, Liquid, Air at 1 atmosphere
Property: Normal melting temperature, K (Crystal); method: DTA
Normal melting temperature, K	uncertainty
256.9	3.4

System: 1-isobutyl-3-methylimidazolium bis[(trifluoromethyl)sulfonyl]amide; phases: Crystal, Liquid, Air at 1 atmosphere
Property: Molar enthalpy of transition or fusion, kJ/mol (Crystal); method: DSC
Molar enthalpy of transition or fusion, kJ/mol	uncertainty
6.8	1.6

System: 1-isobutyl-3-methylimidazolium bis[(trifluoromethyl)sulfonyl]amide; phases: Liquid
Fixed: Pressure, kPa = 101.325
Property: Mass density, kg/m3 (Liquid); method: Vibrating tube method
Temperature, K	Mass density, kg/m3	uncertainty
283.15	1450.3	1
288.15	1445.6	1
293.15	1441.1	1
298.15	1436.3	1
303.15	1431.6	1
308.15	1426.6	1
313.15	1421.9	1

System: 1-isobutyl-3-methylimidazolium bis[(trifluoromethyl)sulfonyl]amide; phases: Liquid
Fixed: Pressure, kPa = 101.325
Property: Viscosity, Pa*s (Liquid); method: CONCYL:UFactor:64
Temperature, K	Viscosity, Pa*s	uncertainty
278.15	0.244	0.335
288.15	0.132	0.111
293.15	0.103	0.065
298.15	0.079	0.032
303.15	0.061	0.011
313.15	0.04	0.008
323.15	0.028	0.007
333.15	0.02	0.006

System: 1-(3-methylbutyl)-3-methylimidazolium bis[(trifluoromethyl)sulfonyl]imide; phases: Glass, Liquid, Air at 1 atmosphere
Property: Triple point temperature, K (Glass); method: DSC
Triple point temperature, K	uncertainty
189.4	2.9

System: 1-(3-methylbutyl)-3-methylimidazolium bis[(trifluoromethyl)sulfonyl]imide; phases: Crystal, Liquid, Air at 1 atmosphere
Property: Normal melting temperature, K (Crystal); method: DTA
Normal melting temperature, K	uncertainty
273.1	3.4

System: 1-(3-methylbutyl)-3-methylimidazolium bis[(trifluoromethyl)sulfonyl]imide; phases: Crystal, Liquid, Air at 1 atmosphere
Property: Molar enthalpy of transition or fusion, kJ/mol (Crystal); method: DSC
Molar enthalpy of transition or fusion, kJ/mol	uncertainty
0.1	1.6

System: 1-(3-methylbutyl)-3-methylimidazolium bis[(trifluoromethyl)sulfonyl]imide; phases: Liquid
Fixed: Pressure, kPa = 101.325
Property: Mass density, kg/m3 (Liquid); method: Vibrating tube method
Temperature, K	Mass density, kg/m3	uncertainty
283.15	1417.5	1
288.15	1412.7	1
293.15	1408.1	1
298.15	1403.3	1
303.15	1398.5	1
308.15	1393.7	1
313.15	1388.7	1

System: 1-(3-methylbutyl)-3-methylimidazolium bis[(trifluoromethyl)sulfonyl]imide; phases: Liquid
Fixed: Pressure, kPa = 101.325
Property: Viscosity, Pa*s (Liquid); method: Concentric cylinders viscometry
Temperature, K	Viscosity, Pa*s	uncertainty
278.15	0.195	0.005
288.15	0.112	0.004
293.15	0.086	0.004
298.15	0.069	0.004
303.15	0.056	0.004
313.15	0.038	0.004
323.15	0.027	0.004
333.15	0.02	0.004

System: 1-(4-methylpentyl)-3-methylimidazolium bis[(trifluoromethyl)sulfonyl]imide; phases: Glass, Liquid, Air at 1 atmosphere
Property: Triple point temperature, K (Glass); method: DSC
Triple point temperature, K	uncertainty
192	2.9

System: 1-(4-methylpentyl)-3-methylimidazolium bis[(trifluoromethyl)sulfonyl]imide; phases: Crystal, Liquid, Air at 1 atmosphere
Property: Normal melting temperature, K (Crystal); method: DTA
Normal melting temperature, K	uncertainty
276.3	3.4

System: 1-(4-methylpentyl)-3-methylimidazolium bis[(trifluoromethyl)sulfonyl]imide; phases: Crystal, Liquid, Air at 1 atmosphere
Property: Molar enthalpy of transition or fusion, kJ/mol (Crystal); method: DSC
Molar enthalpy of transition or fusion, kJ/mol	uncertainty
0.1	1.6

System: 1-(4-methylpentyl)-3-methylimidazolium bis[(trifluoromethyl)sulfonyl]imide; phases: Liquid
Fixed: Pressure, kPa = 101.325
Property: Mass density, kg/m3 (Liquid); method: Vibrating tube method
Temperature, K	Mass density, kg/m3	uncertainty
283.15	1385.9	1
288.15	1381.3	1
293.15	1377	1
298.15	1372.4	1
303.15	1367.9	1
308.15	1363.3	1
313.15	1358.5	1

System: 1-(4-methylpentyl)-3-methylimidazolium bis[(trifluoromethyl)sulfonyl]imide; phases: Liquid
Fixed: Pressure, kPa = 101.325
Property: Viscosity, Pa*s (Liquid); method: Concentric cylinders viscometry
Temperature, K	Viscosity, Pa*s	uncertainty
278.15	0.237	0.006
288.15	0.137	0.004
293.15	0.107	0.004
298.15	0.085	0.004
303.15	0.069	0.004
313.15	0.045	0.004
323.15	0.032	0.004
333.15	0.023	0.004

System: 1-(5-methylhexyl)-3-methylimidazolium bis[(trifluoromethyl)sulfonyl]imide; phases: Glass, Liquid, Air at 1 atmosphere
Property: Triple point temperature, K (Glass); method: DSC
Triple point temperature, K	uncertainty
191.8	2.9

System: 1-(5-methylhexyl)-3-methylimidazolium bis[(trifluoromethyl)sulfonyl]imide; phases: Crystal, Liquid, Air at 1 atmosphere
Property: Normal melting temperature, K (Crystal); method: DTA
Normal melting temperature, K	uncertainty
284.3	3.4

System: 1-(5-methylhexyl)-3-methylimidazolium bis[(trifluoromethyl)sulfonyl]imide; phases: Crystal, Liquid, Air at 1 atmosphere
Property: Molar enthalpy of transition or fusion, kJ/mol (Crystal); method: DSC
Molar enthalpy of transition or fusion, kJ/mol	uncertainty
0.5	1.6

System: 1-(5-methylhexyl)-3-methylimidazolium bis[(trifluoromethyl)sulfonyl]imide; phases: Liquid
Fixed: Pressure, kPa = 101.325
Property: Mass density, kg/m3 (Liquid); method: Vibrating tube method
Temperature, K	Mass density, kg/m3	uncertainty
283.15	1357.5	1
288.15	1353	1
293.15	1348.7	1
298.15	1344.2	1
303.15	1339.8	1
308.15	1335.2	1
313.15	1330.6	1

System: 1-(5-methylhexyl)-3-methylimidazolium bis[(trifluoromethyl)sulfonyl]imide; phases: Metastable liquid
Fixed: Pressure, kPa = 101.325
Property: Viscosity, Pa*s (Metastable liquid); method: Concentric cylinders viscometry
Temperature, K	Viscosity, Pa*s	uncertainty
278.15	0.306	0.008
288.15	0.164	0.005
293.15	0.124	0.004
298.15	0.096	0.004
303.15	0.076	0.004
313.15	0.05	0.004
323.15	0.035	0.004
333.15	0.025	0.004
