Measured thermophysical data. Thermophysical Properties of Binary Mixtures of n-Dodecane with n-Alkylcyclohexanes: Experimental Measurements and Molecular Dynamics Simulations
Source: J. Chem. Eng. Data, 2019, 10.1021/acs.jced.8b01135
Compound 1: 1-cyclohexylpropane, C9H18, InChI=1S/C9H18/c1-2-6-9-7-4-3-5-8-9/h9H,2-8H2,1H3, purity 99.9%
Compound 2: pentylcyclohexane, C11H22, InChI=1S/C11H22/c1-2-3-5-8-11-9-6-4-7-10-11/h11H,2-10H2,1H3, purity 99.2%
Compound 3: hexylcyclohexane, C12H24, InChI=1S/C12H24/c1-2-3-4-6-9-12-10-7-5-8-11-12/h12H,2-11H2,1H3, purity 98.8%
Compound 4: heptylcyclohexane, C13H26, InChI=1S/C13H26/c1-2-3-4-5-7-10-13-11-8-6-9-12-13/h13H,2-12H2,1H3, purity 99.5%
Compound 5: octylcyclohexane, C14H28, InChI=1S/C14H28/c1-2-3-4-5-6-8-11-14-12-9-7-10-13-14/h14H,2-13H2,1H3, purity 99.3%
Compound 6: decylcyclohexane, C16H32, InChI=1S/C16H32/c1-2-3-4-5-6-7-8-10-13-16-14-11-9-12-15-16/h16H,2-15H2,1H3, purity 99.4%
Compound 7: dodecylcyclohexane, C18H36, InChI=1S/C18H36/c1-2-3-4-5-6-7-8-9-10-12-15-18-16-13-11-14-17-18/h18H,2-17H2,1H3, purity 99.4%
Compound 8: dodecane, C12H26, InChI=1S/C12H26/c1-3-5-7-9-11-12-10-8-6-4-2/h3-12H2,1-2H3, purity 99.6%

System: 1-cyclohexylpropane; phases: Liquid
Fixed: Pressure, kPa = 102
Property: Mass density, kg/m3 (Liquid); method: Vibrating tube method
Temperature, K	Mass density, kg/m3	uncertainty
288.15	797.42	0.71
293.15	793.53	0.71
298.15	789.63	0.71
303.15	785.72	0.71
313.15	777.88	0.71
323.15	770	0.71
333.15	762.09	0.71

System: 1-cyclohexylpropane; phases: Liquid
Fixed: Frequency, MHz = 3
Property: Speed of sound, m/s (Liquid); method: Single path-length method
Temperature, K	Pressure, kPa	Speed of sound, m/s	uncertainty
293.15	88	1307.7	0.6
303.15	88	1266.6	0.6
313.15	88	1226.2	0.6
323.15	88	1186.5	0.6
333.15	88	1147.7	0.6
288.15	102	1328.6	1.6
293.15	102	1307.7	0.6
298.15	102	1287.1	0.6
303.15	102	1266.6	0.6
313.15	102	1226.2	0.6
323.15	102	1186.5	0.6
333.15	102	1147.7	0.6

System: 1-cyclohexylpropane; phases: Liquid
Fixed: Pressure, kPa = 102
Property: Viscosity, Pa*s (Liquid); method: Concentric cylinders viscometry
Temperature, K	Viscosity, Pa*s	uncertainty
293.15	0.000981	3.1e-05
303.15	0.000856	3.1e-05
313.15	0.00075	3.1e-05
323.15	0.000668	3e-05
333.15	0.000594	3e-05

System: pentylcyclohexane; phases: Liquid
Fixed: Pressure, kPa = 102
Property: Mass density, kg/m3 (Liquid); method: Vibrating tube method
Temperature, K	Mass density, kg/m3	uncertainty
288.15	807.78	0.72
293.15	804.13	0.72
298.15	800.48	0.72
303.15	796.82	0.72
313.15	789.49	0.72
323.15	782.14	0.72
333.15	774.75	0.72

System: pentylcyclohexane; phases: Liquid
Fixed: Pressure, kPa = 102
Property: Viscosity, Pa*s (Liquid); method: Concentric cylinders viscometry
Temperature, K	Viscosity, Pa*s	uncertainty
293.15	0.00169	3e-05
303.15	0.00143	3e-05
313.15	0.00121	3e-05
323.15	0.00105	3e-05
333.15	0.000914	3.1e-05

System: pentylcyclohexane; phases: Liquid
Fixed: Pressure, kPa = 102
Fixed: Frequency, MHz = 3
Property: Speed of sound, m/s (Liquid); method: Single path-length method
Temperature, K	Speed of sound, m/s	uncertainty
288.15	1365.8	1.1
293.15	1346	1.1
298.15	1326.4	1.1
303.15	1306.7	1.1
313.15	1268.2	1.1
323.15	1230.5	1.1
333.15	1193.5	1.1

System: hexylcyclohexane; phases: Liquid
Fixed: Pressure, kPa = 102
Property: Mass density, kg/m3 (Liquid); method: Vibrating tube method
Temperature, K	Mass density, kg/m3	uncertainty
288.15	811.34	0.75
293.15	807.76	0.75
298.15	804.19	0.75
303.15	800.61	0.75
313.15	793.43	0.75
323.15	786.25	0.75
333.15	779.05	0.75

System: hexylcyclohexane; phases: Liquid
Fixed: Pressure, kPa = 102
Property: Viscosity, Pa*s (Liquid); method: Concentric cylinders viscometry
Temperature, K	Viscosity, Pa*s	uncertainty
293.15	0.00219	3e-05
303.15	0.00179	3e-05
313.15	0.00152	3e-05
323.15	0.0013	3e-05
333.15	0.00112	3e-05

System: hexylcyclohexane; phases: Liquid
Fixed: Pressure, kPa = 102
Fixed: Frequency, MHz = 3
Property: Speed of sound, m/s (Liquid); method: Single path-length method
Temperature, K	Speed of sound, m/s	uncertainty
288.15	1380.4	1.4
293.15	1360.9	1.4
298.15	1341.4	1.4
303.15	1322.1	1.4
313.15	1284.2	1.4
323.15	1247.1	1.4
333.15	1211	1.4

System: heptylcyclohexane; phases: Liquid
Fixed: Pressure, kPa = 102
Property: Mass density, kg/m3 (Liquid); method: Vibrating tube method
Temperature, K	Mass density, kg/m3	uncertainty
293.15	811	0.71
303.15	803.99	0.71
313.15	796.95	0.71
323.15	789.91	0.71
333.15	782.85	0.71
288.15	814.51	0.71
298.15	807.49	0.71
303.15	803.98	0.71

System: heptylcyclohexane; phases: Liquid
Fixed: Pressure, kPa = 102
Property: Viscosity, Pa*s (Liquid); method: Concentric cylinders viscometry
Temperature, K	Viscosity, Pa*s	uncertainty
293.15	0.0028	3e-05
303.15	0.00225	3e-05
313.15	0.00185	3e-05
323.15	0.00155	3e-05
333.15	0.00131	3e-05

System: heptylcyclohexane; phases: Liquid
Fixed: Pressure, kPa = 102
Fixed: Frequency, MHz = 3
Property: Speed of sound, m/s (Liquid); method: Single path-length method
Temperature, K	Speed of sound, m/s	uncertainty
288.15	1393.6	0.9
293.15	1374.2	0.9
298.15	1355.1	0.9
303.15	1336.1	0.9
313.15	1298.8	0.9
323.15	1262.2	0.9
333.15	1226.7	0.9

System: octylcyclohexane; phases: Liquid
Fixed: Pressure, kPa = 102
Property: Mass density, kg/m3 (Liquid); method: Vibrating tube method
Temperature, K	Mass density, kg/m3	uncertainty
288.15	817.58	0.72
293.15	814.13	0.72
298.15	810.67	0.72
303.15	807.21	0.72
313.15	800.28	0.72
323.15	793.35	0.72
333.15	786.41	0.72
303.15	807.2	0.72

System: octylcyclohexane; phases: Liquid
Fixed: Pressure, kPa = 102
Property: Viscosity, Pa*s (Liquid); method: Concentric cylinders viscometry
Temperature, K	Viscosity, Pa*s	uncertainty
293.15	0.00352	4e-05
303.15	0.00279	3e-05
313.15	0.00226	3e-05
323.15	0.00187	3e-05
333.15	0.00157	3e-05

System: octylcyclohexane; phases: Liquid
Fixed: Pressure, kPa = 102
Fixed: Frequency, MHz = 3
Property: Speed of sound, m/s (Liquid); method: Single path-length method
Temperature, K	Speed of sound, m/s	uncertainty
288.15	1405.5	1
293.15	1386.4	1
298.15	1367.4	1
303.15	1348.6	1
313.15	1311.6	1
323.15	1275.5	1
333.15	1240.3	1

System: decylcyclohexane; phases: Liquid
Fixed: Pressure, kPa = 102
Property: Mass density, kg/m3 (Liquid); method: Vibrating tube method
Temperature, K	Mass density, kg/m3	uncertainty
288.15	821.93	0.71
293.15	818.54	0.71
298.15	815.16	0.71
303.15	811.78	0.71
333.15	791.49	0.71
313.15	805.02	0.71
323.15	798.26	0.71

System: decylcyclohexane; phases: Liquid
Fixed: Pressure, kPa = 102
Property: Viscosity, Pa*s (Liquid); method: Concentric cylinders viscometry
Temperature, K	Viscosity, Pa*s	uncertainty
293.15	0.00534	4e-05
303.15	0.00409	4e-05
313.15	0.00323	3e-05
323.15	0.0026	3e-05
333.15	0.00215	3e-05

System: decylcyclohexane; phases: Liquid
Fixed: Pressure, kPa = 102
Fixed: Frequency, MHz = 3
Property: Speed of sound, m/s (Liquid); method: Single path-length method
Temperature, K	Speed of sound, m/s	uncertainty
288.15	1425.2	0.9
293.15	1406.4	0.9
298.15	1387.7	0.9
303.15	1369.1	0.9
313.15	1332.8	0.9
323.15	1297.2	0.9
333.15	1262.7	0.9

System: dodecylcyclohexane; phases: Liquid
Fixed: Pressure, kPa = 102
Property: Mass density, kg/m3 (Liquid); method: Vibrating tube method
Temperature, K	Mass density, kg/m3	uncertainty
293.15	822.36	0.71
288.15	825.71	0.71
298.15	819.02	0.71
303.15	815.68	0.71
313.15	809.03	0.71
323.15	802.38	0.71
333.15	795.75	0.71

System: dodecylcyclohexane; phases: Liquid
Fixed: Pressure, kPa = 102
Property: Viscosity, Pa*s (Liquid); method: Concentric cylinders viscometry
Temperature, K	Viscosity, Pa*s	uncertainty
293.15	0.00777	5e-05
303.15	0.00581	4e-05
313.15	0.00448	4e-05
323.15	0.00355	4e-05
333.15	0.00287	3e-05
293.15	0.00776	5e-05
333.15	0.00288	3e-05

System: dodecylcyclohexane; phases: Liquid
Fixed: Pressure, kPa = 102
Fixed: Frequency, MHz = 3
Property: Speed of sound, m/s (Liquid); method: Single path-length method
Temperature, K	Speed of sound, m/s	uncertainty
288.15	1441.5	0.9
293.15	1422.9	0.9
298.15	1404.8	0.9
303.15	1386.3	0.9
313.15	1350.5	0.9
323.15	1315.4	0.9
333.15	1281.4	0.9

System: dodecane; phases: Liquid
Fixed: Pressure, kPa = 102
Property: Mass density, kg/m3 (Liquid); method: Vibrating tube method
Temperature, K	Mass density, kg/m3	uncertainty
288.15	752.35	0.71
293.15	748.72	0.71
298.15	745.09	0.71
303.15	741.46	0.71
313.15	734.18	0.71
323.15	726.88	0.71
333.15	719.53	0.71
313.15	734.19	0.71

System: dodecane; phases: Liquid
Fixed: Pressure, kPa = 102
Fixed: Frequency, MHz = 3
Property: Speed of sound, m/s (Liquid); method: Single path-length method
Temperature, K	Speed of sound, m/s	uncertainty
288.15	1317.2	0.7
293.15	1297.7	0.7
298.15	1278.2	0.7
303.15	1259	0.7
313.15	1221.1	0.7
323.15	1184	0.7
333.15	1147.8	0.7

System: dodecane; phases: Liquid
Fixed: Pressure, kPa = 102
Property: Viscosity, Pa*s (Liquid); method: Concentric cylinders viscometry
Temperature, K	Viscosity, Pa*s	uncertainty
293.15	0.00149	3e-05
303.15	0.00127	3e-05
313.15	0.00108	3e-05
323.15	0.000934	3.1e-05
333.15	0.000813	3.1e-05

System: 1-cyclohexylpropane + dodecane; phases: Liquid
Fixed: Pressure, kPa = 102
Property: Mass density, kg/m3 (Liquid); method: Vibrating tube method
Mole fraction of 1-cyclohexylpropane	Temperature, K	Mass density, kg/m3	uncertainty
0	288.15	752.35	0.71
0	293.15	748.72	0.71
0	298.15	745.09	0.71
0	303.15	741.46	0.71
0	313.15	734.19	0.71
0	323.15	726.88	0.71
0	333.15	719.53	0.71
0.1007	288.15	755.55	0.71
0.1007	293.15	751.91	0.71
0.1007	298.15	748.27	0.71
0.1007	303.15	744.62	0.71
0.1007	313.15	737.32	0.71
0.1007	323.15	729.98	0.71
0.1007	333.15	722.61	0.71
0.2001	288.15	758.92	0.71
0.2001	293.15	755.26	0.71
0.2001	298.15	751.61	0.71
0.2001	303.15	747.95	0.71
0.2001	313.15	740.61	0.71
0.2001	323.15	733.24	0.71
0.2001	333.15	725.82	0.71
0.3001	288.15	762.54	0.71
0.3001	293.15	758.87	0.71
0.3001	298.15	755.2	0.71
0.3001	303.15	751.53	0.71
0.3001	313.15	744.15	0.71
0.3001	323.15	736.75	0.71
0.3001	333.15	729.3	0.71
0.4011	288.15	766.49	0.71
0.4011	293.15	762.8	0.71
0.4011	298.15	759.11	0.71
0.4011	303.15	755.41	0.71
0.4011	313.15	747.98	0.71
0.4011	323.15	740.52	0.71
0.4011	333.15	733.02	0.71
0.5	288.15	770.63	0.71
0.5	293.15	766.92	0.71
0.5	298.15	763.2	0.71
0.5	303.15	759.48	0.71
0.5	313.15	752.01	0.71
0.5	323.15	744.5	0.71
0.5	333.15	736.95	0.71
0.6004	288.15	775.15	0.71
0.6004	293.15	771.42	0.71
0.6004	298.15	767.68	0.71
0.6004	303.15	763.93	0.71
0.6004	313.15	756.42	0.71
0.6004	323.15	748.86	0.71
0.6004	333.15	741.26	0.71
0.6995	288.15	780	0.71
0.6995	293.15	776.23	0.71
0.6995	298.15	772.46	0.71
0.6995	303.15	768.68	0.71
0.6995	313.15	761.11	0.71
0.6995	323.15	753.49	0.71
0.6995	333.15	745.82	0.71
0.7998	288.15	785.31	0.71
0.7998	293.15	781.51	0.71
0.7998	298.15	777.71	0.71
0.7998	303.15	773.89	0.71
0.7998	313.15	766.24	0.71
0.7998	323.15	758.55	0.71
0.7998	333.15	750.81	0.71
0.8997	288.15	791.13	0.71
0.8997	293.15	787.31	0.71
0.8997	298.15	783.46	0.71
0.8997	303.15	779.6	0.71
0.8997	313.15	771.86	0.71
0.8997	323.15	764.09	0.71
0.8997	333.15	756.27	0.71
1	288.15	797.42	0.71
1	293.15	793.53	0.71
1	298.15	789.63	0.71
1	303.15	785.72	0.71
1	313.15	777.88	0.71
1	323.15	770	0.71
1	333.15	762.09	0.71

System: 1-cyclohexylpropane + dodecane; phases: Liquid
Fixed: Pressure, kPa = 102
Fixed: Frequency, MHz = 3
Property: Speed of sound, m/s (Liquid); method: Single path-length method
Mole fraction of 1-cyclohexylpropane	Temperature, K	Speed of sound, m/s	uncertainty
0	288.15	1317.2	0.8
0	293.15	1297.7	0.8
0	298.15	1278.2	0.8
0	303.15	1259	0.8
0	313.15	1221.1	0.8
0	323.15	1184	0.8
0	333.15	1147.8	0.8
0.1007	288.15	1317.5	0.8
0.1007	293.15	1297.9	0.8
0.1007	298.15	1278.4	0.8
0.1007	303.15	1259.1	0.8
0.1007	313.15	1221.1	0.8
0.1007	323.15	1183.9	0.8
0.1007	333.15	1147.6	0.8
0.2001	288.15	1317.8	0.8
0.2001	293.15	1298.2	0.8
0.2001	298.15	1278.6	0.8
0.2001	303.15	1259.2	0.8
0.2001	313.15	1221.1	0.8
0.2001	323.15	1183.7	0.8
0.2001	333.15	1147.3	0.8
0.3001	288.15	1318.2	0.8
0.3001	293.15	1298.6	0.8
0.3001	298.15	1279	0.8
0.3001	303.15	1259.5	0.8
0.3001	313.15	1221.3	0.8
0.3001	323.15	1183.8	0.8
0.3001	333.15	1147.3	0.8
0.4011	288.15	1319.3	0.8
0.4011	293.15	1299.8	0.8
0.4011	298.15	1280.3	0.8
0.4011	303.15	1260.9	0.8
0.4011	313.15	1222.3	0.8
0.4011	323.15	1184.5	0.8
0.4011	333.15	1147.5	0.8
0.5	288.15	1320.1	0.7
0.5	293.15	1300.2	0.7
0.5	298.15	1280.8	0.7
0.5	303.15	1261.1	0.7
0.5	313.15	1222.6	0.7
0.5	323.15	1184.6	0.7
0.5	333.15	1147.3	0.7
0.6004	288.15	1320.9	0.7
0.6004	293.15	1300.8	0.7
0.6004	298.15	1280.8	0.7
0.6004	303.15	1261	0.7
0.6004	313.15	1222.1	0.7
0.6004	323.15	1183.9	0.7
0.6004	333.15	1146.7	0.7
0.6995	288.15	1322.1	0.7
0.6995	293.15	1301.9	0.7
0.6995	298.15	1281.8	0.7
0.6995	303.15	1261.8	0.7
0.6995	313.15	1222.6	0.7
0.6995	323.15	1184.1	0.7
0.6995	333.15	1146.7	0.7
0.7998	288.15	1323.8	0.7
0.7998	293.15	1303.4	0.7
0.7998	298.15	1283.1	0.7
0.7998	303.15	1262.9	0.7
0.7998	313.15	1223.3	0.7
0.7998	323.15	1184.6	0.7
0.7998	333.15	1146.8	0.7
0.8997	288.15	1326.1	0.7
0.8997	293.15	1305.3	0.7
0.8997	298.15	1284.7	0.7
0.8997	303.15	1264.3	0.7
0.8997	313.15	1224.3	0.7
0.8997	323.15	1185.1	0.7
0.8997	333.15	1146.9	0.7
1	288.15	1328.6	0.7
1	293.15	1307.7	0.7
1	298.15	1287.1	0.7
1	303.15	1266.6	0.7
1	313.15	1226.2	0.7
1	323.15	1186.5	0.7
1	333.15	1147.7	0.7

System: 1-cyclohexylpropane + dodecane; phases: Liquid
Fixed: Pressure, kPa = 102
Property: Viscosity, Pa*s (Liquid); method: Concentric cylinders viscometry
Mole fraction of 1-cyclohexylpropane	Temperature, K	Viscosity, Pa*s	uncertainty
0	293.15	0.00149	2e-05
0.1007	293.15	0.00144	2e-05
0.2001	293.15	0.00139	2e-05
0.3001	293.15	0.00134	2e-05
0.4011	293.15	0.00128	2e-05
0.5	293.15	0.00123	2e-05
0.6004	293.15	0.00118	2e-05
0.6995	293.15	0.00113	2e-05
0.7998	293.15	0.00108	2e-05
0.8997	293.15	0.00103	2e-05
1	293.15	0.000981	3.1e-05
0	303.15	0.00127	2e-05
0.1007	303.15	0.00123	2e-05
0.2001	303.15	0.00118	2e-05
0.3001	303.15	0.00114	2e-05
0.4011	303.15	0.0011	2e-05
0.5	303.15	0.00106	2e-05
0.6004	303.15	0.00102	2e-05
0.6995	303.15	0.000977	2.1e-05
0.7998	303.15	0.000936	2.1e-05
0.8997	303.15	0.000897	2.1e-05
1	303.15	0.000856	3.1e-05
0	313.15	0.00108	2e-05
0.1007	313.15	0.00105	2e-05
0.2001	313.15	0.00101	2e-05
0.3001	313.15	0.000979	2.1e-05
0.4011	313.15	0.000946	2.1e-05
0.5	313.15	0.000914	2.1e-05
0.6004	313.15	0.000882	2.1e-05
0.6995	313.15	0.00085	2.1e-05
0.7998	313.15	0.000818	2.1e-05
0.8997	313.15	0.000783	2.1e-05
1	313.15	0.00075	3.1e-05
0	323.15	0.000934	2.1e-05
0.1007	323.15	0.000909	2.1e-05
0.2001	323.15	0.000882	2.1e-05
0.3001	323.15	0.000856	2.1e-05
0.4011	323.15	0.000831	2.1e-05
0.5	323.15	0.000802	2.1e-05
0.6004	323.15	0.000776	2.1e-05
0.6995	323.15	0.00075	2.1e-05
0.7998	323.15	0.000721	2.1e-05
0.8997	323.15	0.000694	2.1e-05
1	323.15	0.000668	3e-05
0	333.15	0.000813	2.1e-05
0.1007	333.15	0.000792	2.1e-05
0.2001	333.15	0.000769	2.1e-05
0.3001	333.15	0.00075	2.1e-05
0.4011	333.15	0.000729	2.1e-05
0.5	333.15	0.000707	2.1e-05
0.6004	333.15	0.000685	2.1e-05
0.6995	333.15	0.000663	2.1e-05
0.7998	333.15	0.00064	2.1e-05
0.8997	333.15	0.000618	2.1e-05
1	333.15	0.000594	3e-05

System: pentylcyclohexane + dodecane; phases: Liquid
Fixed: Pressure, kPa = 102
Property: Mass density, kg/m3 (Liquid); method: Vibrating tube method
Mole fraction of pentylcyclohexane	Temperature, K	Mass density, kg/m3	uncertainty
0	288.15	752.35	0.71
0	293.15	748.72	0.71
0	298.15	745.09	0.71
0	303.15	741.46	0.71
0	313.15	734.19	0.71
0	323.15	726.88	0.71
0	333.15	719.53	0.71
0.1009	288.15	757.14	0.71
0.1009	293.15	753.52	0.71
0.1009	298.15	749.9	0.71
0.1009	303.15	746.27	0.71
0.1009	313.15	738.99	0.71
0.1009	323.15	731.68	0.71
0.1009	333.15	724.33	0.72
0.2001	288.15	761.98	0.71
0.2001	293.15	758.36	0.71
0.2001	298.15	754.73	0.71
0.2001	303.15	751.1	0.71
0.2001	313.15	743.83	0.71
0.2001	323.15	736.51	0.71
0.2001	333.15	729.17	0.72
0.3003	288.15	767.03	0.71
0.3003	293.15	763.41	0.71
0.3003	298.15	759.79	0.71
0.3003	303.15	756.16	0.71
0.3003	313.15	748.88	0.72
0.3003	323.15	741.57	0.72
0.3003	333.15	734.22	0.72
0.4009	288.15	772.26	0.71
0.4009	293.15	768.64	0.71
0.4009	298.15	765.01	0.72
0.4009	303.15	761.38	0.72
0.4009	313.15	754.1	0.72
0.4009	323.15	746.79	0.72
0.4009	333.15	739.44	0.72
0.5001	288.15	777.64	0.72
0.5001	293.15	774.02	0.72
0.5001	298.15	770.39	0.72
0.5001	303.15	766.76	0.72
0.5001	313.15	759.47	0.72
0.5001	323.15	752.16	0.72
0.5001	333.15	744.8	0.72
0.6	288.15	783.17	0.72
0.6	293.15	779.55	0.72
0.6	298.15	775.92	0.72
0.6	303.15	772.28	0.72
0.6	313.15	764.99	0.72
0.6	323.15	757.67	0.72
0.6	333.15	750.31	0.72
0.7003	288.15	789	0.72
0.7003	293.15	785.37	0.72
0.7003	298.15	781.74	0.72
0.7003	303.15	778.1	0.72
0.7003	313.15	770.8	0.72
0.7003	323.15	763.48	0.72
0.7003	333.15	756.11	0.72
0.8136	288.15	795.88	0.72
0.8136	293.15	792.25	0.72
0.8136	298.15	788.61	0.72
0.8136	303.15	784.97	0.72
0.8136	313.15	777.66	0.72
0.8136	323.15	770.33	0.72
0.8136	333.15	762.96	0.72
0.9082	288.15	801.77	0.72
0.9082	293.15	798.13	0.72
0.9082	298.15	794.48	0.72
0.9082	303.15	790.84	0.72
0.9082	313.15	783.52	0.72
0.9082	323.15	776.17	0.72
0.9082	333.15	768.8	0.72
1	288.15	807.78	0.72
1	293.15	804.13	0.72
1	298.15	800.48	0.72
1	303.15	796.82	0.72
1	313.15	789.49	0.72
1	323.15	782.14	0.72
1	333.15	774.75	0.72

System: pentylcyclohexane + dodecane; phases: Liquid
Fixed: Pressure, kPa = 102
Fixed: Frequency, MHz = 3
Property: Speed of sound, m/s (Liquid); method: Single path-length method
Mole fraction of pentylcyclohexane	Temperature, K	Speed of sound, m/s	uncertainty
0	288.15	1317.2	0.8
0	293.15	1297.7	0.8
0	298.15	1278.2	0.8
0	303.15	1259	0.8
0	313.15	1221.1	0.8
0	323.15	1184	0.8
0	333.15	1147.8	0.8
0.1009	288.15	1321.1	0.8
0.1009	293.15	1301.6	0.8
0.1009	298.15	1282.5	0.8
0.1009	303.15	1263.2	0.8
0.1009	313.15	1225.5	0.8
0.1009	323.15	1188.3	0.8
0.1009	333.15	1151.9	0.8
0.2001	288.15	1324.9	0.9
0.2001	293.15	1305.5	0.9
0.2001	298.15	1286.2	0.9
0.2001	303.15	1267.1	0.9
0.2001	313.15	1229.3	0.9
0.2001	323.15	1192.1	0.9
0.2001	333.15	1155.8	0.9
0.3003	288.15	1329.1	0.9
0.3003	293.15	1309.6	0.9
0.3003	298.15	1290.3	0.9
0.3003	303.15	1271.2	0.9
0.3003	313.15	1233.4	0.9
0.3003	323.15	1196.2	0.9
0.3003	333.15	1159.8	0.9
0.4009	288.15	1333.4	0.9
0.4009	293.15	1313.9	0.9
0.4009	298.15	1294.6	0.9
0.4009	303.15	1275.4	0.9
0.4009	313.15	1237.6	0.9
0.4009	323.15	1200.3	0.9
0.4009	333.15	1163.9	0.9
0.5001	288.15	1338.1	0.9
0.5001	293.15	1318.6	0.9
0.5001	298.15	1299.2	0.9
0.5001	303.15	1280	0.9
0.5001	313.15	1242.1	0.9
0.5001	323.15	1204.8	0.9
0.5001	333.15	1168.3	0.9
0.6	288.15	1343	1
0.6	293.15	1323.4	1
0.6	298.15	1304	1
0.6	303.15	1284.8	1
0.6	313.15	1246.8	1
0.6	323.15	1209.6	1
0.6	333.15	1172.9	1
0.7003	288.15	1348.1	1
0.7003	293.15	1328.5	1
0.7003	298.15	1309.1	1
0.7003	303.15	1289.8	1
0.7003	313.15	1251.7	1
0.7003	323.15	1214.3	1
0.7003	333.15	1177.6	1
0.8136	288.15	1354.4	1
0.8136	293.15	1334.7	1
0.8136	298.15	1315.2	1
0.8136	303.15	1295.8	1
0.8136	313.15	1257.6	1
0.8136	323.15	1220.1	1
0.8136	333.15	1183.4	1
0.9082	288.15	1359.9	1
0.9082	293.15	1340.2	1
0.9082	298.15	1320.6	1
0.9082	303.15	1301.1	1
0.9082	313.15	1262.8	1
0.9082	323.15	1225.1	1
0.9082	333.15	1188.4	1
1	288.15	1365.8	1.1
1	293.15	1346	1.1
1	298.15	1326.4	1.1
1	303.15	1306.7	1.1
1	313.15	1268.2	1.1
1	323.15	1230.5	1.1
1	333.15	1193.5	1.1

System: pentylcyclohexane + dodecane; phases: Liquid
Fixed: Pressure, kPa = 102
Property: Viscosity, Pa*s (Liquid); method: Concentric cylinders viscometry
Mole fraction of pentylcyclohexane	Temperature, K	Viscosity, Pa*s	uncertainty
0	293.15	0.00149	2e-05
0	303.15	0.00127	2e-05
0	313.15	0.00108	2e-05
0	323.15	0.000934	2.1e-05
0	333.15	0.000813	2.1e-05
0.1009	293.15	0.0015	2e-05
0.1009	303.15	0.00128	2e-05
0.1009	313.15	0.00108	2e-05
0.1009	323.15	0.000941	2.1e-05
0.1009	333.15	0.000819	2.1e-05
0.2001	303.15	0.00129	2e-05
0.2001	293.15	0.00151	2e-05
0.2001	313.15	0.00109	2e-05
0.2001	323.15	0.000949	2.1e-05
0.2001	333.15	0.000825	2.1e-05
0.3003	313.15	0.0011	2e-05
0.3003	293.15	0.00152	2e-05
0.3003	303.15	0.0013	2e-05
0.3003	323.15	0.000957	2.1e-05
0.3003	333.15	0.000833	2.1e-05
0.4009	313.15	0.00111	2e-05
0.4009	323.15	0.000967	2.1e-05
0.4009	293.15	0.00154	2e-05
0.4009	303.15	0.00131	2e-05
0.4009	333.15	0.000841	2.1e-05
0.5001	313.15	0.00112	2e-05
0.5001	323.15	0.000976	2.1e-05
0.5001	303.15	0.00132	2e-05
0.5001	333.15	0.000851	2.1e-05
0.5001	293.15	0.00155	2e-05
0.6	303.15	0.00134	2e-05
0.6	323.15	0.000988	2.1e-05
0.6	293.15	0.00157	2e-05
0.6	313.15	0.00114	2e-05
0.6	333.15	0.000861	2.1e-05
0.7003	293.15	0.0016	2e-05
0.7003	323.15	0.001	2e-05
0.7003	313.15	0.00115	2e-05
0.7003	303.15	0.00135	2e-05
0.7003	333.15	0.000871	2.1e-05
0.8136	323.15	0.00102	2e-05
0.8136	293.15	0.00162	2e-05
0.8136	303.15	0.00138	2e-05
0.8136	333.15	0.000887	2.1e-05
0.8136	313.15	0.00117	2e-05
0.9082	313.15	0.00119	2e-05
0.9082	303.15	0.0014	2e-05
0.9082	293.15	0.00166	2e-05
0.9082	323.15	0.00103	2e-05
0.9082	333.15	0.000897	2.1e-05
1	323.15	0.00105	3e-05
1	303.15	0.00143	3e-05
1	313.15	0.00121	3e-05
1	333.15	0.000914	3.1e-05
1	293.15	0.00169	3e-05

System: hexylcyclohexane + dodecane; phases: Liquid
Fixed: Pressure, kPa = 102
Property: Mass density, kg/m3 (Liquid); method: Vibrating tube method
Mole fraction of hexylcyclohexane	Temperature, K	Mass density, kg/m3	uncertainty
0	288.15	752.35	0.71
0	293.15	748.72	0.71
0	298.15	745.09	0.71
0	303.15	741.46	0.71
0	313.15	734.19	0.71
0	323.15	726.88	0.71
0	333.15	719.53	0.71
0.1009	288.15	757.85	0.71
0.1009	293.15	754.24	0.71
0.1009	298.15	750.61	0.71
0.1009	303.15	746.99	0.71
0.1009	313.15	739.73	0.71
0.1009	323.15	732.44	0.72
0.1009	333.15	725.11	0.72
0.1998	288.15	763.33	0.72
0.1998	293.15	759.72	0.72
0.1998	298.15	756.11	0.72
0.1998	303.15	752.5	0.72
0.1998	313.15	745.25	0.72
0.1998	323.15	737.97	0.72
0.1998	333.15	730.66	0.72
0.3001	288.15	768.99	0.72
0.3001	293.15	765.39	0.72
0.3001	298.15	761.78	0.72
0.3001	303.15	758.17	0.72
0.3001	313.15	750.94	0.72
0.3001	323.15	743.68	0.72
0.3001	333.15	736.38	0.72
0.4001	288.15	774.72	0.72
0.4001	293.15	771.13	0.72
0.4001	298.15	767.53	0.72
0.4001	303.15	763.92	0.72
0.4001	313.15	756.7	0.72
0.4001	323.15	749.46	0.72
0.4001	333.15	742.18	0.72
0.5004	288.15	780.57	0.72
0.5004	293.15	776.99	0.72
0.5004	298.15	773.39	0.72
0.5004	303.15	769.79	0.72
0.5004	313.15	762.59	0.72
0.5004	323.15	755.35	0.72
0.5004	333.15	748.09	0.72
0.5996	288.15	786.46	0.73
0.5996	293.15	782.88	0.73
0.5996	298.15	779.29	0.73
0.5996	303.15	775.7	0.73
0.5996	313.15	768.5	0.73
0.5996	323.15	761.28	0.73
0.5996	333.15	754.02	0.73
0.7005	288.15	792.54	0.73
0.7005	293.15	788.97	0.73
0.7005	298.15	785.38	0.73
0.7005	303.15	781.79	0.73
0.7005	313.15	774.6	0.73
0.7005	323.15	767.39	0.73
0.7005	333.15	760.16	0.73
0.7996	288.15	798.63	0.74
0.7996	293.15	795.06	0.74
0.7996	298.15	791.48	0.74
0.7996	303.15	787.89	0.74
0.7996	313.15	780.72	0.74
0.7996	323.15	773.52	0.74
0.7996	333.15	766.29	0.74
0.8997	288.15	804.88	0.74
0.8997	293.15	801.31	0.74
0.8997	298.15	797.74	0.74
0.8997	303.15	794.16	0.74
0.8997	313.15	786.99	0.74
0.8997	323.15	779.8	0.74
0.8997	333.15	772.58	0.74
1	288.15	811.34	0.75
1	293.15	807.76	0.75
1	298.15	804.19	0.75
1	303.15	800.61	0.75
1	313.15	793.43	0.75
1	323.15	786.25	0.75
1	333.15	779.05	0.75

System: hexylcyclohexane + dodecane; phases: Liquid
Fixed: Pressure, kPa = 102
Fixed: Frequency, MHz = 3
Property: Speed of sound, m/s (Liquid); method: Single path-length method
Mole fraction of hexylcyclohexane	Temperature, K	Speed of sound, m/s	uncertainty
0	288.15	1317.2	0.8
0	293.15	1297.7	0.8
0	298.15	1278.2	0.8
0	303.15	1259	0.8
0	313.15	1221.1	0.8
0	323.15	1184	0.8
0	333.15	1147.8	0.8
0.1009	288.15	1322.7	0.9
0.1009	293.15	1303.2	0.9
0.1009	298.15	1283.8	0.9
0.1009	303.15	1264.6	0.9
0.1009	313.15	1226.8	0.9
0.1009	323.15	1189.7	0.9
0.1009	333.15	1153.6	0.9
0.1998	288.15	1328.2	0.9
0.1998	293.15	1308.8	0.9
0.1998	298.15	1289.4	0.9
0.1998	303.15	1270.2	0.9
0.1998	313.15	1232.4	0.9
0.1998	323.15	1195.4	0.9
0.1998	333.15	1159.3	0.9
0.3001	288.15	1334.2	1
0.3001	293.15	1314.7	1
0.3001	298.15	1295.3	1
0.3001	303.15	1276.1	1
0.3001	313.15	1238.3	1
0.3001	323.15	1201.3	1
0.3001	333.15	1165.3	1
0.4001	288.15	1340.2	1
0.4001	293.15	1320.7	1
0.4001	298.15	1301.3	1
0.4001	303.15	1282.1	1
0.4001	313.15	1244.3	1
0.4001	323.15	1207.4	1
0.4001	333.15	1171.3	1
0.5004	288.15	1346.3	1.1
0.5004	293.15	1326.9	1.1
0.5004	298.15	1307.5	1.1
0.5004	303.15	1288.3	1.1
0.5004	313.15	1250.5	1.1
0.5004	323.15	1213.6	1.1
0.5004	333.15	1177.6	1.1
0.5996	288.15	1352.5	1.1
0.5996	293.15	1333.2	1.1
0.5996	298.15	1313.8	1.1
0.5996	303.15	1294.6	1.1
0.5996	313.15	1256.8	1.1
0.5996	323.15	1219.8	1.1
0.5996	333.15	1183.9	1.1
0.7005	288.15	1359.2	1.2
0.7005	293.15	1339.8	1.2
0.7005	298.15	1320.4	1.2
0.7005	303.15	1301.2	1.2
0.7005	313.15	1263.4	1.2
0.7005	323.15	1226.4	1.2
0.7005	333.15	1190.5	1.2
0.7996	288.15	1365.9	1.3
0.7996	293.15	1346.5	1.3
0.7996	298.15	1327.1	1.3
0.7996	303.15	1307.8	1.3
0.7996	313.15	1270.1	1.3
0.7996	323.15	1233.1	1.3
0.7996	333.15	1197.1	1.3
0.8997	288.15	1373	1.3
0.8997	293.15	1353.4	1.3
0.8997	298.15	1334	1.3
0.8997	303.15	1314.7	1.3
0.8997	313.15	1276.9	1.3
0.8997	323.15	1239.8	1.3
0.8997	333.15	1203.6	1.3
1	288.15	1380.4	1.4
1	293.15	1360.9	1.4
1	298.15	1341.4	1.4
1	303.15	1322.1	1.4
1	313.15	1284.2	1.4
1	323.15	1247.1	1.4
1	333.15	1211	1.4

System: hexylcyclohexane + dodecane; phases: Liquid
Fixed: Pressure, kPa = 102
Property: Viscosity, Pa*s (Liquid); method: Concentric cylinders viscometry
Mole fraction of hexylcyclohexane	Temperature, K	Viscosity, Pa*s	uncertainty
0.1002	293.15	0.00153	2e-05
0.201	293.15	0.00158	2e-05
0.3	293.15	0.00164	2e-05
0.3998	293.15	0.0017	2e-05
0.5002	293.15	0.00176	2e-05
0.5999	293.15	0.00183	2e-05
0.6998	293.15	0.00191	2e-05
0.8001	293.15	0.00199	2e-05
0.8998	293.15	0.00208	3e-05
1	293.15	0.00219	3e-05
0	293.15	0.00149	2e-05
0.3	303.15	0.00138	2e-05
0.3998	303.15	0.00143	2e-05
0.5002	303.15	0.00148	2e-05
0	303.15	0.00127	2e-05
0.5999	303.15	0.00154	2e-05
0.1002	303.15	0.0013	2e-05
0.6998	303.15	0.0016	2e-05
0.8001	303.15	0.00166	2e-05
0.8998	303.15	0.00174	2e-05
0.201	303.15	0.00134	2e-05
1	303.15	0.00179	3e-05
0.5002	313.15	0.00125	2e-05
0.3	313.15	0.00117	2e-05
0.5999	313.15	0.0013	2e-05
0.1002	313.15	0.00111	2e-05
0.201	313.15	0.00114	2e-05
0.6998	313.15	0.00134	2e-05
0.8001	313.15	0.0014	2e-05
0.8998	313.15	0.00146	2e-05
1	313.15	0.00152	3e-05
0.3998	313.15	0.00121	2e-05
0	313.15	0.00108	2e-05
0.6998	323.15	0.00115	2e-05
0.5002	323.15	0.00108	2e-05
0.8001	323.15	0.0012	2e-05
0.1002	323.15	0.000958	2.1e-05
0.201	323.15	0.000986	2.1e-05
0.8998	323.15	0.00125	2e-05
0	323.15	0.000934	2.1e-05
1	323.15	0.0013	3e-05
0.5999	323.15	0.00112	2e-05
0.3998	323.15	0.00105	2e-05
0.3	323.15	0.00101	2e-05
0.1002	333.15	0.000833	2.1e-05
0.5999	333.15	0.000966	2.1e-05
0.6998	333.15	0.001	2e-05
0.201	333.15	0.000855	2.1e-05
0.8998	333.15	0.00107	2e-05
0.5002	333.15	0.000935	2.1e-05
0	333.15	0.000813	2.1e-05
0.3	333.15	0.00088	2.1e-05
0.3998	333.15	0.000906	2.1e-05
1	333.15	0.00112	3e-05
0.8001	333.15	0.00104	2e-05

System: heptylcyclohexane + dodecane; phases: Liquid
Fixed: Pressure, kPa = 102
Property: Mass density, kg/m3 (Liquid); method: Vibrating tube method
Mole fraction of heptylcyclohexane	Temperature, K	Mass density, kg/m3	uncertainty
0	288.15	752.35	0.71
0	293.15	748.72	0.71
0	298.15	745.09	0.71
0	303.15	741.46	0.71
0	313.15	734.19	0.71
0	323.15	726.88	0.71
0	333.15	719.53	0.71
0.1002	288.15	758.6	0.71
0.1002	293.15	754.98	0.71
0.1002	298.15	751.36	0.71
0.1002	303.15	747.74	0.71
0.1002	313.15	740.48	0.71
0.1002	323.15	733.2	0.71
0.1002	333.15	725.89	0.71
0.201	288.15	764.82	0.71
0.201	293.15	761.22	0.71
0.201	298.15	757.61	0.71
0.201	303.15	754.01	0.71
0.201	313.15	746.79	0.71
0.201	323.15	739.54	0.71
0.201	333.15	732.26	0.71
0.3	288.15	771.01	0.71
0.3	293.15	767.42	0.71
0.3	298.15	763.84	0.71
0.3	303.15	760.25	0.71
0.3	313.15	753.05	0.71
0.3	323.15	745.82	0.71
0.3	333.15	738.56	0.71
0.3998	288.15	777.16	0.71
0.3998	293.15	773.59	0.71
0.3998	298.15	770.01	0.71
0.3998	303.15	766.42	0.71
0.3998	313.15	759.25	0.71
0.3998	323.15	752.06	0.71
0.3998	333.15	744.84	0.71
0.5002	288.15	783.44	0.71
0.5002	293.15	779.88	0.71
0.5002	298.15	776.32	0.71
0.5002	303.15	772.75	0.71
0.5002	313.15	765.6	0.71
0.5002	323.15	758.43	0.71
0.5002	333.15	751.23	0.71
0.5999	288.15	789.63	0.71
0.5999	293.15	786.08	0.71
0.5999	298.15	782.53	0.71
0.5999	303.15	778.98	0.71
0.5999	313.15	771.86	0.71
0.5999	323.15	764.71	0.71
0.5999	333.15	757.54	0.71
0.6998	288.15	795.81	0.71
0.6998	293.15	792.27	0.71
0.6998	298.15	788.73	0.71
0.6998	303.15	785.18	0.71
0.6998	313.15	778.09	0.71
0.6998	323.15	770.98	0.71
0.6998	333.15	763.84	0.71
0.8001	288.15	802.09	0.71
0.8001	293.15	798.57	0.71
0.8001	298.15	795.04	0.71
0.8001	303.15	791.51	0.71
0.8001	313.15	784.43	0.71
0.8001	323.15	777.34	0.71
0.8001	333.15	770.22	0.71
0.8998	288.15	808.24	0.71
0.8998	293.15	804.73	0.71
0.8998	298.15	801.21	0.71
0.8998	303.15	797.69	0.71
0.8998	313.15	790.64	0.71
0.8998	323.15	783.57	0.71
0.8998	333.15	776.49	0.71
1	288.15	814.51	0.71
1	293.15	811	0.71
1	298.15	807.49	0.71
1	303.15	803.98	0.71
1	313.15	796.95	0.71
1	323.15	789.91	0.71
1	333.15	782.85	0.71

System: heptylcyclohexane + dodecane; phases: Liquid
Fixed: Pressure, kPa = 102
Fixed: Frequency, MHz = 3
Property: Speed of sound, m/s (Liquid); method: Single path-length method
Mole fraction of heptylcyclohexane	Temperature, K	Speed of sound, m/s	uncertainty
0	288.15	1317.2	0.8
0	293.15	1297.7	0.8
0	298.15	1278.2	0.8
0	303.15	1259	0.8
0	313.15	1221.1	0.8
0	323.15	1184	0.8
0	333.15	1147.8	0.8
0.1002	288.15	1324.4	0.8
0.1002	293.15	1304.9	0.8
0.1002	298.15	1285.5	0.8
0.1002	303.15	1266.3	0.8
0.1002	313.15	1228.4	0.8
0.1002	323.15	1191.3	0.8
0.1002	333.15	1155.3	0.8
0.201	288.15	1331.8	0.8
0.201	293.15	1312.4	0.8
0.201	298.15	1293.1	0.8
0.201	303.15	1273.9	0.8
0.201	313.15	1236.2	0.8
0.201	323.15	1199.2	0.8
0.201	333.15	1163.2	0.8
0.3	288.15	1339.3	0.8
0.3	293.15	1319.9	0.8
0.3	298.15	1300.8	0.8
0.3	303.15	1281.8	0.8
0.3	313.15	1244.2	0.8
0.3	323.15	1207.3	0.8
0.3	333.15	1171.2	0.8
0.3998	288.15	1346.8	0.8
0.3998	293.15	1327.3	0.8
0.3998	298.15	1308	0.8
0.3998	303.15	1288.8	0.8
0.3998	313.15	1251.2	0.8
0.3998	323.15	1214.3	0.8
0.3998	333.15	1178.5	0.8
0.5002	288.15	1354.4	0.8
0.5002	293.15	1335.1	0.8
0.5002	298.15	1316	0.8
0.5002	303.15	1297	0.8
0.5002	313.15	1259.6	0.8
0.5002	323.15	1222.8	0.8
0.5002	333.15	1186.8	0.8
0.5999	288.15	1362	0.8
0.5999	293.15	1342.8	0.8
0.5999	298.15	1323.6	0.8
0.5999	303.15	1304.7	0.8
0.5999	313.15	1267.3	0.8
0.5999	323.15	1230.6	0.8
0.5999	333.15	1194.6	0.8
0.6998	288.15	1369.8	0.8
0.6998	293.15	1350.4	0.8
0.6998	298.15	1331.1	0.8
0.6998	303.15	1312.1	0.8
0.6998	313.15	1274.6	0.8
0.6998	323.15	1238	0.8
0.6998	333.15	1202.4	0.8
0.8001	288.15	1377.6	0.9
0.8001	293.15	1358.3	0.9
0.8001	298.15	1339.3	0.9
0.8001	303.15	1320.3	0.9
0.8001	313.15	1283	0.9
0.8001	323.15	1246.3	0.9
0.8001	333.15	1210.5	0.9
0.8998	288.15	1385.6	0.9
0.8998	293.15	1366.2	0.9
0.8998	298.15	1346.9	0.9
0.8998	303.15	1327.9	0.9
0.8998	313.15	1290.5	0.9
0.8998	323.15	1253.9	0.9
0.8998	333.15	1218.5	0.9
1	288.15	1393.6	0.9
1	293.15	1374.2	0.9
1	298.15	1355.1	0.9
1	303.15	1336.1	0.9
1	313.15	1298.8	0.9
1	323.15	1262.2	0.9
1	333.15	1226.7	0.9

System: heptylcyclohexane + dodecane; phases: Liquid
Fixed: Pressure, kPa = 102
Property: Viscosity, Pa*s (Liquid); method: Concentric cylinders viscometry
Mole fraction of heptylcyclohexane	Temperature, K	Viscosity, Pa*s	uncertainty
0	293.15	0.00149	2e-05
0.1002	293.15	0.00157	2e-05
0.201	293.15	0.00167	2e-05
0.3	293.15	0.00176	2e-05
0.3998	293.15	0.00187	2e-05
0.5002	293.15	0.00199	2e-05
0.5999	293.15	0.00212	2e-05
0.6998	293.15	0.00226	2e-05
0.8001	293.15	0.00242	2e-05
0.8998	293.15	0.0026	2e-05
1	293.15	0.0028	2e-05
0	303.15	0.00127	2e-05
0.1002	303.15	0.00133	2e-05
0.201	303.15	0.00141	2e-05
0.3	303.15	0.00148	2e-05
0.3998	303.15	0.00157	2e-05
0.5002	303.15	0.00166	2e-05
0.5999	303.15	0.00174	2e-05
0.6998	303.15	0.00185	2e-05
0.8001	303.15	0.00197	2e-05
0.8998	303.15	0.00211	2e-05
1	303.15	0.00225	2e-05
0	313.15	0.00108	2e-05
0.1002	313.15	0.00113	2e-05
0.201	313.15	0.00119	2e-05
0.3	313.15	0.00125	2e-05
0.3998	313.15	0.00132	2e-05
0.5002	313.15	0.00139	2e-05
0.5999	313.15	0.00147	2e-05
0.6998	313.15	0.00154	2e-05
0.8001	313.15	0.00163	2e-05
0.8998	313.15	0.00173	2e-05
1	313.15	0.00185	2e-05
0	323.15	0.000934	2.1e-05
0.1002	323.15	0.000976	2.1e-05
0.201	323.15	0.00102	2e-05
0.3	323.15	0.00108	2e-05
0.3998	323.15	0.00113	2e-05
0.5002	323.15	0.00119	2e-05
0.5999	323.15	0.00125	2e-05
0.6998	323.15	0.00132	2e-05
0.8001	323.15	0.00138	2e-05
0.8998	323.15	0.00145	2e-05
1	323.15	0.00155	2e-05
0	333.15	0.000813	2.1e-05
0.1002	333.15	0.000851	2.1e-05
0.201	333.15	0.000891	2.1e-05
0.3	333.15	0.000933	2.1e-05
0.3998	333.15	0.000977	2.1e-05
0.5002	333.15	0.00103	2e-05
0.5999	333.15	0.00108	2e-05
0.6998	333.15	0.00114	2e-05
0.8001	333.15	0.00118	2e-05
0.8998	333.15	0.00123	2e-05
1	333.15	0.00131	2e-05

System: octylcyclohexane + dodecane; phases: Liquid
Fixed: Pressure, kPa = 102
Property: Mass density, kg/m3 (Liquid); method: Vibrating tube method
Mole fraction of octylcyclohexane	Temperature, K	Mass density, kg/m3	uncertainty
0	288.15	752.35	0.71
0	293.15	748.72	0.71
0	298.15	745.09	0.71
0	303.15	741.46	0.71
0	313.15	734.19	0.71
0	323.15	726.88	0.71
0	333.15	719.53	0.71
0.1	288.15	759.33	0.71
0.1	293.15	755.72	0.71
0.1	298.15	752.11	0.71
0.1	303.15	748.5	0.71
0.1	313.15	741.26	0.71
0.1	323.15	734	0.71
0.1	333.15	726.7	0.71
0.1998	288.15	766.24	0.71
0.1998	293.15	762.65	0.71
0.1998	298.15	759.06	0.71
0.1998	303.15	755.45	0.71
0.1998	313.15	748.26	0.71
0.1998	323.15	741.03	0.71
0.1998	333.15	733.78	0.71
0.3002	288.15	772.95	0.71
0.3002	293.15	769.38	0.71
0.3002	298.15	765.81	0.71
0.3002	303.15	762.24	0.71
0.3002	313.15	755.08	0.71
0.3002	323.15	747.89	0.71
0.3002	333.15	740.68	0.71
0.3998	288.15	779.63	0.71
0.3998	293.15	776.08	0.71
0.3998	298.15	772.53	0.71
0.3998	303.15	768.97	0.71
0.3998	313.15	761.84	0.71
0.3998	323.15	754.69	0.71
0.3998	333.15	747.52	0.72
0.4948	288.15	785.9	0.71
0.4948	293.15	782.36	0.71
0.4948	298.15	778.83	0.71
0.4948	303.15	775.29	0.71
0.4948	313.15	768.19	0.71
0.4948	323.15	761.08	0.72
0.4948	333.15	753.94	0.72
0.5997	288.15	792.69	0.71
0.5997	293.15	789.17	0.71
0.5997	298.15	785.65	0.71
0.5997	303.15	782.13	0.71
0.5997	313.15	775.07	0.72
0.5997	323.15	768	0.72
0.5997	333.15	760.9	0.72
0.6996	288.15	798.98	0.71
0.6996	293.15	795.48	0.71
0.6996	298.15	791.98	0.71
0.6996	303.15	788.47	0.72
0.6996	313.15	781.45	0.72
0.6996	323.15	774.42	0.72
0.6996	333.15	767.37	0.72
0.7999	288.15	805.34	0.72
0.7999	293.15	801.86	0.72
0.7999	298.15	798.37	0.72
0.7999	303.15	794.88	0.72
0.7999	313.15	787.89	0.72
0.7999	323.15	780.88	0.72
0.7999	333.15	773.86	0.72
0.9	288.15	811.48	0.72
0.9	293.15	808.01	0.72
0.9	298.15	804.53	0.72
0.9	303.15	801.06	0.72
0.9	313.15	794.1	0.72
0.9	323.15	787.14	0.72
0.9	333.15	780.16	0.72
1	288.15	817.58	0.72
1	293.15	814.13	0.72
1	298.15	810.67	0.72
1	303.15	807.2	0.72
1	313.15	800.28	0.72
1	323.15	793.35	0.72
1	333.15	786.41	0.72

System: octylcyclohexane + dodecane; phases: Liquid
Fixed: Pressure, kPa = 102
Fixed: Frequency, MHz = 3
Property: Speed of sound, m/s (Liquid); method: Single path-length method
Mole fraction of octylcyclohexane	Temperature, K	Speed of sound, m/s	uncertainty
0	288.15	1317.2	0.8
0	293.15	1297.7	0.8
0	298.15	1278.2	0.8
0	303.15	1259	0.8
0	313.15	1221.1	0.8
0	323.15	1184	0.8
0	333.15	1147.8	0.8
0.1	288.15	1326.2	0.8
0.1	293.15	1306.9	0.8
0.1	298.15	1287.6	0.8
0.1	303.15	1268.4	0.8
0.1	313.15	1230.7	0.8
0.1	323.15	1193.7	0.8
0.1	333.15	1157.6	0.8
0.1998	288.15	1335.1	0.8
0.1998	293.15	1315.8	0.8
0.1998	298.15	1296.5	0.8
0.1998	303.15	1277.3	0.8
0.1998	313.15	1239.6	0.8
0.1998	323.15	1202.7	0.8
0.1998	333.15	1166.9	0.8
0.3002	288.15	1344.1	0.9
0.3002	293.15	1324.8	0.9
0.3002	298.15	1305.5	0.9
0.3002	303.15	1286.4	0.9
0.3002	313.15	1248.9	0.9
0.3002	323.15	1212.2	0.9
0.3002	333.15	1176.4	0.9
0.3998	288.15	1353.1	0.9
0.3998	293.15	1333.9	0.9
0.3998	298.15	1314.8	0.9
0.3998	303.15	1295.9	0.9
0.3998	313.15	1258.6	0.9
0.3998	323.15	1221.9	0.9
0.3998	333.15	1186	0.9
0.4948	288.15	1361.6	0.9
0.4948	293.15	1342.3	0.9
0.4948	298.15	1323.4	0.9
0.4948	303.15	1304.4	0.9
0.4948	313.15	1267.1	0.9
0.4948	323.15	1230.5	0.9
0.4948	333.15	1194.8	0.9
0.5997	288.15	1370.8	0.9
0.5997	293.15	1351.6	0.9
0.5997	298.15	1332.6	0.9
0.5997	303.15	1313.8	0.9
0.5997	313.15	1276.7	0.9
0.5997	323.15	1240.1	0.9
0.5997	333.15	1204.5	0.9
0.6996	288.15	1379.4	0.9
0.6996	293.15	1360.3	0.9
0.6996	298.15	1341.2	0.9
0.6996	303.15	1322.2	0.9
0.6996	313.15	1285.1	0.9
0.6996	323.15	1248.7	0.9
0.6996	333.15	1213.3	0.9
0.7999	288.15	1388.2	1
0.7999	293.15	1369.1	1
0.7999	298.15	1350.2	1
0.7999	303.15	1331.4	1
0.7999	313.15	1294.4	1
0.7999	323.15	1258.1	1
0.7999	333.15	1222.7	1
0.9	288.15	1396.9	1
0.9	293.15	1377.8	1
0.9	298.15	1358.7	1
0.9	303.15	1339.9	1
0.9	313.15	1302.8	1
0.9	323.15	1266.6	1
0.9	333.15	1231.5	1
1	288.15	1405.5	1
1	293.15	1386.4	1
1	298.15	1367.4	1
1	303.15	1348.6	1
1	313.15	1311.6	1
1	323.15	1275.5	1
1	333.15	1240.3	1

System: octylcyclohexane + dodecane; phases: Liquid
Fixed: Pressure, kPa = 102
Property: Viscosity, Pa*s (Liquid); method: Concentric cylinders viscometry
Mole fraction of octylcyclohexane	Temperature, K	Viscosity, Pa*s	uncertainty
0	293.15	0.00149	2e-05
0.1	293.15	0.00161	2e-05
0.1998	293.15	0.00174	2e-05
0.3002	293.15	0.00191	2e-05
0.3998	293.15	0.00205	2e-05
0.4948	293.15	0.00223	2e-05
0.5997	293.15	0.00244	2e-05
0.6996	293.15	0.00266	2e-05
0.7999	293.15	0.00291	3e-05
0.9	293.15	0.0032	3e-05
1	293.15	0.00352	3e-05
0	303.15	0.00127	2e-05
0.1	303.15	0.00136	2e-05
0.1998	303.15	0.00147	2e-05
0.3002	303.15	0.0016	2e-05
0.3998	303.15	0.00169	2e-05
0.4948	303.15	0.00182	2e-05
0.5997	303.15	0.00198	2e-05
0.6996	303.15	0.00215	2e-05
0.7999	303.15	0.00234	2e-05
0.9	303.15	0.00255	2e-05
1	303.15	0.00279	3e-05
0	313.15	0.00108	2e-05
0.1	313.15	0.00116	2e-05
0.1998	313.15	0.00124	2e-05
0.3002	313.15	0.00133	2e-05
0.3998	313.15	0.00143	2e-05
0.4948	313.15	0.00152	2e-05
0.5997	313.15	0.00164	2e-05
0.6996	313.15	0.00177	2e-05
0.7999	313.15	0.00192	2e-05
0.9	313.15	0.00208	2e-05
1	313.15	0.00226	2e-05
0	323.15	0.000934	2.1e-05
0.1	323.15	0.001	2e-05
0.1998	323.15	0.00107	2e-05
0.3002	323.15	0.00114	2e-05
0.3998	323.15	0.00123	2e-05
0.4948	323.15	0.00131	2e-05
0.5997	323.15	0.00138	2e-05
0.6996	323.15	0.00148	2e-05
0.7999	323.15	0.0016	2e-05
0.9	323.15	0.00173	2e-05
1	323.15	0.00187	2e-05
0	333.15	0.000813	2.1e-05
0.1	333.15	0.000865	2.1e-05
0.1998	333.15	0.000923	2.1e-05
0.3002	333.15	0.000984	2.1e-05
0.3998	333.15	0.00106	2e-05
0.4948	333.15	0.00112	2e-05
0.5997	333.15	0.00118	2e-05
0.6996	333.15	0.00126	2e-05
0.7999	333.15	0.00136	2e-05
0.9	333.15	0.00146	2e-05
1	333.15	0.00157	2e-05

System: decylcyclohexane + dodecane; phases: Liquid
Fixed: Pressure, kPa = 102
Property: Mass density, kg/m3 (Liquid); method: Vibrating tube method
Mole fraction of decylcyclohexane	Temperature, K	Mass density, kg/m3	uncertainty
0	288.15	752.35	0.71
0	293.15	748.72	0.71
0	298.15	745.09	0.71
0	303.15	741.46	0.71
0	313.15	734.19	0.71
0	323.15	726.88	0.71
0	333.15	719.53	0.71
0.1003	288.15	760.76	0.71
0.1003	293.15	757.16	0.71
0.1003	298.15	753.56	0.71
0.1003	303.15	749.96	0.71
0.1003	313.15	742.75	0.71
0.1003	323.15	735.51	0.71
0.1003	333.15	728.24	0.71
0.2194	288.15	770.26	0.71
0.2194	293.15	766.69	0.71
0.2194	298.15	763.13	0.71
0.2194	303.15	759.57	0.71
0.2194	313.15	752.43	0.71
0.2194	323.15	745.28	0.71
0.2194	333.15	738.08	0.71
0.3002	288.15	776.43	0.71
0.3002	293.15	772.89	0.71
0.3002	298.15	769.34	0.71
0.3002	303.15	765.8	0.71
0.3002	313.15	758.71	0.71
0.3002	323.15	751.59	0.71
0.3002	333.15	744.46	0.71
0.4004	288.15	783.8	0.71
0.4004	293.15	780.28	0.71
0.4004	298.15	776.76	0.71
0.4004	303.15	773.24	0.71
0.4004	313.15	766.19	0.71
0.4004	323.15	759.13	0.71
0.4004	333.15	752.05	0.71
0.4999	288.15	790.8	0.71
0.4999	293.15	787.31	0.71
0.4999	298.15	783.81	0.71
0.4999	303.15	780.31	0.71
0.4999	313.15	773.32	0.71
0.4999	323.15	766.31	0.71
0.4999	333.15	759.29	0.71
0.5993	288.15	797.51	0.71
0.5993	293.15	794.05	0.71
0.5993	298.15	790.58	0.71
0.5993	303.15	787.1	0.71
0.5993	313.15	780.16	0.71
0.5993	323.15	773.2	0.71
0.5993	333.15	766.23	0.71
0.7001	288.15	804.03	0.71
0.7001	293.15	800.58	0.71
0.7001	298.15	797.13	0.71
0.7001	303.15	793.68	0.71
0.7001	313.15	786.78	0.71
0.7001	323.15	779.88	0.71
0.7001	333.15	772.96	0.71
0.8005	288.15	810.28	0.71
0.8005	293.15	806.85	0.71
0.8005	298.15	803.42	0.71
0.8005	303.15	799.99	0.71
0.8005	313.15	793.13	0.71
0.8005	323.15	786.28	0.71
0.8005	333.15	779.42	0.71
0.8991	288.15	816.18	0.71
0.8991	293.15	812.78	0.71
0.8991	298.15	809.36	0.71
0.8991	303.15	805.95	0.71
0.8991	313.15	799.14	0.71
0.8991	323.15	792.33	0.71
0.8991	333.15	785.51	0.71
1	288.15	821.93	0.71
1	293.15	818.54	0.71
1	298.15	815.16	0.71
1	303.15	811.78	0.71
1	313.15	805.02	0.71
1	323.15	798.26	0.71
1	333.15	791.49	0.71

System: decylcyclohexane + dodecane; phases: Liquid
Fixed: Pressure, kPa = 102
Fixed: Frequency, MHz = 3
Property: Speed of sound, m/s (Liquid); method: Single path-length method
Mole fraction of decylcyclohexane	Temperature, K	Speed of sound, m/s	uncertainty
0	288.15	1317.2	0.8
0	293.15	1297.7	0.8
0	298.15	1278.2	0.8
0	303.15	1259	0.8
0	313.15	1221.1	0.8
0	323.15	1184	0.8
0	333.15	1147.8	0.8
0.1003	288.15	1329.7	0.8
0.1003	293.15	1310.3	0.8
0.1003	298.15	1290.9	0.8
0.1003	303.15	1271.8	0.8
0.1003	313.15	1234.1	0.8
0.1003	323.15	1197.2	0.8
0.1003	333.15	1161.3	0.8
0.2194	288.15	1344	0.8
0.2194	293.15	1324.7	0.8
0.2194	298.15	1305.4	0.8
0.2194	303.15	1286.4	0.8
0.2194	313.15	1248.9	0.8
0.2194	323.15	1212.3	0.8
0.2194	333.15	1176.5	0.8
0.3002	288.15	1353.5	0.8
0.3002	293.15	1334.2	0.8
0.3002	298.15	1315	0.8
0.3002	303.15	1296	0.8
0.3002	313.15	1258.7	0.8
0.3002	323.15	1222.1	0.8
0.3002	333.15	1186.5	0.8
0.4004	288.15	1364.7	0.9
0.4004	293.15	1345.7	0.9
0.4004	298.15	1326.8	0.9
0.4004	303.15	1308.1	0.9
0.4004	313.15	1271	0.9
0.4004	323.15	1234.7	0.9
0.4004	333.15	1199.1	0.9
0.4999	288.15	1375.6	0.9
0.4999	293.15	1356.6	0.9
0.4999	298.15	1337.8	0.9
0.4999	303.15	1319.1	0.9
0.4999	313.15	1282.2	0.9
0.4999	323.15	1246	0.9
0.4999	333.15	1210.6	0.9
0.5993	288.15	1386.2	0.9
0.5993	293.15	1367.1	0.9
0.5993	298.15	1348.6	0.9
0.5993	303.15	1329.7	0.9
0.5993	313.15	1292	0.9
0.5993	323.15	1257	0.9
0.5993	333.15	1221.8	0.9
0.7001	288.15	1396.3	0.9
0.7001	293.15	1377.5	0.9
0.7001	298.15	1358.8	0.9
0.7001	303.15	1340.2	0.9
0.7001	313.15	1303.7	0.9
0.7001	323.15	1267.7	0.9
0.7001	333.15	1232.7	0.9
0.8005	288.15	1406.3	0.9
0.8005	293.15	1387.5	0.9
0.8005	298.15	1368.8	0.9
0.8005	303.15	1350.4	0.9
0.8005	313.15	1313.9	0.9
0.8005	323.15	1278.1	0.9
0.8005	333.15	1243.2	0.9
0.8991	288.15	1415.8	0.9
0.8991	293.15	1397.1	0.9
0.8991	298.15	1378.5	0.9
0.8991	303.15	1360.1	0.9
0.8991	313.15	1323.7	0.9
0.8991	323.15	1288	0.9
0.8991	333.15	1253.2	0.9
1	288.15	1425.2	0.9
1	293.15	1406.4	0.9
1	298.15	1387.7	0.9
1	303.15	1369.1	0.9
1	313.15	1332.8	0.9
1	323.15	1297.2	0.9
1	333.15	1262.7	0.9

System: decylcyclohexane + dodecane; phases: Liquid
Fixed: Pressure, kPa = 102
Property: Viscosity, Pa*s (Liquid); method: Concentric cylinders viscometry
Mole fraction of decylcyclohexane	Temperature, K	Viscosity, Pa*s	uncertainty
0	293.15	0.00149	2e-05
0.1003	293.15	0.0017	2e-05
0.2194	293.15	0.00198	2e-05
0.3002	293.15	0.00219	2e-05
0.4004	293.15	0.00248	2e-05
0.4999	293.15	0.00282	2e-05
0.5993	293.15	0.0032	3e-05
0.7001	293.15	0.00364	3e-05
0.8005	293.15	0.00413	3e-05
0.8991	293.15	0.00468	5e-05
1	293.15	0.00534	3e-05
0	303.15	0.00127	2e-05
0.1003	303.15	0.00143	2e-05
0.2194	303.15	0.00165	2e-05
0.3002	303.15	0.00179	2e-05
0.4004	303.15	0.00202	2e-05
0.4999	303.15	0.00227	2e-05
0.5993	303.15	0.00255	2e-05
0.7001	303.15	0.00288	3e-05
0.8005	303.15	0.00323	3e-05
0.8991	303.15	0.00363	3e-05
1	303.15	0.00409	3e-05
0	313.15	0.00108	2e-05
0.1003	313.15	0.00121	2e-05
0.2194	313.15	0.00139	2e-05
0.3002	313.15	0.00149	2e-05
0.4004	313.15	0.00167	2e-05
0.4999	313.15	0.00187	2e-05
0.5993	313.15	0.00208	2e-05
0.7001	313.15	0.00233	2e-05
0.8005	313.15	0.0026	2e-05
0.8991	313.15	0.00289	3e-05
1	313.15	0.00323	3e-05
0	323.15	0.000934	2.1e-05
0.1003	323.15	0.00104	2e-05
0.2194	323.15	0.00119	2e-05
0.3002	323.15	0.00129	2e-05
0.4004	323.15	0.00141	2e-05
0.4999	323.15	0.00156	2e-05
0.5993	323.15	0.00173	2e-05
0.7001	323.15	0.00192	2e-05
0.8005	323.15	0.00213	2e-05
0.8991	323.15	0.00235	2e-05
1	323.15	0.0026	2e-05
0	333.15	0.000813	2.1e-05
0.1003	333.15	0.000904	2.1e-05
0.2194	333.15	0.00102	2e-05
0.3002	333.15	0.00111	2e-05
0.4004	333.15	0.0012	2e-05
0.4999	333.15	0.00132	2e-05
0.5993	333.15	0.00146	2e-05
0.7001	333.15	0.00161	2e-05
0.8005	333.15	0.00178	2e-05
0.8991	333.15	0.00195	2e-05
1	333.15	0.00215	2e-05

System: dodecylcyclohexane + dodecane; phases: Liquid
Fixed: Pressure, kPa = 102
Property: Mass density, kg/m3 (Liquid); method: Vibrating tube method
Mole fraction of dodecylcyclohexane	Temperature, K	Mass density, kg/m3	uncertainty
0	288.15	752.35	0.71
0	293.15	748.72	0.71
0	298.15	745.09	0.71
0	303.15	741.46	0.71
0	313.15	734.19	0.71
0	323.15	726.88	0.71
0	333.15	719.53	0.71
0.1005	288.15	762.18	0.71
0.1005	293.15	758.6	0.71
0.1005	298.15	755.01	0.71
0.1005	303.15	751.42	0.71
0.1005	313.15	744.23	0.71
0.1005	323.15	737.02	0.71
0.1005	333.15	729.78	0.71
0.2001	288.15	771.24	0.71
0.2001	293.15	767.69	0.71
0.2001	298.15	764.14	0.71
0.2001	303.15	760.58	0.71
0.2001	313.15	753.48	0.71
0.2001	323.15	746.35	0.71
0.2001	333.15	739.2	0.71
0.298	288.15	779.52	0.71
0.298	293.15	776	0.71
0.298	298.15	772.48	0.71
0.298	303.15	768.97	0.71
0.298	313.15	761.93	0.71
0.298	323.15	754.88	0.71
0.298	333.15	747.81	0.71
0.4031	288.15	787.8	0.71
0.4031	293.15	784.32	0.71
0.4031	298.15	780.84	0.71
0.4031	303.15	777.36	0.71
0.4031	313.15	770.4	0.71
0.4031	323.15	763.43	0.71
0.4031	333.15	756.44	0.71
0.5001	288.15	794.95	0.71
0.5001	293.15	791.49	0.71
0.5001	298.15	788.04	0.71
0.5001	303.15	784.59	0.71
0.5001	313.15	777.69	0.71
0.5001	323.15	770.78	0.71
0.5001	333.15	763.86	0.71
0.6005	288.15	801.89	0.71
0.6005	293.15	798.47	0.71
0.6005	298.15	795.04	0.71
0.6005	303.15	791.62	0.71
0.6005	313.15	784.77	0.71
0.6005	323.15	777.93	0.71
0.6005	333.15	771.08	0.71
0.7003	288.15	808.42	0.71
0.7003	293.15	805.01	0.71
0.7003	298.15	801.61	0.71
0.7003	303.15	798.2	0.71
0.7003	313.15	791.4	0.71
0.7003	323.15	784.61	0.71
0.7003	333.15	777.81	0.71
0.7997	288.15	814.5	0.71
0.7997	293.15	811.11	0.71
0.7997	298.15	807.73	0.71
0.7997	303.15	804.35	0.71
0.7997	313.15	797.6	0.71
0.7997	323.15	790.86	0.71
0.7997	333.15	784.13	0.71
0.8994	288.15	820.23	0.71
0.8994	293.15	816.87	0.71
0.8994	298.15	813.51	0.71
0.8994	303.15	810.15	0.71
0.8994	313.15	803.45	0.71
0.8994	323.15	796.76	0.71
0.8994	333.15	790.08	0.71
1	288.15	825.71	0.71
1	293.15	822.36	0.71
1	298.15	819.02	0.71
1	303.15	815.68	0.71
1	313.15	809.03	0.71
1	323.15	802.38	0.71
1	333.15	795.75	0.71

System: dodecylcyclohexane + dodecane; phases: Liquid
Fixed: Pressure, kPa = 102
Fixed: Frequency, MHz = 3
Property: Speed of sound, m/s (Liquid); method: Single path-length method
Mole fraction of dodecylcyclohexane	Temperature, K	Speed of sound, m/s	uncertainty
0	288.15	1317.2	0.8
0	293.15	1297.7	0.8
0	298.15	1278.2	0.8
0	303.15	1259	0.8
0	313.15	1221.1	0.8
0	323.15	1184	0.8
0	333.15	1147.8	0.8
0.1005	288.15	1333.2	0.8
0.1005	293.15	1313.7	0.8
0.1005	298.15	1294.4	0.8
0.1005	303.15	1275.3	0.8
0.1005	313.15	1237.7	0.8
0.1005	323.15	1200.9	0.8
0.1005	333.15	1165.1	0.8
0.2001	288.15	1348	0.8
0.2001	293.15	1328.7	0.8
0.2001	298.15	1309.5	0.8
0.2001	303.15	1290.5	0.8
0.2001	313.15	1253.1	0.8
0.2001	323.15	1216.6	0.8
0.2001	333.15	1181	0.8
0.298	288.15	1361.9	0.8
0.298	293.15	1342.6	0.8
0.298	298.15	1323.5	0.8
0.298	303.15	1304.6	0.8
0.298	313.15	1267.5	0.8
0.298	323.15	1231.1	0.8
0.298	333.15	1195.8	0.8
0.4031	288.15	1375.7	0.9
0.4031	293.15	1356.6	0.9
0.4031	298.15	1337.6	0.9
0.4031	303.15	1318.8	0.9
0.4031	313.15	1281.9	0.9
0.4031	323.15	1245.9	0.9
0.4031	333.15	1210.7	0.9
0.5001	288.15	1387.9	0.9
0.5001	293.15	1368.9	0.9
0.5001	298.15	1350	0.9
0.5001	303.15	1331.3	0.9
0.5001	313.15	1294.6	0.9
0.5001	323.15	1258.7	0.9
0.5001	333.15	1223.8	0.9
0.6005	288.15	1400	0.9
0.6005	293.15	1381	0.9
0.6005	298.15	1362.1	0.9
0.6005	303.15	1343.5	0.9
0.6005	313.15	1307	0.9
0.6005	323.15	1271.3	0.9
0.6005	333.15	1236.5	0.9
0.7003	288.15	1411.3	0.9
0.7003	293.15	1392.4	0.9
0.7003	298.15	1374	0.9
0.7003	303.15	1355.4	0.9
0.7003	313.15	1319.2	0.9
0.7003	323.15	1283.6	0.9
0.7003	333.15	1248.9	0.9
0.7997	288.15	1421.8	0.9
0.7997	293.15	1403.1	0.9
0.7997	298.15	1384.7	0.9
0.7997	303.15	1366.3	0.9
0.7997	313.15	1330.2	0.9
0.7997	323.15	1294.8	0.9
0.7997	333.15	1260.3	0.9
0.8994	288.15	1432.1	0.9
0.8994	293.15	1413.3	0.9
0.8994	298.15	1395.1	0.9
0.8994	303.15	1376.6	0.9
0.8994	313.15	1340.7	0.9
0.8994	323.15	1305.4	0.9
0.8994	333.15	1271	0.9
1	288.15	1441.5	0.9
1	293.15	1422.9	0.9
1	298.15	1404.8	0.9
1	303.15	1386.3	0.9
1	313.15	1350.5	0.9
1	323.15	1315.4	0.9
1	333.15	1281.4	0.9

System: dodecylcyclohexane + dodecane; phases: Liquid
Fixed: Pressure, kPa = 102
Property: Viscosity, Pa*s (Liquid); method: Concentric cylinders viscometry
Mole fraction of dodecylcyclohexane	Temperature, K	Viscosity, Pa*s	uncertainty
0	293.15	0.00149	2e-05
0.1005	293.15	0.00182	6e-05
0.2001	293.15	0.00214	2e-05
0.298	293.15	0.00253	2e-05
0.4031	293.15	0.00303	3e-05
0.5001	293.15	0.00355	3e-05
0.6005	293.15	0.00417	4e-05
0.7003	293.15	0.0049	3e-05
0.7997	293.15	0.00573	3e-05
0.8994	293.15	0.00668	4e-05
1	293.15	0.00776	4e-05
0	303.15	0.00127	2e-05
0.1005	303.15	0.00153	6e-05
0.2001	303.15	0.00175	2e-05
0.298	303.15	0.00205	2e-05
0.4031	303.15	0.00243	2e-05
0.5001	303.15	0.00282	2e-05
0.6005	303.15	0.00328	3e-05
0.7003	303.15	0.00379	3e-05
0.7997	303.15	0.00438	3e-05
0.8994	303.15	0.00505	3e-05
1	303.15	0.00581	3e-05
0	313.15	0.00108	2e-05
0.1005	313.15	0.00129	7e-05
0.2001	313.15	0.00146	2e-05
0.298	313.15	0.0017	2e-05
0.4031	313.15	0.00199	2e-05
0.5001	313.15	0.00228	2e-05
0.6005	313.15	0.00263	2e-05
0.7003	313.15	0.00301	3e-05
0.7997	313.15	0.00345	3e-05
0.8994	313.15	0.00393	3e-05
1	313.15	0.00448	3e-05
0	323.15	0.000934	2.1e-05
0.1005	323.15	0.00109	2e-05
0.2001	323.15	0.00127	2e-05
0.298	323.15	0.00143	2e-05
0.4031	323.15	0.00166	2e-05
0.5001	323.15	0.00189	2e-05
0.6005	323.15	0.00216	2e-05
0.7003	323.15	0.00245	2e-05
0.7997	323.15	0.00278	2e-05
0.8994	323.15	0.00314	3e-05
1	323.15	0.00355	3e-05
0	333.15	0.000813	2.1e-05
0.1005	333.15	0.000945	2.1e-05
0.2001	333.15	0.00109	2e-05
0.298	333.15	0.00122	2e-05
0.4031	333.15	0.0014	2e-05
0.5001	333.15	0.00159	2e-05
0.6005	333.15	0.0018	2e-05
0.7003	333.15	0.00203	2e-05
0.7997	333.15	0.00229	2e-05
0.8994	333.15	0.00257	2e-05
1	333.15	0.00288	3e-05
