Measured thermophysical data. Liquid-Liquid Extraction of Cyclopentanone from Aqueous Solution with Methylcyclohexane or Propyl Acetate at Different Temperatures
Source: J. Chem. Eng. Data, 2018, 10.1021/acs.jced.7b01109
Compound 1: cyclopentanone, C5H8O, InChI=1S/C5H8O/c6-5-3-1-2-4-5/h1-4H2, purity 99.72%
Compound 2: methylcyclohexane, C7H14, InChI=1S/C7H14/c1-7-5-3-2-4-6-7/h7H,2-6H2,1H3, purity 99.83%
Compound 3: propyl ethanoate, C5H10O2, InChI=1S/C5H10O2/c1-3-4-7-5(2)6/h3-4H2,1-2H3, purity 99.76%
Compound 4: water, H2O, InChI=1S/H2O/h1H2, purity 99.8%

System: water + cyclopentanone + methylcyclohexane; phases: Liquid mixture 2, Liquid mixture 1
Fixed: Pressure, kPa = 101.3
Property: Mole fraction of water (Liquid mixture 2); method: Chromatography
Property: Mole fraction of cyclopentanone (Liquid mixture 1); method: Chromatography
Property: Mole fraction of water (Liquid mixture 1); method: Chromatography
Temperature, K	Mole fraction of cyclopentanone	Mole fraction of water	uncertainty	Mole fraction of cyclopentanone	uncertainty	Mole fraction of water	uncertainty
308.2	0.0329	0.0028	0.0022	0.0046	0.0026	0.9953	
318.2	0.0697	0.004	0.0022	0.0076	0.0026	0.9923	
318.2	0.1153	0.0048	0.0022	0.0112	0.0026	0.9887	
318.2	0.1635	0.0058	0.0022	0.0147	0.0026	0.9851	
318.2	0.2137	0.0075	0.0022	0.0177	0.0026	0.9821	
318.2	0.2666	0.009	0.0022	0.0199	0.0026	0.9799	
318.2	0.3289	0.0138	0.0023	0.0229	0.0026	0.9769	
318.2	0.3865	0.0215	0.0022	0.025	0.0026	0.9748	
328.2	0.0359	0.0036	0.0022	0.0039	0.0026	0.996	
328.2	0.0758	0.0045	0.0022	0.0074	0.0026	0.9925	
328.2	0.1203	0.0058	0.0022	0.0106	0.0026	0.9893	
308.2	0.0692	0.0033	0.0022	0.0086	0.0026	0.9913	
328.2	0.1732	0.0064	0.0022	0.0139	0.0026	0.986	
328.2	0.2295	0.0078	0.0022	0.0168	0.0026	0.983	
328.2	0.2913	0.0104	0.0022	0.0194	0.0026	0.9804	
328.2	0.3623	0.0133	0.0022	0.022	0.0026	0.9778	
328.2	0.4259	0.0212	0.0023	0.0243	0.0026	0.9755	
308.2	0.1122	0.004	0.0022	0.0125	0.0026	0.9873	
308.2	0.1584	0.0049	0.0022	0.0163	0.0026	0.9836	
308.2	0.2086	0.0056	0.0022	0.0193	0.0026	0.9805	
308.2	0.2617	0.0072	0.0022	0.0223	0.0026	0.9775	
308.2	0.3241	0.0088	0.0022	0.0251	0.0026	0.9747	
308.2	0.3894	0.0141	0.0023	0.0276	0.0026	0.9723	
318.2	0.0326	0.0032	0.0022	0.0039	0.0026	0.996	

System: water + cyclopentanone + propyl ethanoate; phases: Liquid mixture 2, Liquid mixture 1
Fixed: Pressure, kPa = 101.3
Property: Mole fraction of water (Liquid mixture 2); method: Chromatography
Property: Mole fraction of cyclopentanone (Liquid mixture 1); method: Chromatography
Property: Mole fraction of water (Liquid mixture 1); method: Chromatography
Temperature, K	Mole fraction of cyclopentanone	Mole fraction of water	uncertainty	Mole fraction of cyclopentanone	uncertainty	Mole fraction of water	uncertainty
308.2	0.086	0.1079	0.0089	0.0038	0.0038	0.9868	
308.2	0.1284	0.1186	0.009	0.0058	0.0042	0.9848	
308.2	0.1712	0.1335	0.0089	0.008	0.0042	0.9828	
308.2	0.2136	0.1424	0.0089	0.0103	0.0042	0.9809	
308.2	0.2567	0.1471	0.0089	0.0127	0.0042	0.9788	
308.2	0.294	0.1668	0.0091	0.0153	0.0042	0.9761	
308.2	0.3295	0.1861	0.009	0.0178	0.0042	0.9739	
308.2	0.3683	0.1973	0.009	0.0204	0.0042	0.9722	
318.2	0.085	0.1579	0.009	0.0033	0.0033	0.9905	
318.2	0.1262	0.1735	0.0089	0.005	0.0042	0.9892	
318.2	0.1697	0.175	0.0089	0.0069	0.0042	0.9875	
318.2	0.211	0.1815	0.0089	0.0088	0.0042	0.9858	
318.2	0.2515	0.1912	0.009	0.0109	0.0042	0.9837	
318.2	0.2864	0.2147	0.009	0.0129	0.0042	0.9819	
318.2	0.3271	0.2196	0.009	0.0171	0.0042	0.977	
318.2	0.3999	0.2409	0.0091	0.0206	0.0042	0.9745	
328.2	0.0814	0.1951	0.0089	0.0031	0.0031	0.9909	
328.2	0.1236	0.1967	0.0089	0.0048	0.0042	0.9892	
328.2	0.1667	0.2034	0.009	0.0067	0.0042	0.9874	
328.2	0.2048	0.2123	0.009	0.0085	0.0042	0.9855	
328.2	0.2416	0.2323	0.0091	0.0106	0.0042	0.9834	
328.2	0.2755	0.2487	0.0091	0.0126	0.0042	0.9818	
328.2	0.351	0.2701	0.0092	0.0172	0.0042	0.9776	
328.2	0.3702	0.3065	0.011	0.0197	0.0042	0.9754	
