Measured thermophysical data. Isobaric Vapor Liquid Equilibrium for Binary Systems of 2,2,3,3-Tetrafluoro-1-propanol + 2,2,3,3,4,4,5,5-Octafluoro-1-pentanol at 53.3, 66.7, 80.0 kPa
Source: J. Chem. Eng. Data, 2016, 10.1021/acs.jced.6b00429
Compound 1: 2,2,3,3-tetrafluoro-1-propanol, C3H4F4O, InChI=1S/C3H4F4O/c4-2(5)3(6,7)1-8/h2,8H,1H2, purity 99.9%
Compound 2: 2,2,3,3,4,4,5,5-octafluoro-1-pentanol, C5H4F8O, InChI=1S/C5H4F8O/c6-2(7)4(10,11)5(12,13)3(8,9)1-14/h2,14H,1H2, purity 99.6%

System: 2,2,3,3-tetrafluoro-1-propanol; phases: Liquid, Gas
Property: Vapor or sublimation pressure, kPa (Liquid); method: Ebulliometric method (Recirculating still)
Temperature, K	Vapor or sublimation pressure, kPa	uncertainty
365.01	53.3	0.5
370.79	66.7	0.5
375.66	80	0.6

System: 2,2,3,3,4,4,5,5-octafluoro-1-pentanol; phases: Liquid, Gas
Property: Vapor or sublimation pressure, kPa (Liquid); method: Ebulliometric method (Recirculating still)
Temperature, K	Vapor or sublimation pressure, kPa	uncertainty
394.71	53.3	0.5
400.93	66.7	0.5
406.16	80	0.6

System: 2,2,3,3-tetrafluoro-1-propanol + 2,2,3,3,4,4,5,5-octafluoro-1-pentanol; phases: Liquid, Gas
Property: Boiling temperature at pressure P, K (Liquid); method: Ebulliometric method (Recirculating still)
Mole fraction of 2,2,3,3-tetrafluoro-1-propanol	Pressure, kPa	Boiling temperature at pressure P, K	uncertainty
0	53.3	394.71	0.26
0.041	53.3	392	0.56
0.099	53.3	389.82	0.48
0.179	53.3	386.62	0.48
0.248	53.3	383.74	0.47
0.296	53.3	381.98	0.42
0.352	53.3	380.32	0.4
0.425	53.3	378.01	0.38
0.521	53.3	375.5	0.38
0.575	53.3	373.93	0.36
0.675	53.3	371.53	0.34
0.755	53.3	369.86	0.33
0.824	53.3	368.31	0.32
0.911	53.3	366.84	0.31
0.977	53.3	365.46	0.33
1	53.3	365.01	0.25
0	66.7	400.93	0.26
0.04	66.7	399.46	0.56
0.059	66.7	398.15	0.42
0.089	66.7	397	0.42
0.14	66.7	395.15	0.58
0.171	66.7	393.04	0.56
0.235	66.7	390.3	0.46
0.287	66.7	388.98	0.41
0.351	66.7	386.41	0.43
0.425	66.7	384.06	0.38
0.51	66.7	381.9	0.37
0.58	66.7	379.9	0.39
0.625	66.7	378.65	0.33
0.685	66.7	377.45	0.33
0.725	66.7	376.31	0.35
0.799	66.7	374.68	0.34
0.87	66.7	373.15	0.33
0.938	66.7	371.8	0.3
0.98	66.7	371.25	0.3
1	66.7	370.79	0.25
0	80	406.16	0.26
0.036	80	404.51	0.52
0.18	80	398.02	0.52
0.25	80	395.08	0.47
0.325	80	392.39	0.42
0.408	80	389.94	0.41
0.45	80	388.41	0.42
0.499	80	386.96	0.38
0.575	80	384.92	0.36
0.575	80	384.92	0.36
0.65	80	383.03	0.36
0.724	80	381.27	0.33
0.81	80	379.61	0.33
0.875	80	378.06	0.35
0.919	80	377.07	0.32
0.976	80	376.12	0.31
1	80	375.66	0.25

System: 2,2,3,3-tetrafluoro-1-propanol + 2,2,3,3,4,4,5,5-octafluoro-1-pentanol; phases: Gas, Liquid
Property: Mole fraction of 2,2,3,3-tetrafluoro-1-propanol (Gas); method: Chromatography
Mole fraction of 2,2,3,3-tetrafluoro-1-propanol	Pressure, kPa	Mole fraction of 2,2,3,3-tetrafluoro-1-propanol	uncertainty
0	53.3	0	
0.041	53.3	0.122	0.024
0.099	53.3	0.221	0.021
0.179	53.3	0.367	0.02
0.248	53.3	0.477	0.019
0.296	53.3	0.543	0.017
0.352	53.3	0.608	0.015
0.425	53.3	0.685	0.013
0.521	53.3	0.753	0.013
0.575	53.3	0.806	0.012
0.675	53.3	0.867	0.012
0.755	53.3	0.908	0.011
0.824	53.3	0.94	0.011
0.911	53.3	0.972	0.011
0.977	53.3	0.993	0.007
1	53.3	1	
0	66.7	0	
0.04	66.7	0.095	0.026
0.059	66.7	0.139	0.029
0.089	66.7	0.234	0.023
0.14	66.7	0.299	0.018
0.171	66.7	0.359	0.021
0.235	66.7	0.475	0.018
0.287	66.7	0.525	0.015
0.351	66.7	0.599	0.015
0.425	66.7	0.674	0.014
0.51	66.7	0.749	0.013
0.58	66.7	0.803	0.013
0.625	66.7	0.832	0.012
0.685	66.7	0.866	0.012
0.725	66.7	0.891	0.011
0.799	66.7	0.927	0.011
0.87	66.7	0.956	0.011
0.938	66.7	0.976	0.011
0.98	66.7	0.994	0.006
1	66.7	1	
0	80	0	
0.036	80	0.067	0.023
0.18	80	0.365	0.022
0.25	80	0.471	0.018
0.325	80	0.566	0.016
0.408	80	0.651	0.015
0.45	80	0.693	0.014
0.499	80	0.736	0.013
0.575	80	0.796	0.013
0.575	80	0.796	0.013
0.65	80	0.846	0.012
0.724	80	0.89	0.011
0.81	80	0.931	0.011
0.875	80	0.959	0.011
0.919	80	0.975	0.011
0.976	80	0.993	0.007
1	80	1	
