Measured thermophysical data. Comparison of Extractability of Oxalic Acid from Dilute Aqueous Solutions Using Dioctylamine and Trioctylphosphine Oxide
Source: J. Chem. Eng. Data, 2019, 10.1021/acs.jced.8b01155
Compound 1: butan-1-ol, C4H10O, InChI=1S/C4H10O/c1-2-3-4-5/h5H,2-4H2,1H3, purity 99.5%
Compound 2: decan-1-ol, C10H22O, InChI=1S/C10H22O/c1-2-3-4-5-6-7-8-9-10-11/h11H,2-10H2,1H3, purity 99%
Compound 3: 4-methylpentan-2-one, C6H12O, InChI=1S/C6H12O/c1-5(2)4-6(3)7/h5H,4H2,1-3H3, purity 99%
Compound 4: 2,6-dimethyl-4-heptanone, C9H18O, InChI=1S/C9H18O/c1-7(2)5-9(10)6-8(3)4/h7-8H,5-6H2,1-4H3, purity 96%
Compound 5: diethyl decanedioate, C14H26O4, InChI=1S/C14H26O4/c1-3-17-13(15)11-9-7-5-6-8-10-12-14(16)18-4-2/h3-12H2,1-2H3, purity 98%
Compound 6: octane, C8H18, InChI=1S/C8H18/c1-3-5-7-8-6-4-2/h3-8H2,1-2H3, purity 99%
Compound 7: ethanedioic acid, C2H2O4, InChI=1S/C2H2O4/c3-1(4)2(5)6/h(H,3,4)(H,5,6), purity 98%
Compound 8: water, H2O, InChI=1S/H2O/h1H2, purity 99.8%

System: ethanedioic acid + butan-1-ol + water; phases: Liquid mixture 1, Liquid mixture 2
Property: Molality, mol/kg of ethanedioic acid (Liquid mixture 1); method: titration
Molality, mol/kg of ethanedioic acid	Temperature, K	Pressure, kPa	Molality, mol/kg of ethanedioic acid	uncertainty
0.538	298.15	100	0.428	0.022

System: ethanedioic acid + decan-1-ol + water; phases: Liquid mixture 1, Liquid mixture 2
Property: Molality, mol/kg of ethanedioic acid (Liquid mixture 1); method: titration
Molality, mol/kg of ethanedioic acid	Temperature, K	Pressure, kPa	Molality, mol/kg of ethanedioic acid	uncertainty
0.883	298.15	100	0.083	0.02

System: ethanedioic acid + diethyl decanedioate + water; phases: Liquid mixture 1, Liquid mixture 2
Property: Molality, mol/kg of ethanedioic acid (Liquid mixture 1); method: titration
Molality, mol/kg of ethanedioic acid	Temperature, K	Pressure, kPa	Molality, mol/kg of ethanedioic acid	uncertainty
0.941	298.15	100	0.025	0.02

System: ethanedioic acid + 4-methylpentan-2-one + water; phases: Liquid mixture 1, Liquid mixture 2
Property: Molality, mol/kg of ethanedioic acid (Liquid mixture 1); method: titration
Molality, mol/kg of ethanedioic acid	Temperature, K	Pressure, kPa	Molality, mol/kg of ethanedioic acid	uncertainty
0.878	298.15	100	0.088	0.02

System: ethanedioic acid + octane + water; phases: Liquid mixture 1, Liquid mixture 2
Property: Molality, mol/kg of ethanedioic acid (Liquid mixture 1); method: titration
Molality, mol/kg of ethanedioic acid	Temperature, K	Pressure, kPa	Molality, mol/kg of ethanedioic acid	uncertainty
0.943	298.15	100	0.023	0.02

System: ethanedioic acid + 2,6-dimethyl-4-heptanone + water; phases: Liquid mixture 1, Liquid mixture 2
Property: Molality, mol/kg of ethanedioic acid (Liquid mixture 1); method: titration
Molality, mol/kg of ethanedioic acid	Temperature, K	Pressure, kPa	Molality, mol/kg of ethanedioic acid	uncertainty
0.952	298.15	100	0.014	0.014
