Measured thermophysical data. Effect of Ionic Liquid Additives on the Solubility Behavior and Morphology of Calcium Sulfate Dihydrate (Gypsum) in the Aqueous Sodium Chloride System and Physicochemical Solution Properties at 30 deg.C
Source: J. Chem. Eng. Data, 2018, 10.1021/acs.jced.8b00093
Compound 1: calcium sulfate, CaO4S, InChI=1S/Ca.H2O4S/c;1-5(2,3)4/h;(H2,1,2,3,4)/q+2;/p-2, purity 98%
Compound 2: water, H2O, InChI=1S/H2O/h1H2, purity 99.9%
Compound 3: 1-ethyl-3-methylimidazolium hydrogen sulfate, C6H12N2O4S, InChI=1S/C6H11N2.H2O4S/c1-3-8-5-4-7(2)6-8;1-5(2,3)4/h4-6H,3H2,1-2H3;(H2,1,2,3,4)/q+1;/p-1, purity 95%
Compound 4: 1-butyl-3-methylimidazolium hydrogen sulfate, C8H16N2O4S, InChI=1S/C8H15N2.H2O4S/c1-3-4-5-10-7-6-9(2)8-10;1-5(2,3)4/h6-8H,3-5H2,1-2H3;(H2,1,2,3,4)/q+1;/p-1, purity 95%
Compound 5: ethylammonium lactate, C5H13NO3, InChI=1S/C3H6O3.C2H7N/c1-2(4)3(5)6;1-2-3/h2,4H,1H3,(H,5,6);2-3H2,1H3, purity 95%

System: water + calcium sulfate + ethylammonium lactate; phases: Liquid, Crystal of intercomponent compound 1
Fixed: Temperature, K = 303.15
Fixed: Pressure, kPa = 100
Property: Molality, mol/kg of calcium sulfate (Liquid); method: titration and chemical analysis
Mass ratio of solute to solvent of ethylammonium lactate	Molality, mol/kg of calcium sulfate	uncertainty
0.0526	0.055	0.0117
0.0811	0.0759	0.016
0.1111	0.0914	0.0192

System: water + calcium sulfate + ethylammonium lactate; phases: Liquid
Fixed: Temperature, K = 303.15
Fixed: Pressure, kPa = 100
Property: Mass density, kg/m3 (Liquid); method: Vibrating tube method
Mass ratio of solute to solvent of ethylammonium lactate	Molality, mol/kg of calcium sulfate	Mass density, kg/m3	uncertainty
0.0526	0.055	1005	2.3
0.0811	0.0759	1015.4	3.6
0.1111	0.0914	1026.7	4.8

System: water + calcium sulfate + ethylammonium lactate; phases: Liquid
Fixed: Temperature, K = 303.15
Fixed: Pressure, kPa = 100
Fixed: Frequency, MHz = 3
Property: Speed of sound, m/s (Liquid); method: Single path-length method
Mass ratio of solute to solvent of ethylammonium lactate	Molality, mol/kg of calcium sulfate	Speed of sound, m/s	uncertainty
0.0526	0.055	1535.7	5.9
0.0811	0.0759	1564.6	8.3
0.1111	0.0914	1594.6	11.1

System: water + calcium sulfate + 1-ethyl-3-methylimidazolium hydrogen sulfate; phases: Liquid, Crystal of intercomponent compound 1
Fixed: Temperature, K = 303.15
Fixed: Pressure, kPa = 100
Property: Molality, mol/kg of calcium sulfate (Liquid); method: titration and chemical analysis
Mass ratio of solute to solvent of 1-ethyl-3-methylimidazolium hydrogen sulfate	Molality, mol/kg of calcium sulfate	uncertainty
0.0526	0.0116	0.0023
0.1111	0.0089	0.0018
0.1765	0.0069	0.0015

System: water + calcium sulfate + 1-ethyl-3-methylimidazolium hydrogen sulfate; phases: Liquid
Fixed: Temperature, K = 303.15
Fixed: Pressure, kPa = 100
Property: Mass density, kg/m3 (Liquid); method: Vibrating tube method
Mass ratio of solute to solvent of 1-ethyl-3-methylimidazolium hydrogen sulfate	Molality, mol/kg of calcium sulfate	Mass density, kg/m3	uncertainty
0.0526	0.0116	1011.5	1.8
0.1111	0.0089	1026.7	5.7
0.1765	0.0069	1040.6	4.9

System: water + calcium sulfate + 1-ethyl-3-methylimidazolium hydrogen sulfate; phases: Liquid
Fixed: Temperature, K = 303.15
Fixed: Pressure, kPa = 100
Fixed: Frequency, MHz = 3
Property: Speed of sound, m/s (Liquid); method: Single path-length method
Mass ratio of solute to solvent of 1-ethyl-3-methylimidazolium hydrogen sulfate	Molality, mol/kg of calcium sulfate	Speed of sound, m/s	uncertainty
0.0526	0.0116	1526.7	2.9
0.1111	0.0089	1545.1	4.4
0.1765	0.0069	1564.4	5.4

System: water + calcium sulfate + 1-butyl-3-methylimidazolium hydrogen sulfate; phases: Liquid, Crystal of intercomponent compound 1
Fixed: Temperature, K = 303.15
Fixed: Pressure, kPa = 100
Property: Molality, mol/kg of calcium sulfate (Liquid); method: titration and chemical analysis
Mass ratio of solute to solvent of 1-butyl-3-methylimidazolium hydrogen sulfate	Molality, mol/kg of calcium sulfate	uncertainty
0.0526	0.0116	0.0023
0.1111	0.0096	0.002
0.1765	0.0062	0.0015

System: water + calcium sulfate + 1-butyl-3-methylimidazolium hydrogen sulfate; phases: Liquid
Fixed: Temperature, K = 303.15
Fixed: Pressure, kPa = 100
Property: Mass density, kg/m3 (Liquid); method: Vibrating tube method
Mass ratio of solute to solvent of 1-butyl-3-methylimidazolium hydrogen sulfate	Molality, mol/kg of calcium sulfate	Mass density, kg/m3	uncertainty
0.0526	0.0116	1009	1.6
0.1111	0.0096	1020.5	2.5
0.1765	0.0062	1033.4	3.7

System: water + calcium sulfate + 1-butyl-3-methylimidazolium hydrogen sulfate; phases: Liquid
Fixed: Temperature, K = 303.15
Fixed: Pressure, kPa = 100
Fixed: Frequency, MHz = 3
Property: Speed of sound, m/s (Liquid); method: Single path-length method
Mass ratio of solute to solvent of 1-butyl-3-methylimidazolium hydrogen sulfate	Molality, mol/kg of calcium sulfate	Speed of sound, m/s	uncertainty
0.0526	0.0116	1535.1	3
0.1111	0.0096	1555.2	4.5
0.1765	0.0062	1574.3	6.1
