Measured thermophysical data. Solubility and Chemical Thermodynamics of d,l-Alanine and d,l-Serine in Aqueous NaCl and KCl Solutions
Source: J. Chem. Eng. Data, 2016, 10.1021/acs.jced.5b00351
Compound 1: DL-2-aminopropanoic acid, C3H7NO2, InChI=1S/C3H7NO2/c1-2(4)3(5)6/h2H,4H2,1H3,(H,5,6), purity 99.8%
Compound 2: sodium chloride, ClNa, InChI=1S/ClH.Na/h1H;/q;+1/p-1, purity 99.9%
Compound 3: water, H2O, InChI=1S/H2O/h1H2, purity 99.8%
Compound 4: (.+-.)-serine, C3H7NO3, InChI=1S/C3H7NO3/c4-2(1-5)3(6)7/h2,5H,1,4H2,(H,6,7), purity 99.8%
Compound 5: potassium chloride, ClK, InChI=1S/ClH.K/h1H;/q;+1/p-1, purity 99.9%

System: DL-2-aminopropanoic acid + sodium chloride + water; phases: Liquid, Crystal
Fixed: Pressure, kPa = 100
Property: Molality, mol/kg of DL-2-aminopropanoic acid (Liquid); method: Titration
Solvent: Molality, mol/kg of sodium chloride	Temperature, K	Molality, mol/kg of DL-2-aminopropanoic acid	uncertainty
0	288.15	1.828	0.048
0	293.15	1.85	0.048
0	298.15	1.889	0.049
0	303.15	1.93	0.05
0	308.15	1.958	0.051
0.5	288.15	1.816	0.047
0.5	293.15	1.846	0.048
0.5	298.15	1.874	0.049
0.5	303.15	1.907	0.05
0.5	308.15	1.936	0.051
1	288.15	1.806	0.047
1	293.15	1.832	0.048
1	298.15	1.859	0.049
1	303.15	1.894	0.049
1	308.15	1.918	0.05
1.5	288.15	1.79	0.047
1.5	293.15	1.824	0.048
1.5	298.15	1.844	0.048
1.5	303.15	1.88	0.049
1.5	308.15	1.902	0.05
2	288.15	1.782	0.047
2	293.15	1.811	0.047
2	298.15	1.83	0.048
2	303.15	1.866	0.049
2	308.15	1.883	0.049
2.5	288.15	1.769	0.046
2.5	293.15	1.8	0.047
2.5	298.15	1.821	0.048
2.5	303.15	1.836	0.048
2.5	308.15	1.864	0.049
3	288.15	1.756	0.046
3	293.15	1.788	0.047
3	298.15	1.806	0.047
3	303.15	1.82	0.047
3	308.15	1.847	0.048
3.5	288.15	1.74	0.045
3.5	293.15	1.774	0.046
3.5	298.15	1.794	0.047
3.5	303.15	1.81	0.047
3.5	308.15	1.829	0.048

System: (.+-.)-serine + sodium chloride + water; phases: Liquid, Crystal
Fixed: Pressure, kPa = 100
Property: Molality, mol/kg of (.+-.)-serine (Liquid); method: Titration
Solvent: Molality, mol/kg of sodium chloride	Temperature, K	Molality, mol/kg of (.+-.)-serine	uncertainty
0	288.15	0.46	0.012
0	293.15	0.496	0.013
0	298.15	0.529	0.014
0	303.15	0.559	0.015
0	308.15	0.586	0.015
0.5	288.15	0.504	0.013
0.5	293.15	0.518	0.014
0.5	298.15	0.544	0.014
0.5	303.15	0.57	0.015
0.5	308.15	0.6	0.016
1	288.15	0.537	0.014
1	293.15	0.554	0.015
1	298.15	0.57	0.015
1	303.15	0.588	0.015
1	308.15	0.618	0.016
1.5	288.15	0.58	0.015
1.5	293.15	0.592	0.016
1.5	298.15	0.608	0.016
1.5	303.15	0.616	0.016
1.5	308.15	0.63	0.016
2	288.15	0.61	0.016
2	293.15	0.62	0.016
2	298.15	0.628	0.016
2	303.15	0.638	0.017
2	308.15	0.644	0.017
2.5	288.15	0.622	0.016
2.5	293.15	0.636	0.017
2.5	298.15	0.651	0.017
2.5	303.15	0.666	0.017
2.5	308.15	0.683	0.018
3	288.15	0.647	0.017
3	293.15	0.654	0.017
3	298.15	0.672	0.018
3	303.15	0.68	0.018
3	308.15	0.694	0.018
3.5	288.15	0.669	0.017
3.5	293.15	0.678	0.018
3.5	298.15	0.692	0.018
3.5	303.15	0.699	0.018
3.5	308.15	0.712	0.019

System: DL-2-aminopropanoic acid + potassium chloride + water; phases: Liquid, Crystal
Fixed: Pressure, kPa = 100
Property: Molality, mol/kg of DL-2-aminopropanoic acid (Liquid); method: Titration
Solvent: Molality, mol/kg of potassium chloride	Temperature, K	Molality, mol/kg of DL-2-aminopropanoic acid	uncertainty
0	288.15	1.828	0.048
0	293.15	1.85	0.048
0	298.15	1.889	0.049
0	303.15	1.93	0.05
0	308.15	1.958	0.051
0.5	288.15	1.836	0.048
0.5	293.15	1.858	0.048
0.5	298.15	1.902	0.05
0.5	303.15	1.934	0.05
0.5	308.15	1.969	0.051
1	288.15	1.842	0.048
1	293.15	1.86	0.049
1	298.15	1.896	0.049
1	303.15	1.938	0.051
1	308.15	1.975	0.052
1.5	288.15	1.83	0.048
1.5	293.15	1.844	0.048
1.5	298.15	1.885	0.049
1.5	303.15	1.902	0.05
1.5	308.15	1.954	0.051
2	288.15	1.78	0.046
2	293.15	1.792	0.047
2	298.15	1.856	0.048
2	303.15	1.873	0.049
2	308.15	1.898	0.05
2.5	288.15	1.758	0.046
2.5	293.15	1.769	0.046
2.5	298.15	1.836	0.048
2.5	303.15	1.859	0.049
2.5	308.15	1.876	0.049
3	288.15	1.739	0.045
3	293.15	1.748	0.046
3	298.15	1.794	0.047
3	303.15	1.822	0.048
3	308.15	1.852	0.048
3.5	288.15	1.716	0.045
3.5	293.15	1.728	0.045
3.5	298.15	1.768	0.046
3.5	303.15	1.788	0.047
3.5	308.15	1.802	0.047

System: (.+-.)-serine + potassium chloride + water; phases: Liquid, Crystal
Fixed: Pressure, kPa = 100
Property: Molality, mol/kg of (.+-.)-serine (Liquid); method: Titration
Solvent: Molality, mol/kg of potassium chloride	Temperature, K	Molality, mol/kg of (.+-.)-serine	uncertainty
0	288.15	0.46	0.013
0	293.15	0.496	0.014
0	298.15	0.529	0.014
0	303.15	0.559	0.015
0	308.15	0.586	0.016
0.5	288.15	0.583	0.016
0.5	293.15	0.592	0.016
0.5	298.15	0.609	0.016
0.5	303.15	0.65	0.017
0.5	308.15	0.67	0.018
1	288.15	0.658	0.017
1	293.15	0.704	0.019
1	298.15	0.726	0.019
1	303.15	0.754	0.02
1	308.15	0.828	0.022
1.5	288.15	0.706	0.019
1.5	293.15	0.768	0.02
1.5	298.15	0.829	0.022
1.5	303.15	0.866	0.023
1.5	308.15	0.902	0.024
2	288.15	0.742	0.02
2	293.15	0.84	0.022
2	298.15	0.925	0.024
2	303.15	0.945	0.025
2	308.15	1.004	0.027
2.5	288.15	0.824	0.022
2.5	293.15	0.888	0.023
2.5	298.15	0.978	0.026
2.5	303.15	1.044	0.028
2.5	308.15	1.122	0.03
3	288.15	0.868	0.023
3	293.15	0.96	0.026
3	298.15	1.056	0.028
3	303.15	1.17	0.031
3	308.15	1.234	0.033
3.5	288.15	0.93	0.025
3.5	293.15	1.07	0.028
3.5	298.15	1.138	0.03
3.5	303.15	1.26	0.033
3.5	308.15	1.364	0.036

System: DL-2-aminopropanoic acid + water; phases: Liquid, Crystal
Fixed: Pressure, kPa = 101
Property: Molality, mol/kg of DL-2-aminopropanoic acid (Liquid); method: Titration
Temperature, K	Molality, mol/kg of DL-2-aminopropanoic acid	uncertainty
288.15	1.828	0.048
293.15	1.85	0.048
298.15	1.889	0.049
303.15	1.93	0.05
308.15	1.958	0.051

System: (.+-.)-serine + water; phases: Liquid, Crystal
Fixed: Pressure, kPa = 101
Property: Molality, mol/kg of (.+-.)-serine (Liquid); method: Titration
Temperature, K	Molality, mol/kg of (.+-.)-serine	uncertainty
288.15	0.46	0.012
293.15	0.496	0.013
298.15	0.529	0.014
303.15	0.559	0.015
308.15	0.586	0.015
