Measured thermophysical data. Liquid-Liquid Equilibrium of Water + 2-Methoxyphenol + Methyl Isobutyl Ketone and Water + 1,2-Benzenediol + Methyl Isobutyl Ketone at 303.15 K and 328.15 K
Source: J. Chem. Eng. Data, 2018, 10.1021/acs.jced.7b00887
Compound 1: 2-methoxyphenol, C7H8O2, InChI=1S/C7H8O2/c1-9-7-5-3-2-4-6(7)8/h2-5,8H,1H3
Compound 2: 1,2-benzenediol, C6H6O2, InChI=1S/C6H6O2/c7-5-3-1-2-4-6(5)8/h1-4,7-8H
Compound 3: 4-methylpentan-2-one, C6H12O, InChI=1S/C6H12O/c1-5(2)4-6(3)7/h5H,4H2,1-3H3
Compound 4: water, H2O, InChI=1S/H2O/h1H2, purity 99.9%

System: water + 2-methoxyphenol + 4-methylpentan-2-one; phases: Liquid mixture 2, Liquid mixture 1
Fixed: Pressure, kPa = 101
Property: Mass fraction of water (Liquid mixture 2); method: OTHER
Property: Mass fraction of water (Liquid mixture 1); method: OTHER
Property: Mass fraction of 2-methoxyphenol (Liquid mixture 1); method: OTHER
Temperature, K	Mass fraction of 2-methoxyphenol	Mass fraction of water	uncertainty	Mass fraction of water	uncertainty	Mass fraction of 2-methoxyphenol	uncertainty
303.15	0.17	0.0233	0.0174	0.982	0.004	0.00276	
303.15	0	0.0192	0.0014	0.9826	0.0012	0	
303.15	0.9522	0.0478	0.0034	0.9732	0.0022	0.0268	
303.15	0.113	0.023	0.0017	0.982	0.002	0.00184	
328.15	0.153	0.0317	0.0066	0.984	0.001	0.00287	
328.15	0.114	0.031	0.0022	0.985	0.001	0.00224	
328.15	0.0847	0.0293	0.0021	0.984	0.001	0.0017	
328.15	0.0366	0.0286	0.0069	0.986	0.002	0.000763	
328.15	0.0186	0.0254	0.0018	0.988	0.001	0.000343	
328.15	0.00985	0.0232	0.0017	0.984	0.001	0.00025	
328.15	0.286	0.0314	0.0022	0.98	0.02	0.00526	
303.15	0.019	0.019	0.0014	0.98	0.002	0.000278	
328.15	0.264	0.0316	0.0023	0.984	0.016	0.00536	
328.15	0.195	0.0332	0.0024	0.985	0.002	0.00429	
328.15	0.157	0.029	0.0067	0.984	0.001	0.00342	
303.15	0.0926	0.0232	0.0017	0.979	0.003	0.00143	
328.15	0.0748	0.0285	0.0021	0.985	0.001	0.00141	
328.15	0.0379	0.0247	0.007	0.985	0.002	0.00072	
328.15	0.0192	0.0242	0.0017	0.986	0.001	0.000397	
328.15	0	0.0251	0.0018	0.9857	0.001	0	
328.15	0.9477	0.0523	0.0037	0.9684	0.003	0.0316	
303.15	0.0901	0.0226	0.0021	0.983	0.002	0.00138	
303.15	0.00955	0.0187	0.0013	0.98	0.002	0.000143	
303.15	0.0946	0.0228	0.002	0.981	0.003	0.00133	
303.15	0.0381	0.0212	0.0031	0.98	0.003	0.00056	
303.15	0.0386	0.0209	0.0028	0.981	0.001	0.000581	
303.15	0.0377	0.0205	0.0017	0.979	0.004	0.00055	
303.15	0.0376	0.0199	0.0014	0.98	0.002	0.000567	
303.15	0.264	0.0289	0.0022	0.983	0.001	0.00571	
303.15	0.215	0.0266	0.002	0.981	0.001	0.00349	
303.15	0.169	0.025	0.0173	0.984	0.003	0.00259	
303.15	0.0746	0.0211	0.0015	0.982	0.002	0.00123	
303.15	0.0391	0.02	0.0014	0.982	0.004	0.000597	
303.15	0.0199	0.0194	0.0014	0.974	0.002	0.000243	

System: water + 1,2-benzenediol + 4-methylpentan-2-one; phases: Liquid mixture 1, Liquid mixture 2
Fixed: Pressure, kPa = 101
Property: Mass fraction of water (Liquid mixture 1); method: OTHER
Property: Mass fraction of water (Liquid mixture 2); method: OTHER
Property: Mass fraction of 1,2-benzenediol (Liquid mixture 2); method: OTHER
Temperature, K	Mass fraction of 1,2-benzenediol	Mass fraction of water	uncertainty	Mass fraction of water	uncertainty	Mass fraction of 1,2-benzenediol	uncertainty
303.15	0.00649	0.977	0.002	0.0352	0.0031	0.0929	
303.15	0.00831	0.977	0.002	0.0377	0.0028	0.112	
303.15	0.00671	0.977	0.002	0.0345	0.0031	0.095	
303.15	0.00412	0.978	0.003	0.0291	0.0023	0.0619	
303.15	0.0024	0.982	0.002	0.0252	0.0018	0.0348	
303.15	0.00201	0.982	0.001	0.0229	0.0016	0.0182	
303.15	0	0.9826	0.0012	0.0192	0.0014	0	
328.15	0.00735	0.98	0.002	0.0319	0.0024	0.073	
328.15	0.00575	0.98	0.002	0.029	0.0022	0.0633	
328.15	0.00492	0.982	0.001	0.0289	0.0021	0.0564	
328.15	0.00404	0.983	0.001	0.0276	0.002	0.0423	
303.15	0.00511	0.978	0.002	0.0321	0.0025	0.073	
328.15	0.00271	0.983	0.014	0.025	0.0018	0.0304	
328.15	0.00131	0.985	0.001	0.0245	0.0027	0.0176	
328.15	0.000924	0.986	0.001	0.0216	0.0015	0.00901	
328.15	0.0145	0.971	0.003	0.0478	0.0036	0.135	
328.15	0.0123	0.974	0.003	0.045	0.0036	0.117	
328.15	0.00976	0.978	0.002	0.0404	0.0034	0.102	
328.15	0.00826	0.977	0.002	0.0362	0.003	0.0868	
328.15	0.00503	0.982	0.001	0.032	0.0024	0.0634	
328.15	0.00269	0.984	0.014	0.0269	0.002	0.0347	
328.15	0.00182	0.985	0.001	0.0229	0.0027	0.0184	
303.15	0.00426	0.979	0.004	0.0285	0.0024	0.0644	
328.15	0	0.9856	0.001	0.0251	0.0018	0	
303.15	0.00301	0.98	0.002	0.0282	0.0021	0.0498	
303.15	0.00226	0.981	0.001	0.0248	0.0018	0.032	
303.15	0.00143	0.982	0.001	0.0228	0.0016	0.0175	
303.15	0.00121	0.982	0.001	0.0213	0.0015	0.00912	
303.15	0.0138	0.972	0.002	0.0422	0.0033	0.155	
303.15	0.0103	0.975	0.002	0.0384	0.0029	0.128	

System: water + 1,2-benzenediol; phases: Liquid, Crystal
Fixed: Pressure, kPa = 101
Property: Mass fraction of 1,2-benzenediol (Liquid); method: Chromatography
Temperature, K	Mass fraction of 1,2-benzenediol	uncertainty
303.15	0.485	0.051
328.15	0.7635	0.0795

System: water + 4-methylpentan-2-one; phases: Liquid mixture 2, Liquid mixture 1
Fixed: Pressure, kPa = 101
Property: Mass fraction of water (Liquid mixture 2); method: OTHER
Temperature, K	Mass fraction of water	uncertainty
303.15	0.0192	0.0014
328.15	0.0251	0.0018

System: water + 4-methylpentan-2-one; phases: Liquid mixture 1, Liquid mixture 2
Fixed: Pressure, kPa = 101
Property: Mass fraction of water (Liquid mixture 1); method: OTHER
Temperature, K	Mass fraction of water	uncertainty
303.15	0.9826	0.0005
328.15	0.9857	0.0004
328.15	0.9856	0.0004

System: water + 2-methoxyphenol; phases: Liquid mixture 2, Liquid mixture 1
Fixed: Pressure, kPa = 101
Property: Mass fraction of water (Liquid mixture 2); method: OTHER
Temperature, K	Mass fraction of water	uncertainty
303.15	0.0478	0.0034
328.15	0.0523	0.0037

System: water + 2-methoxyphenol; phases: Liquid mixture 1, Liquid mixture 2
Fixed: Pressure, kPa = 101
Property: Mass fraction of water (Liquid mixture 1); method: OTHER
Temperature, K	Mass fraction of water	uncertainty
303.15	0.9732	0.0008
328.15	0.9684	0.001
