Measured thermophysical data. Accurate Experimental (p, rho, and T) Data for the Introduction of Hydrogen into the Natural Gas Grid (II): Thermodynamic Characterization of the Methane-Hydrogen Binary System from 240 to 350 K and Pressures up to 20 MPa
Source: J. Chem. Eng. Data, 2018, 10.1021/acs.jced.7b01125
Compound 1: methane, CH4, InChI=1S/CH4/h1H4, purity 99.9995%
Compound 2: hydrogen, H2, InChI=1S/H2/h1H, purity 99.9999%

System: methane + hydrogen; phases: Gas
Property: Mass density, kg/m3 (Gas); method: Buoyancy - hydrostatic balance with magnetic suspension - one sinker
Temperature, K	Pressure, kPa	Mole fraction of methane	Mass density, kg/m3	uncertainty
240.075	19891	0.94991	220.394	0.067
240.075	19013	0.94991	214.425	0.068
240.075	18016	0.94991	207.026	0.069
240.075	17021	0.94991	198.87	0.07
240.075	16020	0.94991	189.762	0.072
240.074	15021	0.94991	179.661	0.075
240.074	14016	0.94991	168.365	0.078
240.074	13016	0.94991	155.953	0.081
240.075	12014	0.94991	142.433	0.083
240.075	11011	0.94991	128.048	0.085
240.076	10007	0.94991	113.159	0.085
240.076	9003	0.94991	98.317	0.082
240.077	8004	0.94991	84.026	0.078
240.077	7002	0.94991	70.478	0.073
240.077	6000	0.94991	57.87	0.068
240.077	5004	0.94991	46.287	0.063
240.077	3999	0.94991	35.505	0.059
240.077	3000	0.94991	25.62	0.055
240.078	1998	0.94991	16.447	0.051
240.077	999	0.94991	7.937	0.049
250.047	18962	0.94991	196.737	0.069
250.048	18020	0.94991	189.342	0.068
250.048	17022	0.94991	180.83	0.069
250.047	16007	0.94991	171.395	0.07
250.048	15015	0.94991	161.379	0.072
250.047	14017	0.94991	150.503	0.073
250.047	13015	0.94991	138.84	0.075
250.048	12009	0.94991	126.528	0.076
250.046	11012	0.94991	113.948	0.075
250.046	10007	0.94991	101.135	0.074
250.045	9006	0.94991	88.515	0.072
250.046	8002	0.94991	76.259	0.069
250.044	7002	0.94991	64.575	0.066
250.044	6001	0.94991	53.515	0.062
250.043	5005	0.94991	43.167	0.058
250.043	4006	0.94991	33.422	0.055
250.043	3002	0.94991	24.252	0.052
250.043	1999	0.94991	15.652	0.049
250.043	999	0.94991	7.587	0.047
260.041	18756	0.94991	179.616	0.069
260.042	18026	0.94991	173.779	0.066
260.04	17019	0.94991	165.22	0.066
260.04	16023	0.94991	156.169	0.067
260.041	15018	0.94991	146.448	0.068
260.04	14016	0.94991	136.214	0.069
260.04	13017	0.94991	125.55	0.069
260.04	12013	0.94991	114.514	0.069
260.04	11011	0.94991	103.316	0.068
260.04	10006	0.94991	92.073	0.067
260.041	9006	0.94991	81.038	0.064
260.04	8003	0.94991	70.258	0.062
260.039	7002	0.94991	59.886	0.06
260.041	5999	0.94991	49.941	0.057
260.04	5000	0.94991	40.497	0.054
260.039	3999	0.94991	31.515	0.052
260.04	2999	0.94991	23.006	0.049
260.04	1999	0.94991	14.926	0.047
260.041	999	0.94991	7.267	0.045
275.015	19909	0.94991	168.44	0.061
275.015	19020	0.94991	161.966	0.061
275.016	18019	0.94991	154.292	0.062
275.015	17010	0.94991	146.15	0.062
275.015	16016	0.94991	137.753	0.062
275.015	15018	0.94991	128.986	0.062
275.014	14006	0.94991	119.787	0.062
275.015	13011	0.94991	110.507	0.062
275.013	12009	0.94991	101.013	0.061
275.013	11005	0.94991	91.455	0.06
275.015	10006	0.94991	81.955	0.059
275.015	9003	0.94991	72.54	0.057
275.014	8003	0.94991	63.333	0.055
275.013	7005	0.94991	54.384	0.054
275.014	6005	0.94991	45.691	0.052
275.013	5002	0.94991	37.281	0.05
275.013	4002	0.94991	29.206	0.048
275.014	2997	0.94991	21.412	0.046
275.012	1999	0.94991	13.98	0.044
275.012	999	0.94991	6.842	0.043
299.96	19426	0.94991	140.03	0.044
299.959	18999	0.94991	137.175	0.058
299.96	18007	0.94991	130.371	0.055
299.959	17007	0.94991	123.312	0.055
299.959	16005	0.94991	116.045	0.054
299.958	15004	0.94991	108.622	0.055
299.958	14006	0.94991	101.077	0.054
299.959	13003	0.94991	93.405	0.053
299.958	12003	0.94991	85.693	0.053
299.957	11001	0.94991	77.955	0.052
299.957	10004	0.94991	70.258	0.051
299.957	9003	0.94991	62.59	0.049
299.957	8001	0.94991	55.012	0.048
299.958	7000	0.94991	47.554	0.048
299.959	6000	0.94991	40.236	0.046
299.957	4999	0.94991	33.078	0.045
299.958	3999	0.94991	26.096	0.043
299.958	2983	0.94991	19.18	0.042
299.958	2000	0.94991	12.675	0.041
299.956	999	0.94991	6.241	0.04
324.963	19924	0.94991	125.148	0.054
324.964	19004	0.94991	119.703	0.051
324.964	18000	0.94991	113.635	0.05
324.966	17001	0.94991	107.464	0.049
324.965	16003	0.94991	101.187	0.05
324.963	15003	0.94991	94.801	0.049
324.964	14001	0.94991	88.324	0.048
324.966	13002	0.94991	81.811	0.048
324.966	12002	0.94991	75.249	0.047
324.966	11004	0.94991	68.681	0.046
324.966	10000	0.94991	62.076	0.046
324.965	9001	0.94991	55.531	0.045
324.966	7999	0.94991	49.004	0.044
324.966	6999	0.94991	42.544	0.043
324.966	5999	0.94991	36.165	0.042
324.966	4999	0.94991	29.867	0.042
324.966	3998	0.94991	23.665	0.041
324.967	2985	0.94991	17.488	0.039
324.966	1999	0.94991	11.594	0.039
324.967	999	0.94991	5.733	0.038
349.951	19873	0.94991	111.352	0.047
349.95	19002	0.94991	106.734	0.047
349.95	17998	0.94991	101.317	0.047
349.95	16998	0.94991	95.842	0.046
349.95	15998	0.94991	90.284	0.045
349.95	14997	0.94991	84.669	0.045
349.949	13998	0.94991	78.993	0.044
349.949	12998	0.94991	73.267	0.044
349.948	11997	0.94991	67.507	0.044
349.949	10999	0.94991	61.741	0.043
349.949	9996	0.94991	55.938	0.043
349.95	8997	0.94991	50.163	0.042
349.95	7998	0.94991	44.399	0.041
349.949	7000	0.94991	38.671	0.041
349.95	5998	0.94991	32.957	0.04
349.949	4999	0.94991	27.309	0.039
349.949	4000	0.94991	21.712	0.038
349.949	2999	0.94991	16.173	0.037
349.949	1999	0.94991	10.702	0.033
349.949	999	0.94991	5.309	0.036
240.072	19589	0.90003	199.054	0.074
240.073	19032	0.90003	195.115	0.074
240.074	18030	0.90003	187.542	0.075
240.075	17018	0.90003	179.188	0.077
240.078	16024	0.90003	170.25	0.078
240.078	15020	0.90003	160.417	0.079
240.079	14006	0.90003	149.671	0.08
240.079	13016	0.90003	138.41	0.081
240.08	12006	0.90003	126.282	0.081
240.078	11012	0.90003	113.893	0.079
240.077	10004	0.90003	101.131	0.077
240.077	9004	0.90003	88.565	0.074
240.077	8008	0.90003	76.371	0.07
240.075	7005	0.90003	64.62	0.067
240.075	6003	0.90003	53.504	0.062
240.074	5001	0.90003	43.067	0.058
240.074	4001	0.90003	33.3	0.055
240.075	3001	0.90003	24.162	0.052
240.073	1999	0.90003	15.591	0.049
240.072	999	0.90003	7.556	0.047
250.046	19940	0.90003	186.044	0.06
250.047	19023	0.90003	179.463	0.071
250.048	18018	0.90003	171.725	0.071
250.046	17011	0.90003	163.416	0.072
250.046	16018	0.90003	154.622	0.072
250.047	15015	0.90003	145.138	0.073
250.047	14014	0.90003	135.178	0.073
250.047	13012	0.90003	124.698	0.072
250.046	12006	0.90003	113.812	0.071
250.045	11010	0.90003	102.827	0.07
250.044	10014	0.90003	91.789	0.068
250.043	9011	0.90003	80.795	0.066
250.042	8004	0.90003	70.009	0.063
250.044	7002	0.90003	59.655	0.06
250.045	6004	0.90003	49.775	0.057
250.045	5002	0.90003	40.328	0.054
250.042	4000	0.90003	31.364	0.052
250.044	3000	0.90003	22.884	0.049
250.047	1999	0.90003	14.843	0.047
250.049	1000	0.90003	7.23	0.045
260.048	17614	0.90003	154.98	0.072
260.046	17013	0.90003	150.096	0.068
260.05	16016	0.90003	141.654	0.067
260.046	15017	0.90003	132.774	0.067
260.045	14013	0.90003	123.483	0.066
260.047	13009	0.90003	113.883	0.066
260.045	12009	0.90003	104.112	0.065
260.044	11008	0.90003	94.232	0.064
260.044	10006	0.90003	84.334	0.062
260.044	9004	0.90003	74.538	0.06
260.044	8003	0.90003	64.951	0.058
260.043	7001	0.90003	55.622	0.056
260.044	6001	0.90003	46.626	0.054
260.047	5000	0.90003	37.974	0.051
260.045	4000	0.90003	29.682	0.049
260.042	3001	0.90003	21.762	0.047
260.043	2000	0.90003	14.169	0.045
260.041	1000	0.90003	6.927	0.043
275.016	19897	0.90003	154.661	0.071
275.016	19012	0.90003	148.567	0.061
275.015	18006	0.90003	141.344	0.06
275.014	17009	0.90003	133.878	0.061
275.013	16003	0.90003	126.067	0.061
275.013	15008	0.90003	118.086	0.06
275.014	14006	0.90003	109.837	0.06
275.013	13009	0.90003	101.458	0.059
275.015	12007	0.90003	92.928	0.058
275.014	11006	0.90003	84.369	0.057
275.013	10005	0.90003	75.811	0.055
275.012	9002	0.90003	67.322	0.054
275.013	8002	0.90003	58.973	0.052
275.01	7005	0.90003	50.825	0.051
275.009	6005	0.90003	42.849	0.049
275.009	5005	0.90003	35.103	0.047
275.01	4001	0.90003	27.568	0.046
275.008	3001	0.90003	20.304	0.044
275.007	2001	0.90003	13.293	0.043
275.006	1000	0.90003	6.522	0.041
299.956	19795	0.90003	131.987	0.064
299.956	19011	0.90003	127.134	0.055
299.956	18003	0.90003	120.727	0.054
299.956	17007	0.90003	114.233	0.053
299.955	16003	0.90003	107.531	0.053
299.956	15005	0.90003	100.739	0.053
299.956	14003	0.90003	93.813	0.052
299.957	13002	0.90003	86.81	0.051
299.957	12002	0.90003	79.763	0.05
299.958	11003	0.90003	72.706	0.049
299.959	10003	0.90003	65.636	0.049
299.958	9002	0.90003	58.59	0.047
299.957	8001	0.90003	51.609	0.046
299.957	6999	0.90003	44.708	0.045
299.957	5999	0.90003	37.914	0.044
299.956	4999	0.90003	31.243	0.043
299.955	3999	0.90003	24.698	0.042
299.958	2990	0.90003	18.241	0.041
299.956	1999	0.90003	12.047	0.04
299.957	999	0.90003	5.941	0.039
324.962	19902	0.90003	116.626	0.051
324.965	19001	0.90003	111.659	0.051
324.963	18006	0.90003	106.065	0.049
324.963	16999	0.90003	100.301	0.049
324.963	16001	0.90003	94.491	0.048
324.963	15000	0.90003	88.578	0.047
324.964	14003	0.90003	82.625	0.047
324.963	13002	0.90003	76.592	0.046
324.963	12003	0.90003	70.531	0.045
324.964	11001	0.90003	64.438	0.045
324.964	10000	0.90003	58.331	0.044
324.964	9000	0.90003	52.245	0.043
324.963	8004	0.90003	46.209	0.042
324.963	6999	0.90003	40.162	0.042
324.963	6000	0.90003	34.198	0.041
324.963	4999	0.90003	28.286	0.04
324.964	4000	0.90003	22.453	0.039
324.964	2999	0.90003	16.7	0.038
324.964	1999	0.90003	11.036	0.037
324.965	999	0.90003	5.467	0.037
349.952	19350	0.90003	101.832	0.047
349.952	17000	0.90003	89.954	0.045
349.951	15997	0.90003	84.764	0.045
349.95	14998	0.90003	79.534	0.044
349.952	13994	0.90003	74.229	0.044
349.951	13000	0.90003	68.93	0.043
349.951	12003	0.90003	63.582	0.042
349.95	11000	0.90003	58.181	0.042
349.95	10000	0.90003	52.782	0.041
349.951	8997	0.90003	47.361	0.041
349.95	7999	0.90003	41.97	0.04
349.95	6998	0.90003	36.584	0.039
349.951	5998	0.90003	31.226	0.039
349.95	4999	0.90003	25.902	0.038
349.949	3999	0.90003	20.614	0.037
349.95	2985	0.90003	15.301	0.036
349.949	1999	0.90003	10.188	0.035
349.95	999	0.90003	5.061	0.035
240.067	19703	0.49968	90.858	0.142
240.069	19008	0.49968	88.009	0.14
240.071	18016	0.49968	83.857	0.136
240.07	17008	0.49968	79.535	0.131
240.069	16013	0.49968	75.179	0.125
240.068	15002	0.49968	70.674	0.119
240.069	14011	0.49968	66.173	0.112
240.069	13003	0.49968	61.522	0.104
240.069	12005	0.49968	56.857	0.095
240.069	11006	0.49968	52.137	0.086
240.069	10006	0.49968	47.368	0.077
240.069	9002	0.49968	42.553	0.069
240.069	8003	0.49968	37.747	0.061
240.069	7000	0.49968	32.918	0.054
240.07	6003	0.49968	28.124	0.048
240.07	5000	0.49968	23.326	0.043
240.07	4003	0.49968	18.584	0.039
240.073	3002	0.49968	13.857	0.037
240.071	2000	0.49968	9.174	0.034
240.069	1000	0.49968	4.558	0.034
250.04	19258	0.49968	84.34	0.126
250.041	18013	0.49968	79.385	0.122
250.04	17008	0.49968	75.293	0.117
250.04	16007	0.49968	71.14	0.111
250.04	15009	0.49968	66.921	0.105
250.039	14003	0.49968	62.615	0.098
250.037	13005	0.49968	58.27	0.091
250.037	12004	0.49968	53.836	0.084
250.036	11004	0.49968	49.405	0.076
250.036	10001	0.49968	44.91	0.069
250.038	9002	0.49968	40.398	0.062
250.034	8002	0.49968	35.861	0.056
250.035	7001	0.49968	31.315	0.05
250.036	5999	0.49968	26.765	0.045
250.035	5000	0.49968	22.235	0.041
250.035	4000	0.49968	17.721	0.038
250.034	2990	0.49968	13.19	0.036
250.029	2000	0.49968	8.784	0.034
250.032	1001	0.49968	4.372	0.033
260.033	19113	0.49968	79.651	0.109
260.033	18006	0.49968	75.418	0.108
260.034	17009	0.49968	71.57	0.105
260.034	16009	0.49968	67.621	0.1
260.032	15005	0.49968	63.583	0.094
260.033	14009	0.49968	59.544	0.088
260.033	13002	0.49968	55.387	0.082
260.031	12008	0.49968	51.246	0.075
260.033	11002	0.49968	47.008	0.069
260.031	10005	0.49968	42.775	0.063
260.029	9003	0.49968	38.489	0.057
260.031	8000	0.49968	34.185	0.052
260.03	7000	0.49968	29.878	0.047
260.03	6003	0.49968	25.579	0.043
260.029	5000	0.49968	21.26	0.04
260.029	4002	0.49968	16.974	0.037
260.03	3002	0.49968	12.694	0.035
260.03	1977	0.49968	8.33	0.033
260.031	1002	0.49968	4.206	0.032
275.007	19297	0.49968	74.901	0.1
275.006	18001	0.49968	70.294	0.096
275.006	17006	0.49968	66.693	0.091
275.006	16005	0.49968	63.009	0.086
275.007	15000	0.49968	59.259	0.082
275.007	14003	0.49968	55.493	0.077
275.005	13004	0.49968	51.668	0.071
275.005	12001	0.49968	47.79	0.066
275.006	11001	0.49968	43.883	0.061
275.005	10000	0.49968	39.943	0.057
275.005	9003	0.49968	35.989	0.052
275.004	8001	0.49968	31.996	0.048
275.004	7001	0.49968	27.997	0.044
275.004	6001	0.49968	23.987	0.041
275.003	5001	0.49968	19.969	0.037
275.003	4001	0.49968	15.957	0.035
275.003	3002	0.49968	11.95	0.034
275.003	2001	0.49968	7.947	0.032
275.002	1001	0.49968	3.964	0.031
324.957	19631	0.49968	62.562	0.075
324.957	19002	0.49968	60.728	0.072
324.958	17994	0.49968	57.761	0.069
324.959	16999	0.49968	54.795	0.066
324.959	15999	0.49968	51.775	0.063
324.958	14998	0.49968	48.72	0.06
324.958	14000	0.49968	45.642	0.056
324.958	12999	0.49968	42.522	0.053
324.96	12002	0.49968	39.381	0.051
324.959	11000	0.49968	36.202	0.047
324.961	9926	0.49968	32.763	0.045
324.961	8999	0.49968	29.768	0.042
324.96	8002	0.49968	26.528	0.039
324.959	7000	0.49968	23.25	0.037
324.959	6001	0.49968	19.966	0.035
324.96	5001	0.49968	16.663	0.033
324.96	4001	0.49968	13.346	0.032
324.96	2987	0.49968	9.973	0.031
324.961	2003	0.49968	6.689	0.03
324.961	1002	0.49968	3.349	0.029
349.95	19933	0.49968	58.441	0.066
349.948	19002	0.49968	55.94	0.066
349.947	17989	0.49968	53.192	0.059
349.948	16997	0.49968	50.454	0.059
349.947	15998	0.49968	47.697	0.057
349.948	15001	0.49968	44.896	0.054
349.947	13993	0.49968	42.035	0.051
349.948	12996	0.49968	39.178	0.049
349.946	11995	0.49968	36.281	0.046
349.946	11001	0.49968	33.381	0.044
349.947	9999	0.49968	30.433	0.042
349.946	9000	0.49968	27.473	0.039
349.947	8001	0.49968	24.491	0.037
349.947	7001	0.49968	21.49	0.036
349.947	6002	0.49968	18.469	0.034
349.947	5003	0.49968	15.42	0.032
349.947	4004	0.49968	12.364	0.031
349.947	3002	0.49968	9.284	0.03
349.948	2004	0.49968	6.207	0.029
349.947	1003	0.49968	3.109	0.029
