Measured thermophysical data. Solid-Liquid Phase Equilibrium for Ternary Systems of p-Nitroacetophenone plus m-Nitroacetophenone plus Methanol/Toluene/Ethyl Acetate
Source: J. Chem. Eng. Data, 2019, 10.1021/acs.jced.9b00416
Compound 1: 1-(3-nitrophenyl)ethanone, C8H7NO3, InChI=1S/C8H7NO3/c1-6(10)7-3-2-4-8(5-7)9(11)12/h2-5H,1H3, purity 98.5%
Compound 2: 1-(4-nitrophenyl)ethanone, C8H7NO3, InChI=1S/C8H7NO3/c1-6(10)7-2-4-8(5-3-7)9(11)12/h2-5H,1H3, purity 97.5%
Compound 3: methanol, CH4O, InChI=1S/CH4O/c1-2/h2H,1H3, purity 99.7%
Compound 4: toluene, C7H8, InChI=1S/C7H8/c1-7-5-3-2-4-6-7/h2-6H,1H3, purity 99.6%
Compound 5: ethyl acetate, C4H8O2, InChI=1S/C4H8O2/c1-3-6-4(2)5/h3H2,1-2H3, purity 99.5%

System: 1-(4-nitrophenyl)ethanone + 1-(3-nitrophenyl)ethanone + methanol; phases: Liquid, Crystal
Fixed: Pressure, kPa = 101.2
Property: Mass fraction of 1-(3-nitrophenyl)ethanone (Liquid); method: Chromatography
Temperature, K	Mass fraction of 1-(4-nitrophenyl)ethanone	Mass fraction of 1-(3-nitrophenyl)ethanone	uncertainty
283.15	0	0.0372	0.0026
283.15	0.0149	0.0325	0.0023
283.15	0.0325	0.0291	0.0021
283.15	0.0405	0.0271	0.002
298.15	0	0.0716	0.005
298.15	0.0192	0.0664	0.0047
298.15	0.0291	0.0576	0.0043
298.15	0.0449	0.0533	0.0038
298.15	0.0607	0.0516	0.0037
298.15	0.0745	0.048	0.0036
313.15	0	0.1379	0.0097
313.15	0.0234	0.1291	0.0091
313.15	0.0471	0.1172	0.0084
313.15	0.0694	0.1042	0.0076
313.15	0.0903	0.0997	0.0072
313.15	0.1112	0.0918	0.0071

System: 1-(4-nitrophenyl)ethanone + 1-(3-nitrophenyl)ethanone + methanol; phases: Liquid, Crystal
Fixed: Pressure, kPa = 101.2
Property: Mass fraction of 1-(3-nitrophenyl)ethanone (Liquid); method: Chromatography
Temperature, K	Mass fraction of 1-(4-nitrophenyl)ethanone	Mass fraction of 1-(3-nitrophenyl)ethanone	uncertainty
283.15	0.0405	0.0271	0.009
283.15	0.0424	0.0212	0.0116
283.15	0.0445	0.0117	0.0075
283.15	0.0508	0	
298.15	0.0745	0.048	0.0281
298.15	0.0745	0.0392	0.0158
298.15	0.0782	0.0282	0.0255
298.15	0.0824	0.0113	0.0113
298.15	0.089	0	
313.15	0.1112	0.0918	0.027
313.15	0.1174	0.0709	0.0306
313.15	0.1244	0.0434	0.0193
313.15	0.1394	0.0201	0.0146
313.15	0.1536	0	

System: 1-(4-nitrophenyl)ethanone + 1-(3-nitrophenyl)ethanone + toluene; phases: Liquid, Crystal
Fixed: Pressure, kPa = 101.2
Property: Mass fraction of 1-(3-nitrophenyl)ethanone (Liquid); method: Chromatography
Temperature, K	Mass fraction of 1-(4-nitrophenyl)ethanone	Mass fraction of 1-(3-nitrophenyl)ethanone	uncertainty
283.15	0	0.1124	0.0079
283.15	0.0195	0.105	0.0074
283.15	0.0372	0.0929	0.0066
283.15	0.0618	0.0865	0.0063
283.15	0.0818	0.077	0.0059
283.15	0.0985	0.072	0.0055
298.15	0	0.2087	0.0146
298.15	0.0293	0.2003	0.0141
298.15	0.0547	0.1884	0.0133
298.15	0.0886	0.1767	0.0125
298.15	0.1137	0.168	0.0125
298.15	0.1405	0.1595	0.0117
298.15	0.1653	0.1505	0.0114
313.15	0	0.3789	0.0266
313.15	0.0361	0.3553	0.025
313.15	0.0652	0.3238	0.023
313.15	0.0985	0.305	0.0217
313.15	0.1354	0.2852	0.021
313.15	0.1637	0.2598	0.0202
313.15	0.1953	0.2399	0.0182
313.15	0.2269	0.2275	0.0171

System: 1-(4-nitrophenyl)ethanone + 1-(3-nitrophenyl)ethanone + toluene; phases: Liquid, Crystal
Fixed: Pressure, kPa = 101.2
Property: Mass fraction of 1-(3-nitrophenyl)ethanone (Liquid); method: Chromatography
Temperature, K	Mass fraction of 1-(4-nitrophenyl)ethanone	Mass fraction of 1-(3-nitrophenyl)ethanone	uncertainty
283.15	0.0985	0.072	0.034
283.15	0.1021	0.0545	0.0197
283.15	0.112	0.0336	0.0127
283.15	0.125	0.0177	0.0127
283.15	0.1352	0	
298.15	0.1653	0.1505	0.078
298.15	0.1687	0.1278	0.0718
298.15	0.1764	0.0831	0.0568
298.15	0.1857	0.0495	0.0252
298.15	0.206	0.023	0.0199
298.15	0.2218	0	
313.15	0.2269	0.2275	0.0625
313.15	0.2356	0.1944	0.0445
313.15	0.2576	0.146	0.0393
313.15	0.2751	0.1114	0.0369
313.15	0.3016	0.0635	0.0311
313.15	0.3315	0.0288	0.0288
313.15	0.3505	0	

System: 1-(4-nitrophenyl)ethanone + 1-(3-nitrophenyl)ethanone + ethyl acetate; phases: Liquid, Crystal
Fixed: Pressure, kPa = 101.2
Property: Mass fraction of 1-(3-nitrophenyl)ethanone (Liquid); method: Chromatography
Temperature, K	Mass fraction of 1-(4-nitrophenyl)ethanone	Mass fraction of 1-(3-nitrophenyl)ethanone	uncertainty
283.15	0	0.1578	0.0111
283.15	0.0223	0.1471	0.0103
283.15	0.0474	0.137	0.0097
283.15	0.0801	0.1312	0.0093
283.15	0.1058	0.1222	0.009
283.15	0.1306	0.113	0.0083
283.15	0.1558	0.1087	0.0079
298.15	0	0.2611	0.0183
298.15	0.0279	0.2479	0.0174
298.15	0.0683	0.231	0.0163
298.15	0.0985	0.2108	0.0151
298.15	0.1456	0.1907	0.0136
298.15	0.1817	0.1812	0.0132
298.15	0.2204	0.1693	0.0128
313.15	0	0.4186	0.0293
313.15	0.0347	0.3934	0.0276
313.15	0.0725	0.368	0.026
313.15	0.1208	0.3384	0.0242
313.15	0.1642	0.3185	0.0229
313.15	0.2305	0.2889	0.0213
313.15	0.303	0.2622	0.02

System: 1-(4-nitrophenyl)ethanone + 1-(3-nitrophenyl)ethanone + ethyl acetate; phases: Liquid, Crystal
Fixed: Pressure, kPa = 101.2
Property: Mass fraction of 1-(3-nitrophenyl)ethanone (Liquid); method: Chromatography
Temperature, K	Mass fraction of 1-(4-nitrophenyl)ethanone	Mass fraction of 1-(3-nitrophenyl)ethanone	uncertainty
283.15	0.1558	0.1087	0.0825
283.15	0.1577	0.0944	0.0454
283.15	0.1639	0.0738	0.0348
283.15	0.1747	0.0431	0.0272
283.15	0.1871	0.0222	0.0222
283.15	0.1983	0	
298.15	0.2204	0.1693	0.0583
298.15	0.2274	0.1434	0.0436
298.15	0.2458	0.0997	0.0369
298.15	0.2652	0.0638	0.034
298.15	0.2816	0.0349	0.0338
298.15	0.3025	0	
313.15	0.303	0.2622	0.0494
313.15	0.3225	0.2201	0.0565
313.15	0.3496	0.1505	0.0592
313.15	0.3691	0.1098	0.0488
313.15	0.3948	0.0659	0.0402
313.15	0.4442	0	

System: 1-(3-nitrophenyl)ethanone + methanol; phases: Liquid, Crystal
Fixed: Pressure, kPa = 101.2
Property: Mass fraction of 1-(3-nitrophenyl)ethanone (Liquid); method: Chromatography
Temperature, K	Mass fraction of 1-(3-nitrophenyl)ethanone	uncertainty
283.15	0.0372	0.0026
298.15	0.0716	0.005
313.15	0.1379	0.0097

System: 1-(4-nitrophenyl)ethanone + methanol; phases: Liquid, Crystal
Fixed: Pressure, kPa = 101.2
Property: Solid-liquid equilibrium temperature, K (Liquid); method: Chromatography
Mass fraction of 1-(4-nitrophenyl)ethanone	Solid-liquid equilibrium temperature, K	uncertainty
0.0508	283.15	1.45
0.089	298.15	1.82
0.1536	313.15	2.53

System: 1-(3-nitrophenyl)ethanone + toluene; phases: Liquid, Crystal
Fixed: Pressure, kPa = 101.2
Property: Mass fraction of 1-(3-nitrophenyl)ethanone (Liquid); method: Chromatography
Temperature, K	Mass fraction of 1-(3-nitrophenyl)ethanone	uncertainty
283.15	0.1124	0.0079
298.15	0.2087	0.0146
313.15	0.3789	0.0266

System: 1-(4-nitrophenyl)ethanone + toluene; phases: Liquid, Crystal
Fixed: Pressure, kPa = 101.2
Property: Solid-liquid equilibrium temperature, K (Liquid); method: Chromatography
Mass fraction of 1-(4-nitrophenyl)ethanone	Solid-liquid equilibrium temperature, K	uncertainty
0.1352	283.15	1.68
0.2218	298.15	2.17
0.3505	313.15	2.89

System: 1-(3-nitrophenyl)ethanone + ethyl acetate; phases: Liquid, Crystal
Fixed: Pressure, kPa = 101.2
Property: Mass fraction of 1-(3-nitrophenyl)ethanone (Liquid); method: Chromatography
Temperature, K	Mass fraction of 1-(3-nitrophenyl)ethanone	uncertainty
283.15	0.1578	0.0111
298.15	0.2611	0.0183
313.15	0.4186	0.0293

System: 1-(4-nitrophenyl)ethanone + ethyl acetate; phases: Liquid, Crystal
Fixed: Pressure, kPa = 101.2
Property: Solid-liquid equilibrium temperature, K (Liquid); method: Chromatography
Mass fraction of 1-(4-nitrophenyl)ethanone	Solid-liquid equilibrium temperature, K	uncertainty
0.1983	283.15	2.04
0.3025	298.15	2.59
0.4442	313.15	3.31
