Measured thermophysical data. Solubility Determination and Thermodynamic Modeling of Sodium Thioglycolate in Pure and Binary Solvent Mixtures from T = (293.15 to 333.15) K
Source: J. Chem. Eng. Data, 2017, 10.1021/acs.jced.7b00245
Compound 1: sodium thioglycolate, C2H3NaO2S, InChI=1S/C2H4O2S.Na/c3-2(4)1-5;/h5H,1H2,(H,3,4);/q;+1/p-1, purity 97%
Compound 2: methanol, CH4O, InChI=1S/CH4O/c1-2/h2H,1H3, purity 99.7%
Compound 3: ethanol, C2H6O, InChI=1S/C2H6O/c1-2-3/h3H,2H2,1H3, purity 99.7%
Compound 4: propan-2-ol, C3H8O, InChI=1S/C3H8O/c1-3(2)4/h3-4H,1-2H3, purity 99.7%
Compound 5: propan-1-ol, C3H8O, InChI=1S/C3H8O/c1-2-3-4/h4H,2-3H2,1H3, purity 99.7%
Compound 6: water, H2O, InChI=1S/H2O/h1H2, purity 99.9%
Compound 7: triphenylphosphine, C18H15P, InChI=1S/C18H15P/c1-4-10-16(11-5-1)19(17-12-6-2-7-13-17)18-14-8-3-9-15-18/h1-15H, purity 99%

System: sodium thioglycolate + water; phases: Liquid, Crystal
Fixed: Pressure, kPa = 100
Property: Mole fraction of sodium thioglycolate (Liquid); method: gravimetric
Temperature, K	Mole fraction of sodium thioglycolate	uncertainty
293.15	0.1471	0.01472
298.15	0.16085	0.0161
303.15	0.1765	0.01767
308.15	0.19505	0.01952
313.15	0.21327	0.02134
318.15	0.23257	0.02328
323.15	0.25294	0.02531
328.15	0.2759	0.02761
333.15	0.30047	0.03007

System: sodium thioglycolate + methanol; phases: Liquid, Crystal
Fixed: Pressure, kPa = 100
Property: Mole fraction of sodium thioglycolate (Liquid); method: gravimetric
Temperature, K	Mole fraction of sodium thioglycolate	uncertainty
293.15	0.001886	0.000189
298.15	0.00165	0.000165
303.15	0.001457	0.000146
308.15	0.001302	0.00013
313.15	0.001147	0.000115
318.15	0.001008	0.000101
323.15	0.00094	9.4e-05
328.15	0.00092	9.2e-05
333.15	0.000938	9.4e-05

System: sodium thioglycolate + ethanol; phases: Liquid, Crystal
Fixed: Pressure, kPa = 100
Property: Mole fraction of sodium thioglycolate (Liquid); method: gravimetric
Temperature, K	Mole fraction of sodium thioglycolate	uncertainty
293.15	0.001424	0.000142
298.15	0.001482	0.000148
303.15	0.001573	0.000157
308.15	0.001671	0.000167
313.15	0.001769	0.000177
318.15	0.001877	0.000188
323.15	0.001962	0.000196
328.15	0.002205	0.000221
333.15	0.002436	0.000244

System: sodium thioglycolate + propan-2-ol; phases: Liquid, Crystal
Fixed: Pressure, kPa = 100
Property: Mole fraction of sodium thioglycolate (Liquid); method: gravimetric
Temperature, K	Mole fraction of sodium thioglycolate	uncertainty
293.15	0.000104	1e-05
298.15	0.00011	1.1e-05
303.15	0.000115	1.2e-05
308.15	0.000123	1.2e-05
313.15	0.000139	1.4e-05
318.15	0.000154	1.5e-05
323.15	0.000171	1.7e-05
328.15	0.000188	1.9e-05
333.15	0.000209	2.1e-05

System: sodium thioglycolate + propan-1-ol; phases: Liquid, Crystal
Fixed: Pressure, kPa = 100
Property: Mole fraction of sodium thioglycolate (Liquid); method: gravimetric
Temperature, K	Mole fraction of sodium thioglycolate	uncertainty
293.15	0.000439	4.4e-05
298.15	0.000493	4.9e-05
303.15	0.000587	5.9e-05
308.15	0.00069	6.9e-05
313.15	0.00076	7.6e-05
318.15	0.000871	8.7e-05
323.15	0.000986	9.9e-05
328.15	0.001159	0.000116
333.15	0.001426	0.000143

System: sodium thioglycolate + water + methanol; phases: Liquid, Crystal
Fixed: Pressure, kPa = 100
Property: Mole fraction of sodium thioglycolate (Liquid); method: gravimetric
Temperature, K	Solvent: Mole fraction of water	Mole fraction of sodium thioglycolate	uncertainty
293.15	0.102	0.002249	0.000237
293.15	0.201	0.003298	0.00039
293.15	0.301	0.004308	0.000879
293.15	0.402	0.008406	0.002963
293.15	0.5	0.0184	0.00816
293.15	0.601	0.04	0.01292
293.15	0.702	0.08058	0.01718
293.15	0.801	0.1419	0.0148
298.15	0.102	0.001987	0.000211
298.15	0.201	0.003047	0.000416
298.15	0.301	0.004784	0.001018
298.15	0.402	0.009041	0.00309
298.15	0.5	0.01947	0.00835
298.15	0.601	0.04126	0.01368
298.15	0.702	0.08549	0.01853
298.15	0.801	0.1517	0.0157
303.15	0.102	0.001833	0.000198
303.15	0.201	0.002917	0.00044
303.15	0.301	0.005089	0.001132
303.15	0.402	0.009664	0.003306
303.15	0.5	0.0208	0.00894
303.15	0.601	0.04416	0.01461
303.15	0.702	0.0913	0.01972
303.15	0.801	0.1616	0.0168
308.15	0.102	0.001705	0.000187
308.15	0.201	0.002809	0.000465
308.15	0.301	0.005373	0.001225
308.15	0.402	0.01015	0.00361
308.15	0.5	0.0226	0.00961
308.15	0.601	0.04722	0.01562
308.15	0.702	0.09797	0.02137
308.15	0.801	0.1748	0.0183
313.15	0.102	0.001613	0.00018
313.15	0.201	0.002707	0.000517
313.15	0.301	0.005972	0.001394
313.15	0.402	0.01111	0.00388
313.15	0.5	0.02444	0.01035
313.15	0.601	0.051	0.01705
313.15	0.702	0.1068	0.0231
313.15	0.801	0.1886	0.0198
318.15	0.102	0.00153	0.000173
318.15	0.201	0.002617	0.000544
318.15	0.301	0.006249	0.001536
318.15	0.402	0.01198	0.00399
318.15	0.5	0.02514	0.01143
318.15	0.601	0.05622	0.01902
318.15	0.702	0.1171	0.0251
318.15	0.801	0.2054	0.0215
323.15	0.102	0.001466	0.000167
323.15	0.201	0.002525	0.000623
323.15	0.301	0.0070989	0.0018024
323.15	0.402	0.01358	0.00446
323.15	0.5	0.02822	0.01261
323.15	0.601	0.06231	0.02079
323.15	0.702	0.1286	0.0275
323.15	0.801	0.2253	0.0236
328.15	0.102	0.001419	0.000162
328.15	0.201	0.00245	0.000664
328.15	0.301	0.007515	0.002036
328.15	0.402	0.01508	0.00491
328.15	0.5	0.03071	0.01344
328.15	0.601	0.067	0.02308
328.15	0.702	0.1425	0.0302
328.15	0.801	0.246	0.0257
333.15	0.102	0.001388	0.000157
333.15	0.201	0.002377	0.000756
333.15	0.301	0.008453	0.00248
333.15	0.402	0.01793	0.00559
333.15	0.5	0.03466	0.01481
333.15	0.601	0.07508	0.02551
333.15	0.702	0.158	0.0331
333.15	0.801	0.2701	0.0284
293.15	1	0.1471	0.01472
298.15	1	0.16085	0.0161
303.15	1	0.1765	0.01767
308.15	1	0.19505	0.01952
313.15	1	0.21327	0.02134
318.15	1	0.23257	0.02328
323.15	1	0.25294	0.02531
328.15	1	0.2759	0.02761
333.15	1	0.30047	0.03007
293.15	0	0.001886	0.000189
298.15	0	0.00165	0.000165
303.15	0	0.001457	0.000146
308.15	0	0.001302	0.00013
313.15	0	0.001147	0.000115
318.15	0	0.001008	0.000101
323.15	0	0.00094	9.4e-05
328.15	0	0.00092	9.2e-05
333.15	0	0.000938	9.4e-05

System: sodium thioglycolate + water + ethanol; phases: Liquid, Crystal
Fixed: Pressure, kPa = 100
Property: Mole fraction of sodium thioglycolate (Liquid); method: gravimetric
Temperature, K	Solvent: Mole fraction of water	Mole fraction of sodium thioglycolate	uncertainty
293.15	0.102	0.001832	0.000194
293.15	0.201	0.002667	0.000383
293.15	0.301	0.004553	0.001022
293.15	0.402	0.008775	0.002885
293.15	0.5	0.01818	0.00781
293.15	0.601	0.03894	0.01337
293.15	0.702	0.08293	0.01771
293.15	0.801	0.144	0.0149
298.15	0.102	0.001955	0.000206
298.15	0.201	0.002787	0.000402
298.15	0.301	0.004815	0.001074
298.15	0.402	0.009189	0.003068
298.15	0.5	0.01936	0.00844
298.15	0.601	0.04177	0.01408
298.15	0.702	0.08741	0.01881
298.15	0.801	0.1537	0.0159
303.15	0.102	0.002044	0.000216
303.15	0.201	0.002961	0.000425
303.15	0.301	0.005064	0.001118
303.15	0.402	0.009607	0.003278
303.15	0.5	0.02064	0.00914
303.15	0.601	0.04492	0.01482
303.15	0.702	0.09211	0.01992
303.15	0.801	0.1636	0.017
308.15	0.102	0.002145	0.000228
308.15	0.201	0.003186	0.000458
308.15	0.301	0.005396	0.001179
308.15	0.402	0.01018	0.0035
308.15	0.5	0.02201	0.00976
308.15	0.601	0.04791	0.01578
308.15	0.702	0.09811	0.02107
308.15	0.801	0.1732	0.0181
313.15	0.102	0.002348	0.000249
313.15	0.201	0.003408	0.000492
313.15	0.301	0.005857	0.001299
313.15	0.402	0.01114	0.00374
313.15	0.5	0.02358	0.01044
313.15	0.601	0.05149	0.01702
313.15	0.702	0.1057	0.0226
313.15	0.801	0.1857	0.0195
318.15	0.102	0.002485	0.000265
318.15	0.201	0.003709	0.00054
318.15	0.301	0.006359	0.001426
318.15	0.402	0.01222	0.00403
318.15	0.5	0.02546	0.01137
318.15	0.601	0.05618	0.01863
318.15	0.702	0.1154	0.0241
318.15	0.801	0.1981	0.0209
323.15	0.102	0.002621	0.000282
323.15	0.201	0.00401	0.000587
323.15	0.301	0.006852	0.001573
323.15	0.402	0.01345	0.00448
323.15	0.5	0.02807	0.0125
323.15	0.601	0.06178	0.02023
323.15	0.702	0.1256	0.0257
323.15	0.801	0.2123	0.0225
328.15	0.102	0.002758	0.000295
328.15	0.201	0.004279	0.000651
328.15	0.301	0.007613	0.00182
328.15	0.402	0.0153	0.00516
328.15	0.5	0.0321	0.01398
328.15	0.601	0.06929	0.02189
328.15	0.702	0.1372	0.0274
328.15	0.801	0.2282	0.0242
333.15	0.102	0.003021	0.000324
333.15	0.201	0.00468	0.000719
333.15	0.301	0.0084	0.002055
333.15	0.402	0.01718	0.00588
333.15	0.5	0.03628	0.01553
333.15	0.601	0.07713	0.02412
333.15	0.702	0.1519	0.0293
333.15	0.801	0.245	0.0262
293.15	1	0.1471	0.01472
298.15	1	0.16085	0.0161
303.15	1	0.1765	0.01767
308.15	1	0.19505	0.01952
313.15	1	0.21327	0.02134
318.15	1	0.23257	0.02328
323.15	1	0.25294	0.02531
328.15	1	0.2759	0.02761
333.15	1	0.30047	0.03007
293.15	0	0.001424	0.000142
298.15	0	0.001482	0.000148
303.15	0	0.001573	0.000157
308.15	0	0.001671	0.000167
313.15	0	0.001769	0.000177
318.15	0	0.001877	0.000188
323.15	0	0.001962	0.000196
328.15	0	0.002205	0.000221
333.15	0	0.002436	0.000244

System: sodium thioglycolate + water + propan-2-ol; phases: Liquid, Crystal
Fixed: Pressure, kPa = 100
Property: Mole fraction of sodium thioglycolate (Liquid); method: gravimetric
Temperature, K	Solvent: Mole fraction of water	Mole fraction of sodium thioglycolate	uncertainty
293.15	0.102	0.000253	0.000113
293.15	0.201	0.002238	0.000513
293.15	0.301	0.004822	0.000873
293.15	0.402	0.007094	0.001703
293.15	0.5	0.0125	0.0062
293.15	0.601	0.03119	0.01194
293.15	0.702	0.07084	0.01543
293.15	0.801	0.1232	0.0132
298.15	0.102	0.00031	0.000131
298.15	0.201	0.002647	0.000591
298.15	0.301	0.005533	0.000965
298.15	0.402	0.007925	0.00184
298.15	0.5	0.01378	0.00665
298.15	0.601	0.03368	0.01309
298.15	0.702	0.07782	0.01583
298.15	0.801	0.1262	0.0136
303.15	0.102	0.000382	0.000154
303.15	0.201	0.003069	0.000678
303.15	0.301	0.006363	0.001098
303.15	0.402	0.009037	0.002037
303.15	0.5	0.01543	0.00714
303.15	0.601	0.03667	0.01375
303.15	0.702	0.08253	0.01656
303.15	0.801	0.133	0.0145
308.15	0.102	0.000471	0.000183
308.15	0.201	0.003622	0.000786
308.15	0.301	0.007371	0.001253
308.15	0.402	0.01038	0.00229
308.15	0.5	0.0175	0.00796
308.15	0.601	0.04114	0.0151
308.15	0.702	0.09104	0.01806
308.15	0.801	0.1458	0.0159
313.15	0.102	0.000586	0.000217
313.15	0.201	0.00428	0.000923
313.15	0.301	0.00867	0.001509
313.15	0.402	0.01252	0.00266
313.15	0.5	0.02033	0.00881
313.15	0.601	0.04647	0.01666
313.15	0.702	0.1013	0.0202
313.15	0.801	0.164	0.0178
318.15	0.102	0.000703	0.00026
318.15	0.201	0.005111	0.001101
318.15	0.301	0.01035	0.00176
318.15	0.402	0.01464	0.00309
318.15	0.5	0.02388	0.01039
318.15	0.601	0.05468	0.01908
318.15	0.702	0.1164	0.0229
318.15	0.801	0.1873	0.02
323.15	0.102	0.000873	0.000314
323.15	0.201	0.006146	0.001314
323.15	0.301	0.01236	0.00206
323.15	0.402	0.01716	0.00356
323.15	0.5	0.02783	0.0124
323.15	0.601	0.06504	0.02344
323.15	0.702	0.1418	0.0271
323.15	0.801	0.2201	0.0229
328.15	0.102	0.001064	0.000382
328.15	0.201	0.007476	0.001568
328.15	0.301	0.0147	0.00247
328.15	0.402	0.02069	0.00446
328.15	0.5	0.0343	0.01489
328.15	0.601	0.07811	0.02774
328.15	0.702	0.169	0.0325
328.15	0.801	0.2639	0.027
333.15	0.102	0.001301	0.000471
333.15	0.201	0.008941	0.001884
333.15	0.301	0.0177	0.00303
333.15	0.402	0.02532	0.00567
333.15	0.5	0.0428	0.01817
333.15	0.601	0.09536	0.03293
333.15	0.702	0.2022	0.0392
333.15	0.801	0.3209	0.0325
293.15	1	0.1471	0.01472
298.15	1	0.16085	0.0161
303.15	1	0.1765	0.01767
308.15	1	0.19505	0.01952
313.15	1	0.21327	0.02134
318.15	1	0.23257	0.02328
323.15	1	0.25294	0.02531
328.15	1	0.2759	0.02761
333.15	1	0.30047	0.03007
293.15	0	0.000104	1e-05
298.15	0	0.00011	1.1e-05
303.15	0	0.000115	1.2e-05
308.15	0	0.000123	1.2e-05
313.15	0	0.000139	1.4e-05
318.15	0	0.000154	1.5e-05
323.15	0	0.000171	1.7e-05
328.15	0	0.000188	1.9e-05
333.15	0	0.000209	2.1e-05

System: sodium thioglycolate + water + propan-1-ol; phases: Liquid, Crystal
Fixed: Pressure, kPa = 100
Property: Mole fraction of sodium thioglycolate (Liquid); method: gravimetric
Temperature, K	Solvent: Mole fraction of water	Mole fraction of sodium thioglycolate	uncertainty
293.15	0.102	0.001271	0.000176
293.15	0.201	0.002828	0.000492
293.15	0.301	0.005254	0.001078
293.15	0.402	0.009112	0.002431
293.15	0.5	0.01643	0.0062
293.15	0.601	0.03287	0.00934
293.15	0.702	0.06068	0.0096
293.15	0.801	0.08277	0.01015
298.15	0.102	0.001456	0.000197
298.15	0.201	0.003119	0.000514
298.15	0.301	0.005492	0.001151
298.15	0.402	0.009865	0.002646
298.15	0.5	0.01768	0.0066
298.15	0.601	0.03509	0.00984
298.15	0.702	0.06421	0.01022
298.15	0.801	0.08838	0.01107
303.15	0.102	0.001543	0.00021
303.15	0.201	0.003407	0.000562
303.15	0.301	0.005964	0.001181
303.15	0.402	0.01021	0.00284
303.15	0.5	0.01913	0.00694
303.15	0.601	0.03668	0.01015
303.15	0.702	0.06706	0.01085
303.15	0.801	0.09389	0.01204
308.15	0.102	0.00168	0.000229
308.15	0.201	0.003759	0.000618
308.15	0.301	0.006527	0.001265
308.15	0.402	0.01099	0.00302
308.15	0.5	0.02049	0.00761
308.15	0.601	0.04006	0.01064
308.15	0.702	0.07038	0.01157
308.15	0.801	0.1017	0.0133
313.15	0.102	0.001851	0.000248
313.15	0.201	0.004021	0.000668
313.15	0.301	0.007123	0.001462
313.15	0.402	0.01254	0.00343
313.15	0.5	0.02299	0.00781
313.15	0.601	0.04218	0.01116
313.15	0.702	0.07528	0.01255
313.15	0.801	0.1095	0.0145
318.15	0.102	0.002084	0.000277
318.15	0.201	0.004484	0.000737
318.15	0.301	0.007872	0.001576
318.15	0.402	0.01359	0.00376
318.15	0.5	0.02529	0.00845
318.15	0.601	0.04562	0.0123
318.15	0.702	0.08312	0.01331
318.15	0.801	0.1153	0.0155
323.15	0.102	0.002309	0.000308
323.15	0.201	0.005021	0.000812
323.15	0.301	0.008616	0.001745
323.15	0.402	0.01514	0.00419
323.15	0.5	0.02799	0.00925
323.15	0.601	0.05016	0.01339
323.15	0.702	0.09082	0.01486
323.15	0.801	0.129	0.0171
328.15	0.102	0.00257	0.000342
328.15	0.201	0.005621	0.00092
328.15	0.301	0.009772	0.001934
328.15	0.402	0.01675	0.00455
328.15	0.5	0.03079	0.01038
328.15	0.601	0.05609	0.01537
328.15	0.702	0.1032	0.0167
328.15	0.801	0.1438	0.0187
333.15	0.102	0.002894	0.000378
333.15	0.201	0.006171	0.001002
333.15	0.301	0.0107	0.00215
333.15	0.402	0.01858	0.00498
333.15	0.5	0.03359	0.01187
333.15	0.601	0.06381	0.01718
333.15	0.702	0.1143	0.0182
333.15	0.801	0.1591	0.0204
293.15	1	0.1471	0.01472
298.15	1	0.16085	0.0161
303.15	1	0.1765	0.01767
308.15	1	0.19505	0.01952
313.15	1	0.21327	0.02134
318.15	1	0.23257	0.02328
323.15	1	0.25294	0.02531
328.15	1	0.2759	0.02761
333.15	1	0.30047	0.03007
293.15	0	0.000439	4.4e-05
298.15	0	0.000493	4.9e-05
303.15	0	0.000587	5.9e-05
308.15	0	0.00069	6.9e-05
313.15	0	0.00076	7.6e-05
318.15	0	0.000871	8.7e-05
323.15	0	0.000986	9.9e-05
328.15	0	0.001159	0.000116
333.15	0	0.001426	0.000143

System: triphenylphosphine + ethanol; phases: Liquid, Crystal
Fixed: Pressure, kPa = 100
Property: Mole fraction of triphenylphosphine (Liquid); method: gravimetric
Temperature, K	Mole fraction of triphenylphosphine	uncertainty
303.5	0.009	0.0009
308.3	0.0117	0.0012
313.3	0.0162	0.0016
318.6	0.0225	0.0023
323.2	0.0279	0.0028
327.9	0.0385	0.0039
333	0.0494	0.005
