Measured thermophysical data. Solubility of Mixed Ternary Systems of Hexafluoridosilicate Salts (M = Na+, K+, or NH4+) in Hexafluoridosilicic Acid Aqueous Solutions at T = 353.15 K
Source: J. Chem. Eng. Data, 2019, 10.1021/acs.jced.9b00116
Compound 1: hexafluorosilic acid, F6H2Si, InChI=1S/F6Si/c1-7(2,3,4,5)6/q-2/p+2, purity 99.95%
Compound 2: disodium hexafluorosilicate, F6Na2Si, InChI=1S/F6Si.2Na/c1-7(2,3,4,5)6;;/q-2;2*+1, purity 99%
Compound 3: dipotassium hexafluorosilicate, F6K2Si, InChI=1S/F6Si.2K/c1-7(2,3,4,5)6;;/q-2;2*+1, purity 99%
Compound 4: ammonium hexafluorosilicate, F6H8N2Si, InChI=1S/F6Si.2H3N/c1-7(2,3,4,5)6;;/h;2*1H3/q-2;;/p+2, purity 98%
Compound 5: water, H2O, InChI=1S/H2O/h1H2, purity 99.9%

System: disodium hexafluorosilicate + hexafluorosilic acid + water; phases: Liquid, Crystal
Fixed: Temperature, K = 353.15
Fixed: Pressure, kPa = 100
Property: Molality, mol/kg of disodium hexafluorosilicate (Liquid); method: titration
Molality, mol/kg of hexafluorosilic acid	Molality, mol/kg of disodium hexafluorosilicate	uncertainty
0.07	0.28	0.02
0.2	0.2	0.02
0.72	0.18	0.02

System: disodium hexafluorosilicate + hexafluorosilic acid + water; phases: Liquid
Fixed: Temperature, K = 353.15
Fixed: Pressure, kPa = 100
Property: (Relative) activity of water (Liquid); method: ISOPIE
Molality, mol/kg of hexafluorosilic acid	Molality, mol/kg of disodium hexafluorosilicate	(Relative) activity of water	uncertainty
0.01	0.04	0.9979	0.0387
0.012	0.048	0.9975	0.0387
0.014	0.056	0.9972	0.0387
0.016	0.064	0.9968	0.0387
0.018	0.072	0.9964	0.0387
0.02	0.08	0.996	0.0387
0.022	0.088	0.9956	0.0387
0.024	0.096	0.9952	0.0387
0.026	0.104	0.9948	0.0387
0.028	0.112	0.9943	0.0387
0.03	0.12	0.9939	0.0387
0.032	0.128	0.9935	0.0387
0.034	0.136	0.993	0.0387
0.036	0.144	0.9926	0.0387
0.038	0.152	0.9921	0.0387
0.04	0.16	0.9917	0.0387
0.042	0.168	0.9912	0.0388
0.044	0.176	0.9907	0.0388
0.05	0.2	0.9892	0.0388
0.054	0.216	0.9881	0.0388
0.06	0.24	0.9864	0.0388
0.07	0.28	0.9834	0.0388
0.025	0.025	0.998	0.0387
0.03	0.03	0.9977	0.0387
0.035	0.035	0.9973	0.0387
0.04	0.04	0.997	0.0387
0.045	0.045	0.9967	0.0387
0.05	0.05	0.9963	0.0387
0.055	0.055	0.996	0.0387
0.06	0.06	0.9956	0.0387
0.065	0.065	0.9953	0.0387
0.07	0.07	0.9949	0.0387
0.075	0.075	0.9946	0.0387
0.08	0.08	0.9942	0.0387
0.085	0.085	0.9938	0.0387
0.09	0.09	0.9935	0.0387
0.095	0.095	0.9931	0.0387
0.1	0.1	0.9927	0.0387
0.105	0.105	0.9923	0.0388
0.11	0.11	0.9918	0.0388
0.125	0.125	0.9906	0.0388
0.135	0.135	0.9897	0.0388
0.15	0.15	0.9882	0.0388
0.175	0.175	0.9857	0.0388
0.2	0.2	0.9828	0.0388
0.04	0.01	0.9981	0.0387
0.048	0.012	0.9978	0.0387
0.056	0.014	0.9975	0.0387
0.064	0.016	0.9972	0.0387
0.072	0.018	0.9969	0.0387
0.08	0.02	0.9967	0.0387
0.088	0.022	0.9964	0.0387
0.096	0.024	0.9961	0.0387
0.104	0.026	0.9958	0.0387
0.112	0.028	0.9955	0.0387
0.12	0.03	0.9952	0.0387
0.128	0.032	0.9949	0.0387
0.136	0.034	0.9946	0.0387
0.144	0.036	0.9943	0.0387
0.152	0.038	0.994	0.0387
0.16	0.04	0.9936	0.0387
0.168	0.042	0.9933	0.0387
0.176	0.044	0.993	0.0387
0.2	0.05	0.9919	0.0387
0.216	0.054	0.9912	0.0388
0.24	0.06	0.99	0.0388
0.28	0.07	0.9879	0.0388
0.32	0.08	0.9855	0.0388
0.4	0.1	0.9802	0.0388
0.48	0.12	0.9739	0.0393
0.64	0.16	0.9588	0.042
0.72	0.18	0.95	0.042

System: dipotassium hexafluorosilicate + hexafluorosilic acid + water; phases: Liquid, Crystal
Fixed: Temperature, K = 353.15
Fixed: Pressure, kPa = 100
Property: Molality, mol/kg of dipotassium hexafluorosilicate (Liquid); method: titration
Molality, mol/kg of hexafluorosilic acid	Molality, mol/kg of dipotassium hexafluorosilicate	uncertainty
0.07	0.28	0.02
0.225	0.225	0.02
0.8	0.2	0.02

System: dipotassium hexafluorosilicate + hexafluorosilic acid + water; phases: Liquid
Fixed: Temperature, K = 353.15
Fixed: Pressure, kPa = 100
Property: (Relative) activity of water (Liquid); method: ISOPIE:METHOD:ISOPIE
Molality, mol/kg of hexafluorosilic acid	Molality, mol/kg of dipotassium hexafluorosilicate	(Relative) activity of water	uncertainty
0.01	0.04	0.9981	0.0387
0.012	0.048	0.9978	0.0387
0.014	0.056	0.9975	0.0387
0.016	0.064	0.9971	0.0387
0.018	0.072	0.9968	0.0387
0.02	0.08	0.9965	0.0387
0.022	0.088	0.9962	0.0387
0.024	0.096	0.9958	0.0387
0.026	0.104	0.9955	0.0387
0.028	0.112	0.9952	0.0387
0.03	0.12	0.9948	0.0387
0.032	0.128	0.9945	0.0387
0.034	0.136	0.9941	0.0387
0.036	0.144	0.9938	0.0387
0.038	0.152	0.9934	0.0387
0.04	0.16	0.993	0.0387
0.042	0.168	0.9926	0.0387
0.044	0.176	0.9922	0.0387
0.05	0.2	0.9909	0.0388
0.054	0.216	0.99	0.0388
0.06	0.24	0.9885	0.0388
0.07	0.28	0.9859	0.0388
0.025	0.025	0.9981	0.0387
0.03	0.03	0.9978	0.0387
0.035	0.035	0.9975	0.0387
0.04	0.04	0.9972	0.0387
0.045	0.045	0.9969	0.0387
0.05	0.05	0.9966	0.0387
0.055	0.055	0.9963	0.0387
0.06	0.06	0.996	0.0387
0.065	0.065	0.9957	0.0387
0.07	0.07	0.9954	0.0387
0.075	0.075	0.9951	0.0387
0.08	0.08	0.9948	0.0387
0.085	0.085	0.9945	0.0387
0.09	0.09	0.9942	0.0387
0.095	0.095	0.9938	0.0387
0.1	0.1	0.9935	0.0387
0.105	0.105	0.9931	0.0387
0.11	0.11	0.9928	0.0388
0.125	0.125	0.9916	0.0388
0.135	0.135	0.9908	0.0388
0.15	0.15	0.9895	0.0388
0.175	0.175	0.9872	0.0388
0.2	0.2	0.9846	0.0388
0.225	0.225	0.9817	0.0388
0.04	0.01	0.9982	0.0387
0.048	0.012	0.9979	0.0387
0.056	0.014	0.9976	0.0387
0.064	0.016	0.9973	0.0387
0.072	0.018	0.9971	0.0387
0.08	0.02	0.9968	0.0387
0.088	0.022	0.9965	0.0387
0.096	0.024	0.9962	0.0387
0.104	0.026	0.996	0.0387
0.112	0.028	0.9957	0.0387
0.12	0.03	0.9954	0.0387
0.128	0.032	0.9951	0.0387
0.136	0.034	0.9948	0.0387
0.144	0.036	0.9946	0.0387
0.152	0.038	0.9943	0.0387
0.16	0.04	0.9939	0.0387
0.168	0.042	0.9936	0.0387
0.176	0.044	0.9933	0.0387
0.2	0.05	0.9923	0.0387
0.216	0.054	0.9916	0.0387
0.24	0.06	0.9905	0.0387
0.28	0.07	0.9885	0.0388
0.32	0.08	0.9862	0.0388
0.36	0.09	0.9836	0.0388
0.4	0.1	0.9809	0.0388
0.48	0.12	0.9749	0.0388
0.56	0.14	0.9679	0.0407
0.64	0.16	0.9601	0.0407
0.72	0.18	0.9514	0.0421
0.8	0.2	0.9418	0.0439

System: ammonium hexafluorosilicate + hexafluorosilic acid + water; phases: Liquid, Crystal
Fixed: Temperature, K = 353.15
Fixed: Pressure, kPa = 100
Property: Molality, mol/kg of ammonium hexafluorosilicate (Liquid); method: titration
Molality, mol/kg of hexafluorosilic acid	Molality, mol/kg of ammonium hexafluorosilicate	uncertainty
0.08	0.32	0.02
0.55	0.55	0.02
2.4	0.5	0.02

System: ammonium hexafluorosilicate + hexafluorosilic acid + water; phases: Liquid
Fixed: Temperature, K = 353.15
Fixed: Pressure, kPa = 100
Property: (Relative) activity of water (Liquid); method: ISOPIE:METHOD:ISOPIE
Molality, mol/kg of hexafluorosilic acid	Molality, mol/kg of ammonium hexafluorosilicate	(Relative) activity of water	uncertainty
0.01	0.04	0.9982	0.0387
0.012	0.048	0.998	0.0387
0.014	0.056	0.9977	0.0387
0.016	0.064	0.9975	0.0387
0.018	0.072	0.9972	0.0387
0.02	0.08	0.997	0.0387
0.022	0.088	0.9967	0.0387
0.024	0.096	0.9965	0.0387
0.026	0.104	0.9962	0.0387
0.028	0.112	0.996	0.0387
0.03	0.12	0.9957	0.0387
0.032	0.128	0.9955	0.0387
0.034	0.136	0.9952	0.0387
0.036	0.144	0.9949	0.0387
0.038	0.152	0.9947	0.0387
0.04	0.16	0.9944	0.0387
0.042	0.168	0.9941	0.0387
0.044	0.176	0.9938	0.0387
0.05	0.2	0.9929	0.0387
0.054	0.216	0.9922	0.0387
0.06	0.24	0.9912	0.0387
0.07	0.28	0.9892	0.0388
0.08	0.32	0.987	0.0388
0.025	0.025	0.9982	0.0387
0.03	0.03	0.9979	0.0387
0.035	0.035	0.9977	0.0387
0.04	0.04	0.9974	0.0387
0.045	0.045	0.9972	0.0387
0.05	0.05	0.9969	0.0387
0.055	0.055	0.9967	0.0387
0.06	0.06	0.9964	0.0387
0.065	0.065	0.9962	0.0387
0.07	0.07	0.9959	0.0387
0.075	0.075	0.9957	0.0387
0.08	0.08	0.9954	0.0387
0.085	0.085	0.9952	0.0387
0.09	0.09	0.9949	0.0387
0.095	0.095	0.9946	0.0387
0.1	0.1	0.9943	0.0387
0.105	0.105	0.994	0.0388
0.11	0.11	0.9938	0.0387
0.125	0.125	0.9928	0.0388
0.135	0.135	0.9922	0.0388
0.15	0.15	0.9912	0.0388
0.175	0.175	0.9893	0.0388
0.2	0.2	0.9871	0.0388
0.25	0.25	0.9815	0.0388
0.3	0.3	0.9761	0.0389
0.35	0.35	0.969	0.0388
0.4	0.4	0.961	0.0388
0.45	0.45	0.9517	0.0388
0.5	0.5	0.9419	0.0388
0.55	0.55	0.9309	0.0389
0.04	0.01	0.9982	0.0387
0.048	0.012	0.9979	0.0387
0.056	0.014	0.9977	0.0387
0.064	0.016	0.9974	0.0387
0.072	0.018	0.9971	0.0387
0.08	0.02	0.9969	0.0387
0.088	0.022	0.9966	0.0387
0.096	0.024	0.9964	0.0387
0.104	0.026	0.9961	0.0387
0.112	0.028	0.9959	0.0387
0.12	0.03	0.9956	0.0387
0.128	0.032	0.9953	0.0387
0.136	0.034	0.9951	0.0387
0.144	0.036	0.9948	0.0387
0.152	0.038	0.9945	0.0387
0.16	0.04	0.9943	0.0387
0.168	0.042	0.994	0.0387
0.176	0.044	0.9937	0.0387
0.2	0.05	0.9928	0.0387
0.216	0.054	0.9921	0.0387
0.24	0.06	0.9911	0.0387
0.28	0.07	0.9892	0.0387
0.32	0.08	0.9872	0.0387
0.4	0.1	0.9812	0.0387
0.48	0.12	0.9775	0.0388
0.56	0.14	0.968	0.0388
0.64	0.16	0.9626	0.0388
0.72	0.18	0.9547	0.0388
0.8	0.2	0.9451	0.039
0.88	0.22	0.9351	0.0389
0.96	0.24	0.9255	0.0388
1.2	0.3	0.8878	0.0393
1.44	0.36	0.845	0.0394
1.6	0.4	0.8138	0.0396
1.76	0.44	0.7785	0.0394
2	0.5	0.7269	0.0396
2.24	0.56	0.6698	0.0394
2.4	0.6	0.6317	0.039
