Measured thermophysical data. Effect of Isomerism on the Liquid-Liquid Phase Behavior of Mixtures of 1-Alkyl-3-methylimidazolium Bis((trifluoromethyl)sulfonyl)amide Ionic Liquids with Heptanol
Source: J. Chem. Eng. Data, 2019, 10.1021/acs.jced.8b01203
Compound 1: 3-ethyl-3-pentanol, C7H16O, InChI=1S/C7H16O/c1-4-7(8,5-2)6-3/h8H,4-6H2,1-3H3, purity 98.3%
Compound 2: 2,4-dimethyl-3-pentanol, C7H16O, InChI=1S/C7H16O/c1-5(2)7(8)6(3)4/h5-8H,1-4H3, purity 99.3%
Compound 3: heptan-1-ol, C7H16O, InChI=1S/C7H16O/c1-2-3-4-5-6-7-8/h8H,2-7H2,1H3, purity 99%
Compound 4: 1-ethyl-3-methylimidazolium bis((trifluoromethyl)sulfonyl)imide, C8H11F6N3O4S2, InChI=1S/C6H11N2.C2F6NO4S2/c1-3-8-5-4-7(2)6-8;3-1(4,5)14(10,11)9-15(12,13)2(6,7)8/h4-6H,3H2,1-2H3;/q+1;-1, purity 99%
Compound 5: 1-butyl-3-methylimidazolium bis(trifluoromethylsulfonyl)imide, C10H15F6N3O4S2, InChI=1S/C8H15N2.C2F6NO4S2/c1-3-4-5-10-7-6-9(2)8-10;3-1(4,5)14(10,11)9-15(12,13)2(6,7)8/h6-8H,3-5H2,1-2H3;/q+1;-1, purity 99%
Compound 6: 1-hexyl-3-methylimidazolium bis[(trifluoromethyl)sulfonyl]imide, C12H19F6N3O4S2, InChI=1S/C10H19N2.C2F6NO4S2/c1-3-4-5-6-7-12-9-8-11(2)10-12;3-1(4,5)14(10,11)9-15(12,13)2(6,7)8/h8-10H,3-7H2,1-2H3;/q+1;-1, purity 99%
Compound 7: 1-octyl-3-methylimidazolium bis[(trifluoromethyl)sulfonyl]imide, C14H23F6N3O4S2, InChI=1S/C12H23N2.C2F6NO4S2/c1-3-4-5-6-7-8-9-14-11-10-13(2)12-14;3-1(4,5)14(10,11)9-15(12,13)2(6,7)8/h10-12H,3-9H2,1-2H3;/q+1;-1, purity 99%
Compound 8: 1-decyl-3-methylimidazolium bis(trifluoromethylsulfonyl)amide, C16H27F6N3O4S2, InChI=1S/C14H27N2.C2F6NO4S2/c1-3-4-5-6-7-8-9-10-11-16-13-12-15(2)14-16;3-1(4,5)14(10,11)9-15(12,13)2(6,7)8/h12-14H,3-11H2,1-2H3;/q+1;-1, purity 98%

System: 1-ethyl-3-methylimidazolium bis((trifluoromethyl)sulfonyl)imide + 2,4-dimethyl-3-pentanol; phases: Liquid mixture 1, Liquid mixture 2
Fixed: Pressure, kPa = 100
Property: Liquid-liquid equilibrium temperature, K (Liquid mixture 1); method: VISOBS
Mass fraction of 1-ethyl-3-methylimidazolium bis((trifluoromethyl)sulfonyl)imide	Liquid-liquid equilibrium temperature, K	uncertainty
0.5894	349.14	2.01
0.6974	327.68	2.01

System: 1-ethyl-3-methylimidazolium bis((trifluoromethyl)sulfonyl)imide + 3-ethyl-3-pentanol; phases: Liquid mixture 1, Liquid mixture 2
Fixed: Pressure, kPa = 100
Property: Liquid-liquid equilibrium temperature, K (Liquid mixture 1); method: VISOBS
Mass fraction of 1-ethyl-3-methylimidazolium bis((trifluoromethyl)sulfonyl)imide	Liquid-liquid equilibrium temperature, K	uncertainty
0.458	448.15	2.82
0.5928	337.22	2.02
0.694	306.95	2.01

System: 1-butyl-3-methylimidazolium bis(trifluoromethylsulfonyl)imide + 2,4-dimethyl-3-pentanol; phases: Liquid mixture 1, Liquid mixture 2
Fixed: Pressure, kPa = 100
Property: Liquid-liquid equilibrium temperature, K (Liquid mixture 1); method: VISOBS
Mass fraction of 1-butyl-3-methylimidazolium bis(trifluoromethylsulfonyl)imide	Liquid-liquid equilibrium temperature, K	uncertainty
0.4362	426.74	7.64
0.4752	381.26	2.02
0.5485	344.11	2.01
0.6141	331.66	2.01
0.7792	293.32	2.01

System: 1-butyl-3-methylimidazolium bis(trifluoromethylsulfonyl)imide + 3-ethyl-3-pentanol; phases: Liquid mixture 1, Liquid mixture 2
Fixed: Pressure, kPa = 100
Property: Liquid-liquid equilibrium temperature, K (Liquid mixture 1); method: VISOBS
Mass fraction of 1-butyl-3-methylimidazolium bis(trifluoromethylsulfonyl)imide	Liquid-liquid equilibrium temperature, K	uncertainty
0.0805	371.92	3
0.0968	375.29	3.01
0.1119	381.26	3
0.1154	380.96	3
0.1628	383.51	3
0.1974	384.41	3
0.2263	385.42	3
0.2929	383.27	3
0.3478	382.55	3
0.3799	381.26	3
0.4361	363.05	3.01
0.4578	352.11	3.1
0.4595	355.33	3.1
0.486	345.65	3.01
0.5311	333.83	3
0.5812	327.03	3
0.6108	322.76	3
0.6385	313.92	3
0.689	304.03	3
0.7268	294.51	3
0.7574	288.58	3.01
0.791	275.97	3.01

System: 1-hexyl-3-methylimidazolium bis[(trifluoromethyl)sulfonyl]imide + 2,4-dimethyl-3-pentanol; phases: Liquid mixture 1, Liquid mixture 2
Fixed: Pressure, kPa = 100
Property: Liquid-liquid equilibrium temperature, K (Liquid mixture 1); method: VISOBS
Mass fraction of 1-hexyl-3-methylimidazolium bis[(trifluoromethyl)sulfonyl]imide	Liquid-liquid equilibrium temperature, K	uncertainty
0.0418	324.69	2.01
0.0561	329.49	2.01
0.0695	336.95	2.01
0.1023	338.9	2.01
0.1212	339.73	2.02
0.1225	339.04	2.02
0.1652	340.79	2.01
0.2071	340.88	2.01
0.2184	341.35	2.01
0.2407	340.79	2.01
0.2731	341.25	2.01
0.3103	339.52	2.01
0.3562	337.55	2.02
0.359	339.04	2.02
0.3974	336.37	2.01
0.4517	330.29	2.01
0.4986	325.14	2.01
0.5488	318.97	2.01
0.584	312.46	2.01
0.6398	303.77	2.01
0.6924	293.79	2.01
0.7327	285.35	2.01
0.7667	278.15	2.01

System: 1-hexyl-3-methylimidazolium bis[(trifluoromethyl)sulfonyl]imide + 3-ethyl-3-pentanol; phases: Liquid mixture 1, Liquid mixture 2
Fixed: Pressure, kPa = 100
Property: Liquid-liquid equilibrium temperature, K (Liquid mixture 1); method: VISOBS
Mass fraction of 1-hexyl-3-methylimidazolium bis[(trifluoromethyl)sulfonyl]imide	Liquid-liquid equilibrium temperature, K	uncertainty
0.0366	321.01	2.01
0.0732	324.4	2.01
0.1044	328.34	2.01
0.1212	329.07	2.01
0.1397	330.57	2.01
0.171	329.88	2.01
0.2126	331.58	2.05
0.214	330.15	2.05
0.2419	329.98	2.01
0.2731	331.69	2.01
0.3082	329.37	2.01
0.3577	327.11	2.01
0.3599	327.78	2.01
0.395	325.56	2.01
0.4536	320.07	2.01
0.5003	314.17	2.01
0.5499	306.76	2.01
0.584	301.56	2.01
0.6406	289.55	2.01
0.6876	284.08	2.01
0.7312	272.99	2.01

System: 1-octyl-3-methylimidazolium bis[(trifluoromethyl)sulfonyl]imide + 2,4-dimethyl-3-pentanol; phases: Liquid mixture 1, Liquid mixture 2
Fixed: Pressure, kPa = 100
Property: Liquid-liquid equilibrium temperature, K (Liquid mixture 1); method: VISOBS
Mass fraction of 1-octyl-3-methylimidazolium bis[(trifluoromethyl)sulfonyl]imide	Liquid-liquid equilibrium temperature, K	uncertainty
0.0039	313.95	2.01
0.035	316.74	2.01
0.1015	318.14	2.01
0.1296	318.73	2.01
0.1767	318.93	2.01
0.2113	319.07	2.01
0.2194	319	2.01
0.2453	318.84	2.01
0.2805	318.23	2.01
0.3114	317.61	2.01
0.3701	314.28	2.01
0.3711	314.28	2.01
0.4071	312.78	2.01
0.4645	308.55	2.01
0.5119	304.16	2.01
0.5514	299.85	2.01
0.588	295.24	2.01
0.6485	284.4	2.01
0.6953	276.5	2.01

System: 1-octyl-3-methylimidazolium bis[(trifluoromethyl)sulfonyl]imide + 3-ethyl-3-pentanol; phases: Liquid mixture 1, Liquid mixture 2
Fixed: Pressure, kPa = 100
Property: Liquid-liquid equilibrium temperature, K (Liquid mixture 1); method: VISOBS
Mass fraction of 1-octyl-3-methylimidazolium bis[(trifluoromethyl)sulfonyl]imide	Liquid-liquid equilibrium temperature, K	uncertainty
0.0387	306	2.01
0.0616	307.48	2.01
0.1117	310.94	2.01
0.1363	311.54	2.01
0.1763	312.15	2.01
0.2197	312.35	2.01
0.2467	312.2	2.01
0.2759	312.26	2.01
0.3121	310.09	2.01
0.3726	308.67	2.01
0.3737	308.43	2.01
0.4112	306.02	2.01
0.4639	301.17	2.01
0.5077	296.54	2.01
0.5499	291.82	2.01
0.5873	285.86	2.01

System: 1-octyl-3-methylimidazolium bis[(trifluoromethyl)sulfonyl]imide + heptan-1-ol; phases: Liquid mixture 1, Liquid mixture 2
Fixed: Pressure, kPa = 100
Property: Liquid-liquid equilibrium temperature, K (Liquid mixture 1); method: VISOBS
Mass fraction of 1-octyl-3-methylimidazolium bis[(trifluoromethyl)sulfonyl]imide	Liquid-liquid equilibrium temperature, K	uncertainty
0.0852	286.95	2.01
0.1124	290.11	2.01
0.153	292.83	2.01
0.1747	293.79	2.01
0.241	295.22	2.01
0.312	295.39	2.01
0.383	295.87	2.01
0.3861	295.92	2.01
0.4219	295.55	2.01
0.5073	295.45	2.01
0.5737	294.4	2.01
0.6329	292.2	2.01
0.6853	289.44	2.01
0.7281	286.38	2.01
0.7718	281.67	2.01
0.8156	274.63	2.01

System: 1-decyl-3-methylimidazolium bis(trifluoromethylsulfonyl)amide + 2,4-dimethyl-3-pentanol; phases: Liquid mixture 1, Liquid mixture 2
Fixed: Pressure, kPa = 100
Property: Liquid-liquid equilibrium temperature, K (Liquid mixture 1); method: VISOBS
Mass fraction of 1-decyl-3-methylimidazolium bis(trifluoromethylsulfonyl)amide	Liquid-liquid equilibrium temperature, K	uncertainty
0.0444	294.39	2.01
0.0642	302.65	2.01
0.0955	304.22	2.01
0.1168	304.82	2.01
0.147	305.12	2.01
0.1878	305.18	2.01
0.2289	305.14	2.01
0.2683	304.82	2.01
0.3325	303.35	2.01
0.3881	300.92	2.01
0.4638	294.64	2.01
0.5262	288.32	2.01
0.5529	284.23	2.01
0.6008	278.57	2.01
0.6621	267.4	3.46

System: 1-decyl-3-methylimidazolium bis(trifluoromethylsulfonyl)amide + 3-ethyl-3-pentanol; phases: Liquid mixture 1, Liquid mixture 2
Fixed: Pressure, kPa = 100
Property: Liquid-liquid equilibrium temperature, K (Liquid mixture 1); method: VISOBS
Mass fraction of 1-decyl-3-methylimidazolium bis(trifluoromethylsulfonyl)amide	Liquid-liquid equilibrium temperature, K	uncertainty
0.0445	292.92	2.01
0.057	294.71	3.18
0.085	301.45	2.01
0.1166	302.71	2.01
0.1466	302.81	2.01
0.1854	302.95	2.01
0.2277	302.81	2.01
0.2667	302.21	2.01
0.3901	296.14	2.01
0.4626	289.4	2.01
0.517	285.07	2.01
0.5558	277.31	2.01
0.5955	269.41	4.49

System: 1-decyl-3-methylimidazolium bis(trifluoromethylsulfonyl)amide + heptan-1-ol; phases: Liquid mixture 1, Liquid mixture 2
Fixed: Pressure, kPa = 100
Property: Liquid-liquid equilibrium temperature, K (Liquid mixture 1); method: VISOBS
Mass fraction of 1-decyl-3-methylimidazolium bis(trifluoromethylsulfonyl)amide	Liquid-liquid equilibrium temperature, K	uncertainty
0.0757	257.9	2.01
0.1119	263.58	2.01
0.1769	271.19	2.01
0.1842	271.27	2.01
0.2176	271.87	2.01
0.2625	272.05	2.01
0.2662	272.05	2.01
0.322	272.4	2.01
0.3273	272.07	2.01
0.4357	271.35	2.01
0.4358	271.97	2.01
0.5126	270.78	2.01
0.5207	270.57	2.01
0.5883	267.05	2.01
0.6523	262.79	5.03
0.707	255.35	4.7
0.7456	240.65	3.66
