Measured thermophysical data. Solubilities, Densities, and Refractive Indices in the Salt-Water Ternary System (LiCl + LiBO2 + H2O) at T = 288.15 K and 298.15 K and p = 0.1 MPa
Source: J. Chem. Eng. Data, 2015, 10.1021/acs.jced.5b00121
Compound 1: lithium chloride, ClLi, InChI=1S/ClH.Li/h1H;/q;+1/p-1, purity 99%
Compound 2: water, H2O, InChI=1S/H2O/h1H2
Compound 3: lithium metaborate, BLiO2, InChI=1S/BO2.Li/c2-1-3;/q-1;+1, purity 99%

System: lithium chloride + water + lithium metaborate; phases: Liquid, Crystal of intercomponent compound 1
Fixed: Pressure, kPa = 100
Property: Mass fraction of lithium metaborate (Liquid); method: Titration method
Temperature, K	Mass fraction of lithium chloride	Mass fraction of lithium metaborate	uncertainty
288.15	0	0.0187	0.005
288.15	0.0341	0.0109	0.0051
288.15	0.0665	0.0096	0.005
288.15	0.1035	0.0102	0.005
288.15	0.1341	0.01	0.005
288.15	0.16	0.0148	0.005
298.15	0	0.0336	0.005
298.15	0.0386	0.0216	0.0053
298.15	0.0681	0.0185	0.005
298.15	0.0977	0.0191	0.0051
298.15	0.1208	0.0251	0.0054

System: lithium chloride + water + lithium metaborate; phases: Liquid, Crystal of intercomponent compound 2
Fixed: Pressure, kPa = 100
Property: Mass fraction of lithium metaborate (Liquid); method: Titration method
Temperature, K	Mass fraction of lithium chloride	Mass fraction of lithium metaborate	uncertainty
288.15	0.16	0.0148	0.0051
288.15	0.1605	0.0111	0.005
288.15	0.1993	0.0109	0.005
288.15	0.2181	0.0126	0.005
288.15	0.2362	0.0119	0.005
288.15	0.2672	0.0109	0.005
288.15	0.2925	0.012	0.005
288.15	0.3246	0.0116	0.005
288.15	0.3567	0.0134	0.005
288.15	0.3844	0.014	0.005
288.15	0.4011	0.0155	0.005
288.15	0.4171	0.0138	0.0072
288.15	0.438	0.041	0.0106
298.15	0.1208	0.0251	0.007
298.15	0.1303	0.0187	0.0051
298.15	0.1551	0.0187	0.005
298.15	0.181	0.0158	0.005
298.15	0.2075	0.0153	0.005
298.15	0.2253	0.0159	0.005
298.15	0.2436	0.0161	0.005
298.15	0.2662	0.0157	0.005
298.15	0.2859	0.0166	0.005
298.15	0.2995	0.0162	0.005
298.15	0.3164	0.0168	0.005
298.15	0.3356	0.0184	0.0055
298.15	0.3619	0.0302	0.0054
298.15	0.3844	0.0313	0.0055
298.15	0.4406	0.0531	0.0057

System: lithium chloride + water + lithium metaborate; phases: Liquid, Crystal of intercomponent compound 3
Fixed: Pressure, kPa = 100
Property: Mass fraction of lithium metaborate (Liquid); method: Titration method
Temperature, K	Mass fraction of lithium chloride	Mass fraction of lithium metaborate	uncertainty
288.15	0.438	0.041	0.005
288.15	0.4402	0.0028	0.0028
288.15	0.4424	0	
298.15	0.4406	0.0531	0.005
298.15	0.4533	0.0114	0.005
298.15	0.4581	0	

System: lithium chloride + water + lithium metaborate; phases: Liquid
Fixed: Pressure, kPa = 100
Property: Mass density, kg/m3 (Liquid); method: Vibrating tube method
Temperature, K	Mass fraction of lithium chloride	Mass fraction of lithium metaborate	Mass density, kg/m3	uncertainty
288.15	0	0.0187	1023.17	8.62
288.15	0.0341	0.0109	1029.03	13.93
288.15	0.0665	0.0096	1050.25	6.19
288.15	0.1035	0.0102	1064	67.82
288.15	0.1341	0.01	1084.79	6.18
288.15	0.16	0.0148	1107.01	8.48
288.15	0.1605	0.0111	1105.33	16.8
288.15	0.1993	0.0109	1122.58	6.54
288.15	0.2181	0.0126	1137.77	10.67
288.15	0.2362	0.0119	1147.02	10.92
288.15	0.2672	0.0109	1163.61	13.08
288.15	0.2925	0.012	1175.85	16.02
288.15	0.3246	0.0116	1188.39	19.43
288.15	0.3567	0.0134	1196.36	14.9
288.15	0.3844	0.014	1225.3	10.52
288.15	0.4011	0.0155	1256.32	9
288.15	0.4171	0.0138	1260.11	10.39
288.15	0.438	0.041	1325.84	10.69
288.15	0.4402	0.0028	1286.42	5.54
288.15	0.4424	0	1285.22	4.72
298.15	0	0.0336	1035.63	7.92
298.15	0.0386	0.0216	1040.56	8.74
298.15	0.0681	0.0185	1051.75	10.51
298.15	0.0977	0.0191	1072.21	10.2
298.15	0.1208	0.0251	1097.05	10.11
298.15	0.1303	0.0187	1091.11	10.13
298.15	0.1551	0.0187	1105.68	9.95
298.15	0.181	0.0158	1122.42	11.88
298.15	0.2075	0.0153	1141.2	12.94
298.15	0.2253	0.0159	1157.09	13.54
298.15	0.2436	0.0161	1160.87	14.15
298.15	0.2662	0.0157	1174.16	7.71
298.15	0.2859	0.0166	1188.22	7.48
298.15	0.2995	0.0162	1196.16	6.03
298.15	0.3164	0.0168	1212.95	6.36
298.15	0.3356	0.0184	1223.62	8.21
298.15	0.3619	0.0302	1252.8	16.62
298.15	0.3844	0.0313	1290.89	15.4
298.15	0.4406	0.0531	1353.53	7.31
298.15	0.4533	0.0114	1307.91	7.99
298.15	0.4581	0	1297.95	5.02

System: lithium chloride + water + lithium metaborate; phases: Liquid
Fixed: Pressure, kPa = 100
Property: Refractive index (Na D-line) (Liquid); method: Standard Abbe refractometry
Temperature, K	Mass fraction of lithium chloride	Mass fraction of lithium metaborate	Refractive index (Na D-line)	uncertainty
288.15	0	0.0187	1.341	0.0032
288.15	0.0341	0.0109	1.3441	0.0043
288.15	0.0665	0.0096	1.3512	0.003
288.15	0.1035	0.0102	1.3572	0.0142
288.15	0.1341	0.01	1.3641	0.0028
288.15	0.16	0.0148	1.3714	0.0032
288.15	0.1605	0.0111	1.3711	0.0051
288.15	0.1993	0.0109	1.3772	0.003
288.15	0.2181	0.0126	1.3828	0.0026
288.15	0.2362	0.0119	1.3862	0.0038
288.15	0.2672	0.0109	1.3893	0.0036
288.15	0.2925	0.012	1.3953	0.0029
288.15	0.3246	0.0116	1.4018	0.0034
288.15	0.3567	0.0134	1.4063	0.0035
288.15	0.3844	0.014	1.4118	0.0031
288.15	0.4011	0.0155	1.4171	0.0033
288.15	0.4171	0.0138	1.424	0.0036
288.15	0.438	0.041	1.4337	0.0027
288.15	0.4402	0.0028	1.4326	0.0028
288.15	0.4424	0	1.4324	0.0026
298.15	0	0.0336	1.3452	0.0033
298.15	0.0386	0.0216	1.3474	0.0041
298.15	0.0681	0.0185	1.3536	0.0035
298.15	0.0977	0.0191	1.3606	0.0031
298.15	0.1208	0.0251	1.3672	0.003
298.15	0.1303	0.0187	1.3669	0.003
298.15	0.1551	0.0187	1.3719	0.003
298.15	0.181	0.0158	1.3778	0.0043
298.15	0.2075	0.0153	1.3848	0.0046
298.15	0.2253	0.0159	1.3905	0.0036
298.15	0.2436	0.0161	1.3918	0.0043
298.15	0.2662	0.0157	1.396	0.0029
298.15	0.2859	0.0166	1.401	0.0027
298.15	0.2995	0.0162	1.404	0.0028
298.15	0.3164	0.0168	1.409	0.0028
298.15	0.3356	0.0184	1.4121	0.0032
298.15	0.3619	0.0302	1.4209	0.0119
298.15	0.3844	0.0313	1.4419	0.0145
298.15	0.4406	0.0531	1.4479	0.0038
298.15	0.4533	0.0114	1.4379	0.0027
298.15	0.4581	0	1.4367	0.0026

System: water + lithium metaborate; phases: Liquid, Crystal of intercomponent compound 1
Fixed: Pressure, kPa = 100
Property: Mass fraction of lithium metaborate (Liquid); method: Titration method
Temperature, K	Mass fraction of lithium metaborate	uncertainty
288.15	0.0187	0.005
298.15	0.0336	0.005

System: water + lithium metaborate; phases: Liquid
Fixed: Pressure, kPa = 100
Property: Mass density, kg/m3 (Liquid); method: Vibrating tube method
Temperature, K	Mass fraction of lithium metaborate	Mass density, kg/m3	uncertainty
288.15	0.0187	1023.17	0.57
298.15	0.0336	1035.63	0.58

System: water + lithium metaborate; phases: Liquid
Fixed: Pressure, kPa = 100
Property: Refractive index (Na D-line) (Liquid); method: Standard Abbe refractometry
Temperature, K	Mass fraction of lithium metaborate	Refractive index (Na D-line)	uncertainty
288.15	0.0187	1.341	0.002
298.15	0.0336	1.3452	0.002

System: lithium chloride + water; phases: Liquid, Crystal of intercomponent compound 2
Fixed: Pressure, kPa = 100
Property: Solid-liquid equilibrium temperature, K (Liquid); method: Titration method
Mass fraction of lithium chloride	Solid-liquid equilibrium temperature, K	uncertainty
0.4424	288.15	0.41
0.4581	298.15	0.41

System: lithium chloride + water; phases: Liquid
Fixed: Pressure, kPa = 100
Property: Mass density, kg/m3 (Liquid); method: Vibrating tube method
Temperature, K	Mass fraction of lithium chloride	Mass density, kg/m3	uncertainty
288.15	0.4424	1285.22	0.99
298.15	0.4581	1297.95	1

System: lithium chloride + water; phases: Liquid
Fixed: Pressure, kPa = 100
Property: Refractive index (Na D-line) (Liquid); method: Standard Abbe refractometry
Temperature, K	Mass fraction of lithium chloride	Refractive index (Na D-line)	uncertainty
288.15	0.4424	1.4324	0.002
298.15	0.4581	1.4367	0.002
