Measured thermophysical data. Experimental and DFT Assessment on the Development of Tris(methoxymethyl)-5-oxine
Source: J. Chem. Eng. Data, 2015, 10.1021/acs.jced.5b00488
Compound 1: 5,5'-(((2-(((8-hydroxyquinolin-5-yl)methoxy)methyl)-2-methylpropane-1,3-diyl)bis(oxy))bis(methylene))bis(quinolin-8-ol), C35H33N3O6, InChI=1S/C35H33N3O6/c1-35(20-42-17-23-8-11-29(39)32-26(23)5-2-14-36-32,21-43-18-24-9-12-30(40)33-27(24)6-3-15-37-33)22-44-19-25-10-13-31(41)34-28(25)7-4-16-38-34/h2-16,39-41H,17-22H2,1H3, purity 98%

System: 5,5'-(((2-(((8-hydroxyquinolin-5-yl)methoxy)methyl)-2-methylpropane-1,3-diyl)bis(oxy))bis(methylene))bis(quinolin-8-ol); phases: Crystal, Liquid, Air at 1 atmosphere
Property: Triple point temperature, K (Crystal); method: VISOBS
Triple point temperature, K	uncertainty
468.15	4
