Measured thermophysical data. Effect of Solvent Properties and Composition on the Solubility of Ganciclovir Form I
Source: J. Chem. Eng. Data, 2019, 10.1021/acs.jced.8b01080
Compound 1: 9-[(1,3-dihydroxy-2-propoxy)methyl] guanine, C9H13N5O4, InChI=1S/C9H13N5O4/c10-9-12-7-6(8(17)13-9)11-3-14(7)4-18-5(1-15)2-16/h3,5,15-16H,1-2,4H2,(H3,10,12,13,17), purity 99.6%
Compound 2: methanol, CH4O, InChI=1S/CH4O/c1-2/h2H,1H3, purity 99.6%
Compound 3: ethanol, C2H6O, InChI=1S/C2H6O/c1-2-3/h3H,2H2,1H3, purity 99.5%
Compound 4: propan-1-ol, C3H8O, InChI=1S/C3H8O/c1-2-3-4/h4H,2-3H2,1H3, purity 99.6%
Compound 5: propan-2-ol, C3H8O, InChI=1S/C3H8O/c1-3(2)4/h3-4H,1-2H3, purity 99.7%
Compound 6: acetonitrile, C2H3N, InChI=1S/C2H3N/c1-2-3/h1H3, purity 99.5%
Compound 7: butan-1-ol, C4H10O, InChI=1S/C4H10O/c1-2-3-4-5/h5H,2-4H2,1H3, purity 99.6%
Compound 8: acetone, C3H6O, InChI=1S/C3H6O/c1-3(2)4/h1-2H3, purity 99.5%
Compound 9: ethyl acetate, C4H8O2, InChI=1S/C4H8O2/c1-3-6-4(2)5/h3H2,1-2H3, purity 99.5%
Compound 10: toluene, C7H8, InChI=1S/C7H8/c1-7-5-3-2-4-6-7/h2-6H,1H3, purity 99.6%

System: 9-[(1,3-dihydroxy-2-propoxy)methyl] guanine + methanol; phases: Liquid, Crystal 1
Fixed: Pressure, kPa = 101.1
Property: Mole fraction of 9-[(1,3-dihydroxy-2-propoxy)methyl] guanine (Liquid); method: Chromatography
Temperature, K	Mole fraction of 9-[(1,3-dihydroxy-2-propoxy)methyl] guanine	uncertainty
278.15	7.335e-05	3.67e-06
283.15	7.948e-05	3.98e-06
288.15	8.72e-05	4.36e-06
293.15	9.547e-05	4.78e-06
298.15	0.000105	5.3e-06
303.15	0.0001163	5.8e-06
308.15	0.0001292	6.5e-06
313.15	0.0001427	7.1e-06
318.15	0.0001565	7.8e-06

System: 9-[(1,3-dihydroxy-2-propoxy)methyl] guanine + ethanol; phases: Liquid, Crystal 1
Fixed: Pressure, kPa = 101.1
Property: Mole fraction of 9-[(1,3-dihydroxy-2-propoxy)methyl] guanine (Liquid); method: Chromatography
Temperature, K	Mole fraction of 9-[(1,3-dihydroxy-2-propoxy)methyl] guanine	uncertainty
278.15	8.996e-05	4.5e-06
283.15	9.695e-05	4.85e-06
288.15	0.0001045	5.2e-06
293.15	0.0001127	5.6e-06
298.15	0.0001226	6.1e-06
303.15	0.0001324	6.6e-06
308.15	0.0001442	7.2e-06
313.15	0.0001571	7.9e-06
318.15	0.0001711	8.6e-06

System: 9-[(1,3-dihydroxy-2-propoxy)methyl] guanine + propan-1-ol; phases: Liquid, Crystal 1
Fixed: Pressure, kPa = 101.1
Property: Mole fraction of 9-[(1,3-dihydroxy-2-propoxy)methyl] guanine (Liquid); method: Chromatography
Temperature, K	Mole fraction of 9-[(1,3-dihydroxy-2-propoxy)methyl] guanine	uncertainty
278.15	0.0001918	9.6e-06
283.15	0.0002004	1e-05
288.15	0.0002102	1.05e-05
293.15	0.0002208	1.11e-05
298.15	0.0002326	1.16e-05
303.15	0.0002459	1.23e-05
308.15	0.0002604	1.3e-05
313.15	0.0002763	1.38e-05
318.15	0.0002949	1.48e-05

System: 9-[(1,3-dihydroxy-2-propoxy)methyl] guanine + propan-2-ol; phases: Liquid, Crystal 1
Fixed: Pressure, kPa = 101.1
Property: Mole fraction of 9-[(1,3-dihydroxy-2-propoxy)methyl] guanine (Liquid); method: Chromatography
Temperature, K	Mole fraction of 9-[(1,3-dihydroxy-2-propoxy)methyl] guanine	uncertainty
278.15	6.225e-05	3.12e-06
283.15	6.817e-05	3.41e-06
288.15	7.495e-05	3.75e-06
293.15	8.289e-05	4.15e-06
298.15	9.057e-05	4.53e-06
303.15	9.915e-05	4.96e-06
308.15	0.0001072	5.4e-06
313.15	0.0001165	5.8e-06
318.15	0.000127	6.4e-06

System: 9-[(1,3-dihydroxy-2-propoxy)methyl] guanine + butan-1-ol; phases: Liquid, Crystal 1
Fixed: Pressure, kPa = 101.1
Property: Mole fraction of 9-[(1,3-dihydroxy-2-propoxy)methyl] guanine (Liquid); method: Chromatography
Temperature, K	Mole fraction of 9-[(1,3-dihydroxy-2-propoxy)methyl] guanine	uncertainty
278.15	0.0002231	1.12e-05
283.15	0.0002319	1.16e-05
288.15	0.0002423	1.21e-05
293.15	0.0002538	1.27e-05
298.15	0.0002672	1.34e-05
303.15	0.000284	1.42e-05
308.15	0.0003025	1.51e-05
313.15	0.0003235	1.62e-05
318.15	0.0003464	1.73e-05

System: 9-[(1,3-dihydroxy-2-propoxy)methyl] guanine + acetonitrile; phases: Liquid, Crystal 1
Fixed: Pressure, kPa = 101.1
Property: Mole fraction of 9-[(1,3-dihydroxy-2-propoxy)methyl] guanine (Liquid); method: Chromatography
Temperature, K	Mole fraction of 9-[(1,3-dihydroxy-2-propoxy)methyl] guanine	uncertainty
278.15	1.257e-05	6.3e-07
283.15	1.375e-05	6.9e-07
288.15	1.492e-05	7.5e-07
293.15	1.635e-05	8.2e-07
298.15	1.818e-05	9.1e-07
303.15	1.994e-05	1e-06
308.15	2.187e-05	1.09e-06
313.15	2.373e-05	1.19e-06
318.15	2.588e-05	1.3e-06

System: 9-[(1,3-dihydroxy-2-propoxy)methyl] guanine + acetone; phases: Liquid, Crystal 1
Fixed: Pressure, kPa = 101.1
Property: Mole fraction of 9-[(1,3-dihydroxy-2-propoxy)methyl] guanine (Liquid); method: Chromatography
Temperature, K	Mole fraction of 9-[(1,3-dihydroxy-2-propoxy)methyl] guanine	uncertainty
278.15	3.282e-07	1.64e-08
283.15	4.257e-07	2.13e-08
288.15	5.528e-07	2.77e-08
293.15	7.224e-07	3.62e-08
298.15	9.134e-07	4.57e-08
303.15	1.121e-06	5.6e-08
308.15	1.374e-06	6.9e-08
313.15	1.671e-06	8.4e-08
318.15	2.058e-06	1.03e-07

System: 9-[(1,3-dihydroxy-2-propoxy)methyl] guanine + ethyl acetate; phases: Liquid, Crystal 1
Fixed: Pressure, kPa = 101.1
Property: Mole fraction of 9-[(1,3-dihydroxy-2-propoxy)methyl] guanine (Liquid); method: Chromatography
Temperature, K	Mole fraction of 9-[(1,3-dihydroxy-2-propoxy)methyl] guanine	uncertainty
278.15	2.414e-07	1.21e-08
283.15	3.205e-07	1.61e-08
288.15	4.54e-07	2.27e-08
293.15	5.962e-07	2.99e-08
298.15	7.79e-07	3.9e-08
303.15	9.973e-07	4.99e-08
308.15	1.243e-06	6.2e-08
313.15	1.545e-06	7.7e-08
318.15	1.882e-06	9.4e-08

System: 9-[(1,3-dihydroxy-2-propoxy)methyl] guanine + toluene; phases: Liquid, Crystal 1
Fixed: Pressure, kPa = 101.1
Property: Mole fraction of 9-[(1,3-dihydroxy-2-propoxy)methyl] guanine (Liquid); method: Chromatography
Temperature, K	Mole fraction of 9-[(1,3-dihydroxy-2-propoxy)methyl] guanine	uncertainty
278.15	1.688e-07	8.5e-09
283.15	1.968e-07	9.9e-09
288.15	2.249e-07	1.13e-08
293.15	2.637e-07	1.32e-08
298.15	3.034e-07	1.52e-08
303.15	3.483e-07	1.74e-08
308.15	3.934e-07	1.97e-08
313.15	4.516e-07	2.26e-08
318.15	5.185e-07	2.6e-08

System: 9-[(1,3-dihydroxy-2-propoxy)methyl] guanine + acetonitrile + butan-1-ol; phases: Liquid, Crystal 1
Fixed: Pressure, kPa = 101.1
Property: Mole fraction of 9-[(1,3-dihydroxy-2-propoxy)methyl] guanine (Liquid); method: Chromatography
Temperature, K	Solvent: Mass fraction of acetonitrile	Mole fraction of 9-[(1,3-dihydroxy-2-propoxy)methyl] guanine	uncertainty
278.15	0.1	0.0001282	1.28e-05
283.15	0.1	0.0001349	1.35e-05
288.15	0.1	0.0001424	1.42e-05
293.15	0.1	0.0001498	1.5e-05
298.15	0.1	0.0001584	1.58e-05
303.15	0.1	0.0001679	1.68e-05
308.15	0.1	0.0001784	1.78e-05
313.15	0.1	0.0001898	1.9e-05
318.15	0.1	0.000202	2.02e-05
278.15	0.2	8.382e-05	8.38e-06
283.15	0.2	8.898e-05	8.9e-06
288.15	0.2	9.509e-05	9.51e-06
293.15	0.2	0.0001017	1.02e-05
298.15	0.2	0.0001087	1.09e-05
303.15	0.2	0.000116	1.16e-05
308.15	0.2	0.0001244	1.24e-05
313.15	0.2	0.0001331	1.33e-05
318.15	0.2	0.0001447	1.45e-05
278.15	0.3	5.739e-05	5.74e-06
283.15	0.3	6.099e-05	6.1e-06
288.15	0.3	6.451e-05	6.45e-06
293.15	0.3	6.845e-05	6.85e-06
298.15	0.3	7.28e-05	7.28e-06
303.15	0.3	7.725e-05	7.73e-06
308.15	0.3	8.218e-05	8.22e-06
313.15	0.3	8.827e-05	8.83e-06
318.15	0.3	9.42e-05	9.42e-06
278.15	0.4	4.165e-05	4.17e-06
283.15	0.4	4.385e-05	4.39e-06
288.15	0.4	4.611e-05	4.61e-06
293.15	0.4	4.853e-05	4.85e-06
298.15	0.4	5.106e-05	5.11e-06
303.15	0.4	5.386e-05	5.39e-06
308.15	0.4	5.692e-05	5.69e-06
313.15	0.4	6.044e-05	6.05e-06
318.15	0.4	6.449e-05	6.45e-06
278.15	0.5	3.176e-05	3.18e-06
283.15	0.5	3.387e-05	3.39e-06
288.15	0.5	3.633e-05	3.63e-06
293.15	0.5	3.887e-05	3.89e-06
298.15	0.5	4.151e-05	4.15e-06
303.15	0.5	4.438e-05	4.44e-06
308.15	0.5	4.731e-05	4.73e-06
313.15	0.5	5.047e-05	5.05e-06
318.15	0.5	5.384e-05	5.39e-06
278.15	0.6	2.21e-05	2.21e-06
283.15	0.6	2.342e-05	2.34e-06
288.15	0.6	2.508e-05	2.51e-06
293.15	0.6	2.69e-05	2.69e-06
298.15	0.6	2.905e-05	2.91e-06
303.15	0.6	3.143e-05	3.14e-06
308.15	0.6	3.404e-05	3.4e-06
313.15	0.6	3.711e-05	3.71e-06
318.15	0.6	4.098e-05	4.1e-06
278.15	0.7	1.792e-05	1.79e-06
283.15	0.7	1.945e-05	1.95e-06
288.15	0.7	2.095e-05	2.1e-06
293.15	0.7	2.277e-05	2.28e-06
298.15	0.7	2.478e-05	2.48e-06
303.15	0.7	2.699e-05	2.7e-06
308.15	0.7	2.908e-05	2.91e-06
313.15	0.7	3.155e-05	3.16e-06
318.15	0.7	3.42e-05	3.42e-06
278.15	0.8	1.717e-05	1.72e-06
283.15	0.8	1.817e-05	1.82e-06
288.15	0.8	1.943e-05	1.94e-06
293.15	0.8	2.087e-05	2.09e-06
298.15	0.8	2.244e-05	2.24e-06
303.15	0.8	2.418e-05	2.42e-06
308.15	0.8	2.627e-05	2.63e-06
313.15	0.8	2.844e-05	2.84e-06
318.15	0.8	3.1e-05	3.1e-06
278.15	0.9	1.422e-05	1.42e-06
283.15	0.9	1.529e-05	1.53e-06
288.15	0.9	1.656e-05	1.66e-06
293.15	0.9	1.812e-05	1.81e-06
298.15	0.9	1.964e-05	1.96e-06
303.15	0.9	2.142e-05	2.14e-06
308.15	0.9	2.324e-05	2.32e-06
313.15	0.9	2.528e-05	2.53e-06
318.15	0.9	2.732e-05	2.73e-06
278.15	1	1.257e-05	1.26e-06
283.15	1	1.375e-05	1.38e-06
288.15	1	1.492e-05	1.49e-06
293.15	1	1.635e-05	1.64e-06
298.15	1	1.818e-05	1.82e-06
303.15	1	1.994e-05	1.99e-06
308.15	1	2.187e-05	2.19e-06
313.15	1	2.373e-05	2.37e-06
318.15	1	2.588e-05	2.59e-06
278.15	0	0.0002231	2.23e-05
283.15	0	0.0002319	2.32e-05
288.15	0	0.0002423	2.42e-05
293.15	0	0.0002538	2.54e-05
298.15	0	0.0002672	2.67e-05
303.15	0	0.000284	2.84e-05
308.15	0	0.0003025	3.03e-05
313.15	0	0.0003235	3.24e-05
318.15	0	0.0003464	3.46e-05
