Measured thermophysical data. Heat Capacity of Saturated and Compressed Liquid Dimethyl Ether at Temperatures from (132 to 345) K and at Pressures to 35 MPa
Source: J. Chem. Eng. Data, 2018, 10.1021/acs.jced.8b00037
Compound 1: dimethyl ether, C2H6O, InChI=1S/C2H6O/c1-3-2/h1-2H3, purity 99.9%

System: dimethyl ether; phases: Liquid, Gas
Property: Molar heat capacity at saturation pressure, J/K/mol (Liquid); method: Vacuum adiabatic calorimetry
Temperature, K	Molar heat capacity at saturation pressure, J/K/mol	uncertainty
133.47	99.41	0.73
136.11	98.99	0.72
138.75	99.09	0.73
141.37	98.75	0.72
143.97	98.64	0.72
146.56	98.99	0.72
149.14	99.23	0.73
151.7	98.99	0.72
154.26	98.77	0.72
156.8	98.65	0.72
159.33	98.43	0.72
161.84	98.67	0.72
164.35	98.6	0.72
166.84	98.46	0.72
169.32	98.32	0.72
171.79	98.39	0.72
174.26	98.44	0.72
176.71	98.47	0.72
179.15	98.73	0.72
181.58	98.78	0.72
184	98.54	0.72
186.41	98.8	0.72
188.82	98.98	0.72
191.21	98.9	0.72
193.6	99.11	0.73
195.98	98.99	0.72
198.36	99.02	0.72
200.73	99.09	0.73
203.08	99.08	0.73
205.44	99.32	0.73
207.79	99.89	0.73
210.13	100.15	0.73
212.46	99.96	0.73
214.79	100.15	0.73
217.12	100.26	0.73
219.43	100.09	0.73
221.74	100.12	0.73
224.04	100.21	0.73
226.34	100.65	0.74
228.64	101.1	0.74
230.92	101.1	0.74
233.21	101.41	0.74
235.49	101.75	0.74
237.76	101.68	0.74
240.03	101.94	0.74
242.31	102.15	0.75
244.57	102.6	0.75
246.84	102.48	0.75
249.11	103.29	0.75
251.38	102.81	0.75
253.64	103	0.75
255.9	103.44	0.76
258.16	103.81	0.76
260.42	104.08	0.76
262.68	104.75	0.76
264.94	105.51	0.77
267.2	105.91	0.77
269.47	106.42	0.78
271.72	106.14	0.77
273.98	106.27	0.77
276.24	107.11	0.78
278.5	108	0.79
280.77	108.08	0.79
283.02	108.35	0.79
285.29	108.89	0.79
287.55	109.42	0.8
289.82	109.46	0.8
292.08	110	0.8
294.36	110.71	0.81
296.63	110.49	0.8
298.9	111.38	0.81
301.19	111.57	0.81
303.45	112.35	0.82
305.74	112.73	0.82
308.02	113.5	0.83
310.3	114.89	0.83
312.58	115.6	0.84
314.87	116.12	0.84
317.16	116.12	0.84
319.44	117.62	0.85
323.96	119.09	0.86
326.26	120.03	0.87
328.57	120.51	0.87
330.88	121.43	0.88
333.2	121.96	0.88
335.54	122.78	0.89
337.89	122.8	0.89
340.24	124.08	0.9
342.62	124.9	0.9
345	125.19	0.91

System: dimethyl ether; phases: Liquid
Property: Molar heat capacity at constant volume, J/K/mol (Liquid); method: Vacuum adiabatic calorimetry
Temperature, K	Pressure, kPa	Molar heat capacity at constant volume, J/K/mol	uncertainty
157.53	4013	69.69	0.52
159.72	8322	69.6	0.52
161.9	12544	69.78	0.52
164.07	16672	69.67	0.52
166.23	20708	69.85	0.52
168.38	24704	69.65	0.52
170.51	28650	69.79	0.52
172.64	32529	70.05	0.53
176.39	3776	68.85	0.52
178.57	7593	68.76	0.52
180.74	11350	68.76	0.52
182.9	15062	68.62	0.52
185.05	18718	68.78	0.52
187.2	22325	68.84	0.52
189.34	25885	68.95	0.52
191.46	29382	69	0.52
193.58	32823	69.21	0.52
200.6	3313	68.02	0.51
202.77	6569	67.99	0.51
204.93	9792	67.7	0.51
207.08	12969	68.02	0.51
209.23	16115	68	0.51
211.37	19219	68.42	0.52
213.5	22288	68.53	0.52
215.62	25311	68.58	0.52
217.74	28297	69.12	0.52
219.85	31246	69	0.52
223.34	2896	67.94	0.51
225.51	5714	67.91	0.51
227.67	8494	68.08	0.51
229.82	11254	68.44	0.52
231.97	13976	68.41	0.52
234.11	16676	68.64	0.52
236.24	19342	68.9	0.52
238.36	21979	68.71	0.52
240.48	24585	68.77	0.52
242.59	27158	69.15	0.52
244.69	29702	69.45	0.52
246.78	32213	69.76	0.52
245.08	2602	68.32	0.51
247.24	5030	68.61	0.52
249.4	7443	68.82	0.52
251.55	9828	69.15	0.52
253.7	12195	69.1	0.52
255.84	14539	69.14	0.52
257.97	16865	69.11	0.52
260.09	19157	69.43	0.52
262.21	21436	69.63	0.52
264.32	23690	69.84	0.52
266.43	25920	69.92	0.53
268.52	28128	69.96	0.53
270.62	30316	69.95	0.53
272.69	32476	70.7	0.53
261.13	2479	69.34	0.52
263.3	4661	69.49	0.52
265.47	6829	69.28	0.52
267.63	8973	69.82	0.52
269.79	11103	69.61	0.52
271.93	13210	69.63	0.52
274.07	15304	70.14	0.53
276.21	17379	70.25	0.53
278.33	19435	70.27	0.53
280.45	21472	70.38	0.53
282.56	23487	70.94	0.53
284.67	25491	70.96	0.53
286.77	27476	70.72	0.53
288.86	29439	71.64	0.54
290.95	31396	71.89	0.54
293.04	33333	71.85	0.54
279.17	2674	69.72	0.52
281.36	4596	69.98	0.53
283.54	6506	69.97	0.53
285.71	8399	70.42	0.53
287.87	10279	70.77	0.53
290.03	12145	71.02	0.53
292.18	14000	71.24	0.53
294.33	15843	71.24	0.53
296.47	17674	70.96	0.53
298.61	19489	71.48	0.54
300.75	21296	71.95	0.54
302.88	23091	71.44	0.54
305.01	24872	71.85	0.54
307.14	26644	72.77	0.54
309.27	28409	73.16	0.55
311.39	30163	72.97	0.55
313.52	31911	73.2	0.55
315.65	33651	73	0.55
300.73	2646	71.27	0.53
302.96	4292	71.08	0.53
305.18	5930	71.96	0.54
307.41	7569	72.11	0.54
309.62	9196	71.88	0.54
311.84	10814	72.56	0.54
314.06	12436	72.39	0.54
316.28	14048	72.58	0.54
318.5	15656	72.87	0.55
320.74	17265	73.03	0.55
322.97	18872	73.22	0.55
325.22	20482	73.26	0.55
327.49	22098	73.84	0.55
329.78	23723	73.46	0.55
332.09	25355	73.79	0.55
334.44	27002	74.11	0.55
336.81	28665	74.55	0.56
339.21	30343	75.43	0.56
341.66	32044	75.07	0.56
344.14	33761	74.99	0.56
320.54	2597	72.71	0.54
323.02	4128	72.98	0.55
325.5	5662	73.54	0.55
328.01	7206	73.45	0.55
330.53	8756	73.25	0.55
333.07	10311	73.52	0.55
335.63	11877	73.69	0.55
338.21	13448	74.18	0.55
340.82	15034	74.59	0.56
343.45	16629	74.42	0.56

System: dimethyl ether; phases: Liquid
Property: Amount density, mol/m3 (Liquid); method: isochoric adiabatic calorimeter
Temperature, K	Pressure, kPa	Amount density, mol/m3	uncertainty
157.53	4013	18509	37
159.72	8322	18498	37
161.9	12544	18487	37
164.07	16672	18476	37
166.23	20708	18465	37
168.38	24704	18455	37
170.51	28650	18444	37
172.64	32529	18434	37
176.39	3776	18007	36
178.57	7593	17997	36
180.74	11350	17987	36
182.9	15062	17977	36
185.05	18718	17968	36
187.2	22325	17958	36
189.34	25885	17948	36
191.46	29382	17939	36
193.58	32823	17929	36
200.6	3313	17351	35
202.77	6569	17343	35
204.93	9792	17334	35
207.08	12969	17325	35
209.23	16115	17316	35
211.37	19219	17308	35
213.5	22288	17299	35
215.62	25311	17291	35
217.74	28297	17282	35
219.85	31246	17274	35
223.34	2896	16721	33
225.51	5714	16713	33
227.67	8494	16706	33
229.82	11254	16698	33
231.97	13976	16690	33
234.11	16676	16683	33
236.24	19342	16675	33
238.36	21979	16668	33
240.48	24585	16660	33
242.59	27158	16653	33
244.69	29702	16645	33
246.78	32213	16638	33
245.08	2602	16099	32
247.24	5030	16092	32
249.4	7443	16085	32
251.55	9828	16078	32
253.7	12195	16072	32
255.84	14539	16065	32
257.97	16865	16058	32
260.09	19157	16051	32
262.21	21436	16045	32
264.33	23690	16038	32
266.43	25920	16032	32
268.52	28128	16025	32
270.62	30316	16019	32
272.69	32476	16012	32
261.13	2479	15623	31
263.3	4661	15617	31
265.47	6829	15611	31
267.63	8973	15604	31
269.79	11103	15598	31
271.93	13210	15592	31
274.07	15304	15586	31
276.21	17379	15580	31
278.33	19435	15574	31
280.45	21472	15568	31
282.56	23487	15562	31
284.67	25491	15556	31
286.77	27476	15550	31
288.86	29439	15544	31
290.95	31396	15538	31
293.04	33333	15532	31
279.17	2674	15069	30
281.36	4596	15063	30
283.54	6506	15057	30
285.71	8399	15052	30
287.87	10279	15046	30
290.03	12145	15041	30
292.18	14000	15035	30
294.33	15843	15030	30
296.47	17674	15024	30
298.61	19489	15019	30
300.75	21296	15013	30
302.88	23091	15008	30
305.01	24872	15003	30
307.14	26644	14997	30
309.27	28409	14992	30
311.39	30163	14986	30
313.52	31911	14981	30
315.65	33651	14976	30
300.73	2646	14349	29
302.96	4292	14345	29
305.18	5930	14340	29
307.41	7569	14335	29
309.62	9196	14330	29
311.84	10814	14325	29
314.06	12436	14320	29
316.28	14048	14315	29
318.5	15656	14310	29
320.74	17265	14305	29
322.97	18872	14300	29
325.22	20482	14295	29
327.49	22098	14291	29
329.78	23723	14285	29
332.09	25355	14280	29
334.44	27002	14275	29
336.81	28665	14270	29
339.21	30343	14265	29
341.66	32044	14259	29
344.14	33761	14254	29
320.54	2597	13613	27
323.02	4128	13609	27
325.5	5662	13604	27
328.01	7206	13599	27
330.53	8756	13595	27
333.07	10311	13590	27
335.63	11877	13585	27
338.21	13448	13580	27
340.82	15034	13575	27
343.45	16629	13570	27
