Measured thermophysical data. Stable Solid-Liquid Equilibrium of the Quaternary System Na+//Cl-, NO3-, and SO42--H2O at 333.15 K
Source: J. Chem. Eng. Data, 2019, 10.1021/acs.jced.9b00349
Compound 1: sodium chloride, ClNa, InChI=1S/ClH.Na/h1H;/q;+1/p-1
Compound 2: sodium nitrate, NNaO3, InChI=1S/NO3.Na/c2-1(3)4;/q-1;+1
Compound 3: sodium sulfate, Na2O4S, InChI=1S/2Na.H2O4S/c;;1-5(2,3)4/h;;(H2,1,2,3,4)/q2*+1;/p-2
Compound 4: water, H2O, InChI=1S/H2O/h1H2, purity 99.8%

System: sodium chloride + sodium sulfate + water; phases: Liquid, Crystal
Fixed: Temperature, K = 333.15
Fixed: Pressure, kPa = 100
Property: Mass fraction of sodium sulfate (Liquid); method: titration, gravimetry, and ion chromatography
Mass fraction of sodium chloride	Mass fraction of sodium sulfate	uncertainty
0	0.3084	0.006
0.0291	0.2566	0.0166
0.0668	0.2042	0.0137
0.121	0.143	0.0121
0.1617	0.1046	0.0092
0.2254	0.0693	0.0078
0.2437	0.0655	0.0064

System: sodium chloride + sodium sulfate + water; phases: Liquid, Crystal
Fixed: Temperature, K = 333.15
Fixed: Pressure, kPa = 100
Property: Mass fraction of sodium sulfate (Liquid); method: titration, gravimetry, and ion chromatography
Mass fraction of sodium chloride	Mass fraction of sodium sulfate	uncertainty
0.2437	0.0655	0.006
0.2511	0.025	0.006
0.274	0	

System: sodium chloride + sodium nitrate + water; phases: Liquid, Crystal
Fixed: Temperature, K = 333.15
Fixed: Pressure, kPa = 100
Property: Mass fraction of sodium nitrate (Liquid); method: titration, gravimetry, and ion chromatography
Mass fraction of sodium chloride	Mass fraction of sodium nitrate	uncertainty
0.2701	0	
0.2589	0.026	0.026
0.2275	0.0999	0.0553
0.1919	0.1846	0.0556
0.1597	0.2644	0.0554
0.1316	0.3281	0.0557
0.111	0.385	0.0553
0.0728	0.4683	0.0546

System: sodium chloride + sodium nitrate + water; phases: Liquid, Crystal
Fixed: Temperature, K = 333.15
Fixed: Pressure, kPa = 100
Property: Mass fraction of sodium nitrate (Liquid); method: titration, gravimetry, and ion chromatography
Mass fraction of sodium chloride	Mass fraction of sodium nitrate	uncertainty
0.0728	0.4683	0.0516
0.0488	0.4992	0.0519
0.0313	0.5254	0.0513
0	0.5556	0.05

System: sodium nitrate + sodium sulfate + water; phases: Liquid, Crystal
Fixed: Temperature, K = 333.15
Fixed: Pressure, kPa = 100
Property: Mass fraction of sodium sulfate (Liquid); method: titration, gravimetry, and ion chromatography
Mass fraction of sodium nitrate	Mass fraction of sodium sulfate	uncertainty
0	0.3105	0.006
0.0417	0.2691	0.0345
0.0789	0.235	0.0393
0.124	0.2021	0.0371
0.1991	0.1541	0.0327
0.2534	0.119	0.0247
0.3031	0.0912	0.0222
0.3524	0.0789	0.0188
0.405	0.066	0.0188
0.4766	0.0353	0.0223
0.4837	0.0331	0.0217

System: sodium nitrate + sodium sulfate + water; phases: Liquid, Crystal of intercomponent compound 1
Fixed: Temperature, K = 333.15
Fixed: Pressure, kPa = 100
Property: Mass fraction of sodium sulfate (Liquid); method: titration, gravimetry, and ion chromatography
Mass fraction of sodium nitrate	Mass fraction of sodium sulfate	uncertainty
0.4837	0.0331	0.006
0.5248	0.0234	0.006
0.537	0.0184	0.006

System: sodium nitrate + sodium sulfate + water; phases: Liquid, Crystal
Fixed: Temperature, K = 333.15
Fixed: Pressure, kPa = 100
Property: Mass fraction of sodium sulfate (Liquid); method: titration, gravimetry, and ion chromatography
Mass fraction of sodium nitrate	Mass fraction of sodium sulfate	uncertainty
0.537	0.0184	0.006
0.5466	0.013	0.006
0.5556	0	

System: sodium sulfate + water; phases: Liquid, Crystal
Fixed: Temperature, K = 333.15
Fixed: Pressure, kPa = 100
Property: Mass fraction of sodium sulfate (Liquid); method: titration, gravimetry, and ion chromatography
Mass fraction of sodium sulfate	uncertainty
0.3084	0.006
0.3105	0.006

System: sodium chloride + water; phases: Liquid, Crystal
Fixed: Pressure, kPa = 100
Property: Solid-liquid equilibrium temperature, K (Liquid); method: titration, gravimetry, and ion chromatography
Mass fraction of sodium chloride	Solid-liquid equilibrium temperature, K	uncertainty
0.274	333.15	0.39
0.2701	333.15	0.39

System: sodium nitrate + water; phases: Liquid, Crystal
Property: Mass fraction of sodium nitrate (Liquid); method: titration, gravimetry, and ion chromatography
Temperature, K	Pressure, kPa	Mass fraction of sodium nitrate	uncertainty
333.15	100	0.5556	0.05
