Measured thermophysical data. Isothermal Vapor-Liquid Equilibrium Measurements for the Pentan-2-one + Propan-1-ol/Butan-1-ol System within 342-363 K
Source: J. Chem. Eng. Data, 2019, 10.1021/acs.jced.9b00100
Compound 1: propan-1-ol, C3H8O, InChI=1S/C3H8O/c1-2-3-4/h4H,2-3H2,1H3, purity 99.5%
Compound 2: butan-1-ol, C4H10O, InChI=1S/C4H10O/c1-2-3-4-5/h5H,2-4H2,1H3, purity 99.5%
Compound 3: pentan-2-one, C5H10O, InChI=1S/C5H10O/c1-3-4-5(2)6/h3-4H2,1-2H3, purity 99%

System: propan-1-ol; phases: Liquid
Property: Refractive index (Na D-line) (Liquid); method: Standard Abbe refractometry
Temperature, K	Pressure, kPa	Refractive index (Na D-line)	uncertainty
293.15	101.325	1.3848	0.002

System: propan-1-ol; phases: Liquid, Gas
Property: Vapor or sublimation pressure, kPa (Liquid); method: Ebulliometric method (Recirculating still)
Temperature, K	Vapor or sublimation pressure, kPa	uncertainty
342.34	31.5	0.29
352.05	49.5	0.31
361.65	73.2	0.33

System: butan-1-ol; phases: Liquid
Property: Refractive index (Na D-line) (Liquid); method: Standard Abbe refractometry
Temperature, K	Pressure, kPa	Refractive index (Na D-line)	uncertainty
293.15	101.325	1.3989	0.002

System: butan-1-ol; phases: Liquid, Gas
Property: Vapor or sublimation pressure, kPa (Liquid); method: Ebulliometric method (Recirculating still)
Temperature, K	Vapor or sublimation pressure, kPa	uncertainty
342.95	13.4	0.24
352.65	21.4	0.24
362.55	33.4	0.25

System: pentan-2-one; phases: Liquid
Property: Refractive index (Na D-line) (Liquid); method: Standard Abbe refractometry
Temperature, K	Pressure, kPa	Refractive index (Na D-line)	uncertainty
293.15	101.325	1.3893	0.002

System: pentan-2-one; phases: Liquid, Gas
Property: Vapor or sublimation pressure, kPa (Liquid); method: Ebulliometric method (Recirculating still)
Temperature, K	Vapor or sublimation pressure, kPa	uncertainty
342.34	32.7	0.34
352.05	47.8	0.27
361.65	66.2	0.31
342.95	34.3	0.34
352.65	48.7	0.27
362.55	68.1	0.31

System: pentan-2-one + propan-1-ol; phases: Liquid, Gas
Property: Vapor or sublimation pressure, kPa (Liquid); method: Ebulliometric method (Recirculating still)
Mole fraction of pentan-2-one	Temperature, K	Vapor or sublimation pressure, kPa	uncertainty
0	342.34	31.5	0.32
0.0118	342.34	32.6	0.8
0.0205	342.34	33.2	0.82
0.0309	342.34	33.78	0.64
0.0425	342.34	34.4	0.58
0.0527	342.34	34.8	0.47
0.0694	342.34	35.3	0.42
0.1174	342.34	36.4	0.39
0.2116	342.34	38	0.37
0.2918	342.34	38.7	0.35
0.3982	342.34	38.95	0.35
0.4497	342.34	39	0.35
0.462	342.34	38.98	0.35
0.588	342.34	38.6	0.35
0.6293	342.34	38.32	0.35
0.6809	342.34	37.95	0.35
0.7579	342.34	37.24	0.35
0.8168	342.34	36.58	0.35
0.8861	342.34	35.6	0.36
0.9351	342.34	34.7	0.37
0.9499	342.34	34.38	0.39
0.9641	342.34	34.05	0.42
0.981	342.34	33.55	0.49
1	342.34	32.7	0.32
0	352.05	49.5	0.38
0.015	352.05	51.4	0.77
0.0247	352.05	52.2	0.81
0.0342	352.05	52.65	0.71
0.0507	352.05	53.5	0.43
0.057	352.05	53.7	0.5
0.0781	352.05	54.4	0.4
0.1205	352.05	55.3	0.41
0.2045	352.05	56.5	0.42
0.2908	352.05	57.2	0.41
0.3941	352.05	57.8	0.42
0.4461	352.05	57.81	1.83
0.4577	352.05	57.8	1.79
0.5827	352.05	57	0.4
0.6311	352.05	56.4	0.42
0.6846	352.05	55.7	0.43
0.7532	352.05	54.6	0.43
0.8178	352.05	53.2	0.45
0.8862	352.05	51.5	0.45
0.9399	352.05	49.9	0.43
0.9548	352.05	49.4	0.66
0.9699	352.05	48.9	0.64
0.9869	352.05	48.3	0.57
1	352.05	47.8	0.36
0	361.65	73.2	0.45
0.0145	361.65	76.5	1.89
0.0254	361.65	77.8	1.18
0.0357	361.65	78.8	0.92
0.0469	361.65	79.5	0.64
0.0561	361.65	80	0.64
0.0796	361.65	80.7	0.53
0.1207	361.65	81.4	0.5
0.2064	361.65	82.3	0.49
0.294	361.65	82.9	0.49
0.3961	361.65	82.9	0.49
0.4426	361.65	82.55	0.49
0.4533	361.65	82.5	0.49
0.5772	361.65	81.2	0.5
0.6348	361.65	80	0.54
0.6874	361.65	78.5	0.56
0.7525	361.65	76.4	0.57
0.8201	361.65	74.1	0.58
0.8906	361.65	71.4	0.59
0.9355	361.65	69.5	0.62
0.9516	361.65	68.7	0.64
0.9693	361.65	67.9	0.66
0.987	361.65	66.9	0.7
1	361.65	66.2	0.42

System: pentan-2-one + propan-1-ol; phases: Gas, Liquid
Property: Mole fraction of pentan-2-one (Gas); method: Chromatography
Mole fraction of pentan-2-one	Temperature, K	Mole fraction of pentan-2-one	uncertainty
0	342.34	0	
0.0118	342.34	0.0384	0.029
0.0205	342.34	0.06	0.0295
0.0309	342.34	0.085	0.0244
0.0425	342.34	0.1091	0.0198
0.0527	342.34	0.1219	0.0166
0.0694	342.34	0.1446	0.0162
0.1174	342.34	0.2042	0.0148
0.2116	342.34	0.2999	0.0136
0.2918	342.34	0.357	0.0122
0.3982	342.34	0.4167	0.0122
0.4497	342.34	0.4502	0.0123
0.462	342.34	0.4571	0.0123
0.588	342.34	0.549	0.0135
0.6293	342.34	0.5905	0.014
0.6809	342.34	0.6303	0.0138
0.7579	342.34	0.7008	0.0143
0.8168	342.34	0.761	0.0151
0.8861	342.34	0.8408	0.0157
0.9351	342.34	0.9018	0.0163
0.9499	342.34	0.9231	0.0174
0.9641	342.34	0.9428	0.0172
0.981	342.34	0.9666	0.0188
1	342.34	1	
0	352.05	0	
0.015	352.05	0.0438	0.0268
0.0247	352.05	0.0672	0.0249
0.0342	352.05	0.0862	0.0226
0.0507	352.05	0.1158	0.0186
0.057	352.05	0.123	0.0186
0.0781	352.05	0.1538	0.0154
0.1205	352.05	0.1942	0.0134
0.2045	352.05	0.2635	0.0126
0.2908	352.05	0.3184	0.0122
0.3941	352.05	0.3847	0.0127
0.4461	352.05	0.426	0.0108
0.4577	352.05	0.4295	0.0132
0.5827	352.05	0.5229	0.0135
0.6311	352.05	0.5605	0.0139
0.6846	352.05	0.6096	0.0143
0.7532	352.05	0.675	0.0148
0.8178	352.05	0.746	0.0157
0.8862	352.05	0.8295	0.0167
0.9399	352.05	0.9068	0.0176
0.9548	352.05	0.928	0.0178
0.9699	352.05	0.9509	0.0185
0.9869	352.05	0.978	0.0192
1	352.05	1	
0	361.65	0	
0.0145	361.65	0.0396	0.0246
0.0254	361.65	0.0565	0.0182
0.0357	361.65	0.0718	0.0164
0.0469	361.65	0.0845	0.0153
0.0561	361.65	0.0989	0.0153
0.0796	361.65	0.1226	0.0138
0.1207	361.65	0.1603	0.0133
0.2064	361.65	0.232	0.013
0.294	361.65	0.3004	0.0129
0.3961	361.65	0.377	0.013
0.4426	361.65	0.413	0.0118
0.4533	361.65	0.4182	0.0118
0.5772	361.65	0.5202	0.0137
0.6348	361.65	0.5607	0.0137
0.6874	361.65	0.611	0.0146
0.7525	361.65	0.6758	0.0151
0.8201	361.65	0.7529	0.0157
0.8906	361.65	0.8375	0.0162
0.9355	361.65	0.8989	0.0172
0.9516	361.65	0.9226	0.0182
0.9693	361.65	0.95	0.0184
0.987	361.65	0.9773	0.0191
1	361.65	1	

System: pentan-2-one + butan-1-ol; phases: Liquid, Gas
Property: Vapor or sublimation pressure, kPa (Liquid); method: Ebulliometric method (Recirculating still)
Mole fraction of pentan-2-one	Temperature, K	Vapor or sublimation pressure, kPa	uncertainty
0	342.95	13.4	0.25
0.0023	342.95	13.48	0.27
0.0299	342.95	14.85	0.54
0.0592	342.95	16.2	0.53
0.0866	342.95	17.5	0.44
0.1931	342.95	21.1	0.43
0.2602	342.95	23.2	0.37
0.2675	342.95	23.2	0.37
0.376	342.95	25.6	0.36
0.4655	342.95	27.4	0.35
0.5615	342.95	29.1	0.34
0.6027	342.95	29.58	0.33
0.7471	342.95	31.65	0.33
0.8473	342.95	32.7	0.33
0.9168	342.95	33.5	0.33
0.9896	342.95	34.2	0.33
0.9943	342.95	34.29	0.32
1	342.95	34.3	0.32
0	352.65	21.4	0.27
0.0065	352.65	21.78	0.27
0.0274	352.65	23.21	0.67
0.0587	352.65	25.08	0.68
0.0818	352.65	26.4	1.25
0.1885	352.65	31.61	0.33
0.2085	352.65	32.38	0.37
0.2716	352.65	34.68	0.43
0.3885	352.65	38.2	0.42
0.4701	352.65	40.3	0.39
0.5186	352.65	41.42	0.4
0.6635	352.65	44.2	0.38
0.7442	352.65	45.51	0.37
0.8566	352.65	47.1	0.39
0.8948	352.65	47.58	0.38
0.9895	352.65	48.57	1.39
0.9941	352.65	48.68	0.39
1	352.65	48.7	0.36
0	362.55	33.4	0.3
0.0039	362.55	33.68	0.47
0.0298	362.55	36.1	0.89
0.0567	362.55	38.1	0.82
0.0825	362.55	40.1	0.84
0.1923	362.55	46.92	0.66
0.2839	362.55	51.37	0.57
0.292	362.55	51.72	0.58
0.3587	362.55	54.41	0.52
0.4221	362.55	56.54	0.48
0.5617	362.55	60.62	0.48
0.6272	362.55	62.18	0.46
0.7315	362.55	64.4	0.45
0.8254	362.55	66.08	0.45
0.9138	362.55	67.31	0.44
0.9899	362.55	68	0.44
0.9945	362.55	68.05	0.43
1	362.55	68.1	0.43

System: pentan-2-one + butan-1-ol; phases: Gas, Liquid
Property: Mole fraction of pentan-2-one (Gas); method: Chromatography
Mole fraction of pentan-2-one	Temperature, K	Mole fraction of pentan-2-one	uncertainty
0	342.95	0	
0.0023	342.95	0.0112	0.0112
0.0299	342.95	0.1253	0.0381
0.0592	342.95	0.2206	0.031
0.0866	342.95	0.291	0.0213
0.1931	342.95	0.4765	0.0188
0.2602	342.95	0.552	0.0142
0.2675	342.95	0.5579	0.0142
0.376	342.95	0.6422	0.0129
0.4655	342.95	0.6959	0.0122
0.5615	342.95	0.7531	0.0119
0.6027	342.95	0.774	0.0116
0.7471	342.95	0.8482	0.0115
0.8473	342.95	0.9016	0.0115
0.9168	342.95	0.9428	0.0119
0.9896	342.95	0.992	0.008
0.9943	342.95	0.9956	0.0044
1	342.95	1	
0	352.65	0	
0.0065	352.65	0.028	0.0266
0.0274	352.65	0.106	0.0342
0.0587	352.65	0.2	0.0295
0.0818	352.65	0.255	0.0269
0.1885	352.65	0.444	0.0166
0.2085	352.65	0.4686	0.0148
0.2716	352.65	0.527	0.014
0.3885	352.65	0.6259	0.0132
0.4701	352.65	0.6751	0.0124
0.5186	352.65	0.707	0.0121
0.6635	352.65	0.787	0.0117
0.7442	352.65	0.831	0.0118
0.8566	352.65	0.8988	0.0118
0.8948	352.65	0.922	0.0123
0.9895	352.65	0.9916	0.0084
0.9941	352.65	0.9952	0.0048
1	352.65	1	
0	362.55	0	
0.0039	362.55	0.0158	0.0158
0.0298	362.55	0.1059	0.0329
0.0567	362.55	0.1812	0.0272
0.0825	362.55	0.239	0.0246
0.1923	362.55	0.4198	0.0177
0.2839	362.55	0.52	0.0151
0.292	362.55	0.5288	0.0151
0.3587	362.55	0.588	0.0133
0.4221	362.55	0.626	0.0125
0.5617	362.55	0.713	0.0122
0.6272	362.55	0.749	0.012
0.7315	362.55	0.811	0.0119
0.8254	362.55	0.865	0.0121
0.9138	362.55	0.9299	0.0126
0.9899	362.55	0.9912	0.0088
0.9945	362.55	0.9952	0.0048
1	362.55	1	
