Measured thermophysical data. Liquid-Liquid Equilibrium for Ternary System n-Butanol + n-Hexane + Ethylene Glycol at 298.15-323.15 K
Source: J. Chem. Eng. Data, 2018, 10.1021/acs.jced.7b00577
Compound 1: butan-1-ol, C4H10O, InChI=1S/C4H10O/c1-2-3-4-5/h5H,2-4H2,1H3, purity 99.5%
Compound 2: hexane, C6H14, InChI=1S/C6H14/c1-3-5-6-4-2/h3-6H2,1-2H3, purity 99%
Compound 3: 1,2-ethanediol, C2H6O2, InChI=1S/C2H6O2/c3-1-2-4/h3-4H,1-2H2, purity 99%

System: butan-1-ol + hexane + 1,2-ethanediol; phases: Liquid mixture 2, Liquid mixture 1
Fixed: Pressure, kPa = 100
Property: Mole fraction of hexane (Liquid mixture 2); method: Chromatography
Property: Mole fraction of hexane (Liquid mixture 1); method: Chromatography
Property: Mole fraction of butan-1-ol (Liquid mixture 1); method: Chromatography
Temperature, K	Mole fraction of butan-1-ol	Mole fraction of hexane	uncertainty	Mole fraction of hexane	uncertainty	Mole fraction of butan-1-ol	uncertainty
298.15	0.0553	0.0034	0.0016	0.9913	0.0023	0.0087	
298.15	0.1089	0.0067	0.0016	0.9773	0.0027	0.0226	
298.15	0.1441	0.0102	0.0016	0.9478	0.0027	0.0411	
298.15	0.1844	0.0168	0.0016	0.9216	0.0025	0.0647	
298.15	0.2425	0.0314	0.0017	0.8829	0.0028	0.0969	
298.15	0.276	0.0442	0.0019	0.8229	0.0031	0.1393	
298.15	0.3189	0.0765	0.0021	0.756	0.0033	0.186	
303.15	0.0577	0.0039	0.0016	0.9908	0.0023	0.0092	
303.15	0.1081	0.0069	0.0016	0.9764	0.0024	0.0236	
303.15	0.1537	0.0119	0.0016	0.955	0.0025	0.041	
303.15	0.185	0.0173	0.0016	0.9257	0.0026	0.0653	
303.15	0.2329	0.0289	0.0017	0.885	0.0028	0.0985	
303.15	0.2812	0.048	0.0018	0.8286	0.003	0.1399	
303.15	0.3296	0.0774	0.002	0.7521	0.0033	0.1943	
308.15	0.0585	0.0042	0.0016	0.9902	0.0021	0.0098	
308.15	0.0998	0.0063	0.0016	0.9753	0.0024	0.0247	
308.15	0.1449	0.0114	0.0016	0.9541	0.0025	0.0422	
308.15	0.1847	0.0176	0.0016	0.9226	0.0027	0.0679	
308.15	0.2321	0.0295	0.0017	0.8729	0.0029	0.1051	
308.15	0.2788	0.0473	0.0018	0.8166	0.003	0.1451	
308.15	0.3323	0.0826	0.0021	0.7433	0.0032	0.1993	
313.15	0.0536	0.004	0.0016	0.9834	0.0024	0.0112	
313.15	0.0996	0.0071	0.0016	0.9708	0.0024	0.0251	
313.15	0.1439	0.0117	0.0016	0.9466	0.0025	0.0457	
313.15	0.2195	0.025	0.0016	0.9131	0.0026	0.0741	
313.15	0.2612	0.0378	0.0018	0.8723	0.0028	0.1075	
313.15	0.2889	0.0572	0.0021	0.8107	0.0031	0.1505	
313.15	0.3318	0.0935	0.0022	0.7283	0.0033	0.2072	
323.15	0.0597	0.0045	0.0016	0.9853	0.0023	0.0136	
323.15	0.1227	0.0101	0.0016	0.968	0.0024	0.03	
323.15	0.1659	0.0166	0.0016	0.9439	0.0025	0.0508	
323.15	0.2062	0.0235	0.0016	0.9148	0.0027	0.0761	
323.15	0.2632	0.0374	0.0017	0.869	0.0028	0.1102	
323.15	0.3101	0.0637	0.002	0.7947	0.003	0.1652	
323.15	0.3626	0.1105	0.0023	0.7343	0.0032	0.2144	
