Measured thermophysical data. Phase equilibria of AlCl3 + FeCl3 + H2O, AlCl3 + CaCl2 + H2O, and FeCl3 + CaCl2 + H2O at 298.15 K
Source: J. Chem. Eng. Data, 2016, 10.1021/acs.jced.5b00932
Compound 1: aluminum chloride, AlCl3, InChI=1S/Al.3ClH/h;3*1H/q+3;;;/p-3
Compound 2: water, H2O, InChI=1S/H2O/h1H2, purity 99.9%
Compound 3: calcium chloride, CaCl2, InChI=1S/Ca.2ClH/h;2*1H/q+2;;/p-2
Compound 4: ferric chloride, Cl3Fe, InChI=1S/3ClH.Fe/h3*1H;/q;;;+3/p-3

System: aluminum chloride + water + calcium chloride; phases: Liquid, Crystal of intercomponent compound 1
Fixed: Pressure, kPa = 101
Fixed: Temperature, K = 298.15
Property: Mass fraction of calcium chloride (Liquid); method: chemical analysis and spectroscopy
Mass fraction of aluminum chloride	Mass fraction of calcium chloride	uncertainty
0.3108	0	
0.2993	0.0214	0.0098
0.2833	0.0361	0.0104
0.283	0.0411	0.0103
0.2224	0.1277	0.0102
0.1817	0.1794	0.0103
0.1328	0.2524	0.009
0.123	0.2634	0.009
0.0726	0.3392	0.012
0.0436	0.402	0.012
0.0216	0.4265	0.009

System: aluminum chloride + water + calcium chloride; phases: Liquid, Crystal of intercomponent compound 2
Fixed: Pressure, kPa = 101
Fixed: Temperature, K = 298.15
Property: Mass fraction of calcium chloride (Liquid); method: chemical analysis and spectroscopy
Mass fraction of aluminum chloride	Mass fraction of calcium chloride	uncertainty
0.0216	0.4265	0.0061
0.0179	0.4301	0.0061
0	0.4647	0.0061

System: aluminum chloride + water + calcium chloride; phases: Liquid
Fixed: Pressure, kPa = 101
Fixed: Temperature, K = 298.15
Property: Mass density, kg/m3 (Liquid); method: Pycnometric method
Mass fraction of aluminum chloride	Mass fraction of calcium chloride	Mass density, kg/m3	uncertainty
0.3108	0	1314.6	3.5
0.2993	0.0214	1323.4	5.3
0.2833	0.0361	1325.7	5.3
0.283	0.0411	1326.5	7.7
0.2224	0.1277	1347.8	2.6
0.1817	0.1794	1361.9	2.6
0.1328	0.2524	1379.9	2.3
0.123	0.2634	1379.8	2.3
0.0726	0.3392	1403.7	5.4
0.0436	0.402	1429.9	3.3
0.0216	0.4265	1443.6	4.7
0.0179	0.4301	1443.1	3
0	0.4647	1456.1	2.6

System: aluminum chloride + ferric chloride + water; phases: Liquid, Crystal of intercomponent compound 1
Fixed: Pressure, kPa = 101
Fixed: Temperature, K = 298.15
Property: Mass fraction of ferric chloride (Liquid); method: chemical analysis and spectroscopy
Mass fraction of aluminum chloride	Mass fraction of ferric chloride	uncertainty
0.3108	0	
0.2987	0.0261	0.0152
0.2615	0.0949	0.0156
0.2381	0.1482	0.0147
0.2053	0.1965	0.0141
0.1876	0.2335	0.0163
0.1698	0.2724	0.0161
0.1409	0.3317	0.0162
0.1288	0.3599	0.0136
0.116	0.3703	0.0112

System: aluminum chloride + ferric chloride + water; phases: Liquid, Crystal of intercomponent compound 2
Fixed: Pressure, kPa = 101
Fixed: Temperature, K = 298.15
Property: Mass fraction of ferric chloride (Liquid); method: chemical analysis and spectroscopy
Mass fraction of aluminum chloride	Mass fraction of ferric chloride	uncertainty
0.116	0.3703	0.0117
0.0784	0.4084	0.0115
0.0223	0.4598	0.0123
0	0.5069	0.0101

System: aluminum chloride + ferric chloride + water; phases: Liquid
Fixed: Pressure, kPa = 101
Fixed: Temperature, K = 298.15
Property: Mass density, kg/m3 (Liquid); method: Pycnometric method
Mass fraction of aluminum chloride	Mass fraction of ferric chloride	Mass density, kg/m3	uncertainty
0.3108	0	1314.6	8.5
0.2987	0.0261	1331.2	8.6
0.2615	0.0949	1369.1	23.7
0.2381	0.1482	1411.6	18.2
0.2053	0.1965	1431.1	8
0.1876	0.2335	1449.4	58.9
0.1698	0.2724	1474.5	12.7
0.1409	0.3317	1511.9	8.2
0.1288	0.3599	1533.9	8.3
0.116	0.3703	1542	8.3
0.0784	0.4084	1533.7	22.3
0.0223	0.4598	1540.5	10.1
0	0.5069	1521.5	8.7

System: ferric chloride + water + calcium chloride; phases: Liquid, Crystal of intercomponent compound 1
Fixed: Pressure, kPa = 101
Fixed: Temperature, K = 298.15
Property: Mass fraction of calcium chloride (Liquid); method: chemical analysis and spectroscopy
Mass fraction of ferric chloride	Mass fraction of calcium chloride	uncertainty
0.5069	0	
0.4758	0.0297	0.0117
0.4369	0.0701	0.0155
0.4196	0.1142	0.0262

System: ferric chloride + water + calcium chloride; phases: Liquid, Crystal of intercomponent compound 2
Fixed: Pressure, kPa = 101
Fixed: Temperature, K = 298.15
Property: Mass fraction of calcium chloride (Liquid); method: chemical analysis and spectroscopy
Mass fraction of ferric chloride	Mass fraction of calcium chloride	uncertainty
0.4799	0.1561	0.0089
0.414	0.1994	0.0086
0.3294	0.2483	0.0088
0.2687	0.2924	0.0095
0.2352	0.3172	0.0102
0.2072	0.3434	0.0111

System: ferric chloride + water + calcium chloride; phases: Liquid, Crystal of intercomponent compound 3
Fixed: Pressure, kPa = 101
Fixed: Temperature, K = 298.15
Property: Mass fraction of calcium chloride (Liquid); method: chemical analysis and spectroscopy
Mass fraction of ferric chloride	Mass fraction of calcium chloride	uncertainty
0.1848	0.3686	0.0083
0.1511	0.3878	0.0072
0.0643	0.4175	0.0093
0.045	0.4312	0.0095
0	0.4647	0.0061

System: ferric chloride + water + calcium chloride; phases: Liquid
Fixed: Pressure, kPa = 101
Fixed: Temperature, K = 298.15
Property: Mass density, kg/m3 (Liquid); method: Pycnometric method
Mass fraction of ferric chloride	Mass fraction of calcium chloride	Mass density, kg/m3	uncertainty
0.5069	0	1521.5	4.6
0.4758	0.0297	1551	5.9
0.4369	0.0701	1559.5	3.7
0.4196	0.1142	1571.9	6.8
0.4799	0.1561	1628.4	7.2
0.414	0.1994	1619.9	7.8
0.3294	0.2483	1597.3	7.7
0.2687	0.2924	1586.3	7.6
0.2352	0.3172	1580.6	4.3
0.2072	0.3434	1577	12.8
0.1848	0.3686	1574.5	9.7
0.1511	0.3878	1558.4	9.7
0.0643	0.4175	1482.5	12
0.045	0.4312	1470.5	6.6
0	0.4647	1456.1	2.3

System: aluminum chloride + water; phases: Liquid, Crystal of intercomponent compound 1
Property: Mass fraction of aluminum chloride (Liquid); method: chemical analysis and spectroscopy
Pressure, kPa	Temperature, K	Mass fraction of aluminum chloride	uncertainty
101	298.15	0.3108	0.006

System: aluminum chloride + water; phases: Liquid
Property: Mass density, kg/m3 (Liquid); method: Pycnometric method
Mass fraction of aluminum chloride	Pressure, kPa	Temperature, K	Mass density, kg/m3	uncertainty
0.3108	101	298.15	1314.6	2.2

System: water + calcium chloride; phases: Liquid, Crystal of intercomponent compound 3
Property: Mass fraction of calcium chloride (Liquid); method: chemical analysis and spectroscopy
Pressure, kPa	Temperature, K	Mass fraction of calcium chloride	uncertainty
101	298.15	0.4647	0.0061

System: water + calcium chloride; phases: Liquid
Property: Mass density, kg/m3 (Liquid); method: Pycnometric method
Mass fraction of calcium chloride	Pressure, kPa	Temperature, K	Mass density, kg/m3	uncertainty
0.4647	101	298.15	1456.1	2.3

System: ferric chloride + water; phases: Liquid, Crystal of intercomponent compound 2
Property: Mass fraction of ferric chloride (Liquid); method: chemical analysis and spectroscopy
Pressure, kPa	Temperature, K	Mass fraction of ferric chloride	uncertainty
101	298.15	0.5069	0.0101

System: ferric chloride + water; phases: Liquid
Property: Mass density, kg/m3 (Liquid); method: Pycnometric method
Mass fraction of ferric chloride	Pressure, kPa	Temperature, K	Mass density, kg/m3	uncertainty
0.5069	101	298.15	1521.5	3.3
