Measured thermophysical data. Liquid-Liquid Equilibria for Ternary (Methyl Propyl Ketone + Hydroquinone or Resorcinol + Water) Systems at 298.15, 318.15, and 333.15 K
Source: J. Chem. Eng. Data, 2018, 10.1021/acs.jced.7b01127
Compound 1: pentan-2-one, C5H10O, InChI=1S/C5H10O/c1-3-4-5(2)6/h3-4H2,1-2H3, purity 99%
Compound 2: 1,4-benzenediol, C6H6O2, InChI=1S/C6H6O2/c7-5-1-2-6(8)4-3-5/h1-4,7-8H, purity 99.5%
Compound 3: 1,3-benzenediol, C6H6O2, InChI=1S/C6H6O2/c7-5-2-1-3-6(8)4-5/h1-4,7-8H, purity 99.5%
Compound 4: water, H2O, InChI=1S/H2O/h1H2, purity 99.9%

System: pentan-2-one + 1,4-benzenediol + water; phases: Liquid mixture 1, Liquid mixture 2
Fixed: Pressure, kPa = 101.3
Property: Mass fraction of pentan-2-one (Liquid mixture 1); method: Chromatography
Property: Mass fraction of 1,4-benzenediol (Liquid mixture 2); method: Chromatography
Property: Mass fraction of pentan-2-one (Liquid mixture 2); method: Chromatography
Temperature, K	Mass fraction of 1,4-benzenediol	Mass fraction of pentan-2-one	uncertainty	Mass fraction of 1,4-benzenediol	uncertainty	Mass fraction of pentan-2-one	uncertainty
298.15	0.0021	0.045	0.0101	0.0338	0.0132	0.9353	
318.15	0.0361	0.0428	0.0102	0.2215	0.013	0.6964	
318.15	0.0703	0.0386	0.0101	0.3362	0.013	0.5534	
318.15	0.0918	0.0367	0.01	0.3895	0.0128	0.4836	
318.15	0.1202	0.0346	0.01	0.4449	0.0126	0.4072	
333.15	0.0124	0.0488	0.0101	0.0872	0.0132	0.8501	
333.15	0.029	0.0464	0.0101	0.1809	0.0132	0.7407	
333.15	0.0454	0.0443	0.0101	0.2526	0.0131	0.6547	
333.15	0.0647	0.042	0.0101	0.3202	0.013	0.5711	
333.15	0.0859	0.0399	0.01	0.3801	0.0127	0.4943	
333.15	0.1329	0.0359	0.01	0.4774	0.0128	0.3597	
298.15	0.0068	0.0527	0.0102	0.0859	0.0131	0.8752	
298.15	0.0181	0.0556	0.0101	0.1696	0.013	0.7749	
298.15	0.0288	0.0549	0.0104	0.2289	0.0128	0.7007	
298.15	0.046	0.0479	0.0112	0.2982	0.0126	0.6098	
298.15	0.0667	0.0359	0.0111	0.3614	0.0125	0.5225	
298.15	0.0915	0.0263	0.0107	0.4293	0.0124	0.4217	
318.15	0.009	0.0466	0.0105	0.0759	0.013	0.8682	
318.15	0.0192	0.0455	0.0103	0.1403	0.0132	0.7933	

System: pentan-2-one + 1,3-benzenediol + water; phases: Liquid mixture 1, Liquid mixture 2
Fixed: Pressure, kPa = 101.3
Property: Mass fraction of pentan-2-one (Liquid mixture 1); method: Chromatography
Property: Mass fraction of 1,3-benzenediol (Liquid mixture 2); method: Chromatography
Property: Mass fraction of pentan-2-one (Liquid mixture 2); method: Chromatography
Temperature, K	Mass fraction of 1,3-benzenediol	Mass fraction of pentan-2-one	uncertainty	Mass fraction of 1,3-benzenediol	uncertainty	Mass fraction of pentan-2-one	uncertainty
298.15	0.0026	0.0401	0.01	0.0802	0.0129	0.8866	
318.15	0.0182	0.0398	0.0104	0.2005	0.0121	0.725	
318.15	0.0451	0.0315	0.0106	0.3186	0.012	0.5435	
318.15	0.0658	0.0236	0.0107	0.3775	0.0118	0.4382	
333.15	0.0028	0.0372	0.01	0.0612	0.0127	0.9034	
333.15	0.0078	0.0402	0.0102	0.1115	0.0127	0.8393	
333.15	0.0131	0.0394	0.0102	0.1463	0.0125	0.7939	
333.15	0.0194	0.0375	0.0103	0.1905	0.0121	0.7329	
333.15	0.0465	0.0301	0.0105	0.3086	0.0119	0.5517	
333.15	0.0676	0.0214	0.0108	0.3675	0.0117	0.4437	
298.15	0.0074	0.0431	0.0103	0.1441	0.0128	0.8078	
298.15	0.0112	0.041	0.0104	0.1785	0.0126	0.7633	
298.15	0.0173	0.0405	0.0102	0.2207	0.0122	0.7068	
298.15	0.0432	0.032	0.0105	0.3388	0.0121	0.5315	
298.15	0.0649	0.0259	0.0104	0.4	0.0119	0.4255	
318.15	0.0027	0.0395	0.01	0.0712	0.0126	0.8953	
318.15	0.0075	0.0421	0.01	0.1215	0.0127	0.829	
318.15	0.0121	0.0405	0.0104	0.1563	0.0126	0.7846	
