Measured thermophysical data. Measurement and Prediction of Vapor Liquid(-Liquid) Equilibria in Ternary Systems Containing Water, an Organic Component, and Cyclohexanol
Source: J. Chem. Eng. Data, 2017, 10.1021/acs.jced.7b00100
Compound 1: water, H2O, InChI=1S/H2O/h1H2, purity 99.9%
Compound 2: toluene, C7H8, InChI=1S/C7H8/c1-7-5-3-2-4-6-7/h2-6H,1H3, purity 99.8%
Compound 3: cyclohexane, C6H12, InChI=1S/C6H12/c1-2-4-6-5-3-1/h1-6H2, purity 99.5%
Compound 4: cyclohexylamine, C6H13N, InChI=1S/C6H13N/c7-6-4-2-1-3-5-6/h6H,1-5,7H2, purity 99.5%
Compound 5: cyclohexanol, C6H12O, InChI=1S/C6H12O/c7-6-4-2-1-3-5-6/h6-7H,1-5H2, purity 98%

System: cyclohexanol + cyclohexane + water; phases: Liquid mixture 1, Gas
Property: Mole fraction of cyclohexanol (Liquid mixture 1); method: Chromatography
Property: Mole fraction of cyclohexanol (Gas); method: Chromatography
Property: Mole fraction of cyclohexane (Gas); method: Chromatography
Temperature, K	Pressure, kPa	Mole fraction of cyclohexane	Mole fraction of cyclohexanol	uncertainty	Mole fraction of cyclohexanol	uncertainty	Mole fraction of cyclohexane	uncertainty
333.15	30.91	0.079	0.713	0.02	0.026	0.02	0.47	
333.15	35.08	0.174	0.736	0.02	0.019	0.019	0.744	
333.15	41.22	0.195	0.677	0.02	0.017	0.017	0.695	
333.15	41.64	0.296	0.647	0.02	0.017	0.017	0.843	
333.15	45.73	0.396	0.563	0.02	0.014	0.014	0.853	
353.15	20.8	0.033	0.925	0.02	0.166	0.02	0.432	
353.15	33.65	0.038	0.862	0.02	0.097	0.02	0.341	
353.15	42.28	0.092	0.84	0.02	0.077	0.02	0.585	
353.15	70.12	0.195	0.724	0.02	0.03	0.02	0.705	
353.15	72.04	0.116	0.702	0.02	0.035	0.02	0.504	
353.15	79.14	0.302	0.647	0.02	0.027	0.02	0.764	
353.15	81.21	0.183	0.675	0.02	0.026	0.02	0.606	
353.15	88.28	0.406	0.544	0.02	0.023	0.02	0.856	

System: cyclohexanol + cyclohexane + water; phases: Liquid mixture 1, Gas
Property: Mole fraction of cyclohexanol (Liquid mixture 1); method: Chromatography
Property: Mole fraction of cyclohexanol (Gas); method: Chromatography
Property: Mole fraction of cyclohexane (Gas); method: Chromatography
Temperature, K	Pressure, kPa	Mole fraction of cyclohexane	Mole fraction of cyclohexanol	uncertainty	Mole fraction of cyclohexanol	uncertainty	Mole fraction of cyclohexane	uncertainty
333.15	23.22	0.009	0.548	0.02	0.031	0.02	0.084	
333.15	48.42	0.129	0.541	0.02	0.015	0.015	0.609	
333.15	54.99	0.202	0.519	0.02	0.012	0.012	0.638	
333.15	62.63	0.382	0.446	0.02	0.011	0.011	0.688	
333.15	63.37	0.412	0.422	0.02	0.01	0.01	0.711	
333.15	65.82	0.546	0.348	0.02	0.009	0.009	0.724	
333.15	66.87	0.618	0.296	0.02	0.007	0.007	0.747	
333.15	67.7	0.675	0.257	0.02	0.004	0.004	0.767	
333.15	68.39	0.744	0.209	0.02	0.007	0.007	0.769	
333.15	69.04	0.786	0.178	0.02	0.006	0.006	0.774	
333.15	69.54	0.887	0.098	0.02	0.008	0.008	0.776	
353.15	50.78	0.002	0.529	0.02	0.04	0.02	0.008	
353.15	85.88	0.068	0.519	0.02	0.024	0.02	0.423	

System: cyclohexanol + cyclohexane + water; phases: Liquid mixture 1, Liquid mixture 2
Property: Mole fraction of cyclohexanol (Liquid mixture 1); method: Chromatography
Temperature, K	Pressure, kPa	Mole fraction of cyclohexane	Mole fraction of cyclohexanol	uncertainty
333.15	23.22	0.009	0.548	0.021
333.15	69.04	0.786	0.178	0.026
333.15	69.54	0.887	0.098	0.026
353.15	50.78	0.002	0.529	0.02
353.15	85.88	0.068	0.519	0.02
333.15	48.42	0.129	0.541	0.023
333.15	54.99	0.202	0.519	0.023
333.15	62.63	0.382	0.446	0.028
333.15	63.37	0.412	0.422	0.028
333.15	65.82	0.546	0.348	0.026
333.15	66.87	0.618	0.296	0.025
333.15	67.7	0.675	0.257	0.025
333.15	68.39	0.744	0.209	0.025

System: toluene + cyclohexanol + water; phases: Liquid mixture 1, Gas
Property: Mole fraction of cyclohexanol (Liquid mixture 1); method: Chromatography
Property: Mole fraction of cyclohexanol (Gas); method: Chromatography
Property: Mole fraction of toluene (Gas); method: Chromatography
Temperature, K	Pressure, kPa	Mole fraction of toluene	Mole fraction of cyclohexanol	uncertainty	Mole fraction of cyclohexanol	uncertainty	Mole fraction of toluene	uncertainty
333.15	21.77	0.297	0.583	0.02	0.039	0.02	0.478	
333.15	25.54	0.081	0.572	0.02	0.039	0.02	0.247	
333.15	25.77	0.537	0.405	0.02	0.024	0.02	0.503	
333.15	30.83	0.302	0.495	0.02	0.023	0.02	0.346	
363.15	64.3	0.34	0.585	0.02	0.062	0.02	0.46	
363.15	79.7	0.552	0.388	0.02	0.04	0.02	0.417	
363.15	85.76	0.086	0.548	0.02	0.045	0.02	0.155	
363.15	91.02	0.194	0.547	0.02	0.043	0.02	0.271	
363.15	95.62	0.351	0.474	0.02	0.035	0.02	0.319	

System: toluene + cyclohexanol + water; phases: Liquid mixture 1, Gas
Property: Mole fraction of cyclohexanol (Liquid mixture 1); method: Chromatography
Property: Mole fraction of cyclohexanol (Gas); method: Chromatography
Property: Mole fraction of toluene (Gas); method: Chromatography
Temperature, K	Pressure, kPa	Mole fraction of toluene	Mole fraction of cyclohexanol	uncertainty	Mole fraction of cyclohexanol	uncertainty	Mole fraction of toluene	uncertainty
333.15	29.88	0.15	0.512	0.02	0.027	0.02	0.303	
333.15	27.07	0.081	0.533	0.02	0.032	0.02	0.212	
333.15	32.88	0.282	0.456	0.02	0.018	0.018	0.348	
333.15	35.53	0.543	0.328	0.02	0.025	0.02	0.395	
333.15	35.85	0.609	0.298	0.02	0.018	0.018	0.414	
333.15	35.87	0.656	0.26	0.02	0.017	0.017	0.425	
358.15	86.3	0.209	0.465	0.02	0.035	0.02	0.291	
358.15	93.09	0.4	0.396	0.02	0.029	0.02	0.345	
358.15	96.17	0.571	0.302	0.02	0.024	0.02	0.376	

System: toluene + cyclohexanol + water; phases: Liquid mixture 1, Liquid mixture 2
Property: Mole fraction of cyclohexanol (Liquid mixture 1); method: Chromatography
Temperature, K	Pressure, kPa	Mole fraction of toluene	Mole fraction of cyclohexanol	uncertainty
333.15	29.88	0.15	0.512	0.023
333.15	27.07	0.081	0.533	0.02
333.15	32.88	0.282	0.456	0.023
333.15	35.53	0.543	0.328	0.022
333.15	35.85	0.609	0.298	0.024
333.15	35.87	0.656	0.26	0.026
358.15	86.3	0.209	0.465	0.02
358.15	93.09	0.4	0.396	0.022
358.15	96.17	0.571	0.302	0.022

System: cyclohexylamine + cyclohexanol + water; phases: Liquid mixture 1, Gas
Property: Mole fraction of cyclohexanol (Liquid mixture 1); method: Chromatography
Property: Mole fraction of cyclohexanol (Gas); method: Chromatography
Property: Mole fraction of cyclohexylamine (Gas); method: Chromatography
Temperature, K	Pressure, kPa	Mole fraction of cyclohexylamine	Mole fraction of cyclohexanol	uncertainty	Mole fraction of cyclohexanol	uncertainty	Mole fraction of cyclohexylamine	uncertainty
333.15	15.23	0.558	0.122	0.02	0.003	0.003	0.275	
333.15	16.64	0.206	0.504	0.02	0.036	0.02	0.051	
333.15	17.67	0.464	0.109	0.02	0.006	0.006	0.199	
333.15	18.97	0.215	0.394	0.02	0.026	0.02	0.051	
333.15	20.07	0.209	0.286	0.02	0.016	0.016	0.053	
333.15	20.7	0.293	0.091	0.02	0.006	0.006	0.108	
333.15	21.05	0.213	0.158	0.02	0.013	0.013	0.067	
333.15	21.28	0.211	0.111	0.02	0.009	0.009	0.077	
333.15	21.48	0.206	0.07	0.02	0.006	0.006	0.085	
363.15	20.92	0.519	0.443	0.02	0.114	0.02	0.546	
363.15	55.96	0.58	0.136	0.02	0.01	0.01	0.271	
363.15	64.41	0.206	0.448	0.02	0.048	0.02	0.057	
363.15	64.87	0.479	0.109	0.02	0.01	0.01	0.2	
363.15	71.16	0.206	0.333	0.02	0.037	0.02	0.055	
363.15	75.41	0.293	0.094	0.02	0.01	0.01	0.118	
363.15	75.92	0.21	0.175	0.02	0.017	0.017	0.08	
363.15	76.7	0.212	0.12	0.02	0.014	0.014	0.084	
363.15	77.68	0.21	0.074	0.02	0.011	0.011	0.098	
