Measured thermophysical data. Measurement and Correlation of High Pressure Phase Equilibria for CO2 + Alkanes and CO2 + Crude Oil Systems
Source: J. Chem. Eng. Data, 2017, 10.1021/acs.jced.7b00517
Compound 1: carbon dioxide, CO2, InChI=1S/CO2/c2-1-3
Compound 2: hexane, C6H14, InChI=1S/C6H14/c1-3-5-6-4-2/h3-6H2,1-2H3, purity 99.99%
Compound 3: octane, C8H18, InChI=1S/C8H18/c1-3-5-7-8-6-4-2/h3-8H2,1-2H3, purity 99.99%
Compound 4: nonane, C9H20, InChI=1S/C9H20/c1-3-5-7-9-8-6-4-2/h3-9H2,1-2H3, purity 99.99%
Compound 5: decane, C10H22, InChI=1S/C10H22/c1-3-5-7-9-10-8-6-4-2/h3-10H2,1-2H3, purity 99.99%
Compound 6: undecane, C11H24, InChI=1S/C11H24/c1-3-5-7-9-11-10-8-6-4-2/h3-11H2,1-2H3, purity 99.99%
Compound 7: dodecane, C12H26, InChI=1S/C12H26/c1-3-5-7-9-11-12-10-8-6-4-2/h3-12H2,1-2H3, purity 99.99%
Compound 8: tridecane, C13H28, InChI=1S/C13H28/c1-3-5-7-9-11-13-12-10-8-6-4-2/h3-13H2,1-2H3, purity 99.99%
Compound 9: tetradecane, C14H30, InChI=1S/C14H30/c1-3-5-7-9-11-13-14-12-10-8-6-4-2/h3-14H2,1-2H3, purity 99.99%
Compound 10: pentadecane, C15H32, InChI=1S/C15H32/c1-3-5-7-9-11-13-15-14-12-10-8-6-4-2/h3-15H2,1-2H3, purity 99.99%
Compound 11: hexadecane, C16H34, InChI=1S/C16H34/c1-3-5-7-9-11-13-15-16-14-12-10-8-6-4-2/h3-16H2,1-2H3, purity 99.99%

System: hexane + carbon dioxide; phases: Liquid, Gas
Property: Mole fraction of carbon dioxide (Liquid); method: Chromatography
Temperature, K	Pressure, kPa	Mole fraction of carbon dioxide	uncertainty
313.15	930	0.1094	0.1024
313.15	1390	0.1681	0.1024
313.15	2420	0.277	0.1024
313.15	3050	0.3555	0.1025
313.15	3680	0.462	0.1025
313.15	4260	0.5674	0.1025
313.15	5200	0.718	0.1025
313.15	5990	0.7704	0.1024
313.15	6500	0.7961	0.1024
313.15	6830	0.857	0.1025
353.15	1560	0.1313	0.1024
353.15	2320	0.1804	0.1024
353.15	2870	0.2371	0.1024
353.15	3980	0.3164	0.1024
353.15	4920	0.3631	0.1025
353.15	5920	0.4412	0.1025
353.15	6860	0.4962	0.1025
353.15	7670	0.5713	0.1025
353.15	8520	0.623	0.102
353.15	9700	0.7057	0.1024
353.15	10580	0.7714	0.1024

System: hexane + carbon dioxide; phases: Gas, Liquid
Property: Mole fraction of carbon dioxide (Gas); method: Chromatography
Temperature, K	Mole fraction of carbon dioxide	Mole fraction of carbon dioxide	uncertainty
313.15	0.1094	0.9299	0.0701
313.15	0.1681	0.9331	0.0669
313.15	0.277	0.9581	0.0419
313.15	0.3555	0.9668	0.0332
313.15	0.462	0.9726	0.0274
313.15	0.5674	0.9765	0.0235
313.15	0.718	0.9809	0.0191
313.15	0.7704	0.9834	0.0166
313.15	0.7961	0.9847	0.0153
313.15	0.857	0.9855	0.0145
353.15	0.1313	0.9053	0.0947
353.15	0.1804	0.9341	0.0659
353.15	0.2371	0.9512	0.0488
353.15	0.3164	0.9481	0.0519
353.15	0.3631	0.9523	0.0477
353.15	0.4412	0.9556	0.0444
353.15	0.4962	0.9468	0.0532
353.15	0.5713	0.9417	0.0583
353.15	0.623	0.9434	0.0566
353.15	0.7057	0.9392	0.0608
353.15	0.7714	0.9241	0.0759

System: octane + carbon dioxide; phases: Liquid, Gas
Property: Mole fraction of carbon dioxide (Liquid); method: Chromatography
Temperature, K	Pressure, kPa	Mole fraction of carbon dioxide	uncertainty
353.15	1710	0.1453	0.1024
353.15	2950	0.2415	0.1024
353.15	4460	0.3591	0.1024
353.15	6420	0.4936	0.1025
353.15	7710	0.5778	0.1025
353.15	8450	0.6232	0.1025
353.15	11960	0.8255	0.1024
353.15	13030	0.9148	0.0852
363.15	2880	0.2047	0.1024
363.15	3940	0.2753	0.1024
363.15	5830	0.392	0.1025
363.15	7260	0.4756	0.1025
363.15	9640	0.6051	0.1025
363.15	11650	0.7094	0.1024
363.15	12760	0.7805	0.1024
363.15	13870	0.855	0.1024
373.15	3010	0.1851	0.1024
373.15	4240	0.2545	0.1024
373.15	6110	0.3556	0.1024
373.15	8490	0.4735	0.1025
373.15	9410	0.5169	0.1025
373.15	10470	0.5657	0.1025
373.15	11710	0.6218	0.1025
373.15	12810	0.6851	0.1025
373.15	13770	0.8292	0.1025

System: octane + carbon dioxide; phases: Gas, Liquid
Property: Mole fraction of carbon dioxide (Gas); method: Chromatography
Temperature, K	Mole fraction of carbon dioxide	Mole fraction of carbon dioxide	uncertainty
353.15	0.1453	0.9809	0.0191
353.15	0.2415	0.9862	0.0138
353.15	0.3591	0.988	0.012
353.15	0.4936	0.9875	0.0125
353.15	0.5778	0.9861	0.0139
353.15	0.6232	0.9847	0.0153
353.15	0.8255	0.9674	0.0326
353.15	0.9148	0.9452	0.0548
363.15	0.2047	0.9807	0.0193
363.15	0.2753	0.9832	0.0168
363.15	0.392	0.9839	0.0161
363.15	0.4756	0.9829	0.0171
363.15	0.6051	0.9781	0.0219
363.15	0.7094	0.9692	0.0308
363.15	0.7805	0.9539	0.0461
363.15	0.855	0.9315	0.0685
373.15	0.1851	0.9749	0.0251
373.15	0.2545	0.9768	0.0232
373.15	0.3556	0.9774	0.0226
373.15	0.4735	0.9734	0.0266
373.15	0.5169	0.97	0.03
373.15	0.5657	0.9669	0.0331
373.15	0.6218	0.962	0.038
373.15	0.6851	0.949	0.051
373.15	0.8292	0.9082	0.0918

System: nonane + carbon dioxide; phases: Liquid, Gas
Property: Mole fraction of carbon dioxide (Liquid); method: Chromatography
Temperature, K	Pressure, kPa	Mole fraction of carbon dioxide	uncertainty
353.15	2140	0.1781	0.1024
353.15	3720	0.2976	0.1024
353.15	5350	0.4135	0.1025
353.15	6800	0.5201	0.1025
353.15	8630	0.6306	0.1024
353.15	10060	0.7168	0.1024
353.15	11950	0.8352	0.1024
353.15	12860	0.9027	0.0973
363.15	2020	0.1745	0.1024
363.15	3220	0.2703	0.1024
363.15	4490	0.364	0.1024
363.15	6470	0.4969	0.1025
363.15	8990	0.643	0.1024
363.15	11170	0.7515	0.1024
363.15	13120	0.8528	0.1024
363.15	14010	0.9262	0.0738
373.15	2110	0.1465	0.1024
373.15	3510	0.2382	0.1024
373.15	4890	0.3198	0.1024
373.15	6380	0.4063	0.1025
373.15	7670	0.4752	0.1025
373.15	9740	0.5773	0.1025
373.15	11150	0.647	0.1025
373.15	12580	0.7298	0.1024
373.15	14840	0.8683	0.1024

System: nonane + carbon dioxide; phases: Gas, Liquid
Property: Mole fraction of carbon dioxide (Gas); method: Chromatography
Temperature, K	Mole fraction of carbon dioxide	Mole fraction of carbon dioxide	uncertainty
353.15	0.1781	0.9946	0.0054
353.15	0.2976	0.9955	0.0045
353.15	0.4135	0.9953	0.0047
353.15	0.5201	0.9945	0.0055
353.15	0.6306	0.9925	0.0075
353.15	0.7168	0.9892	0.0108
353.15	0.8352	0.9784	0.0216
353.15	0.9027	0.9709	0.0291
363.15	0.1745	0.9886	0.0114
363.15	0.2703	0.991	0.009
363.15	0.364	0.9917	0.0083
363.15	0.4969	0.9912	0.0088
363.15	0.643	0.9884	0.0116
363.15	0.7515	0.9833	0.0167
363.15	0.8528	0.979	0.021
363.15	0.9262	0.965	0.035
373.15	0.1465	0.9873	0.0127
373.15	0.2382	0.9891	0.0109
373.15	0.3198	0.9894	0.0106
373.15	0.4063	0.9898	0.0102
373.15	0.4752	0.9887	0.0113
373.15	0.5773	0.9861	0.0139
373.15	0.647	0.9832	0.0168
373.15	0.7298	0.9758	0.0242
373.15	0.8683	0.9335	0.0665

System: decane + carbon dioxide; phases: Liquid, Gas
Property: Mole fraction of carbon dioxide (Liquid); method: Chromatography
Temperature, K	Pressure, kPa	Mole fraction of carbon dioxide	uncertainty
353.15	2920	0.2179	0.1024
353.15	4240	0.3071	0.1024
353.15	6120	0.4246	0.1025
353.15	8460	0.5573	0.1025
353.15	10580	0.6675	0.1024
353.15	12070	0.7419	0.1024
353.15	13570	0.8179	0.1024
353.15	14590	0.8777	0.1024
363.15	2930	0.2077	0.1024
363.15	4390	0.3015	0.1024
363.15	7300	0.4673	0.1025
363.15	10150	0.6099	0.1024
363.15	12170	0.7016	0.1024
363.15	14210	0.8004	0.1024
363.15	15400	0.8595	0.1024
373.15	3330	0.2138	0.1024
373.15	5460	0.3359	0.1024
373.15	6320	0.3403	0.1024
373.15	8510	0.4872	0.1025
373.15	10520	0.5758	0.1025
373.15	11890	0.6321	0.1024
373.15	13570	0.7002	0.1024
373.15	15290	0.7915	0.1024

System: decane + carbon dioxide; phases: Gas, Liquid
Property: Mole fraction of carbon dioxide (Gas); method: Chromatography
Temperature, K	Mole fraction of carbon dioxide	Mole fraction of carbon dioxide	uncertainty
353.15	0.2179	0.9966	0.0034
353.15	0.3071	0.9968	0.0032
353.15	0.4246	0.9963	0.0037
353.15	0.5573	0.9948	0.0052
353.15	0.6675	0.9917	0.0083
353.15	0.7419	0.9873	0.0127
353.15	0.8179	0.9784	0.0216
353.15	0.8777	0.9647	0.0353
363.15	0.2077	0.9951	0.0049
363.15	0.3015	0.9955	0.0045
363.15	0.4673	0.9945	0.0055
363.15	0.6099	0.9914	0.0086
363.15	0.7016	0.9868	0.0132
363.15	0.8004	0.9844	0.0156
363.15	0.8595	0.9738	0.0262
373.15	0.2138	0.9937	0.0063
373.15	0.3359	0.9932	0.0068
373.15	0.3403	0.993	0.007
373.15	0.4872	0.9917	0.0083
373.15	0.5758	0.9876	0.0124
373.15	0.6321	0.983	0.017
373.15	0.7002	0.9783	0.0217
373.15	0.7915	0.9638	0.0362

System: undecane + carbon dioxide; phases: Liquid, Gas
Property: Mole fraction of carbon dioxide (Liquid); method: Chromatography
Temperature, K	Pressure, kPa	Mole fraction of carbon dioxide	uncertainty
353.15	2860	0.1919	0.1024
353.15	3990	0.3213	0.1024
353.15	5830	0.4852	0.1025
353.15	7080	0.5857	0.1025
353.15	8510	0.6683	0.1025
353.15	10430	0.7631	0.1024
353.15	11860	0.8301	0.1024
353.15	12920	0.8658	0.1024
353.15	14470	0.9348	0.0652
363.15	1990	0.1552	0.1024
363.15	3860	0.2869	0.1024
363.15	6020	0.4223	0.1025
363.15	7590	0.511	0.1025
363.15	10390	0.6526	0.1025
363.15	12460	0.7449	0.1024
363.15	13950	0.7986	0.1024
373.15	3640	0.2248	0.1024
373.15	5570	0.3282	0.1024
373.15	7040	0.3985	0.1025
373.15	8490	0.4628	0.1025
373.15	9820	0.5191	0.1025
373.15	11530	0.5852	0.1025
373.15	13140	0.6407	0.1025
373.15	15140	0.7151	0.1025
373.15	16310	0.7615	0.1025

System: undecane + carbon dioxide; phases: Gas, Liquid
Property: Mole fraction of carbon dioxide (Gas); method: Chromatography
Temperature, K	Mole fraction of carbon dioxide	Mole fraction of carbon dioxide	uncertainty
353.15	0.1919	0.9979	0.0021
353.15	0.3213	0.9981	0.0019
353.15	0.4852	0.9979	0.0021
353.15	0.5857	0.9973	0.0027
353.15	0.6683	0.9964	0.0036
353.15	0.7631	0.9944	0.0056
353.15	0.8301	0.9911	0.0089
353.15	0.8658	0.9879	0.0121
353.15	0.9348	0.9872	0.0128
363.15	0.1552	0.9967	0.0033
363.15	0.2869	0.9973	0.0027
363.15	0.4223	0.9971	0.0029
363.15	0.511	0.9964	0.0036
363.15	0.6526	0.9939	0.0061
363.15	0.7449	0.9901	0.0099
363.15	0.7986	0.9849	0.0151
373.15	0.2248	0.9962	0.0038
373.15	0.3282	0.9965	0.0035
373.15	0.3985	0.9958	0.0042
373.15	0.4628	0.995	0.005
373.15	0.5191	0.9934	0.0066
373.15	0.5852	0.9918	0.0082
373.15	0.6407	0.9894	0.0106
373.15	0.7151	0.9805	0.0195
373.15	0.7615	0.9595	0.0405

System: dodecane + carbon dioxide; phases: Liquid, Gas
Property: Mole fraction of carbon dioxide (Liquid); method: Chromatography
Temperature, K	Pressure, kPa	Mole fraction of carbon dioxide	uncertainty
353.15	1170	0.1034	0.1024
353.15	2470	0.2091	0.1024
353.15	3340	0.2764	0.1024
353.15	5980	0.4604	0.1025
353.15	8350	0.6034	0.1025
353.15	10270	0.7067	0.1024
353.15	12490	0.8139	0.1024
353.15	14370	0.8925	0.1024
363.15	1690	0.1372	0.1024
363.15	3770	0.2886	0.1024
363.15	4870	0.3608	0.1024
363.15	6720	0.4726	0.1025
363.15	8930	0.5919	0.1025
363.15	10610	0.6727	0.1024
363.15	12930	0.7728	0.1024
363.15	14400	0.8349	0.1024
363.15	16540	0.9194	0.0806
373.15	3490	0.2348	0.1024
373.15	4930	0.3197	0.1024
373.15	6620	0.4106	0.1025
373.15	8060	0.4825	0.1025
373.15	9620	0.5526	0.1025
373.15	11110	0.6158	0.1025
373.15	12590	0.6738	0.1024
373.15	13830	0.7205	0.1024
373.15	15020	0.7615	0.1024
373.15	15790	0.7865	0.1024
373.15	17540	0.8451	0.1024

System: dodecane + carbon dioxide; phases: Gas, Liquid
Property: Mole fraction of carbon dioxide (Gas); method: Chromatography
Temperature, K	Mole fraction of carbon dioxide	Mole fraction of carbon dioxide	uncertainty
353.15	0.1034	0.9997	0.0003
353.15	0.2091	0.9997	0.0003
353.15	0.2764	0.9997	0.0003
353.15	0.4604	0.9996	0.0004
353.15	0.6034	0.9992	0.0008
353.15	0.7067	0.9985	0.0015
353.15	0.8139	0.9963	0.0037
353.15	0.8925	0.9914	0.0086
363.15	0.1372	0.9996	0.0004
363.15	0.2886	0.9996	0.0004
363.15	0.3608	0.9995	0.0005
363.15	0.4726	0.9993	0.0007
363.15	0.5919	0.9988	0.0012
363.15	0.6727	0.9982	0.0018
363.15	0.7728	0.9961	0.0039
363.15	0.8349	0.9854	0.0146
363.15	0.9194	0.9739	0.0261
373.15	0.2348	0.9954	0.0046
373.15	0.3197	0.9959	0.0041
373.15	0.4106	0.9962	0.0038
373.15	0.4825	0.9964	0.0036
373.15	0.5526	0.9964	0.0036
373.15	0.6158	0.9952	0.0048
373.15	0.6738	0.9931	0.0069
373.15	0.7205	0.9905	0.0095
373.15	0.7615	0.9846	0.0154
373.15	0.7865	0.9772	0.0228
373.15	0.8451	0.9584	0.0416

System: tridecane + carbon dioxide; phases: Liquid, Gas
Property: Mole fraction of carbon dioxide (Liquid); method: Chromatography
Temperature, K	Pressure, kPa	Mole fraction of carbon dioxide	uncertainty
353.15	950	0.0909	0.0909
353.15	2540	0.2321	0.1024
353.15	3670	0.3256	0.1024
353.15	5540	0.4682	0.1025
353.15	7120	0.5759	0.1025
353.15	8830	0.6793	0.1025
353.15	10370	0.7604	0.1024
353.15	12080	0.8349	0.1024
353.15	14010	0.9036	0.0964
363.15	1810	0.1425	0.1024
363.15	3770	0.2822	0.1024
363.15	4810	0.3507	0.1025
363.15	6670	0.4634	0.1025
363.15	8480	0.5622	0.1025
363.15	11070	0.6876	0.1025
363.15	12380	0.7442	0.1025
363.15	13750	0.7992	0.1024
373.15	1800	0.1137	0.1024
373.15	3390	0.2052	0.1024
373.15	5150	0.2961	0.1024
373.15	7880	0.4206	0.1025
373.15	10140	0.509	0.1025
373.15	12450	0.5878	0.1025
373.15	14550	0.6507	0.1025

System: tridecane + carbon dioxide; phases: Gas, Liquid
Property: Mole fraction of carbon dioxide (Gas); method: Chromatography
Temperature, K	Mole fraction of carbon dioxide	Mole fraction of carbon dioxide	uncertainty
353.15	0.0909	0.9993	0.0007
353.15	0.2321	0.9995	0.0005
353.15	0.3256	0.9995	0.0005
353.15	0.4682	0.9993	0.0007
353.15	0.5759	0.9991	0.0009
353.15	0.6793	0.9985	0.0015
353.15	0.7604	0.9976	0.0024
353.15	0.8349	0.9957	0.0043
353.15	0.9036	0.9906	0.0094
363.15	0.1425	0.9992	0.0008
363.15	0.2822	0.9992	0.0008
363.15	0.3507	0.9992	0.0008
363.15	0.4634	0.9989	0.0011
363.15	0.5622	0.9984	0.0016
363.15	0.6876	0.9969	0.0031
363.15	0.7442	0.9955	0.0045
363.15	0.7992	0.993	0.007
373.15	0.1137	0.9987	0.0013
373.15	0.2052	0.999	0.001
373.15	0.2961	0.9988	0.0012
373.15	0.4206	0.9983	0.0017
373.15	0.509	0.9975	0.0025
373.15	0.5878	0.9959	0.0041
373.15	0.6507	0.9933	0.0067

System: tetradecane + carbon dioxide; phases: Liquid, Gas
Property: Mole fraction of carbon dioxide (Liquid); method: Chromatography
Temperature, K	Pressure, kPa	Mole fraction of carbon dioxide	uncertainty
353.15	1020	0.0787	0.0787
353.15	2590	0.1921	0.1024
353.15	4030	0.2878	0.1024
353.15	6210	0.4195	0.1025
353.15	8710	0.5529	0.1025
353.15	10830	0.6536	0.1024
353.15	12130	0.7115	0.1024
353.15	13130	0.7552	0.1024
353.15	14490	0.815	0.1024
353.15	15030	0.8401	0.1024
353.15	15600	0.8691	0.1024
353.15	15680	0.8732	0.1024
363.15	1210	0.0871	0.0871
363.15	3600	0.2429	0.1024
363.15	5710	0.3639	0.1024
363.15	8720	0.5136	0.1025
363.15	9950	0.5676	0.1025
363.15	11470	0.63	0.1025
363.15	12780	0.6805	0.1024
363.15	14140	0.7301	0.1024
363.15	15540	0.7804	0.1024
363.15	16640	0.8212	0.1024
373.15	1710	0.1042	0.1024
373.15	2810	0.1657	0.1024
373.15	3720	0.2131	0.1024
373.15	7210	0.3731	0.1025
373.15	10160	0.4818	0.1025
373.15	12700	0.5577	0.1025
373.15	16000	0.6818	0.1025
373.15	18810	0.7318	0.1025
373.15	20860	0.7833	0.1025

System: tetradecane + carbon dioxide; phases: Gas, Liquid
Property: Mole fraction of carbon dioxide (Gas); method: Chromatography
Temperature, K	Mole fraction of carbon dioxide	Mole fraction of carbon dioxide	uncertainty
353.15	0.0787	0.9997	0.0003
353.15	0.1921	0.9997	0.0003
353.15	0.2878	0.9997	0.0003
353.15	0.4195	0.9995	0.0005
353.15	0.5529	0.999	0.001
353.15	0.6536	0.9979	0.0021
353.15	0.7115	0.9966	0.0034
353.15	0.7552	0.9948	0.0052
353.15	0.815	0.9906	0.0094
353.15	0.8401	0.9878	0.0122
353.15	0.8691	0.9833	0.0167
353.15	0.8732	0.9825	0.0175
363.15	0.0871	0.9995	0.0005
363.15	0.2429	0.9996	0.0004
363.15	0.3639	0.9994	0.0006
363.15	0.5136	0.9988	0.0012
363.15	0.5676	0.9984	0.0016
363.15	0.63	0.9974	0.0026
363.15	0.6805	0.9961	0.0039
363.15	0.7301	0.9939	0.0061
363.15	0.7804	0.9902	0.0098
363.15	0.8212	0.9853	0.0147
373.15	0.1042	0.9993	0.0007
373.15	0.1657	0.9994	0.0006
373.15	0.2131	0.9994	0.0006
373.15	0.3731	0.999	0.001
373.15	0.4818	0.9982	0.0018
373.15	0.5577	0.9967	0.0033
373.15	0.6818	0.9871	0.0129
373.15	0.7318	0.9813	0.0187
373.15	0.7833	0.9752	0.0248

System: pentadecane + carbon dioxide; phases: Liquid, Gas
Property: Mole fraction of carbon dioxide (Liquid); method: Chromatography
Temperature, K	Pressure, kPa	Mole fraction of carbon dioxide	uncertainty
353.15	1040	0.0879	0.0879
353.15	2500	0.2032	0.1024
353.15	3850	0.3022	0.1024
353.15	5810	0.4298	0.1025
353.15	7120	0.5087	0.1025
353.15	8600	0.5908	0.1025
353.15	9620	0.6445	0.1024
353.15	10590	0.6925	0.1024
353.15	11800	0.7508	0.1024
353.15	12870	0.7987	0.1024
353.15	13510	0.8271	0.1024
353.15	14360	0.8621	0.1024
363.15	1270	0.1035	0.1024
363.15	4290	0.3184	0.1024
363.15	6290	0.4297	0.1025
363.15	7930	0.529	0.1025
363.15	9130	0.5889	0.1025
363.15	10870	0.6682	0.1024
363.15	11670	0.7015	0.1024
363.15	12940	0.7516	0.1024
363.15	13040	0.7563	0.1024
363.15	14170	0.7927	0.1024
363.15	14730	0.8152	0.1024
373.15	2050	0.1522	0.1024
373.15	3870	0.2718	0.1024
373.15	6300	0.4118	0.1025
373.15	7760	0.4857	0.1025
373.15	8580	0.5247	0.1025
373.15	10310	0.6007	0.1025
373.15	11580	0.6517	0.1024
373.15	13030	0.7066	0.1024
373.15	14410	0.7563	0.1024
373.15	15430	0.7927	0.1024
373.15	16060	0.8152	0.1024

System: pentadecane + carbon dioxide; phases: Gas, Liquid
Property: Mole fraction of carbon dioxide (Gas); method: Chromatography
Temperature, K	Mole fraction of carbon dioxide	Mole fraction of carbon dioxide	uncertainty
353.15	0.0879	0.9985	0.0015
353.15	0.2032	0.9982	0.0018
353.15	0.3022	0.9985	0.0015
353.15	0.4298	0.9981	0.0019
353.15	0.5087	0.9993	0.0007
353.15	0.5908	0.999	0.001
353.15	0.6445	0.9988	0.0012
353.15	0.6925	0.9982	0.0018
353.15	0.7508	0.9971	0.0029
353.15	0.7987	0.9957	0.0043
353.15	0.8271	0.9925	0.0075
353.15	0.8621	0.9883	0.0117
363.15	0.1035	0.9994	0.0006
363.15	0.3184	0.9995	0.0005
363.15	0.4297	0.9994	0.0006
363.15	0.529	0.9991	0.0009
363.15	0.5889	0.9988	0.0012
363.15	0.6682	0.9982	0.0018
363.15	0.7015	0.9977	0.0023
363.15	0.7516	0.9967	0.0033
363.15	0.7563	0.9966	0.0034
363.15	0.7927	0.9964	0.0036
363.15	0.8152	0.9951	0.0049
373.15	0.1522	0.9997	0.0003
373.15	0.2718	0.9997	0.0003
373.15	0.4118	0.9995	0.0005
373.15	0.4857	0.9994	0.0006
373.15	0.5247	0.9992	0.0008
373.15	0.6007	0.9987	0.0013
373.15	0.6517	0.9981	0.0019
373.15	0.7066	0.997	0.003
373.15	0.7563	0.9953	0.0047
373.15	0.7927	0.9933	0.0067
373.15	0.8152	0.9916	0.0084

System: hexadecane + carbon dioxide; phases: Liquid, Gas
Property: Mole fraction of carbon dioxide (Liquid); method: Chromatography
Temperature, K	Pressure, kPa	Mole fraction of carbon dioxide	uncertainty
353.15	1550	0.1074	0.1024
353.15	3270	0.2195	0.1024
353.15	4570	0.2997	0.1024
353.15	6620	0.4188	0.1025
353.15	8280	0.5093	0.1025
353.15	9920	0.5949	0.1025
353.15	10530	0.6255	0.1024
353.15	11590	0.6772	0.1024
353.15	12870	0.7386	0.1024
353.15	13720	0.7787	0.1024
363.15	2830	0.1826	0.1024
363.15	5330	0.3287	0.1024
363.15	6290	0.3804	0.1025
363.15	7990	0.4686	0.1025
363.15	9840	0.5591	0.1025
363.15	10840	0.6058	0.1025
363.15	12260	0.6694	0.1024
363.15	13530	0.7221	0.1024
363.15	14670	0.7609	0.1024
363.15	15830	0.806	0.1024
363.15	16520	0.8305	0.1024
373.15	2410	0.1426	0.1024
373.15	4210	0.24	0.1024
373.15	6040	0.3315	0.1024
373.15	6660	0.361	0.1024
373.15	7720	0.4098	0.1025
373.15	11280	0.5594	0.1025
373.15	14100	0.6651	0.1024
373.15	16510	0.7499	0.1024
373.15	18560	0.8198	0.1024

System: hexadecane + carbon dioxide; phases: Gas, Liquid
Property: Mole fraction of carbon dioxide (Gas); method: Chromatography
Temperature, K	Mole fraction of carbon dioxide	Mole fraction of carbon dioxide	uncertainty
353.15	0.1074	0.9999	0.0001
353.15	0.2195	0.9999	0.0001
353.15	0.2997	0.9999	0.0001
353.15	0.4188	0.9998	0.0002
353.15	0.5093	0.9997	0.0003
353.15	0.5949	0.9996	0.0004
353.15	0.6255	0.9994	0.0006
353.15	0.6772	0.999	0.001
353.15	0.7386	0.9983	0.0017
353.15	0.7787	0.9975	0.0025
363.15	0.1826	0.9999	0.0001
363.15	0.3287	0.9998	0.0002
363.15	0.3804	0.9998	0.0002
363.15	0.4686	0.9997	0.0003
363.15	0.5591	0.9995	0.0005
363.15	0.6058	0.9993	0.0007
363.15	0.6694	0.9988	0.0012
363.15	0.7221	0.9972	0.0028
363.15	0.7609	0.9955	0.0045
363.15	0.806	0.9939	0.0061
363.15	0.8305	0.9921	0.0079
373.15	0.1426	0.9999	0.0001
373.15	0.24	0.9998	0.0002
373.15	0.3315	0.9998	0.0002
373.15	0.361	0.9998	0.0002
373.15	0.4098	0.9997	0.0003
373.15	0.5594	0.9991	0.0009
373.15	0.6651	0.9978	0.0022
373.15	0.7499	0.9952	0.0048
373.15	0.8198	0.9909	0.0091
