Measured thermophysical data. Experimental Isobaric Vapor Liquid Equilibrium for Binary Systems Diethylene Glycol Dibenzoate + Diethylene Glycol, Diethylene Glycol Dibenzoate + Octyl Benzoate, and Ternary System Diethylene Glycol Dibenzoate + Diethylene Glycol + Octyl Benzoate at 1.0152 kPa
Source: J. Chem. Eng. Data, 2018, 10.1021/acs.jced.8b00460
Compound 1: diethylene glycol, C4H10O3, InChI=1S/C4H10O3/c5-1-3-7-4-2-6/h5-6H,1-4H2
Compound 2: octyl benzoate, C15H22O2, InChI=1S/C15H22O2/c1-2-3-4-5-6-10-13-17-15(16)14-11-8-7-9-12-14/h7-9,11-12H,2-6,10,13H2,1H3
Compound 3: diethylene glycol dibenzoate, C18H18O5, InChI=1S/C18H18O5/c19-17(15-7-3-1-4-8-15)22-13-11-21-12-14-23-18(20)16-9-5-2-6-10-16/h1-10H,11-14H2

System: diethylene glycol dibenzoate; phases: Liquid, Gas
Property: Vapor or sublimation pressure, kPa (Liquid); method: Ebulliometric method (Recirculating still)
Temperature, K	Vapor or sublimation pressure, kPa	uncertainty
511.35	1.0152	0.1023

System: diethylene glycol dibenzoate + diethylene glycol; phases: Liquid, Gas
Fixed: Pressure, kPa = 1.0152
Property: Boiling temperature at pressure P, K (Liquid); method: Ebulliometric method (Recirculating still)
Mole fraction of diethylene glycol dibenzoate	Boiling temperature at pressure P, K	uncertainty
0.9046	506.93	2.19
0.9243	507.68	2.2
0.9343	508.28	2.21
0.947	508.82	2.2
0.9573	509.35	2.17
0.9637	509.55	2.17
0.9793	509.76	2.18
0.9842	509.95	2.18
0.9906	510.38	2.22
0.9992	510.85	2.16
1	511.35	2.16

System: diethylene glycol dibenzoate + diethylene glycol; phases: Gas, Liquid
Fixed: Pressure, kPa = 1.0152
Property: Mole fraction of diethylene glycol dibenzoate (Gas); method: Chromatography
Mole fraction of diethylene glycol dibenzoate	Mole fraction of diethylene glycol dibenzoate	uncertainty
0.9046	0.1215	0.1215
0.9243	0.2834	0.2834
0.9343	0.3678	0.3678
0.947	0.4826	0.4001
0.9573	0.5752	0.4001
0.9637	0.6375	0.3625
0.9793	0.7785	0.2215
0.9842	0.8277	0.1723
0.9906	0.8975	0.1025
0.9992	0.9827	0.0173
1	1	

System: diethylene glycol dibenzoate + octyl benzoate; phases: Liquid, Gas
Fixed: Pressure, kPa = 1.0152
Property: Boiling temperature at pressure P, K (Liquid); method: Ebulliometric method (Recirculating still)
Mole fraction of diethylene glycol dibenzoate	Boiling temperature at pressure P, K	uncertainty
0.935	506.93	2.25
0.9466	507.68	2.24
0.9573	508.28	2.26
0.9652	508.82	2.25
0.9719	509.35	2.22
0.9757	509.55	2.19
0.9846	509.76	2.2
0.9925	509.95	2.16
0.9948	510.38	2.18
0.9971	510.85	2.17
1	511.35	2.16

System: diethylene glycol dibenzoate + octyl benzoate; phases: Gas, Liquid
Fixed: Pressure, kPa = 1.0152
Property: Mole fraction of diethylene glycol dibenzoate (Gas); method: Chromatography
Mole fraction of diethylene glycol dibenzoate	Mole fraction of diethylene glycol dibenzoate	uncertainty
0.935	0.08527	0.08527
0.9466	0.2354	0.2354
0.9573	0.3784	0.3784
0.9652	0.4915	0.4002
0.9719	0.5785	0.4002
0.9757	0.6398	0.3602
0.9846	0.7575	0.2425
0.9925	0.8724	0.1276
0.9948	0.9052	0.0948
0.9971	0.9462	0.0538
1	1	

System: diethylene glycol dibenzoate + diethylene glycol + octyl benzoate; phases: Liquid, Gas
Fixed: Pressure, kPa = 1.0152
Property: Mole fraction of diethylene glycol (Liquid); method: Chromatography
Property: Mole fraction of diethylene glycol (Gas); method: Chromatography
Property: Mole fraction of diethylene glycol dibenzoate (Gas); method: Chromatography
Temperature, K	Mole fraction of diethylene glycol dibenzoate	Mole fraction of diethylene glycol	uncertainty	Mole fraction of diethylene glycol	uncertainty	Mole fraction of diethylene glycol dibenzoate	uncertainty
506.27	0.9253	0.0286	0.01	0.3085	0.0111	0.0427	
508.62	0.9627	0.0282	0.01	0.3256	0.011	0.5498	
508.66	0.9622	0.0311	0.01	0.3222	0.011	0.5766	
508.87	0.9742	0.0041	0.0041	0.0419	0.01	0.6158	
509.27	0.9727	0.0249	0.01	0.2657	0.0106	0.6925	
509.47	0.9763	0.0217	0.01	0.239	0.0104	0.7466	
509.76	0.9825	0.0145	0.01	0.1698	0.0102	0.7965	
509.91	0.9847	0.0117	0.01	0.1349	0.0101	0.7996	
510.48	0.9926	0.0053	0.0053	0.0626	0.01	0.9054	
510.74	0.9957	0.0032	0.0032	0.0377	0.01	0.9365	
506.78	0.9162	0.0694	0.01	0.6821	0.0118	0.1134	
507.34	0.9283	0.0584	0.01	0.5894	0.0126	0.2253	
507.53	0.9362	0.0472	0.01	0.489	0.0132	0.2744	
507.82	0.9435	0.0431	0.01	0.4176	0.0121	0.3725	
508.14	0.9579	0.0033	0.0033	0.0162	0.01	0.3902	
508.22	0.9489	0.0351	0.01	0.3468	0.0113	0.3947	
508.39	0.9548	0.0329	0.01	0.3296	0.0111	0.4826	
508.41	0.9584	0.0312	0.01	0.343	0.0112	0.5026	
