Measured thermophysical data. Extension of Vibrating-Wire Viscometry to Electrically Conducting Fluids and Measurements of Viscosity and Density of Brines with Dissolved CO2 at Reservoir Conditions
Source: J. Chem. Eng. Data, 2019, 10.1021/acs.jced.9b00248
Compound 1: calcium chloride, CaCl2, InChI=1S/Ca.2ClH/h;2*1H/q+2;;/p-2, purity 99%
Compound 2: carbon dioxide, CO2, InChI=1S/CO2/c2-1-3, purity 99.995%
Compound 3: sodium chloride, ClNa, InChI=1S/ClH.Na/h1H;/q;+1/p-1, purity 99.5%
Compound 4: water, H2O, InChI=1S/H2O/h1H2, purity 99.9%

System: carbon dioxide + calcium chloride + water; phases: Liquid
Property: Mass density, kg/m3 (Liquid); method: Vibrating tube method
Molality, mol/kg of calcium chloride	Molality, mol/kg of carbon dioxide	Temperature, K	Pressure, kPa	Mass density, kg/m3	uncertainty
1	0	274.87	1270	1088.12	0.8
1	0	274.87	15180	1094.18	0.9
1	0	274.87	30070	1100.27	0.92
1	0	274.87	49880	1108.27	0.87
1	0	274.87	69750	1115.89	0.98
1	0	274.87	99730	1126.88	1.04
1	0	296.18	1280	1082.39	0.86
1	0	296.18	15170	1087.93	0.85
1	0	296.18	30070	1093.68	0.93
1	0	296.18	49900	1101.19	0.94
1	0	296.18	69750	1108.4	0.97
1	0	296.18	99730	1118.84	1.03
1	0	323.31	1240	1071.6	0.82
1	0	323.31	15190	1077.19	0.87
1	0	323.31	30070	1082.81	0.89
1	0	323.31	49880	1090.06	0.91
1	0	323.31	69760	1097.04	0.93
1	0	323.31	99750	1107.2	1
1	0	348.2	1300	1058.82	0.79
1	0	348.2	15220	1064.57	0.82
1	0	348.2	30100	1070.33	0.84
1	0	348.2	49930	1077.65	0.87
1	0	348.2	69790	1084.72	0.89
1	0	348.2	99770	1094.89	0.96
1	0	373.22	1320	1042.78	0.78
1	0	373.22	15230	1048.82	0.8
1	0	373.22	30130	1054.88	0.81
1	0	373.22	49940	1062.61	0.83
1	0	373.22	69790	1070	0.86
1	0	373.22	99790	1080.38	0.91
1	0	398.28	1320	1024.8	0.77
1	0	398.28	15230	1031.2	0.78
1	0	398.28	30120	1037.76	0.79
1	0	398.28	49940	1045.99	0.81
1	0	398.28	69780	1053.7	0.82
1	0	398.28	99790	1064.71	0.87
1	0	423.6	1340	1004.42	0.76
1	0	423.6	15250	1011.3	0.77
1	0	423.6	30150	1018.56	0.77
1	0	423.6	49950	1027.46	0.79
1	0	423.6	69820	1035.71	0.8
1	0	423.6	99810	1047.43	0.83
1	0	448.84	1360	982.19	0.76
1	0	448.84	15270	989.78	0.76
1	0	448.84	30160	997.78	0.76
1	0	448.84	49980	1007.39	0.76
1	0	448.84	69830	1016.54	0.77
1	0	448.84	99810	1029.19	0.79
1	0.0052	274.93	15230	1095.95	0.8
1	0.0052	274.93	30100	1102.2	0.83
1	0.0052	274.93	49960	1110.12	0.84
1	0.0052	274.93	69810	1117.84	0.89
1	0.0052	274.93	99770	1128.61	0.97
1	0.0052	296.18	15220	1089.5	0.79
1	0.0052	296.18	30110	1095.4	0.81
1	0.0052	296.18	49950	1102.9	0.84
1	0.0052	296.18	69790	1110.07	0.88
1	0.0052	296.18	99790	1120.45	0.95
1	0.0052	323.3	15250	1078.28	0.79
1	0.0052	323.3	30140	1084.08	0.81
1	0.0052	323.3	49980	1091.43	0.83
1	0.0052	323.3	69830	1098.43	0.86
1	0.0052	323.3	99770	1108.64	0.92
1	0.0052	348.17	15270	1065.06	0.78
1	0.0052	348.17	30150	1071	0.8
1	0.0052	348.17	50000	1078.6	0.81
1	0.0052	348.17	69830	1085.75	0.84
1	0.0052	348.17	99780	1096.01	0.88
1	0.0052	373.22	15270	1049.19	0.78
1	0.0052	373.22	30160	1055.45	0.79
1	0.0052	373.22	49990	1063.39	0.79
1	0.0052	373.22	69850	1070.85	0.81
1	0.0052	373.22	99810	1081.45	0.85
1	0.0052	398.23	15290	1031.24	0.75
1	0.0052	398.23	30180	1037.93	0.76
1	0.0052	398.23	50020	1046.43	0.76
1	0.0052	398.23	69880	1054.29	0.78
1	0.0052	398.23	99810	1065.5	0.81
1	0.0052	423.58	15290	1011.17	0.73
1	0.0052	423.58	30190	1018.37	0.73
1	0.0052	423.58	50030	1027.67	0.74
1	0.0052	423.58	69860	1036.13	0.75
1	0.0052	423.58	99810	1048.13	0.77
1	0.0052	448.84	15310	989.26	0.68
1	0.0052	448.84	30190	997.1	0.68
1	0.0052	448.84	50030	1007.25	0.69
1	0.0052	448.84	69890	1016.39	0.7
1	0.0052	448.84	99830	1029.42	0.72
1	0.0095	275	15240	1097.91	0.8
1	0.0095	275	30130	1104.28	0.83
1	0.0095	275	49980	1111.83	0.86
1	0.0095	275	69820	1119.49	0.9
1	0.0095	275	99790	1130.36	0.99
1	0.0095	296.22	15250	1091.33	0.81
1	0.0095	296.22	30080	1097.05	0.84
1	0.0095	296.22	49920	1104.48	0.86
1	0.0095	296.22	69770	1111.6	0.91
1	0.0095	296.22	99790	1122.03	0.97
1	0.0095	323.31	15260	1080.19	0.85
1	0.0095	323.31	30150	1085.85	0.87
1	0.0095	323.31	50010	1093.16	0.88
1	0.0095	323.31	69860	1100.23	0.91
1	0.0095	323.31	99830	1110.37	0.96
1	0.0095	348.17	15290	1067.02	0.98
1	0.0095	348.17	30170	1072.8	1.01
1	0.0095	348.17	50020	1080.25	0.89
1	0.0095	348.17	69870	1087.4	0.91
1	0.0095	348.17	99820	1097.65	0.94
1	0.0095	373.22	15310	1051.15	1.07
1	0.0095	373.22	30200	1057.23	1.08
1	0.0095	373.22	50040	1064.97	0.88
1	0.0095	373.22	69880	1072.37	0.9
1	0.0095	373.22	99810	1083	0.9
1	0.0095	398.24	15310	1033.21	1.12
1	0.0095	398.24	30200	1039.69	1.11
1	0.0095	398.24	50040	1048.04	0.86
1	0.0095	398.24	69880	1055.85	0.87
1	0.0095	398.24	99820	1066.96	0.86
1	0.0095	423.59	15320	1013.15	1.14
1	0.0095	423.59	30210	1020.2	1.12
1	0.0095	423.59	50050	1029.25	0.82
1	0.0095	423.59	69880	1037.7	0.83
1	0.0095	423.59	99820	1049.43	0.83
1	0.0095	448.85	15310	991.1	1.25
1	0.0095	448.85	30210	998.83	1.03
1	0.0095	448.85	50040	1008.86	0.73
1	0.0095	448.85	69880	1017.95	0.74
1	0.0095	448.85	99820	1030.76	0.75
1	0.0139	274.93	15170	1099.49	0.8
1	0.0139	274.93	30070	1105.75	0.82
1	0.0139	274.93	49900	1113.62	0.87
1	0.0139	274.93	69740	1121.01	0.92
1	0.0139	274.93	99680	1131.95	1
1	0.0139	296.21	15230	1092.96	0.81
1	0.0139	296.21	30050	1098.64	0.84
1	0.0139	296.21	49970	1105.96	0.88
1	0.0139	296.21	69730	1113.19	0.92
1	0.0139	296.21	99710	1123.55	1
1	0.0139	323.27	30060	1087.27	0.87
1	0.0139	323.27	49990	1094.54	0.9
1	0.0139	323.27	69770	1101.66	0.94
1	0.0139	323.27	99680	1111.85	0.99
1	0.0139	348.15	50030	1081.44	0.86
1	0.0139	348.15	69890	1088.69	0.99
1	0.0139	348.15	99710	1099.04	1
1	0.0139	373.2	50080	1066.09	0.9
1	0.0139	373.2	69910	1073.59	1.02
1	0.0139	373.2	99710	1084.28	1.01
1	0.0139	398.21	50090	1048.79	0.9
1	0.0139	398.21	69910	1056.81	1.02
1	0.0139	398.21	99730	1067.97	1
1	0.0139	423.57	50100	1029.65	0.88
1	0.0139	423.57	69930	1038.3	0.98
1	0.0139	423.57	99730	1050.48	0.97
1	0.0139	448.8	50110	1009	0.95
1	0.0139	448.8	69950	1018.34	0.84
1	0.0139	448.8	99760	1031.47	0.86
2.5	0	274.98	1310	1201.94	1.24
2.5	0	274.98	15210	1207.74	1.26
2.5	0	274.98	30100	1212.77	1.29
2.5	0	274.98	49930	1219.37	1.35
2.5	0	274.98	69770	1225.9	1.41
2.5	0	274.98	99750	1235.53	1.56
2.5	0	296.22	1310	1192.77	1.23
2.5	0	296.22	15240	1197.73	1.26
2.5	0	296.22	30130	1202.82	1.26
2.5	0	296.22	49960	1209.46	1.3
2.5	0	296.22	69780	1215.91	1.37
2.5	0	296.22	99740	1225.32	1.52
2.5	0	323.23	1280	1179.3	1.21
2.5	0	323.23	15180	1184.63	1.21
2.5	0	323.23	30060	1189.89	1.23
2.5	0	323.23	49910	1196.52	1.28
2.5	0	323.23	69770	1202.94	1.34
2.5	0	323.23	99730	1212.15	1.48
2.5	0	348.19	1320	1165.84	1.19
2.5	0	348.19	15220	1170.56	1.2
2.5	0	348.19	30110	1175.97	1.22
2.5	0	348.19	49950	1182.84	1.26
2.5	0	348.19	69790	1189.55	1.32
2.5	0	348.19	99790	1199.01	1.44
2.5	0	373.2	1350	1151.73	1.19
2.5	0	373.2	15250	1156.76	1.19
2.5	0	373.2	30140	1161.97	1.21
2.5	0	373.2	49960	1168.74	1.24
2.5	0	373.2	69820	1175.25	1.29
2.5	0	373.2	99780	1184.69	1.4
2.5	0	398.26	1360	1134.93	1.2
2.5	0	398.26	15270	1140.45	1.19
2.5	0	398.26	30160	1146.01	1.2
2.5	0	398.26	49970	1153.12	1.23
2.5	0	398.26	69820	1159.89	1.27
2.5	0	398.26	99800	1169.63	1.37
2.5	0	423.6	1360	1116.33	1.2
2.5	0	423.6	15260	1122.22	1.2
2.5	0	423.6	30150	1128.37	1.2
2.5	0	423.6	49980	1136	1.22
2.5	0	423.6	69810	1143.19	1.26
2.5	0	423.6	99790	1153.51	1.34
2.5	0	448.83	1360	1096.34	1.22
2.5	0	448.83	15250	1102.89	1.2
2.5	0	448.83	30150	1109.65	1.2
2.5	0	448.83	49970	1117.84	1.22
2.5	0	448.83	69820	1125.62	1.24
2.5	0	448.83	99830	1136.51	1.31
2.5	0.0153	275.25	15240	1208.37	1.27
2.5	0.0153	275.25	30110	1213.62	1.3
2.5	0.0153	275.25	49950	1220.48	1.35
2.5	0.0153	275.25	69790	1227.11	1.44
2.5	0.0153	275.25	99770	1236.71	1.6
2.5	0.0153	296.22	15210	1198.87	1.27
2.5	0.0153	296.22	30090	1204.08	1.3
2.5	0.0153	296.22	49940	1210.33	1.35
2.5	0.0153	296.22	69790	1216.84	1.43
2.5	0.0153	296.22	99790	1226.16	1.57
2.5	0.0153	323.28	15240	1185.89	1.27
2.5	0.0153	323.28	30100	1190.97	1.29
2.5	0.0153	323.28	49960	1197.57	1.34
2.5	0.0153	323.28	69830	1203.93	1.41
2.5	0.0153	323.28	99800	1213.12	1.55
2.5	0.0153	348.12	15260	1172.5	1.29
2.5	0.0153	348.12	30170	1177.7	1.31
2.5	0.0153	348.12	50010	1184.37	1.35
2.5	0.0153	348.12	69870	1190.88	1.41
2.5	0.0153	348.12	99790	1200.11	1.53
2.5	0.0153	373.21	15270	1157.31	1.31
2.5	0.0153	373.21	30160	1162.72	1.32
2.5	0.0153	373.21	50010	1169.65	1.36
2.5	0.0153	373.21	69860	1176.32	1.41
2.5	0.0153	373.21	99820	1185.83	1.51
2.5	0.0153	398.23	15280	1140.85	1.34
2.5	0.0153	398.23	30170	1146.52	1.35
2.5	0.0153	398.23	50020	1153.84	1.37
2.5	0.0153	398.23	69860	1160.68	1.41
2.5	0.0153	398.23	99800	1170.61	1.49
2.5	0.0153	423.56	15280	1122.76	1.38
2.5	0.0153	423.56	30190	1128.81	1.38
2.5	0.0153	423.56	50030	1136.63	1.39
2.5	0.0153	423.56	69860	1144.01	1.41
2.5	0.0153	423.56	99810	1154.33	1.48
2.5	0.0153	448.84	15300	1103.38	1.4
2.5	0.0153	448.84	30180	1109.76	1.4
2.5	0.0153	448.84	50030	1118.26	1.4
2.5	0.0153	448.84	69860	1126.13	1.42
2.5	0.0153	448.84	99820	1137.12	1.45

System: carbon dioxide + calcium chloride + water; phases: Liquid
Fixed: Molality, mol/kg of calcium chloride = 1
Property: Viscosity, Pa*s (Liquid); method: Vibrating wire viscometry
Molality, mol/kg of carbon dioxide	Temperature, K	Pressure, kPa	Viscosity, Pa*s	uncertainty
0	274.75	1300	0.002142	6.5e-05
0	274.75	49900	0.002117	6.5e-05
0	274.75	99700	0.002096	6.4e-05
0	296.21	30100	0.001224	3.8e-05
0	296.21	99700	0.001237	3.8e-05
0	323.4	1300	0.000736	2.3e-05
0	323.4	15200	0.000734	2.3e-05
0	323.4	30100	0.000732	2.3e-05
0	323.4	49900	0.000728	2.3e-05
0	323.4	69800	0.000725	2.3e-05
0	373.45	30100	0.000393	1.3e-05
0	373.45	49900	0.000399	1.3e-05
0	398.33	15200	0.00031	1e-05
0	398.33	30100	0.000315	1.1e-05
0	398.33	49900	0.000321	1.1e-05
0	423.46	1400	0.000255	9e-06
0	423.46	50000	0.000266	9e-06
0	423.46	69800	0.000272	9e-06
0	448.43	1400	0.000226	8e-06
0	448.43	69800	0.000235	8e-06
0.0052	274.87	15200	0.002194	0.000349
0.0052	296.2	15200	0.001264	7e-05
0.0052	296.2	99800	0.001269	3.9e-05
0.0052	323.3	30100	0.000732	2.3e-05
0.0052	323.3	99800	0.000773	2.4e-05
0.0052	373.36	15300	0.000391	1.6e-05
0.0052	373.36	30200	0.000403	1.3e-05
0.0052	373.36	50000	0.00041	1.3e-05
0.0052	398.29	15300	0.000316	1.1e-05
0.0052	398.29	30200	0.000321	1.1e-05
0.0052	398.29	69900	0.000334	1.1e-05
0.0052	423.45	15300	0.00026	9e-06
0.0052	423.45	50000	0.000269	9e-06
0.0052	423.45	69900	0.000273	9e-06
0.0052	448.43	15300	0.000223	8e-06
0.0052	448.43	30200	0.00023	8e-06
0.0052	448.43	69900	0.000249	9e-06
0.0095	296.24	15200	0.001277	3.9e-05
0.0095	296.24	30100	0.001281	3.9e-05
0.0095	323.26	15300	0.000737	2.8e-05
0.0095	323.26	50000	0.000757	2.4e-05
0.0095	323.26	69900	0.000776	2.4e-05
0.0095	323.26	99800	0.000793	2.5e-05
0.0095	373.23	30200	0.00041	2.3e-05
0.0095	373.23	50000	0.000419	1.4e-05
0.0095	398.28	15300	0.000324	1.4e-05
0.0095	398.28	30200	0.000326	1.1e-05
0.0095	398.28	50000	0.000331	1.1e-05
0.0095	398.28	69900	0.000335	1.1e-05
0.0095	423.42	15300	0.000266	9e-06
0.0095	423.42	30200	0.000268	9e-06
0.0095	423.42	69900	0.00028	1e-05
0.0095	423.42	99800	0.000288	1e-05
0.0095	448.39	30200	0.000233	8e-06
0.0095	448.39	50000	0.000237	8e-06
0.0095	448.39	69900	0.00024	8e-06
0.0139	274.93	15200	0.002298	9.4e-05
0.0139	274.93	30100	0.002293	7e-05
0.0139	274.93	69700	0.002275	9.2e-05
0.0139	296.25	30000	0.001297	5.7e-05
0.0139	296.25	99700	0.001327	4.1e-05
0.0139	323.21	30100	0.000759	2.4e-05
0.0139	323.21	49900	0.000771	2.4e-05
0.0139	323.21	99700	0.000804	4.1e-05
0.0139	373.03	50100	0.000426	2.2e-05
0.0139	398.28	69900	0.00034	1.1e-05
0.0139	398.28	99700	0.000371	1.3e-05
0.0139	423.44	69900	0.000278	1e-05
0.0139	423.44	99700	0.000292	1e-05
0.0139	448.36	50100	0.000238	8e-06
0.0139	448.36	69900	0.000242	9e-06
0.0139	448.36	99800	0.000251	9e-06

System: carbon dioxide + sodium chloride + water; phases: Liquid
Property: Mass density, kg/m3 (Liquid); method: Vibrating tube method
Molality, mol/kg of sodium chloride	Molality, mol/kg of carbon dioxide	Temperature, K	Pressure, kPa	Mass density, kg/m3	uncertainty
0.77	0	274.83	1310	1033.05	0.78
0.77	0	274.83	15210	1039.38	0.83
0.77	0	274.83	30120	1045.95	0.83
0.77	0	274.83	49950	1054.41	0.84
0.77	0	274.83	69810	1062.53	0.86
0.77	0	274.83	99820	1074.13	0.84
0.77	0	296.22	1380	1028.25	0.78
0.77	0	296.22	15220	1034.12	0.9
0.77	0	296.22	30110	1040.25	0.9
0.77	0	296.22	49930	1048.04	0.9
0.77	0	296.22	69810	1055.61	0.92
0.77	0	296.22	99840	1066.51	0.89
0.77	0	323.33	1340	1017.8	0.76
0.77	0	323.33	15260	1023.47	0.88
0.77	0	323.33	30160	1029.36	0.88
0.77	0	323.33	49980	1036.98	0.9
0.77	0	323.33	69840	1044.3	0.92
0.77	0	323.33	99890	1054.9	0.87
0.77	0	348.21	1380	1004.37	0.77
0.77	0	348.21	15260	1010.15	0.82
0.77	0	348.21	30180	1016.18	0.82
0.77	0	348.21	50000	1023.83	0.84
0.77	0	348.21	69880	1031.26	0.88
0.77	0	348.21	99920	1041.89	0.81
0.77	0	373.25	1400	988.09	0.72
0.77	0	373.25	15310	994.18	0.75
0.77	0	373.25	30220	1000.44	0.76
0.77	0	373.25	50060	1008.5	0.78
0.77	0	373.25	69930	1016.2	0.79
0.77	0	373.25	99960	1027.15	0.76
0.77	0	398.81	1460	969.16	0.66
0.77	0	398.81	15370	975.7	0.72
0.77	0	398.81	30260	982.49	0.73
0.77	0	398.81	50080	991.06	0.73
0.77	0	398.81	69950	999.13	0.76
0.77	0	398.81	99990	1010.69	0.71
0.77	0	423.73	1450	947.66	0.63
0.77	0	423.73	15370	954.86	0.67
0.77	0	423.73	30270	962.29	0.67
0.77	0	423.73	50110	971.57	0.69
0.77	0	423.73	69960	980.32	0.7
0.77	0	423.73	100000	992.59	0.68
0.77	0	448.97	1460	923.83	0.62
0.77	0	448.97	15380	932.02	0.7
0.77	0	448.97	30290	940.31	0.68
0.77	0	448.97	50120	950.53	0.66
0.77	0	448.97	69980	960.05	0.68
0.77	0	448.97	100000	973.43	0.68
0.77	0.0061	274.93	15200	1042.1	0.73
0.77	0.0061	274.93	30110	1048.54	0.74
0.77	0.0061	274.93	49980	1056.88	0.75
0.77	0.0061	274.93	69860	1064.93	0.77
0.77	0.0061	274.93	99900	1076.47	0.81
0.77	0.0061	296.22	15210	1036.82	0.73
0.77	0.0061	296.22	30090	1042.9	0.74
0.77	0.0061	296.22	49940	1050.7	0.75
0.77	0.0061	296.22	69820	1058.23	0.77
0.77	0.0061	296.22	99840	1069.13	0.81
0.77	0.0061	323.35	15230	1025.97	0.73
0.77	0.0061	323.35	30140	1031.96	0.75
0.77	0.0061	323.35	50010	1039.57	0.75
0.77	0.0061	323.35	69890	1046.9	0.77
0.77	0.0061	323.35	99870	1057.49	0.79
0.77	0.0061	348.2	15220	1012.34	0.72
0.77	0.0061	348.2	30090	1018.37	0.74
0.77	0.0061	348.2	49960	1026.19	0.74
0.77	0.0061	348.2	69860	1033.63	0.75
0.77	0.0061	348.2	99890	1044.33	0.77
0.77	0.0061	373.22	15270	995.79	0.7
0.77	0.0061	373.22	30150	1002.18	0.72
0.77	0.0061	373.22	50030	1010.37	0.72
0.77	0.0061	373.22	69910	1018.13	0.72
0.77	0.0061	373.22	99910	1029.24	0.74
0.77	0.0061	398.38	15290	976.7	0.67
0.77	0.0061	398.38	30180	983.6	0.68
0.77	0.0061	398.38	50060	992.35	0.69
0.77	0.0061	398.38	69920	1000.65	0.69
0.77	0.0061	398.38	99930	1012.39	0.7
0.77	0.0061	423.73	15300	955.13	0.65
0.77	0.0061	423.73	30200	962.72	0.66
0.77	0.0061	423.73	50070	972.37	0.67
0.77	0.0061	423.73	69940	981.27	0.67
0.77	0.0061	423.73	99930	993.88	0.68
0.77	0.0061	448.95	15300	931.45	0.73
0.77	0.0061	448.95	30210	940.01	0.63
0.77	0.0061	448.95	50080	950.72	0.65
0.77	0.0061	448.95	69940	960.53	0.66
0.77	0.0061	448.95	99940	974.22	0.67
0.77	0.0095	274.99	15260	1042.95	0.79
0.77	0.0095	274.99	30150	1049.29	0.78
0.77	0.0095	274.99	50040	1057.53	0.79
0.77	0.0095	274.99	69900	1065.51	0.83
0.77	0.0095	274.99	99950	1077.01	0.85
0.77	0.0095	296.2	15260	1037.62	0.78
0.77	0.0095	296.2	30130	1043.57	0.8
0.77	0.0095	296.2	50010	1051.36	0.81
0.77	0.0095	296.2	69880	1058.94	0.85
0.77	0.0095	296.2	99940	1069.76	0.87
0.77	0.0095	323.34	15260	1026.65	0.79
0.77	0.0095	323.34	30170	1032.56	0.86
0.77	0.0095	323.34	50040	1040.12	0.86
0.77	0.0095	323.34	69920	1047.45	0.88
0.77	0.0095	323.34	99930	1058.01	0.87
0.77	0.0095	348.19	30230	1018.84	0.86
0.77	0.0095	348.19	50080	1026.61	0.9
0.77	0.0095	348.19	69940	1034.12	0.91
0.77	0.0095	348.19	99980	1044.82	0.87
0.77	0.0095	373.24	30300	1002.42	0.91
0.77	0.0095	373.24	50220	1010.56	0.9
0.77	0.0095	373.24	70100	1018.4	0.9
0.77	0.0095	373.24	100120	1029.5	0.84
0.77	0.0095	398.31	30290	983.55	0.93
0.77	0.0095	398.31	50180	992.36	0.89
0.77	0.0095	398.31	70080	1000.71	0.88
0.77	0.0095	398.31	100100	1012.48	0.82
0.77	0.0095	423.62	30290	962.25	0.91
0.77	0.0095	423.62	50170	971.93	0.84
0.77	0.0095	423.62	70080	981.1	0.84
0.77	0.0095	423.62	100030	993.79	0.79
0.77	0.0095	448.85	30300	938.95	0.91
0.77	0.0095	448.85	50190	949.84	0.69
0.77	0.0095	448.85	70080	959.96	0.7
0.77	0.0095	448.85	100040	973.74	0.7
0.77	0.0124	274.98	15230	1046.29	0.77
0.77	0.0124	274.98	30170	1052.59	0.8
0.77	0.0124	274.98	50060	1060.79	0.83
0.77	0.0124	274.98	69940	1068.7	0.87
0.77	0.0124	274.98	99990	1080.07	0.95
0.77	0.0124	296.17	15200	1040.88	0.78
0.77	0.0124	296.17	30080	1046.89	0.83
0.77	0.0124	296.17	50110	1054.61	0.87
0.77	0.0124	296.17	69840	1062.15	0.91
0.77	0.0124	296.17	99940	1072.95	1
0.77	0.0124	323.32	30180	1035.45	0.9
0.77	0.0124	323.32	50140	1043.09	0.96
0.77	0.0124	323.32	69970	1050.47	0.99
0.77	0.0124	323.32	99980	1061.04	1.04
0.77	0.0124	348.21	50240	1029.33	1.01
0.77	0.0124	348.21	70100	1036.87	1.11
0.77	0.0124	348.21	99990	1047.7	1.1
0.77	0.0124	373.23	50240	1013.07	1.12
0.77	0.0124	373.23	70120	1020.96	1.21
0.77	0.0124	373.23	100000	1032.18	1.15
0.77	0.0124	398.29	50250	994.66	1.21
0.77	0.0124	398.29	70110	1003.1	1.28
0.77	0.0124	398.29	99990	1015.01	1.19
0.77	0.0124	423.63	50250	973.84	1.28
0.77	0.0124	423.63	70110	983.13	1.31
0.77	0.0124	423.63	100000	996.08	1.2
0.77	0.0124	448.83	50250	951.41	1.27
0.77	0.0124	448.83	70140	961.71	1.1
0.77	0.0124	448.83	100000	975.91	1.05
2.5	0	274.95	1340	1098.36	0.88
2.5	0	274.95	15260	1103.81	0.89
2.5	0	274.95	30190	1109.5	0.91
2.5	0	274.95	50040	1116.83	0.94
2.5	0	274.95	69930	1123.92	0.98
2.5	0	274.95	99990	1134.12	1.07
2.5	0	296.19	1330	1090.47	0.86
2.5	0	296.19	15240	1095.73	0.88
2.5	0	296.19	30160	1101.16	0.88
2.5	0	296.19	50020	1108.18	0.93
2.5	0	296.19	69880	1115.02	0.97
2.5	0	296.19	99980	1124.82	1.05
2.5	0	323.3	1380	1077.94	0.84
2.5	0	323.3	15290	1083.2	0.85
2.5	0	323.3	30220	1088.58	0.87
2.5	0	323.3	50060	1095.53	0.93
2.5	0	323.3	69950	1102.24	0.96
2.5	0	323.3	100010	1111.99	1.04
2.5	0	348.21	1360	1064.12	0.83
2.5	0	348.21	15270	1069.47	0.83
2.5	0	348.21	30200	1075.01	0.85
2.5	0	348.21	50060	1082.15	0.87
2.5	0	348.21	69960	1089.02	0.96
2.5	0	348.21	100020	1098.91	1.02
2.5	0	373.22	1380	1047.69	0.82
2.5	0	373.22	15310	1053.49	0.82
2.5	0	373.22	30230	1059.36	0.83
2.5	0	373.22	50090	1066.79	0.84
2.5	0	373.22	69960	1073.94	0.87
2.5	0	373.22	100040	1084.13	1
2.5	0	398.29	1390	1029.58	0.94
2.5	0	398.29	15300	1035.58	0.94
2.5	0	398.29	30230	1041.92	0.93
2.5	0	398.29	50080	1049.89	0.94
2.5	0	398.29	69980	1057.41	0.95
2.5	0	398.29	100050	1068.15	0.98
2.5	0	423.62	1410	1009.24	0.99
2.5	0	423.62	15330	1015.81	0.97
2.5	0	423.62	30250	1022.75	0.81
2.5	0	423.62	50100	1031.25	0.81
2.5	0	423.62	69990	1039.38	0.82
2.5	0	423.62	100050	1050.77	0.96
2.5	0	448.85	1410	987.39	1.01
2.5	0	448.85	15330	994.66	0.98
2.5	0	448.85	30260	1002.41	0.97
2.5	0	448.85	50110	1011.56	0.81
2.5	0	448.85	69990	1020.26	0.81
2.5	0	448.85	100050	1032.59	0.93
2.5	0.011	274.88	15210	1105.65	0.96
2.5	0.011	274.88	30110	1111.39	0.97
2.5	0.011	274.88	49990	1118.74	0.99
2.5	0.011	274.88	69850	1125.78	1.03
2.5	0.011	274.88	99910	1135.93	1.11
2.5	0.011	296.17	15220	1097.4	0.94
2.5	0.011	296.17	30170	1102.57	0.95
2.5	0.011	296.17	50020	1109.85	0.98
2.5	0.011	296.17	69900	1116.68	1.01
2.5	0.011	296.17	99940	1126.53	1.09
2.5	0.011	323.3	15240	1084.14	0.93
2.5	0.011	323.3	30150	1090.05	0.94
2.5	0.011	323.3	50020	1097.17	0.97
2.5	0.011	323.3	69910	1104.02	1
2.5	0.011	323.3	99910	1113.77	1.07
2.5	0.011	348.19	15260	1069.95	0.93
2.5	0.011	348.19	30170	1075.82	0.95
2.5	0.011	348.19	50040	1083.4	0.96
2.5	0.011	348.19	69930	1090.55	0.99
2.5	0.011	348.19	99950	1100.56	1.04
2.5	0.011	373.22	15280	1053.33	0.93
2.5	0.011	373.22	30180	1059.51	0.95
2.5	0.011	373.22	50070	1067.45	0.96
2.5	0.011	373.22	69950	1074.88	0.98
2.5	0.011	373.22	99950	1085.53	1.03
2.5	0.011	398.27	15300	1035.12	0.96
2.5	0.011	398.27	30200	1041.53	0.96
2.5	0.011	398.27	50080	1050.02	0.96
2.5	0.011	398.27	69960	1057.85	0.98
2.5	0.011	398.27	99970	1068.97	1
2.5	0.011	423.61	15310	1015.02	0.97
2.5	0.011	423.61	30250	1021.92	0.97
2.5	0.011	423.61	50100	1030.95	0.96
2.5	0.011	423.61	69970	1039.25	0.97
2.5	0.011	423.61	99970	1051.18	0.97
2.5	0.011	448.84	30280	1000.99	0.94
2.5	0.011	448.84	50140	1010.75	0.94
2.5	0.011	448.84	70020	1020.09	0.94
2.5	0.011	448.84	99970	1032.73	0.92
2.5	0.0204	274.82	15230	1107.67	0.95
2.5	0.0204	274.82	30120	1113.28	0.96
2.5	0.0204	274.82	49990	1120.56	0.99
2.5	0.0204	274.82	69870	1127.55	1.03
2.5	0.0204	274.82	99890	1137.66	1.11
2.5	0.0204	296.17	15220	1099.22	0.94
2.5	0.0204	296.17	30140	1104.51	0.97
2.5	0.0204	296.17	49990	1111.65	0.98
2.5	0.0204	296.17	69850	1118.42	1.02
2.5	0.0204	296.17	99880	1128.22	1.1
2.5	0.0204	323.33	15230	1086.41	0.93
2.5	0.0204	323.33	30150	1091.83	0.94
2.5	0.0204	323.33	50020	1098.77	1.22
2.5	0.0204	323.33	69900	1105.56	1
2.5	0.0204	323.33	99900	1115.24	1.07
2.5	0.0204	348.19	15250	1072.35	1.02
2.5	0.0204	348.19	30210	1077.96	0.97
2.5	0.0204	348.19	50050	1085.14	0.97
2.5	0.0204	348.19	69920	1092.02	0.99
2.5	0.0204	348.19	99930	1101.93	1.05
2.5	0.0204	373.21	30240	1061.87	0.98
2.5	0.0204	373.21	50090	1069.52	0.98
2.5	0.0204	373.21	69960	1076.78	0.99
2.5	0.0204	373.21	99920	1087.06	1.04
2.5	0.0204	398.27	30230	1043.86	1.01
2.5	0.0204	398.27	50110	1052.07	1.52
2.5	0.0204	398.27	69970	1059.94	1
2.5	0.0204	398.27	99910	1070.72	1.02
2.5	0.0204	423.6	30240	1024.02	1.03
2.5	0.0204	423.6	50110	1032.84	1
2.5	0.0204	423.6	69990	1041.28	1
2.5	0.0204	423.6	99900	1052.86	1.01
2.5	0.0204	448.85	30240	1003.16	1.06
2.5	0.0204	448.85	50100	1012.72	0.99
2.5	0.0204	448.85	69970	1021.84	0.99
2.5	0.0204	448.85	99900	1034.31	0.98
2.5	0.0301	274.81	15210	1109.04	0.93
2.5	0.0301	274.81	30100	1114.75	0.94
2.5	0.0301	274.81	49970	1121.91	0.95
2.5	0.0301	274.81	69820	1128.98	1.01
2.5	0.0301	274.81	99780	1139.04	1.11
2.5	0.0301	296.16	15190	1100.61	0.93
2.5	0.0301	296.16	30070	1106.11	0.95
2.5	0.0301	296.16	49990	1113.09	1
2.5	0.0301	296.16	69780	1119.81	1
2.5	0.0301	296.16	99780	1129.64	1.08
2.5	0.0301	323.26	50050	1105.08	1.05
2.5	0.0301	323.26	69850	1106.92	1.06
2.5	0.0301	323.26	99820	1116.77	1.05
2.5	0.0301	348.18	50120	1086.39	1.06
2.5	0.0301	348.18	69970	1093.31	0.97
2.5	0.0301	348.18	99870	1103.3	1.03
2.5	0.0301	373.21	50200	1070.48	0.94
2.5	0.0301	373.21	70000	1077.82	0.97
2.5	0.0301	373.21	99850	1088.58	1.02
2.5	0.0301	398.26	50180	1052.89	0.96
2.5	0.0301	398.26	70030	1060.74	0.97
2.5	0.0301	398.26	99870	1071.64	1
2.5	0.0301	423.59	50170	1033.7	0.97
2.5	0.0301	423.59	70030	1042.15	0.97
2.5	0.0301	423.59	99870	1053.83	0.98
2.5	0.0301	448.82	50170	1013.13	0.98
2.5	0.0301	448.82	70020	1022.5	0.98
2.5	0.0301	448.82	99850	1035.18	0.96

System: carbon dioxide + sodium chloride + water; phases: Liquid
Fixed: Molality, mol/kg of sodium chloride = 0.77
Property: Viscosity, Pa*s (Liquid); method: Vibrating wire viscometry
Molality, mol/kg of carbon dioxide	Temperature, K	Pressure, kPa	Viscosity, Pa*s	uncertainty
0	274.65	1400	0.001748	5.3e-05
0	274.65	15300	0.001718	5.2e-05
0	274.65	30200	0.001704	5.2e-05
0	274.65	50100	0.0017	5.2e-05
0	348.34	1400	0.000412	1.3e-05
0	348.34	15300	0.000416	1.3e-05
0	348.34	30200	0.000421	1.4e-05
0	348.34	50000	0.000429	1.4e-05
0	348.34	69900	0.000433	1.4e-05
0	373.31	1400	0.00031	1e-05
0	373.31	30200	0.000318	1.1e-05
0	373.31	50000	0.000323	1.1e-05
0	373.31	69900	0.000329	1.1e-05
0	373.31	100000	0.000338	1.1e-05
0	398.18	1400	0.000247	9e-06
0	398.18	15300	0.000251	9e-06
0	398.18	30200	0.000256	9e-06
0	398.18	50100	0.00026	9e-06
0	398.18	70000	0.000265	9e-06
0	398.18	100000	0.000273	9e-06
0	423.31	15300	0.000206	8e-06
0	423.31	30200	0.000212	8e-06
0	423.31	50100	0.000216	8e-06
0	423.31	70000	0.00022	8e-06
0	423.31	100000	0.000228	8e-06
0	448.27	30300	0.000181	7e-06
0	448.27	50100	0.000185	7e-06
0	448.27	70000	0.00019	7e-06
0	448.27	100000	0.000197	7e-06
0.0095	274.64	15200	0.001899	5.9e-05
0.0095	274.64	30200	0.001882	5.9e-05
0.0095	274.64	69900	0.001843	5.7e-05
0.0095	274.64	99900	0.001813	5.7e-05
0.0095	348.36	30200	0.000431	1.8e-05
0.0095	348.36	50100	0.000436	1.4e-05
0.0095	348.36	69900	0.000442	1.5e-05
0.0095	373.34	30300	0.000325	1.1e-05
0.0095	373.34	50200	0.00033	1.1e-05
0.0095	373.34	70100	0.000336	1.1e-05
0.0095	373.34	100100	0.000346	1.4e-05
0.0095	398.24	30300	0.00026	9e-06
0.0095	398.24	50200	0.000265	9e-06
0.0095	398.24	70100	0.000269	9e-06
0.0095	423.37	30300	0.000213	8e-06
0.0095	423.37	50200	0.000219	8e-06
0.0095	423.37	70100	0.000224	8e-06
0.0095	423.37	100000	0.000232	8e-06
0.0095	448.33	30300	0.000183	7e-06
0.0095	448.33	50200	0.000187	7e-06
0.0095	448.33	70100	0.000193	7e-06
0.0095	448.33	100000	0.0002	7e-06
0.0124	274.63	15200	0.001961	6.1e-05
0.0124	274.63	30200	0.001942	6e-05
0.0124	274.63	100000	0.001872	5.8e-05
0.0124	348.34	50200	0.000443	1.4e-05
0.0124	348.34	70100	0.000449	1.4e-05
0.0124	373.29	50200	0.000335	1.2e-05
0.0124	373.29	70100	0.000341	1.2e-05
0.0124	373.29	100000	0.000351	6e-05
0.0124	423.28	50200	0.000222	8e-06
0.0124	423.28	70100	0.000227	8e-06
0.0124	423.28	100000	0.000235	9e-06
0.0124	448.23	50300	0.00019	7e-06
0.0124	448.23	70100	0.000195	7e-06
0.0124	448.23	100000	0.000202	7e-06

System: calcium chloride + water; phases: Liquid
Property: Mass density, kg/m3 (Liquid); method: Vibrating tube method
Molality, mol/kg of calcium chloride	Temperature, K	Pressure, kPa	Mass density, kg/m3	uncertainty
1	274.87	1270	1088.12	0.72
1	274.87	15180	1094.18	0.82
1	274.87	30070	1100.27	0.84
1	274.87	49880	1108.27	0.78
1	274.87	69750	1115.89	0.9
1	274.87	99730	1126.88	0.98
1	296.18	1280	1082.39	0.81
1	296.18	15170	1087.93	0.73
1	296.18	30070	1093.68	0.83
1	296.18	49900	1101.19	0.85
1	296.18	69750	1108.4	0.88
1	296.18	99730	1118.84	0.96
1	323.31	1240	1071.6	0.8
1	323.31	15190	1077.19	0.8
1	323.31	30070	1082.81	0.81
1	323.31	49880	1090.06	0.83
1	323.31	69760	1097.04	0.86
1	323.31	99750	1107.2	0.93
1	348.2	1300	1058.82	0.79
1	348.2	15220	1064.57	0.79
1	348.2	30100	1070.33	0.8
1	348.2	49930	1077.65	0.82
1	348.2	69790	1084.72	0.84
1	348.2	99770	1094.89	0.9
1	373.22	1320	1042.78	0.78
1	373.22	15230	1048.82	0.79
1	373.22	30130	1054.88	0.79
1	373.22	49940	1062.61	0.8
1	373.22	69790	1070	0.82
1	373.22	99790	1080.38	0.87
1	398.28	1320	1024.8	0.77
1	398.28	15230	1031.2	0.78
1	398.28	30120	1037.76	0.78
1	398.28	49940	1045.99	0.79
1	398.28	69780	1053.7	0.8
1	398.28	99790	1064.71	0.84
1	423.6	1340	1004.42	0.76
1	423.6	15250	1011.3	0.77
1	423.6	30150	1018.56	0.77
1	423.6	49950	1027.46	0.78
1	423.6	69820	1035.71	0.79
1	423.6	99810	1047.43	0.81
1	448.84	1360	982.19	0.75
1	448.84	15270	989.78	0.76
1	448.84	30160	997.78	0.76
1	448.84	49980	1007.39	0.76
1	448.84	69830	1016.54	0.77
1	448.84	99810	1029.19	0.78
2.5	274.98	1310	1201.94	1.24
2.5	274.98	15210	1207.74	1.26
2.5	274.98	30100	1212.77	1.28
2.5	274.98	49930	1219.37	1.35
2.5	274.98	69770	1225.9	1.4
2.5	274.98	99750	1235.53	1.56
2.5	296.22	1310	1192.77	1.21
2.5	296.22	15240	1197.73	1.26
2.5	296.22	30130	1202.82	1.25
2.5	296.22	49960	1209.46	1.3
2.5	296.22	69780	1215.91	1.37
2.5	296.22	99740	1225.32	1.52
2.5	323.23	1280	1179.3	1.19
2.5	323.23	15180	1184.63	1.2
2.5	323.23	30060	1189.89	1.23
2.5	323.23	49910	1196.52	1.27
2.5	323.23	69770	1202.94	1.34
2.5	323.23	99730	1212.15	1.47
2.5	348.19	1320	1165.84	1.18
2.5	348.19	15220	1170.56	1.19
2.5	348.19	30110	1175.97	1.21
2.5	348.19	49950	1182.84	1.25
2.5	348.19	69790	1189.55	1.31
2.5	348.19	99790	1199.01	1.43
2.5	373.2	1350	1151.73	1.18
2.5	373.2	15250	1156.76	1.19
2.5	373.2	30140	1161.97	1.21
2.5	373.2	49960	1168.74	1.24
2.5	373.2	69820	1175.25	1.29
2.5	373.2	99780	1184.69	1.4
2.5	398.26	1360	1134.93	1.19
2.5	398.26	15270	1140.45	1.19
2.5	398.26	30160	1146.01	1.2
2.5	398.26	49970	1153.12	1.23
2.5	398.26	69820	1159.89	1.27
2.5	398.26	99800	1169.63	1.36
2.5	423.6	1360	1116.33	1.19
2.5	423.6	15260	1122.22	1.19
2.5	423.6	30150	1128.37	1.2
2.5	423.6	49980	1136	1.22
2.5	423.6	69810	1143.19	1.26
2.5	423.6	99790	1153.51	1.33
2.5	448.83	1360	1096.34	1.2
2.5	448.83	15250	1102.89	1.2
2.5	448.83	30150	1109.65	1.2
2.5	448.83	49970	1117.84	1.22
2.5	448.83	69820	1125.62	1.24
2.5	448.83	99830	1136.51	1.31

System: calcium chloride + water; phases: Liquid
Fixed: Molality, mol/kg of calcium chloride = 1
Property: Viscosity, Pa*s (Liquid); method: Vibrating wire viscometry
Temperature, K	Pressure, kPa	Viscosity, Pa*s	uncertainty
274.75	1300	0.002142	6.5e-05
274.75	49900	0.002117	6.5e-05
274.75	99700	0.002096	6.4e-05
296.21	30100	0.001224	3.8e-05
296.21	99700	0.001237	3.8e-05
323.4	1300	0.000736	2.3e-05
323.4	15200	0.000734	2.3e-05
323.4	30100	0.000732	2.3e-05
323.4	49900	0.000728	2.3e-05
323.4	69800	0.000725	2.3e-05
373.45	30100	0.000393	1.3e-05
373.45	49900	0.000399	1.3e-05
398.33	15200	0.00031	1e-05
398.33	30100	0.000315	1.1e-05
398.33	49900	0.000321	1.1e-05
423.46	1400	0.000255	9e-06
423.46	50000	0.000266	9e-06
423.46	69800	0.000272	9e-06
448.43	1400	0.000226	8e-06
448.43	69800	0.000235	8e-06

System: sodium chloride + water; phases: Liquid
Property: Mass density, kg/m3 (Liquid); method: Vibrating tube method
Molality, mol/kg of sodium chloride	Temperature, K	Pressure, kPa	Mass density, kg/m3	uncertainty
0.77	274.83	1310	1033.05	0.68
0.77	274.83	15210	1039.38	0.69
0.77	274.83	30120	1045.95	0.7
0.77	274.83	49950	1054.41	0.71
0.77	274.83	69810	1062.53	0.73
0.77	274.83	99820	1074.13	0.78
0.77	296.22	1380	1028.25	0.69
0.77	296.22	15220	1034.12	0.7
0.77	296.22	30110	1040.25	0.71
0.77	296.22	49930	1048.04	0.71
0.77	296.22	69810	1055.61	0.72
0.77	296.22	99840	1066.51	0.76
0.77	323.33	1340	1017.8	0.69
0.77	323.33	15260	1023.47	0.69
0.77	323.33	30160	1029.36	0.7
0.77	323.33	49980	1036.98	0.69
0.77	323.33	69840	1044.3	0.71
0.77	323.33	99890	1054.9	0.74
0.77	348.21	1380	1004.37	0.68
0.77	348.21	15260	1010.15	0.68
0.77	348.21	30180	1016.18	0.69
0.77	348.21	50000	1023.83	0.69
0.77	348.21	69880	1031.26	0.69
0.77	348.21	99920	1041.89	0.72
0.77	373.25	1400	988.09	0.67
0.77	373.25	15310	994.18	0.67
0.77	373.25	30220	1000.44	0.67
0.77	373.25	50060	1008.5	0.68
0.77	373.25	69930	1016.2	0.69
0.77	373.25	99960	1027.15	0.69
0.77	398.81	1460	969.16	0.64
0.77	398.81	15370	975.7	0.65
0.77	398.81	30260	982.49	0.65
0.77	398.81	50080	991.06	0.66
0.77	398.81	69950	999.13	0.66
0.77	398.81	99990	1010.69	0.67
0.77	423.73	1450	947.66	0.63
0.77	423.73	15370	954.86	0.64
0.77	423.73	30270	962.29	0.66
0.77	423.73	50110	971.57	0.66
0.77	423.73	69960	980.32	0.67
0.77	423.73	100000	992.59	0.66
0.77	448.97	1460	923.83	0.62
0.77	448.97	15380	932.02	0.63
0.77	448.97	30290	940.31	0.63
0.77	448.97	50120	950.53	0.66
0.77	448.97	69980	960.05	0.67
0.77	448.97	100000	973.43	0.66
2.5	274.95	1340	1098.36	0.87
2.5	274.95	15260	1103.81	0.88
2.5	274.95	30190	1109.5	0.89
2.5	274.95	50040	1116.83	0.92
2.5	274.95	69930	1123.92	0.97
2.5	274.95	99990	1134.12	1.05
2.5	296.19	1330	1090.47	0.85
2.5	296.19	15240	1095.73	0.86
2.5	296.19	30160	1101.16	0.87
2.5	296.19	50020	1108.18	0.92
2.5	296.19	69880	1115.02	0.96
2.5	296.19	99980	1124.82	1.04
2.5	323.3	1380	1077.94	0.83
2.5	323.3	15290	1083.2	0.84
2.5	323.3	30220	1088.58	0.85
2.5	323.3	50060	1095.53	0.91
2.5	323.3	69950	1102.24	0.94
2.5	323.3	100010	1111.99	1.02
2.5	348.21	1360	1064.12	0.82
2.5	348.21	15270	1069.47	0.83
2.5	348.21	30200	1075.01	0.84
2.5	348.21	50060	1082.15	0.85
2.5	348.21	69960	1089.02	0.94
2.5	348.21	100020	1098.91	1
2.5	373.22	1380	1047.69	0.81
2.5	373.22	15310	1053.49	0.82
2.5	373.22	30230	1059.36	0.83
2.5	373.22	50090	1066.79	0.84
2.5	373.22	69960	1073.94	0.86
2.5	373.22	100040	1084.13	0.98
2.5	398.29	1390	1029.58	0.94
2.5	398.29	15300	1035.58	0.94
2.5	398.29	30230	1041.92	0.93
2.5	398.29	50080	1049.89	0.93
2.5	398.29	69980	1057.41	0.94
2.5	398.29	100050	1068.15	0.97
2.5	423.62	1410	1009.24	0.98
2.5	423.62	15330	1015.81	0.97
2.5	423.62	30250	1022.75	0.81
2.5	423.62	50100	1031.25	0.81
2.5	423.62	69990	1039.38	0.82
2.5	423.62	100050	1050.77	0.96
2.5	448.85	1410	987.39	1
2.5	448.85	15330	994.66	0.98
2.5	448.85	30260	1002.41	0.97
2.5	448.85	50110	1011.56	0.8
2.5	448.85	69990	1020.26	0.81
2.5	448.85	100050	1032.59	0.93

System: sodium chloride + water; phases: Liquid
Fixed: Molality, mol/kg of sodium chloride = 0.77
Property: Viscosity, Pa*s (Liquid); method: Vibrating wire viscometry
Temperature, K	Pressure, kPa	Viscosity, Pa*s	uncertainty
274.65	1400	0.001748	5.3e-05
274.65	15300	0.001718	5.2e-05
274.65	30200	0.001704	5.2e-05
274.65	50100	0.0017	5.2e-05
348.34	1400	0.000412	1.3e-05
348.34	15300	0.000416	1.3e-05
348.34	30200	0.000421	1.4e-05
348.34	50000	0.000429	1.4e-05
348.34	69900	0.000433	1.4e-05
373.31	1400	0.00031	1e-05
373.31	30200	0.000318	1.1e-05
373.31	50000	0.000323	1.1e-05
373.31	69900	0.000329	1.1e-05
373.31	100000	0.000338	1.1e-05
398.18	1400	0.000247	9e-06
398.18	15300	0.000251	9e-06
398.18	30200	0.000256	9e-06
398.18	50100	0.00026	9e-06
398.18	70000	0.000265	9e-06
398.18	100000	0.000273	9e-06
423.31	15300	0.000206	8e-06
423.31	30200	0.000212	8e-06
423.31	50100	0.000216	8e-06
423.31	70000	0.00022	8e-06
423.31	100000	0.000228	8e-06
448.27	30300	0.000181	7e-06
448.27	50100	0.000185	7e-06
448.27	70000	0.00019	7e-06
448.27	100000	0.000197	7e-06
