Measured thermophysical data. Solubility, Solubility Modeling, and Antisolvent Precipitation of 1,3-Bis(9-carbazolyl)benzene in Organic Solvents
Source: J. Chem. Eng. Data, 2019, 10.1021/acs.jced.9b00432
Compound 1: 1,3-bis(9-carbazolyl)benzene, C30H20N2, InChI=1S/C30H20N2/c1-5-16-27-23(12-1)24-13-2-6-17-28(24)31(27)21-10-9-11-22(20-21)32-29-18-7-3-14-25(29)26-15-4-8-19-30(26)32/h1-20H, purity 97%
Compound 2: N,N'-di(1-naphthyl)-N,N'-diphenyl benzidine, C44H32N2, InChI=1S/C44H32N2/c1-3-17-37(18-4-1)45(43-23-11-15-35-13-7-9-21-41(35)43)39-29-25-33(26-30-39)34-27-31-40(32-28-34)46(38-19-5-2-6-20-38)44-24-12-16-36-14-8-10-22-42(36)44/h1-32H, purity 99%
Compound 3: tetrahydrofuran, C4H8O, InChI=1S/C4H8O/c1-2-4-5-3-1/h1-4H2, purity 99%
Compound 4: ethanol, C2H6O, InChI=1S/C2H6O/c1-2-3/h3H,2H2,1H3, purity 99.7%
Compound 5: N-methylpyrrolidone, C5H9NO, InChI=1S/C5H9NO/c1-6-4-2-3-5(6)7/h2-4H2,1H3, purity 99.5%
Compound 6: hexane, C6H14, InChI=1S/C6H14/c1-3-5-6-4-2/h3-6H2,1-2H3, purity 99%
Compound 7: dimethyl sulfoxide, C2H6OS, InChI=1S/C2H6OS/c1-4(2)3/h1-2H3, purity 99.5%
Compound 8: ethyl acetate, C4H8O2, InChI=1S/C4H8O2/c1-3-6-4(2)5/h3H2,1-2H3, purity 99.5%
Compound 9: butan-1-ol, C4H10O, InChI=1S/C4H10O/c1-2-3-4-5/h5H,2-4H2,1H3, purity 99%
Compound 10: toluene, C7H8, InChI=1S/C7H8/c1-7-5-3-2-4-6-7/h2-6H,1H3, purity 99.5%
Compound 11: methanol, CH4O, InChI=1S/CH4O/c1-2/h2H,1H3, purity 99.5%
Compound 12: dichloromethane, CH2Cl2, InChI=1S/CH2Cl2/c2-1-3/h1H2, purity 99.5%
Compound 13: acetonitrile, C2H3N, InChI=1S/C2H3N/c1-2-3/h1H3, purity 99.6%
Compound 14: propan-2-ol, C3H8O, InChI=1S/C3H8O/c1-3(2)4/h3-4H,1-2H3, purity 99.7%

System: N,N'-di(1-naphthyl)-N,N'-diphenyl benzidine + toluene; phases: Liquid, Crystal
Property: Mole fraction of N,N'-di(1-naphthyl)-N,N'-diphenyl benzidine (Liquid); method: UV spectroscopy
Temperature, K	Pressure, kPa	Mole fraction of N,N'-di(1-naphthyl)-N,N'-diphenyl benzidine	uncertainty
298.15	100	0.00056	0.00011

System: N,N'-di(1-naphthyl)-N,N'-diphenyl benzidine + N-methylpyrrolidone; phases: Liquid, Crystal
Property: Mole fraction of N,N'-di(1-naphthyl)-N,N'-diphenyl benzidine (Liquid); method: OTHER
Temperature, K	Pressure, kPa	Mole fraction of N,N'-di(1-naphthyl)-N,N'-diphenyl benzidine	uncertainty
298.15	100	0.0023	0.0005

System: 1,3-bis(9-carbazolyl)benzene + methanol; phases: Liquid, Crystal
Fixed: Pressure, kPa = 100
Property: Mole fraction of 1,3-bis(9-carbazolyl)benzene (Liquid); method: OTHER
Temperature, K	Mole fraction of 1,3-bis(9-carbazolyl)benzene	uncertainty
283.15	4.36e-05	8.7e-06
293.15	6.14e-05	1.23e-05
303.15	9.66e-05	1.93e-05
313.15	0.000108	2.2e-05

System: 1,3-bis(9-carbazolyl)benzene + hexane; phases: Liquid, Crystal
Fixed: Pressure, kPa = 100
Property: Mole fraction of 1,3-bis(9-carbazolyl)benzene (Liquid); method: OTHER
Temperature, K	Mole fraction of 1,3-bis(9-carbazolyl)benzene	uncertainty
283.15	0.000183	3.7e-05
293.15	0.000259	5.2e-05
303.15	0.000342	6.8e-05
313.15	0.000381	7.6e-05

System: 1,3-bis(9-carbazolyl)benzene + dimethyl sulfoxide; phases: Liquid, Crystal
Fixed: Pressure, kPa = 100
Property: Mole fraction of 1,3-bis(9-carbazolyl)benzene (Liquid); method: OTHER
Temperature, K	Mole fraction of 1,3-bis(9-carbazolyl)benzene	uncertainty
293.15	0.00436	0.00087
303.15	0.00443	0.00089
313.15	0.00472	0.00094
323.15	0.00505	0.00101

System: 1,3-bis(9-carbazolyl)benzene + tetrahydrofuran; phases: Liquid, Crystal
Fixed: Pressure, kPa = 100
Property: Mole fraction of 1,3-bis(9-carbazolyl)benzene (Liquid); method: OTHER
Temperature, K	Mole fraction of 1,3-bis(9-carbazolyl)benzene	uncertainty
283.15	0.0507	0.0101
293.15	0.0528	0.0106
303.15	0.0598	0.012
313.15	0.0792	0.0158

System: 1,3-bis(9-carbazolyl)benzene + propan-2-ol; phases: Liquid, Crystal
Fixed: Pressure, kPa = 100
Property: Mole fraction of 1,3-bis(9-carbazolyl)benzene (Liquid); method: OTHER
Temperature, K	Mole fraction of 1,3-bis(9-carbazolyl)benzene	uncertainty
283.15	4.55e-05	9.1e-06
293.15	5.9e-05	1.18e-05
303.15	6.95e-05	1.39e-05
313.15	0.00011	2.2e-05

System: 1,3-bis(9-carbazolyl)benzene + acetonitrile; phases: Liquid, Crystal
Fixed: Pressure, kPa = 100
Property: Mole fraction of 1,3-bis(9-carbazolyl)benzene (Liquid); method: OTHER
Temperature, K	Mole fraction of 1,3-bis(9-carbazolyl)benzene	uncertainty
283.15	0.000243	4.9e-05
293.15	0.000311	6.2e-05
303.15	0.000363	7.3e-05
313.15	0.000483	9.7e-05

System: 1,3-bis(9-carbazolyl)benzene + ethyl acetate; phases: Liquid, Crystal
Fixed: Pressure, kPa = 100
Property: Mole fraction of 1,3-bis(9-carbazolyl)benzene (Liquid); method: OTHER
Temperature, K	Mole fraction of 1,3-bis(9-carbazolyl)benzene	uncertainty
283.15	0.00426	0.00085
293.15	0.00599	0.0012
303.15	0.00827	0.00165
313.15	0.00879	0.00176

System: 1,3-bis(9-carbazolyl)benzene + N-methylpyrrolidone; phases: Liquid, Crystal
Fixed: Pressure, kPa = 100
Property: Mole fraction of 1,3-bis(9-carbazolyl)benzene (Liquid); method: OTHER
Temperature, K	Mole fraction of 1,3-bis(9-carbazolyl)benzene	uncertainty
283.15	0.062	0.0124
293.15	0.0702	0.014
303.15	0.0761	0.0152
313.15	0.0801	0.016

System: 1,3-bis(9-carbazolyl)benzene + butan-1-ol; phases: Liquid, Crystal
Fixed: Pressure, kPa = 100
Property: Mole fraction of 1,3-bis(9-carbazolyl)benzene (Liquid); method: OTHER
Temperature, K	Mole fraction of 1,3-bis(9-carbazolyl)benzene	uncertainty
283.15	0.000122	2.4e-05
293.15	0.00017	3.4e-05
303.15	0.000217	4.3e-05
313.15	0.000318	6.4e-05

System: 1,3-bis(9-carbazolyl)benzene + ethanol; phases: Liquid, Crystal
Fixed: Pressure, kPa = 100
Property: Mole fraction of 1,3-bis(9-carbazolyl)benzene (Liquid); method: OTHER
Temperature, K	Mole fraction of 1,3-bis(9-carbazolyl)benzene	uncertainty
283.15	0.000448	9e-05
293.15	0.000561	0.000112
303.15	0.000802	0.00016
313.15	0.00109	0.00022

System: 1,3-bis(9-carbazolyl)benzene + toluene; phases: Liquid, Crystal
Fixed: Pressure, kPa = 100
Property: Mole fraction of 1,3-bis(9-carbazolyl)benzene (Liquid); method: OTHER
Temperature, K	Mole fraction of 1,3-bis(9-carbazolyl)benzene	uncertainty
283.15	0.0263	0.0053
293.15	0.0316	0.0063
303.15	0.0336	0.0067
313.15	0.0445	0.0089

System: 1,3-bis(9-carbazolyl)benzene + dichloromethane; phases: Liquid, Crystal
Fixed: Pressure, kPa = 100
Property: Mole fraction of 1,3-bis(9-carbazolyl)benzene (Liquid); method: OTHER
Temperature, K	Mole fraction of 1,3-bis(9-carbazolyl)benzene	uncertainty
273.15	0.0949	0.019
283.15	0.107	0.021
293.15	0.112	0.022
303.15	0.139	0.028
