Measured thermophysical data. Excess Molar Enthalpies of Deep Eutectic Solvents (DESs) Composed of Quaternary Ammonium Salts and Glycerol or Ethylene Glycol
Source: J. Chem. Eng. Data, 2016, 10.1021/acs.jced.6b00608
Compound 1: glycerol, C3H8O3, InChI=1S/C3H8O3/c4-1-3(6)2-5/h3-6H,1-2H2, purity 99%
Compound 2: choline chloride, C5H14ClNO, InChI=1S/C5H14NO.ClH/c1-6(2,3)4-5-7;/h7H,4-5H2,1-3H3;1H/q+1;/p-1, purity 99%
Compound 3: 1,2-ethanediol, C2H6O2, InChI=1S/C2H6O2/c3-1-2-4/h3-4H,1-2H2, purity 99%
Compound 4: tetrabutylammonium chloride, C16H36ClN, InChI=1S/C16H36N.ClH/c1-5-9-13-17(14-10-6-2,15-11-7-3)16-12-8-4;/h5-16H2,1-4H3;1H/q+1;/p-1, purity 98%

System: glycerol + choline chloride; phases: Liquid
Fixed: Pressure, kPa = 100
Fixed: Temperature, K = 323.15
Property: Molar enthalpy of solution, kJ/mol (Liquid); method: Calvet calorimetry
Mole fraction of choline chloride	Molar enthalpy of solution, kJ/mol	uncertainty
0.2003	18.417	4.002
0.2492	19.739	4.004
0.3321	12.06	4
0.5017	10.179	4.001

System: choline chloride + 1,2-ethanediol; phases: Liquid
Fixed: Pressure, kPa = 100
Fixed: Temperature, K = 323.15
Property: Molar enthalpy of solution, kJ/mol (Liquid); method: Calvet calorimetry
Mole fraction of choline chloride	Molar enthalpy of solution, kJ/mol	uncertainty
0.2002	19.75	4
0.2522	18.2	4
0.3369	15.889	4.005
0.4991	8.634	4.011

System: glycerol + tetrabutylammonium chloride; phases: Liquid
Fixed: Pressure, kPa = 100
Fixed: Temperature, K = 323.15
Property: Molar enthalpy of solution, kJ/mol (Liquid); method: Calvet calorimetry
Mole fraction of tetrabutylammonium chloride	Molar enthalpy of solution, kJ/mol	uncertainty
0.1999	10.535	4.001
0.2508	8.541	4.001

System: 1,2-ethanediol + tetrabutylammonium chloride; phases: Liquid
Fixed: Pressure, kPa = 100
Fixed: Temperature, K = 323.15
Property: Molar enthalpy of solution, kJ/mol (Liquid); method: Calvet calorimetry
Mole fraction of tetrabutylammonium chloride	Molar enthalpy of solution, kJ/mol	uncertainty
0.2005	9.476	4.001
0.2505	9.05	4
0.3334	7.795	4.001
