Measured thermophysical data. Influence of the Temperature, Type of Salt, and Alcohol on Phase Diagrams of 2-Propanol + Inorganic Salt Aqueous Two-Phase Systems: Experimental Determination and Correlation
Source: J. Chem. Eng. Data, 2018, 10.1021/acs.jced.8b00160
Compound 1: water, H2O, InChI=1S/H2O/h1H2, purity 99.9%
Compound 2: propan-2-ol, C3H8O, InChI=1S/C3H8O/c1-3(2)4/h3-4H,1-2H3, purity 99.8%
Compound 3: tripotassium phosphate, K3O4P, InChI=1S/3K.H3O4P/c;;;1-5(2,3)4/h;;;(H3,1,2,3,4)/q3*+1;/p-3, purity 98%
Compound 4: dipotassium hydrogen phosphate, HK2O4P, InChI=1S/2K.H3O4P/c;;1-5(2,3)4/h;;(H3,1,2,3,4)/q2*+1;/p-2, purity 99%
Compound 5: potassium sulfate, K2O4S, InChI=1S/2K.H2O4S/c;;1-5(2,3)4/h;;(H2,1,2,3,4)/q2*+1;/p-2, purity 99%
Compound 6: potassium sulfite, K2O3S, InChI=1S/2K.H2O3S/c;;1-4(2)3/h;;(H2,1,2,3)/q2*+1;/p-2, purity 95%

System: water; phases: Liquid
Fixed: Pressure, kPa = 100
Property: Mass density, kg/m3 (Liquid); method: Vibrating tube method
Temperature, K	Mass density, kg/m3	uncertainty
298.15	997.1	20
308.15	994.1	20
318.15	990.4	20

System: water; phases: Liquid
Fixed: Pressure, kPa = 100
Property: Refractive index (Na D-line) (Liquid); method: Standard Abbe refractometry
Temperature, K	Refractive index (Na D-line)	uncertainty
298.15	1.3324	0.002
308.15	1.3302	0.002
318.15	1.3298	0.002

System: dipotassium hydrogen phosphate + water + propan-2-ol; phases: Liquid
Fixed: Pressure, kPa = 100
Property: Mass density, kg/m3 (Liquid); method: Vibrating tube method
Temperature, K	Mass fraction of propan-2-ol	Mass fraction of dipotassium hydrogen phosphate	Mass density, kg/m3	uncertainty
298.15	0	0.02	1014.3	20
298.15	0	0.05	1040.9	20
298.15	0	0.1	1086.7	20
298.15	0	0.15	1134	20
298.15	0	0.2	1183.1	20
298.15	0	0.25	1234.3	20
298.15	0	0.3	1287.3	20
298.15	0.4029	0.0284	933.7	20
298.15	0.4436	0.022	924.2	20.2
298.15	0.4802	0.0143	913.9	20.2
298.15	0.0588	0.2237	1174.8	20.4
298.15	0.0512	0.2349	1194.4	20.5
298.15	0.0358	0.2539	1204.5	20.5
298.15	0	0	997.1	20
298.15	0.1	0	979.9	20
298.15	0.2	0	966.6	20
298.15	0.3	0	946	20
298.15	0.4	0	925.7	20
298.15	0.5	0	901.7	20
298.15	0.6	0	879	20
308.15	0	0	994.1	20
308.15	0.1	0	976.9	20
308.15	0.2	0	958.7	20
308.15	0.3	0	941.9	20
308.15	0.4	0	916.8	20
308.15	0.5	0	896.2	20
308.15	0.6	0	871.6	20
318.15	0	0	990.4	20
318.15	0.1	0	973.7	20
318.15	0.2	0	954.8	20
318.15	0.3	0	934.4	20
318.15	0.4	0	911.5	20
318.15	0.5	0	887.6	20
318.15	0.6	0	862.4	20
298.15	0.1	0.02	996.3	20
298.15	0.1	0.1	1059.4	20
298.15	0.2	0.05	1002.4	20
298.15	0.1	0.15	1096	20
298.15	0.05	0.2	1144.6	20
298.15	0.2	0.1	1037.6	20
298.15	0.3	0.02	957.9	20
298.15	0.4	0.02	936.7	20

System: dipotassium hydrogen phosphate + water + propan-2-ol; phases: Liquid
Fixed: Pressure, kPa = 100
Property: Refractive index (Na D-line) (Liquid); method: Standard Abbe refractometry
Temperature, K	Mass fraction of propan-2-ol	Mass fraction of dipotassium hydrogen phosphate	Refractive index (Na D-line)	uncertainty
298.15	0	0.02	1.336	0.002
298.15	0	0.05	1.3401	0.002
298.15	0	0.1	1.3478	0.002
298.15	0	0.15	1.3551	0.002
298.15	0	0.2	1.3626	0.002
298.15	0	0.25	1.3697	0.002
298.15	0	0.3	1.3774	0.002
298.15	0	0	1.3324	0.002
298.15	0.4029	0.0284	1.3657	0.0021
298.15	0.4436	0.022	1.3664	0.0021
298.15	0.4802	0.0143	1.3676	0.0021
298.15	0.0588	0.2237	1.3698	0.0021
298.15	0.0512	0.2349	1.3713	0.0021
298.15	0.0358	0.2539	1.3724	0.0021
298.15	0	0	1.3324	0.002
298.15	0.1	0	1.3418	0.002
298.15	0.2	0	1.3506	0.002
298.15	0.3	0	1.3573	0.002
298.15	0.4	0	1.3629	0.002
298.15	0.5	0	1.367	0.002
298.15	0.6	0	1.3705	0.002
308.15	0	0	1.3302	0.002
308.15	0.1	0	1.3372	0.002
308.15	0.2	0	1.3475	0.002
308.15	0.3	0	1.3559	0.002
308.15	0.4	0	1.3623	0.002
308.15	0.5	0	1.3668	0.002
308.15	0.6	0	1.3694	0.002
318.15	0	0	1.3298	0.002
318.15	0.1	0	1.3356	0.002
318.15	0.2	0	1.3447	0.002
318.15	0.3	0	1.3531	0.002
318.15	0.4	0	1.3596	0.002
318.15	0.5	0	1.3643	0.002
318.15	0.6	0	1.3679	0.002
298.15	0.1	0.02	1.3451	0.002
298.15	0.1	0.1	1.3561	0.002
298.15	0.2	0.05	1.3576	0.002
298.15	0.1	0.15	1.3643	0.002
298.15	0.05	0.2	1.3673	0.002
298.15	0.2	0.1	1.3649	0.002
298.15	0.3	0.02	1.3587	0.002
298.15	0.4	0.02	1.3656	0.002

System: dipotassium hydrogen phosphate + water + propan-2-ol; phases: Liquid mixture 1, Liquid mixture 2
Fixed: Temperature, K = 298.15
Fixed: Pressure, kPa = 100
Property: Mass fraction of dipotassium hydrogen phosphate (Liquid mixture 1); method: Titration method
Mass fraction of propan-2-ol	Mass fraction of dipotassium hydrogen phosphate	uncertainty
0.5645	0.0022	0.0022
0.541	0.0042	0.004
0.4853	0.0115	0.0041
0.4563	0.0167	0.0041
0.4298	0.0224	0.0042
0.4061	0.029	0.0042
0.3931	0.0318	0.0043
0.3698	0.0406	0.0043
0.3363	0.0489	0.0044
0.3077	0.0585	0.0045
0.2829	0.067	0.0047
0.2411	0.0835	0.005
0.2076	0.1033	0.0055
0.1837	0.118	0.0058
0.1544	0.1366	0.0063
0.1233	0.162	0.0069
0.1043	0.1771	0.0072
0.0754	0.2021	0.0081
0.0647	0.2193	0.0092
0.0416	0.2484	0.0095

System: dipotassium hydrogen phosphate + water + propan-2-ol; phases: Liquid mixture 2, Liquid mixture 1
Fixed: Temperature, K = 298.15
Fixed: Pressure, kPa = 100
Property: Mass fraction of dipotassium hydrogen phosphate (Liquid mixture 2); method: OTHER
Property: Mass fraction of dipotassium hydrogen phosphate (Liquid mixture 1); method: OTHER
Property: Mass fraction of propan-2-ol (Liquid mixture 1); method: OTHER
Mass fraction of propan-2-ol	Mass fraction of dipotassium hydrogen phosphate	uncertainty	Mass fraction of dipotassium hydrogen phosphate	uncertainty	Mass fraction of propan-2-ol	uncertainty
0.0588	0.2237	0.0086	0.0284	0.0041	0.4029	
0.0512	0.2349	0.0082	0.022	0.0041	0.4436	
0.0358	0.2539	0.0083	0.0143	0.0041	0.4802	

System: tripotassium phosphate + water + propan-2-ol; phases: Liquid
Fixed: Pressure, kPa = 100
Property: Mass density, kg/m3 (Liquid); method: Vibrating tube method
Temperature, K	Mass fraction of propan-2-ol	Mass fraction of tripotassium phosphate	Mass density, kg/m3	uncertainty
298.15	0	0.02	1015.8	20
298.15	0	0.05	1048.6	20
298.15	0	0.1	1106.7	20
298.15	0	0.15	1176.8	20
298.15	0	0.2	1203.4	20
298.15	0	0.25	1226.9	20
298.15	0	0.3	1241.7	20
308.15	0	0.02	1011.9	20
308.15	0	0.05	1045	20
308.15	0	0.1	1102.7	20
308.15	0	0.15	1172.6	20
308.15	0	0.2	1199.8	20
308.15	0	0.25	1223.5	20
308.15	0	0.3	1237.1	20
318.15	0	0.02	1008.3	20
318.15	0	0.05	1040.4	20
318.15	0	0.1	1100.3	20
318.15	0	0.15	1171.1	20
318.15	0	0.2	1194.9	20
318.15	0	0.25	1218	20
318.15	0	0.3	1231.8	20
298.15	0.4451	0.0202	933.9	20.3
298.15	0.4779	0.0149	924	20.5
298.15	0.5135	0.0104	908.3	20.5
298.15	0.0785	0.1965	1146.6	22.8
298.15	0.0628	0.2114	1164.5	20.9
298.15	0.052	0.2229	1187.7	20.8
308.15	0.4147	0.0374	941.3	20.1
308.15	0.4632	0.0275	932.6	20.5
308.15	0.5159	0.0193	915	20.4
308.15	0.0946	0.1835	1125.6	20.3
308.15	0.0748	0.1997	1144.2	22.2
308.15	0.0519	0.222	1165	21.3
318.15	0.3726	0.0575	951.6	20.2
318.15	0.4409	0.0395	936.6	20.4
318.15	0.4888	0.0298	920	20.4
318.15	0.1389	0.1597	1112.9	20.2
318.15	0.098	0.1857	1120.4	20.3
318.15	0.0784	0.2004	1130	21.7
298.15	0	0	997.1	20
298.15	0.1	0	979.9	20
298.15	0.2	0	966.6	20
298.15	0.3	0	946	20
298.15	0.4	0	925.7	20
298.15	0.5	0	901.7	20
298.15	0.6	0	879	20
308.15	0	0	994.1	20
308.15	0.1	0	976.9	20
308.15	0.2	0	958.7	20
308.15	0.3	0	941.9	20
308.15	0.4	0	916.8	20
308.15	0.5	0	896.2	20
308.15	0.6	0	871.6	20
318.15	0	0	990.4	20
318.15	0.1	0	973.7	20
318.15	0.2	0	954.8	20
318.15	0.3	0	934.4	20
318.15	0.4	0	911.5	20
318.15	0.5	0	887.6	20
318.15	0.6	0	862.4	20
298.15	0.1	0.05	1039.7	20
298.15	0.1	0.1	1099.2	20
298.15	0.08	0.15	1161	20
298.15	0.05	0.2	1218.9	20
298.15	0.2	0.05	1016.7	20
298.15	0.17	0.1	1079	20
298.15	0.3	0.05	991.9	20
298.15	0.4	0.01	932.9	20
308.15	0.1	0.05	1034.1	20
308.15	0.1	0.1	1092.4	20
308.15	0.08	0.15	1151.5	20
308.15	0.05	0.2	1204.3	20
308.15	0.2	0.05	1012.9	20
308.15	0.17	0.1	1075.4	20
308.15	0.3	0.05	989.9	20
308.15	0.4	0.01	927.4	20
318.15	0.1	0.05	1028.5	20
318.15	0.1	0.1	1085.3	20
318.15	0.08	0.15	1141.8	20
318.15	0.05	0.2	1189.8	20
318.15	0.2	0.05	1009.1	20
318.15	0.17	0.1	1071.6	20
318.15	0.3	0.05	988	20
318.15	0.4	0.01	922	20

System: tripotassium phosphate + water + propan-2-ol; phases: Liquid
Fixed: Pressure, kPa = 100
Property: Refractive index (Na D-line) (Liquid); method: Standard Abbe refractometry
Temperature, K	Mass fraction of propan-2-ol	Mass fraction of tripotassium phosphate	Refractive index (Na D-line)	uncertainty
298.15	0	0.02	1.3356	0.002
298.15	0	0.05	1.3413	0.002
298.15	0	0.1	1.3537	0.002
298.15	0	0.15	1.3651	0.002
298.15	0	0.2	1.3792	0.002
298.15	0	0.25	1.3962	0.002
298.15	0	0.3	1.418	0.002
308.15	0	0.02	1.3346	0.002
308.15	0	0.05	1.3402	0.002
308.15	0	0.1	1.3512	0.002
308.15	0	0.15	1.3632	0.002
308.15	0	0.2	1.3768	0.002
308.15	0	0.25	1.3928	0.002
308.15	0	0.3	1.4109	0.002
318.15	0	0.02	1.3337	0.002
318.15	0	0.05	1.3386	0.002
318.15	0	0.1	1.3488	0.002
318.15	0	0.15	1.3606	0.002
318.15	0	0.2	1.3736	0.002
318.15	0	0.25	1.3885	0.002
318.15	0	0.3	1.4029	0.002
298.15	0.4451	0.0202	1.3655	0.002
298.15	0.4779	0.0149	1.3664	0.002
298.15	0.5135	0.0104	1.3673	0.002
298.15	0.0785	0.1965	1.3691	0.0032
298.15	0.0628	0.2114	1.371	0.0021
298.15	0.052	0.2229	1.3736	0.0029
308.15	0.4147	0.0374	1.3658	0.0021
308.15	0.4632	0.0275	1.3667	0.002
308.15	0.5159	0.0193	1.3678	0.002
308.15	0.0946	0.1835	1.3668	0.0021
308.15	0.0748	0.1997	1.3685	0.0028
308.15	0.0519	0.222	1.371	0.0029
318.15	0.3726	0.0575	1.3659	0.0021
318.15	0.4409	0.0395	1.367	0.0021
318.15	0.4888	0.0298	1.3678	0.0021
318.15	0.1389	0.1597	1.3654	0.002
318.15	0.098	0.1857	1.3668	0.002
318.15	0.0784	0.2004	1.3682	0.0025
298.15	0	0	1.3324	0.002
298.15	0.1	0	1.3418	0.002
298.15	0.2	0	1.3506	0.002
298.15	0.3	0	1.3573	0.002
298.15	0.4	0	1.3629	0.002
298.15	0.5	0	1.367	0.002
298.15	0.6	0	1.3705	0.002
308.15	0	0	1.3302	0.002
308.15	0.1	0	1.3372	0.002
308.15	0.2	0	1.3475	0.002
308.15	0.3	0	1.3559	0.002
308.15	0.4	0	1.3623	0.002
308.15	0.5	0	1.3668	0.002
308.15	0.6	0	1.3694	0.002
318.15	0	0	1.3298	0.002
318.15	0.1	0	1.3356	0.002
318.15	0.2	0	1.3447	0.002
318.15	0.3	0	1.3531	0.002
318.15	0.4	0	1.3596	0.002
318.15	0.5	0	1.3643	0.002
318.15	0.6	0	1.3679	0.002
298.15	0.1	0.05	1.3507	0.002
298.15	0.1	0.1	1.3616	0.002
298.15	0.08	0.15	1.3728	0.002
298.15	0.05	0.2	1.3851	0.002
298.15	0.2	0.05	1.359	0.002
298.15	0.17	0.1	1.3675	0.002
298.15	0.3	0.05	1.366	0.002
298.15	0.4	0.01	1.3645	0.002
308.15	0.1	0.05	1.3491	0.002
308.15	0.1	0.1	1.3597	0.002
308.15	0.08	0.15	1.3702	0.002
308.15	0.05	0.2	1.3819	0.002
308.15	0.2	0.05	1.3572	0.002
308.15	0.17	0.1	1.3657	0.002
308.15	0.3	0.05	1.3641	0.002
308.15	0.4	0.01	1.3628	0.002
318.15	0.1	0.05	1.3471	0.002
318.15	0.1	0.1	1.3577	0.002
318.15	0.08	0.15	1.3678	0.002
318.15	0.05	0.2	1.3782	0.002
318.15	0.2	0.05	1.3549	0.002
318.15	0.17	0.1	1.3632	0.002
318.15	0.3	0.05	1.3619	0.002
318.15	0.4	0.01	1.3605	0.002

System: tripotassium phosphate + water + propan-2-ol; phases: Liquid mixture 1, Liquid mixture 2
Fixed: Pressure, kPa = 100
Property: Mass fraction of tripotassium phosphate (Liquid mixture 1); method: Titration method
Temperature, K	Mass fraction of propan-2-ol	Mass fraction of tripotassium phosphate	uncertainty
298.15	0.5351	0.0067	0.004
298.15	0.5056	0.0109	0.0041
298.15	0.4792	0.0163	0.0041
298.15	0.4268	0.025	0.0041
298.15	0.3994	0.0321	0.0042
298.15	0.3597	0.0432	0.0044
298.15	0.3126	0.0587	0.0045
298.15	0.2782	0.0711	0.0048
298.15	0.2509	0.0833	0.005
298.15	0.2078	0.1041	0.0054
298.15	0.1713	0.1248	0.0058
298.15	0.1523	0.1366	0.0061
298.15	0.1347	0.1466	0.0064
298.15	0.1201	0.1585	0.0069
298.15	0.097	0.1792	0.0074
298.15	0.0863	0.1888	0.008
298.15	0.0631	0.2165	0.0093
298.15	0.0524	0.2395	0.0103
298.15	0.0453	0.2454	0.0087
308.15	0.5738	0.0123	0.0041
308.15	0.5156	0.0196	0.0041
308.15	0.4904	0.0227	0.0041
308.15	0.4409	0.0336	0.0042
308.15	0.4125	0.0363	0.0042
308.15	0.3708	0.0499	0.0044
308.15	0.3385	0.0574	0.0045
308.15	0.2924	0.0755	0.0048
308.15	0.2555	0.0908	0.0051
308.15	0.195	0.1199	0.0056
308.15	0.1595	0.1385	0.006
308.15	0.1484	0.1459	0.0064
308.15	0.1258	0.1635	0.0067
308.15	0.0975	0.1826	0.0071
308.15	0.083	0.1921	0.0075
308.15	0.0617	0.2116	0.0083
308.15	0.0406	0.2357	0.0096
318.15	0.5802	0.0164	0.0041
318.15	0.5355	0.022	0.0041
318.15	0.4926	0.0296	0.0042
318.15	0.4632	0.0351	0.0042
318.15	0.4375	0.0409	0.0042
318.15	0.3983	0.0483	0.0043
318.15	0.3683	0.0586	0.0045
318.15	0.3405	0.0682	0.0047
318.15	0.2794	0.0913	0.005
318.15	0.2513	0.1033	0.0052
318.15	0.2185	0.1162	0.0055
318.15	0.1934	0.1325	0.0059
318.15	0.16	0.1472	0.0062
318.15	0.1087	0.1772	0.0069
318.15	0.092	0.1888	0.0074
318.15	0.0775	0.2017	0.0078
318.15	0.0581	0.2189	0.0084
318.15	0.0372	0.2415	0.009

System: tripotassium phosphate + water + propan-2-ol; phases: Liquid mixture 1, Liquid mixture 2
Fixed: Pressure, kPa = 100
Property: Mass fraction of tripotassium phosphate (Liquid mixture 1); method: density and index-of-refraction calibration
Property: Mass fraction of tripotassium phosphate (Liquid mixture 2); method: density and index-of-refraction calibration
Property: Mass fraction of propan-2-ol (Liquid mixture 2); method: density and index-of-refraction calibration
Temperature, K	Mass fraction of propan-2-ol	Mass fraction of tripotassium phosphate	uncertainty	Mass fraction of tripotassium phosphate	uncertainty	Mass fraction of propan-2-ol	uncertainty
298.15	0.4451	0.0202	0.0041	0.1965	0.0402	0.0785	
298.15	0.4779	0.0149	0.0041	0.2114	0.0403	0.0628	
298.15	0.5135	0.0104	0.004	0.2229	0.0403	0.052	
308.15	0.4147	0.0374	0.0042	0.1835	0.0402	0.0946	
308.15	0.4632	0.0275	0.0041	0.1997	0.0402	0.0748	
308.15	0.5159	0.0193	0.0041	0.222	0.0403	0.0519	
318.15	0.3726	0.0575	0.0043	0.1597	0.0401	0.1389	
318.15	0.4409	0.0395	0.0042	0.1857	0.0402	0.098	
318.15	0.4888	0.0298	0.0041	0.2004	0.0402	0.0784	

System: potassium sulfate + water + propan-2-ol; phases: Liquid mixture 1, Liquid mixture 2
Fixed: Temperature, K = 298.15
Fixed: Pressure, kPa = 100
Property: Mass fraction of potassium sulfate (Liquid mixture 1); method: Titration method
Mass fraction of propan-2-ol	Mass fraction of potassium sulfate	uncertainty
0.5566	0.0025	0.0025
0.4979	0.0038	0.0038
0.4551	0.0051	0.004
0.4227	0.0067	0.004
0.387	0.0086	0.004
0.3704	0.0097	0.004
0.3408	0.0123	0.004
0.2949	0.0171	0.0041
0.2399	0.0245	0.0041
0.2119	0.0291	0.0041
0.1587	0.0371	0.0042
0.1169	0.0433	0.0042
0.0675	0.052	0.0043
0.0433	0.0576	0.0045
0.0234	0.0648	0.0046

System: potassium sulfite + water + propan-2-ol; phases: Liquid mixture 1, Liquid mixture 2
Fixed: Temperature, K = 298.15
Fixed: Pressure, kPa = 100
Property: Mass fraction of potassium sulfite (Liquid mixture 1); method: Titration method
Mass fraction of propan-2-ol	Mass fraction of potassium sulfite	uncertainty
0.5457	0.0018	0.0018
0.52	0.0026	0.0026
0.4641	0.0049	0.004
0.4314	0.0068	0.004
0.3677	0.0119	0.004
0.3225	0.0178	0.0041
0.2653	0.0233	0.0041
0.2079	0.033	0.0042
0.1607	0.0398	0.0042
0.1219	0.0465	0.0043
0.0887	0.0533	0.0044
0.0688	0.0585	0.0045
0.0387	0.0695	0.0047
0.0254	0.0765	0.005
0.0165	0.0813	0.0051

System: dipotassium hydrogen phosphate + water; phases: Liquid
Fixed: Temperature, K = 298.15
Fixed: Pressure, kPa = 100
Property: Mass density, kg/m3 (Liquid); method: Vibrating tube method
Mass fraction of dipotassium hydrogen phosphate	Mass density, kg/m3	uncertainty
0.02	1014.3	20
0.05	1040.9	20
0.1	1086.7	20
0.15	1134	20
0.2	1183.1	20
0.25	1234.3	20
0.3	1287.3	20

System: dipotassium hydrogen phosphate + water; phases: Liquid
Fixed: Temperature, K = 298.15
Fixed: Pressure, kPa = 100
Property: Refractive index (Na D-line) (Liquid); method: Standard Abbe refractometry
Mass fraction of dipotassium hydrogen phosphate	Refractive index (Na D-line)	uncertainty
0.02	1.336	0.002
0.05	1.3401	0.002
0.1	1.3478	0.002
0.15	1.3551	0.002
0.2	1.3626	0.002
0.25	1.3697	0.002
0.3	1.3774	0.002

System: water + propan-2-ol; phases: Liquid
Fixed: Pressure, kPa = 100
Property: Mass density, kg/m3 (Liquid); method: Vibrating tube method
Temperature, K	Mass fraction of propan-2-ol	Mass density, kg/m3	uncertainty
298.15	0.1	979.9	20
298.15	0.2	966.6	20
298.15	0.3	946	20
298.15	0.4	925.7	20
298.15	0.5	901.7	20
298.15	0.6	879	20
308.15	0.1	976.9	20
308.15	0.2	958.7	20
308.15	0.3	941.9	20
308.15	0.4	916.8	20
308.15	0.5	896.2	20
308.15	0.6	871.6	20
318.15	0.1	973.7	20
318.15	0.2	954.8	20
318.15	0.3	934.4	20
318.15	0.4	911.5	20
318.15	0.5	887.6	20
318.15	0.6	862.4	20

System: water + propan-2-ol; phases: Liquid
Fixed: Pressure, kPa = 100
Property: Refractive index (Na D-line) (Liquid); method: Standard Abbe refractometry
Temperature, K	Mass fraction of propan-2-ol	Refractive index (Na D-line)	uncertainty
298.15	0.1	1.3418	0.002
298.15	0.2	1.3506	0.002
298.15	0.3	1.3573	0.002
298.15	0.4	1.3629	0.002
298.15	0.5	1.367	0.002
298.15	0.6	1.3705	0.002
308.15	0.1	1.3372	0.002
308.15	0.2	1.3475	0.002
308.15	0.3	1.3559	0.002
308.15	0.4	1.3623	0.002
308.15	0.5	1.3668	0.002
308.15	0.6	1.3694	0.002
318.15	0.1	1.3356	0.002
318.15	0.2	1.3447	0.002
318.15	0.3	1.3531	0.002
318.15	0.4	1.3596	0.002
318.15	0.5	1.3643	0.002
318.15	0.6	1.3679	0.002

System: tripotassium phosphate + water; phases: Liquid
Fixed: Pressure, kPa = 100
Property: Mass density, kg/m3 (Liquid); method: Vibrating tube method
Temperature, K	Mass fraction of tripotassium phosphate	Mass density, kg/m3	uncertainty
298.15	0.02	1015.8	20
298.15	0.05	1048.6	20
298.15	0.1	1106.7	20
298.15	0.15	1176.8	20
298.15	0.2	1203.4	20
298.15	0.25	1226.9	20
298.15	0.3	1241.7	20
308.15	0.02	1011.9	20
308.15	0.05	1045	20
308.15	0.1	1102.7	20
308.15	0.15	1172.6	20
308.15	0.2	1199.8	20
308.15	0.25	1223.5	20
308.15	0.3	1237.1	20
318.15	0.02	1008.3	20
318.15	0.05	1040.4	20
318.15	0.1	1100.3	20
318.15	0.15	1171.1	20
318.15	0.2	1194.9	20
318.15	0.25	1218	20
318.15	0.3	1231.8	20

System: tripotassium phosphate + water; phases: Liquid
Fixed: Pressure, kPa = 100
Property: Refractive index (Na D-line) (Liquid); method: Standard Abbe refractometry
Temperature, K	Mass fraction of tripotassium phosphate	Refractive index (Na D-line)	uncertainty
298.15	0.02	1.3356	0.002
298.15	0.05	1.3413	0.002
298.15	0.1	1.3537	0.002
298.15	0.15	1.3651	0.002
298.15	0.2	1.3792	0.002
298.15	0.25	1.3962	0.002
298.15	0.3	1.418	0.002
308.15	0.02	1.3346	0.002
308.15	0.05	1.3402	0.002
308.15	0.1	1.3512	0.002
308.15	0.15	1.3632	0.002
308.15	0.2	1.3768	0.002
308.15	0.25	1.3928	0.002
308.15	0.3	1.4109	0.002
318.15	0.02	1.3337	0.002
318.15	0.05	1.3386	0.002
318.15	0.1	1.3488	0.002
318.15	0.15	1.3606	0.002
318.15	0.2	1.3736	0.002
318.15	0.25	1.3885	0.002
318.15	0.3	1.4029	0.002
