Measured thermophysical data. Physico-Chemical Properties of LiFSI Solutions I. LiFSI with Valeronitrile, Dichloromethane, 1,2-Dichloroethane, and 1,2-Dichlorobenzene
Source: J. Chem. Eng. Data, 2019, 10.1021/acs.jced.8b00590
Compound 1: lithium bis(fluorosulfonyl)imide, F2LiNO4S2, InChI=1S/F2NO4S2.Li/c1-8(4,5)3-9(2,6)7;/q-1;+1, purity 99.99%
Compound 2: dichloromethane, CH2Cl2, InChI=1S/CH2Cl2/c2-1-3/h1H2, purity 99.98%
Compound 3: 1,2-dichloroethane, C2H4Cl2, InChI=1S/C2H4Cl2/c3-1-2-4/h1-2H2, purity 99.98%
Compound 4: potassium chloride, ClK, InChI=1S/ClH.K/h1H;/q;+1/p-1, purity 99.99%
Compound 5: water, H2O, InChI=1S/H2O/h1H2, purity 99.9%
Compound 6: sodium ethanoate, C2H3NaO2, InChI=1S/C2H4O2.Na/c1-2(3)4;/h1H3,(H,3,4);/q;+1/p-1, purity 99%
Compound 7: pentanenitrile, C5H9N, InChI=1S/C5H9N/c1-2-3-4-5-6/h2-4H2,1H3, purity 99.95%
Compound 8: 1,2-dichlorobenzene, C6H4Cl2, InChI=1S/C6H4Cl2/c7-5-3-1-2-4-6(5)8/h1-4H, purity 99%

System: pentanenitrile; phases: Liquid, Gas
Property: Vapor or sublimation pressure, kPa (Liquid); method: Ebulliometric method (Recirculating still)
Temperature, K	Vapor or sublimation pressure, kPa	uncertainty
412.96	100	2.1
411.12	95	2
407.76	86.4	1.8
395.4	60	1.3
386.22	45	0.9
374.08	30	0.6
362.77	20	0.4
345.13	10	0.4
344.89	9.9	0.4
329.35	5	0.2

System: pentanenitrile; phases: Liquid
Fixed: Pressure, kPa = 101.3
Property: Mass density, kg/m3 (Liquid); method: Vibrating tube method
Temperature, K	Mass density, kg/m3	uncertainty
283.15	807.7	2.4
293.15	799.1	2.4
303.15	790.4	2.4
313.15	781.7	2.4
323.15	772.9	2.3
333.15	764.2	2.3

System: pentanenitrile; phases: Liquid
Fixed: Pressure, kPa = 101.3
Property: Viscosity, Pa*s (Liquid); method: Falling or rolling sphere viscometry
Temperature, K	Viscosity, Pa*s	uncertainty
293.15	0.0007191	9e-06
313.15	0.0005654	7.1e-06
333.15	0.0004567	5.7e-06

System: 1,2-dichlorobenzene; phases: Liquid, Gas
Property: Vapor or sublimation pressure, kPa (Liquid); method: Ebulliometric method (Recirculating still)
Temperature, K	Vapor or sublimation pressure, kPa	uncertainty
452.62	98.36	2.02
451.11	95.11	1.96
448.94	90.2	1.85
443.92	79.98	1.65
438.87	69.93	1.45
433.29	59.97	1.25
429.99	55.03	1.14
422.87	45.05	0.94
418.75	40.02	0.83
414.16	35.02	0.73
408.91	30	0.63
403.4	24.99	0.53
396.96	20.04	0.42
388.41	14.98	0.61
377.35	9.95	0.4
360.41	4.86	0.2

System: lithium bis(fluorosulfonyl)imide + pentanenitrile; phases: Liquid
Fixed: Pressure, kPa = 101.3
Property: Mass density, kg/m3 (Liquid); method: Vibrating tube method
Temperature, K	Mole fraction of lithium bis(fluorosulfonyl)imide	Mass density, kg/m3	uncertainty
283.15	0	807.7	2.4
283.15	0.1	927.9	2.8
283.15	0.1997	1053.5	3.2
283.15	0.2999	1166.4	3.5
283.15	0.4076	1277.3	3.8
293.15	0	799.1	2.4
293.15	0.1	919.1	2.8
293.15	0.1997	1044.4	3.1
293.15	0.2999	1157.2	3.5
293.15	0.4076	1267.8	3.8
303.15	0	790.4	2.4
303.15	0.1	910.3	2.7
303.15	0.1997	1035.3	3.1
303.15	0.2999	1148	3.5
303.15	0.4076	1258.4	3.8
313.15	0	781.7	2.4
313.15	0.1	901.5	2.7
313.15	0.1997	1026.2	3.1
313.15	0.2999	1138.8	3.4
313.15	0.4076	1249	3.8
323.15	0	772.9	2.3
323.15	0.1	892.6	2.7
323.15	0.1997	1017.1	3.1
323.15	0.2999	1129.7	3.4
323.15	0.4076	1239.8	3.7
333.15	0	764.2	2.3
333.15	0.1	883.8	2.7
333.15	0.1997	1008.1	3
333.15	0.2999	1120.6	3.4
333.15	0.4076	1230.6	3.7

System: lithium bis(fluorosulfonyl)imide + pentanenitrile; phases: Liquid
Fixed: Pressure, kPa = 101.3
Property: Viscosity, Pa*s (Liquid); method: Falling or rolling sphere viscometry
Temperature, K	Mole fraction of lithium bis(fluorosulfonyl)imide	Viscosity, Pa*s	uncertainty
293.15	0	0.0007191	3.64e-05
293.15	0.0499	0.0013359	6.78e-05
293.15	0.1	0.0025207	4.09e-05
293.15	0.1997	0.0116691	0.000191
293.15	0.2999	0.0418164	0.0005748
293.15	0.3443	0.0650317	0.0009459
293.15	0.4076	0.1236403	0.0039653
293.15	0.4999	0.3821727	0.026288
313.15	0	0.0005654	2.86e-05
313.15	0.0499	0.0009852	4.99e-05
313.15	0.1	0.0017228	2.35e-05
313.15	0.1997	0.0066061	9.12e-05
313.15	0.2999	0.0210746	0.0002996
313.15	0.3443	0.0304693	0.000448
313.15	0.4076	0.053201	0.0007328
313.15	0.4999	0.1178338	0.0037733
333.15	0	0.0004567	2.31e-05
333.15	0.0499	0.0007657	3.87e-05
333.15	0.1	0.0012756	6.46e-05
333.15	0.1997	0.0042145	5.33e-05
333.15	0.2999	0.0122087	0.0001723
333.15	0.3443	0.0168805	0.0002434
333.15	0.4076	0.0274998	0.0004025
333.15	0.4999	0.0593869	0.0008931

System: lithium bis(fluorosulfonyl)imide + pentanenitrile; phases: Liquid, Crystal
Fixed: Pressure, kPa = 101.3
Property: Mole fraction of lithium bis(fluorosulfonyl)imide (Liquid); method: Titration method
Temperature, K	Mole fraction of lithium bis(fluorosulfonyl)imide	uncertainty
278.15	0.40483	0.00667
283.15	0.41004	0.00667
288.15	0.41532	0.00668
293.15	0.42197	0.00669
298.15	0.43017	0.0067
303.15	0.43873	0.00669
308.15	0.44589	0.0067
313.15	0.45515	0.00671
318.15	0.46418	0.00671
323.15	0.47363	0.00672
328.15	0.48227	0.00672
333.15	0.49241	0.00675
343.15	0.51718	0.00676

System: lithium bis(fluorosulfonyl)imide + pentanenitrile + dichloromethane; phases: Liquid, Crystal
Fixed: Pressure, kPa = 101.3
Property: Mole fraction of lithium bis(fluorosulfonyl)imide (Liquid); method: Titration method
Temperature, K	Mole fraction of pentanenitrile	Mole fraction of lithium bis(fluorosulfonyl)imide	uncertainty
283.15	0.49163	0.29103	0.00858
283.15	0.41486	0.22908	0.00812
283.15	0.30664	0.15909	0.00787
293.15	0.47856	0.30987	0.00924
293.15	0.40782	0.24217	0.00871
293.15	0.30537	0.16255	0.00837

System: lithium bis(fluorosulfonyl)imide + pentanenitrile + 1,2-dichloroethane; phases: Liquid, Crystal
Fixed: Pressure, kPa = 101.3
Property: Mole fraction of lithium bis(fluorosulfonyl)imide (Liquid); method: Titration method
Temperature, K	Mole fraction of pentanenitrile	Mole fraction of lithium bis(fluorosulfonyl)imide	uncertainty
278.15	0.28036	0.15043	0.00796
278.15	0.38844	0.2231	0.00816
278.15	0.46998	0.2879	0.00847
293.15	0.28029	0.15062	0.00802
293.15	0.38477	0.23044	0.0086
293.15	0.46152	0.30073	0.00899
313.15	0.27291	0.17301	0.00911
313.15	0.36994	0.2601	0.00911
313.15	0.44088	0.33199	0.00947
333.15	0.2693	0.18394	0.00964
333.15	0.35989	0.2802	0.01007
333.15	0.4224	0.36	0.01078

System: lithium bis(fluorosulfonyl)imide + pentanenitrile + 1,2-dichlorobenzene; phases: Liquid, Crystal
Fixed: Pressure, kPa = 101.3
Property: Mole fraction of lithium bis(fluorosulfonyl)imide (Liquid); method: Titration method
Temperature, K	Mole fraction of pentanenitrile	Mole fraction of lithium bis(fluorosulfonyl)imide	uncertainty
293.15	0.46903	0.29557	0.00858
293.15	0.39473	0.23505	0.00835
293.15	0.28291	0.15291	0.00821
313.15	0.45028	0.32373	0.00897
313.15	0.38118	0.2613	0.00869
313.15	0.2756	0.17481	0.00856
333.15	0.42889	0.35649	0.01049
333.15	0.36645	0.28048	0.01044

System: pentanenitrile + 1,2-dichloroethane; phases: Liquid, Gas
Fixed: Pressure, kPa = 20
Property: Boiling temperature at pressure P, K (Liquid); method: Ebulliometric method (Recirculating still)
Mole fraction of 1,2-dichloroethane	Boiling temperature at pressure P, K	uncertainty
0.837	317.11	0.46
0.7801	319.02	0.46
0.725	320.92	0.46
0.6697	323.02	0.47
0.5128	329.53	0.48
0.4122	334.3	0.47
0.3083	339.32	0.47
0.19	346.71	0.47
0.1303	350.92	0.46
0.0883	354.24	0.46
0.0594	356.54	0.46
0.0338	358.52	0.46

System: pentanenitrile + 1,2-dichloroethane; phases: Gas, Liquid
Fixed: Pressure, kPa = 20
Property: Mole fraction of 1,2-dichloroethane (Gas); method: Chromatography
Mole fraction of 1,2-dichloroethane	Mole fraction of 1,2-dichloroethane	uncertainty
0.837	0.9793	0.0003
0.7801	0.9701	0.0004
0.725	0.9603	0.0006
0.6697	0.945	0.0008
0.5128	0.8943	0.0016
0.4122	0.8352	0.0024
0.3083	0.7573	0.0032
0.19	0.5973	0.0046
0.1303	0.4726	0.0052
0.0883	0.3656	0.0041
0.0594	0.2634	0.003
0.0338	0.16	0.0019

System: pentanenitrile + 1,2-dichlorobenzene; phases: Liquid, Gas
Property: Boiling temperature at pressure P, K (Liquid); method: Closed cell (Static) method
Mole fraction of pentanenitrile	Pressure, kPa	Boiling temperature at pressure P, K	uncertainty
0.9592	20	363.51	0.67
0.9062	20	364.47	0.67
0.8456	20	365.65	0.66
0.797	20	366.51	0.66
0.7297	20	367.42	0.66
0.7476	20	367.44	0.65
0.6916	20	368.54	0.67
0.6546	20	369.24	0.66
0.5529	20	371.58	0.67
0.4701	20	373.64	0.7
0.3572	20	376.79	0.73
0.2006	20	380.95	0.77
0.1207	20	385.42	0.81
0.0569	20	390.12	0.77
0.0392	20	391.66	0.78
0.0216	20	393.53	0.79
0.9645	30	374.68	0.83
0.9323	30	375.25	0.8
0.8746	30	376.03	0.79
0.8109	30	377.26	0.81
0.6841	30	379.7	0.82
0.539	30	383.06	0.8
0.5126	30	383.94	0.81
0.4684	30	385.46	1.37
0.4667	30	385.2	1.37
0.3324	30	389.69	0.83
0.2163	30	394.33	0.89
0.1216	30	399.5	0.9
0.0835	30	401.82	0.86
0.0511	30	403.73	0.97
0.9738	45	386.37	1.03
0.9465	45	386.88	1.03
0.8969	45	387.69	1.06
0.7913	45	389.94	1.07
0.6853	45	392.28	1.11
0.5698	45	395.22	1.11
0.5165	45	396.28	1.09
0.4785	45	397.25	1.06
0.3655	45	400.54	1.09
0.2727	45	404.53	1.08
0.2079	45	406.96	1.1
0.1522	45	410.15	1.07
0.1122	45	412.25	1.08
0.0805	45	414.3	1.09
0.0375	45	418.21	1.16
0.0161	45	420.56	1.13

System: pentanenitrile + 1,2-dichlorobenzene; phases: Gas, Liquid
Property: Mole fraction of pentanenitrile (Gas); method: Chromatography
Mole fraction of pentanenitrile	Pressure, kPa	Mole fraction of pentanenitrile	uncertainty
0.9592	20	0.9855	0.0002
0.9062	20	0.965	0.0005
0.8456	20	0.9406	0.0007
0.797	20	0.922	0.001
0.7297	20	0.8949	0.0015
0.7476	20	0.9007	0.0012
0.6916	20	0.8735	0.0018
0.6546	20	0.859	0.0019
0.5529	20	0.8133	0.0025
0.4701	20	0.768	0.0033
0.3572	20	0.6769	0.0043
0.2006	20	0.5258	0.0056
0.1207	20	0.3824	0.005
0.0569	20	0.2192	0.0026
0.0392	20	0.1635	0.0021
0.0216	20	0.0954	0.002
0.9645	30	0.9855	0.0002
0.9323	30	0.9731	0.0004
0.8746	30	0.95	0.0006
0.8109	30	0.9271	0.001
0.6841	30	0.8616	0.0018
0.539	30	0.793	0.0029
0.5126	30	0.7788	0.0031
0.4684	30	0.7491	0.0073
0.4667	30	0.7455	0.0073
0.3324	30	0.6303	0.0045
0.2163	30	0.4984	0.0058
0.1216	30	0.3393	0.0039
0.0835	30	0.271	0.0031
0.0511	30	0.1892	0.0024
0.9738	45	0.9887	0.0002
0.9465	45	0.9768	0.0003
0.8969	45	0.9545	0.0006
0.7913	45	0.9089	0.0012
0.6853	45	0.8609	0.0018
0.5698	45	0.801	0.0026
0.5165	45	0.7731	0.0029
0.4785	45	0.7514	0.0033
0.3655	45	0.6737	0.004
0.2727	45	0.5749	0.0051
0.2079	45	0.5087	0.0057
0.1522	45	0.4097	0.0049
0.1122	45	0.3415	0.004
0.0805	45	0.2663	0.0032
0.0375	45	0.1342	0.0018
0.0161	45	0.0612	0.0009

System: potassium chloride + water; phases: Liquid, Crystal
Fixed: Pressure, kPa = 101.3
Property: Mole fraction of potassium chloride (Liquid); method: Titration method
Temperature, K	Mole fraction of potassium chloride	uncertainty
293.09	0.0761	0.004
298.15	0.0797	0.004
312.65	0.0881	0.004
333.15	0.0987	0.004

System: sodium ethanoate + water; phases: Liquid, Crystal of intercomponent compound 1
Fixed: Pressure, kPa = 101.3
Property: Mole fraction of sodium ethanoate (Liquid); method: Titration method
Temperature, K	Mole fraction of sodium ethanoate	uncertainty
293.15	0.0934	0.004
298.15	0.0993	0.0041
313.15	0.1257	0.0041

System: sodium ethanoate + water; phases: Liquid, Crystal
Property: Mole fraction of sodium ethanoate (Liquid); method: Titration method
Temperature, K	Pressure, kPa	Mole fraction of sodium ethanoate	uncertainty
333.15	101.3	0.2332	0.004
