Measured thermophysical data. Solubility Behavior of 2-Chloro-3- (trifluoromethyl)pyridine in (Ethyl Acetate + n-Butanol, DMF + n-Butanol, DMF + Ethanol) Solvent Mixtures
Source: J. Chem. Eng. Data, 2019, 10.1021/acs.jced.8b00989
Compound 1: 2-chloro-3-(trifluoromethyl)pyridine, C6H3ClF3N, InChI=1S/C6H3ClF3N/c7-5-4(6(8,9)10)2-1-3-11-5/h1-3H, purity 99.5%
Compound 2: ethyl acetate, C4H8O2, InChI=1S/C4H8O2/c1-3-6-4(2)5/h3H2,1-2H3, purity 99.7%
Compound 3: butan-1-ol, C4H10O, InChI=1S/C4H10O/c1-2-3-4-5/h5H,2-4H2,1H3, purity 99.7%
Compound 4: dimethylformamide, C3H7NO, InChI=1S/C3H7NO/c1-4(2)3-5/h3H,1-2H3, purity 99.8%
Compound 5: ethanol, C2H6O, InChI=1S/C2H6O/c1-2-3/h3H,2H2,1H3, purity 99.7%

System: 2-chloro-3-(trifluoromethyl)pyridine + ethyl acetate + butan-1-ol; phases: Liquid, Crystal
Fixed: Pressure, kPa = 100
Property: Mole fraction of 2-chloro-3-(trifluoromethyl)pyridine (Liquid); method: Chromatography
Solvent: Mass fraction of ethyl acetate	Temperature, K	Mole fraction of 2-chloro-3-(trifluoromethyl)pyridine	uncertainty
0	263.15	0.0947	0.0114
0	268.15	0.1184	0.0142
0	273.15	0.1401	0.0168
0	278.15	0.1835	0.022
0	283.15	0.2285	0.0274
0	288.15	0.2838	0.0341
0	293.15	0.3453	0.0414
0	298.15	0.4215	0.0506
0	303.15	0.5102	0.0588
0.2857	263.15	0.1391	0.0176
0.2857	268.15	0.1716	0.0215
0.2857	273.15	0.2076	0.0258
0.2857	278.15	0.2505	0.031
0.2857	283.15	0.3075	0.0377
0.2857	288.15	0.3692	0.0451
0.2857	293.15	0.4413	0.0537
0.2857	298.15	0.5189	0.0585
0.2857	303.15	0.5979	0.049
0.4445	263.15	0.1817	0.0236
0.4445	268.15	0.2148	0.0276
0.4445	273.15	0.2457	0.0312
0.4445	278.15	0.3023	0.0381
0.4445	283.15	0.3482	0.0436
0.4445	288.15	0.4123	0.0513
0.4445	293.15	0.4829	0.0595
0.4445	298.15	0.5598	0.0546
0.4445	303.15	0.6446	0.0449
0.6406	263.15	0.2123	0.0265
0.6406	268.15	0.2517	0.0313
0.6406	273.15	0.2909	0.0361
0.6406	278.15	0.3442	0.0424
0.6406	283.15	0.4075	0.05
0.6406	288.15	0.4762	0.0583
0.6406	293.15	0.5467	0.0557
0.6406	298.15	0.6284	0.0462
0.6406	303.15	0.7092	0.0368
0.8261	263.15	0.2574	0.0312
0.8261	268.15	0.3004	0.0364
0.8261	273.15	0.3432	0.0415
0.8261	278.15	0.4036	0.0487
0.8261	283.15	0.4592	0.0553
0.8261	288.15	0.5336	0.0562
0.8261	293.15	0.6091	0.0472
0.8261	298.15	0.6878	0.0379
0.8261	303.15	0.7663	0.0286
1	263.15	0.3063	0.0368
1	268.15	0.3499	0.042
1	273.15	0.3991	0.0479
1	278.15	0.4546	0.0546
1	283.15	0.5084	0.059
1	288.15	0.5826	0.0501
1	293.15	0.6517	0.0418
1	298.15	0.7388	0.0314
1	303.15	0.8237	0.0212

System: 2-chloro-3-(trifluoromethyl)pyridine + dimethylformamide + butan-1-ol; phases: Liquid, Crystal
Fixed: Pressure, kPa = 100
Property: Mole fraction of 2-chloro-3-(trifluoromethyl)pyridine (Liquid); method: Chromatography
Solvent: Mass fraction of dimethylformamide	Temperature, K	Mole fraction of 2-chloro-3-(trifluoromethyl)pyridine	uncertainty
0	263.15	0.0895	0.0107
0	268.15	0.1144	0.0137
0	273.15	0.1401	0.0168
0	278.15	0.1835	0.022
0	283.15	0.2285	0.0274
0	288.15	0.2838	0.0341
0	293.15	0.3453	0.0414
0	298.15	0.4215	0.0506
0	303.15	0.5102	0.0588
0.2857	263.15	0.1566	0.02
0.2857	268.15	0.1913	0.0243
0.2857	273.15	0.229	0.0289
0.2857	278.15	0.2805	0.035
0.2857	283.15	0.3355	0.0417
0.2857	288.15	0.3968	0.049
0.2857	293.15	0.4653	0.0572
0.2857	298.15	0.5455	0.056
0.2857	303.15	0.6403	0.0451
0.4445	263.15	0.197	0.0256
0.4445	268.15	0.2362	0.0304
0.4445	273.15	0.2783	0.0354
0.4445	278.15	0.3345	0.0424
0.4445	283.15	0.394	0.0497
0.4445	288.15	0.4599	0.0577
0.4445	293.15	0.533	0.059
0.4445	298.15	0.6178	0.0501
0.4445	303.15	0.7126	0.04
0.6406	263.15	0.2351	0.0297
0.6406	268.15	0.2798	0.0351
0.6406	273.15	0.3243	0.0405
0.6406	278.15	0.3891	0.0483
0.6406	283.15	0.4574	0.0565
0.6406	288.15	0.5319	0.058
0.6406	293.15	0.6137	0.0488
0.6406	298.15	0.7072	0.0388
0.6406	303.15	0.802	0.0289
0.8261	263.15	0.2946	0.0356
0.8261	268.15	0.3445	0.0416
0.8261	273.15	0.397	0.048
0.8261	278.15	0.4642	0.056
0.8261	283.15	0.5348	0.0562
0.8261	288.15	0.6117	0.0471
0.8261	293.15	0.6958	0.0372
0.8261	298.15	0.7917	0.0261
0.8261	303.15	0.8865	0.0159
1	263.15	0.3245	0.0389
1	268.15	0.3786	0.0454
1	273.15	0.4412	0.053
1	278.15	0.5034	0.0596
1	283.15	0.5796	0.0505
1	288.15	0.6715	0.0395
1	293.15	0.7536	0.0296
1	298.15	0.8548	0.0175
1	303.15	0.9657	0.0047

System: 2-chloro-3-(trifluoromethyl)pyridine + dimethylformamide + ethanol; phases: Liquid, Crystal
Fixed: Pressure, kPa = 100
Property: Mole fraction of 2-chloro-3-(trifluoromethyl)pyridine (Liquid); method: Chromatography
Solvent: Mass fraction of dimethylformamide	Temperature, K	Mole fraction of 2-chloro-3-(trifluoromethyl)pyridine	uncertainty
0	263.15	0.0807	0.0097
0	268.15	0.1115	0.0134
0	273.15	0.1536	0.0184
0	278.15	0.2058	0.0247
0	283.15	0.2823	0.0339
0	288.15	0.3633	0.0436
0	293.15	0.4763	0.0572
0	298.15	0.6205	0.0456
0	303.15	0.8111	0.0228
0.2857	263.15	0.139	0.0178
0.2857	268.15	0.1797	0.0227
0.2857	273.15	0.2328	0.0291
0.2857	278.15	0.2906	0.0359
0.2857	283.15	0.3656	0.0447
0.2857	288.15	0.4578	0.0557
0.2857	293.15	0.5724	0.0521
0.2857	298.15	0.7053	0.0363
0.2857	303.15	0.8553	0.018
0.4445	263.15	0.1757	0.024
0.4445	268.15	0.2201	0.0292
0.4445	273.15	0.2814	0.0362
0.4445	278.15	0.3365	0.0428
0.4445	283.15	0.4092	0.0511
0.4445	288.15	0.5045	0.0611
0.4445	293.15	0.6051	0.0488
0.4445	298.15	0.7398	0.0326
0.4445	303.15	0.8798	0.0161
0.6406	263.15	0.2306	0.0293
0.6406	268.15	0.2796	0.0351
0.6406	273.15	0.3378	0.0418
0.6406	278.15	0.4027	0.0496
0.6406	283.15	0.4772	0.0584
0.6406	288.15	0.5703	0.0526
0.6406	293.15	0.6657	0.0412
0.6406	298.15	0.7802	0.0275
0.6406	303.15	0.9101	0.0123
0.8261	263.15	0.2777	0.0336
0.8261	268.15	0.3291	0.0398
0.8261	273.15	0.3912	0.0472
0.8261	278.15	0.4561	0.055
0.8261	283.15	0.5287	0.0568
0.8261	288.15	0.6138	0.0466
0.8261	293.15	0.7043	0.0358
0.8261	298.15	0.8188	0.0221
0.8261	303.15	0.9388	0.0081
1	263.15	0.3245	0.0389
1	268.15	0.3786	0.0454
1	273.15	0.4412	0.053
1	278.15	0.5034	0.0596
1	283.15	0.5796	0.0505
1	288.15	0.6715	0.0395
1	293.15	0.7536	0.0296
1	298.15	0.8548	0.0175
1	303.15	0.9657	0.0047

System: 2-chloro-3-(trifluoromethyl)pyridine + butan-1-ol; phases: Liquid, Crystal
Fixed: Pressure, kPa = 100
Property: Mole fraction of 2-chloro-3-(trifluoromethyl)pyridine (Liquid); method: Chromatography
Temperature, K	Mole fraction of 2-chloro-3-(trifluoromethyl)pyridine	uncertainty
263.15	0.0947	0.0114
268.15	0.1184	0.0142
273.15	0.1401	0.0168
278.15	0.1835	0.022
283.15	0.2285	0.0274
288.15	0.2838	0.0341
293.15	0.3453	0.0414
298.15	0.4215	0.0506
303.15	0.5102	0.0588
263.15	0.0895	0.0107
268.15	0.1144	0.0137

System: 2-chloro-3-(trifluoromethyl)pyridine + ethyl acetate; phases: Liquid, Crystal
Fixed: Pressure, kPa = 100
Property: Mole fraction of 2-chloro-3-(trifluoromethyl)pyridine (Liquid); method: Chromatography
Temperature, K	Mole fraction of 2-chloro-3-(trifluoromethyl)pyridine	uncertainty
263.15	0.3063	0.0368
268.15	0.3499	0.042
273.15	0.3991	0.0479
278.15	0.4546	0.0546
283.15	0.5084	0.059
288.15	0.5826	0.0501
293.15	0.6517	0.0418
298.15	0.7388	0.0314
303.15	0.8237	0.0212

System: 2-chloro-3-(trifluoromethyl)pyridine + dimethylformamide; phases: Liquid, Crystal
Fixed: Pressure, kPa = 100
Property: Mole fraction of 2-chloro-3-(trifluoromethyl)pyridine (Liquid); method: Chromatography
Temperature, K	Mole fraction of 2-chloro-3-(trifluoromethyl)pyridine	uncertainty
263.15	0.3245	0.0389
268.15	0.3786	0.0454
273.15	0.4412	0.053
278.15	0.5034	0.0596
283.15	0.5796	0.0505
288.15	0.6715	0.0395
293.15	0.7536	0.0296
298.15	0.8548	0.0175
303.15	0.9657	0.0047

System: 2-chloro-3-(trifluoromethyl)pyridine + ethanol; phases: Liquid, Crystal
Fixed: Pressure, kPa = 100
Property: Mole fraction of 2-chloro-3-(trifluoromethyl)pyridine (Liquid); method: Chromatography
Temperature, K	Mole fraction of 2-chloro-3-(trifluoromethyl)pyridine	uncertainty
263.15	0.0807	0.0097
268.15	0.1115	0.0134
273.15	0.1536	0.0184
278.15	0.2058	0.0247
283.15	0.2823	0.0339
288.15	0.3633	0.0436
293.15	0.4763	0.0572
298.15	0.6205	0.0456
303.15	0.8111	0.0228
