Measured thermophysical data. Phase Equilibrium of Three Binary Mixtures Containing NO and Components Present in Ambient Air
Source: J. Chem. Eng. Data, 2018, 10.1021/acs.jced.7b00782
Compound 1: argon, Ar, InChI=1S/Ar
Compound 2: nitrogen, N2, InChI=1S/N2/c1-2
Compound 3: carbon monoxide, CO, InChI=1S/CO/c1-2
Compound 4: nitrogen oxide (NO), NO, InChI=1S/NO/c1-2

System: argon; phases: Liquid, Gas
Property: Vapor or sublimation pressure, kPa (Liquid); method: Closed cell (Static) method
Temperature, K	Vapor or sublimation pressure, kPa	uncertainty
135.8	2605.6	58.3
146.22	4028.9	58.5

System: carbon monoxide; phases: Liquid, Gas
Property: Vapor or sublimation pressure, kPa (Liquid); method: Closed cell (Static) method
Temperature, K	Vapor or sublimation pressure, kPa	uncertainty
105.89	830	40
127.32	2682	40.1

System: nitrogen oxide (NO); phases: Liquid, Gas
Property: Vapor or sublimation pressure, kPa (Liquid); method: Closed cell (Static) method
Temperature, K	Vapor or sublimation pressure, kPa	uncertainty
135.8	410.9	26.3
146.22	987.8	29.9
127.32	188.3	22.6

System: nitrogen oxide (NO); phases: Crystal, Gas
Property: Vapor or sublimation pressure, kPa (Crystal); method: Closed cell (Static) method
Temperature, K	Vapor or sublimation pressure, kPa	uncertainty
105.89	13.6	20

System: argon + nitrogen oxide (NO); phases: Gas, Liquid
Property: Vapor or sublimation pressure, kPa (Gas); method: Closed cell (Static) method
Mole fraction of argon	Temperature, K	Vapor or sublimation pressure, kPa	uncertainty
0	135.8	410.9	29.9
0.0282	135.8	643.2	29.7
0.0636	135.8	884.4	32.3
0.0944	135.8	1063.4	33.8
0.173	135.8	1401.2	38.6
0.312	135.8	1759.7	40.2
0.392	135.8	1923	47.3
0.478	135.8	2031.5	45.8
0.581	135.8	2158.7	49
0.671	135.8	2248.4	54.1
1	135.8	2605.6	58.7
0	146.22	987.8	30
0.0698	146.22	1567.8	34.8
0.0924	146.22	1737.7	41.1
0.1475	146.22	2052.1	35.8
0.2698	146.22	2537.4	43.4
0.468	146.22	3078.6	50
0.5728	146.22	3295.3	51.3
0.712	146.22	3593.4	53.5
0.8206	146.22	3828	55.8
1	146.22	4028.9	59.4

System: argon + nitrogen oxide (NO); phases: Gas, Liquid
Property: Mole fraction of argon (Gas); method: Chromatography
Mole fraction of argon	Temperature, K	Mole fraction of argon	uncertainty
0	135.8	0	
0.0282	135.8	0.3613	0.0043
0.0636	135.8	0.5431	0.0082
0.0944	135.8	0.6173	0.0076
0.173	135.8	0.7006	0.007
0.312	135.8	0.768	0.006
0.392	135.8	0.788	0.005
0.478	135.8	0.809	0.005
0.581	135.8	0.831	0.004
0.671	135.8	0.851	0.004
1	135.8	1	
0	146.22	0	
0.0698	146.22	0.36283	0.01294
0.0924	146.22	0.4235	0.0116
0.1475	146.22	0.51394	0.0087
0.2698	146.22	0.61724	0.00763
0.468	146.22	0.70481	0.00595
0.5728	146.22	0.74408	0.00468
0.712	146.22	0.8028	0.0032
0.8206	146.22	0.8617	0.0044
1	146.22	1	

System: carbon monoxide + nitrogen oxide (NO); phases: Gas, Liquid
Property: Vapor or sublimation pressure, kPa (Gas); method: Closed cell (Static) method
Mole fraction of carbon monoxide	Temperature, K	Vapor or sublimation pressure, kPa	uncertainty
0	105.89	13.6	20.3
0.9607	105.89	784.7	39.9
0.9776	105.89	802.6	40
0.9653	105.89	790.5	40.1
0.10236	105.89	373.9	23.7
0.127	105.89	423.6	23.8
0.1727	105.89	494.7	26.5
0.442	105.89	655.2	31.3
0.624	105.89	693	33.6
0.729	105.89	714.1	35
0.762	105.89	720	35
0.817	105.89	730	37.1
1	105.89	830	40
0	127.32	188.3	20.3
0.0198	127.32	385.2	21.7
0.0329	127.32	501.1	20.7
0.0763	127.32	834.8	24.2
0.119	127.32	1090.7	23.9
0.211	127.32	1469.6	26.1
0.314	127.32	1717.8	31.6
0.449	127.32	1914.5	31.2
0.5794	127.32	2064.5	33.8
0.6493	127.32	2138.1	33.8
0.7082	127.32	2187.9	35.2
0.74575	127.32	2248.4	35.8
0.86122	127.32	2419	37.1
0.9157	127.32	2514.6	40.2
1	127.32	2682	40.7

System: carbon monoxide + nitrogen oxide (NO); phases: Gas, Liquid
Property: Mole fraction of carbon monoxide (Gas); method: Chromatography
Mole fraction of carbon monoxide	Temperature, K	Mole fraction of carbon monoxide	uncertainty
0	105.89	0	
0.9607	105.89	0.9946	0.0001
0.9776	105.89	0.99632	0.0001
0.9653	105.89	0.99508	9e-05
0.10236	105.89	0.9671	0.0033
0.127	105.89	0.97249	0.00302
0.1727	105.89	0.97742	0.0023
0.442	105.89	0.98341	0.00165
0.624	105.89	0.98489	0.00144
0.729	105.89	0.98588	0.00125
0.762	105.89	0.98707	0.00125
0.817	105.89	0.9881	0.0009
1	105.89	1	
0	127.32	0	
0.0198	127.32	0.5034	0.0163
0.0329	127.32	0.618	0.009
0.0763	127.32	0.754	0.006
0.119	127.32	0.8092	0.0039
0.211	127.32	0.85953	0.00307
0.314	127.32	0.8815	0.002
0.449	127.32	0.8946	0.002
0.5794	127.32	0.9018	0.0017
0.6493	127.32	0.9084	0.0017
0.7082	127.32	0.9137	0.0018
0.74575	127.32	0.9201	0.0014
0.86122	127.32	0.9421	0.0012
0.9157	127.32	0.959	0.0008
1	127.32	1	

System: nitrogen + nitrogen oxide (NO); phases: Gas, Liquid
Property: Vapor or sublimation pressure, kPa (Gas); method: Closed cell (Static) method
Mole fraction of nitrogen	Temperature, K	Vapor or sublimation pressure, kPa	uncertainty
0.0328	105.69	300.8	21.2
0.0774	105.69	537.9	24.8
0.0912	105.69	620.7	26.9
0.105	105.69	707.8	25.6
0.147	105.69	822.6	27.3
0.159	105.69	855.5	27.9
0.18	105.69	892.2	29.2
0.225	105.69	947.4	29
0.259	105.69	979.1	32.1
0.0236	127.14	556.8	22.7
0.0474	127.14	875.1	24.8
0.0695	127.14	1130.4	27.5
0.104	127.14	1450	30.1
0.141	127.14	1746.4	30.1
0.184	127.14	1986.1	32.6
0.282	127.14	2321.1	32.1
0.45	127.14	2566	39.4
0.561	127.14	2657.3	41.9
0.632	127.14	2721.3	32.4
0.644	127.14	2748.2	32.4
0.703	127.14	2794.4	42.8

System: nitrogen + nitrogen oxide (NO); phases: Gas, Liquid
Property: Mole fraction of nitrogen (Gas); method: Chromatography
Mole fraction of nitrogen	Temperature, K	Mole fraction of nitrogen	uncertainty
0.0328	105.69	0.9713	0.0057
0.0774	105.69	0.9828	0.0029
0.0912	105.69	0.9845	0.0024
0.105	105.69	0.9893	0.0024
0.147	105.69	0.99222	0.00211
0.159	105.69	0.99244	0.00212
0.18	105.69	0.9941	0.00192
0.225	105.69	0.99447	0.00193
0.259	105.69	0.99304	0.00162
0.0236	127.14	0.667	0.009
0.0474	127.14	0.783	0.008
0.0695	127.14	0.829	0.006
0.104	127.14	0.862	0.004
0.141	127.14	0.879	0.003
0.184	127.14	0.891	0.003
0.282	127.14	0.906	0.003
0.45	127.14	0.913	0.0024
0.561	127.14	0.9151	0.0024
0.632	127.14	0.9185	0.0036
0.644	127.14	0.9206	0.0036
0.703	127.14	0.9221	0.0021

System: nitrogen + nitrogen oxide (NO); phases: Gas, Liquid
Fixed: Temperature, K = 105.69
Property: Mole fraction of nitrogen (Gas); method: Chromatography
Pressure, kPa	Mole fraction of nitrogen	uncertainty
355.8	0.9751	0.001
465.3	0.9794	0.0009
