Measured thermophysical data. Influence of Temperature and Surfactants on the Solubilization of Hexachlorobutadiene and Hexachloroethane
Source: J. Chem. Eng. Data, 2017, 10.1021/acs.jced.7b00320
Compound 1: 1,1,2,3,4,4-hexachloro-1,3-butadiene, C4Cl6, InChI=1S/C4Cl6/c5-1(3(7)8)2(6)4(9)10, purity 96%
Compound 2: hexachloroethane, C2Cl6, InChI=1S/C2Cl6/c3-1(4,5)2(6,7)8, purity 99%
Compound 3: water, H2O, InChI=1S/H2O/h1H2, purity 99.9%

System: 1,1,2,3,4,4-hexachloro-1,3-butadiene + water; phases: Liquid mixture 1, Liquid mixture 2
Fixed: Pressure, kPa = 100
Property: Mole fraction of 1,1,2,3,4,4-hexachloro-1,3-butadiene (Liquid mixture 1); method: Chromatography
Temperature, K	Mole fraction of 1,1,2,3,4,4-hexachloro-1,3-butadiene	uncertainty
285.15	2.53e-07	1.16e-07
291.15	2.29e-07	2.6e-08
298.15	2.25e-07	7.2e-08
308.15	3.06e-07	6.5e-08
318.15	4.08e-07	9.9e-08

System: hexachloroethane + water; phases: Liquid mixture 1, Crystal 3
Fixed: Pressure, kPa = 100
Property: Mole fraction of hexachloroethane (Liquid mixture 1); method: Chromatography
Temperature, K	Mole fraction of hexachloroethane	uncertainty
285.15	1.36e-06	3.3e-07
291.15	9.65e-07	8.8e-08
298.15	8.76e-07	1.75e-07
308.15	1.73e-06	3.5e-07
318.15	2.83e-06	6.5e-07
