Measured thermophysical data. Experimental and Thermodynamic Model Study on Solid and Liquid Equilibrium of Ternary System MgBr2 MgSO4 H2O at 333.15 K
Source: J. Chem. Eng. Data, 2016, 10.1021/acs.jced.6b00290
Compound 1: magnesium sulfate, MgO4S, InChI=1S/Mg.H2O4S/c;1-5(2,3)4/h;(H2,1,2,3,4)/q+2;/p-2, purity 99%
Compound 2: water, H2O, InChI=1S/H2O/h1H2, purity 99.9%
Compound 3: magnesium bromide (MgBr2), Br2Mg, InChI=1S/2BrH.Mg/h2*1H;/q;;+2/p-2, purity 98%

System: magnesium sulfate + water + magnesium bromide (MgBr2); phases: Liquid, Crystal of intercomponent compound 1
Fixed: Temperature, K = 333.15
Fixed: Pressure, kPa = 100
Property: Mass fraction of magnesium sulfate (Liquid); method: Titration method
Mass fraction of magnesium bromide (MgBr2)	Mass fraction of magnesium sulfate	uncertainty
0	0.3525	0.0043
0.0327	0.3283	0.004
0.0627	0.3017	0.0037
0.0864	0.2811	0.0035
0.1256	0.245	0.0031
0.1587	0.2202	0.0028
0.1927	0.2025	0.0035
0.2	0.1866	0.0035
0.2293	0.1704	0.0023
0.276	0.136	0.0021

System: magnesium sulfate + water + magnesium bromide (MgBr2); phases: Liquid, Crystal of intercomponent compound 2
Fixed: Temperature, K = 333.15
Fixed: Pressure, kPa = 100
Property: Mass fraction of magnesium sulfate (Liquid); method: Titration method
Mass fraction of magnesium bromide (MgBr2)	Mass fraction of magnesium sulfate	uncertainty
0.276	0.136	0.002
0.3102	0.1125	0.002
0.3192	0.102	0.0022
0.3243	0.0997	0.0015
0.3587	0.0742	0.0018

System: magnesium sulfate + water + magnesium bromide (MgBr2); phases: Liquid, Crystal of intercomponent compound 3
Fixed: Temperature, K = 333.15
Fixed: Pressure, kPa = 100
Property: Mass fraction of magnesium sulfate (Liquid); method: Titration method
Mass fraction of magnesium bromide (MgBr2)	Mass fraction of magnesium sulfate	uncertainty
0.3587	0.0742	0.0026
0.3685	0.0631	0.0019
0.3984	0.0429	0.0014
0.4298	0.0285	0.001
0.4654	0.0174	0.0008
0.4856	0.0136	0.0005
0.5099	0.0105	0.0005
0.5201	0.0082	0.0007

System: magnesium sulfate + water + magnesium bromide (MgBr2); phases: Liquid, Crystal of intercomponent compound 1
Fixed: Temperature, K = 333.15
Fixed: Pressure, kPa = 100
Property: Mass fraction of magnesium sulfate (Liquid); method: Titration method
Mass fraction of magnesium bromide (MgBr2)	Mass fraction of magnesium sulfate	uncertainty
0.5201	0.0082	0.0064
0.5241	0	

System: magnesium sulfate + water + magnesium bromide (MgBr2); phases: Liquid
Fixed: Pressure, kPa = 100
Fixed: Temperature, K = 333.15
Property: Refractive index (Na D-line) (Liquid); method: Standard Abbe refractometry
Mass fraction of magnesium bromide (MgBr2)	Mass fraction of magnesium sulfate	Refractive index (Na D-line)	uncertainty
0	0.3525	1.3957	0.0004
0.0327	0.3283	1.4006	0.001
0.0627	0.3017	1.403	0.0004
0.0864	0.2811	1.4039	0.0004
0.1256	0.245	1.406	0.0004
0.1587	0.2202	1.4082	0.0004
0.1927	0.2025	1.4099	0.0004
0.2	0.1866	1.4113	0.0004
0.2293	0.1704	1.4141	0.0004
0.276	0.136	1.4202	0.0004
0.3102	0.1125	1.4232	0.0004
0.3192	0.102	1.4239	0.0005
0.3243	0.0997	1.4245	0.0005
0.3587	0.0742	1.4283	0.0007
0.3685	0.0631	1.4292	0.0007
0.3984	0.0429	1.4319	0.0007
0.4298	0.0285	1.4369	0.0009
0.4654	0.0174	1.4447	0.0014
0.4856	0.0136	1.4521	0.0014
0.5099	0.0105	1.4608	0.0019
0.5201	0.0082	1.4648	0.0019
0.5241	0	1.4594	0.0017

System: magnesium sulfate + water; phases: Liquid, Crystal of intercomponent compound 1
Property: Mass fraction of magnesium sulfate (Liquid); method: Titration method
Temperature, K	Pressure, kPa	Mass fraction of magnesium sulfate	uncertainty
333.15	100	0.3525	0.0043

System: magnesium sulfate + water; phases: Liquid
Property: Refractive index (Na D-line) (Liquid); method: Standard Abbe refractometry
Mass fraction of magnesium sulfate	Pressure, kPa	Temperature, K	Refractive index (Na D-line)	uncertainty
0.3525	100	333.15	1.3957	0.0004

System: water + magnesium bromide (MgBr2); phases: Liquid, Crystal of intercomponent compound 1
Property: Mass fraction of magnesium bromide (MgBr2) (Liquid); method: Titration method
Temperature, K	Pressure, kPa	Mass fraction of magnesium bromide (MgBr2)	uncertainty
333.15	100	0.5241	0.0033

System: water + magnesium bromide (MgBr2); phases: Liquid
Property: Refractive index (Na D-line) (Liquid); method: Standard Abbe refractometry
Mass fraction of magnesium bromide (MgBr2)	Pressure, kPa	Temperature, K	Refractive index (Na D-line)	uncertainty
0.5241	100	333.15	1.4594	0.0004
