Measured thermophysical data. Accurate Experimental (p,  , T) Data for the Introduction of Hydrogen into the Natural Gas Grid: Thermodynamic Characterization of the Nitrogen-Hydrogen Binary System from 240 to 350 K and Pressures up to 20 MPa
Source: J. Chem. Eng. Data, 2017, 10.1021/acs.jced.7b00694
Compound 1: nitrogen, N2, InChI=1S/N2/c1-2, purity 99.9999%
Compound 2: hydrogen, H2, InChI=1S/H2/h1H, purity 99.9999%

System: nitrogen + hydrogen; phases: Gas
Property: Mass density, kg/m3 (Gas); method: Buoyancy - hydrostatic balance with magnetic suspension - one sinker
Temperature, K	Pressure, kPa	Mole fraction of nitrogen	Mass density, kg/m3	uncertainty
240.046	19977	0.95	266.493	0.084
240.047	19018	0.95	255.783	0.083
240.047	18019	0.95	244.268	0.083
240.047	17007	0.95	232.236	0.083
240.047	16011	0.95	220.048	0.083
240.046	15014	0.95	207.511	0.083
240.047	14010	0.95	194.555	0.083
240.047	13008	0.95	181.315	0.083
240.047	12006	0.95	167.817	0.082
240.048	11004	0.95	154.093	0.083
240.047	10004	0.95	140.187	0.082
240.048	9001	0.95	126.079	0.082
240.049	8000	0.95	111.894	0.081
240.049	7000	0.95	97.671	0.08
240.049	5999	0.95	83.412	0.079
240.048	4998	0.95	69.19	0.078
240.049	3998	0.95	55.055	0.077
240.049	2999	0.95	41.055	0.075
240.051	1997	0.95	27.15	0.074
240.051	998	0.95	13.46	0.073
250.023	19863	0.95	251.12	0.083
250.021	19020	0.95	242.075	0.08
250.021	18015	0.95	231.002	0.08
250.021	17012	0.95	219.644	0.079
250.021	16008	0.95	207.967	0.079
250.02	15009	0.95	196.059	0.079
250.02	14006	0.95	183.836	0.079
250.02	13002	0.95	171.33	0.079
250.02	12002	0.95	158.648	0.078
250.019	11003	0.95	145.769	0.078
250.018	9998	0.95	132.641	0.078
250.019	9002	0.95	119.485	0.077
250.018	8001	0.95	106.147	0.077
250.019	6999	0.95	92.739	0.076
250.018	5999	0.95	79.318	0.075
250.018	4999	0.95	65.908	0.074
250.018	3999	0.95	52.525	0.073
250.018	2999	0.95	39.211	0.072
250.019	1998	0.95	25.981	0.071
250.018	998	0.95	12.909	0.07
260.02	19954	0.95	239.529	0.08
260.019	19020	0.95	229.93	0.077
260.019	18018	0.95	219.361	0.076
260.02	17003	0.95	208.387	0.076
260.02	16012	0.95	197.415	0.076
260.019	15009	0.95	186.058	0.076
260.021	13989	0.95	174.256	0.076
260.019	13007	0.95	162.68	0.076
260.02	12004	0.95	150.65	0.075
260.019	11004	0.95	138.476	0.075
260.018	10003	0.95	126.121	0.074
260.018	8999	0.95	113.598	0.074
260.018	8004	0.95	101.083	0.073
260.02	6997	0.95	88.348	0.072
260.02	5998	0.95	75.652	0.072
260.02	4998	0.95	62.921	0.071
260.02	3998	0.95	50.206	0.07
260.021	2987	0.95	37.39	0.069
260.019	1998	0.95	24.915	0.068
260.02	999	0.95	12.396	0.067
274.995	20152	0.95	225.084	0.077
274.995	19017	0.95	214.131	0.073
274.995	18001	0.95	204.074	0.072
274.993	17006	0.95	194.006	0.072
274.993	16011	0.95	183.72	0.072
274.993	15002	0.95	173.076	0.072
274.993	14000	0.95	162.308	0.071
274.992	13002	0.95	151.394	0.071
274.992	12003	0.95	140.289	0.07
274.991	11002	0.95	129.012	0.07
274.991	10001	0.95	117.586	0.07
274.991	9000	0.95	106.023	0.069
274.99	8000	0.95	94.385	0.069
274.99	6998	0.95	82.636	0.068
274.99	5998	0.95	70.84	0.067
274.991	4997	0.95	58.999	0.067
274.991	3997	0.95	47.147	0.066
274.991	2986	0.95	35.164	0.065
274.991	1998	0.95	23.478	0.065
274.99	997	0.95	11.688	0.064
299.938	19889	0.95	200.449	0.075
299.939	19003	0.95	192.638	0.068
299.94	18000	0.95	183.626	0.067
299.94	17005	0.95	174.51	0.067
299.939	16000	0.95	165.148	0.066
299.939	14999	0.95	155.65	0.066
299.94	14000	0.95	146.008	0.066
299.94	13002	0.95	136.232	0.065
299.94	12000	0.95	126.269	0.065
299.94	10999	0.95	116.189	0.064
299.939	10000	0.95	106.004	0.064
299.94	9000	0.95	95.695	0.063
299.94	7999	0.95	85.271	0.063
299.938	6999	0.95	74.769	0.062
299.938	5998	0.95	64.189	0.062
299.94	4997	0.95	53.549	0.061
299.939	3997	0.95	42.862	0.061
299.939	2984	0.95	32.013	0.06
299.939	1998	0.95	21.43	0.06
299.929	997	0.95	10.683	0.059
324.938	19880	0.95	182.728	0.068
324.939	19001	0.95	175.603	0.063
324.94	17986	0.95	167.256	0.062
324.943	16993	0.95	158.937	0.062
324.945	15998	0.95	150.466	0.062
324.945	14997	0.95	141.813	0.061
324.947	13998	0.95	133.041	0.061
324.947	12979	0.95	123.971	0.06
324.945	12002	0.95	115.15	0.06
324.947	10996	0.95	105.963	0.059
324.946	9999	0.95	96.736	0.059
324.947	8999	0.95	87.379	0.059
324.946	7997	0.95	77.913	0.058
324.948	7000	0.95	68.408	0.058
324.947	5997	0.95	58.767	0.057
324.947	4997	0.95	49.08	0.057
324.947	3997	0.95	39.338	0.057
324.947	2984	0.95	29.414	0.056
324.946	1998	0.95	19.717	0.055
324.946	998	0.95	9.855	0.055
349.935	19940	0.95	168.761	0.06
349.935	18992	0.95	161.661	0.06
349.936	18002	0.95	154.124	0.059
349.935	16996	0.95	146.347	0.059
349.934	15998	0.95	138.524	0.058
349.934	14993	0.95	130.518	0.058
349.934	13999	0.95	122.495	0.057
349.934	12999	0.95	114.314	0.057
349.935	11995	0.95	105.989	0.056
349.935	10998	0.95	97.623	0.056
349.935	9999	0.95	89.144	0.055
349.935	8999	0.95	80.553	0.055
349.935	7998	0.95	71.871	0.054
349.936	6996	0.95	63.099	0.054
349.936	5998	0.95	54.273	0.054
349.935	4998	0.95	45.368	0.053
349.935	3997	0.95	36.385	0.053
349.934	2982	0.95	27.214	0.052
349.936	1998	0.95	18.271	0.052
349.935	997	0.95	9.137	0.052
240.067	19857	0.90001	248.956	0.08
240.067	19021	0.90001	240.134	0.079
240.067	18009	0.90001	229.14	0.079
240.067	17016	0.90001	218.039	0.079
240.067	16012	0.90001	206.497	0.079
240.067	15010	0.90001	194.68	0.078
240.069	14004	0.90001	182.528	0.078
240.068	13007	0.90001	170.235	0.079
240.067	12006	0.90001	157.633	0.078
240.069	11003	0.90001	144.806	0.078
240.069	10003	0.90001	131.826	0.077
240.07	9001	0.90001	118.665	0.077
240.069	8000	0.90001	105.416	0.076
240.069	6999	0.90001	92.089	0.076
240.069	5999	0.90001	78.743	0.075
240.07	4998	0.90001	65.397	0.074
240.07	3998	0.90001	52.1	0.073
240.07	3000	0.90001	38.902	0.072
240.071	1998	0.90001	25.761	0.07
240.072	998	0.90001	12.789	0.07
250.045	19653	0.90001	234.021	0.079
250.047	19014	0.90001	227.523	0.076
250.044	18011	0.90001	217.113	0.076
250.044	17014	0.90001	206.478	0.076
250.046	16004	0.90001	195.446	0.075
250.045	15008	0.90001	184.307	0.075
250.047	14008	0.90001	172.872	0.075
250.044	13005	0.90001	161.179	0.075
250.042	12002	0.90001	149.273	0.074
250.042	11001	0.90001	137.2	0.074
250.043	9995	0.90001	124.895	0.074
250.041	9001	0.90001	112.6	0.073
250.044	8000	0.90001	100.114	0.073
250.043	6999	0.90001	87.557	0.072
250.042	5999	0.90001	74.953	0.071
250.043	4998	0.90001	62.325	0.07
250.041	3998	0.90001	49.722	0.07
250.041	2987	0.90001	37.024	0.069
250.039	1998	0.90001	24.659	0.068
250.042	998	0.90001	12.26	0.067
260.042	19736	0.90001	223.429	0.077
260.044	19010	0.90001	216.361	0.074
260.041	18009	0.90001	206.415	0.073
260.041	17014	0.90001	196.279	0.073
260.04	16007	0.90001	185.789	0.072
260.04	15004	0.90001	175.116	0.072
260.039	14004	0.90001	164.255	0.072
260.039	13005	0.90001	153.211	0.072
260.039	12001	0.90001	141.918	0.071
260.038	11002	0.90001	130.507	0.071
260.04	10001	0.90001	118.929	0.071
260.038	9000	0.90001	107.209	0.07
260.037	7999	0.90001	95.394	0.069
260.036	6999	0.90001	83.502	0.069
260.037	5998	0.90001	71.547	0.068
260.035	4998	0.90001	59.561	0.068
260.035	3998	0.90001	47.566	0.067
260.035	2987	0.90001	35.462	0.066
260.034	2000	0.90001	23.676	0.065
260.033	998	0.90001	11.773	0.064
275.002	19891	0.90001	209.964	0.073
275	19012	0.90001	201.918	0.07
274.998	18013	0.90001	192.591	0.069
274.996	17005	0.90001	182.969	0.069
274.996	16004	0.90001	173.22	0.069
274.996	15005	0.90001	163.298	0.068
274.995	13999	0.90001	153.123	0.068
274.992	13002	0.90001	142.866	0.067
274.992	12001	0.90001	132.405	0.067
274.991	11001	0.90001	121.821	0.067
274.991	9998	0.90001	111.047	0.066
274.989	9000	0.90001	100.212	0.066
274.988	7998	0.90001	89.232	0.065
274.987	6998	0.90001	78.183	0.065
274.986	5998	0.90001	67.065	0.064
274.985	4998	0.90001	55.901	0.064
274.985	3997	0.90001	44.699	0.063
274.985	2997	0.90001	33.49	0.062
274.984	1997	0.90001	22.285	0.062
274.982	997	0.90001	11.103	0.061
299.925	19557	0.90001	186.761	0.074
299.927	19002	0.90001	182.11	0.066
299.929	18004	0.90001	173.629	0.064
299.93	17004	0.90001	164.981	0.064
299.931	16001	0.90001	156.149	0.063
299.93	14998	0.90001	147.162	0.063
299.93	14000	0.90001	138.079	0.063
299.929	12999	0.90001	128.823	0.062
299.93	11999	0.90001	119.448	0.062
299.93	10998	0.90001	109.939	0.061
299.93	9998	0.90001	100.316	0.061
299.93	8998	0.90001	90.589	0.061
299.93	7998	0.90001	80.755	0.06
299.929	6998	0.90001	70.842	0.059
299.93	5997	0.90001	60.838	0.059
299.929	4997	0.90001	50.784	0.059
299.93	3997	0.90001	40.678	0.058
299.932	2984	0.90001	30.399	0.058
299.93	1999	0.90001	20.375	0.057
299.929	998	0.90001	10.171	0.056
324.945	19731	0.90001	171.908	0.065
324.947	19001	0.90001	166.298	0.061
324.948	18003	0.90001	158.509	0.06
324.948	17000	0.90001	150.561	0.059
324.948	15998	0.90001	142.496	0.059
324.948	14996	0.90001	134.301	0.059
324.95	13997	0.90001	126.005	0.059
324.949	13000	0.90001	117.611	0.058
324.95	11999	0.90001	109.068	0.058
324.95	10997	0.90001	100.42	0.057
324.949	9998	0.90001	91.672	0.057
324.95	8998	0.90001	82.834	0.056
324.949	7998	0.90001	73.894	0.056
324.949	6997	0.90001	64.863	0.056
324.949	5997	0.90001	55.762	0.055
324.949	4998	0.90001	46.597	0.055
324.948	3999	0.90001	37.374	0.054
324.95	2983	0.90001	27.94	0.054
324.951	1999	0.90001	18.75	0.053
324.95	998	0.90001	9.371	0.053
349.937	19744	0.90001	158.626	0.058
349.938	18992	0.90001	153.266	0.058
349.938	17997	0.90001	146.084	0.057
349.937	17001	0.90001	138.788	0.056
349.938	15993	0.90001	131.294	0.056
349.938	14999	0.90001	123.797	0.055
349.936	14000	0.90001	116.157	0.055
349.937	12994	0.90001	108.364	0.055
349.936	11997	0.90001	100.534	0.054
349.937	10996	0.90001	92.584	0.054
349.937	9996	0.90001	84.544	0.053
349.937	8998	0.90001	76.424	0.053
349.937	7998	0.90001	68.207	0.052
349.938	6997	0.90001	59.903	0.052
349.938	5998	0.90001	51.533	0.052
349.937	4998	0.90001	43.083	0.051
349.937	3998	0.90001	34.568	0.051
349.938	2979	0.90001	25.835	0.05
349.938	1999	0.90001	17.375	0.05
349.939	998	0.90001	8.697	0.05
240.083	19066	0.50008	131.423	0.051
240.084	18010	0.50008	125.09	0.051
240.084	17004	0.50008	118.935	0.051
240.085	16007	0.50008	112.717	0.05
240.085	15003	0.50008	106.346	0.05
240.086	14003	0.50008	99.881	0.05
240.086	13002	0.50008	93.298	0.049
240.086	12008	0.50008	86.648	0.049
240.08	11003	0.50008	79.831	0.048
240.077	10002	0.50008	72.937	0.048
240.076	8999	0.50008	65.94	0.048
240.076	7999	0.50008	58.867	0.047
240.075	6999	0.50008	51.715	0.047
240.075	5999	0.50008	44.484	0.046
240.075	4998	0.50008	37.187	0.046
240.075	3999	0.50008	29.835	0.046
240.076	2989	0.50008	22.354	0.046
240.075	2000	0.50008	14.997	0.045
240.075	999	0.50008	7.515	0.045
250.044	19934	0.50008	130.7	0.05
250.042	19005	0.50008	125.441	0.05
250.041	18007	0.50008	119.684	0.05
250.043	17004	0.50008	113.79	0.049
250.04	16003	0.50008	107.801	0.048
250.041	15005	0.50008	101.724	0.049
250.039	14001	0.50008	95.51	0.048
250.039	13003	0.50008	89.231	0.047
250.039	12001	0.50008	82.831	0.048
250.038	11002	0.50008	76.353	0.047
250.038	9999	0.50008	69.753	0.046
250.038	8999	0.50008	63.085	0.046
250.038	7999	0.50008	56.336	0.046
250.036	6999	0.50008	49.504	0.046
250.036	5999	0.50008	42.6	0.045
250.035	4998	0.50008	35.626	0.045
250.035	3998	0.50008	28.596	0.044
250.033	2988	0.50008	21.436	0.044
250.032	1999	0.50008	14.386	0.044
250.032	999	0.50008	7.213	0.043
274.998	19574	0.50008	116.461	0.051
274.998	19000	0.50008	113.476	0.047
274.996	17996	0.50008	108.187	0.047
274.996	17000	0.50008	102.851	0.046
274.996	15997	0.50008	97.397	0.046
274.994	14998	0.50008	91.878	0.046
274.994	13998	0.50008	86.267	0.045
274.994	13000	0.50008	80.586	0.044
274.994	11996	0.50008	74.789	0.044
274.993	10998	0.50008	68.948	0.044
274.994	9998	0.50008	63.009	0.043
274.992	8998	0.50008	57.003	0.043
274.992	7997	0.50008	50.911	0.043
274.992	6997	0.50008	44.758	0.042
274.992	5997	0.50008	38.535	0.042
274.991	4997	0.50008	32.248	0.042
274.991	3997	0.50008	25.901	0.041
274.99	2998	0.50008	19.501	0.041
274.992	1998	0.50008	13.041	0.041
274.992	998	0.50008	6.537	0.04
299.941	19854	0.50008	107.886	0.046
299.942	18998	0.50008	103.792	0.045
299.941	17997	0.50008	98.934	0.044
299.942	16992	0.50008	93.982	0.044
299.941	15992	0.50008	88.984	0.043
299.942	14998	0.50008	83.948	0.043
299.941	13996	0.50008	78.8	0.043
299.942	12994	0.50008	73.577	0.043
299.941	11998	0.50008	68.317	0.042
299.942	10997	0.50008	62.968	0.041
299.942	9998	0.50008	57.555	0.041
299.942	8996	0.50008	52.057	0.041
299.941	7997	0.50008	46.51	0.041
299.94	6997	0.50008	40.897	0.04
299.94	5998	0.50008	35.223	0.04
299.941	4998	0.50008	29.485	0.04
299.941	3998	0.50008	23.691	0.039
299.94	2999	0.50008	17.846	0.039
299.94	1998	0.50008	11.937	0.039
299.941	998	0.50008	5.984	0.038
324.948	19974	0.50008	100.115	0.045
324.95	18996	0.50008	95.768	0.043
324.95	17998	0.50008	91.271	0.043
324.949	16998	0.50008	86.706	0.042
324.947	15985	0.50008	82.016	0.042
324.951	14993	0.50008	77.366	0.041
324.95	13992	0.50008	72.609	0.04
324.951	12995	0.50008	67.81	0.041
324.951	11997	0.50008	62.949	0.04
324.951	10996	0.50008	58.014	0.04
324.951	9998	0.50008	53.025	0.039
324.952	8997	0.50008	47.967	0.039
324.951	7996	0.50008	42.85	0.039
324.953	7002	0.50008	37.712	0.038
324.951	6001	0.50008	32.482	0.038
324.951	5000	0.50008	27.194	0.038
324.952	3999	0.50008	21.856	0.038
324.951	2996	0.50008	16.446	0.037
324.952	1998	0.50008	11.018	0.037
324.953	998	0.50008	5.527	0.036
349.939	19885	0.50008	92.681	0.042
349.938	18991	0.50008	88.967	0.041
349.937	17991	0.50008	84.762	0.041
349.937	16996	0.50008	80.519	0.04
349.937	15994	0.50008	76.196	0.04
349.937	14992	0.50008	71.82	0.039
349.937	13990	0.50008	67.389	0.039
349.937	12996	0.50008	62.939	0.039
349.936	11994	0.50008	58.4	0.039
349.936	10995	0.50008	53.825	0.038
349.936	9995	0.50008	49.185	0.038
349.936	8997	0.50008	44.504	0.037
349.935	7995	0.50008	39.749	0.037
349.936	6996	0.50008	34.959	0.037
349.936	5998	0.50008	30.119	0.037
349.936	5000	0.50008	25.225	0.036
349.936	3995	0.50008	20.259	0.036
349.939	2984	0.50008	15.198	0.036
349.94	1998	0.50008	10.223	0.035
349.94	999	0.50008	5.133	0.035
