Measured thermophysical data. Measurements and Modeling of Volumetric and Phase Behavior of Carbon Dioxide + Higher Alkanes: CO2 + n-Pentadecane at Temperatures 313 to 410 K and Pressures up to 77 MPa
Source: J. Chem. Eng. Data, 2018, 10.1021/acs.jced.7b00995
Compound 1: carbon dioxide, CO2, InChI=1S/CO2/c2-1-3, purity 99.99%
Compound 2: pentadecane, C15H32, InChI=1S/C15H32/c1-3-5-7-9-11-13-15-14-12-10-8-6-4-2/h3-15H2,1-2H3, purity 99%

System: pentadecane; phases: Liquid
Fixed: Temperature, K = 313.15
Property: Mass density, kg/m3 (Liquid); method: Vibrating tube method
Pressure, kPa	Mass density, kg/m3	uncertainty
100	752.2	2.3
6910	757.8	2.3
20790	766.9	2.4
34670	776.1	2.4
55490	787.5	2.5
76930	797.3	2.5

System: pentadecane + carbon dioxide; phases: Liquid
Property: Mass density, kg/m3 (Liquid); method: Vibrating tube method
Mole fraction of carbon dioxide	Temperature, K	Pressure, kPa	Mass density, kg/m3	uncertainty
0.376	313.15	6.91	770	2.4
0.376	313.15	20.79	784	2.4
0.376	313.15	34.67	795.8	2.7
0.376	313.15	55.49	809	2.7
0.376	313.15	76.31	825.4	2.8
0.376	363.15	6.94	725.3	2.2
0.376	363.15	20.82	744.5	2.3
0.376	363.15	34.7	754.3	2.3
0.376	363.15	55.52	775.6	2.4
0.376	363.15	76.34	787	2.4
0.376	410.15	13.91	693.8	2.1
0.376	410.15	20.85	702.6	2.2
0.376	410.15	34.73	723.3	2.4
0.376	410.15	55.55	742.3	2.4
0.376	410.15	76.37	757.3	2.4
0.562	313.15	6.36	779.4	2.4
0.562	313.15	20.79	796.8	2.5
0.562	313.15	34.67	808.8	2.5
0.562	313.15	55.49	829	2.5
0.562	313.15	76.31	841.5	2.6
0.562	363.15	10.73	730.3	2.2
0.562	363.15	20.82	745.5	2.3
0.562	363.15	34.7	768.8	2.4
0.562	363.15	55.52	784.7	2.4
0.562	363.15	76.34	800.8	2.4
0.562	410.15	13.9	686.5	2.1
0.562	410.15	20.85	701.8	2.3
0.562	410.15	34.73	724.9	2.3
0.562	410.15	55.55	749.5	2.3
0.562	410.15	76.37	769.3	2.4
0.757	313.15	8.8	798.3	2.5
0.757	313.15	11.29	804.2	2.5
0.757	313.15	13.85	810.2	2.6
0.757	313.15	20.79	828.1	2.8
0.757	313.15	34.67	843.2	3
0.757	313.15	55.49	867.8	3.1
0.757	313.15	76.31	885.9	2.8
0.757	363.15	17.13	738.8	2.3
0.757	363.15	20.82	749.2	2.3
0.757	363.15	34.7	780	2.4
0.757	363.15	55.52	812.3	2.5
0.757	363.15	76.34	831.7	2.6
0.757	410.15	21.95	682.7	2.1
0.757	410.15	27.79	702	2.2
0.757	410.15	34.73	723.5	2.3
0.757	410.15	55.55	763.8	2.5
0.757	410.15	76.37	796.1	2.7

System: pentadecane + carbon dioxide; phases: Liquid, Gas
Property: Vapor or sublimation pressure, kPa (Liquid); method: Closed cell (Static) method
Temperature, K	Mole fraction of carbon dioxide	Vapor or sublimation pressure, kPa	uncertainty
313.15	0.376	4590	60
363.15	0.376	6680	100
412.15	0.376	8590	130
313.15	0.562	6180	80
363.15	0.562	10660	130
412.15	0.562	13780	160
313.15	0.757	8800	100
363.15	0.757	17010	140
412.15	0.757	21730	190
