Measured thermophysical data. Densities and Viscosities of Mixtures of Methyl Dodecanoate + Ethyl Octanoate at Pressures up to 15 MPa
Source: J. Chem. Eng. Data, 2018, 10.1021/acs.jced.8b00521
Compound 1: methyl dodecanoate, C13H26O2, InChI=1S/C13H26O2/c1-3-4-5-6-7-8-9-10-11-12-13(14)15-2/h3-12H2,1-2H3, purity 99%
Compound 2: ethyl octanoate, C10H20O2, InChI=1S/C10H20O2/c1-3-5-6-7-8-9-10(11)12-4-2/h3-9H2,1-2H3, purity 99%

System: methyl dodecanoate + ethyl octanoate; phases: Liquid
Property: Mass density, kg/m3 (Liquid); method: Vibrating tube method
Mole fraction of methyl dodecanoate	Temperature, K	Pressure, kPa	Mass density, kg/m3	uncertainty
0.9	303.15	100	862	2
0.9	303.15	2990	863	2
0.9	303.15	6060	865	2
0.9	303.15	8990	868	2
0.9	303.15	12030	869	2
0.9	303.15	14980	871	2
0.9	313.15	100	853	2
0.9	313.15	3070	855	2
0.9	313.15	6090	857	2
0.9	313.15	9010	859	2
0.9	313.15	12070	860	2
0.9	313.15	15050	862	2
0.9	323.15	100	844	2
0.9	323.15	3020	846	2
0.9	323.15	6080	849	2
0.9	323.15	8980	850	2
0.9	323.15	12000	852	2
0.9	323.15	14960	854	2
0.8001	303.15	100	861	2
0.8001	303.15	3000	863	2
0.8001	303.15	5980	865	2
0.8001	303.15	8950	867	2
0.8001	303.15	11960	869	2
0.8001	303.15	14970	870	2
0.8001	313.15	100	852	2
0.8001	313.15	2960	854	2
0.8001	313.15	5990	856	2
0.8001	313.15	9030	858	2
0.8001	313.15	12010	860	2
0.8001	313.15	14970	862	2
0.8001	323.15	100	844	2
0.8001	323.15	3040	846	2
0.8001	323.15	6010	848	2
0.8001	323.15	8980	850	2
0.8001	323.15	11990	852	2
0.8001	323.15	14970	853	2
0.6999	303.15	100	861	2
0.6999	303.15	3080	862	2
0.6999	303.15	6040	864	2
0.6999	303.15	9040	866	2
0.6999	303.15	11960	868	2
0.6999	303.15	14970	870	2
0.6999	313.15	100	852	2
0.6999	313.15	2970	854	2
0.6999	313.15	5990	856	2
0.6999	313.15	8960	858	2
0.6999	313.15	12090	860	2
0.6999	313.15	14980	861	2
0.6999	323.15	100	844	2
0.6999	323.15	2960	845	2
0.6999	323.15	6030	847	2
0.6999	323.15	8930	849	2
0.6999	323.15	12060	851	2
0.6999	323.15	14980	853	2
0.6001	303.15	100	860	2
0.6001	303.15	2990	862	2
0.6001	303.15	6020	864	2
0.6001	303.15	9050	866	2
0.6001	303.15	12010	867	2
0.6001	303.15	14940	869	2
0.6001	313.15	100	852	2
0.6001	313.15	2950	853	2
0.6001	313.15	6000	855	2
0.6001	313.15	9000	857	2
0.6001	313.15	11910	859	2
0.6001	313.15	15010	861	2
0.6001	323.15	100	843	2
0.6001	323.15	2980	845	2
0.6001	323.15	6040	847	2
0.6001	323.15	9030	849	2
0.6001	323.15	11960	850	2
0.6001	323.15	14960	852	2
0.4999	303.15	100	860	2
0.4999	303.15	2940	862	2
0.4999	303.15	6000	863	2
0.4999	303.15	9090	865	2
0.4999	303.15	12020	867	2
0.4999	303.15	15040	868	2
0.4999	313.15	100	851	2
0.4999	313.15	3040	853	2
0.4999	313.15	6100	855	2
0.4999	313.15	9050	857	2
0.4999	313.15	12020	858	2
0.4999	313.15	15040	860	2
0.4999	323.15	100	843	2
0.4999	323.15	3010	844	2
0.4999	323.15	6030	846	2
0.4999	323.15	9070	848	2
0.4999	323.15	11970	850	2
0.4999	323.15	15040	851	2
0.4	303.15	100	860	2
0.4	303.15	2980	861	2
0.4	303.15	6100	863	2
0.4	303.15	8990	865	2
0.4	303.15	12040	866	2
0.4	303.15	15080	868	2
0.4	313.15	100	851	2
0.4	313.15	3030	853	2
0.4	313.15	6050	854	2
0.4	313.15	9010	856	2
0.4	313.15	11950	858	2
0.4	313.15	15090	859	2
0.4	323.15	100	843	2
0.4	323.15	3020	844	2
0.4	323.15	6080	846	2
0.4	323.15	9090	847	2
0.4	323.15	11900	849	2
0.4	323.15	15010	851	2
0.3001	303.15	100	859	2
0.3001	303.15	2960	861	2
0.3001	303.15	6080	863	2
0.3001	303.15	8980	864	2
0.3001	303.15	12000	866	2
0.3001	303.15	15070	867	2
0.3001	313.15	100	851	2
0.3001	313.15	2990	852	2
0.3001	313.15	5960	854	2
0.3001	313.15	9030	855	2
0.3001	313.15	11980	857	2
0.3001	313.15	15020	859	2
0.3001	323.15	100	842	2
0.3001	323.15	2940	844	2
0.3001	323.15	6020	845	2
0.3001	323.15	9070	847	2
0.3001	323.15	11990	849	2
0.3001	323.15	15020	850	2
0.1999	303.15	100	859	2
0.1999	303.15	2980	860	2
0.1999	303.15	6030	862	2
0.1999	303.15	8980	863	2
0.1999	303.15	12020	865	2
0.1999	303.15	15070	867	2
0.1999	313.15	100	850	2
0.1999	313.15	2980	852	2
0.1999	313.15	6000	854	2
0.1999	313.15	8900	855	2
0.1999	313.15	12010	856	2
0.1999	313.15	15050	858	2
0.1999	323.15	100	842	2
0.1999	323.15	2930	843	2
0.1999	323.15	6060	845	2
0.1999	323.15	9140	847	2
0.1999	323.15	12020	848	2
0.1999	323.15	14990	850	2
0.1	303.15	100	859	2
0.1	303.15	2960	860	2
0.1	303.15	6010	861	2
0.1	303.15	9030	863	2
0.1	303.15	11980	864	2
0.1	303.15	15020	866	2
0.1	313.15	100	850	2
0.1	313.15	2980	851	2
0.1	313.15	6000	853	2
0.1	313.15	8900	855	2
0.1	313.15	12010	856	2
0.1	313.15	15050	858	2
0.1	323.15	100	841	2
0.1	323.15	2930	843	2
0.1	323.15	6060	844	2
0.1	323.15	9040	846	2
0.1	323.15	12020	847	2
0.1	323.15	14990	849	2

System: methyl dodecanoate + ethyl octanoate; phases: Liquid
Property: Viscosity, Pa*s (Liquid); method: Capillary tube (Ostwald; Ubbelohde) method
Mole fraction of methyl dodecanoate	Temperature, K	Pressure, kPa	Viscosity, Pa*s	uncertainty
0.9	303.15	100	0.00232	7e-05
0.9	303.15	2990	0.0024	7e-05
0.9	303.15	6060	0.00248	8e-05
0.9	303.15	8990	0.00256	8e-05
0.9	303.15	12030	0.00264	8e-05
0.9	303.15	14980	0.0027	8e-05
0.9	313.15	100	0.00195	6e-05
0.9	313.15	3070	0.00203	6e-05
0.9	313.15	6090	0.00209	6e-05
0.9	313.15	9010	0.00215	7e-05
0.9	313.15	12070	0.00222	7e-05
0.9	313.15	15050	0.00228	7e-05
0.9	323.15	100	0.00161	5e-05
0.9	323.15	3020	0.00165	5e-05
0.9	323.15	6080	0.0017	5e-05
0.9	323.15	8980	0.00175	5e-05
0.9	323.15	12000	0.00179	6e-05
0.9	323.15	14960	0.00185	6e-05
0.8001	303.15	100	0.00219	7e-05
0.8001	303.15	3000	0.00228	7e-05
0.8001	303.15	5980	0.00237	7e-05
0.8001	303.15	8950	0.00244	8e-05
0.8001	303.15	11960	0.0025	8e-05
0.8001	303.15	14970	0.00256	8e-05
0.8001	313.15	100	0.00185	6e-05
0.8001	313.15	2960	0.00193	6e-05
0.8001	313.15	5990	0.00199	6e-05
0.8001	313.15	9030	0.00206	6e-05
0.8001	313.15	12010	0.00211	7e-05
0.8001	313.15	14970	0.00216	7e-05
0.8001	323.15	100	0.00151	5e-05
0.8001	323.15	3040	0.00157	5e-05
0.8001	323.15	6010	0.00161	5e-05
0.8001	323.15	8980	0.00167	5e-05
0.8001	323.15	11990	0.00172	5e-05
0.8001	323.15	14970	0.00176	5e-05
0.6999	303.15	100	0.00208	6e-05
0.6999	303.15	3080	0.00215	7e-05
0.6999	303.15	6040	0.00224	7e-05
0.6999	303.15	9040	0.00231	7e-05
0.6999	303.15	11960	0.00238	7e-05
0.6999	303.15	14970	0.00244	8e-05
0.6999	313.15	100	0.00175	5e-05
0.6999	313.15	2970	0.00182	6e-05
0.6999	313.15	5990	0.00189	6e-05
0.6999	313.15	8960	0.00193	6e-05
0.6999	313.15	12090	0.00199	6e-05
0.6999	313.15	14980	0.00203	6e-05
0.6999	323.15	100	0.00142	4e-05
0.6999	323.15	2960	0.00145	5e-05
0.6999	323.15	6030	0.0015	5e-05
0.6999	323.15	8930	0.00156	5e-05
0.6999	323.15	12060	0.0016	5e-05
0.6999	323.15	14980	0.00165	5e-05
0.6001	303.15	100	0.00196	6e-05
0.6001	303.15	2990	0.00205	6e-05
0.6001	303.15	6020	0.00212	7e-05
0.6001	303.15	9050	0.00219	7e-05
0.6001	303.15	12010	0.00224	7e-05
0.6001	303.15	14940	0.0023	7e-05
0.6001	313.15	100	0.00165	5e-05
0.6001	313.15	2950	0.00171	5e-05
0.6001	313.15	6000	0.00176	5e-05
0.6001	313.15	9000	0.00181	6e-05
0.6001	313.15	11910	0.00187	6e-05
0.6001	313.15	15010	0.00192	6e-05
0.6001	323.15	100	0.00133	4e-05
0.6001	323.15	2980	0.00138	4e-05
0.6001	323.15	6040	0.00142	4e-05
0.6001	323.15	9030	0.00146	5e-05
0.6001	323.15	11960	0.0015	5e-05
0.6001	323.15	14960	0.00155	5e-05
0.4999	303.15	100	0.00182	6e-05
0.4999	303.15	2940	0.0019	6e-05
0.4999	303.15	6000	0.00196	6e-05
0.4999	303.15	9090	0.00202	6e-05
0.4999	303.15	12020	0.00208	6e-05
0.4999	303.15	15040	0.00213	7e-05
0.4999	313.15	100	0.00155	5e-05
0.4999	313.15	3040	0.00159	5e-05
0.4999	313.15	6100	0.00165	5e-05
0.4999	313.15	9050	0.0017	5e-05
0.4999	313.15	12020	0.00174	5e-05
0.4999	313.15	15040	0.00179	6e-05
0.4999	323.15	100	0.00126	4e-05
0.4999	323.15	3010	0.00131	4e-05
0.4999	323.15	6030	0.00135	4e-05
0.4999	323.15	9070	0.00139	4e-05
0.4999	323.15	11970	0.00143	4e-05
0.4999	323.15	15040	0.00148	5e-05
0.4	303.15	100	0.00171	5e-05
0.4	303.15	2980	0.00175	5e-05
0.4	303.15	6100	0.00182	6e-05
0.4	303.15	8990	0.00188	6e-05
0.4	303.15	12040	0.00194	6e-05
0.4	303.15	15080	0.002	6e-05
0.4	313.15	100	0.00146	5e-05
0.4	313.15	3030	0.00152	5e-05
0.4	313.15	6050	0.00156	5e-05
0.4	313.15	9010	0.00159	5e-05
0.4	313.15	11950	0.00163	5e-05
0.4	313.15	15090	0.00169	5e-05
0.4	323.15	100	0.00119	4e-05
0.4	323.15	3020	0.00124	4e-05
0.4	323.15	6080	0.00129	4e-05
0.4	323.15	9090	0.00132	4e-05
0.4	323.15	11900	0.00136	4e-05
0.4	323.15	15010	0.0014	4e-05
0.3001	303.15	100	0.00161	5e-05
0.3001	303.15	2960	0.00166	5e-05
0.3001	303.15	6080	0.00171	5e-05
0.3001	303.15	8980	0.00178	6e-05
0.3001	303.15	12000	0.00183	6e-05
0.3001	303.15	15070	0.00188	6e-05
0.3001	313.15	100	0.00139	4e-05
0.3001	313.15	2990	0.00143	4e-05
0.3001	313.15	5960	0.00148	5e-05
0.3001	313.15	9030	0.00152	5e-05
0.3001	313.15	11980	0.00157	5e-05
0.3001	313.15	15020	0.00162	5e-05
0.3001	323.15	100	0.00113	4e-05
0.3001	323.15	2940	0.00118	4e-05
0.3001	323.15	6020	0.00122	4e-05
0.3001	323.15	9070	0.00126	4e-05
0.3001	323.15	11990	0.00129	4e-05
0.3001	323.15	15020	0.00133	4e-05
0.1999	303.15	100	0.00152	5e-05
0.1999	303.15	2980	0.00156	5e-05
0.1999	303.15	6030	0.0016	5e-05
0.1999	303.15	8980	0.00166	5e-05
0.1999	303.15	12020	0.0017	5e-05
0.1999	303.15	15070	0.00175	5e-05
0.1999	313.15	100	0.00131	4e-05
0.1999	313.15	2980	0.00134	4e-05
0.1999	313.15	6000	0.00138	4e-05
0.1999	313.15	8900	0.00142	4e-05
0.1999	313.15	12010	0.00147	5e-05
0.1999	313.15	15050	0.00151	5e-05
0.1999	323.15	100	0.00109	3e-05
0.1999	323.15	2930	0.00111	3e-05
0.1999	323.15	6060	0.00115	4e-05
0.1999	323.15	9140	0.00119	4e-05
0.1999	323.15	12020	0.00122	4e-05
0.1999	323.15	14990	0.00126	4e-05
0.1	303.15	100	0.00141	4e-05
0.1	303.15	2960	0.00146	5e-05
0.1	303.15	6010	0.00151	5e-05
0.1	303.15	9030	0.00155	5e-05
0.1	303.15	11980	0.00159	5e-05
0.1	303.15	15020	0.00164	5e-05
0.1	313.15	100	0.00122	4e-05
0.1	313.15	2980	0.00125	4e-05
0.1	313.15	6000	0.00129	4e-05
0.1	313.15	8900	0.00133	4e-05
0.1	313.15	12010	0.00137	4e-05
0.1	313.15	15050	0.00141	4e-05
0.1	323.15	100	0.00103	3e-05
0.1	323.15	2930	0.00104	3e-05
0.1	323.15	6060	0.00108	3e-05
0.1	323.15	9040	0.00111	3e-05
0.1	323.15	12020	0.00114	4e-05
0.1	323.15	14990	0.00118	4e-05
