Measured thermophysical data. Measurement and Thermodynamic Modeling of the Solubility of Lamotrigine, Deferiprone, Cefixime Trihydrate, and Cephalexin Monohydrate in Different Pure Solvents from 283.1 to 323.1 K
Source: J. Chem. Eng. Data, 2016, 10.1021/acs.jced.6b00163
Compound 1: methanol, CH4O, InChI=1S/CH4O/c1-2/h2H,1H3, purity 99.9%
Compound 2: acetonitrile, C2H3N, InChI=1S/C2H3N/c1-2-3/h1H3, purity 99.9%
Compound 3: ethyl acetate, C4H8O2, InChI=1S/C4H8O2/c1-3-6-4(2)5/h3H2,1-2H3, purity 99.8%
Compound 4: lamotrigine, C9H7Cl2N5, InChI=1S/C9H7Cl2N5/c10-5-3-1-2-4(6(5)11)7-8(12)14-9(13)16-15-7/h1-3H,(H4,12,13,14,16), purity 99.6%
Compound 5: 1,2-dimethyl-3-hydroxypyridin-4-one, C7H9NO2, InChI=1S/C7H9NO2/c1-5-7(10)6(9)3-4-8(5)2/h3-4,10H,1-2H3, purity 99.6%
Compound 6: 7-[[(2Z)-2-(2-amino-4-thiazolyl)-2-[(carboxymethoxy)imino]acetyl]amino]-3-ethenyl-8-oxo-5-thia-1-azabicyclo[4.2.0]oct-2-ene-2-carboxylic acid, C16H15N5O7S2, InChI=1S/C16H15N5O7S2/c1-2-6-4-29-14-10(13(25)21(14)11(6)15(26)27)19-12(24)9(20-28-3-8(22)23)7-5-30-16(17)18-7/h2,5,10,14H,1,3-4H2,(H2,17,18)(H,19,24)(H,22,23)(H,26,27)/b20-9-/t10-,14-/m1/s1, purity 99.6%
Compound 7: 7-[D-(-)-.alpha.-aminophenylacetamido]-3-methyl-3-cephem-4-carboxylic acid, C16H17N3O4S, InChI=1S/C16H17N3O4S/c1-8-7-24-15-11(14(21)19(15)12(8)16(22)23)18-13(20)10(17)9-5-3-2-4-6-9/h2-6,10-11,15H,7,17H2,1H3,(H,18,20)(H,22,23)/t10-,11-,15-/m1/s1, purity 99.6%
Compound 8: benzoic acid, C7H6O2, InChI=1S/C7H6O2/c8-7(9)6-4-2-1-3-5-6/h1-5H,(H,8,9), purity 99.9%
Compound 9: water, H2O, InChI=1S/H2O/h1H2, purity 99.9%

System: benzoic acid + water; phases: Liquid, Crystal
Fixed: Pressure, kPa = 101.3
Property: Mass ratio of solute to solvent of benzoic acid (Liquid); method: UV Spectroscopy
Temperature, K	Mass ratio of solute to solvent of benzoic acid	uncertainty
293.1	0.00253	0.00025
298.1	0.003	0.0003
303.1	0.00364	0.00036
308.1	0.00419	0.00042
313.1	0.00525	0.00053
318.1	0.00621	0.00062

System: water + lamotrigine; phases: Liquid, Crystal
Fixed: Pressure, kPa = 100
Property: Mole fraction of lamotrigine (Liquid); method: UV Spectroscopy
Temperature, K	Mole fraction of lamotrigine	uncertainty
283.1	5.6e-06	1e-06
293.1	8e-06	4e-06
303.1	1.16e-05	4e-06
313.1	2.04e-05	4e-06
323.1	3.01e-05	1.9e-05

System: methanol + lamotrigine; phases: Liquid, Crystal
Fixed: Pressure, kPa = 100
Property: Mole fraction of lamotrigine (Liquid); method: UV Spectroscopy
Temperature, K	Mole fraction of lamotrigine	uncertainty
283.1	0.0001943	1.21e-05
293.1	0.0005348	2.53e-05
303.1	0.0014357	9.2e-05
313.1	0.0028316	3.36e-05
323.1	0.0045917	0.0005612

System: acetonitrile + lamotrigine; phases: Liquid, Crystal
Fixed: Pressure, kPa = 100
Property: Mole fraction of lamotrigine (Liquid); method: UV Spectroscopy
Temperature, K	Mole fraction of lamotrigine	uncertainty
283.1	0.0005703	1.32e-05
293.1	0.0006826	6.76e-05
303.1	0.0014276	0.0003263
313.1	0.0020741	0.0004223
323.1	0.0030423	0.0002339

System: ethyl acetate + lamotrigine; phases: Liquid, Crystal
Fixed: Pressure, kPa = 100
Property: Mole fraction of lamotrigine (Liquid); method: UV Spectroscopy
Temperature, K	Mole fraction of lamotrigine	uncertainty
283.1	0.00129	0.0001731
293.1	0.0016074	1.3e-05
303.1	0.0020519	1.6e-05
313.1	0.0027751	0.0001234
323.1	0.0038133	7.06e-05

System: water + 1,2-dimethyl-3-hydroxypyridin-4-one; phases: Liquid, Crystal
Fixed: Pressure, kPa = 100
Property: Mole fraction of 1,2-dimethyl-3-hydroxypyridin-4-one (Liquid); method: UV Spectroscopy
Temperature, K	Mole fraction of 1,2-dimethyl-3-hydroxypyridin-4-one	uncertainty
283.1	0.0018388	5.09e-05
293.1	0.0022676	0.0009371
303.1	0.0031001	5.29e-05
313.1	0.0041393	0.0041393
323.1	0.0053222	0.0043441

System: methanol + 1,2-dimethyl-3-hydroxypyridin-4-one; phases: Liquid, Crystal
Fixed: Pressure, kPa = 100
Property: Mole fraction of 1,2-dimethyl-3-hydroxypyridin-4-one (Liquid); method: UV Spectroscopy
Temperature, K	Mole fraction of 1,2-dimethyl-3-hydroxypyridin-4-one	uncertainty
283.1	0.0019425	5.88e-05
293.1	0.0034766	0.0006469
303.1	0.0052003	0.0011838
313.1	0.0077466	0.0015213
323.1	0.0113612	0.0005325

System: acetonitrile + 1,2-dimethyl-3-hydroxypyridin-4-one; phases: Liquid, Crystal
Fixed: Pressure, kPa = 100
Property: Mole fraction of 1,2-dimethyl-3-hydroxypyridin-4-one (Liquid); method: UV Spectroscopy
Temperature, K	Mole fraction of 1,2-dimethyl-3-hydroxypyridin-4-one	uncertainty
283.1	0.0001873	3.71e-05
293.1	0.0003243	1.85e-05
303.1	0.000599	0.0001361
313.1	0.0009095	6.55e-05
323.1	0.001375	0.0002622

System: ethyl acetate + 1,2-dimethyl-3-hydroxypyridin-4-one; phases: Liquid, Crystal
Fixed: Pressure, kPa = 100
Property: Mole fraction of 1,2-dimethyl-3-hydroxypyridin-4-one (Liquid); method: UV Spectroscopy
Temperature, K	Mole fraction of 1,2-dimethyl-3-hydroxypyridin-4-one	uncertainty
283.1	6.77e-05	4.1e-06
293.1	0.0001038	2.2e-06
303.1	0.0001552	3.4e-05
313.1	0.0002181	7.2e-05
323.1	0.0003177	0.000135

System: water + 7-[[(2Z)-2-(2-amino-4-thiazolyl)-2-[(carboxymethoxy)imino]acetyl]amino]-3-ethenyl-8-oxo-5-thia-1-azabicyclo[4.2.0]oct-2-ene-2-carboxylic acid; phases: Liquid, Crystal
Fixed: Pressure, kPa = 100
Property: Mole fraction of 7-[[(2Z)-2-(2-amino-4-thiazolyl)-2-[(carboxymethoxy)imino]acetyl]amino]-3-ethenyl-8-oxo-5-thia-1-azabicyclo[4.2.0]oct-2-ene-2-carboxylic acid (Liquid); method: UV Spectroscopy
Temperature, K	Mole fraction of 7-[[(2Z)-2-(2-amino-4-thiazolyl)-2-[(carboxymethoxy)imino]acetyl]amino]-3-ethenyl-8-oxo-5-thia-1-azabicyclo[4.2.0]oct-2-ene-2-carboxylic acid	uncertainty
283.1	9.7e-06	8e-06
293.1	1.45e-05	1.1e-05
303.1	2.02e-05	3e-06
313.1	3.18e-05	7e-06
323.1	5.09e-05	1.4e-05

System: methanol + 7-[[(2Z)-2-(2-amino-4-thiazolyl)-2-[(carboxymethoxy)imino]acetyl]amino]-3-ethenyl-8-oxo-5-thia-1-azabicyclo[4.2.0]oct-2-ene-2-carboxylic acid; phases: Liquid, Crystal
Fixed: Pressure, kPa = 100
Property: Mole fraction of 7-[[(2Z)-2-(2-amino-4-thiazolyl)-2-[(carboxymethoxy)imino]acetyl]amino]-3-ethenyl-8-oxo-5-thia-1-azabicyclo[4.2.0]oct-2-ene-2-carboxylic acid (Liquid); method: UV Spectroscopy
Temperature, K	Mole fraction of 7-[[(2Z)-2-(2-amino-4-thiazolyl)-2-[(carboxymethoxy)imino]acetyl]amino]-3-ethenyl-8-oxo-5-thia-1-azabicyclo[4.2.0]oct-2-ene-2-carboxylic acid	uncertainty
283.1	0.0063512	0.0039874
293.1	0.0089169	0.0018374
303.1	0.0131991	0.007263
313.1	0.0208558	0.0100277
323.1	0.0308604	0.0120388

System: acetonitrile + 7-[[(2Z)-2-(2-amino-4-thiazolyl)-2-[(carboxymethoxy)imino]acetyl]amino]-3-ethenyl-8-oxo-5-thia-1-azabicyclo[4.2.0]oct-2-ene-2-carboxylic acid; phases: Liquid, Crystal
Fixed: Pressure, kPa = 100
Property: Mole fraction of 7-[[(2Z)-2-(2-amino-4-thiazolyl)-2-[(carboxymethoxy)imino]acetyl]amino]-3-ethenyl-8-oxo-5-thia-1-azabicyclo[4.2.0]oct-2-ene-2-carboxylic acid (Liquid); method: UV Spectroscopy
Temperature, K	Mole fraction of 7-[[(2Z)-2-(2-amino-4-thiazolyl)-2-[(carboxymethoxy)imino]acetyl]amino]-3-ethenyl-8-oxo-5-thia-1-azabicyclo[4.2.0]oct-2-ene-2-carboxylic acid	uncertainty
283.1	8.28e-05	2.2e-05
293.1	0.0001048	2.6e-05
303.1	0.0001265	1.6e-05
313.1	0.0001831	1.61e-05
323.1	0.0002924	2.51e-05

System: ethyl acetate + 7-[[(2Z)-2-(2-amino-4-thiazolyl)-2-[(carboxymethoxy)imino]acetyl]amino]-3-ethenyl-8-oxo-5-thia-1-azabicyclo[4.2.0]oct-2-ene-2-carboxylic acid; phases: Liquid, Crystal
Fixed: Pressure, kPa = 100
Property: Mole fraction of 7-[[(2Z)-2-(2-amino-4-thiazolyl)-2-[(carboxymethoxy)imino]acetyl]amino]-3-ethenyl-8-oxo-5-thia-1-azabicyclo[4.2.0]oct-2-ene-2-carboxylic acid (Liquid); method: UV Spectroscopy
Temperature, K	Mole fraction of 7-[[(2Z)-2-(2-amino-4-thiazolyl)-2-[(carboxymethoxy)imino]acetyl]amino]-3-ethenyl-8-oxo-5-thia-1-azabicyclo[4.2.0]oct-2-ene-2-carboxylic acid	uncertainty
283.1	5.08e-05	1e-05
293.1	7.12e-05	3.1e-06
303.1	0.0001287	5.1e-06
313.1	0.0001753	8.1e-06
323.1	0.0002499	4.3e-06

System: water + 7-[D-(-)-.alpha.-aminophenylacetamido]-3-methyl-3-cephem-4-carboxylic acid; phases: Liquid, Crystal
Fixed: Pressure, kPa = 100
Property: Mole fraction of 7-[D-(-)-.alpha.-aminophenylacetamido]-3-methyl-3-cephem-4-carboxylic acid (Liquid); method: UV Spectroscopy
Temperature, K	Mole fraction of 7-[D-(-)-.alpha.-aminophenylacetamido]-3-methyl-3-cephem-4-carboxylic acid	uncertainty
283.1	0.000533	0.0001011
293.1	0.000721	8.51e-05
303.1	0.0008262	0.000114
313.1	0.0009603	0.0001671
323.1	0.0012533	9.52e-05

System: methanol + 7-[D-(-)-.alpha.-aminophenylacetamido]-3-methyl-3-cephem-4-carboxylic acid; phases: Liquid, Crystal
Fixed: Pressure, kPa = 100
Property: Mole fraction of 7-[D-(-)-.alpha.-aminophenylacetamido]-3-methyl-3-cephem-4-carboxylic acid (Liquid); method: UV Spectroscopy
Temperature, K	Mole fraction of 7-[D-(-)-.alpha.-aminophenylacetamido]-3-methyl-3-cephem-4-carboxylic acid	uncertainty
283.1	0.0003535	0.0001061
293.1	0.0006055	0.0001451
303.1	0.0009511	6.94e-05
278.1	0.0002354	7.51e-05
280.1	0.0002811	8.41e-05

System: acetonitrile + 7-[D-(-)-.alpha.-aminophenylacetamido]-3-methyl-3-cephem-4-carboxylic acid; phases: Liquid, Crystal
Fixed: Pressure, kPa = 100
Property: Mole fraction of 7-[D-(-)-.alpha.-aminophenylacetamido]-3-methyl-3-cephem-4-carboxylic acid (Liquid); method: UV Spectroscopy
Temperature, K	Mole fraction of 7-[D-(-)-.alpha.-aminophenylacetamido]-3-methyl-3-cephem-4-carboxylic acid	uncertainty
283.1	2.37e-05	3.1e-06
278.1	9.5e-06	1.2e-06
280.1	1.52e-05	2.1e-06
