Measured thermophysical data. Salt Effects on Liquid-Liquid Equilibria of Water + Phenol + (Propan-2-yl) Benzene + Salts Systems
Source: J. Chem. Eng. Data, 2019, 10.1021/acs.jced.8b01202
Compound 1: phenol, C6H6O, InChI=1S/C6H6O/c7-6-4-2-1-3-5-6/h1-5,7H, purity 99%
Compound 2: isopropylbenzene, C9H12, InChI=1S/C9H12/c1-8(2)9-6-4-3-5-7-9/h3-8H,1-2H3, purity 99%
Compound 3: water, H2O, InChI=1S/H2O/h1H2, purity 99.9%
Compound 4: sodium chloride, ClNa, InChI=1S/ClH.Na/h1H;/q;+1/p-1, purity 99.8%
Compound 5: sodium sulfate, Na2O4S, InChI=1S/2Na.H2O4S/c;;1-5(2,3)4/h;;(H2,1,2,3,4)/q2*+1;/p-2, purity 99%
Compound 6: magnesium sulfate, MgO4S, InChI=1S/Mg.H2O4S/c;1-5(2,3)4/h;(H2,1,2,3,4)/q+2;/p-2, purity 98%

System: isopropylbenzene; phases: Liquid
Property: Refractive index (Na D-line) (Liquid); method: Standard Abbe refractometry
Temperature, K	Pressure, kPa	Refractive index (Na D-line)	uncertainty
298.2	101.325	1.49005	0.00145

System: isopropylbenzene; phases: Liquid
Property: Mass density, kg/m3 (Liquid); method: Vibrating tube method
Temperature, K	Pressure, kPa	Mass density, kg/m3	uncertainty
298.2	101.325	857.54	1.74

System: water; phases: Liquid
Property: Refractive index (Na D-line) (Liquid); method: Standard Abbe refractometry
Temperature, K	Pressure, kPa	Refractive index (Na D-line)	uncertainty
298.2	101.325	1.3325	0.00143

System: water; phases: Liquid
Property: Mass density, kg/m3 (Liquid); method: Vibrating tube method
Temperature, K	Pressure, kPa	Mass density, kg/m3	uncertainty
298.2	101.325	997.04	2.01

System: water + phenol + isopropylbenzene; phases: Liquid mixture 2, Liquid mixture 1
Fixed: Temperature, K = 298.2
Fixed: Pressure, kPa = 81.5
Property: Mass fraction of water (Liquid mixture 2); method: Index of refraction calibration data
Property: Mass fraction of phenol (Liquid mixture 1); method: Index of refraction calibration data
Property: Mass fraction of water (Liquid mixture 1); method: Index of refraction calibration data
Mass fraction of phenol	Mass fraction of water	uncertainty	Mass fraction of phenol	uncertainty	Mass fraction of water	uncertainty
0.0558	0.011	0.0007	0.0283	0.001	0.9703	
0.0862	0.0151	0.0007	0.0339	0.0011	0.9646	
0.114	0.0188	0.0007	0.0427	0.0012	0.9554	
0.1445	0.0228	0.0008	0.0509	0.0014	0.9469	
0.1583	0.0246	0.0008	0.0562	0.0015	0.9414	
0.1685	0.026	0.0008	0.0568	0.0015	0.9408	
0.1768	0.0271	0.0008	0.0639	0.0016	0.9335	
0.1777	0.0272	0.0008	0.065	0.002	0.9323	

System: water + phenol + isopropylbenzene; phases: Liquid
Fixed: Temperature, K = 298.2
Fixed: Pressure, kPa = 81.5
Property: Refractive index (Na D-line) (Liquid); method: Standard Abbe refractometry
Mass fraction of water	Mass fraction of phenol	Refractive index (Na D-line)	uncertainty
0.9996	0	1.333	0.00143
0.989	0.0099	1.33495	0.00144
0.9784	0.0199	1.3367	0.00144
0.9682	0.0299	1.33895	0.00144
0.9578	0.0399	1.3404	0.00144
0.9475	0.0498	1.3424	0.00144
0.937	0.0612	1.34345	0.00144
0.9268	0.0697	1.3452	0.00144
0.9167	0.0797	1.34663	0.00144
0.0009	0	1.49001	0.00145
0.0029	0.0099	1.4911	0.00145
0.0045	0.0199	1.4915	0.00145
0.0075	0.0297	1.49195	0.00145
0.0091	0.0396	1.49253	0.00145
0.0104	0.0494	1.493	0.00145
0.0134	0.0591	1.49345	0.00145
0.0161	0.0688	1.49425	0.00145
0.0192	0.0784	1.49475	0.00145
0.0163	0.0983	1.49545	0.00145
0.018	0.1178	1.49675	0.00145
0.0215	0.1369	1.49745	0.00145
0.0242	0.1756	1.49995	0.00145

System: water + phenol + isopropylbenzene; phases: Liquid mixture 1, Liquid mixture 2
Fixed: Temperature, K = 298.2
Fixed: Pressure, kPa = 81.5
Property: Mass fraction of phenol (Liquid mixture 1); method: Titration method
Mass fraction of water	Mass fraction of phenol	uncertainty
0.9996	0	
0.989	0.0099	0.0009
0.9784	0.0199	0.001
0.9682	0.0299	0.0012
0.9578	0.0399	0.0014
0.9475	0.0498	0.0017
0.937	0.0612	0.002
0.9268	0.0697	0.0022
0.9167	0.0797	0.0025
0.0009	0	
0.0029	0.0099	0.0028
0.0045	0.0199	0.0028
0.0075	0.0297	0.0032
0.0091	0.0396	0.0029
0.0104	0.0494	0.0034
0.0134	0.0591	0.0053
0.0161	0.0688	0.0029
0.0192	0.0784	0.0076
0.0163	0.0983	0.0036
0.018	0.1178	0.0069
0.0215	0.1369	0.0069
0.0242	0.1756	0.0102

System: water + phenol + isopropylbenzene; phases: Liquid
Fixed: Mass fraction of phenol = 0
Fixed: Temperature, K = 298.2
Fixed: Pressure, kPa = 81.5
Property: Refractive index (Na D-line) (Liquid); method: Standard Abbe refractometry
Mass fraction of water	Refractive index (Na D-line)	uncertainty
0.0016	1.48855	0.00145
0.001	1.4885	0.00145
0.0008	1.48875	0.00145
0.001	1.4885	0.00145
0.0008	1.48855	0.00145
0.0006	1.48845	0.00145

System: water + phenol + isopropylbenzene; phases: Liquid
Fixed: Temperature, K = 298.2
Fixed: Pressure, kPa = 81.5
Property: Refractive index (Na D-line) (Liquid); method: Standard Abbe refractometry
Mass fraction of water	Mass fraction of phenol	Refractive index (Na D-line)	uncertainty
0.9703	0.0283	1.3386	0.00144
0.9646	0.0339	1.33955	0.00144
0.9554	0.0427	1.34105	0.00144
0.9469	0.0509	1.34245	0.00144
0.9414	0.0562	1.34335	0.00144
0.9408	0.0568	1.34345	0.00144
0.9335	0.0639	1.34465	0.00144
0.9323	0.065	1.34485	0.00144
0.011	0.0558	1.49335	0.00145
0.0151	0.0862	1.495	0.00145
0.0188	0.114	1.4965	0.00145
0.0228	0.1445	1.49815	0.00145
0.0246	0.1583	1.4989	0.00145
0.026	0.1685	1.49945	0.00145
0.0271	0.1768	1.4999	0.00145
0.0272	0.1777	1.49995	0.00145

System: water + isopropylbenzene + sodium chloride; phases: Liquid
Fixed: Temperature, K = 298.2
Fixed: Pressure, kPa = 81.5
Property: Refractive index (Na D-line) (Liquid); method: Standard Abbe refractometry
Mass fraction of water	Mass fraction of isopropylbenzene	Refractive index (Na D-line)	uncertainty
0.9942	0.0008	1.33325	0.00144
0.9788	0.0016	1.3355	0.00144

System: water + isopropylbenzene + sodium chloride; phases: Liquid mixture 1, Liquid mixture 2
Fixed: Temperature, K = 298.2
Fixed: Pressure, kPa = 81.5
Property: Mass fraction of isopropylbenzene (Liquid mixture 1); method: Titration method
Mass fraction of water	Mass fraction of isopropylbenzene	uncertainty
0.0016	0.9984	0.0009
0.9942	0.0008	0.0006
0.001	0.999	0.0009
0.9788	0.0016	0.0006

System: water + isopropylbenzene + sodium sulfate; phases: Liquid
Fixed: Mass fraction of isopropylbenzene = 0.0006
Fixed: Temperature, K = 298.2
Fixed: Pressure, kPa = 81.5
Property: Refractive index (Na D-line) (Liquid); method: Standard Abbe refractometry
Mass fraction of water	Refractive index (Na D-line)	uncertainty
0.9944	1.333	0.00144
0.9798	1.335	0.00144

System: water + isopropylbenzene + sodium sulfate; phases: Liquid mixture 1, Liquid mixture 2
Fixed: Temperature, K = 298.2
Fixed: Pressure, kPa = 81.5
Property: Mass fraction of isopropylbenzene (Liquid mixture 1); method: Titration method
Mass fraction of water	Mass fraction of isopropylbenzene	uncertainty
0.0008	0.9992	0.0008
0.001	0.999	0.0009
0.9944	0.0006	0.0006
0.9798	0.0006	0.0006

System: water + isopropylbenzene + magnesium sulfate; phases: Liquid
Fixed: Temperature, K = 298.2
Fixed: Pressure, kPa = 81.5
Property: Refractive index (Na D-line) (Liquid); method: Standard Abbe refractometry
Mass fraction of water	Mass fraction of isopropylbenzene	Refractive index (Na D-line)	uncertainty
0.9942	0.0008	1.333	0.00143
0.98	0.0004	1.3344	0.00143

System: water + isopropylbenzene + magnesium sulfate; phases: Liquid mixture 1, Liquid mixture 2
Fixed: Temperature, K = 298.2
Fixed: Pressure, kPa = 81.5
Property: Mass fraction of isopropylbenzene (Liquid mixture 1); method: Titration method
Mass fraction of water	Mass fraction of isopropylbenzene	uncertainty
0.0008	0.9992	0.0008
0.0006	0.9994	0.0006
0.9942	0.0008	0.0006
0.98	0.0004	0.0004

System: water + isopropylbenzene; phases: Liquid
Fixed: Temperature, K = 298.2
Fixed: Pressure, kPa = 81.5
Property: Refractive index (Na D-line) (Liquid); method: Standard Abbe refractometry
Mass fraction of water	Refractive index (Na D-line)	uncertainty
0.9996	1.333	0.00143
0.0009	1.49001	0.00145
0.0016	1.48855	0.00145
0.001	1.4885	0.00145
0.0008	1.48875	0.00145
0.0008	1.48855	0.00145
0.0006	1.48845	0.00145

System: water + isopropylbenzene; phases: Liquid mixture 1, Liquid mixture 2
Fixed: Temperature, K = 298.2
Fixed: Pressure, kPa = 81.5
Property: Mass fraction of water (Liquid mixture 1); method: Titration method
Mass fraction of water	uncertainty
0.9996	0.0004
0.0009	0.0006

System: water + isopropylbenzene; phases: Liquid mixture 1, Liquid mixture 2
Fixed: Temperature, K = 298.2
Fixed: Pressure, kPa = 81.5
Property: Mass fraction of isopropylbenzene (Liquid mixture 1); method: Titration method
Mass fraction of isopropylbenzene	uncertainty
0.9984	0.0006
0.999	0.0006
0.9992	0.0006
0.9994	0.0006
