Measured thermophysical data. Formation of Mixed Micelle in an Aqueous Mixture of a Surface Active Ionic Liquid and a Conventional Surfactant: Experiment and Modeling
Source: J. Chem. Eng. Data, 2018, 10.1021/acs.jced.8b00372
Compound 1: 1-hexadecyl-3-methylimidazolium chloride, C20H39ClN2, InChI=1S/C20H39N2.ClH/c1-3-4-5-6-7-8-9-10-11-12-13-14-15-16-17-22-19-18-21(2)20-22;/h18-20H,3-17H2,1-2H3;1H/q+1;/p-1, purity 98%
Compound 2: dodecyltrimethylammonium bromide, C15H34BrN, InChI=1S/C15H34N.BrH/c1-5-6-7-8-9-10-11-12-13-14-15-16(2,3)4;/h5-15H2,1-4H3;1H/q+1;/p-1, purity 98%
Compound 3: water, H2O, InChI=1S/H2O/h1H2, purity 99.9%

System: water; phases: Liquid, Gas
Property: Surface tension liquid-gas, N/m (Liquid); method: Ring tensiometer
Temperature, K	Surface tension liquid-gas, N/m	uncertainty
313.15	0.0672	0.0028

System: 1-hexadecyl-3-methylimidazolium chloride + dodecyltrimethylammonium bromide + water; phases: Liquid
Fixed: Pressure, kPa = 100
Fixed: Frequency, MHz = 0.002
Property: Electrical conductivity, S/m (Liquid); method: Alternating current cell with electrodes
Molality, mol/kg of 1-hexadecyl-3-methylimidazolium chloride	Molality, mol/kg of dodecyltrimethylammonium bromide	Temperature, K	Electrical conductivity, S/m	uncertainty
0	0	303.15	0	0.0001
0.00011	0	303.15	0.001206	2.5e-05
0.00022	0	303.15	0.002339	4.8e-05
0.00033	0	303.15	0.00341	7e-05
0.00043	0	303.15	0.00444	9.2e-05
0.00052	0	303.15	0.00541	0.000112
0.00062	0	303.15	0.00636	0.000132
0.00071	0	303.15	0.00726	0.00015
0.00079	0	303.15	0.00809	0.000168
0.00088	0	303.15	0.0088	0.000183
0.00096	0	303.15	0.00933	0.000194
0.00104	0	303.15	0.00977	0.000204
0.00112	0	303.15	0.01017	0.00021
0.00119	0	303.15	0.01055	0.00022
0.00126	0	303.15	0.01088	0.00023
0.00133	0	303.15	0.01119	0.00023
0.00139	0	303.15	0.0115	0.00024
0.00146	0	303.15	0.01183	0.00025
0.00153	0	303.15	0.01211	0.00025
0	0	303.15	0	0.0001
0.00014	2e-05	303.15	0.001688	3.5e-05
0.00026	3e-05	303.15	0.003188	6.6e-05
0.0004	4e-05	303.15	0.004738	9.8e-05
0.00053	6e-05	303.15	0.006338	0.000131
0.00066	7e-05	303.15	0.007678	0.000158
0.00078	9e-05	303.15	0.009028	0.000188
0.00091	0.0001	303.15	0.009928	0.000206
0.00104	0.00012	303.15	0.010728	0.000222
0.00116	0.00013	303.15	0.011478	0.000238
0.00129	0.00014	303.15	0.012168	0.000252
0.0014	0.00016	303.15	0.012818	0.000265
0.00152	0.00017	303.15	0.013548	0.000281
0.00176	0.0002	303.15	0.014858	0.000307
0.002	0.00022	303.15	0.016138	0.000333
0.00223	0.00025	303.15	0.017378	0.000358
0.00246	0.00027	303.15	0.018608	0.000384
0.00267	0.0003	303.15	0.019708	0.000406
0.00289	0.00032	303.15	0.020808	0.000429
0	0	303.15	0	0.0001
0.00012	3e-05	303.15	0.001577	3.2e-05
0.00023	6e-05	303.15	0.003012	6.1e-05
0.00035	9e-05	303.15	0.004532	9.1e-05
0.00047	0.00012	303.15	0.006002	0.000122
0.00058	0.00015	303.15	0.007402	0.00015
0.0007	0.00017	303.15	0.008762	0.000178
0.00081	0.0002	303.15	0.009782	0.0002
0.00092	0.00023	303.15	0.010552	0.000216
0.00103	0.00026	303.15	0.011222	0.00023
0.00114	0.00029	303.15	0.011932	0.000245
0.00135	0.00034	303.15	0.013192	0.000271
0.00157	0.00039	303.15	0.014352	0.000296
0.00178	0.00044	303.15	0.015482	0.000317
0.00198	0.0005	303.15	0.017732	0.000362
0.00218	0.00055	303.15	0.018892	0.000384
0.00257	0.00064	303.15	0.021092	0.000429
0.00294	0.00074	303.15	0.023132	0.00047
0.0033	0.00082	303.15	0.025052	0.00051
0.00366	0.00092	303.15	0.026892	0.000549
0.004	0.001	303.15	0.028652	0.000585
0.00449	0.00112	303.15	0.031152	0.000637
0.00495	0.00124	303.15	0.033452	0.000689
0.00539	0.00135	303.15	0.035552	0.00073
0.00582	0.00145	303.15	0.037652	0.000884
0	0	303.15	0	0.0001
0.00011	5e-05	303.15	0.001596	3.3e-05
0.0002	9e-05	303.15	0.003139	6.5e-05
0.00031	0.00013	303.15	0.004689	9.6e-05
0.00041	0.00018	303.15	0.006179	0.000126
0.00051	0.00022	303.15	0.007689	0.000156
0.00061	0.00026	303.15	0.009099	0.000187
0.00071	0.0003	303.15	0.010169	0.000211
0.00081	0.00035	303.15	0.010979	0.000227
0.0009	0.00039	303.15	0.011759	0.000243
0.001	0.00043	303.15	0.012499	0.000258
0.00109	0.00047	303.15	0.013229	0.000273
0.00118	0.00051	303.15	0.013939	0.000288
0.00137	0.00059	303.15	0.015309	0.000311
0.00155	0.00067	303.15	0.016659	0.000344
0.00174	0.00074	303.15	0.017909	0.00037
0.00191	0.00082	303.15	0.019169	0.000396
0.00225	0.00096	303.15	0.021609	0.000443
0	0	303.15	0	0.0001
9e-05	6e-05	303.15	0.001511	3.1e-05
0.00017	0.00012	303.15	0.00296	6e-05
0.00026	0.00018	303.15	0.00444	9e-05
0.00035	0.00024	303.15	0.00584	0.00012
0.00044	0.00029	303.15	0.00732	0.00015
0.00052	0.00035	303.15	0.00867	0.000178
0.00061	0.0004	303.15	0.00994	0.000205
0.00069	0.00046	303.15	0.01093	0.00023
0.00077	0.00052	303.15	0.01177	0.00024
0.00086	0.00057	303.15	0.01256	0.00026
0.00101	0.00068	303.15	0.01413	0.00029
0.00118	0.00078	303.15	0.01557	0.00032
0.00133	0.00089	303.15	0.01697	0.00035
0.00149	0.00099	303.15	0.01836	0.00038
0.00164	0.00109	303.15	0.01973	0.00041
0.00193	0.00128	303.15	0.02226	0.00046
0.00221	0.00147	303.15	0.02481	0.00051
0.00248	0.00166	303.15	0.02694	0.00055
0.00275	0.00183	303.15	0.02888	0.00059
0.003	0.002	303.15	0.03114	0.00064
0.00337	0.00224	303.15	0.03414	0.0007
0.00371	0.00248	303.15	0.03704	0.00076
0.00404	0.0027	303.15	0.03984	0.00082
0.00436	0.00291	303.15	0.04234	0.00087
0.00467	0.00311	303.15	0.04454	0.00092
0.00506	0.00337	303.15	0.04774	0.00098
0.00541	0.00361	303.15	0.05074	0.00105
0.00575	0.00384	303.15	0.05354	0.0011
0.006	0.004	303.15	0.05574	0.00115
0	0	303.15	0	0.0001
5e-05	5e-05	303.15	0.000834	1.7e-05
0.0001	0.0001	303.15	0.001798	3.7e-05
0.00015	0.00015	303.15	0.002769	5.6e-05
0.0002	0.0002	303.15	0.00381	8e-05
0.00025	0.00025	303.15	0.00483	0.0001
0.00029	0.00029	303.15	0.00578	0.000118
0.00034	0.00034	303.15	0.00695	0.000141
0.00039	0.00039	303.15	0.00803	0.000164
0.00043	0.00043	303.15	0.00897	0.000182
0.00048	0.00048	303.15	0.00975	0.0002
0.00052	0.00052	303.15	0.01054	0.00022
0.00057	0.00057	303.15	0.01113	0.00023
0.00061	0.00061	303.15	0.01179	0.00024
0.00066	0.00066	303.15	0.01222	0.00025
0.0007	0.0007	303.15	0.01267	0.00026
0.00074	0.00074	303.15	0.01329	0.00027
0.00083	0.00083	303.15	0.01427	0.00029
0.00091	0.00091	303.15	0.01526	0.00031
0.00099	0.00099	303.15	0.01619	0.00033
0.00107	0.00107	303.15	0.01719	0.00035
0.00115	0.00115	303.15	0.0181	0.00037
0.00123	0.00123	303.15	0.01899	0.00039
0.00138	0.00138	303.15	0.02073	0.00043
0.00153	0.00153	303.15	0.02248	0.00046
0.00167	0.00167	303.15	0.02418	0.0005
0.00181	0.00181	303.15	0.02574	0.00053
0.00213	0.00213	303.15	0.02937	0.0006
0.00243	0.00243	303.15	0.03282	0.00067
0.0027	0.0027	303.15	0.03582	0.00074
0.0032	0.0032	303.15	0.04112	0.00084
0.00363	0.00363	303.15	0.04452	0.00092
0.00401	0.00401	303.15	0.0498	0.00102
0.00466	0.00466	303.15	0.056	0.00115
0.00517	0.00517	303.15	0.061	0.00125
0.00559	0.00559	303.15	0.0653	0.00135
0.00569	0.00569	303.15	0.0662	0.00136
0	0	303.15	0	0.0001
6e-05	9e-05	303.15	0.001509	3.1e-05
0.00012	0.00017	303.15	0.003054	6.2e-05
0.00018	0.00026	303.15	0.004544	9.3e-05
0.00024	0.00035	303.15	0.006104	0.000124
0.00029	0.00044	303.15	0.007654	0.000155
0.00035	0.00052	303.15	0.009094	0.000184
0.0004	0.00061	303.15	0.010494	0.000213
0.00046	0.00069	303.15	0.011814	0.00024
0.00052	0.00077	303.15	0.012934	0.000263
0.00057	0.00086	303.15	0.013864	0.000283
0.00068	0.00101	303.15	0.015734	0.000321
0.00078	0.00118	303.15	0.017534	0.000357
0.00089	0.00133	303.15	0.019294	0.000392
0.00099	0.00149	303.15	0.020964	0.000426
0.00109	0.00164	303.15	0.022614	0.00046
0.00128	0.00193	303.15	0.025874	0.000526
0.00147	0.00221	303.15	0.028974	0.000588
0.00166	0.00248	303.15	0.032014	0.00065
0.00183	0.00275	303.15	0.034814	0.000708
0.002	0.003	303.15	0.037614	0.000765
0.00224	0.00337	303.15	0.041414	0.000842
0.00248	0.00371	303.15	0.045214	0.000919
0.0027	0.00404	303.15	0.048714	0.00099
0.00291	0.00436	303.15	0.051914	0.001054
0.00311	0.00467	303.15	0.055114	0.00112
0.00337	0.00505	303.15	0.058914	0.001195
0.00361	0.00541	303.15	0.062414	0.001268
0.00384	0.00575	303.15	0.065814	0.001335
0.00397	0.00596	303.15	0.067614	0.001376
0	0	303.15	0	0.0001
5e-05	0.00011	303.15	0.001674	3.5e-05
9e-05	0.0002	303.15	0.003246	6.7e-05
0.00013	0.00031	303.15	0.004746	9.9e-05
0.00018	0.00041	303.15	0.006326	0.000131
0.00022	0.00051	303.15	0.007946	0.000165
0.00026	0.00061	303.15	0.009486	0.000196
0.0003	0.00071	303.15	0.010996	0.000227
0.00035	0.00081	303.15	0.012496	0.000257
0.00039	0.0009	303.15	0.013796	0.000285
0.00043	0.001	303.15	0.014976	0.000309
0.00047	0.00109	303.15	0.016076	0.000333
0.00051	0.00118	303.15	0.017146	0.000356
0.00059	0.00137	303.15	0.019226	0.000397
0.00067	0.00155	303.15	0.021216	0.00044
0.00074	0.00174	303.15	0.023156	0.000479
0.00082	0.00191	303.15	0.025116	0.000519
0.00089	0.00208	303.15	0.026986	0.000556
0	0	303.15	0	0.0001
3e-05	0.00012	303.15	0.001507	3.1e-05
6e-05	0.00023	303.15	0.002994	6.1e-05
9e-05	0.00035	303.15	0.004554	9.2e-05
0.00012	0.00047	303.15	0.005994	0.000122
0.00015	0.00058	303.15	0.007514	0.000153
0.00017	0.0007	303.15	0.008974	0.000182
0.0002	0.00081	303.15	0.010364	0.000211
0.00023	0.00092	303.15	0.011784	0.000239
0.00026	0.00103	303.15	0.013184	0.000268
0.00029	0.00114	303.15	0.014564	0.000296
0.00034	0.00135	303.15	0.017234	0.00035
0.00039	0.00157	303.15	0.019404	0.000393
0.00044	0.00178	303.15	0.021494	0.000435
0.0005	0.00198	303.15	0.023484	0.000475
0.00055	0.00218	303.15	0.025504	0.000516
0.00064	0.00257	303.15	0.029444	0.000596
0.00074	0.00294	303.15	0.033144	0.000673
0.00083	0.00331	303.15	0.036644	0.000744
0	0	303.15	0	0.0001
2e-05	0.00014	303.15	0.001546	3.1e-05
3e-05	0.00026	303.15	0.003042	6.2e-05
4e-05	0.0004	303.15	0.004542	9.3e-05
6e-05	0.00053	303.15	0.005982	0.000122
7e-05	0.00066	303.15	0.007602	0.000155
9e-05	0.00078	303.15	0.009032	0.000184
0.0001	0.00091	303.15	0.010512	0.000214
0.00012	0.00104	303.15	0.011992	0.000244
0.00013	0.00116	303.15	0.013402	0.000273
0.00014	0.00129	303.15	0.014802	0.000301
0.00017	0.00152	303.15	0.017592	0.000357
0.0002	0.00176	303.15	0.020182	0.00041
0.00022	0.002	303.15	0.022722	0.000461
0.00025	0.00223	303.15	0.025132	0.00051
0.00027	0.00246	303.15	0.027502	0.000558
0.00032	0.00289	303.15	0.032002	0.00065
0.00037	0.00331	303.15	0.036202	0.000736
0.00041	0.00373	303.15	0.040302	0.000819
0.00046	0.00412	303.15	0.044302	0.0009
0.0005	0.0045	303.15	0.048002	0.000975
0.00056	0.00505	303.15	0.053402	0.001085
0.00062	0.00557	303.15	0.058402	0.001186
0.00067	0.00607	303.15	0.063102	0.001283
0.00073	0.00654	303.15	0.067402	0.001371
0.00078	0.007	303.15	0.071602	0.001457
0.00084	0.00759	303.15	0.076902	0.001565
0.0009	0.00812	303.15	0.081702	0.001664
0.00096	0.00863	303.15	0.087402	0.001773
0.001	0.009	303.15	0.089402	0.00182
0	0	303.15	0	0.0001
0	0.00178	303.15	0.019371	0.000398
0	0.00353	303.15	0.037411	0.000771
0	0.00524	303.15	0.055311	0.001131
0	0.00692	303.15	0.072711	0.001485
0	0.00857	303.15	0.089311	0.001823
0	0.01019	303.15	0.10551	0.00215
0	0.01178	303.15	0.12101	0.00247
0	0.01333	303.15	0.13611	0.00278
0	0.01486	303.15	0.14911	0.00306
0	0.01636	303.15	0.15681	0.00322
0	0.01784	303.15	0.16181	0.00333
0	0.01929	303.15	0.16611	0.00342
0	0.02071	303.15	0.17011	0.00351
0	0.02211	303.15	0.17391	0.0036
0	0.02348	303.15	0.17761	0.00368
0	0.02483	303.15	0.18131	0.00375
0	0.02615	303.15	0.18501	0.00383
0	0.02746	303.15	0.18851	0.0039
0	0.02874	303.15	0.19191	0.00398
0	0.03	303.15	0.19531	0.00403
0	0	313.15	0	0.0001
0.00011	0	313.15	0.001522	3.1e-05
0.00022	0	313.15	0.00295	6e-05
0.00033	0	313.15	0.00432	8.8e-05
0.00043	0	313.15	0.0056	0.000114
0.00052	0	313.15	0.00686	0.00014
0.00062	0	313.15	0.00803	0.000163
0.00071	0	313.15	0.00918	0.000187
0.00079	0	313.15	0.01024	0.00021
0.00088	0	313.15	0.01118	0.00023
0.00096	0	313.15	0.01192	0.00024
0.00104	0	313.15	0.01254	0.00026
0.00112	0	313.15	0.01307	0.00027
0.00119	0	313.15	0.01358	0.00028
0.00126	0	313.15	0.01406	0.00029
0.00133	0	313.15	0.01451	0.0003
0.00139	0	313.15	0.01491	0.00031
0.00146	0	313.15	0.01535	0.00032
0.00153	0	313.15	0.01573	0.00032
0	0	313.15	0	0.0001
0.00014	2e-05	313.15	0.00204	4.1e-05
0.00026	3e-05	313.15	0.003978	8.1e-05
0.0004	4e-05	313.15	0.005898	0.00012
0.00053	6e-05	313.15	0.007808	0.000159
0.00066	7e-05	313.15	0.009618	0.000196
0.00078	9e-05	313.15	0.011318	0.000231
0.00091	0.0001	313.15	0.012588	0.000258
0.00104	0.00012	313.15	0.013618	0.00028
0.00116	0.00013	313.15	0.014548	0.000299
0.00129	0.00014	313.15	0.015418	0.000317
0.0014	0.00016	313.15	0.016278	0.000335
0.00152	0.00017	313.15	0.017118	0.000352
0.00176	0.0002	313.15	0.018728	0.000385
0.002	0.00022	313.15	0.020258	0.000416
0.00223	0.00025	313.15	0.021718	0.000446
0.00246	0.00027	313.15	0.023178	0.000476
0.00267	0.0003	313.15	0.024628	0.000506
0.00289	0.00032	313.15	0.025968	0.000534
0	0	313.15	0	0.0001
0.00012	3e-05	313.15	0.001705	3.5e-05
0.00023	6e-05	313.15	0.003516	7.2e-05
0.00035	9e-05	313.15	0.005216	0.000106
0.00047	0.00012	313.15	0.006956	0.000142
0.00058	0.00015	313.15	0.008556	0.000174
0.0007	0.00017	313.15	0.010126	0.000207
0.00081	0.0002	313.15	0.011636	0.000238
0.00092	0.00023	313.15	0.012856	0.000264
0.00103	0.00026	313.15	0.013776	0.000283
0.00114	0.00029	313.15	0.014696	0.000302
0.00135	0.00034	313.15	0.016296	0.000334
0.00157	0.00039	313.15	0.017906	0.000367
0.00178	0.00044	313.15	0.019426	0.000398
0.00198	0.0005	313.15	0.020896	0.000425
0.00218	0.00055	313.15	0.022306	0.000454
0.00238	0.00059	313.15	0.023696	0.000486
0.00257	0.00064	313.15	0.025026	0.000509
0.00276	0.00069	313.15	0.026296	0.000538
0.00294	0.00074	313.15	0.027606	0.000563
0.00313	0.00078	313.15	0.028796	0.000587
0.00366	0.00092	313.15	0.032326	0.000658
0.00417	0.00104	313.15	0.035426	0.00072
0.00465	0.00116	313.15	0.038426	0.000781
0.0051	0.00128	313.15	0.042326	0.000861
0	0	313.15	0	0.0001
0.00011	5e-05	313.15	0.001918	3.9e-05
0.0002	9e-05	313.15	0.00379	7.7e-05
0.00031	0.00013	313.15	0.00562	0.000114
0.00041	0.00018	313.15	0.00742	0.000151
0.00051	0.00022	313.15	0.00906	0.000184
0.00061	0.00026	313.15	0.01092	0.00022
0.00071	0.0003	313.15	0.01261	0.00026
0.00081	0.00035	313.15	0.01381	0.00028
0.0009	0.00039	313.15	0.01484	0.0003
0.001	0.00043	313.15	0.01577	0.00032
0.00109	0.00047	313.15	0.01666	0.00034
0.00118	0.00051	313.15	0.01751	0.00036
0.00155	0.00067	313.15	0.02081	0.00043
0.00174	0.00074	313.15	0.02245	0.00046
0.00191	0.00082	313.15	0.02402	0.00049
0.00225	0.00096	313.15	0.02713	0.00056
0	0	313.15	0	0.0001
9e-05	6e-05	313.15	0.001793	3.6e-05
0.00017	0.00012	313.15	0.003571	7.3e-05
0.00026	0.00018	313.15	0.005391	0.000109
0.00035	0.00024	313.15	0.007291	0.000148
0.00044	0.00029	313.15	0.008981	0.000182
0.00052	0.00035	313.15	0.010671	0.000217
0.00061	0.0004	313.15	0.012411	0.000252
0.00069	0.00046	313.15	0.013821	0.000282
0.00077	0.00052	313.15	0.014941	0.000306
0.00086	0.00057	313.15	0.015971	0.000327
0.00101	0.00068	313.15	0.017851	0.000364
0.00118	0.00078	313.15	0.019691	0.000402
0.00133	0.00089	313.15	0.021421	0.000437
0.00149	0.00099	313.15	0.022901	0.000467
0.00164	0.00109	313.15	0.024371	0.000498
0.00193	0.00128	313.15	0.027241	0.000559
0.00221	0.00147	313.15	0.030381	0.000622
0.00248	0.00166	313.15	0.033381	0.000682
0.00275	0.00183	313.15	0.035781	0.00073
0.003	0.002	313.15	0.038881	0.000791
0.00337	0.00224	313.15	0.042681	0.000869
0.00371	0.00248	313.15	0.045381	0.000925
0.00404	0.0027	313.15	0.049581	0.001009
0.00436	0.00291	313.15	0.052881	0.001077
0.00467	0.00311	313.15	0.055781	0.001136
0.00506	0.00337	313.15	0.059881	0.001219
0.00541	0.00361	313.15	0.063681	0.001297
0.00575	0.00384	313.15	0.066581	0.001357
0.006	0.004	313.15	0.070381	0.001432
0	0	313.15	0	0.0001
0.00014	0.00014	313.15	0.003295	6.8e-05
0.00027	0.00027	313.15	0.006445	0.000131
0.00039	0.00039	313.15	0.009675	0.000196
0.00052	0.00052	313.15	0.012635	0.000257
0.00065	0.00065	313.15	0.015345	0.000316
0.00077	0.00077	313.15	0.017345	0.000355
0.00089	0.00089	313.15	0.019155	0.000393
0.00102	0.00102	313.15	0.020945	0.00043
0.00113	0.00113	313.15	0.022675	0.000466
0.00125	0.00125	313.15	0.024435	0.000501
0.00137	0.00137	313.15	0.026095	0.000536
0.00148	0.00148	313.15	0.027685	0.000567
0.0016	0.0016	313.15	0.029315	0.000601
0.00171	0.00171	313.15	0.030905	0.000632
0.00193	0.00193	313.15	0.034005	0.000696
0.00215	0.00215	313.15	0.036905	0.000755
0.00236	0.00236	313.15	0.039905	0.000818
0.00256	0.00256	313.15	0.042705	0.000879
0.00276	0.00276	313.15	0.045405	0.00093
0.00315	0.00315	313.15	0.050705	0.001038
0.00352	0.00352	313.15	0.055405	0.001138
0.00387	0.00387	313.15	0.060205	0.001234
0.00438	0.00438	313.15	0.0652	0.00134
0.0047	0.0047	313.15	0.0695	0.001428
0.0053	0.0053	313.15	0.0772	0.001581
0.00585	0.00585	313.15	0.0841	0.001709
0.00637	0.00637	313.15	0.0905	0.001842
0.00684	0.00684	313.15	0.0962	0.001958
0.00729	0.00729	313.15	0.1013	0.00206
0.0075	0.0075	313.15	0.1089	0.00222
0.00761	0.00761	313.15	0.1102	0.00224
0	0	313.15	0	0.0001
6e-05	9e-05	313.15	0.001768	3.6e-05
0.00012	0.00017	313.15	0.003539	7.2e-05
0.00018	0.00026	313.15	0.005339	0.000108
0.00024	0.00035	313.15	0.007109	0.000149
0.00029	0.00044	313.15	0.008779	0.000183
0.00035	0.00052	313.15	0.010519	0.000218
0.0004	0.00061	313.15	0.012259	0.000259
0.00046	0.00069	313.15	0.013839	0.000291
0.00052	0.00077	313.15	0.015339	0.000322
0.00057	0.00086	313.15	0.016769	0.000351
0.00068	0.00101	313.15	0.019099	0.000396
0.00078	0.00118	313.15	0.020909	0.000432
0.00089	0.00133	313.15	0.022849	0.000471
0.00099	0.00149	313.15	0.024729	0.000509
0.00109	0.00164	313.15	0.026699	0.000549
0.00128	0.00193	313.15	0.030589	0.000628
0.00147	0.00221	313.15	0.034089	0.000699
0.00166	0.00248	313.15	0.037489	0.000768
0.00183	0.00275	313.15	0.040989	0.000838
0.002	0.003	313.15	0.044289	0.000904
0.00224	0.00337	313.15	0.048889	0.000998
0.00248	0.00371	313.15	0.053189	0.001085
0.0027	0.00404	313.15	0.057189	0.001166
0.00291	0.00436	313.15	0.060889	0.001242
0.00311	0.00467	313.15	0.064689	0.00132
0.00337	0.00505	313.15	0.068689	0.001401
0.00361	0.00541	313.15	0.073089	0.001491
0.00384	0.00575	313.15	0.076689	0.001565
0.00397	0.00596	313.15	0.080089	0.001636
0	0	313.15	0	0.0001
5e-05	0.00011	313.15	0.002083	4.2e-05
9e-05	0.0002	313.15	0.003977	8.1e-05
0.00013	0.00031	313.15	0.005897	0.00012
0.00018	0.00041	313.15	0.007787	0.000158
0.00022	0.00051	313.15	0.009727	0.000198
0.00026	0.00061	313.15	0.011477	0.000233
0.0003	0.00071	313.15	0.013287	0.00027
0.00035	0.00081	313.15	0.014997	0.000305
0.00039	0.0009	313.15	0.016677	0.000339
0.00043	0.001	313.15	0.018347	0.000374
0.00047	0.00109	313.15	0.019817	0.000404
0.00051	0.00118	313.15	0.021197	0.000433
0.00059	0.00137	313.15	0.023707	0.000484
0.00067	0.00155	313.15	0.026247	0.000536
0.00074	0.00174	313.15	0.028597	0.000584
0.00082	0.00191	313.15	0.031067	0.000634
0.00096	0.00225	313.15	0.035467	0.000722
0	0	313.15	0	0.0001
3e-05	0.00012	313.15	0.001835	3.7e-05
6e-05	0.00023	313.15	0.003638	7.4e-05
9e-05	0.00035	313.15	0.005358	0.000109
0.00012	0.00047	313.15	0.007208	0.000146
0.00015	0.00058	313.15	0.008978	0.000182
0.00017	0.0007	313.15	0.010718	0.000218
0.0002	0.00081	313.15	0.012438	0.000252
0.00023	0.00092	313.15	0.014108	0.000286
0.00026	0.00103	313.15	0.015748	0.00032
0.00029	0.00114	313.15	0.017428	0.000354
0.00034	0.00135	313.15	0.020148	0.000409
0.00039	0.00157	313.15	0.022818	0.000463
0.00044	0.00178	313.15	0.025258	0.000514
0.0005	0.00198	313.15	0.027518	0.000559
0.00055	0.00218	313.15	0.029818	0.000607
0.00064	0.00257	313.15	0.034718	0.000705
0.00074	0.00294	313.15	0.039418	0.000801
0.00083	0.00331	313.15	0.043618	0.000887
0	0	313.15	0	0.0001
2e-05	0.00014	313.15	0.001757	3.6e-05
3e-05	0.00026	313.15	0.00361	7.3e-05
4e-05	0.0004	313.15	0.00543	0.00011
6e-05	0.00053	313.15	0.0073	0.000149
7e-05	0.00066	313.15	0.00893	0.000182
9e-05	0.00078	313.15	0.01079	0.00022
0.0001	0.00091	313.15	0.0125	0.00025
0.00012	0.00104	313.15	0.01419	0.00029
0.00013	0.00116	313.15	0.01586	0.00032
0.00014	0.00129	313.15	0.01749	0.00036
0.00017	0.00152	313.15	0.02064	0.00042
0.0002	0.00176	313.15	0.02363	0.00048
0.00022	0.002	313.15	0.02635	0.00053
0.00025	0.00223	313.15	0.02919	0.00059
0.00027	0.00246	313.15	0.03214	0.00065
0.00032	0.00289	313.15	0.03744	0.00076
0.00037	0.00331	313.15	0.04254	0.00086
0.00041	0.00373	313.15	0.04734	0.00096
0.00046	0.00412	313.15	0.05194	0.00105
0.0005	0.0045	313.15	0.05634	0.00114
0.00056	0.00505	313.15	0.06264	0.00127
0.00062	0.00557	313.15	0.06844	0.00139
0.00067	0.00607	313.15	0.07434	0.00151
0.00073	0.00654	313.15	0.07954	0.00162
0.00078	0.007	313.15	0.08464	0.00172
0.00084	0.00759	313.15	0.09104	0.00185
0.0009	0.00812	313.15	0.09694	0.00197
0.00096	0.00863	313.15	0.10214	0.00208
0.001	0.009	313.15	0.10624	0.00216
0	0	313.15	0	0.0001
0	0.00178	313.15	0.023415	0.000477
0	0.00353	313.15	0.046705	0.000951
0	0.00524	313.15	0.066805	0.00136
0	0.00692	313.15	0.087105	0.001773
0	0.00857	313.15	0.107	0.00218
0	0.01019	313.15	0.12631	0.00257
0	0.01178	313.15	0.14531	0.00296
0	0.01333	313.15	0.16331	0.00332
0	0.01486	313.15	0.18021	0.00367
0	0.01636	313.15	0.19321	0.00394
0	0.01784	313.15	0.20091	0.00411
0	0.01929	313.15	0.20751	0.00425
0	0.02071	313.15	0.21311	0.00437
0	0.02211	313.15	0.21861	0.00449
0	0.02348	313.15	0.22391	0.0046
0	0.02483	313.15	0.22861	0.00469
0	0.02615	313.15	0.23361	0.0048
0	0.02746	313.15	0.23811	0.00489
0	0.02874	313.15	0.24261	0.00498
0	0.03	313.15	0.24671	0.00507
0	0	323.15	0	0.0001
0.00011	0	323.15	0.001715	3.4e-05
0.00022	0	323.15	0.00334	6.7e-05
0.00033	0	323.15	0.00491	9.9e-05
0.00043	0	323.15	0.0064	0.000129
0.00052	0	323.15	0.00791	0.00016
0.00062	0	323.15	0.00929	0.000188
0.00071	0	323.15	0.01061	0.00021
0.00079	0	323.15	0.01188	0.00024
0.00088	0	323.15	0.01333	0.00027
0.00096	0	323.15	0.01429	0.00029
0.00104	0	323.15	0.01528	0.00031
0.00112	0	323.15	0.01611	0.00033
0.00119	0	323.15	0.01682	0.00034
0.00126	0	323.15	0.0175	0.00036
0.00133	0	323.15	0.01808	0.00037
0.00139	0	323.15	0.01862	0.00038
0.00146	0	323.15	0.01917	0.00039
0.00153	0	323.15	0.0197	0.0004
0	0	323.15	0	0.0001
0.00014	2e-05	323.15	0.002158	4.3e-05
0.00026	3e-05	323.15	0.004566	9.2e-05
0.0004	4e-05	323.15	0.006896	0.000139
0.00053	6e-05	323.15	0.009106	0.000183
0.00066	7e-05	323.15	0.011406	0.000231
0.00078	9e-05	323.15	0.013536	0.000274
0.00091	0.0001	323.15	0.015526	0.000316
0.00104	0.00012	323.15	0.017046	0.000348
0.00116	0.00013	323.15	0.018376	0.000375
0.00129	0.00014	323.15	0.019506	0.000399
0.0014	0.00016	323.15	0.020576	0.000421
0.00152	0.00017	323.15	0.021646	0.000442
0.00176	0.0002	323.15	0.023696	0.000484
0.002	0.00022	323.15	0.025596	0.000523
0.00223	0.00025	323.15	0.027486	0.000562
0.00246	0.00027	323.15	0.029366	0.0006
0.00267	0.0003	323.15	0.031166	0.000637
0.00289	0.00032	323.15	0.032766	0.00067
0	0	323.15	0	0.0001
0.00012	3e-05	323.15	0.002087	4.2e-05
0.00023	6e-05	323.15	0.004329	8.9e-05
0.00035	9e-05	323.15	0.006459	0.000132
0.00047	0.00012	323.15	0.008599	0.000175
0.00058	0.00015	323.15	0.010649	0.000217
0.0007	0.00017	323.15	0.012739	0.00026
0.00081	0.0002	323.15	0.014659	0.000299
0.00092	0.00023	323.15	0.016309	0.000333
0.00103	0.00026	323.15	0.017599	0.00036
0.00114	0.00029	323.15	0.018729	0.000384
0.00135	0.00034	323.15	0.020449	0.000418
0.00157	0.00039	323.15	0.022219	0.000453
0.00178	0.00044	323.15	0.023879	0.000488
0.00198	0.0005	323.15	0.025379	0.000516
0.00218	0.00055	323.15	0.027009	0.000548
0.00257	0.00064	323.15	0.030089	0.000612
0.00294	0.00074	323.15	0.034089	0.000697
0.0033	0.00082	323.15	0.036289	0.000737
0.00366	0.00092	323.15	0.038989	0.000791
0.004	0.001	323.15	0.041489	0.000843
0.00449	0.00112	323.15	0.044989	0.000914
0.00495	0.00124	323.15	0.048789	0.000988
0.00539	0.00135	323.15	0.052389	0.00106
0.00582	0.00145	323.15	0.055489	0.001123
0	0	323.15	0	0.0001
0.00011	5e-05	323.15	0.002293	4.7e-05
0.0002	9e-05	323.15	0.004493	9.1e-05
0.00031	0.00013	323.15	0.006663	0.000135
0.00041	0.00018	323.15	0.008863	0.000181
0.00051	0.00022	323.15	0.010943	0.000222
0.00061	0.00026	323.15	0.012973	0.000262
0.00071	0.0003	323.15	0.014923	0.000302
0.00081	0.00035	323.15	0.016823	0.000342
0.0009	0.00039	323.15	0.018323	0.000374
0.001	0.00043	323.15	0.019603	0.0004
0.00109	0.00047	323.15	0.020783	0.000424
0.00118	0.00051	323.15	0.021893	0.000445
0.00155	0.00067	323.15	0.026053	0.000532
0.00174	0.00074	323.15	0.027983	0.000572
0.00191	0.00082	323.15	0.029903	0.00061
0.00225	0.00096	323.15	0.033603	0.000689
0	0	323.15	0	0.0001
9e-05	6e-05	323.15	0.002109	4.3e-05
0.00017	0.00012	323.15	0.004196	8.5e-05
0.00026	0.00018	323.15	0.006256	0.000127
0.00035	0.00024	323.15	0.008386	0.00017
0.00044	0.00029	323.15	0.010406	0.000211
0.00052	0.00035	323.15	0.012406	0.000254
0.00061	0.0004	323.15	0.014436	0.000292
0.00069	0.00046	323.15	0.016296	0.000331
0.00077	0.00052	323.15	0.018106	0.000369
0.00086	0.00057	323.15	0.019536	0.000397
0.00101	0.00068	323.15	0.021376	0.000435
0.00118	0.00078	323.15	0.023446	0.000475
0.00133	0.00089	323.15	0.025626	0.000519
0.00149	0.00099	323.15	0.027466	0.000562
0.00164	0.00109	323.15	0.029956	0.000612
0.00193	0.00128	323.15	0.034696	0.00071
0.00221	0.00147	323.15	0.038096	0.000777
0.00248	0.00166	323.15	0.040896	0.000841
0.00275	0.00183	323.15	0.043196	0.000877
0.003	0.002	323.15	0.045696	0.000925
0.00337	0.00224	323.15	0.050296	0.001018
0.00371	0.00248	323.15	0.054496	0.001113
0.00404	0.0027	323.15	0.058296	0.001187
0.00436	0.00291	323.15	0.062396	0.001263
0.00467	0.00311	323.15	0.065996	0.001336
0.00506	0.00337	323.15	0.069896	0.001413
0.00541	0.00361	323.15	0.074696	0.001511
0.00575	0.00384	323.15	0.078396	0.001586
0.006	0.004	323.15	0.081496	0.001646
0	0	323.15	0	0.0001
8e-05	8e-05	323.15	0.002141	4.3e-05
0.00015	0.00015	323.15	0.004396	8.9e-05
0.00022	0.00022	323.15	0.006576	0.000132
0.0003	0.0003	323.15	0.008706	0.000181
0.00037	0.00037	323.15	0.010776	0.000218
0.00044	0.00044	323.15	0.012926	0.00026
0.00051	0.00051	323.15	0.014966	0.000308
0.00058	0.00058	323.15	0.016986	0.000346
0.00065	0.00065	323.15	0.019596	0.000402
0.00072	0.00072	323.15	0.020696	0.000422
0.00085	0.00085	323.15	0.023216	0.000475
0.00098	0.00098	323.15	0.025676	0.000528
0.00111	0.00111	323.15	0.027996	0.000573
0.00124	0.00124	323.15	0.030256	0.000621
0.00137	0.00137	323.15	0.032456	0.000663
0.00173	0.00173	323.15	0.038156	0.000779
0.00207	0.00207	323.15	0.044356	0.000906
0.0024	0.0024	323.15	0.050156	0.001022
0.00271	0.00271	323.15	0.055756	0.001135
0.003	0.003	323.15	0.060656	0.001239
0.00337	0.00337	323.15	0.066956	0.001364
0.00372	0.00372	323.15	0.072056	0.001471
0.00405	0.00405	323.15	0.0778	0.001579
0.00436	0.00436	323.15	0.083	0.0017
0.00466	0.00466	323.15	0.0881	0.001805
0.00494	0.00494	323.15	0.0924	0.001889
0	0	323.15	0	0.0001
6e-05	9e-05	323.15	0.002143	4.4e-05
0.00012	0.00017	323.15	0.004314	8.7e-05
0.00018	0.00026	323.15	0.006364	0.00013
0.00024	0.00035	323.15	0.010664	0.000217
0.00029	0.00044	323.15	0.012724	0.00026
0.00035	0.00052	323.15	0.014834	0.000303
0.0004	0.00061	323.15	0.018914	0.000391
0.00046	0.00069	323.15	0.020824	0.000426
0.00052	0.00077	323.15	0.022524	0.00046
0.00057	0.00086	323.15	0.023994	0.000492
0.00068	0.00101	323.15	0.026044	0.000533
0.00078	0.00118	323.15	0.028424	0.000583
0.00089	0.00133	323.15	0.030534	0.000628
0.00099	0.00149	323.15	0.032934	0.000678
0.00109	0.00164	323.15	0.035234	0.000725
0.00128	0.00193	323.15	0.039834	0.000817
0.00147	0.00221	323.15	0.044134	0.000903
0.00166	0.00248	323.15	0.048234	0.000987
0.00183	0.00275	323.15	0.051934	0.001062
0.002	0.003	323.15	0.055334	0.00113
0.00224	0.00337	323.15	0.061034	0.001245
0.00248	0.00371	323.15	0.066134	0.001349
0.0027	0.00404	323.15	0.071134	0.001451
0.00291	0.00436	323.15	0.075934	0.001549
0.00311	0.00467	323.15	0.080334	0.001638
0.00337	0.00505	323.15	0.085934	0.001754
0.00361	0.00541	323.15	0.091034	0.001857
0.00384	0.00575	323.15	0.095934	0.001958
0.00397	0.00596	323.15	0.098834	0.002013
0	0	323.15	0	0.0001
5e-05	0.00011	323.15	0.002316	4.7e-05
9e-05	0.0002	323.15	0.004586	9.2e-05
0.00013	0.00031	323.15	0.006856	0.000138
0.00018	0.00041	323.15	0.009086	0.000184
0.00022	0.00051	323.15	0.011306	0.000228
0.00026	0.00061	323.15	0.013526	0.000274
0.0003	0.00071	323.15	0.015676	0.000319
0.00035	0.00081	323.15	0.017826	0.000362
0.00039	0.0009	323.15	0.019916	0.000406
0.00043	0.001	323.15	0.021996	0.000444
0.00047	0.00109	323.15	0.024006	0.000487
0.00051	0.00118	323.15	0.025846	0.000524
0.00059	0.00137	323.15	0.029036	0.000591
0.00067	0.00155	323.15	0.031926	0.000646
0.00074	0.00174	323.15	0.034726	0.000702
0.00082	0.00191	323.15	0.037526	0.000761
0.00089	0.00208	323.15	0.040126	0.00081
0	0	323.15	0	0.0001
3e-05	0.00012	323.15	0.002001	4e-05
6e-05	0.00023	323.15	0.004172	8.4e-05
9e-05	0.00035	323.15	0.006342	0.000129
0.00012	0.00047	323.15	0.008502	0.000173
0.00015	0.00058	323.15	0.010522	0.000214
0.00017	0.0007	323.15	0.012582	0.000256
0.0002	0.00081	323.15	0.014572	0.000296
0.00023	0.00092	323.15	0.016582	0.000337
0.00026	0.00103	323.15	0.018642	0.000379
0.00029	0.00114	323.15	0.020702	0.000421
0.00034	0.00135	323.15	0.023832	0.000485
0.00039	0.00157	323.15	0.027232	0.000555
0.00044	0.00178	323.15	0.030602	0.000624
0.0005	0.00198	323.15	0.033202	0.000679
0.00055	0.00218	323.15	0.036502	0.000747
0.00064	0.00257	323.15	0.041502	0.000849
0.00074	0.00294	323.15	0.046802	0.000955
0.00083	0.00331	323.15	0.052502	0.001072
0.00092	0.00366	323.15	0.057702	0.001174
0.001	0.004	323.15	0.062702	0.001273
0.00112	0.00449	323.15	0.069702	0.00141
0.00124	0.00495	323.15	0.076102	0.00154
0.00135	0.00539	323.15	0.082202	0.001671
0.00145	0.00582	323.15	0.088102	0.001792
0.00156	0.00622	323.15	0.093702	0.001908
0.00168	0.00674	323.15	0.1008	0.00205
0.0018	0.00722	323.15	0.1073	0.00219
0.00192	0.00767	323.15	0.1124	0.00229
0.002	0.008	323.15	0.1168	0.00238
0	0	323.15	0	0.0001
2e-05	0.00014	323.15	0.002116	4.3e-05
3e-05	0.00026	323.15	0.004326	8.8e-05
4e-05	0.0004	323.15	0.006506	0.000132
6e-05	0.00053	323.15	0.008706	0.000176
7e-05	0.00066	323.15	0.010736	0.000218
9e-05	0.00078	323.15	0.012896	0.000261
0.0001	0.00091	323.15	0.014906	0.000302
0.00012	0.00104	323.15	0.017076	0.000347
0.00013	0.00116	323.15	0.019106	0.000388
0.00014	0.00129	323.15	0.021076	0.000428
0.00017	0.00152	323.15	0.023886	0.000483
0.0002	0.00176	323.15	0.027196	0.000552
0.00022	0.002	323.15	0.030666	0.00062
0.00025	0.00223	323.15	0.034066	0.000689
0.00027	0.00246	323.15	0.037466	0.000758
0.00032	0.00289	323.15	0.044166	0.000895
0.00037	0.00331	323.15	0.050166	0.001019
0.00041	0.00373	323.15	0.055966	0.001138
0.00046	0.00412	323.15	0.061366	0.001243
0.0005	0.0045	323.15	0.066766	0.001353
0.00056	0.00505	323.15	0.074866	0.001526
0.00062	0.00557	323.15	0.081866	0.001665
0.00067	0.00607	323.15	0.088766	0.0018
0.00073	0.00654	323.15	0.095266	0.001941
0.00078	0.007	323.15	0.10107	0.00206
0.00084	0.00759	323.15	0.10937	0.00222
0.0009	0.00812	323.15	0.116966	0.002387
0.00096	0.00863	323.15	0.124166	0.002523
0.001	0.009	323.15	0.126266	0.002557
0	0	323.15	0	0.0001
0	0.00178	323.15	0.028154	0.000571
0	0.00353	323.15	0.054664	0.001106
0	0.00524	323.15	0.080164	0.001627
0	0.00692	323.15	0.10486	0.00213
0	0.00857	323.15	0.12846	0.00261
0	0.01019	323.15	0.15156	0.00308
0	0.01178	323.15	0.17416	0.00353
0	0.01333	323.15	0.19556	0.00397
0	0.01486	323.15	0.21626	0.00439
0	0.01636	323.15	0.23436	0.00476
0	0.01789	323.15	0.24726	0.00503
0	0.01929	323.15	0.25776	0.00525
0	0.02071	323.15	0.26526	0.00541
0	0.02211	323.15	0.27226	0.00556
0	0.02348	323.15	0.27896	0.00569
0	0.02483	323.15	0.28516	0.00582
0	0.02615	323.15	0.29186	0.00596
0	0.02746	323.15	0.29736	0.00607
0	0.02874	323.15	0.30366	0.0062
0	0.03	323.15	0.30966	0.00633

System: 1-hexadecyl-3-methylimidazolium chloride + dodecyltrimethylammonium bromide + water; phases: Liquid, Gas
Fixed: Temperature, K = 313.15
Property: Surface tension liquid-gas, N/m (Liquid); method: Ring tensiometer
Molality, mol/kg of 1-hexadecyl-3-methylimidazolium chloride	Molality, mol/kg of dodecyltrimethylammonium bromide	Surface tension liquid-gas, N/m	uncertainty
0	0	0.0672	0.0028
0	6e-06	0.0652	0.0027
0	2.5e-05	0.0636	0.0027
0	5.6e-05	0.0625	0.0026
0	0.000135	0.0613	0.0026
0	0.000263	0.0583	0.0024
0	0.000739	0.0547	0.0023
0	0.001308	0.0513	0.0021
0	0.004064	0.046	0.0019
0	0.006048	0.0433	0.0018
0	0.008433	0.0395	0.0017
0	0.01941	0.0362	0.0015
0	0.0309	0.0379	0.0016
0	0.0456	0.0383	0.0016
0	0.07211	0.0388	0.0016
0	0.1062	0.0389	0.0016
0	0	0.0672	0.0028
6e-07	5.4e-06	0.0671	0.0028
1.5e-06	1.35e-05	0.067	0.0028
2.9e-06	2.61e-05	0.0664	0.0028
5.1e-06	4.59e-05	0.0664	0.0028
8.1e-06	7.29e-05	0.065	0.0027
1.25e-05	0.0001125	0.0625	0.0026
1.85e-05	0.0001665	0.0609	0.0025
2.44e-05	0.0002196	0.058	0.0024
3.03e-05	0.0002727	0.056	0.0023
4.74e-05	0.0004266	0.0535	0.0022
7.37e-05	0.0006633	0.0481	0.002
0.0001468	0.0013212	0.0445	0.0019
0.0001839	0.0016551	0.0415	0.0017
0.0002036	0.0018324	0.0394	0.0017
0.0002305	0.0020745	0.0369	0.0015
0.0002759	0.0024831	0.0355	0.0015
0.0003532	0.0031788	0.0354	0.0015
0.0005035	0.0045315	0.0353	0.0015
0	0	0.0672	0.0028
1.2e-06	4.8e-06	0.0671	0.0028
3.2e-06	1.28e-05	0.0665	0.0028
5.8e-06	2.32e-05	0.066	0.0028
1.02e-05	4.08e-05	0.0656	0.0027
1.62e-05	6.48e-05	0.0653	0.0027
2.22e-05	8.88e-05	0.0639	0.0027
2.78e-05	0.0001112	0.0624	0.0026
3.74e-05	0.0001496	0.0594	0.0025
5.1e-05	0.000204	0.0584	0.0024
6.7e-05	0.000268	0.0556	0.0023
9.38e-05	0.0003752	0.0551	0.0023
0.0001082	0.0004328	0.0526	0.0022
0.0001418	0.0005672	0.0503	0.0021
0.000172	0.000688	0.0483	0.002
0.0002194	0.0008776	0.0471	0.002
0.000254	0.001016	0.0439	0.0018
0.0003062	0.0012248	0.0419	0.0018
0.0003466	0.0013864	0.0398	0.0017
0.000393	0.001572	0.0366	0.0015
0.0004548	0.0018192	0.0349	0.0015
0.0005482	0.0021928	0.0353	0.0015
0.0007288	0.0029152	0.0352	0.0015
0.0007346	0.0029384	0.0361	0.0015
0.0009052	0.0036208	0.0355	0.0015
0.0012096	0.0048384	0.0357	0.0015
0	0	0.0672	0.0028
1.8e-06	4.2e-06	0.0663	0.0028
4.5e-06	1.05e-05	0.0654	0.0027
8.1e-06	1.89e-05	0.0653	0.0027
1.26e-05	2.94e-05	0.0648	0.0027
1.86e-05	4.34e-05	0.0642	0.0027
2.37e-05	5.53e-05	0.0632	0.0026
3.15e-05	7.35e-05	0.0622	0.0026
4.05e-05	9.45e-05	0.0611	0.0025
5.85e-05	0.0001365	0.0581	0.0024
7.35e-05	0.0001715	0.0572	0.0024
9.27e-05	0.0002163	0.0551	0.0023
0.0001569	0.0003661	0.0496	0.0021
0.0003018	0.0007042	0.0449	0.0019
0.0004197	0.0009793	0.0402	0.0017
0.0004659	0.0010871	0.0382	0.0016
0.0005067	0.0011823	0.0371	0.0016
0.0005508	0.0012852	0.0359	0.0015
0.0006624	0.0015456	0.0355	0.0015
0.0007017	0.0016373	0.035	0.0015
0.0008262	0.0019278	0.0348	0.0015
0.0010644	0.0024836	0.0346	0.0015
0	0	0.0672	0.0028
2.4e-06	3.6e-06	0.0649	0.0027
6e-06	9e-06	0.0644	0.0027
1.16e-05	1.74e-05	0.0639	0.0027
1.88e-05	2.82e-05	0.0633	0.0026
2.92e-05	4.38e-05	0.0627	0.0026
4.44e-05	6.66e-05	0.0605	0.0025
6.48e-05	9.72e-05	0.0587	0.0024
8.12e-05	0.0001218	0.0571	0.0024
0.0001112	0.0001668	0.0549	0.0023
0.0001376	0.0002064	0.0523	0.0022
0.0002168	0.0003252	0.0491	0.0021
0.0003144	0.0004716	0.044	0.0018
0.0004124	0.0006186	0.0397	0.0017
0.0005632	0.0008448	0.0363	0.0015
0.000738	0.001107	0.0347	0.0015
0.0008728	0.0013092	0.0356	0.0015
0.0010964	0.0016446	0.0355	0.0015
0.001438	0.002157	0.0354	0.0015
0.0020048	0.0030072	0.0369	0.0015
0.0017704	0.0026556	0.0353	0.0015
0	0	0.0672	0.0028
3e-06	3e-06	0.066	0.0028
8e-06	8e-06	0.0632	0.0026
1.3e-05	1.3e-05	0.0627	0.0026
2.05e-05	2.05e-05	0.0639	0.0027
3.8e-05	3.8e-05	0.061	0.0025
5.45e-05	5.45e-05	0.0597	0.0025
6.85e-05	6.85e-05	0.0592	0.0025
9.35e-05	9.35e-05	0.0575	0.0024
0.00012	0.00012	0.0554	0.0023
0.000148	0.000148	0.0532	0.0022
0.000193	0.000193	0.0513	0.0021
0.0002645	0.0002645	0.0463	0.0019
0.000326	0.000326	0.0431	0.0018
0.0004095	0.0004095	0.0403	0.0017
0.000495	0.000495	0.0383	0.0016
0.000635	0.000635	0.0358	0.0015
0.000867	0.000867	0.0352	0.0015
0.001137	0.001137	0.0364	0.0015
0.001587	0.001587	0.0355	0.0015
0	0	0.0672	0.0028
3.6e-06	2.4e-06	0.0669	0.0028
9.6e-06	6.4e-06	0.0654	0.0027
1.86e-05	1.24e-05	0.0622	0.0026
3e-05	2e-05	0.0602	0.0025
4.68e-05	3.12e-05	0.0573	0.0024
6.18e-05	4.12e-05	0.0553	0.0023
8.64e-05	5.76e-05	0.0539	0.0023
0.0001194	7.96e-05	0.0523	0.0022
0.0001734	0.0001156	0.0504	0.0021
0.0002412	0.0001608	0.0481	0.002
0.0003504	0.0002336	0.0428	0.0018
0.000495	0.00033	0.0396	0.0017
0.0006654	0.0004436	0.0371	0.0016
0.0008574	0.0005716	0.0378	0.0016
0.001143	0.000762	0.0371	0.0016
0.001683	0.001122	0.0361	0.0015
0.002613	0.001742	0.0363	0.0015
0	0	0.0672	0.0028
4.2e-06	1.8e-06	0.0663	0.0028
8.4e-06	3.6e-06	0.0646	0.0027
2.73e-05	1.17e-05	0.0599	0.0025
5.46e-05	2.34e-05	0.0568	0.0024
6.23e-05	2.67e-05	0.055	0.0023
8.33e-05	3.57e-05	0.054	0.0023
0.0002079	8.91e-05	0.0494	0.0021
0.0003087	0.0001323	0.0457	0.0019
0.0004347	0.0001863	0.0418	0.0018
0.0006349	0.0002721	0.0391	0.0016
0.0009576	0.0004104	0.038	0.0016
0.0012621	0.0005409	0.0377	0.0016
0.0015771	0.0006759	0.0373	0.0016
0.0019411	0.0008319	0.0371	0.0016
0	0	0.0672	0.0028
4.8e-06	1.2e-06	0.067	0.0028
1.04e-05	2.6e-06	0.0657	0.0027
2e-05	5e-06	0.0624	0.0026
3.52e-05	8.8e-06	0.0599	0.0025
6.08e-05	1.52e-05	0.0579	0.0024
9.68e-05	2.42e-05	0.0564	0.0024
0.0001536	3.84e-05	0.0554	0.0023
0.0002456	6.14e-05	0.0505	0.0021
0.0003416	8.54e-05	0.0471	0.002
0.000448	0.000112	0.0442	0.0018
0.0005872	0.0001468	0.0409	0.0017
0.0007432	0.0001858	0.0382	0.0016
0.0009568	0.0002392	0.0379	0.0016
0.0012024	0.0003006	0.0388	0.0016
0.0017424	0.0004356	0.0383	0.0016
0.0029176	0.0007294	0.0389	0.0016
0.0055968	0.0013992	0.0381	0.0016
0	0	0.0672	0.0028
5.4e-06	6e-07	0.0669	0.0028
1.08e-05	1.2e-06	0.0657	0.0027
1.89e-05	2.1e-06	0.0627	0.0026
3.15e-05	3.5e-06	0.0603	0.0025
5.13e-05	5.7e-06	0.058	0.0024
7.83e-05	8.7e-06	0.0564	0.0024
0.0001152	1.28e-05	0.0542	0.0023
0.0001737	1.93e-05	0.0529	0.0022
0.0004347	4.83e-05	0.0448	0.0019
0.0005094	5.66e-05	0.0432	0.0018
0.0006165	6.85e-05	0.0408	0.0017
0.0008712	9.68e-05	0.0386	0.0016
0.0010719	0.0001191	0.0386	0.0016
0.0013383	0.0001487	0.0387	0.0016
0	0	0.0672	0.0028
1.3e-05	0	0.0579	0.0024
4.4e-05	0	0.0564	0.0024
0.000146	0	0.0532	0.0022
0.000247	0	0.0501	0.0021
0.000435	0	0.0464	0.0019
0.000734	0	0.0392	0.0016
0.00127	0	0.0388	0.0016
0.002558	0	0.0388	0.0016
0.00525	0	0.0381	0.0016

System: 1-hexadecyl-3-methylimidazolium chloride + water; phases: Liquid
Fixed: Pressure, kPa = 100
Fixed: Frequency, MHz = 0.002
Property: Electrical conductivity, S/m (Liquid); method: Alternating current cell with electrodes
Molality, mol/kg of 1-hexadecyl-3-methylimidazolium chloride	Temperature, K	Electrical conductivity, S/m	uncertainty
0.00011	303.15	0.001206	0.000121
0.00022	303.15	0.002339	0.000234
0.00033	303.15	0.00341	0.000341
0.00043	303.15	0.00444	0.000445
0.00052	303.15	0.00541	0.000542
0.00062	303.15	0.00636	0.000637
0.00071	303.15	0.00726	0.000727
0.00079	303.15	0.00809	0.00081
0.00088	303.15	0.0088	0.000881
0.00096	303.15	0.00933	0.000934
0.00104	303.15	0.00977	0.000979
0.00112	303.15	0.01017	0.00102
0.00119	303.15	0.01055	0.00106
0.00126	303.15	0.01088	0.00109
0.00133	303.15	0.01119	0.00112
0.00139	303.15	0.0115	0.00115
0.00146	303.15	0.01183	0.00119
0.00153	303.15	0.01211	0.00121
0.00011	313.15	0.001522	0.000152
0.00022	313.15	0.00295	0.000295
0.00033	313.15	0.00432	0.000432
0.00043	313.15	0.0056	0.00056
0.00052	313.15	0.00686	0.000686
0.00062	313.15	0.00803	0.000804
0.00071	313.15	0.00918	0.000919
0.00079	313.15	0.01024	0.00102
0.00088	313.15	0.01118	0.00112
0.00096	313.15	0.01192	0.00119
0.00104	313.15	0.01254	0.00126
0.00112	313.15	0.01307	0.00131
0.00119	313.15	0.01358	0.00136
0.00126	313.15	0.01406	0.00141
0.00133	313.15	0.01451	0.00145
0.00139	313.15	0.01491	0.00149
0.00146	313.15	0.01535	0.00154
0.00153	313.15	0.01573	0.00157
0.00011	323.15	0.001715	0.000172
0.00022	323.15	0.00334	0.000334
0.00033	323.15	0.00491	0.000491
0.00043	323.15	0.0064	0.00064
0.00052	323.15	0.00791	0.000791
0.00062	323.15	0.00929	0.000929
0.00071	323.15	0.01061	0.00106
0.00079	323.15	0.01188	0.00119
0.00088	323.15	0.01333	0.00133
0.00096	323.15	0.01429	0.00143
0.00104	323.15	0.01528	0.00153
0.00112	323.15	0.01611	0.00161
0.00119	323.15	0.01682	0.00168
0.00126	323.15	0.0175	0.00175
0.00133	323.15	0.01808	0.00181
0.00139	323.15	0.01862	0.00186
0.00146	323.15	0.01917	0.00192
0.00153	323.15	0.0197	0.00197

System: 1-hexadecyl-3-methylimidazolium chloride + water; phases: Liquid, Gas
Fixed: Temperature, K = 313.15
Property: Surface tension liquid-gas, N/m (Liquid); method: Ring tensiometer
Molality, mol/kg of 1-hexadecyl-3-methylimidazolium chloride	Surface tension liquid-gas, N/m	uncertainty
1.3e-05	0.0579	0.0024
4.4e-05	0.0564	0.0024
0.000146	0.0532	0.0022
0.000247	0.0501	0.0021
0.000435	0.0464	0.0019
0.000734	0.0392	0.0016
0.00127	0.0388	0.0016
0.002558	0.0388	0.0016
0.00525	0.0381	0.0016

System: dodecyltrimethylammonium bromide + water; phases: Liquid
Fixed: Pressure, kPa = 100
Fixed: Frequency, MHz = 0.002
Property: Electrical conductivity, S/m (Liquid); method: Alternating current cell with electrodes
Molality, mol/kg of dodecyltrimethylammonium bromide	Temperature, K	Electrical conductivity, S/m	uncertainty
0.00178	303.15	0.019371	0.001939
0.00353	303.15	0.037411	0.003746
0.00524	303.15	0.055311	0.005536
0.00692	303.15	0.072711	0.007277
0.00857	303.15	0.089311	0.008938
0.01019	303.15	0.10551	0.01056
0.01178	303.15	0.12101	0.01211
0.01333	303.15	0.13611	0.01362
0.01486	303.15	0.14911	0.01493
0.01636	303.15	0.15681	0.0157
0.01784	303.15	0.16181	0.0162
0.01929	303.15	0.16611	0.01663
0.02071	303.15	0.17011	0.01703
0.02211	303.15	0.17391	0.01741
0.02348	303.15	0.17761	0.01779
0.02483	303.15	0.18131	0.01816
0.02615	303.15	0.18501	0.01853
0.02746	303.15	0.18851	0.01888
0.02874	303.15	0.19191	0.01922
0.03	303.15	0.19531	0.01956
0.00178	313.15	0.023415	0.002343
0.00353	313.15	0.046705	0.004674
0.00524	313.15	0.066805	0.006685
0.00692	313.15	0.087105	0.008716
0.00857	313.15	0.107	0.01071
0.01019	313.15	0.12631	0.01264
0.01178	313.15	0.14531	0.01454
0.01333	313.15	0.16331	0.01634
0.01486	313.15	0.18021	0.01803
0.01636	313.15	0.19321	0.01934
0.01784	313.15	0.20091	0.02011
0.01929	313.15	0.20751	0.02077
0.02071	313.15	0.21311	0.02133
0.02211	313.15	0.21861	0.02188
0.02348	313.15	0.22391	0.02241
0.02483	313.15	0.22861	0.02288
0.02615	313.15	0.23361	0.02339
0.02746	313.15	0.23811	0.02384
0.02874	313.15	0.24261	0.02429
0.03	313.15	0.24671	0.0247
0.00178	323.15	0.028154	0.002817
0.00353	323.15	0.054664	0.005469
0.00524	323.15	0.080164	0.008021
0.00692	323.15	0.10486	0.01049
0.00857	323.15	0.12846	0.01285
0.01019	323.15	0.15156	0.01516
0.01178	323.15	0.17416	0.01743
0.01333	323.15	0.19556	0.01957
0.01486	323.15	0.21626	0.02164
0.01636	323.15	0.23436	0.02345
0.01789	323.15	0.24726	0.02474
0.01929	323.15	0.25776	0.02579
0.02071	323.15	0.26526	0.02655
0.02211	323.15	0.27226	0.02725
0.02348	323.15	0.27896	0.02792
0.02483	323.15	0.28516	0.02854
0.02615	323.15	0.29186	0.02921
0.02746	323.15	0.29736	0.02976
0.02874	323.15	0.30366	0.03039
0.03	323.15	0.30966	0.03099

System: dodecyltrimethylammonium bromide + water; phases: Liquid, Gas
Fixed: Temperature, K = 313.15
Property: Surface tension liquid-gas, N/m (Liquid); method: Ring tensiometer
Molality, mol/kg of dodecyltrimethylammonium bromide	Surface tension liquid-gas, N/m	uncertainty
6e-06	0.0652	0.0027
2.5e-05	0.0636	0.0027
5.6e-05	0.0625	0.0026
0.000135	0.0613	0.0026
0.000263	0.0583	0.0024
0.000739	0.0547	0.0023
0.001308	0.0513	0.0021
0.004064	0.046	0.0019
0.006048	0.0433	0.0018
0.008433	0.0395	0.0017
0.01941	0.0362	0.0015
0.0309	0.0379	0.0016
0.0456	0.0383	0.0016
0.07211	0.0388	0.0016
0.1062	0.0389	0.0016
