Measured thermophysical data. Measurement and Correlation for Solubilities of Succinic Acid and Glutaric Acid in e-Caprolactone + Acetic Acid Mixtures and e-Caprolactone + Cyclohexanone Mixtures
Source: J. Chem. Eng. Data, 2018, 10.1021/acs.jced.7b00660
Compound 1: butanedioic acid, C4H6O4, InChI=1S/C4H6O4/c5-3(6)1-2-4(7)8/h1-2H2,(H,5,6)(H,7,8), purity 99.5%
Compound 2: 1,5-pentanedioic acid, C5H8O4, InChI=1S/C5H8O4/c6-4(7)2-1-3-5(8)9/h1-3H2,(H,6,7)(H,8,9), purity 99%
Compound 3: 6-hexanolactone, C6H10O2, InChI=1S/C6H10O2/c7-6-4-2-1-3-5-8-6/h1-5H2, purity 99%
Compound 4: acetic acid, C2H4O2, InChI=1S/C2H4O2/c1-2(3)4/h1H3,(H,3,4), purity 99.5%
Compound 5: cyclohexanone, C6H10O, InChI=1S/C6H10O/c7-6-4-2-1-3-5-6/h1-5H2, purity 99.5%

System: butanedioic acid + 6-hexanolactone + acetic acid; phases: Liquid, Crystal
Fixed: Pressure, kPa = 101.3
Property: Mole fraction of butanedioic acid (Liquid); method: Phase equilibration
Temperature, K	Solvent: Mass fraction of 6-hexanolactone	Mole fraction of butanedioic acid	uncertainty
298.35	1	0.01552	0.00126
303.15	1	0.01888	0.00153
308.45	1	0.02377	0.00192
313.35	1	0.02934	0.00237
317.75	1	0.03517	0.00284
322.05	1	0.04134	0.00334
327.85	1	0.05051	0.00407
332.15	1	0.05854	0.00472
336.85	1	0.06802	0.00547
340.15	1	0.07509	0.00604
299.95	0.7	0.01491	0.00121
304.75	0.7	0.01788	0.00144
309.65	0.7	0.02144	0.00173
314.45	0.7	0.02609	0.00211
318.95	0.7	0.03114	0.00252
324.05	0.7	0.03737	0.00302
328.85	0.7	0.0443	0.00357
333.75	0.7	0.05222	0.00421
337.45	0.7	0.05841	0.0047
340.15	0.7	0.06345	0.00512
300.05	0.5	0.01371	0.00111
304.75	0.5	0.01641	0.00133
309.95	0.5	0.02	0.00162
314.65	0.5	0.02419	0.00195
318.45	0.5	0.02764	0.00224
323.85	0.5	0.03384	0.00273
327.35	0.5	0.03823	0.00309
331.95	0.5	0.04481	0.00362
336.45	0.5	0.05106	0.00412
340.15	0.5	0.05729	0.00462
299.45	0.3	0.01289	0.00104
304.05	0.3	0.01504	0.00121
309.15	0.3	0.01812	0.00146
314.35	0.3	0.02213	0.00179
318.75	0.3	0.02595	0.00209
323.55	0.3	0.03087	0.00249
329.05	0.3	0.03729	0.003
333.95	0.3	0.04344	0.0035
337.55	0.3	0.04855	0.00391
340.65	0.3	0.0532	0.00428

System: 1,5-pentanedioic acid + 6-hexanolactone + acetic acid; phases: Liquid, Crystal
Fixed: Pressure, kPa = 101.3
Property: Mole fraction of 1,5-pentanedioic acid (Liquid); method: Phase equilibration
Temperature, K	Solvent: Mass fraction of 6-hexanolactone	Mole fraction of 1,5-pentanedioic acid	uncertainty
298.05	1	0.248	0.0199
302.85	1	0.2754	0.0221
308.35	1	0.3123	0.0251
314.15	1	0.3573	0.0287
319.25	1	0.3968	0.0318
323.95	1	0.4376	0.0351
328.25	1	0.4763	0.0382
333.85	1	0.5228	0.0383
337.95	1	0.5551	0.0357
340.65	1	0.5753	0.0341
295.75	0.7	0.2104	0.0169
301.45	0.7	0.2382	0.0191
306.95	0.7	0.2684	0.0216
311.15	0.7	0.2987	0.024
316.35	0.7	0.3347	0.0269
320.85	0.7	0.3714	0.0298
325.25	0.7	0.4121	0.0331
330.45	0.7	0.4542	0.0364
335.15	0.7	0.4928	0.0395
338.95	0.7	0.5234	0.0382
294.45	0.5	0.1926	0.0155
299.95	0.5	0.2163	0.0174
305.15	0.5	0.2415	0.0194
309.95	0.5	0.2709	0.0218
314.25	0.5	0.303	0.0243
319.15	0.5	0.338	0.0271
323.65	0.5	0.3758	0.0302
328.45	0.5	0.4177	0.0335
332.65	0.5	0.4555	0.0365
336.35	0.5	0.4849	0.0389
295.85	0.3	0.1856	0.0149
300.15	0.3	0.206	0.0165
305.05	0.3	0.2288	0.0184
308.85	0.3	0.2517	0.0202
313.95	0.3	0.2895	0.0233
318.45	0.3	0.3226	0.0259
322.15	0.3	0.3516	0.0282
326.45	0.3	0.3916	0.0314
330.15	0.3	0.4265	0.0342
334.55	0.3	0.4606	0.0369
293.35	0.1	0.1694	0.0136
297.75	0.1	0.1844	0.0148
302.35	0.1	0.2047	0.0164
307.65	0.1	0.2366	0.019
313.15	0.1	0.2766	0.0222
318.45	0.1	0.3152	0.0253
323.05	0.1	0.356	0.0286
328.95	0.1	0.4088	0.0328
333.15	0.1	0.4415	0.0354
338.15	0.1	0.4881	0.0391

System: butanedioic acid + 6-hexanolactone + cyclohexanone; phases: Liquid, Crystal
Fixed: Pressure, kPa = 101.3
Property: Mole fraction of butanedioic acid (Liquid); method: Phase equilibration
Temperature, K	Solvent: Mass fraction of 6-hexanolactone	Mole fraction of butanedioic acid	uncertainty
298.35	1	0.01552	0.00126
303.15	1	0.01888	0.00153
308.45	1	0.02377	0.00192
313.35	1	0.02934	0.00237
317.75	1	0.03517	0.00284
322.05	1	0.04134	0.00334
327.85	1	0.05051	0.00407
332.15	1	0.05854	0.00472
336.85	1	0.06802	0.00547
340.15	1	0.07509	0.00604
299.65	0.7	0.0132	0.00107
303.95	0.7	0.01666	0.00135
308.15	0.7	0.0204	0.00166
312.85	0.7	0.02509	0.00203
316.25	0.7	0.02859	0.00231
321.05	0.7	0.03411	0.00275
325.75	0.7	0.0407	0.00329
330.55	0.7	0.04858	0.00392
335.05	0.7	0.05699	0.0046
339.75	0.7	0.06674	0.00537
298.95	0.5	0.01161	0.00096
303.55	0.5	0.01501	0.00122
308.45	0.5	0.01888	0.00153
313.25	0.5	0.0236	0.00191
319.45	0.5	0.02958	0.00239
323.35	0.5	0.03394	0.00274
329.05	0.5	0.04152	0.00335
333.35	0.5	0.04817	0.00389
336.55	0.5	0.0536	0.00433
339.95	0.5	0.05982	0.00483
299.05	0.3	0.01006	0.00083
303.95	0.3	0.01374	0.00112
307.85	0.3	0.01671	0.00136
311.25	0.3	0.01982	0.00161
316.05	0.3	0.02391	0.00193
321.35	0.3	0.02908	0.00235
325.65	0.3	0.03387	0.00273
330.85	0.3	0.03985	0.00321
335.95	0.3	0.04723	0.00381
339.85	0.3	0.05357	0.00432
300.85	0	0.0109	0.00089
305.05	0	0.01379	0.00112
309.55	0	0.01725	0.0014
314.35	0	0.02158	0.00174
319.25	0	0.02467	0.00199
323.65	0	0.02869	0.00231
327.95	0	0.03331	0.00268
333.25	0	0.03829	0.00308
337.85	0	0.04303	0.00346
340.65	0	0.04818	0.00389

System: 1,5-pentanedioic acid + 6-hexanolactone + cyclohexanone; phases: Liquid, Crystal
Fixed: Pressure, kPa = 101.3
Property: Mole fraction of 1,5-pentanedioic acid (Liquid); method: Phase equilibration
Temperature, K	Solvent: Mass fraction of 6-hexanolactone	Mole fraction of 1,5-pentanedioic acid	uncertainty
298.05	1	0.248	0.0199
302.85	1	0.2754	0.0221
308.35	1	0.3123	0.0251
314.15	1	0.3573	0.0287
319.25	1	0.3968	0.0318
323.95	1	0.4376	0.0351
328.25	1	0.4763	0.0382
333.85	1	0.5228	0.0383
337.95	1	0.5551	0.0357
340.65	1	0.5753	0.0341
296.35	0.7	0.2189	0.0176
302.15	0.7	0.2479	0.0199
307.65	0.7	0.2869	0.0231
313.35	0.7	0.3272	0.0263
318.95	0.7	0.3692	0.0296
323.75	0.7	0.4072	0.0327
328.25	0.7	0.4514	0.0362
332.15	0.7	0.4877	0.0391
337.35	0.7	0.5262	0.038
340.45	0.7	0.5526	0.0359
297.15	0.5	0.2009	0.0161
301.95	0.5	0.2274	0.0183
307.65	0.5	0.2628	0.0211
313.05	0.5	0.2977	0.0239
317.55	0.5	0.3301	0.0265
322.15	0.5	0.3662	0.0294
326.25	0.5	0.4074	0.0327
331.15	0.5	0.4493	0.0361
334.35	0.5	0.4794	0.0384
338.95	0.5	0.5149	0.0389
300.25	0	0.1964	0.0158
306.25	0	0.2213	0.0178
310.05	0	0.2448	0.0197
314.55	0	0.2788	0.0224
317.45	0	0.3032	0.0244
321.95	0	0.3438	0.0276
327.05	0	0.3918	0.0315
330.15	0	0.4211	0.0338
334.35	0	0.4601	0.0369
337.65	0	0.4898	0.0393

System: butanedioic acid + 6-hexanolactone; phases: Liquid, Crystal
Fixed: Pressure, kPa = 101.3
Property: Mole fraction of butanedioic acid (Liquid); method: Phase equilibration
Temperature, K	Mole fraction of butanedioic acid	uncertainty
298.35	0.01552	0.00126
303.15	0.01888	0.00153
308.45	0.02377	0.00192
313.35	0.02934	0.00237
317.75	0.03517	0.00284
322.05	0.04134	0.00334
327.85	0.05051	0.00407
332.15	0.05854	0.00472
336.85	0.06802	0.00547
340.15	0.07509	0.00604

System: 1,5-pentanedioic acid + 6-hexanolactone; phases: Liquid, Crystal
Fixed: Pressure, kPa = 101.3
Property: Mole fraction of 1,5-pentanedioic acid (Liquid); method: Phase equilibration
Temperature, K	Mole fraction of 1,5-pentanedioic acid	uncertainty
298.05	0.248	0.0199
302.85	0.2754	0.0221
308.35	0.3123	0.0251
314.15	0.3573	0.0287
319.25	0.3968	0.0318
323.95	0.4376	0.0351
328.25	0.4763	0.0382
333.85	0.5228	0.0383
337.95	0.5551	0.0357
340.65	0.5753	0.0341

System: butanedioic acid + cyclohexanone; phases: Liquid, Crystal
Fixed: Pressure, kPa = 101.3
Property: Mole fraction of butanedioic acid (Liquid); method: Phase equilibration
Temperature, K	Mole fraction of butanedioic acid	uncertainty
300.85	0.0109	0.00089
305.05	0.01379	0.00112
309.55	0.01725	0.0014
314.35	0.02158	0.00174
319.25	0.02467	0.00199
323.65	0.02869	0.00231
327.95	0.03331	0.00268
333.25	0.03829	0.00308
337.85	0.04303	0.00346
340.65	0.04818	0.00389

System: 1,5-pentanedioic acid + cyclohexanone; phases: Liquid, Crystal
Fixed: Pressure, kPa = 101.3
Property: Mole fraction of 1,5-pentanedioic acid (Liquid); method: Phase equilibration
Temperature, K	Mole fraction of 1,5-pentanedioic acid	uncertainty
300.25	0.1964	0.0158
306.25	0.2213	0.0178
310.05	0.2448	0.0197
314.55	0.2788	0.0224
317.45	0.3032	0.0244
321.95	0.3438	0.0276
327.05	0.3918	0.0315
330.15	0.4211	0.0338
334.35	0.4601	0.0369
337.65	0.4898	0.0393
