Measured thermophysical data. Pressure Volume Temperature Property Measurements for trans-1,1,1,3-Tetrafluoro-2-butene [HFO-1354mzy(E)]
Source: J. Chem. Eng. Data, 2017, 10.1021/acs.jced.6b00980
Compound 1: trans-1,1,1,3-tetrafluoro-2-butene, C4H4F4, InChI=1S/C4H4F4/c1-3(5)2-4(6,7)8/h2H,1H3/b3-2+
Compound 2: 2-methylpropane, C4H10, InChI=1S/C4H10/c1-4(2)3/h4H,1-3H3, purity 99.99%

System: trans-1,1,1,3-tetrafluoro-2-butene; phases: Liquid, Gas
Property: Vapor or sublimation pressure, kPa (Liquid); method: Closed cell (Static) method
Temperature, K	Vapor or sublimation pressure, kPa	uncertainty
340	534.7	5.9
350	687.5	6
355	775.7	6
360	871.6	6
365	976.6	6.1
370	1091.4	6.2
375	1215.9	6.2
380	1349.3	6.3
385.001	1495.1	6.4
390	1651.3	6.6
395	1822.3	6.7
400	2004.3	6.9
405	2202.8	7.1
410	2416.9	7.3

System: trans-1,1,1,3-tetrafluoro-2-butene; phases: Liquid
Property: Mass density, kg/m3 (Liquid); method: Buoyancy - hydrostatic balance with magnetic suspension - one sinker
Temperature, K	Pressure, kPa	Mass density, kg/m3	uncertainty
280.08	20045	1225.72	0.47
280.01	15043.5	1216.21	0.47
279.999	10196.2	1206.16	0.47
280	7731.4	1200.74	0.46
279.996	5338.9	1195.28	0.46
279.998	2639.6	1188.7	0.46
280.005	1115.2	1184.83	0.46
300.014	20014.3	1189.09	0.46
299.992	15115.4	1178.53	0.46
300.004	15060.1	1178.07	0.46
300.02	15014.8	1177.8	0.46
300.008	10014.4	1165.87	0.46
300.026	10045.1	1165.54	0.46
300.033	5037.4	1151.58	0.44
300.019	2520	1143.28	0.44
299.998	1030.6	1139.17	0.44
319.993	19400.8	1150.55	0.44
319.982	19307.4	1149.67	0.44
319.97	14999.8	1138.17	0.44
320.016	10000	1123.05	0.43
320.026	5001.8	1105.84	0.43
320.002	2500.7	1096.22	0.41
319.998	1143.6	1090.52	0.41
339.995	19999.3	1112.93	0.43
340.001	18406	1110.33	0.42
340.02	14999	1096.95	0.41
340.01	10000.2	1078.72	0.4
340.01	5001.3	1056.9	0.4
340	2501.2	1044.09	0.39
340	1000.8	1035.51	0.39
360.04	20000.3	1073.4	0.4
360.01	15002	1054.4	0.39
359.99	10000.8	1031.66	0.39
360.02	5206.4	1004.33	0.38
360	2507.6	985.19	0.38
360	1007.8	972.55	0.37
379.99	20000	1032.89	0.38
380.03	15000.8	1009.69	0.38
380.01	9999.8	980.98	0.37
379.99	4973.3	941.74	0.36
380.02	2524	914.6	0.37
400.01	20003.4	992.88	0.37
400	15000.2	964.84	0.36
400	9999.9	928.14	0.36
400.03	5000.8	871.99	0.36
400.01	2513.2	821.92	0.35
420.02	20000.6	948.99	0.36
420	15003.8	914.45	0.35
420	10000.4	866.15	0.34
420	5001.1	774.99	0.34

System: trans-1,1,1,3-tetrafluoro-2-butene; phases: Gas
Property: Mass density, kg/m3 (Gas); method: Buoyancy - hydrostatic balance with magnetic suspension - one sinker
Temperature, K	Pressure, kPa	Mass density, kg/m3	uncertainty
420.001	2465.4	149.28	0.59
419.999	2052	107.15	0.49
419.999	1531.2	70.25	0.36
420	987.2	41.24	0.27
420	898.4	37.05	0.27
420	792.4	32.15	0.27
420.001	716.2	28.75	0.26
410	1480.4	70.85	0.33
410	982.8	42.61	0.3
410	901.7	38.56	0.29
410	799.1	33.61	0.28
410	707	29.3	0.3
410	697.6	28.88	0.3
400	1487.2	75.64	0.41
400	1445	72.66	0.41
400	1400.1	69.57	0.39
400	1299.4	62.94	0.37
400	1200	56.86	0.34
400	991.5	44.84	0.33
390.001	1300.2	66.85	0.41
389.999	1194.5	59.6	0.39
389.999	1099.2	53.49	0.37
390	1031.5	49.35	0.31
390	1019.4	48.64	0.31
390	900.7	41.78	0.33
390	800.9	36.4	0.31
390	699.7	31.19	0.3
390	666.3	29.52	0.29
380	1276.3	69.84	0.46
380	1199.6	63.79	0.43
380	1100.5	56.7	0.4
380	1000.2	49.99	0.38
380	966	47.84	0.37
380	915	44.62	0.35
380	891.6	43.26	0.34
380	799.4	37.92	0.32
380	651.2	29.87	0.31
370	995.5	52.67	0.41
370	931.1	48.17	0.39
370	872.2	44.34	0.37
370	784.5	38.85	0.36
370	712.9	34.57	0.34
370	662.8	31.74	0.32
360	801.7	42.05	0.37
360	699.2	35.48	0.37
360	632.2	31.43	0.35
350	689.2	36.7	0.37
350	612.8	31.77	0.37
350	543.3	27.5	0.36
340	537.3	28.49	0.36
340	503.7	26.41	0.36
340	482.2	25.04	0.37

System: 2-methylpropane; phases: Liquid
Property: Mass density, kg/m3 (Liquid); method: Buoyancy - hydrostatic balance with magnetic suspension - one sinker
Temperature, K	Pressure, kPa	Mass density, kg/m3	uncertainty
293.152	646.8	556.91	0.17

System: 2-methylpropane; phases: Gas
Property: Mass density, kg/m3 (Gas); method: Buoyancy - hydrostatic balance with magnetic suspension - one sinker
Temperature, K	Pressure, kPa	Mass density, kg/m3	uncertainty
340.001	496.3	11.2	0.01
370.001	550.2	11.23	0.01
