Measured thermophysical data. Acetonitrile Dehydration via Extractive Distillation Using Low Transition Temperature Mixtures as Entrainers
Source: J. Chem. Eng. Data, 2018, 10.1021/acs.jced.8b00228
Compound 1: acetonitrile, C2H3N, InChI=1S/C2H3N/c1-2-3/h1H3, purity 99.8%
Compound 2: 2-hydroxyethanoic acid, C2H4O3, InChI=1S/C2H4O3/c3-1-2(4)5/h3H,1H2,(H,4,5), purity 98%
Compound 3: choline chloride, C5H14ClNO, InChI=1S/C5H14NO.ClH/c1-6(2,3)4-5-7;/h7H,4-5H2,1-3H3;1H/q+1;/p-1, purity 98%
Compound 4: water, H2O, InChI=1S/H2O/h1H2, purity 99.8%
Compound 5: propan-2-ol, C3H8O, InChI=1S/C3H8O/c1-3(2)4/h3-4H,1-2H3, purity 99%

System: acetonitrile; phases: Liquid, Gas
Property: Vapor or sublimation pressure, kPa (Liquid); method: Ebulliometric method (Recirculating still)
Temperature, K	Vapor or sublimation pressure, kPa	uncertainty
354.7	101.32	1.03

System: water; phases: Liquid, Gas
Property: Vapor or sublimation pressure, kPa (Liquid); method: Ebulliometric method (Recirculating still)
Temperature, K	Vapor or sublimation pressure, kPa	uncertainty
373	101.32	1.03

System: propan-2-ol; phases: Liquid, Gas
Property: Vapor or sublimation pressure, kPa (Liquid); method: Ebulliometric method (Recirculating still)
Temperature, K	Vapor or sublimation pressure, kPa	uncertainty
355.6	101.32	1.04

System: propan-2-ol + water; phases: Liquid, Gas
Fixed: Pressure, kPa = 101.32
Property: Boiling temperature at pressure P, K (Liquid); method: Ebulliometric method (Recirculating still)
Mole fraction of propan-2-ol	Boiling temperature at pressure P, K	uncertainty
0	373	0.2
0.011	369.2	0.7
0.015	368	0.7
0.022	365.4	0.7
0.027	363.9	0.8
0.032	361.8	0.6
0.046	358.9	0.3
0.076	356.7	0.2
0.119	355.9	0.2
0.135	355.5	0.2
0.26	354.8	0.2
0.369	354	0.2
0.477	353.7	0.2
0.558	353.6	0.2
0.667	353.5	0.2
0.762	353.7	0.2
0.84	353.8	0.2
0.865	354.1	0.2
0.952	354.9	0.2
1	355.6	0.2

System: propan-2-ol + water; phases: Gas, Liquid
Fixed: Pressure, kPa = 101.32
Property: Mole fraction of propan-2-ol (Gas); method: chromatography and titration
Mole fraction of propan-2-ol	Mole fraction of propan-2-ol	uncertainty
0	0	
0.011	0.132	0.025
0.015	0.187	0.023
0.022	0.259	0.02
0.027	0.305	0.019
0.032	0.352	0.014
0.046	0.428	0.009
0.076	0.482	0.008
0.119	0.507	0.008
0.135	0.519	0.008
0.26	0.541	0.008
0.369	0.561	0.007
0.477	0.582	0.007
0.558	0.623	0.006
0.667	0.681	0.006
0.762	0.732	0.005
0.84	0.8	0.004
0.865	0.829	0.004
0.952	0.938	0.003
1	1	

System: 2-hydroxyethanoic acid + choline chloride + water; phases: Liquid, Gas
Fixed: Pressure, kPa = 101.32
Fixed: Solvent: Mole fraction of 2-hydroxyethanoic acid = 0.75
Property: Boiling temperature at pressure P, K (Liquid); method: Ebulliometric method (Recirculating still)
Mole fraction of water	Boiling temperature at pressure P, K	uncertainty
1	373.1	0.2
0.943	373.3	0.2
0.887	373.5	0.2
0.838	373.8	0.2
0.785	374.2	0.2
0.724	374.5	0.2
0.676	374.9	0.2
0.626	375.6	0.2
0.575	376.5	0.2
0.522	377.7	0.2
0.476	379.3	0.2
0.425	381.2	0.2
0.375	383.7	0.3
0.327	386	0.2
0.279	388	0.2

System: 2-hydroxyethanoic acid + choline chloride + acetonitrile; phases: Liquid, Gas
Fixed: Pressure, kPa = 101.32
Fixed: Solvent: Mole fraction of 2-hydroxyethanoic acid = 0.75
Property: Boiling temperature at pressure P, K (Liquid); method: Ebulliometric method (Recirculating still)
Mole fraction of acetonitrile	Boiling temperature at pressure P, K	uncertainty
1	354.7	0.2
0.845	355.5	0.2
0.732	356.7	0.2
0.63	357.4	0.2
0.55	358.3	0.2
0.476	359.4	0.2
0.416	360.7	0.2
0.362	362.1	0.2
0.314	363.7	0.2
0.274	365.2	0.2
0.234	366.8	0.3
0.201	369.9	0.3
0.171	373.2	0.3
0.142	376.5	0.3
