Measured thermophysical data. Solubility Measurement of Lauric, Palmitic, and Stearic Acids in Ethanol, n-Propanol, and 2-Propanol Using Differential Scanning Calorimetry
Source: J. Chem. Eng. Data, 2019, 10.1021/acs.jced.8b01044
Compound 1: dodecanoic acid, C12H24O2, InChI=1S/C12H24O2/c1-2-3-4-5-6-7-8-9-10-11-12(13)14/h2-11H2,1H3,(H,13,14), purity 99%
Compound 2: hexadecanoic acid, C16H32O2, InChI=1S/C16H32O2/c1-2-3-4-5-6-7-8-9-10-11-12-13-14-15-16(17)18/h2-15H2,1H3,(H,17,18), purity 99%
Compound 3: octadecanoic acid, C18H36O2, InChI=1S/C18H36O2/c1-2-3-4-5-6-7-8-9-10-11-12-13-14-15-16-17-18(19)20/h2-17H2,1H3,(H,19,20), purity 99%
Compound 4: ethanol, C2H6O, InChI=1S/C2H6O/c1-2-3/h3H,2H2,1H3, purity 98%
Compound 5: propan-1-ol, C3H8O, InChI=1S/C3H8O/c1-2-3-4/h4H,2-3H2,1H3, purity 98%
Compound 6: propan-2-ol, C3H8O, InChI=1S/C3H8O/c1-3(2)4/h3-4H,1-2H3, purity 98%

System: dodecanoic acid; phases: Crystal, Liquid, Air at 1 atmosphere
Property: Triple point temperature, K (Crystal); method: DSC
Triple point temperature, K	uncertainty
317.71	0.93

System: dodecanoic acid; phases: Crystal, Liquid, Air at 1 atmosphere
Property: Molar enthalpy of transition or fusion, kJ/mol (Crystal); method: DSC
Molar enthalpy of transition or fusion, kJ/mol	uncertainty
35.7286756736	2.503972

System: hexadecanoic acid; phases: Crystal, Liquid, Air at 1 atmosphere
Property: Triple point temperature, K (Crystal); method: DSC
Triple point temperature, K	uncertainty
336.13	0.93

System: hexadecanoic acid; phases: Crystal, Liquid, Air at 1 atmosphere
Property: Molar enthalpy of transition or fusion, kJ/mol (Crystal); method: DSC
Molar enthalpy of transition or fusion, kJ/mol	uncertainty
50.6258061144	3.2258149264

System: octadecanoic acid; phases: Crystal, Liquid, Air at 1 atmosphere
Property: Triple point temperature, K (Crystal); method: DSC
Triple point temperature, K	uncertainty
344.08	0.93

System: octadecanoic acid; phases: Crystal, Liquid, Air at 1 atmosphere
Property: Molar enthalpy of transition or fusion, kJ/mol (Crystal); method: DSC
Molar enthalpy of transition or fusion, kJ/mol	uncertainty
60.8240786844	3.6014818584

System: dodecanoic acid + propan-2-ol; phases: Liquid, Crystal
Fixed: Pressure, kPa = 100
Property: Solid-liquid equilibrium temperature, K (Liquid); method: DTA
Mole fraction of dodecanoic acid	Solid-liquid equilibrium temperature, K	uncertainty
0.0797	276.14	1.5
0.1636	286.46	1.23
0.2837	295.65	0.96
0.4104	301.55	0.84
0.5171	305.93	0.79
0.5975	307.86	0.76
0.7108	311.34	0.77
0.7779	313.27	0.75
0.889	316.02	0.73
1	317.71	0.7

System: dodecanoic acid + propan-1-ol; phases: Liquid, Crystal
Fixed: Pressure, kPa = 100
Property: Solid-liquid equilibrium temperature, K (Liquid); method: DTA
Mole fraction of dodecanoic acid	Solid-liquid equilibrium temperature, K	uncertainty
0.1299	284.96	1.19
0.2256	293.48	1.05
0.3172	298.68	0.88
0.407	302.61	0.82
0.5276	306.97	0.78
0.5973	308.84	0.75
0.695	311.2	0.75
0.7492	312.65	0.75
0.8724	315.61	0.73
1	317.71	0.7

System: dodecanoic acid + ethanol; phases: Liquid, Crystal
Fixed: Pressure, kPa = 100
Property: Solid-liquid equilibrium temperature, K (Liquid); method: DTA
Mole fraction of dodecanoic acid	Solid-liquid equilibrium temperature, K	uncertainty
0.0623	277.62	1.83
0.1304	288.32	1.31
0.2329	295.59	0.94
0.3479	301.05	0.86
0.4509	305.7	0.81
0.5318	308.05	0.75
0.6814	311.55	0.74
0.7288	312.8	0.74
0.86	315.92	0.72
1	317.71	0.7

System: hexadecanoic acid + propan-2-ol; phases: Liquid, Crystal
Fixed: Pressure, kPa = 100
Property: Solid-liquid equilibrium temperature, K (Liquid); method: DTA
Mole fraction of hexadecanoic acid	Solid-liquid equilibrium temperature, K	uncertainty
0.089	305.41	1.08
0.2117	314.74	0.97
0.3146	319.42	0.84
0.3782	322.04	0.84
0.4904	327.15	0.8
0.5673	328.87	0.72
0.6796	330.71	0.71
0.7898	331.76	0.73
0.8744	334.48	0.73
1	336.13	0.7

System: hexadecanoic acid + propan-1-ol; phases: Liquid, Crystal
Fixed: Pressure, kPa = 100
Property: Solid-liquid equilibrium temperature, K (Liquid); method: DTA
Mole fraction of hexadecanoic acid	Solid-liquid equilibrium temperature, K	uncertainty
0.089	306.51	1.1
0.2117	316.21	0.99
0.3145	320.95	0.83
0.3782	323.24	0.78
0.4903	326.67	0.76
0.5675	328.41	0.74
0.6796	331.2	0.74
0.79	333.55	0.73
0.8744	334.95	0.71
1	336.13	0.7

System: hexadecanoic acid + ethanol; phases: Liquid, Crystal
Fixed: Pressure, kPa = 100
Property: Solid-liquid equilibrium temperature, K (Liquid); method: DTA
Mole fraction of hexadecanoic acid	Solid-liquid equilibrium temperature, K	uncertainty
0.0682	307.27	1.28
0.1133	311.76	1.06
0.2034	317.46	0.91
0.2844	320.97	0.82
0.3657	324.04	0.77
0.5824	330.06	0.74
0.7899	334.39	0.72
0.8628	334.98	0.71
0.9031	335.59	0.7
1	336.13	0.7

System: octadecanoic acid + propan-2-ol; phases: Liquid, Crystal
Fixed: Pressure, kPa = 100
Property: Solid-liquid equilibrium temperature, K (Liquid); method: DTA
Mole fraction of octadecanoic acid	Solid-liquid equilibrium temperature, K	uncertainty
0.1	315.69	1.04
0.2001	322.81	0.95
0.3017	327.67	0.85
0.4001	331.9	0.8
0.5	334.82	0.75
0.6	337	0.73
0.7001	339.14	0.73
0.8	340.75	0.72
0.9001	342.82	0.72
1	344.08	0.7

System: octadecanoic acid + ethanol; phases: Liquid, Crystal
Fixed: Pressure, kPa = 100
Property: Solid-liquid equilibrium temperature, K (Liquid); method: DTA
Mole fraction of octadecanoic acid	Solid-liquid equilibrium temperature, K	uncertainty
0.1	320.28	0.94
0.2	326.15	0.88
0.3	330.09	0.77
0.4001	332.33	0.76
0.5006	335.58	0.75
0.5999	337.51	0.72
0.7	339.08	0.72
0.8	340.69	0.72
0.9	342.27	0.72
1	344.08	0.7
