Measured thermophysical data. Vapor-Liquid Equilibria of Binary Systems with Long-Chain Organic Compounds (Fatty Alcohol, Fatty Ester, Acylglycerol, and n-Paraffin) at Subatmospheric Pressures
Source: J. Chem. Eng. Data, 2018, 10.1021/acs.jced.8b00168
Compound 1: octacosane, C28H58, InChI=1S/C28H58/c1-3-5-7-9-11-13-15-17-19-21-23-25-27-28-26-24-22-20-18-16-14-12-10-8-6-4-2/h3-28H2,1-2H3, purity 99%
Compound 2: 2,3-dihydroxypropyl nonanoate, C12H24O4, InChI=1S/C12H24O4/c1-2-3-4-5-6-7-8-12(15)16-10-11(14)9-13/h11,13-14H,2-10H2,1H3, purity 99%
Compound 3: dinonanoin, C21H40O5, InChI=1S/C21H40O5/c1-3-5-7-9-11-13-15-20(23)25-18-19(17-22)26-21(24)16-14-12-10-8-6-4-2/h19,22H,3-18H2,1-2H3, purity 99%
Compound 4: 1,2,3-propanetriyl tributanoate, C15H26O6, InChI=1S/C15H26O6/c1-4-7-13(16)19-10-12(21-15(18)9-6-3)11-20-14(17)8-5-2/h12H,4-11H2,1-3H3, purity 99%
Compound 5: methyl tetradecanoate, C15H30O2, InChI=1S/C15H30O2/c1-3-4-5-6-7-8-9-10-11-12-13-14-15(16)17-2/h3-14H2,1-2H3, purity 99%
Compound 6: 1-hexadecanol, C16H34O, InChI=1S/C16H34O/c1-2-3-4-5-6-7-8-9-10-11-12-13-14-15-16-17/h17H,2-16H2,1H3, purity 99%
Compound 7: 1-octadecanol, C18H38O, InChI=1S/C18H38O/c1-2-3-4-5-6-7-8-9-10-11-12-13-14-15-16-17-18-19/h19H,2-18H2,1H3, purity 99%

System: octacosane; phases: Liquid, Gas
Property: Vapor or sublimation pressure, kPa (Liquid); method: DSC
Temperature, K	Vapor or sublimation pressure, kPa	uncertainty
550.62	1.7	0.17

System: 2,3-dihydroxypropyl nonanoate; phases: Liquid, Gas
Property: Vapor or sublimation pressure, kPa (Liquid); method: DSC
Temperature, K	Vapor or sublimation pressure, kPa	uncertainty
478.88	1.69	0.19

System: dinonanoin; phases: Liquid, Gas
Property: Boiling temperature at pressure P, K (Liquid); method: DSC
Pressure, kPa	Boiling temperature at pressure P, K	uncertainty
0.54	504.22	2.37
1.42	526.2	3.1
1.74	531.55	2.4
2.14	537.01	2.65
2.63	543.12	2.77

System: dinonanoin; phases: Liquid, Gas
Property: Vapor or sublimation pressure, kPa (Liquid); method: DSC
Temperature, K	Vapor or sublimation pressure, kPa	uncertainty
532.03	1.7	0.19

System: 1,2,3-propanetriyl tributanoate; phases: Liquid, Gas
Property: Vapor or sublimation pressure, kPa (Liquid); method: DSC
Temperature, K	Vapor or sublimation pressure, kPa	uncertainty
459.56	1.69	0.19

System: methyl tetradecanoate; phases: Liquid, Gas
Property: Vapor or sublimation pressure, kPa (Liquid); method: DSC
Temperature, K	Vapor or sublimation pressure, kPa	uncertainty
437.72	1.72	0.19

System: 1-hexadecanol; phases: Liquid, Gas
Fixed: Temperature, K = 462.29
Property: Vapor or sublimation pressure, kPa (Liquid); method: DSC
Vapor or sublimation pressure, kPa	uncertainty
1.73	0.17
1.72	0.17

System: 1-octadecanol; phases: Liquid, Gas
Property: Vapor or sublimation pressure, kPa (Liquid); method: DSC
Temperature, K	Vapor or sublimation pressure, kPa	uncertainty
483.46	1.73	0.19

System: 1-hexadecanol + 1-octadecanol; phases: Liquid, Gas
Fixed: Pressure, kPa = 1.73
Property: Boiling temperature at pressure P, K (Liquid); method: DSC
Mole fraction of 1-hexadecanol	Boiling temperature at pressure P, K	uncertainty
1	462.29	2
0.8997	462.6	1.9
0.8026	464.37	1.8
0.7016	466.09	1.79
0.6084	467.19	1.98
0.5008	469.18	2.05
0.4011	471.43	2.07
0.3003	475.27	2.27
0.2017	478.24	2.94
0.0932	480.93	1.93
0	483.46	2.14

System: methyl tetradecanoate + 1-hexadecanol; phases: Liquid, Gas
Fixed: Pressure, kPa = 1.72
Property: Boiling temperature at pressure P, K (Liquid); method: DSC
Mole fraction of methyl tetradecanoate	Boiling temperature at pressure P, K	uncertainty
1	437.72	2.18
0.9014	439.44	2.17
0.8	440.4	1.88
0.7005	442.09	1.8
0.6001	443.46	1.91
0.5032	445.99	1.8
0.3979	450.59	2.16
0.3049	453.64	1.74
0.198	457.41	2.25
0.1017	460.26	1.9
0	462.29	2

System: 1,2,3-propanetriyl tributanoate + 2,3-dihydroxypropyl nonanoate; phases: Liquid, Gas
Fixed: Pressure, kPa = 1.69
Property: Boiling temperature at pressure P, K (Liquid); method: DSC
Mole fraction of 1,2,3-propanetriyl tributanoate	Boiling temperature at pressure P, K	uncertainty
1	459.56	2.27
0.902	461.71	2.11
0.8058	462.19	2.01
0.7035	463.05	2.17
0.6087	462.93	1.94
0.5066	464.52	1.95
0.4001	466.19	1.87
0.3107	467.45	2.03
0.2041	471.09	1.75
0.0999	475.43	2.04
0	478.88	2.27

System: dinonanoin + octacosane; phases: Liquid, Gas
Fixed: Pressure, kPa = 1.7
Property: Boiling temperature at pressure P, K (Liquid); method: DSC
Mole fraction of dinonanoin	Boiling temperature at pressure P, K	uncertainty
1	532.03	2.19
0.8944	532.3	1.79
0.7889	532.4	1.75
0.6824	532.18	2.28
0.5973	531.96	1.79
0.5006	532.08	1.71
0.4068	533.08	1.92
0.2974	536.05	1.86
0.2024	541.31	1.91
0.0984	545.15	2.25
0	550.62	2.02
