Measured thermophysical data. Liquid Density of n-Pentene, n-Hexene, and n-Heptene at Temperatures from 283.15 to 363.15 K and Pressures up to 100 MPa
Source: J. Chem. Eng. Data, 2018, 10.1021/acs.jced.8b00229
Compound 1: 1,1,1,2-tetrafluoroethane, C2H2F4, InChI=1S/C2H2F4/c3-1-2(4,5)6/h1H2, purity 99.9%
Compound 2: 1-pentene, C5H10, InChI=1S/C5H10/c1-3-5-4-2/h3H,1,4-5H2,2H3, purity 98%
Compound 3: hex-1-ene, C6H12, InChI=1S/C6H12/c1-3-5-6-4-2/h3H,1,4-6H2,2H3, purity 99%
Compound 4: 1-heptene, C7H14, InChI=1S/C7H14/c1-3-5-7-6-4-2/h3H,1,4-7H2,2H3, purity 99%

System: 1,1,1,2-tetrafluoroethane; phases: Liquid
Property: Mass density, kg/m3 (Liquid); method: Vibrating tube method
Temperature, K	Pressure, kPa	Mass density, kg/m3	uncertainty
283.57	5000	1279.4	2
283.57	10000	1297.9	2
283.56	20000	1328.7	2
283.55	40000	1376.3	2.1
283.55	60000	1413.1	2.3
283.55	80000	1443.2	2.5
303.39	1000	1188.5	2
303.39	5000	1212.5	2
303.39	10000	1237	2
303.39	20000	1275.9	2
303.39	40000	1332.1	2.1
303.4	60000	1373.9	2.2
303.39	80000	1407.4	2.4
322.89	3000	1120.9	2.1
322.91	5000	1137.8	2.1
322.91	10000	1172	2
322.93	20000	1221.5	2
322.93	40000	1288.4	2.1
322.93	60000	1335.8	2.2
322.94	80000	1372.8	2.4
342.75	3000	1017.4	2.2
342.75	5000	1047.5	2.1
342.76	10000	1098.8	2.1
342.77	20000	1164.1	2
342.77	40000	1243.6	2.1
342.78	60000	1297.3	2.1
342.78	80000	1338.2	2.3
362.57	5000	924.9	2.3
362.57	10000	1015.4	2.1
362.58	20000	1103.4	2
362.59	40000	1198.4	2.1
362.59	60000	1258.8	2.1
362.59	80000	1303.8	2.3

System: 1-pentene; phases: Liquid
Property: Mass density, kg/m3 (Liquid); method: Vibrating tube method
Temperature, K	Pressure, kPa	Mass density, kg/m3	uncertainty
283.48	100	650.3	2.1
283.48	500	650.8	2.1
283.48	1000	651.6	2.1
283.48	3000	654	2.1
283.49	5000	656.3	2.1
283.49	10000	661.8	2.1
283.49	15000	666.9	2.1
283.49	20000	671.7	2.1
283.49	25000	676.2	2.1
283.49	30000	680.4	2.2
283.49	35000	684.5	2.2
283.49	40000	688.4	2.2
283.49	45000	692.1	2.2
283.49	50000	695.7	2.3
283.49	55000	699.1	2.3
283.49	60000	702.5	2.3
283.48	70000	708.8	2.3
283.48	80000	714.8	2.4
283.49	90000	720.4	2.4
283.49	100000	725.7	2.5
293.42	100	640.1	2.1
293.42	500	640.7	2.1
293.42	1000	641.4	2.1
293.42	3000	644	2.1
293.42	5000	646.5	2.1
293.42	10000	652.4	2.1
293.43	15000	657.9	2.1
293.43	20000	663	2.1
293.43	25000	667.8	2.1
293.44	30000	672.3	2.2
293.43	35000	676.7	2.2
293.42	40000	680.8	2.2
293.43	45000	684.7	2.2
293.43	50000	688.4	2.3
293.42	55000	692	2.3
293.42	60000	695.5	2.3
293.42	70000	702.2	2.4
293.42	80000	708.3	2.4
293.42	90000	714.1	2.5
293.42	100000	719.6	2.5
303.33	100	629.8	2.1
303.33	1000	631.1	2.1
303.33	3000	634	2.1
303.34	5000	636.7	2.1
303.34	10000	643.1	2.1
303.34	15000	649	2.1
303.34	20000	654.5	2.1
303.34	25000	659.6	2.1
303.34	30000	664.4	2.2
303.33	35000	668.9	2.2
303.34	40000	673.2	2.2
303.34	45000	677.3	2.2
303.34	50000	681.2	2.3
303.35	55000	685	2.3
303.35	60000	688.6	2.3
303.35	70000	695.6	2.4
303.34	80000	702	2.4
303.34	90000	707.9	2.5
303.35	100000	713.6	2.5
313.27	500	620.4	2.1
313.28	1000	621.3	2.1
313.27	3000	624.5	2.1
313.27	5000	627.5	2.1
313.27	10000	634.4	2.1
313.28	15000	640.8	2.1
313.28	20000	646.7	2.1
313.28	25000	652.1	2.1
313.28	30000	657.2	2.2
313.29	35000	661.9	2.2
313.29	40000	666.6	2.2
313.28	45000	670.8	2.2
313.28	50000	674.9	2.3
313.29	55000	678.8	2.3
313.29	60000	682.6	2.3
313.28	70000	689.9	2.4
313.29	80000	696.4	2.4
313.29	90000	702.6	2.5
313.29	100000	708.4	2.5
323.18	500	608.6	2.1
323.18	1000	609.3	2.1
323.18	3000	612.8	2.1
323.18	5000	616.1	2.1
323.19	10000	623.7	2.1
323.19	15000	630.6	2.1
323.19	20000	636.9	2.1
323.19	25000	642.7	2.1
323.19	30000	648.1	2.2
323.19	35000	653.1	2.2
323.19	40000	657.9	2.2
323.19	45000	662.4	2.2
323.19	50000	666.7	2.3
323.19	55000	670.8	2.3
323.19	60000	674.7	2.3
323.19	70000	682.2	2.4
323.19	80000	689.1	2.4
323.19	90000	695.4	2.5
323.19	100000	701.5	2.5
333.04	500	597.2	2.1
333.04	1000	598.1	2.1
333.04	3000	601.9	2.1
333.04	5000	605.6	2.1
333.04	10000	613.9	2.1
333.05	15000	621.4	2.1
333.05	20000	628.1	2.1
333.05	25000	634.3	2.1
333.05	30000	640	2.2
333.05	35000	645.3	2.2
333.05	40000	650.4	2.2
333.05	45000	655.1	2.2
333.05	50000	659.6	2.3
333.05	55000	663.9	2.3
333.05	60000	668	2.3
333.05	70000	675.8	2.4
333.06	80000	683	2.4
333.06	90000	689.6	2.5
333.05	100000	695.8	2.5
342.94	500	585.8	2.1
342.94	1000	586.8	2.1
342.95	3000	591.2	2.1
342.95	5000	595.3	2.1
342.95	10000	604.4	2.1
342.96	15000	612.5	2.1
342.96	20000	619.8	2.1
342.96	25000	626.3	2.1
342.96	30000	632.4	2.2
342.96	35000	638.1	2.2
342.96	40000	643.4	2.2
342.96	45000	648.4	2.2
342.96	50000	653	2.3
342.96	55000	657.5	2.3
342.96	60000	661.8	2.3
342.95	70000	669.9	2.4
342.95	80000	677.2	2.4
342.94	90000	684	2.5
342.95	100000	690.4	2.6
352.82	500	574.2	2.1
352.82	1000	575.6	2.1
352.82	3000	580.5	2.1
352.82	5000	585.1	2.1
352.82	10000	595.2	2.1
352.83	15000	603.9	2.1
352.83	20000	611.7	2.1
352.83	25000	618.7	2.1
352.83	30000	625.2	2.2
352.83	35000	631.2	2.2
352.83	40000	636.7	2.2
352.83	45000	641.9	2.3
352.83	50000	646.9	2.3
352.83	55000	651.5	2.3
352.84	60000	655.9	2.3
352.83	70000	664.3	2.4
352.83	80000	671.9	2.4
352.83	90000	679	2.5
352.83	100000	685.6	2.6
362.67	500	560.5	2.1
362.67	1000	561.8	2.1
362.67	3000	567.4	2.1
362.68	5000	572.6	2.1
362.68	10000	583.8	2.1
362.68	15000	593.3	2.1
362.68	20000	601.7	2.1
362.68	25000	609.2	2.2
362.68	30000	616.1	2.2
362.68	35000	622.4	2.2
362.68	40000	628.2	2.2
362.68	45000	633.7	2.3
362.68	50000	638.9	2.3
362.68	55000	643.7	2.3
362.68	60000	648.3	2.3
362.68	70000	657.1	2.4
362.67	80000	664.9	2.5
362.68	90000	672.2	2.5
362.67	100000	679	2.6

System: hex-1-ene; phases: Liquid
Property: Mass density, kg/m3 (Liquid); method: Vibrating tube method
Temperature, K	Pressure, kPa	Mass density, kg/m3	uncertainty
283.59	100	682.2	2
283.58	500	682.3	2
283.57	1000	683.2	2
283.57	3000	685.2	2
283.57	5000	687.2	2
283.57	10000	691.9	2
283.57	15000	696.4	2
283.57	20000	700.6	2
283.57	25000	704.7	2.1
283.57	30000	708.5	2.1
283.57	35000	712.4	2.1
283.58	40000	714.7	2.1
283.57	45000	719.4	2.1
283.58	50000	722.4	2.1
283.58	55000	725.5	2.1
283.58	60000	728.6	2.2
283.58	70000	734.4	2.2
283.58	80000	739.9	2.2
283.59	90000	745.2	2.3
283.59	100000	750.1	2.3
293.51	100	673.1	2
293.51	500	673.5	2
293.5	1000	674.1	2
293.51	3000	676.3	2
293.51	5000	678.4	2
293.51	10000	683.5	2
293.52	15000	688.3	2
293.51	20000	692.8	2
293.51	25000	697	2.1
293.51	30000	701.1	2.1
293.51	35000	704.9	2.1
293.52	40000	708.6	2.1
293.52	45000	712.5	2.1
293.52	50000	715.6	2.1
293.51	55000	718.9	2.1
293.51	60000	722.1	2.2
293.51	70000	728.2	2.2
293.51	80000	733.8	2.2
293.51	90000	739.3	2.3
293.51	100000	744.4	2.3
303.41	100	663.5	2
303.4	500	664.1	2
303.4	1000	664.6	2
303.41	3000	667	2
303.41	5000	669.3	2
303.41	10000	674.8	2
303.41	15000	679.9	2
303.41	20000	684.7	2.1
303.41	25000	689.2	2.1
303.42	30000	693.5	2.1
303.42	35000	698.2	2.1
303.42	40000	701.5	2.1
303.42	45000	705.8	2.1
303.42	50000	708.8	2.1
303.42	55000	712.8	2.1
303.42	60000	715.5	2.2
303.42	70000	721.8	2.2
303.42	80000	727.7	2.2
303.42	90000	733.2	2.3
303.42	100000	738.5	2.3
313.34	100	654.1	2
313.35	500	654.2	2
313.35	1000	655.3	2
313.35	3000	657.9	2
313.35	5000	660.3	2
313.35	10000	666.1	2
313.35	15000	671.6	2
313.34	20000	676.6	2.1
313.35	25000	681.4	2.1
313.35	30000	685.9	2.1
313.35	35000	690.2	2.1
313.35	40000	694.3	2.1
313.35	45000	698.3	2.1
313.35	50000	701.9	2.1
313.35	55000	705.7	2.2
313.35	60000	709	2.2
313.36	70000	715.9	2.2
313.35	80000	721.9	2.2
313.35	90000	727.6	2.3
313.35	100000	733.2	2.3
323.18	100	644.5	2
323.19	500	644.9	2
323.19	1000	645.8	2
323.19	3000	648.6	2
323.19	5000	651.3	2
323.19	10000	657.6	2
323.2	15000	663.4	2
323.2	20000	668.8	2.1
323.21	25000	673.8	2.1
323.2	30000	678.6	2.1
323.2	35000	683.4	2.1
323.2	40000	687.3	2.1
323.21	45000	691.8	2.1
323.19	50000	695.2	2.1
323.19	55000	699.3	2.2
323.18	60000	702.5	2.2
323.2	70000	709.4	2.2
323.2	80000	715.7	2.3
323.2	90000	721.6	2.3
323.2	100000	727.2	2.3
333.08	500	635.3	2
333.08	1000	636	2
333.08	3000	639.1	2
333.08	5000	642	2
333.08	10000	648.8	2
333.09	15000	655	2
333.09	20000	660.8	2.1
333.09	25000	666.1	2.1
333.09	30000	671.1	2.1
333.09	35000	676.4	2.1
333.09	40000	680.2	2.1
333.09	45000	685.1	2.1
333.09	50000	688.5	2.1
333.09	55000	693	2.2
333.09	60000	696.1	2.2
333.09	70000	703.3	2.2
333.09	80000	709.8	2.3
333.09	90000	715.9	2.3
333.09	100000	721.7	2.3
342.96	500	625.6	2
342.96	1000	626.4	2
342.97	3000	629.8	2
342.97	5000	633	2
342.97	10000	640.3	2
342.97	15000	647	2
342.97	20000	653.2	2.1
342.97	25000	658.8	2.1
342.97	30000	664.1	2.1
342.97	35000	669.6	2.1
342.97	40000	673.8	2.1
342.97	45000	678.8	2.1
342.97	50000	682.3	2.2
342.97	55000	687	2.2
342.97	60000	690.4	2.2
342.97	70000	697.6	2.2
342.97	80000	704.3	2.3
342.97	90000	710.7	2.3
342.97	100000	716.6	2.3
352.85	500	615.7	2
352.85	1000	617	2
352.85	3000	620.7	2
352.85	5000	624.2	2
352.86	10000	632.2	2
352.85	15000	639.4	2
352.86	20000	645.7	2.1
352.86	25000	651.7	2.1
352.86	30000	657.4	2.1
352.86	35000	662.8	2.1
352.86	40000	667.4	2.1
352.86	45000	672.4	2.1
352.86	50000	676.6	2.2
352.86	55000	680.9	2.2
352.86	60000	684.8	2.2
352.86	70000	692.4	2.2
352.86	80000	699.4	2.3
352.86	90000	705.9	2.3
352.86	100000	712	2.4
362.7	500	604.1	2
362.7	1000	605.5	2
362.71	3000	609.5	2
362.71	5000	613.3	2
362.71	10000	622	2
362.71	15000	629.7	2
362.71	20000	636.7	2.1
362.71	25000	643	2.1
362.71	30000	648.9	2.1
362.71	35000	654.7	2.1
362.71	40000	659.6	2.1
362.71	45000	664.8	2.1
362.71	50000	669	2.2
362.71	55000	673.7	2.2
362.71	60000	677.6	2.2
362.71	70000	685.4	2.2
362.71	80000	692.6	2.3
362.71	90000	699.3	2.3
362.7	100000	705.7	2.4

System: 1-heptene; phases: Liquid
Property: Mass density, kg/m3 (Liquid); method: Vibrating tube method
Temperature, K	Pressure, kPa	Mass density, kg/m3	uncertainty
283.53	100	705.5	2
283.53	500	705.9	2
283.53	1000	706.4	2
283.53	3000	708.2	2
283.53	5000	710	2
283.53	10000	714.3	2
283.52	15000	718.3	2
283.52	20000	722.2	2
283.52	25000	725.9	2.1
283.52	30000	729.4	2.1
283.52	35000	732.9	2.1
283.52	40000	736.1	2.1
283.53	45000	739.3	2.1
283.53	50000	742.4	2.1
283.52	55000	745.3	2.1
283.53	60000	748.2	2.1
283.54	70000	753.8	2.2
283.53	80000	759	2.2
283.53	90000	763.9	2.2
283.54	100000	768.7	2.3
293.45	100	697	2
293.45	500	697.4	2
293.45	1000	697.9	2
293.46	3000	699.9	2
293.45	5000	701.8	2
293.46	10000	706.4	2
293.46	15000	710.7	2
293.45	20000	714.8	2
293.45	25000	718.7	2.1
293.45	30000	722.4	2.1
293.45	35000	726	2.1
293.46	40000	729.4	2.1
293.46	45000	732.8	2.1
293.46	50000	736	2.1
293.45	55000	739	2.1
293.45	60000	742	2.1
293.45	70000	747.8	2.2
293.45	80000	753.2	2.2
293.45	90000	758.3	2.2
293.45	100000	763.1	2.3
303.37	100	688.4	2
303.37	500	688.9	2
303.38	1000	689.5	2
303.38	3000	691.6	2
303.38	5000	693.6	2
303.38	10000	698.5	2
303.38	15000	703.1	2
303.38	20000	707.4	2
303.38	25000	711.5	2.1
303.38	30000	715.4	2.1
303.38	35000	719.2	2.1
303.38	40000	722.8	2.1
303.38	45000	726.2	2.1
303.38	50000	729.5	2.1
303.37	55000	732.8	2.1
303.38	60000	735.9	2.1
303.38	70000	741.8	2.2
303.38	80000	747.4	2.2
303.38	90000	752.6	2.2
303.37	100000	757.7	2.3
313.29	100	680.6	2
313.3	500	681.1	2
313.31	1000	681.8	2
313.31	3000	684	2
313.3	5000	686.2	2
313.31	10000	691.3	2
313.31	15000	696.3	2
313.3	20000	700.9	2
313.3	25000	705.2	2.1
313.3	30000	709.3	2.1
313.3	35000	713.3	2.1
313.3	40000	717	2.1
313.3	45000	720.6	2.1
313.3	50000	724	2.1
313.3	55000	727.4	2.1
313.3	60000	730.6	2.2
313.3	70000	736.8	2.2
313.3	80000	742.6	2.2
313.3	90000	748	2.2
313.3	100000	753.1	2.3
323.18	100	670.5	2
323.18	500	671	2
323.18	1000	671.6	2
323.18	3000	674.1	2
323.19	5000	676.4	2
323.18	10000	682	2
323.19	15000	687.1	2
323.19	20000	692	2
323.18	25000	696.6	2.1
323.18	30000	700.9	2.1
323.18	35000	705	2.1
323.18	40000	708.9	2.1
323.18	45000	712.7	2.1
323.18	50000	716.3	2.1
323.18	55000	719.7	2.1
323.18	60000	723.1	2.2
323.18	70000	729.6	2.2
323.18	80000	735.5	2.2
323.19	90000	741.1	2.3
323.19	100000	746.4	2.3
333.04	100	661.5	2
333.04	500	662	2
333.04	1000	662.7	2
333.05	3000	665.3	2
333.05	5000	667.9	2
333.05	10000	673.8	2
333.05	15000	679.3	2
333.05	20000	684.5	2.1
333.05	25000	689.3	2.1
333.05	30000	693.8	2.1
333.05	35000	698.1	2.1
333.05	40000	702.2	2.1
333.05	45000	706.2	2.1
333.05	50000	709.9	2.1
333.05	55000	713.5	2.1
333.05	60000	717	2.2
333.05	70000	723.7	2.2
333.05	80000	729.9	2.2
333.05	90000	735.7	2.3
333.05	100000	741.1	2.3
342.91	100	652.7	2
342.91	500	653.3	2
342.91	1000	654	2
342.91	3000	656.9	2
342.92	5000	659.6	2
342.92	10000	666	2
342.91	15000	671.8	2
342.92	20000	677.4	2.1
342.92	25000	682.4	2.1
342.91	30000	687.1	2.1
342.91	35000	691.7	2.1
342.92	40000	696	2.1
342.92	45000	700.1	2.1
342.92	50000	703.9	2.1
342.92	55000	707.7	2.2
342.92	60000	711.3	2.2
342.92	70000	718.3	2.2
342.92	80000	724.6	2.2
342.92	90000	730.6	2.3
342.92	100000	736.2	2.3
352.8	100	644.3	2
352.8	500	644.9	2
352.81	1000	645.7	2
352.81	3000	648.8	2
352.81	5000	651.6	2
352.81	10000	658.4	2
352.81	15000	664.7	2
352.81	20000	670.5	2.1
352.81	25000	675.8	2.1
352.81	30000	680.9	2.1
352.81	35000	685.6	2.1
352.8	40000	690	2.1
352.8	45000	694.3	2.1
352.8	50000	698.4	2.1
352.81	55000	702.3	2.2
352.81	60000	706	2.2
352.8	70000	713.2	2.2
352.8	80000	719.7	2.2
352.8	90000	725.9	2.3
352.8	100000	731.7	2.3
362.68	100	633.6	2
362.68	500	634.3	2
362.69	1000	635	2
362.69	3000	638.5	2
362.69	5000	641.7	2
362.7	10000	649.1	2
362.7	15000	655.8	2
362.69	20000	661.9	2.1
362.7	25000	667.6	2.1
362.69	30000	672.8	2.1
362.69	35000	677.8	2.1
362.69	40000	682.5	2.1
362.69	45000	687	2.1
362.69	50000	691.2	2.1
362.69	55000	695.2	2.2
362.69	60000	699.1	2.2
362.69	70000	706.6	2.2
362.69	80000	713.4	2.3
362.69	90000	719.7	2.3
362.68	100000	725.7	2.3
