Measured thermophysical data. Densities and Viscosities for Binary Liquid Mixtures of n-Undecane + 1-Heptanol, 1-Octanol, 1-Nonanol, and 1-Decanol from 283.15 to 363.15 K at 0.1 MPa
Source: J. Chem. Eng. Data, 2017, 10.1021/acs.jced.6b00834
Compound 1: undecane, C11H24, InChI=1S/C11H24/c1-3-5-7-9-11-10-8-6-4-2/h3-11H2,1-2H3, purity 99.4%
Compound 2: heptan-1-ol, C7H16O, InChI=1S/C7H16O/c1-2-3-4-5-6-7-8/h8H,2-7H2,1H3, purity 99.98%
Compound 3: octan-1-ol, C8H18O, InChI=1S/C8H18O/c1-2-3-4-5-6-7-8-9/h9H,2-8H2,1H3, purity 99.54%
Compound 4: nonan-1-ol, C9H20O, InChI=1S/C9H20O/c1-2-3-4-5-6-7-8-9-10/h10H,2-9H2,1H3, purity 99.3%
Compound 5: decan-1-ol, C10H22O, InChI=1S/C10H22O/c1-2-3-4-5-6-7-8-9-10-11/h11H,2-10H2,1H3, purity 99%

System: undecane; phases: Liquid
Fixed: Pressure, kPa = 100
Property: Mass density, kg/m3 (Liquid); method: Vibrating tube method
Temperature, K	Mass density, kg/m3	uncertainty
283.15	747.78	1.5
288.15	744.06	1.5
293.15	740.35	1.49
298.15	736.64	1.48
303.15	732.93	1.47
308.15	729.23	1.47
313.15	725.53	1.46
318.15	721.82	1.45
323.15	718.11	1.45
328.15	714.39	1.44
333.15	710.68	1.43
338.15	706.95	1.42
343.15	703.22	1.42
348.15	699.47	1.41
353.15	695.72	1.4
358.15	691.96	1.39
363.15	688.18	1.39

System: undecane; phases: Liquid
Fixed: Pressure, kPa = 100
Property: Viscosity, Pa*s (Liquid); method: Falling or rolling sphere viscometry
Temperature, K	Viscosity, Pa*s	uncertainty
283.15	0.001371	1.8e-05
288.15	0.001249	1.6e-05
293.15	0.001145	1.5e-05
298.15	0.001062	1.4e-05
303.15	0.000982	1.3e-05
308.15	0.00091	1.2e-05
313.15	0.000847	1.1e-05
318.15	0.00079	1e-05
323.15	0.00074	9e-06
328.15	0.000692	9e-06
333.15	0.000651	8e-06
338.15	0.000615	8e-06
343.15	0.00058	7e-06
348.15	0.000549	7e-06
353.15	0.000522	7e-06
358.15	0.000497	6e-06
363.15	0.000475	6e-06

System: heptan-1-ol; phases: Liquid
Fixed: Pressure, kPa = 100
Property: Mass density, kg/m3 (Liquid); method: Vibrating tube method
Temperature, K	Mass density, kg/m3	uncertainty
283.15	829.21	1.66
288.15	825.76	1.65
293.15	822.29	1.65
298.15	818.8	1.64
303.15	815.3	1.63
308.15	811.77	1.63
313.15	808.22	1.62
318.15	804.63	1.61
323.15	801.01	1.61
328.15	797.35	1.6
333.15	793.65	1.59
338.15	789.91	1.58
343.15	786.12	1.58
348.15	782.28	1.57
353.15	778.4	1.56
358.15	774.45	1.55
363.15	770.45	1.54

System: heptan-1-ol; phases: Liquid
Fixed: Pressure, kPa = 100
Property: Viscosity, Pa*s (Liquid); method: Falling or rolling sphere viscometry
Temperature, K	Viscosity, Pa*s	uncertainty
283.15	0.010098	0.000128
288.15	0.008382	0.000107
293.15	0.007018	8.9e-05
298.15	0.005912	7.5e-05
303.15	0.005014	6.4e-05
308.15	0.004275	5.4e-05
313.15	0.003656	4.6e-05
318.15	0.003159	4e-05
323.15	0.002741	3.4e-05
328.15	0.002395	3e-05
333.15	0.002105	2.6e-05
338.15	0.001869	2.3e-05
343.15	0.001674	2.1e-05
348.15	0.001508	1.9e-05
353.15	0.001374	1.7e-05
358.15	0.00126	1.6e-05
363.15	0.001164	1.4e-05

System: octan-1-ol; phases: Liquid
Fixed: Pressure, kPa = 100
Property: Mass density, kg/m3 (Liquid); method: Vibrating tube method
Temperature, K	Mass density, kg/m3	uncertainty
283.15	832.07	1.67
288.15	828.66	1.66
293.15	825.24	1.65
298.15	821.8	1.65
303.15	818.35	1.64
308.15	814.87	1.63
313.15	811.38	1.63
318.15	807.85	1.62
323.15	804.29	1.61
328.15	800.7	1.61
333.15	797.08	1.6
338.15	793.41	1.59
343.15	789.7	1.58
348.15	785.95	1.58
353.15	782.16	1.57
358.15	778.31	1.56
363.15	774.43	1.55

System: octan-1-ol; phases: Liquid
Fixed: Pressure, kPa = 100
Property: Viscosity, Pa*s (Liquid); method: Falling or rolling sphere viscometry
Temperature, K	Viscosity, Pa*s	uncertainty
283.15	0.013328	0.000173
288.15	0.010929	0.000143
293.15	0.009045	0.000118
298.15	0.007546	9.8e-05
303.15	0.006337	8.2e-05
308.15	0.00536	6.9e-05
313.15	0.004564	5.9e-05
318.15	0.003904	5e-05
323.15	0.003365	4.3e-05
328.15	0.002919	3.7e-05
333.15	0.002547	3.3e-05
338.15	0.00224	2.9e-05
343.15	0.001975	2.5e-05
348.15	0.001765	2.2e-05
353.15	0.00159	2e-05
358.15	0.001442	1.8e-05
363.15	0.001319	1.7e-05

System: nonan-1-ol; phases: Liquid
Fixed: Pressure, kPa = 100
Property: Mass density, kg/m3 (Liquid); method: Vibrating tube method
Temperature, K	Mass density, kg/m3	uncertainty
283.15	834.71	1.68
288.15	831.33	1.67
293.15	827.93	1.66
298.15	824.52	1.66
303.15	821.09	1.65
308.15	817.65	1.64
313.15	814.18	1.64
318.15	810.69	1.63
323.15	807.17	1.62
328.15	803.62	1.61
333.15	800.04	1.61
338.15	796.42	1.6
343.15	792.77	1.59
348.15	789.07	1.59
353.15	785.35	1.58
358.15	781.57	1.57
363.15	777.76	1.56

System: nonan-1-ol; phases: Liquid
Fixed: Pressure, kPa = 100
Property: Viscosity, Pa*s (Liquid); method: Falling or rolling sphere viscometry
Temperature, K	Viscosity, Pa*s	uncertainty
283.15	0.01742	0.000232
288.15	0.01413	0.000189
293.15	0.011568	0.000154
298.15	0.009566	0.000127
303.15	0.007967	0.000106
308.15	0.00659	8.7e-05
313.15	0.005597	7.3e-05
318.15	0.004852	6.3e-05
323.15	0.004179	5.5e-05
328.15	0.003614	4.7e-05
333.15	0.003134	4.1e-05
338.15	0.002745	3.6e-05
343.15	0.002415	3.1e-05
348.15	0.002149	2.8e-05
353.15	0.00191	2.5e-05
358.15	0.001707	2.2e-05
363.15	0.001531	2e-05

System: decan-1-ol; phases: Liquid
Fixed: Pressure, kPa = 100
Property: Mass density, kg/m3 (Liquid); method: Vibrating tube method
Temperature, K	Mass density, kg/m3	uncertainty
283.15	836.51	1.69
288.15	833.14	1.68
293.15	829.76	1.67
298.15	826.38	1.67
303.15	822.98	1.66
308.15	819.57	1.65
313.15	816.15	1.65
318.15	812.71	1.64
323.15	809.24	1.63
328.15	805.74	1.63
333.15	802.21	1.62
338.15	798.65	1.61
343.15	795.06	1.6
348.15	791.43	1.6
353.15	787.77	1.59
358.15	784.07	1.58
363.15	780.34	1.58

System: decan-1-ol; phases: Liquid
Fixed: Pressure, kPa = 100
Property: Viscosity, Pa*s (Liquid); method: Falling or rolling sphere viscometry
Temperature, K	Viscosity, Pa*s	uncertainty
283.15	0.02191	0.000303
288.15	0.017471	0.000243
293.15	0.014266	0.000197
298.15	0.011716	0.000162
303.15	0.009708	0.000133
308.15	0.008108	0.000111
313.15	0.006818	9.3e-05
318.15	0.005771	7.9e-05
323.15	0.004918	6.7e-05
328.15	0.004217	5.7e-05
333.15	0.003624	4.9e-05
338.15	0.003144	4.3e-05
343.15	0.002767	3.7e-05
348.15	0.002415	3.3e-05
353.15	0.002139	2.9e-05
358.15	0.001922	2.6e-05
363.15	0.001718	2.3e-05

System: heptan-1-ol + undecane; phases: Liquid
Fixed: Pressure, kPa = 100
Property: Mass density, kg/m3 (Liquid); method: Vibrating tube method
Temperature, K	Mole fraction of undecane	Mass density, kg/m3	uncertainty
283.15	0	829.21	1.66
283.15	0.0999	817.45	1.64
283.15	0.1998	806.87	1.62
283.15	0.3007	796.99	1.6
283.15	0.399	788.18	1.58
283.15	0.5004	779.88	1.56
283.15	0.5988	772.38	1.55
283.15	0.7002	765.33	1.54
283.15	0.8004	759.03	1.52
283.15	0.8983	753.23	1.51
283.15	1	747.78	1.5
288.15	0	825.76	1.65
288.15	0.0999	813.93	1.63
288.15	0.1998	803.3	1.61
288.15	0.3007	793.4	1.59
288.15	0.399	784.55	1.57
288.15	0.5004	776.23	1.56
288.15	0.5988	768.7	1.54
288.15	0.7002	761.65	1.53
288.15	0.8004	755.33	1.52
288.15	0.8983	749.53	1.51
288.15	1	744.06	1.5
293.15	0	822.29	1.65
293.15	0.0999	810.4	1.62
293.15	0.1998	799.72	1.6
293.15	0.3007	789.78	1.58
293.15	0.399	780.9	1.57
293.15	0.5004	772.55	1.55
293.15	0.5988	765.02	1.54
293.15	0.7002	757.95	1.52
293.15	0.8004	751.62	1.51
293.15	0.8983	745.82	1.5
293.15	1	740.35	1.49
298.15	0	818.8	1.64
298.15	0.0999	806.86	1.62
298.15	0.1998	796.13	1.6
298.15	0.3007	786.15	1.58
298.15	0.399	777.23	1.56
298.15	0.5004	768.87	1.54
298.15	0.5988	761.32	1.53
298.15	0.7002	754.24	1.51
298.15	0.8004	747.9	1.5
298.15	0.8983	742.1	1.49
298.15	1	736.64	1.48
303.15	0	815.3	1.63
303.15	0.0999	803.29	1.61
303.15	0.1998	792.51	1.59
303.15	0.3007	782.49	1.57
303.15	0.399	773.55	1.55
303.15	0.5004	765.17	1.54
303.15	0.5988	757.61	1.52
303.15	0.7002	750.52	1.51
303.15	0.8004	744.17	1.5
303.15	0.8983	738.37	1.48
303.15	1	732.93	1.47
308.15	0	811.77	1.63
308.15	0.0999	799.7	1.6
308.15	0.1998	788.87	1.58
308.15	0.3007	778.81	1.56
308.15	0.399	769.85	1.54
308.15	0.5004	761.45	1.53
308.15	0.5988	753.87	1.51
308.15	0.7002	746.77	1.5
308.15	0.8004	740.41	1.49
308.15	0.8983	734.62	1.48
308.15	1	729.23	1.47
313.15	0	808.22	1.62
313.15	0.0999	796.08	1.6
313.15	0.1998	785.2	1.57
313.15	0.3007	775.11	1.55
313.15	0.399	766.12	1.54
313.15	0.5004	757.7	1.52
313.15	0.5988	750.11	1.51
313.15	0.7002	743	1.49
313.15	0.8004	736.64	1.48
313.15	0.8983	730.85	1.47
313.15	1	725.53	1.46
318.15	0	804.63	1.61
318.15	0.0999	792.43	1.59
318.15	0.1998	781.5	1.57
318.15	0.3007	771.38	1.55
318.15	0.399	762.37	1.53
318.15	0.5004	753.93	1.51
318.15	0.5988	746.33	1.5
318.15	0.7002	739.21	1.49
318.15	0.8004	732.84	1.47
318.15	0.8983	727.07	1.46
318.15	1	721.82	1.45
323.15	0	801.01	1.61
323.15	0.0999	788.75	1.58
323.15	0.1998	777.78	1.56
323.15	0.3007	767.62	1.54
323.15	0.399	758.58	1.52
323.15	0.5004	750.14	1.51
323.15	0.5988	742.52	1.49
323.15	0.7002	735.39	1.48
323.15	0.8004	729.03	1.47
323.15	0.8983	723.26	1.45
323.15	1	718.11	1.45
328.15	0	797.35	1.6
328.15	0.0999	785.03	1.57
328.15	0.1998	774.01	1.55
328.15	0.3007	763.83	1.53
328.15	0.399	754.77	1.51
328.15	0.5004	746.31	1.5
328.15	0.5988	738.68	1.48
328.15	0.7002	731.55	1.47
328.15	0.8004	725.18	1.46
328.15	0.8983	719.44	1.45
328.15	1	714.39	1.44
333.15	0	793.65	1.59
333.15	0.0999	781.27	1.57
333.15	0.1998	770.21	1.55
333.15	0.3007	760	1.53
333.15	0.399	750.92	1.51
333.15	0.5004	742.44	1.49
333.15	0.5988	734.81	1.48
333.15	0.7002	727.67	1.46
333.15	0.8004	721.31	1.45
333.15	0.8983	715.6	1.44
333.15	1	710.68	1.43
338.15	0	789.91	1.58
338.15	0.0999	777.47	1.56
338.15	0.1998	766.37	1.54
338.15	0.3007	756.13	1.52
338.15	0.399	747.04	1.5
338.15	0.5004	738.55	1.48
338.15	0.5988	730.91	1.47
338.15	0.7002	723.77	1.46
338.15	0.8004	717.42	1.44
338.15	0.8983	711.74	1.43
338.15	1	706.95	1.42
343.15	0	786.12	1.58
343.15	0.0999	773.62	1.55
343.15	0.1998	762.48	1.53
343.15	0.3007	752.22	1.51
343.15	0.399	743.11	1.49
343.15	0.5004	734.61	1.48
343.15	0.5988	726.96	1.46
343.15	0.7002	719.83	1.45
343.15	0.8004	713.48	1.44
343.15	0.8983	707.86	1.42
343.15	1	703.22	1.42
348.15	0	782.28	1.57
348.15	0.0999	769.74	1.54
348.15	0.1998	758.56	1.52
348.15	0.3007	748.28	1.5
348.15	0.399	739.15	1.48
348.15	0.5004	730.64	1.47
348.15	0.5988	722.99	1.45
348.15	0.7002	715.87	1.44
348.15	0.8004	709.54	1.43
348.15	0.8983	703.95	1.42
348.15	1	699.47	1.41
353.15	0	778.4	1.56
353.15	0.0999	765.79	1.54
353.15	0.1998	754.59	1.51
353.15	0.3007	744.29	1.49
353.15	0.399	735.15	1.48
353.15	0.5004	726.62	1.46
353.15	0.5988	718.98	1.45
353.15	0.7002	711.86	1.43
353.15	0.8004	705.56	1.42
353.15	0.8983	700.04	1.41
353.15	1	695.72	1.4
358.15	0	774.45	1.55
358.15	0.0999	761.8	1.53
358.15	0.1998	750.57	1.51
358.15	0.3007	740.25	1.49
358.15	0.399	731.09	1.47
358.15	0.5004	722.58	1.45
358.15	0.5988	714.92	1.44
358.15	0.7002	707.82	1.42
358.15	0.8004	701.54	1.41
358.15	0.8983	696.1	1.4
358.15	1	691.96	1.39
363.15	0	770.45	1.54
363.15	0.0999	757.75	1.52
363.15	0.1998	746.5	1.5
363.15	0.3007	736.16	1.48
363.15	0.399	726.99	1.46
363.15	0.5004	718.47	1.44
363.15	0.5988	710.84	1.43
363.15	0.7002	703.75	1.42
363.15	0.8004	697.51	1.4
363.15	0.8983	692.15	1.39
363.15	1	688.18	1.39

System: heptan-1-ol + undecane; phases: Liquid
Fixed: Pressure, kPa = 100
Property: Viscosity, Pa*s (Liquid); method: Falling or rolling sphere viscometry
Temperature, K	Mole fraction of undecane	Viscosity, Pa*s	uncertainty
283.15	0	0.010098	0.000128
283.15	0.0999	0.007519	9.7e-05
283.15	0.1998	0.005648	7.2e-05
283.15	0.3007	0.004245	5.5e-05
283.15	0.399	0.003332	4.3e-05
283.15	0.5004	0.002618	3.3e-05
283.15	0.5988	0.002166	2.7e-05
283.15	0.7002	0.001863	2.4e-05
283.15	0.8004	0.001648	2.1e-05
283.15	0.8983	0.001496	1.9e-05
283.15	1	0.001371	1.8e-05
288.15	0	0.008382	0.000107
288.15	0.0999	0.006301	8.1e-05
288.15	0.1998	0.004825	6.1e-05
288.15	0.3007	0.003626	4.6e-05
288.15	0.399	0.002883	3.7e-05
288.15	0.5004	0.002306	2.9e-05
288.15	0.5988	0.001999	2.5e-05
288.15	0.7002	0.001684	2.1e-05
288.15	0.8004	0.001521	1.9e-05
288.15	0.8983	0.001358	1.7e-05
288.15	1	0.001249	1.6e-05
293.15	0	0.007018	8.9e-05
293.15	0.0999	0.005317	6.8e-05
293.15	0.1998	0.004102	5.2e-05
293.15	0.3007	0.003124	4e-05
293.15	0.399	0.002518	3.2e-05
293.15	0.5004	0.00205	2.6e-05
293.15	0.5988	0.001798	2.3e-05
293.15	0.7002	0.001547	1.9e-05
293.15	0.8004	0.001383	1.8e-05
293.15	0.8983	0.001239	1.6e-05
293.15	1	0.001145	1.5e-05
298.15	0	0.005912	7.5e-05
298.15	0.0999	0.004517	5.7e-05
298.15	0.1998	0.003516	4.5e-05
298.15	0.3007	0.002713	3.4e-05
298.15	0.399	0.002219	2.8e-05
298.15	0.5004	0.001831	2.3e-05
298.15	0.5988	0.001626	2e-05
298.15	0.7002	0.001407	1.8e-05
298.15	0.8004	0.001263	1.6e-05
298.15	0.8983	0.001137	1.4e-05
298.15	1	0.001062	1.4e-05
303.15	0	0.005014	6.4e-05
303.15	0.0999	0.00386	4.9e-05
303.15	0.1998	0.003037	3.8e-05
303.15	0.3007	0.002378	3e-05
303.15	0.399	0.001975	2.5e-05
303.15	0.5004	0.001654	2.1e-05
303.15	0.5988	0.00147	1.8e-05
303.15	0.7002	0.001284	1.6e-05
303.15	0.8004	0.001158	1.5e-05
303.15	0.8983	0.001048	1.3e-05
303.15	1	0.000982	1.3e-05
308.15	0	0.004275	5.4e-05
308.15	0.0999	0.00332	4.2e-05
308.15	0.1998	0.002641	3.3e-05
308.15	0.3007	0.002202	2.7e-05
308.15	0.399	0.001816	2.3e-05
308.15	0.5004	0.001537	1.9e-05
308.15	0.5988	0.001342	1.7e-05
308.15	0.7002	0.001176	1.5e-05
308.15	0.8004	0.001063	1.3e-05
308.15	0.8983	0.000968	1.2e-05
308.15	1	0.00091	1.2e-05
313.15	0	0.003656	4.6e-05
313.15	0.0999	0.002876	3.6e-05
313.15	0.1998	0.002315	2.9e-05
313.15	0.3007	0.001956	2.5e-05
313.15	0.399	0.001633	2e-05
313.15	0.5004	0.001369	1.7e-05
313.15	0.5988	0.001229	1.5e-05
313.15	0.7002	0.001078	1.4e-05
313.15	0.8004	0.000981	1.2e-05
313.15	0.8983	0.000896	1.1e-05
313.15	1	0.000847	1.1e-05
318.15	0	0.003159	4e-05
318.15	0.0999	0.002509	3.1e-05
318.15	0.1998	0.002089	2.6e-05
318.15	0.3007	0.001751	2.2e-05
318.15	0.399	0.001477	1.8e-05
318.15	0.5004	0.001247	1.6e-05
318.15	0.5988	0.001128	1.4e-05
318.15	0.7002	0.000994	1.3e-05
318.15	0.8004	0.000908	1.1e-05
318.15	0.8983	0.000833	1.1e-05
318.15	1	0.00079	1e-05
323.15	0	0.002741	3.4e-05
323.15	0.0999	0.002251	2.8e-05
323.15	0.1998	0.00186	2.3e-05
323.15	0.3007	0.001575	2e-05
323.15	0.399	0.00134	1.7e-05
323.15	0.5004	0.00114	1.4e-05
323.15	0.5988	0.00104	1.3e-05
323.15	0.7002	0.000918	1.2e-05
323.15	0.8004	0.000843	1.1e-05
323.15	0.8983	0.000777	1e-05
323.15	1	0.00074	9e-06
328.15	0	0.002395	3e-05
328.15	0.0999	0.001995	2.5e-05
328.15	0.1998	0.001662	2.1e-05
328.15	0.3007	0.001416	1.8e-05
328.15	0.399	0.001219	1.5e-05
328.15	0.5004	0.001045	1.3e-05
328.15	0.5988	0.000942	1.2e-05
328.15	0.7002	0.000855	1.1e-05
328.15	0.8004	0.000785	1e-05
328.15	0.8983	0.000726	9e-06
328.15	1	0.000692	9e-06
333.15	0	0.002105	2.6e-05
333.15	0.0999	0.001776	2.2e-05
333.15	0.1998	0.001493	1.9e-05
333.15	0.3007	0.001287	1.6e-05
333.15	0.399	0.001118	1.4e-05
333.15	0.5004	0.000961	1.2e-05
333.15	0.5988	0.000877	1.1e-05
333.15	0.7002	0.000793	1e-05
333.15	0.8004	0.000733	9e-06
333.15	0.8983	0.000679	9e-06
333.15	1	0.000651	8e-06
338.15	0	0.001869	2.3e-05
338.15	0.0999	0.001586	2e-05
338.15	0.1998	0.001347	1.7e-05
338.15	0.3007	0.00117	1.5e-05
338.15	0.399	0.001003	1.3e-05
338.15	0.5004	0.000887	1.1e-05
338.15	0.5988	0.000815	1e-05
338.15	0.7002	0.000738	9e-06
338.15	0.8004	0.000685	9e-06
338.15	0.8983	0.000638	8e-06
338.15	1	0.000615	8e-06
343.15	0	0.001674	2.1e-05
343.15	0.0999	0.001425	1.8e-05
343.15	0.1998	0.001221	1.5e-05
343.15	0.3007	0.001075	1.3e-05
343.15	0.399	0.000925	1.2e-05
343.15	0.5004	0.00082	1e-05
343.15	0.5988	0.000758	1e-05
343.15	0.7002	0.00069	9e-06
343.15	0.8004	0.000643	8e-06
343.15	0.8983	0.000602	8e-06
343.15	1	0.00058	7e-06
348.15	0	0.001508	1.9e-05
348.15	0.0999	0.001285	1.6e-05
348.15	0.1998	0.001109	1.4e-05
348.15	0.3007	0.000985	1.2e-05
348.15	0.399	0.000852	1.1e-05
348.15	0.5004	0.00076	1e-05
348.15	0.5988	0.000707	9e-06
348.15	0.7002	0.000647	8e-06
348.15	0.8004	0.000596	8e-06
348.15	0.8983	0.000568	7e-06
348.15	1	0.000549	7e-06
353.15	0	0.001374	1.7e-05
353.15	0.0999	0.001147	1.4e-05
353.15	0.1998	0.001011	1.3e-05
353.15	0.3007	0.000904	1.1e-05
353.15	0.399	0.000787	1e-05
353.15	0.5004	0.000707	9e-06
353.15	0.5988	0.00066	8e-06
353.15	0.7002	0.000606	8e-06
353.15	0.8004	0.000562	7e-06
353.15	0.8983	0.000539	7e-06
353.15	1	0.000522	7e-06
358.15	0	0.00126	1.6e-05
358.15	0.0999	0.001057	1.3e-05
358.15	0.1998	0.000927	1.2e-05
358.15	0.3007	0.000834	1e-05
358.15	0.399	0.00073	9e-06
358.15	0.5004	0.000658	8e-06
358.15	0.5988	0.000618	8e-06
358.15	0.7002	0.000571	7e-06
358.15	0.8004	0.000531	7e-06
358.15	0.8983	0.000511	6e-06
358.15	1	0.000497	6e-06
363.15	0	0.001164	1.4e-05
363.15	0.0999	0.000965	1.2e-05
363.15	0.1998	0.000851	1.1e-05
363.15	0.3007	0.000771	1e-05
363.15	0.399	0.000681	8e-06
363.15	0.5004	0.000615	8e-06
363.15	0.5988	0.00058	7e-06
363.15	0.7002	0.000538	7e-06
363.15	0.8004	0.000503	6e-06
363.15	0.8983	0.000485	6e-06
363.15	1	0.000475	6e-06

System: octan-1-ol + undecane; phases: Liquid
Fixed: Pressure, kPa = 100
Property: Mass density, kg/m3 (Liquid); method: Vibrating tube method
Temperature, K	Mole fraction of undecane	Mass density, kg/m3	uncertainty
283.15	0	832.07	1.67
283.15	0.0994	821.28	1.65
283.15	0.2003	810.91	1.63
283.15	0.2994	801.3	1.61
283.15	0.3986	792.25	1.59
283.15	0.498	783.66	1.57
283.15	0.5983	775.39	1.56
283.15	0.6948	768.22	1.54
283.15	0.7982	760.88	1.53
283.15	0.899	754.14	1.52
283.15	1	747.78	1.5
288.15	0	828.66	1.66
288.15	0.0994	817.81	1.64
288.15	0.2003	807.38	1.62
288.15	0.2994	797.74	1.6
288.15	0.3986	788.65	1.58
288.15	0.498	780.04	1.57
288.15	0.5983	771.75	1.55
288.15	0.6948	764.56	1.54
288.15	0.7982	757.19	1.52
288.15	0.899	750.43	1.51
288.15	1	744.06	1.5
293.15	0	825.24	1.65
293.15	0.0994	814.33	1.63
293.15	0.2003	803.85	1.61
293.15	0.2994	794.16	1.59
293.15	0.3986	785.05	1.58
293.15	0.498	776.41	1.56
293.15	0.5983	768.09	1.54
293.15	0.6948	760.89	1.53
293.15	0.7982	753.51	1.51
293.15	0.899	746.73	1.5
293.15	1	740.35	1.49
298.15	0	821.8	1.65
298.15	0.0994	810.83	1.63
298.15	0.2003	800.31	1.61
298.15	0.2994	790.58	1.59
298.15	0.3986	781.43	1.57
298.15	0.498	772.76	1.55
298.15	0.5983	764.42	1.54
298.15	0.6948	757.21	1.52
298.15	0.7982	749.8	1.51
298.15	0.899	743.02	1.49
298.15	1	736.64	1.48
303.15	0	818.35	1.64
303.15	0.0994	807.32	1.62
303.15	0.2003	796.74	1.6
303.15	0.2994	786.98	1.58
303.15	0.3986	777.8	1.56
303.15	0.498	769.1	1.55
303.15	0.5983	760.74	1.53
303.15	0.6948	753.51	1.51
303.15	0.7982	746.09	1.5
303.15	0.899	739.3	1.49
303.15	1	732.93	1.47
308.15	0	814.87	1.63
308.15	0.0994	803.79	1.61
308.15	0.2003	793.16	1.59
308.15	0.2994	783.36	1.57
308.15	0.3986	774.15	1.55
308.15	0.498	765.43	1.54
308.15	0.5983	757.04	1.52
308.15	0.6948	749.79	1.51
308.15	0.7982	742.35	1.49
308.15	0.899	735.56	1.48
308.15	1	729.23	1.47
313.15	0	811.38	1.63
313.15	0.0994	800.23	1.61
313.15	0.2003	789.55	1.59
313.15	0.2994	779.72	1.57
313.15	0.3986	770.47	1.55
313.15	0.498	761.73	1.53
313.15	0.5983	753.32	1.51
313.15	0.6948	746.05	1.5
313.15	0.7982	738.6	1.49
313.15	0.899	731.8	1.47
313.15	1	725.53	1.46
318.15	0	807.85	1.62
318.15	0.0994	796.65	1.6
318.15	0.2003	785.92	1.58
318.15	0.2994	776.05	1.56
318.15	0.3986	766.77	1.54
318.15	0.498	758	1.52
318.15	0.5983	749.58	1.51
318.15	0.6948	742.29	1.49
318.15	0.7982	734.82	1.48
318.15	0.899	728.03	1.46
318.15	1	721.82	1.45
323.15	0	804.29	1.61
323.15	0.0994	793.03	1.59
323.15	0.2003	782.26	1.57
323.15	0.2994	772.35	1.55
323.15	0.3986	763.05	1.53
323.15	0.498	754.26	1.52
323.15	0.5983	745.81	1.5
323.15	0.6948	738.5	1.49
323.15	0.7982	731.03	1.47
323.15	0.899	724.23	1.46
323.15	1	718.11	1.45
328.15	0	800.7	1.61
328.15	0.0994	789.39	1.58
328.15	0.2003	778.57	1.56
328.15	0.2994	768.63	1.54
328.15	0.3986	759.29	1.53
328.15	0.498	750.48	1.51
328.15	0.5983	742.01	1.49
328.15	0.6948	734.69	1.48
328.15	0.7982	727.2	1.46
328.15	0.899	720.42	1.45
328.15	1	714.39	1.44
333.15	0	797.08	1.6
333.15	0.0994	785.71	1.58
333.15	0.2003	774.84	1.56
333.15	0.2994	764.87	1.54
333.15	0.3986	755.5	1.52
333.15	0.498	746.67	1.5
333.15	0.5983	738.18	1.48
333.15	0.6948	730.85	1.47
333.15	0.7982	723.36	1.46
333.15	0.899	716.6	1.44
333.15	1	710.68	1.43
338.15	0	793.41	1.59
338.15	0.0994	781.99	1.57
338.15	0.2003	771.08	1.55
338.15	0.2994	761.08	1.53
338.15	0.3986	751.68	1.51
338.15	0.498	742.82	1.49
338.15	0.5983	734.32	1.48
338.15	0.6948	726.98	1.46
338.15	0.7982	719.49	1.45
338.15	0.899	712.74	1.43
338.15	1	706.95	1.42
343.15	0	789.7	1.58
343.15	0.0994	778.24	1.56
343.15	0.2003	767.28	1.54
343.15	0.2994	757.24	1.52
343.15	0.3986	747.83	1.5
343.15	0.498	738.95	1.49
343.15	0.5983	730.43	1.47
343.15	0.6948	723.08	1.45
343.15	0.7982	715.58	1.44
343.15	0.899	708.88	1.43
343.15	1	703.22	1.42
348.15	0	785.95	1.58
348.15	0.0994	774.43	1.56
348.15	0.2003	763.45	1.53
348.15	0.2994	753.38	1.51
348.15	0.3986	743.94	1.5
348.15	0.498	735.04	1.48
348.15	0.5983	726.51	1.46
348.15	0.6948	719.15	1.45
348.15	0.7982	711.66	1.43
348.15	0.899	704.99	1.42
348.15	1	699.47	1.41
353.15	0	782.16	1.57
353.15	0.0994	770.59	1.55
353.15	0.2003	759.56	1.53
353.15	0.2994	749.48	1.51
353.15	0.3986	740	1.49
353.15	0.498	731.09	1.47
353.15	0.5983	722.54	1.45
353.15	0.6948	715.19	1.44
353.15	0.7982	707.71	1.43
353.15	0.899	701.08	1.41
353.15	1	695.72	1.4
358.15	0	778.31	1.56
358.15	0.0994	766.7	1.54
358.15	0.2003	755.65	1.52
358.15	0.2994	745.52	1.5
358.15	0.3986	736.03	1.48
358.15	0.498	727.1	1.46
358.15	0.5983	718.55	1.45
358.15	0.6948	711.19	1.43
358.15	0.7982	703.73	1.42
358.15	0.899	697.16	1.4
358.15	1	691.96	1.39
363.15	0	774.43	1.55
363.15	0.0994	762.77	1.53
363.15	0.2003	751.67	1.51
363.15	0.2994	741.53	1.49
363.15	0.3986	732.01	1.47
363.15	0.498	723.07	1.45
363.15	0.5983	714.51	1.44
363.15	0.6948	707.15	1.42
363.15	0.7982	699.73	1.41
363.15	0.899	693.21	1.4
363.15	1	688.18	1.39

System: octan-1-ol + undecane; phases: Liquid
Fixed: Pressure, kPa = 100
Property: Viscosity, Pa*s (Liquid); method: Falling or rolling sphere viscometry
Temperature, K	Mole fraction of undecane	Viscosity, Pa*s	uncertainty
283.15	0	0.013328	0.000173
283.15	0.0994	0.009873	0.00013
283.15	0.2003	0.007291	9.6e-05
283.15	0.2994	0.005294	7e-05
283.15	0.3986	0.004039	5.3e-05
283.15	0.498	0.003088	4e-05
283.15	0.5983	0.002486	3.2e-05
283.15	0.6948	0.002064	2.7e-05
283.15	0.7982	0.001759	2.2e-05
283.15	0.899	0.001533	2e-05
283.15	1	0.001371	1.8e-05
288.15	0	0.010929	0.000143
288.15	0.0994	0.008174	0.000107
288.15	0.2003	0.006097	8e-05
288.15	0.2994	0.00449	5.8e-05
288.15	0.3986	0.003473	4.5e-05
288.15	0.498	0.002696	3.5e-05
288.15	0.5983	0.002201	2.8e-05
288.15	0.6948	0.001847	2.4e-05
288.15	0.7982	0.001613	2.1e-05
288.15	0.899	0.001395	1.8e-05
288.15	1	0.001249	1.6e-05
293.15	0	0.009045	0.000118
293.15	0.0994	0.006831	8.9e-05
293.15	0.2003	0.005141	6.7e-05
293.15	0.2994	0.003839	5e-05
293.15	0.3986	0.003004	3.9e-05
293.15	0.498	0.002374	3e-05
293.15	0.5983	0.001965	2.5e-05
293.15	0.6948	0.001669	2.1e-05
293.15	0.7982	0.001463	1.9e-05
293.15	0.899	0.001271	1.6e-05
293.15	1	0.001145	1.5e-05
298.15	0	0.007546	9.8e-05
298.15	0.0994	0.005749	7.5e-05
298.15	0.2003	0.004369	5.7e-05
298.15	0.2994	0.00331	4.3e-05
298.15	0.3986	0.002622	3.4e-05
298.15	0.498	0.002109	2.7e-05
298.15	0.5983	0.00177	2.3e-05
298.15	0.6948	0.001542	2e-05
298.15	0.7982	0.001349	1.7e-05
298.15	0.899	0.001164	1.5e-05
298.15	1	0.001062	1.4e-05
303.15	0	0.006337	8.2e-05
303.15	0.0994	0.004874	6.3e-05
303.15	0.2003	0.003746	4.8e-05
303.15	0.2994	0.002878	3.7e-05
303.15	0.3986	0.002322	3e-05
303.15	0.498	0.001929	2.5e-05
303.15	0.5983	0.001622	2.1e-05
303.15	0.6948	0.001402	1.8e-05
303.15	0.7982	0.001233	1.6e-05
303.15	0.899	0.001071	1.4e-05
303.15	1	0.000982	1.3e-05
308.15	0	0.00536	6.9e-05
308.15	0.0994	0.004161	5.4e-05
308.15	0.2003	0.00323	4.2e-05
308.15	0.2994	0.002519	3.2e-05
308.15	0.3986	0.002063	2.6e-05
308.15	0.498	0.001725	2.2e-05
308.15	0.5983	0.001473	1.9e-05
308.15	0.6948	0.001281	1.6e-05
308.15	0.7982	0.001132	1.4e-05
308.15	0.899	0.000987	1.3e-05
308.15	1	0.00091	1.2e-05
313.15	0	0.004564	5.9e-05
313.15	0.0994	0.003577	4.6e-05
313.15	0.2003	0.002805	3.6e-05
313.15	0.2994	0.002223	2.8e-05
313.15	0.3986	0.001847	2.4e-05
313.15	0.498	0.001559	2e-05
313.15	0.5983	0.001341	1.7e-05
313.15	0.6948	0.001175	1.5e-05
313.15	0.7982	0.001043	1.3e-05
313.15	0.899	0.000915	1.2e-05
313.15	1	0.000847	1.1e-05
318.15	0	0.003904	5e-05
318.15	0.0994	0.003091	4e-05
318.15	0.2003	0.002455	3.1e-05
318.15	0.2994	0.001978	2.5e-05
318.15	0.3986	0.00167	2.1e-05
318.15	0.498	0.001413	1.8e-05
318.15	0.5983	0.001224	1.6e-05
318.15	0.6948	0.001079	1.4e-05
318.15	0.7982	0.000963	1.2e-05
318.15	0.899	0.000848	1.1e-05
318.15	1	0.00079	1e-05
323.15	0	0.003365	4.3e-05
323.15	0.0994	0.002694	3.5e-05
323.15	0.2003	0.002167	2.8e-05
323.15	0.2994	0.001774	2.3e-05
323.15	0.3986	0.001507	1.9e-05
323.15	0.498	0.001286	1.6e-05
323.15	0.5983	0.001123	1.4e-05
323.15	0.6948	0.000996	1.3e-05
323.15	0.7982	0.000892	1.1e-05
323.15	0.899	0.000792	1e-05
323.15	1	0.00074	9e-06
328.15	0	0.002919	3.7e-05
328.15	0.0994	0.002361	3e-05
328.15	0.2003	0.001923	2.5e-05
328.15	0.2994	0.001627	2.1e-05
328.15	0.3986	0.001365	1.7e-05
328.15	0.498	0.001175	1.5e-05
328.15	0.5983	0.001032	1.3e-05
328.15	0.6948	0.000927	1.2e-05
328.15	0.7982	0.000829	1.1e-05
328.15	0.899	0.00074	9e-06
328.15	1	0.000692	9e-06
333.15	0	0.002547	3.3e-05
333.15	0.0994	0.002092	2.7e-05
333.15	0.2003	0.001726	2.2e-05
333.15	0.2994	0.001466	1.9e-05
333.15	0.3986	0.00124	1.6e-05
333.15	0.498	0.001076	1.4e-05
333.15	0.5983	0.000951	1.2e-05
333.15	0.6948	0.000859	1.1e-05
333.15	0.7982	0.000772	1e-05
333.15	0.899	0.000693	9e-06
333.15	1	0.000651	8e-06
338.15	0	0.00224	2.9e-05
338.15	0.0994	0.001858	2.4e-05
338.15	0.2003	0.001555	2e-05
338.15	0.2994	0.001325	1.7e-05
338.15	0.3986	0.00113	1.4e-05
338.15	0.498	0.000989	1.3e-05
338.15	0.5983	0.000882	1.1e-05
338.15	0.6948	0.000797	1e-05
338.15	0.7982	0.000721	9e-06
338.15	0.899	0.000651	8e-06
338.15	1	0.000615	8e-06
343.15	0	0.001975	2.5e-05
343.15	0.0994	0.001671	2.1e-05
343.15	0.2003	0.0014	1.8e-05
343.15	0.2994	0.001203	1.5e-05
343.15	0.3986	0.001035	1.3e-05
343.15	0.498	0.000912	1.2e-05
343.15	0.5983	0.000816	1e-05
343.15	0.6948	0.000741	9e-06
343.15	0.7982	0.000675	9e-06
343.15	0.899	0.000612	8e-06
343.15	1	0.00058	7e-06
348.15	0	0.001765	2.2e-05
348.15	0.0994	0.001499	1.9e-05
348.15	0.2003	0.001267	1.6e-05
348.15	0.2994	0.001096	1.4e-05
348.15	0.3986	0.00095	1.2e-05
348.15	0.498	0.000842	1.1e-05
348.15	0.5983	0.000758	1e-05
348.15	0.6948	0.000693	9e-06
348.15	0.7982	0.000634	8e-06
348.15	0.899	0.000578	7e-06
348.15	1	0.000549	7e-06
353.15	0	0.00159	2e-05
353.15	0.0994	0.00135	1.7e-05
353.15	0.2003	0.001149	1.5e-05
353.15	0.2994	0.001002	1.3e-05
353.15	0.3986	0.000875	1.1e-05
353.15	0.498	0.000781	1e-05
353.15	0.5983	0.000706	9e-06
353.15	0.6948	0.000649	8e-06
353.15	0.7982	0.000596	8e-06
353.15	0.899	0.000547	7e-06
353.15	1	0.000522	7e-06
358.15	0	0.001442	1.8e-05
358.15	0.0994	0.001221	1.5e-05
358.15	0.2003	0.001048	1.3e-05
358.15	0.2994	0.00092	1.2e-05
358.15	0.3986	0.000808	1e-05
358.15	0.498	0.000726	9e-06
358.15	0.5983	0.00066	8e-06
358.15	0.6948	0.000609	8e-06
358.15	0.7982	0.000562	7e-06
358.15	0.899	0.000518	7e-06
358.15	1	0.000497	6e-06
363.15	0	0.001319	1.7e-05
363.15	0.0994	0.001108	1.4e-05
363.15	0.2003	0.000959	1.2e-05
363.15	0.2994	0.000846	1.1e-05
363.15	0.3986	0.000749	9e-06
363.15	0.498	0.000676	9e-06
363.15	0.5983	0.000616	8e-06
363.15	0.6948	0.000572	7e-06
363.15	0.7982	0.000531	7e-06
363.15	0.899	0.000492	6e-06
363.15	1	0.000475	6e-06

System: nonan-1-ol + undecane; phases: Liquid
Fixed: Pressure, kPa = 100
Property: Mass density, kg/m3 (Liquid); method: Vibrating tube method
Temperature, K	Mole fraction of undecane	Mass density, kg/m3	uncertainty
283.15	0	834.71	1.68
283.15	0.1008	824.33	1.66
283.15	0.2004	814.37	1.64
283.15	0.2999	804.93	1.62
283.15	0.3992	795.79	1.6
283.15	0.5014	786.79	1.58
283.15	0.5978	778.65	1.57
283.15	0.6993	770.36	1.55
283.15	0.7958	762.74	1.53
283.15	0.9	754.97	1.52
283.15	1	747.78	1.5
288.15	0	831.33	1.67
288.15	0.1008	820.89	1.65
288.15	0.2004	810.89	1.63
288.15	0.2999	801.41	1.61
288.15	0.3992	792.22	1.59
288.15	0.5014	783.2	1.57
288.15	0.5978	775.02	1.56
288.15	0.6993	766.71	1.54
288.15	0.7958	759.08	1.53
288.15	0.9	751.28	1.51
288.15	1	744.06	1.5
293.15	0	827.93	1.66
293.15	0.1008	817.44	1.64
293.15	0.2004	807.39	1.62
293.15	0.2999	797.87	1.6
293.15	0.3992	788.65	1.59
293.15	0.5014	779.59	1.57
293.15	0.5978	771.39	1.55
293.15	0.6993	763.05	1.53
293.15	0.7958	755.4	1.52
293.15	0.9	747.58	1.5
293.15	1	740.35	1.49
298.15	0	824.52	1.66
298.15	0.1008	813.98	1.64
298.15	0.2004	803.88	1.62
298.15	0.2999	794.32	1.6
298.15	0.3992	785.06	1.58
298.15	0.5014	775.97	1.56
298.15	0.5978	767.75	1.54
298.15	0.6993	759.38	1.53
298.15	0.7958	751.72	1.51
298.15	0.9	743.88	1.5
298.15	1	736.64	1.48
303.15	0	821.09	1.65
303.15	0.1008	810.5	1.63
303.15	0.2004	800.35	1.61
303.15	0.2999	790.76	1.59
303.15	0.3992	781.46	1.57
303.15	0.5014	772.34	1.55
303.15	0.5978	764.09	1.54
303.15	0.6993	755.7	1.52
303.15	0.7958	748.01	1.5
303.15	0.9	740.16	1.49
303.15	1	732.93	1.47
308.15	0	817.65	1.64
308.15	0.1008	807	1.62
308.15	0.2004	796.8	1.6
308.15	0.2999	787.18	1.58
308.15	0.3992	777.84	1.56
308.15	0.5014	768.69	1.55
308.15	0.5978	760.41	1.53
308.15	0.6993	752	1.51
308.15	0.7958	744.29	1.5
308.15	0.9	736.42	1.48
308.15	1	729.23	1.47
313.15	0	814.18	1.64
313.15	0.1008	803.48	1.61
313.15	0.2004	793.23	1.59
313.15	0.2999	783.58	1.58
313.15	0.3992	774.2	1.56
313.15	0.5014	765.02	1.54
313.15	0.5978	756.71	1.52
313.15	0.6993	748.28	1.51
313.15	0.7958	740.55	1.49
313.15	0.9	732.67	1.47
313.15	1	725.53	1.46
318.15	0	810.69	1.63
318.15	0.1008	799.93	1.61
318.15	0.2004	789.64	1.59
318.15	0.2999	779.95	1.57
318.15	0.3992	770.53	1.55
318.15	0.5014	761.33	1.53
318.15	0.5978	752.99	1.51
318.15	0.6993	744.53	1.5
318.15	0.7958	736.79	1.48
318.15	0.9	728.9	1.47
318.15	1	721.82	1.45
323.15	0	807.17	1.62
323.15	0.1008	796.36	1.6
323.15	0.2004	786.02	1.58
323.15	0.2999	776.3	1.56
323.15	0.3992	766.85	1.54
323.15	0.5014	757.61	1.52
323.15	0.5978	749.25	1.51
323.15	0.6993	740.76	1.49
323.15	0.7958	733.01	1.48
323.15	0.9	725.12	1.46
323.15	1	718.11	1.45
328.15	0	803.62	1.61
328.15	0.1008	792.76	1.59
328.15	0.2004	782.38	1.57
328.15	0.2999	772.62	1.55
328.15	0.3992	763.13	1.53
328.15	0.5014	753.87	1.52
328.15	0.5978	745.48	1.5
328.15	0.6993	736.97	1.48
328.15	0.7958	729.21	1.47
328.15	0.9	721.32	1.45
328.15	1	714.39	1.44
333.15	0	800.04	1.61
333.15	0.1008	789.13	1.59
333.15	0.2004	778.7	1.57
333.15	0.2999	768.91	1.55
333.15	0.3992	759.39	1.53
333.15	0.5014	750.09	1.51
333.15	0.5978	741.68	1.49
333.15	0.6993	733.16	1.48
333.15	0.7958	725.38	1.46
333.15	0.9	717.49	1.44
333.15	1	710.68	1.43
338.15	0	796.42	1.6
338.15	0.1008	785.46	1.58
338.15	0.2004	775	1.56
338.15	0.2999	765.17	1.54
338.15	0.3992	755.61	1.52
338.15	0.5014	746.29	1.5
338.15	0.5978	737.86	1.49
338.15	0.6993	729.3	1.47
338.15	0.7958	721.53	1.45
338.15	0.9	713.65	1.44
338.15	1	706.95	1.42
343.15	0	792.77	1.59
343.15	0.1008	781.76	1.57
343.15	0.2004	771.25	1.55
343.15	0.2999	761.4	1.53
343.15	0.3992	751.8	1.51
343.15	0.5014	742.45	1.49
343.15	0.5978	733.99	1.48
343.15	0.6993	725.43	1.46
343.15	0.7958	717.64	1.45
343.15	0.9	709.8	1.43
343.15	1	703.22	1.42
348.15	0	789.07	1.59
348.15	0.1008	778.02	1.56
348.15	0.2004	767.47	1.54
348.15	0.2999	757.59	1.52
348.15	0.3992	747.96	1.51
348.15	0.5014	738.58	1.49
348.15	0.5978	730.11	1.47
348.15	0.6993	721.53	1.45
348.15	0.7958	713.74	1.44
348.15	0.9	705.91	1.42
348.15	1	699.47	1.41
353.15	0	785.35	1.58
353.15	0.1008	774.24	1.56
353.15	0.2004	763.66	1.54
353.15	0.2999	753.75	1.52
353.15	0.3992	744.08	1.5
353.15	0.5014	734.68	1.48
353.15	0.5978	726.18	1.46
353.15	0.6993	717.59	1.45
353.15	0.7958	709.81	1.43
353.15	0.9	702.03	1.41
353.15	1	695.72	1.4
358.15	0	781.57	1.57
358.15	0.1008	770.43	1.55
358.15	0.2004	759.8	1.53
358.15	0.2999	749.86	1.51
358.15	0.3992	740.16	1.49
358.15	0.5014	730.73	1.47
358.15	0.5978	722.22	1.45
358.15	0.6993	713.63	1.44
358.15	0.7958	705.85	1.42
358.15	0.9	698.11	1.41
358.15	1	691.96	1.39
363.15	0	777.76	1.56
363.15	0.1008	766.56	1.54
363.15	0.2004	755.9	1.52
363.15	0.2999	745.94	1.5
363.15	0.3992	736.21	1.48
363.15	0.5014	726.76	1.46
363.15	0.5978	718.23	1.45
363.15	0.6993	709.62	1.43
363.15	0.7958	701.87	1.41
363.15	0.9	694.18	1.4
363.15	1	688.18	1.39

System: nonan-1-ol + undecane; phases: Liquid
Fixed: Pressure, kPa = 100
Property: Viscosity, Pa*s (Liquid); method: Falling or rolling sphere viscometry
Temperature, K	Mole fraction of undecane	Viscosity, Pa*s	uncertainty
283.15	0	0.01742	0.000232
283.15	0.1008	0.012296	0.000167
283.15	0.2004	0.008733	0.000118
283.15	0.2999	0.006555	8.7e-05
283.15	0.3992	0.00471	6.3e-05
283.15	0.5014	0.003563	4.7e-05
283.15	0.5978	0.002828	3.7e-05
283.15	0.6993	0.002245	2.9e-05
283.15	0.7958	0.001858	2.4e-05
283.15	0.9	0.001604	2.1e-05
283.15	1	0.001371	1.8e-05
288.15	0	0.01413	0.000189
288.15	0.1008	0.010089	0.000135
288.15	0.2004	0.007272	9.7e-05
288.15	0.2999	0.00552	7.3e-05
288.15	0.3992	0.00403	5.3e-05
288.15	0.5014	0.003094	4e-05
288.15	0.5978	0.002488	3.2e-05
288.15	0.6993	0.002005	2.6e-05
288.15	0.7958	0.001679	2.2e-05
288.15	0.9	0.001458	1.9e-05
288.15	1	0.001249	1.6e-05
293.15	0	0.011568	0.000154
293.15	0.1008	0.008362	0.000111
293.15	0.2004	0.006114	8.1e-05
293.15	0.2999	0.004688	6.2e-05
293.15	0.3992	0.003479	4.5e-05
293.15	0.5014	0.002709	3.5e-05
293.15	0.5978	0.002208	2.9e-05
293.15	0.6993	0.001803	2.3e-05
293.15	0.7958	0.001531	2e-05
293.15	0.9	0.001326	1.7e-05
293.15	1	0.001145	1.5e-05
298.15	0	0.009566	0.000127
298.15	0.1008	0.006989	9.3e-05
298.15	0.2004	0.005181	6.8e-05
298.15	0.2999	0.004013	5.3e-05
298.15	0.3992	0.003028	3.9e-05
298.15	0.5014	0.002391	3.1e-05
298.15	0.5978	0.001972	2.5e-05
298.15	0.6993	0.001634	2.1e-05
298.15	0.7958	0.001419	1.8e-05
298.15	0.9	0.001216	1.6e-05
298.15	1	0.001062	1.4e-05
303.15	0	0.007967	0.000106
303.15	0.1008	0.005885	7.8e-05
303.15	0.2004	0.004422	5.8e-05
303.15	0.2999	0.003464	4.5e-05
303.15	0.3992	0.002653	3.4e-05
303.15	0.5014	0.002124	2.7e-05
303.15	0.5978	0.001777	2.3e-05
303.15	0.6993	0.001529	2e-05
303.15	0.7958	0.001296	1.7e-05
303.15	0.9	0.001117	1.4e-05
303.15	1	0.000982	1.3e-05
308.15	0	0.00659	8.7e-05
308.15	0.1008	0.00499	6.6e-05
308.15	0.2004	0.003802	5e-05
308.15	0.2999	0.003012	3.9e-05
308.15	0.3992	0.002342	3e-05
308.15	0.5014	0.001904	2.5e-05
308.15	0.5978	0.001613	2.1e-05
308.15	0.6993	0.001391	1.8e-05
308.15	0.7958	0.001185	1.5e-05
308.15	0.9	0.00103	1.3e-05
308.15	1	0.00091	1.2e-05
313.15	0	0.005597	7.3e-05
313.15	0.1008	0.004264	5.6e-05
313.15	0.2004	0.003291	4.3e-05
313.15	0.2999	0.002636	3.4e-05
313.15	0.3992	0.002084	2.7e-05
313.15	0.5014	0.001718	2.2e-05
313.15	0.5978	0.0015	1.9e-05
313.15	0.6993	0.001271	1.6e-05
313.15	0.7958	0.00109	1.4e-05
313.15	0.9	0.000956	1.2e-05
313.15	1	0.000847	1.1e-05
318.15	0	0.004852	6.3e-05
318.15	0.1008	0.003665	4.8e-05
318.15	0.2004	0.002868	3.7e-05
318.15	0.2999	0.002326	3e-05
318.15	0.3992	0.001867	2.4e-05
318.15	0.5014	0.001561	2e-05
318.15	0.5978	0.001367	1.8e-05
318.15	0.6993	0.001164	1.5e-05
318.15	0.7958	0.001004	1.3e-05
318.15	0.9	0.000889	1.1e-05
318.15	1	0.00079	1e-05
323.15	0	0.004179	5.5e-05
323.15	0.1008	0.00317	4.2e-05
323.15	0.2004	0.002503	3.3e-05
323.15	0.2999	0.002066	2.7e-05
323.15	0.3992	0.001685	2.2e-05
323.15	0.5014	0.001461	1.9e-05
323.15	0.5978	0.001249	1.6e-05
323.15	0.6993	0.00107	1.4e-05
323.15	0.7958	0.000928	1.2e-05
323.15	0.9	0.000826	1.1e-05
323.15	1	0.00074	9e-06
328.15	0	0.003614	4.7e-05
328.15	0.1008	0.002761	3.6e-05
328.15	0.2004	0.002211	2.9e-05
328.15	0.2999	0.00185	2.4e-05
328.15	0.3992	0.001534	2e-05
328.15	0.5014	0.001332	1.7e-05
328.15	0.5978	0.001144	1.5e-05
328.15	0.6993	0.000986	1.3e-05
328.15	0.7958	0.00086	1.1e-05
328.15	0.9	0.000773	1e-05
328.15	1	0.000692	9e-06
333.15	0	0.003134	4.1e-05
333.15	0.1008	0.002424	3.2e-05
333.15	0.2004	0.001969	2.6e-05
333.15	0.2999	0.001668	2.2e-05
333.15	0.3992	0.001441	1.8e-05
333.15	0.5014	0.001217	1.6e-05
333.15	0.5978	0.001053	1.4e-05
333.15	0.6993	0.000912	1.2e-05
333.15	0.7958	0.0008	1e-05
333.15	0.9	0.000723	9e-06
333.15	1	0.000651	8e-06
338.15	0	0.002745	3.6e-05
338.15	0.1008	0.002144	2.8e-05
338.15	0.2004	0.001765	2.3e-05
338.15	0.2999	0.001516	1.9e-05
338.15	0.3992	0.001309	1.7e-05
338.15	0.5014	0.001113	1.4e-05
338.15	0.5978	0.00097	1.2e-05
338.15	0.6993	0.000845	1.1e-05
338.15	0.7958	0.000745	1e-05
338.15	0.9	0.000679	9e-06
338.15	1	0.000615	8e-06
343.15	0	0.002415	3.1e-05
343.15	0.1008	0.001909	2.5e-05
343.15	0.2004	0.001658	2.1e-05
343.15	0.2999	0.001408	1.8e-05
343.15	0.3992	0.001191	1.5e-05
343.15	0.5014	0.001022	1.3e-05
343.15	0.5978	0.000895	1.1e-05
343.15	0.6993	0.000785	1e-05
343.15	0.7958	0.000695	9e-06
343.15	0.9	0.000637	8e-06
343.15	1	0.00058	7e-06
348.15	0	0.002149	2.8e-05
348.15	0.1008	0.001716	2.2e-05
348.15	0.2004	0.001492	1.9e-05
348.15	0.2999	0.001281	1.7e-05
348.15	0.3992	0.001093	1.4e-05
348.15	0.5014	0.000942	1.2e-05
348.15	0.5978	0.000827	1.1e-05
348.15	0.6993	0.000737	9e-06
348.15	0.7958	0.000656	8e-06
348.15	0.9	0.000601	8e-06
348.15	1	0.000549	7e-06
353.15	0	0.00191	2.5e-05
353.15	0.1008	0.001552	2e-05
353.15	0.2004	0.001352	1.7e-05
353.15	0.2999	0.001167	1.5e-05
353.15	0.3992	0.001002	1.3e-05
353.15	0.5014	0.00087	1.1e-05
353.15	0.5978	0.000769	1e-05
353.15	0.6993	0.000683	9e-06
353.15	0.7958	0.000612	8e-06
353.15	0.9	0.000568	7e-06
353.15	1	0.000522	7e-06
358.15	0	0.001707	2.2e-05
358.15	0.1008	0.001442	1.9e-05
358.15	0.2004	0.00123	1.6e-05
358.15	0.2999	0.001067	1.4e-05
358.15	0.3992	0.000922	1.2e-05
358.15	0.5014	0.000804	1e-05
358.15	0.5978	0.000716	9e-06
358.15	0.6993	0.000638	8e-06
358.15	0.7958	0.000576	7e-06
358.15	0.9	0.000536	7e-06
358.15	1	0.000497	6e-06
363.15	0	0.001531	2e-05
363.15	0.1008	0.001304	1.7e-05
363.15	0.2004	0.001121	1.4e-05
363.15	0.2999	0.000977	1.3e-05
363.15	0.3992	0.000851	1.1e-05
363.15	0.5014	0.000748	1e-05
363.15	0.5978	0.000668	9e-06
363.15	0.6993	0.000599	8e-06
363.15	0.7958	0.000543	7e-06
363.15	0.9	0.000512	7e-06
363.15	1	0.000475	6e-06

System: decan-1-ol + undecane; phases: Liquid
Fixed: Pressure, kPa = 100
Property: Mass density, kg/m3 (Liquid); method: Vibrating tube method
Temperature, K	Mole fraction of undecane	Mass density, kg/m3	uncertainty
283.15	0	836.51	1.69
283.15	0.1003	826.88	1.67
283.15	0.2003	817.44	1.65
283.15	0.3005	808.09	1.63
283.15	0.3972	799.21	1.61
283.15	0.4989	790.04	1.59
283.15	0.5997	781.17	1.57
283.15	0.7007	772.45	1.55
283.15	0.8	764.05	1.54
283.15	0.8987	755.9	1.52
283.15	1	747.78	1.5
288.15	0	833.14	1.68
288.15	0.1003	823.47	1.66
288.15	0.2003	813.98	1.64
288.15	0.3005	804.58	1.62
288.15	0.3972	795.67	1.6
288.15	0.4989	786.48	1.58
288.15	0.5997	777.57	1.56
288.15	0.7007	768.82	1.55
288.15	0.8	760.4	1.53
288.15	0.8987	752.2	1.51
288.15	1	744.06	1.5
293.15	0	829.76	1.67
293.15	0.1003	820.04	1.65
293.15	0.2003	810.51	1.63
293.15	0.3005	801.08	1.61
293.15	0.3972	792.13	1.6
293.15	0.4989	782.9	1.58
293.15	0.5997	773.96	1.56
293.15	0.7007	765.18	1.54
293.15	0.8	756.74	1.52
293.15	0.8987	748.5	1.51
293.15	1	740.35	1.49
298.15	0	826.38	1.67
298.15	0.1003	816.61	1.65
298.15	0.2003	807.03	1.63
298.15	0.3005	797.56	1.61
298.15	0.3972	788.57	1.59
298.15	0.4989	779.31	1.57
298.15	0.5997	770.34	1.55
298.15	0.7007	761.53	1.53
298.15	0.8	753.07	1.52
298.15	0.8987	744.81	1.5
298.15	1	736.64	1.48
303.15	0	822.98	1.66
303.15	0.1003	813.17	1.64
303.15	0.2003	803.54	1.62
303.15	0.3005	794.03	1.6
303.15	0.3972	785.01	1.58
303.15	0.4989	775.71	1.56
303.15	0.5997	766.71	1.54
303.15	0.7007	757.87	1.53
303.15	0.8	749.38	1.51
303.15	0.8987	741.11	1.49
303.15	1	732.93	1.47
308.15	0	819.57	1.65
308.15	0.1003	809.71	1.63
308.15	0.2003	800.04	1.61
308.15	0.3005	790.49	1.59
308.15	0.3972	781.43	1.57
308.15	0.4989	772.09	1.55
308.15	0.5997	763.07	1.54
308.15	0.7007	754.19	1.52
308.15	0.8	745.67	1.5
308.15	0.8987	737.38	1.48
308.15	1	729.23	1.47
313.15	0	816.15	1.65
313.15	0.1003	806.23	1.63
313.15	0.2003	796.52	1.61
313.15	0.3005	786.93	1.59
313.15	0.3972	777.84	1.57
313.15	0.4989	768.45	1.55
313.15	0.5997	759.4	1.53
313.15	0.7007	750.5	1.51
313.15	0.8	741.95	1.49
313.15	0.8987	733.64	1.48
313.15	1	725.53	1.46
318.15	0	812.71	1.64
318.15	0.1003	802.73	1.62
318.15	0.2003	792.97	1.6
318.15	0.3005	783.35	1.58
318.15	0.3972	774.22	1.56
318.15	0.4989	764.8	1.54
318.15	0.5997	755.71	1.52
318.15	0.7007	746.78	1.5
318.15	0.8	738.21	1.49
318.15	0.8987	729.88	1.47
318.15	1	721.82	1.45
323.15	0	809.24	1.63
323.15	0.1003	799.21	1.61
323.15	0.2003	789.41	1.59
323.15	0.3005	779.74	1.57
323.15	0.3972	770.58	1.55
323.15	0.4989	761.12	1.53
323.15	0.5997	752	1.51
323.15	0.7007	743.04	1.5
323.15	0.8	734.44	1.48
323.15	0.8987	726.11	1.46
323.15	1	718.11	1.45
328.15	0	805.74	1.63
328.15	0.1003	795.66	1.61
328.15	0.2003	785.82	1.58
328.15	0.3005	776.11	1.56
328.15	0.3972	766.92	1.55
328.15	0.4989	757.41	1.53
328.15	0.5997	748.27	1.51
328.15	0.7007	739.28	1.49
328.15	0.8	730.66	1.47
328.15	0.8987	722.32	1.45
328.15	1	714.39	1.44
333.15	0	802.21	1.62
333.15	0.1003	792.09	1.6
333.15	0.2003	782.2	1.58
333.15	0.3005	772.46	1.56
333.15	0.3972	763.22	1.54
333.15	0.4989	753.68	1.52
333.15	0.5997	744.51	1.5
333.15	0.7007	735.49	1.48
333.15	0.8	726.85	1.46
333.15	0.8987	718.51	1.45
333.15	1	710.68	1.43
338.15	0	798.65	1.61
338.15	0.1003	788.48	1.59
338.15	0.2003	778.55	1.57
338.15	0.3005	768.77	1.55
338.15	0.3972	759.5	1.53
338.15	0.4989	749.92	1.51
338.15	0.5997	740.72	1.49
338.15	0.7007	731.67	1.47
338.15	0.8	723.02	1.46
338.15	0.8987	714.68	1.44
338.15	1	706.95	1.42
343.15	0	795.06	1.6
343.15	0.1003	784.84	1.58
343.15	0.2003	774.87	1.56
343.15	0.3005	765.05	1.54
343.15	0.3972	755.75	1.52
343.15	0.4989	746.12	1.5
343.15	0.5997	736.9	1.49
343.15	0.7007	727.83	1.47
343.15	0.8	719.16	1.45
343.15	0.8987	710.83	1.43
343.15	1	703.22	1.42
348.15	0	791.43	1.6
348.15	0.1003	781.17	1.58
348.15	0.2003	771.16	1.56
348.15	0.3005	761.3	1.54
348.15	0.3972	751.96	1.52
348.15	0.4989	742.3	1.5
348.15	0.5997	733.05	1.48
348.15	0.7007	723.95	1.46
348.15	0.8	715.28	1.44
348.15	0.8987	706.97	1.42
348.15	1	699.47	1.41
353.15	0	787.77	1.59
353.15	0.1003	777.47	1.57
353.15	0.2003	767.41	1.55
353.15	0.3005	757.52	1.53
353.15	0.3972	748.14	1.51
353.15	0.4989	738.44	1.49
353.15	0.5997	729.17	1.47
353.15	0.7007	720.06	1.45
353.15	0.8	711.38	1.43
353.15	0.8987	703.09	1.42
353.15	1	695.72	1.4
358.15	0	784.07	1.58
358.15	0.1003	773.72	1.56
358.15	0.2003	763.62	1.54
358.15	0.3005	753.69	1.52
358.15	0.3972	744.29	1.5
358.15	0.4989	734.55	1.48
358.15	0.5997	725.25	1.46
358.15	0.7007	716.12	1.44
358.15	0.8	707.44	1.43
358.15	0.8987	699.19	1.41
358.15	1	691.96	1.39
363.15	0	780.34	1.58
363.15	0.1003	769.94	1.55
363.15	0.2003	759.81	1.53
363.15	0.3005	749.84	1.51
363.15	0.3972	740.39	1.49
363.15	0.4989	730.62	1.47
363.15	0.5997	721.31	1.45
363.15	0.7007	712.17	1.44
363.15	0.8	703.49	1.42
363.15	0.8987	695.27	1.4
363.15	1	688.18	1.39

System: decan-1-ol + undecane; phases: Liquid
Fixed: Pressure, kPa = 100
Property: Viscosity, Pa*s (Liquid); method: Falling or rolling sphere viscometry
Temperature, K	Mole fraction of undecane	Viscosity, Pa*s	uncertainty
283.15	0	0.02191	0.000303
283.15	0.1003	0.015681	0.000219
283.15	0.2003	0.011209	0.000155
283.15	0.3005	0.008003	0.00011
283.15	0.3972	0.006012	8.1e-05
283.15	0.4989	0.004274	5.8e-05
283.15	0.5997	0.003247	4.3e-05
283.15	0.7007	0.002513	3.3e-05
283.15	0.8	0.001991	2.6e-05
283.15	0.8987	0.001665	2.1e-05
283.15	1	0.001371	1.8e-05
288.15	0	0.017471	0.000243
288.15	0.1003	0.012751	0.000176
288.15	0.2003	0.009243	0.000127
288.15	0.3005	0.006705	9.1e-05
288.15	0.3972	0.005106	6.8e-05
288.15	0.4989	0.003672	4.9e-05
288.15	0.5997	0.002888	3.8e-05
288.15	0.7007	0.002285	3e-05
288.15	0.8	0.001792	2.3e-05
288.15	0.8987	0.001517	1.9e-05
288.15	1	0.001249	1.6e-05
293.15	0	0.014266	0.000197
293.15	0.1003	0.010474	0.000144
293.15	0.2003	0.0077	0.000105
293.15	0.3005	0.005667	7.6e-05
293.15	0.3972	0.004374	5.8e-05
293.15	0.4989	0.003193	4.2e-05
293.15	0.5997	0.002542	3.3e-05
293.15	0.7007	0.001992	2.6e-05
293.15	0.8	0.001626	2.1e-05
293.15	0.8987	0.001378	1.8e-05
293.15	1	0.001145	1.5e-05
298.15	0	0.011716	0.000162
298.15	0.1003	0.008685	0.000119
298.15	0.2003	0.006471	8.8e-05
298.15	0.3005	0.004833	6.5e-05
298.15	0.3972	0.003775	5e-05
298.15	0.4989	0.0028	3.7e-05
298.15	0.5997	0.002254	2.9e-05
298.15	0.7007	0.001793	2.3e-05
298.15	0.8	0.001486	1.9e-05
298.15	0.8987	0.001256	1.6e-05
298.15	1	0.001062	1.4e-05
303.15	0	0.009708	0.000133
303.15	0.1003	0.007267	9.9e-05
303.15	0.2003	0.005479	7.4e-05
303.15	0.3005	0.004152	5.6e-05
303.15	0.3972	0.003283	4.4e-05
303.15	0.4989	0.002477	3.3e-05
303.15	0.5997	0.002015	2.6e-05
303.15	0.7007	0.001628	2.1e-05
303.15	0.8	0.001368	1.8e-05
303.15	0.8987	0.001154	1.5e-05
303.15	1	0.000982	1.3e-05
308.15	0	0.008108	0.000111
308.15	0.1003	0.006125	8.4e-05
308.15	0.2003	0.004678	6.3e-05
308.15	0.3005	0.003591	4.8e-05
308.15	0.3972	0.002873	3.8e-05
308.15	0.4989	0.002202	2.9e-05
308.15	0.5997	0.001814	2.4e-05
308.15	0.7007	0.001508	1.9e-05
308.15	0.8	0.001252	1.6e-05
308.15	0.8987	0.00106	1.4e-05
308.15	1	0.00091	1.2e-05
313.15	0	0.006818	9.3e-05
313.15	0.1003	0.0052	7.1e-05
313.15	0.2003	0.004018	5.4e-05
313.15	0.3005	0.003127	4.2e-05
313.15	0.3972	0.002533	3.3e-05
313.15	0.4989	0.00197	2.6e-05
313.15	0.5997	0.001644	2.1e-05
313.15	0.7007	0.001376	1.8e-05
313.15	0.8	0.001149	1.5e-05
313.15	0.8987	0.000979	1.3e-05
313.15	1	0.000847	1.1e-05
318.15	0	0.005771	7.9e-05
318.15	0.1003	0.004447	6e-05
318.15	0.2003	0.003475	4.7e-05
318.15	0.3005	0.002741	3.6e-05
318.15	0.3972	0.00226	3e-05
318.15	0.4989	0.001773	2.3e-05
318.15	0.5997	0.001518	2e-05
318.15	0.7007	0.001256	1.6e-05
318.15	0.8	0.001058	1.4e-05
318.15	0.8987	0.000908	1.2e-05
318.15	1	0.00079	1e-05
323.15	0	0.004918	6.7e-05
323.15	0.1003	0.003825	5.2e-05
323.15	0.2003	0.00302	4.1e-05
323.15	0.3005	0.002418	3.2e-05
323.15	0.3972	0.002006	2.6e-05
323.15	0.4989	0.001655	2.2e-05
323.15	0.5997	0.001382	1.8e-05
323.15	0.7007	0.001152	1.5e-05
323.15	0.8	0.000975	1.3e-05
323.15	0.8987	0.000846	1.1e-05
323.15	1	0.00074	9e-06
328.15	0	0.004217	5.7e-05
328.15	0.1003	0.003312	4.5e-05
328.15	0.2003	0.002648	3.5e-05
328.15	0.3005	0.002149	2.9e-05
328.15	0.3972	0.001799	2.4e-05
328.15	0.4989	0.001505	2e-05
328.15	0.5997	0.001261	1.6e-05
328.15	0.7007	0.001058	1.4e-05
328.15	0.8	0.000904	1.2e-05
328.15	0.8987	0.000788	1e-05
328.15	1	0.000692	9e-06
333.15	0	0.003624	4.9e-05
333.15	0.1003	0.002889	3.9e-05
333.15	0.2003	0.002339	3.1e-05
333.15	0.3005	0.001914	2.5e-05
333.15	0.3972	0.001631	2.1e-05
333.15	0.4989	0.001367	1.8e-05
333.15	0.5997	0.001155	1.5e-05
333.15	0.7007	0.000976	1.3e-05
333.15	0.8	0.000838	1.1e-05
333.15	0.8987	0.000737	9e-06
333.15	1	0.000651	8e-06
338.15	0	0.003144	4.3e-05
338.15	0.1003	0.002537	3.4e-05
338.15	0.2003	0.002081	2.8e-05
338.15	0.3005	0.001725	2.3e-05
338.15	0.3972	0.001499	2e-05
338.15	0.4989	0.001245	1.6e-05
338.15	0.5997	0.001059	1.4e-05
338.15	0.7007	0.000903	1.2e-05
338.15	0.8	0.000779	1e-05
338.15	0.8987	0.00069	9e-06
338.15	1	0.000615	8e-06
343.15	0	0.002767	3.7e-05
343.15	0.1003	0.002243	3e-05
343.15	0.2003	0.001862	2.5e-05
343.15	0.3005	0.001566	2.1e-05
343.15	0.3972	0.001361	1.8e-05
343.15	0.4989	0.00114	1.5e-05
343.15	0.5997	0.000976	1.3e-05
343.15	0.7007	0.000837	1.1e-05
343.15	0.8	0.000728	9e-06
343.15	0.8987	0.000648	8e-06
343.15	1	0.00058	7e-06
348.15	0	0.002415	3.3e-05
348.15	0.1003	0.001988	2.7e-05
348.15	0.2003	0.001681	2.2e-05
348.15	0.3005	0.001456	1.9e-05
348.15	0.3972	0.001241	1.6e-05
348.15	0.4989	0.001048	1.4e-05
348.15	0.5997	0.000901	1.2e-05
348.15	0.7007	0.000777	1e-05
348.15	0.8	0.000681	9e-06
348.15	0.8987	0.00061	8e-06
348.15	1	0.000549	7e-06
353.15	0	0.002139	2.9e-05
353.15	0.1003	0.001783	2.4e-05
353.15	0.2003	0.001553	2.1e-05
353.15	0.3005	0.001325	1.7e-05
353.15	0.3972	0.001137	1.5e-05
353.15	0.4989	0.000964	1.3e-05
353.15	0.5997	0.000835	1.1e-05
353.15	0.7007	0.000724	9e-06
353.15	0.8	0.000638	8e-06
353.15	0.8987	0.000578	7e-06
353.15	1	0.000522	7e-06
358.15	0	0.001922	2.6e-05
358.15	0.1003	0.001612	2.2e-05
358.15	0.2003	0.001404	1.9e-05
358.15	0.3005	0.001206	1.6e-05
358.15	0.3972	0.001041	1.4e-05
358.15	0.4989	0.000891	1.2e-05
358.15	0.5997	0.000774	1e-05
358.15	0.7007	0.000675	9e-06
358.15	0.8	0.000605	8e-06
358.15	0.8987	0.000547	7e-06
358.15	1	0.000497	6e-06
363.15	0	0.001718	2.3e-05
363.15	0.1003	0.001468	2e-05
363.15	0.2003	0.001277	1.7e-05
363.15	0.3005	0.001104	1.5e-05
363.15	0.3972	0.000957	1.3e-05
363.15	0.4989	0.000825	1.1e-05
363.15	0.5997	0.000721	9e-06
363.15	0.7007	0.000632	8e-06
363.15	0.8	0.000564	7e-06
363.15	0.8987	0.00052	7e-06
363.15	1	0.000475	6e-06
