Measured thermophysical data. Densities and Viscosities for Binary Liquid Mixtures of Biodiesel + 1-Butanol, + Isobutyl Alcohol, or + 2-Butanol from 293.15 to 333.15 K at 0.1 MPa
Source: J. Chem. Eng. Data, 2017, 10.1021/acs.jced.7b00440
Compound 1: butan-1-ol, C4H10O, InChI=1S/C4H10O/c1-2-3-4-5/h5H,2-4H2,1H3, purity 99.5%
Compound 2: 2-methyl-1-propanol, C4H10O, InChI=1S/C4H10O/c1-4(2)3-5/h4-5H,3H2,1-2H3, purity 99%
Compound 3: butan-2-ol, C4H10O, InChI=1S/C4H10O/c1-3-4(2)5/h4-5H,3H2,1-2H3, purity 99.5%

System: butan-1-ol; phases: Liquid
Fixed: Pressure, kPa = 100
Property: Mass density, kg/m3 (Liquid); method: Vibrating tube method
Temperature, K	Mass density, kg/m3	uncertainty
293.15	809.01	0.2
298.15	805.87	0.2
303.15	802.06	0.21
308.15	798.18	0.21
313.15	794.26	0.21
318.15	790.3	0.21
323.15	786.29	0.21
328.15	782.02	0.21
333.15	777.81	0.21

System: butan-1-ol; phases: Liquid
Fixed: Pressure, kPa = 100
Property: Viscosity, Pa*s (Liquid); method: Capillary tube (Ostwald; Ubbelohde) method
Temperature, K	Viscosity, Pa*s	uncertainty
293.15	0.00297	5.6e-05
298.15	0.002547	4.8e-05
303.15	0.002237	4.2e-05
308.15	0.00198	3.8e-05
313.15	0.001757	3.3e-05
318.15	0.001568	3e-05
323.15	0.001404	2.7e-05
328.15	0.001255	2.4e-05
333.15	0.001132	2.2e-05

System: 2-methyl-1-propanol; phases: Liquid
Fixed: Pressure, kPa = 100
Property: Mass density, kg/m3 (Liquid); method: Vibrating tube method
Temperature, K	Mass density, kg/m3	uncertainty
293.15	801.98	0.27
298.15	798.13	0.27
303.15	794.24	0.27
308.15	790.29	0.27
313.15	786.3	0.27
318.15	782.24	0.27
323.15	778.12	0.27
328.15	773.92	0.27
333.15	769.65	0.27

System: 2-methyl-1-propanol; phases: Liquid
Fixed: Pressure, kPa = 100
Property: Viscosity, Pa*s (Liquid); method: Capillary tube (Ostwald; Ubbelohde) method
Temperature, K	Viscosity, Pa*s	uncertainty
293.15	0.004077	7.9e-05
298.15	0.003394	6.6e-05
303.15	0.002949	5.7e-05
308.15	0.00254	4.9e-05
313.15	0.002208	4.3e-05
318.15	0.001855	3.6e-05
323.15	0.001621	3.2e-05
328.15	0.001425	2.8e-05
333.15	0.00125	2.4e-05

System: butan-2-ol; phases: Liquid
Fixed: Pressure, kPa = 100
Property: Mass density, kg/m3 (Liquid); method: Vibrating tube method
Temperature, K	Mass density, kg/m3	uncertainty
293.15	807.17	0.2
298.15	803.05	0.21
303.15	798.85	0.21
308.15	794.55	0.21
313.15	790.16	0.21
318.15	785.66	0.21
323.15	781.05	0.21
328.15	776.34	0.21
333.15	771.51	0.21

System: butan-2-ol; phases: Liquid
Fixed: Pressure, kPa = 100
Property: Viscosity, Pa*s (Liquid); method: Capillary tube (Ostwald; Ubbelohde) method
Temperature, K	Viscosity, Pa*s	uncertainty
293.15	0.003742	7.1e-05
298.15	0.003093	5.9e-05
303.15	0.002579	4.9e-05
308.15	0.002147	4.1e-05
313.15	0.001826	3.5e-05
318.15	0.001555	3e-05
323.15	0.001337	2.5e-05
328.15	0.001142	2.2e-05
333.15	0.000992	1.9e-05
