Measured thermophysical data. Effect of Some Imidazolium-Based Ionic Liquids with Different Anions on the Thermodynamic Properties of Acetaminophen in Aqueous Media at T = 293.15 to 308.15 K
Source: J. Chem. Eng. Data, 2017, 10.1021/acs.jced.7b00464
Compound 1: N-acetyl-p-aminophenol, C8H9NO2, InChI=1S/C8H9NO2/c1-6(10)9-7-2-4-8(11)5-3-7/h2-5,11H,1H3,(H,9,10), purity 99%
Compound 2: water, H2O, InChI=1S/H2O/h1H2, purity 99.8%
Compound 3: 1-butyl-3-methylimidazolium bromide, C8H15BrN2, InChI=1S/C8H15N2.BrH/c1-3-4-5-10-7-6-9(2)8-10;/h6-8H,3-5H2,1-2H3;1H/q+1;/p-1, purity 98%
Compound 4: 1-butyl-3-methylimidazolium chloride, C8H15ClN2, InChI=1S/C8H15N2.ClH/c1-3-4-5-10-7-6-9(2)8-10;/h6-8H,3-5H2,1-2H3;1H/q+1;/p-1, purity 98%

System: N-acetyl-p-aminophenol + water + 1-butyl-3-methylimidazolium bromide; phases: Liquid
Fixed: Pressure, kPa = 101.3
Property: Mass density, kg/m3 (Liquid); method: Vibrating tube method
Temperature, K	Solvent: Molality, mol/kg of 1-butyl-3-methylimidazolium bromide	Molality, mol/kg of N-acetyl-p-aminophenol	Mass density, kg/m3	uncertainty
293.15	0.1009	0	1003.269	0.386
293.15	0.1009	0.0299	1004.082	0.386
293.15	0.1009	0.0329	1004.165	0.386
293.15	0.1009	0.0357	1004.243	0.386
293.15	0.1009	0.0395	1004.35	0.387
293.15	0.1009	0.043	1004.45	0.387
293.15	0.1009	0.0474	1004.578	0.387
293.15	0.1009	0.0495	1004.641	0.387
293.15	0.1009	0.0531	1004.743	0.387
293.15	0.1009	0.0559	1004.828	0.387
298.15	0.1009	0	1002.026	0.386
298.15	0.1009	0.0299	1002.828	0.388
298.15	0.1009	0.0329	1002.913	0.386
298.15	0.1009	0.0357	1002.994	0.386
298.15	0.1009	0.0395	1003.101	0.386
298.15	0.1009	0.043	1003.2	0.386
298.15	0.1009	0.0474	1003.329	0.386
298.15	0.1009	0.0495	1003.395	0.386
298.15	0.1009	0.0531	1003.499	0.386
298.15	0.1009	0.0559	1003.587	0.385
303.15	0.1009	0	1000.581	0.385
303.15	0.1009	0.0299	1001.376	0.388
303.15	0.1009	0.0329	1001.461	0.385
303.15	0.1009	0.0357	1001.541	0.385
303.15	0.1009	0.0395	1001.649	0.385
303.15	0.1009	0.043	1001.75	0.385
303.15	0.1009	0.0474	1001.88	0.385
303.15	0.1009	0.0495	1001.94	0.386
303.15	0.1009	0.0531	1002.046	0.385
303.15	0.1009	0.0559	1002.134	0.384
308.15	0.1009	0	998.918	0.384
308.15	0.1009	0.0299	999.691	0.384
308.15	0.1009	0.0329	999.773	0.384
308.15	0.1009	0.0357	999.849	0.384
308.15	0.1009	0.0395	999.95	0.384
308.15	0.1009	0.043	1000.046	0.384
308.15	0.1009	0.0474	1000.169	0.384
308.15	0.1009	0.0495	1000.231	0.384
308.15	0.1009	0.0531	1000.331	0.385
308.15	0.1009	0.0559	1000.417	0.385
293.15	0.2003	0	1008.106	0.388
293.15	0.2003	0.03	1008.907	0.391
293.15	0.2003	0.0326	1008.977	0.389
293.15	0.2003	0.0358	1009.067	0.389
293.15	0.2003	0.0395	1009.171	0.389
293.15	0.2003	0.0433	1009.277	0.389
293.15	0.2003	0.0477	1009.402	0.389
293.15	0.2003	0.0497	1009.463	0.389
293.15	0.2003	0.0531	1009.561	0.389
293.15	0.2003	0.0548	1009.613	0.388
298.15	0.2003	0	1006.832	0.388
298.15	0.2003	0.03	1007.616	0.392
298.15	0.2003	0.0326	1007.688	0.388
298.15	0.2003	0.0358	1007.776	0.388
298.15	0.2003	0.0395	1007.879	0.388
298.15	0.2003	0.0433	1007.984	0.388
298.15	0.2003	0.0477	1008.107	0.388
298.15	0.2003	0.0497	1008.164	0.388
298.15	0.2003	0.0531	1008.261	0.388
298.15	0.2003	0.0548	1008.314	0.387
303.15	0.2003	0	1005.315	0.387
303.15	0.2003	0.03	1006.091	0.39
303.15	0.2003	0.0326	1006.161	0.387
303.15	0.2003	0.0358	1006.247	0.387
303.15	0.2003	0.0395	1006.349	0.387
303.15	0.2003	0.0433	1006.452	0.387
303.15	0.2003	0.0477	1006.574	0.387
303.15	0.2003	0.0497	1006.629	0.388
303.15	0.2003	0.0531	1006.725	0.387
303.15	0.2003	0.0548	1006.776	0.386
308.15	0.2003	0	1003.616	0.386
308.15	0.2003	0.03	1004.374	0.389
308.15	0.2003	0.0326	1004.443	0.386
308.15	0.2003	0.0358	1004.526	0.386
308.15	0.2003	0.0395	1004.625	0.386
308.15	0.2003	0.0433	1004.728	0.386
308.15	0.2003	0.0477	1004.846	0.386
308.15	0.2003	0.0497	1004.901	0.387
308.15	0.2003	0.0531	1004.994	0.386
308.15	0.2003	0.0548	1005.044	0.386
293.15	0.2985	0	1012.676	0.39
293.15	0.2985	0.031	1013.485	0.39
293.15	0.2985	0.0326	1013.529	0.39
293.15	0.2985	0.0354	1013.605	0.391
293.15	0.2985	0.0392	1013.71	0.391
293.15	0.2985	0.0434	1013.824	0.391
293.15	0.2985	0.0473	1013.932	0.391
293.15	0.2985	0.0504	1014.018	0.391
293.15	0.2985	0.0531	1014.095	0.391
293.15	0.2985	0.0563	1014.188	0.392
298.15	0.2985	0	1011.327	0.389
298.15	0.2985	0.031	1012.119	0.389
298.15	0.2985	0.0326	1012.161	0.39
298.15	0.2985	0.0354	1012.233	0.39
298.15	0.2985	0.0392	1012.335	0.39
298.15	0.2985	0.0434	1012.448	0.39
298.15	0.2985	0.0473	1012.555	0.39
298.15	0.2985	0.0504	1012.639	0.39
298.15	0.2985	0.0531	1012.715	0.39
298.15	0.2985	0.0563	1012.805	0.389
303.15	0.2985	0	1009.769	0.389
303.15	0.2985	0.031	1010.553	0.388
303.15	0.2985	0.0326	1010.597	0.389
303.15	0.2985	0.0354	1010.671	0.389
303.15	0.2985	0.0392	1010.772	0.389
303.15	0.2985	0.0434	1010.883	0.389
303.15	0.2985	0.0473	1010.989	0.389
303.15	0.2985	0.0504	1011.073	0.389
303.15	0.2985	0.0531	1011.148	0.389
303.15	0.2985	0.0563	1011.237	0.388
308.15	0.2985	0	1007.999	0.388
308.15	0.2985	0.031	1008.764	0.387
308.15	0.2985	0.0326	1008.806	0.388
308.15	0.2985	0.0354	1008.878	0.388
308.15	0.2985	0.0392	1008.977	0.388
308.15	0.2985	0.0434	1009.086	0.388
308.15	0.2985	0.0473	1009.189	0.388
308.15	0.2985	0.0504	1009.273	0.388
308.15	0.2985	0.0531	1009.346	0.388
308.15	0.2985	0.0563	1009.434	0.389
293.15	0.4006	0	1017.539	0.393
293.15	0.4006	0.0302	1018.306	0.393
293.15	0.4006	0.0326	1018.37	0.393
293.15	0.4006	0.0362	1018.466	0.393
293.15	0.4006	0.0395	1018.553	0.393
293.15	0.4006	0.0433	1018.656	0.393
293.15	0.4006	0.0477	1018.775	0.393
293.15	0.4006	0.0503	1018.846	0.393
293.15	0.4006	0.0531	1018.922	0.393
293.15	0.4006	0.0562	1019.01	0.393
298.15	0.4006	0	1016.134	0.392
298.15	0.4006	0.0302	1016.884	0.395
298.15	0.4006	0.0326	1016.947	0.392
298.15	0.4006	0.0362	1017.042	0.392
298.15	0.4006	0.0395	1017.127	0.392
298.15	0.4006	0.0433	1017.227	0.392
298.15	0.4006	0.0477	1017.343	0.392
298.15	0.4006	0.0503	1017.414	0.393
298.15	0.4006	0.0531	1017.489	0.393
298.15	0.4006	0.0562	1017.574	0.392
303.15	0.4006	0	1014.503	0.391
303.15	0.4006	0.0302	1015.246	0.394
303.15	0.4006	0.0326	1015.308	0.391
303.15	0.4006	0.0362	1015.402	0.391
303.15	0.4006	0.0395	1015.487	0.391
303.15	0.4006	0.0433	1015.586	0.392
303.15	0.4006	0.0477	1015.702	0.391
303.15	0.4006	0.0503	1015.771	0.392
303.15	0.4006	0.0531	1015.846	0.392
303.15	0.4006	0.0562	1015.93	0.391
308.15	0.4006	0	1012.704	0.39
308.15	0.4006	0.0302	1013.427	0.39
308.15	0.4006	0.0326	1013.487	0.39
308.15	0.4006	0.0362	1013.578	0.39
308.15	0.4006	0.0395	1013.661	0.39
308.15	0.4006	0.0433	1013.757	0.391
308.15	0.4006	0.0477	1013.87	0.391
308.15	0.4006	0.0503	1013.938	0.391
308.15	0.4006	0.0531	1014.01	0.391
308.15	0.4006	0.0562	1014.092	0.391

System: N-acetyl-p-aminophenol + water + 1-butyl-3-methylimidazolium bromide; phases: Liquid
Fixed: Pressure, kPa = 101.3
Fixed: Frequency, MHz = 3
Property: Speed of sound, m/s (Liquid); method: Single path-length method
Temperature, K	Solvent: Molality, mol/kg of 1-butyl-3-methylimidazolium bromide	Molality, mol/kg of N-acetyl-p-aminophenol	Speed of sound, m/s	uncertainty
293.15	0.1009	0	1493.46	1.47
293.15	0.1009	0.0299	1495.14	1.47
293.15	0.1009	0.0329	1495.26	1.47
293.15	0.1009	0.0357	1495.37	1.47
293.15	0.1009	0.0395	1495.52	1.47
293.15	0.1009	0.043	1495.63	1.47
293.15	0.1009	0.0474	1495.77	1.47
293.15	0.1009	0.0495	1495.81	1.47
293.15	0.1009	0.0531	1495.91	1.47
293.15	0.1009	0.0559	1495.98	1.47
298.15	0.1009	0	1506.49	1.47
298.15	0.1009	0.0299	1508.15	1.49
298.15	0.1009	0.0329	1508.26	1.47
298.15	0.1009	0.0357	1508.34	1.47
298.15	0.1009	0.0395	1508.46	1.47
298.15	0.1009	0.043	1508.58	1.47
298.15	0.1009	0.0474	1508.69	1.47
298.15	0.1009	0.0495	1508.74	1.47
298.15	0.1009	0.0531	1508.84	1.47
298.15	0.1009	0.0559	1508.91	1.48
303.15	0.1009	0	1517.88	1.47
303.15	0.1009	0.0299	1519.35	1.48
303.15	0.1009	0.0329	1519.44	1.47
303.15	0.1009	0.0357	1519.53	1.47
303.15	0.1009	0.0395	1519.62	1.47
303.15	0.1009	0.043	1519.71	1.47
303.15	0.1009	0.0474	1519.81	1.47
303.15	0.1009	0.0495	1519.87	1.47
303.15	0.1009	0.0531	1519.96	1.47
303.15	0.1009	0.0559	1520.05	1.48
308.15	0.1009	0	1527.71	1.47
308.15	0.1009	0.0299	1529.07	1.47
308.15	0.1009	0.0329	1529.17	1.47
308.15	0.1009	0.0357	1529.24	1.47
308.15	0.1009	0.0395	1529.35	1.47
308.15	0.1009	0.043	1529.41	1.47
308.15	0.1009	0.0474	1529.54	1.47
308.15	0.1009	0.0495	1529.58	1.47
308.15	0.1009	0.0531	1529.7	1.47
308.15	0.1009	0.0559	1529.76	1.47
293.15	0.2003	0	1503.61	1.47
293.15	0.2003	0.03	1505.04	1.47
293.15	0.2003	0.0326	1505.13	1.47
293.15	0.2003	0.0358	1505.23	1.47
293.15	0.2003	0.0395	1505.34	1.47
293.15	0.2003	0.0433	1505.46	1.47
293.15	0.2003	0.0477	1505.58	1.47
293.15	0.2003	0.0497	1505.61	1.47
293.15	0.2003	0.0531	1505.71	1.47
293.15	0.2003	0.0548	1505.73	1.47
298.15	0.2003	0	1515.79	1.47
298.15	0.2003	0.03	1517.18	1.49
298.15	0.2003	0.0326	1517.24	1.47
298.15	0.2003	0.0358	1517.33	1.47
298.15	0.2003	0.0395	1517.45	1.47
298.15	0.2003	0.0433	1517.55	1.47
298.15	0.2003	0.0477	1517.66	1.47
298.15	0.2003	0.0497	1517.7	1.47
298.15	0.2003	0.0531	1517.78	1.47
298.15	0.2003	0.0548	1517.81	1.47
303.15	0.2003	0	1526.19	1.47
303.15	0.2003	0.03	1527.49	1.48
303.15	0.2003	0.0326	1527.55	1.47
303.15	0.2003	0.0358	1527.64	1.47
303.15	0.2003	0.0395	1527.74	1.47
303.15	0.2003	0.0433	1527.86	1.47
303.15	0.2003	0.0477	1527.94	1.47
303.15	0.2003	0.0497	1527.99	1.47
303.15	0.2003	0.0531	1528.05	1.47
303.15	0.2003	0.0548	1528.08	1.47
308.15	0.2003	0	1535.21	1.47
308.15	0.2003	0.03	1536.44	1.47
308.15	0.2003	0.0326	1536.52	1.47
308.15	0.2003	0.0358	1536.62	1.47
308.15	0.2003	0.0395	1536.73	1.47
308.15	0.2003	0.0433	1536.84	1.47
308.15	0.2003	0.0477	1536.94	1.47
308.15	0.2003	0.0497	1536.99	1.47
308.15	0.2003	0.0531	1537.07	1.47
308.15	0.2003	0.0548	1537.11	1.47
293.15	0.2985	0	1512.88	1.47
293.15	0.2985	0.031	1514.27	1.47
293.15	0.2985	0.0326	1514.32	1.47
293.15	0.2985	0.0354	1514.4	1.47
293.15	0.2985	0.0392	1514.53	1.47
293.15	0.2985	0.0434	1514.61	1.47
293.15	0.2985	0.0473	1514.73	1.47
293.15	0.2985	0.0504	1514.84	1.47
293.15	0.2985	0.0531	1514.91	1.47
293.15	0.2985	0.0563	1515	1.47
298.15	0.2985	0	1524.53	1.47
298.15	0.2985	0.031	1525.81	1.47
298.15	0.2985	0.0326	1525.86	1.47
298.15	0.2985	0.0354	1525.92	1.47
298.15	0.2985	0.0392	1526.01	1.47
298.15	0.2985	0.0434	1526.1	1.47
298.15	0.2985	0.0473	1526.18	1.47
298.15	0.2985	0.0504	1526.25	1.47
298.15	0.2985	0.0531	1526.31	1.47
298.15	0.2985	0.0563	1526.38	1.48
303.15	0.2985	0	1534.07	1.47
303.15	0.2985	0.031	1535.24	1.47
303.15	0.2985	0.0326	1535.28	1.47
303.15	0.2985	0.0354	1535.34	1.47
303.15	0.2985	0.0392	1535.44	1.47
303.15	0.2985	0.0434	1535.53	1.47
303.15	0.2985	0.0473	1535.6	1.47
303.15	0.2985	0.0504	1535.66	1.47
303.15	0.2985	0.0531	1535.71	1.47
303.15	0.2985	0.0563	1535.78	1.47
308.15	0.2985	0	1542.36	1.47
308.15	0.2985	0.031	1543.48	1.47
308.15	0.2985	0.0326	1543.52	1.47
308.15	0.2985	0.0354	1543.58	1.47
308.15	0.2985	0.0392	1543.66	1.47
308.15	0.2985	0.0434	1543.75	1.47
308.15	0.2985	0.0473	1543.84	1.47
308.15	0.2985	0.0504	1543.89	1.47
308.15	0.2985	0.0531	1543.95	1.47
308.15	0.2985	0.0563	1544	1.47
293.15	0.4006	0	1522.64	1.47
293.15	0.4006	0.0302	1523.93	1.47
293.15	0.4006	0.0326	1523.98	1.47
293.15	0.4006	0.0362	1524.08	1.47
293.15	0.4006	0.0395	1524.15	1.47
293.15	0.4006	0.0433	1524.25	1.47
293.15	0.4006	0.0477	1524.35	1.47
293.15	0.4006	0.0503	1524.41	1.47
293.15	0.4006	0.0531	1524.46	1.47
293.15	0.4006	0.0562	1524.51	1.47
298.15	0.4006	0	1533.06	1.47
298.15	0.4006	0.0302	1534.29	1.49
298.15	0.4006	0.0326	1534.35	1.47
298.15	0.4006	0.0362	1534.45	1.47
298.15	0.4006	0.0395	1534.52	1.47
298.15	0.4006	0.0433	1534.61	1.47
298.15	0.4006	0.0477	1534.72	1.47
298.15	0.4006	0.0503	1534.76	1.47
298.15	0.4006	0.0531	1534.81	1.47
298.15	0.4006	0.0562	1534.87	1.48
303.15	0.4006	0	1541.99	1.47
303.15	0.4006	0.0302	1543.06	1.48
303.15	0.4006	0.0326	1543.11	1.47
303.15	0.4006	0.0362	1543.2	1.47
303.15	0.4006	0.0395	1543.26	1.47
303.15	0.4006	0.0433	1543.33	1.47
303.15	0.4006	0.0477	1543.41	1.47
303.15	0.4006	0.0503	1543.44	1.47
303.15	0.4006	0.0531	1543.48	1.47
303.15	0.4006	0.0562	1543.53	1.47
308.15	0.4006	0	1549.37	1.47
308.15	0.4006	0.0302	1550.4	1.47
308.15	0.4006	0.0326	1550.46	1.47
308.15	0.4006	0.0362	1550.52	1.47
308.15	0.4006	0.0395	1550.59	1.47
308.15	0.4006	0.0433	1550.65	1.47
308.15	0.4006	0.0477	1550.71	1.47
308.15	0.4006	0.0503	1550.75	1.47
308.15	0.4006	0.0531	1550.79	1.47
308.15	0.4006	0.0562	1550.84	1.47

System: N-acetyl-p-aminophenol + water + 1-butyl-3-methylimidazolium bromide; phases: Liquid
Fixed: Pressure, kPa = 101.3
Fixed: Frequency, MHz = 0.0003
Property: Electrical conductivity, S/m (Liquid); method: Alternating current cell with electrodes
Temperature, K	Solvent: Molality, mol/kg of N-acetyl-p-aminophenol	Molality, mol/kg of 1-butyl-3-methylimidazolium bromide	Electrical conductivity, S/m	uncertainty
293.15	0.0304	0.000302	0.0034	0.004006
293.15	0.0304	0.000627	0.006681	0.00391
293.15	0.0304	0.000899	0.009357	0.003955
293.15	0.0304	0.001225	0.01244	0.003912
293.15	0.0304	0.001571	0.0156	0.00392
293.15	0.0304	0.001907	0.01856	0.003981
293.15	0.0304	0.002233	0.02135	0.004075
293.15	0.0304	0.002599	0.02454	0.004186
293.15	0.0304	0.002933	0.02742	0.004352
293.15	0.0304	0.003327	0.0306	0.004527
293.15	0.0304	0.003665	0.03345	0.004716
293.15	0.0304	0.004009	0.0363	0.004949
293.15	0.0304	0.00433	0.03903	0.005125
293.15	0.0304	0.004622	0.04149	0.005356
293.15	0.0304	0.004961	0.04421	0.005507
298.15	0.0304	0.000267	0.003103	0.004085
298.15	0.0304	0.000502	0.00556	0.00398
298.15	0.0304	0.000799	0.008538	0.004028
298.15	0.0304	0.001064	0.01112	0.003991
298.15	0.0304	0.001296	0.01327	0.003945
298.15	0.0304	0.001542	0.01555	0.003943
298.15	0.0304	0.001854	0.01836	0.004018
298.15	0.0304	0.00211	0.0206	0.004061
298.15	0.0304	0.002363	0.02279	0.004095
298.15	0.0304	0.002661	0.02534	0.004213
298.15	0.0304	0.003001	0.02812	0.004369
298.15	0.0304	0.003333	0.03089	0.004526
298.15	0.0304	0.003607	0.03317	0.004687
298.15	0.0304	0.003965	0.03611	0.004663
298.15	0.0304	0.004235	0.03835	0.004769
303.15	0.0304	0.0003	0.003558	0.004062
303.15	0.0304	0.000637	0.00711	0.003738
303.15	0.0304	0.000964	0.0104	0.003978
303.15	0.0304	0.001262	0.01322	0.003876
303.15	0.0304	0.0016	0.01628	0.003888
303.15	0.0304	0.001945	0.01941	0.003991
303.15	0.0304	0.002245	0.02197	0.00394
303.15	0.0304	0.002594	0.02484	0.004036
303.15	0.0304	0.002941	0.02738	0.004071
303.15	0.0304	0.003261	0.02988	0.004109
303.15	0.0304	0.003593	0.03214	0.004279
303.15	0.0304	0.003954	0.03454	0.004402
303.15	0.0304	0.004275	0.0367	0.004863
303.15	0.0304	0.004629	0.03908	0.004745
308.15	0.0304	0.000147	0.002451	0.004919
308.15	0.0304	0.000523	0.007288	0.004547
308.15	0.0304	0.00083	0.01084	0.004722
308.15	0.0304	0.001082	0.01356	0.004426
308.15	0.0304	0.001426	0.01712	0.004287
308.15	0.0304	0.001705	0.01975	0.004204
308.15	0.0304	0.002004	0.02237	0.004129
308.15	0.0304	0.002308	0.02493	0.004116
308.15	0.0304	0.002539	0.02677	0.004081
308.15	0.0304	0.002836	0.029	0.004118
308.15	0.0304	0.003125	0.03101	0.00414
308.15	0.0304	0.003391	0.03285	0.004171
308.15	0.0304	0.003676	0.03456	0.003755
308.15	0.0304	0.004029	0.03668	0.003887
293.15	0.0601	0.000273	0.002984	0.003843
293.15	0.0601	0.000562	0.005797	0.003797
293.15	0.0601	0.000901	0.009	0.003856
293.15	0.0601	0.001204	0.01182	0.003847
293.15	0.0601	0.00154	0.01486	0.003886
293.15	0.0601	0.001884	0.0179	0.003953
293.15	0.0601	0.002223	0.02087	0.004054
293.15	0.0601	0.002549	0.02367	0.004132
293.15	0.0601	0.002914	0.0268	0.004268
293.15	0.0601	0.003296	0.02986	0.004429
293.15	0.0601	0.00364	0.03264	0.004569
293.15	0.0601	0.003928	0.03494	0.004687
293.15	0.0601	0.004279	0.03771	0.004872
293.15	0.0601	0.00464	0.04036	0.005056
293.15	0.0601	0.005025	0.04333	0.005278
298.15	0.0601	0.000311	0.003417	0.003891
298.15	0.0601	0.00064	0.006654	0.003818
298.15	0.0601	0.000901	0.00915	0.003867
298.15	0.0601	0.001261	0.01248	0.003872
298.15	0.0601	0.001648	0.016	0.003947
298.15	0.0601	0.001975	0.0189	0.00403
298.15	0.0601	0.002328	0.02203	0.00412
298.15	0.0601	0.002612	0.0245	0.004189
298.15	0.0601	0.002907	0.02695	0.004276
298.15	0.0601	0.003215	0.02943	0.004404
298.15	0.0601	0.00355	0.03218	0.004543
298.15	0.0601	0.003837	0.03455	0.004722
298.15	0.0601	0.004171	0.0371	0.004876
298.15	0.0601	0.00441	0.039	0.004933
298.15	0.0601	0.004698	0.04127	0.004805
303.15	0.0601	0.000276	0.003187	0.00386
303.15	0.0601	0.00064	0.00675	0.003734
303.15	0.0601	0.000888	0.009132	0.003904
303.15	0.0601	0.001259	0.01258	0.003884
303.15	0.0601	0.001542	0.0152	0.003968
303.15	0.0601	0.001819	0.01764	0.003948
303.15	0.0601	0.002061	0.01976	0.004006
303.15	0.0601	0.002314	0.02199	0.004008
303.15	0.0601	0.002623	0.0246	0.004133
303.15	0.0601	0.002967	0.0273	0.004235
303.15	0.0601	0.003241	0.02957	0.004351
303.15	0.0601	0.003554	0.03203	0.004539
303.15	0.0601	0.003789	0.03391	0.004617
303.15	0.0601	0.004043	0.03597	0.004624
303.15	0.0601	0.00434	0.03827	0.004792
308.15	0.0601	0.000313	0.003841	0.004169
308.15	0.0601	0.000661	0.007492	0.003845
308.15	0.0601	0.000915	0.010088	0.004
308.15	0.0601	0.001047	0.01133	0.004047
308.15	0.0601	0.001679	0.01709	0.003856
308.15	0.0601	0.002297	0.02213	0.003842
308.15	0.0601	0.002595	0.02437	0.003896
308.15	0.0601	0.002926	0.02688	0.003947
308.15	0.0601	0.00325	0.02899	0.004046
308.15	0.0601	0.003544	0.03114	0.004117
308.15	0.0601	0.00392	0.03372	0.00424
308.15	0.0601	0.004265	0.0359	0.004381
308.15	0.0601	0.004923	0.03979	0.004636
308.15	0.0601	0.005211	0.04155	0.004793
308.15	0.0601	0.00555	0.04354	0.004968

System: N-acetyl-p-aminophenol + water + 1-butyl-3-methylimidazolium chloride; phases: Liquid
Fixed: Pressure, kPa = 101.3
Property: Mass density, kg/m3 (Liquid); method: Vibrating tube method
Temperature, K	Solvent: Molality, mol/kg of 1-butyl-3-methylimidazolium chloride	Molality, mol/kg of N-acetyl-p-aminophenol	Mass density, kg/m3	uncertainty
293.15	0.101	0	999.535	0.382
293.15	0.101	0.0304	1000.372	0.382
293.15	0.101	0.0329	1000.443	0.382
293.15	0.101	0.0358	1000.527	0.382
293.15	0.101	0.0395	1000.631	0.382
293.15	0.101	0.0433	1000.741	0.382
293.15	0.101	0.0474	1000.86	0.382
293.15	0.101	0.0495	1000.922	0.382
293.15	0.101	0.0531	1001.027	0.382
293.15	0.101	0.0555	1001.099	0.382
298.15	0.101	0	998.308	0.382
298.15	0.101	0.0304	999.135	0.385
298.15	0.101	0.0329	999.207	0.382
298.15	0.101	0.0358	999.29	0.382
298.15	0.101	0.0395	999.394	0.382
298.15	0.101	0.0433	999.504	0.382
298.15	0.101	0.0474	999.623	0.381
298.15	0.101	0.0495	999.687	0.382
298.15	0.101	0.0531	999.792	0.382
298.15	0.101	0.0555	999.866	0.381
303.15	0.101	0	996.883	0.382
303.15	0.101	0.0304	997.697	0.385
303.15	0.101	0.0329	997.768	0.382
303.15	0.101	0.0358	997.851	0.382
303.15	0.101	0.0395	997.955	0.382
303.15	0.101	0.0433	998.063	0.382
303.15	0.101	0.0474	998.181	0.381
303.15	0.101	0.0495	998.243	0.382
303.15	0.101	0.0531	998.347	0.381
303.15	0.101	0.0555	998.42	0.381
308.15	0.101	0	995.222	0.381
308.15	0.101	0.0304	996.018	0.381
308.15	0.101	0.0329	996.087	0.381
308.15	0.101	0.0358	996.167	0.381
308.15	0.101	0.0395	996.268	0.381
308.15	0.101	0.0433	996.374	0.381
308.15	0.101	0.0474	996.488	0.381
308.15	0.101	0.0495	996.549	0.382
308.15	0.101	0.0531	996.65	0.382
308.15	0.101	0.0555	996.722	0.382
293.15	0.1997	0	1000.819	0.382
293.15	0.1997	0.0301	1001.643	0.383
293.15	0.1997	0.0326	1001.713	0.382
293.15	0.1997	0.0356	1001.8	0.383
293.15	0.1997	0.0395	1001.911	0.383
293.15	0.1997	0.0429	1002.009	0.383
293.15	0.1997	0.0477	1002.148	0.383
293.15	0.1997	0.0499	1002.21	0.383
293.15	0.1997	0.0531	1002.305	0.383
293.15	0.1997	0.0555	1002.377	0.382
298.15	0.1997	0	999.565	0.382
298.15	0.1997	0.0301	1000.374	0.384
298.15	0.1997	0.0326	1000.443	0.382
298.15	0.1997	0.0356	1000.528	0.382
298.15	0.1997	0.0395	1000.637	0.382
298.15	0.1997	0.0429	1000.734	0.382
298.15	0.1997	0.0477	1000.87	0.382
298.15	0.1997	0.0499	1000.933	0.382
298.15	0.1997	0.0531	1001.025	0.382
298.15	0.1997	0.0555	1001.097	0.381
303.15	0.1997	0	998.065	0.382
303.15	0.1997	0.0301	998.861	0.384
303.15	0.1997	0.0326	998.928	0.382
303.15	0.1997	0.0356	999.013	0.382
303.15	0.1997	0.0395	999.12	0.381
303.15	0.1997	0.0429	999.215	0.382
303.15	0.1997	0.0477	999.349	0.381
303.15	0.1997	0.0499	999.41	0.382
303.15	0.1997	0.0531	999.501	0.382
303.15	0.1997	0.0555	999.571	0.381
308.15	0.1997	0	996.342	0.381
308.15	0.1997	0.0301	997.125	0.381
308.15	0.1997	0.0326	997.191	0.381
308.15	0.1997	0.0356	997.273	0.381
308.15	0.1997	0.0395	997.378	0.381
308.15	0.1997	0.0429	997.473	0.381
308.15	0.1997	0.0477	997.605	0.381
308.15	0.1997	0.0499	997.665	0.382
308.15	0.1997	0.0531	997.755	0.382
308.15	0.1997	0.0555	997.824	0.382
293.15	0.3007	0	1002.099	0.383
293.15	0.3007	0.03	1002.912	0.383
293.15	0.3007	0.0326	1002.985	0.383
293.15	0.3007	0.0354	1003.064	0.383
293.15	0.3007	0.0392	1003.171	0.383
293.15	0.3007	0.043	1003.279	0.383
293.15	0.3007	0.0473	1003.403	0.383
293.15	0.3007	0.05	1003.481	0.383
293.15	0.3007	0.0531	1003.571	0.383
293.15	0.3007	0.0555	1003.642	0.383
298.15	0.3007	0	1000.788	0.382
298.15	0.3007	0.03	1001.588	0.384
298.15	0.3007	0.0326	1001.66	0.382
298.15	0.3007	0.0354	1001.737	0.383
298.15	0.3007	0.0392	1001.843	0.382
298.15	0.3007	0.043	1001.949	0.383
298.15	0.3007	0.0473	1002.07	0.383
298.15	0.3007	0.05	1002.147	0.383
298.15	0.3007	0.0531	1002.236	0.383
298.15	0.3007	0.0555	1002.307	0.382
303.15	0.3007	0	999.244	0.382
303.15	0.3007	0.03	1000.029	0.383
303.15	0.3007	0.0326	1000.1	0.382
303.15	0.3007	0.0354	1000.176	0.382
303.15	0.3007	0.0392	1000.28	0.382
303.15	0.3007	0.043	1000.384	0.382
303.15	0.3007	0.0473	1000.503	0.382
303.15	0.3007	0.05	1000.578	0.382
303.15	0.3007	0.0531	1000.665	0.382
303.15	0.3007	0.0555	1000.734	0.381
308.15	0.3007	0	997.484	0.381
308.15	0.3007	0.03	998.256	0.382
308.15	0.3007	0.0326	998.326	0.381
308.15	0.3007	0.0354	998.401	0.381
308.15	0.3007	0.0392	998.503	0.381
308.15	0.3007	0.043	998.605	0.381
308.15	0.3007	0.0473	998.723	0.381
308.15	0.3007	0.05	998.797	0.382
308.15	0.3007	0.0531	998.883	0.382
308.15	0.3007	0.0555	998.951	0.381
293.15	0.4004	0	1003.371	0.383
293.15	0.4004	0.0298	1004.172	0.384
293.15	0.4004	0.0326	1004.248	0.384
293.15	0.4004	0.0359	1004.338	0.384
293.15	0.4004	0.039	1004.426	0.384
293.15	0.4004	0.043	1004.539	0.384
293.15	0.4004	0.0475	1004.667	0.384
293.15	0.4004	0.0497	1004.73	0.384
293.15	0.4004	0.0532	1004.827	0.384
293.15	0.4004	0.0557	1004.899	0.384
298.15	0.4004	0	1001.999	0.383
298.15	0.4004	0.0298	1002.788	0.386
298.15	0.4004	0.0326	1002.864	0.383
298.15	0.4004	0.0359	1002.954	0.383
298.15	0.4004	0.039	1003.041	0.383
298.15	0.4004	0.043	1003.151	0.383
298.15	0.4004	0.0475	1003.277	0.383
298.15	0.4004	0.0497	1003.339	0.383
298.15	0.4004	0.0532	1003.439	0.383
298.15	0.4004	0.0557	1003.511	0.382
303.15	0.4004	0	1000.397	0.382
303.15	0.4004	0.0298	1001.172	0.385
303.15	0.4004	0.0326	1001.248	0.382
303.15	0.4004	0.0359	1001.336	0.382
303.15	0.4004	0.039	1001.421	0.382
303.15	0.4004	0.043	1001.529	0.382
303.15	0.4004	0.0475	1001.653	0.382
303.15	0.4004	0.0497	1001.715	0.383
303.15	0.4004	0.0532	1001.813	0.382
303.15	0.4004	0.0557	1001.883	0.381
308.15	0.4004	0	998.586	0.381
308.15	0.4004	0.0298	999.349	0.381
308.15	0.4004	0.0326	999.423	0.381
308.15	0.4004	0.0359	999.51	0.381
308.15	0.4004	0.039	999.594	0.381
308.15	0.4004	0.043	999.701	0.382
308.15	0.4004	0.0475	999.823	0.382
308.15	0.4004	0.0497	999.883	0.382
308.15	0.4004	0.0532	999.98	0.382
308.15	0.4004	0.0557	1000.049	0.382

System: N-acetyl-p-aminophenol + water + 1-butyl-3-methylimidazolium chloride; phases: Liquid
Fixed: Pressure, kPa = 101.3
Fixed: Frequency, MHz = 3
Property: Speed of sound, m/s (Liquid); method: Single path-length method
Temperature, K	Solvent: Molality, mol/kg of 1-butyl-3-methylimidazolium chloride	Molality, mol/kg of N-acetyl-p-aminophenol	Speed of sound, m/s	uncertainty
293.15	0.101	0	1496.72	1.47
293.15	0.101	0.0304	1498.5	1.47
293.15	0.101	0.0329	1498.63	1.47
293.15	0.101	0.0358	1498.78	1.47
293.15	0.101	0.0395	1498.95	1.47
293.15	0.101	0.0433	1499.06	1.47
293.15	0.101	0.0474	1499.21	1.47
293.15	0.101	0.0495	1499.29	1.47
293.15	0.101	0.0531	1499.39	1.47
293.15	0.101	0.0555	1499.48	1.47
298.15	0.101	0	1509.78	1.47
298.15	0.101	0.0304	1511.53	1.5
298.15	0.101	0.0329	1511.65	1.47
298.15	0.101	0.0358	1511.77	1.47
298.15	0.101	0.0395	1511.91	1.47
298.15	0.101	0.0433	1512.04	1.47
298.15	0.101	0.0474	1512.19	1.47
298.15	0.101	0.0495	1512.26	1.47
298.15	0.101	0.0531	1512.37	1.47
298.15	0.101	0.0555	1512.44	1.49
303.15	0.101	0	1521.14	1.47
303.15	0.101	0.0304	1522.73	1.49
303.15	0.101	0.0329	1522.82	1.47
303.15	0.101	0.0358	1522.93	1.47
303.15	0.101	0.0395	1523.06	1.47
303.15	0.101	0.0433	1523.17	1.47
303.15	0.101	0.0474	1523.29	1.47
303.15	0.101	0.0495	1523.34	1.47
303.15	0.101	0.0531	1523.43	1.47
303.15	0.101	0.0555	1523.52	1.48
308.15	0.101	0	1530.82	1.47
308.15	0.101	0.0304	1532.25	1.47
308.15	0.101	0.0329	1532.35	1.47
308.15	0.101	0.0358	1532.46	1.47
308.15	0.101	0.0395	1532.58	1.47
308.15	0.101	0.0433	1532.71	1.47
308.15	0.101	0.0474	1532.84	1.47
308.15	0.101	0.0495	1532.9	1.47
308.15	0.101	0.0531	1533	1.47
308.15	0.101	0.0555	1533.07	1.47
293.15	0.1997	0	1510.41	1.47
293.15	0.1997	0.0301	1511.95	1.48
293.15	0.1997	0.0326	1512.04	1.47
293.15	0.1997	0.0356	1512.15	1.47
293.15	0.1997	0.0395	1512.28	1.47
293.15	0.1997	0.0429	1512.39	1.47
293.15	0.1997	0.0477	1512.54	1.47
293.15	0.1997	0.0499	1512.59	1.47
293.15	0.1997	0.0531	1512.69	1.47
293.15	0.1997	0.0555	1512.76	1.47
298.15	0.1997	0	1522.65	1.47
298.15	0.1997	0.0301	1524.2	1.5
298.15	0.1997	0.0326	1524.29	1.47
298.15	0.1997	0.0356	1524.4	1.47
298.15	0.1997	0.0395	1524.53	1.47
298.15	0.1997	0.0429	1524.64	1.47
298.15	0.1997	0.0477	1524.8	1.47
298.15	0.1997	0.0499	1524.86	1.47
298.15	0.1997	0.0531	1524.96	1.47
298.15	0.1997	0.0555	1525.02	1.49
303.15	0.1997	0	1532.96	1.47
303.15	0.1997	0.0301	1534.5	1.49
303.15	0.1997	0.0326	1534.59	1.47
303.15	0.1997	0.0356	1534.7	1.47
303.15	0.1997	0.0395	1534.83	1.47
303.15	0.1997	0.0429	1534.93	1.47
303.15	0.1997	0.0477	1535.09	1.47
303.15	0.1997	0.0499	1535.14	1.47
303.15	0.1997	0.0531	1535.23	1.47
303.15	0.1997	0.0555	1535.3	1.48
308.15	0.1997	0	1541.95	1.47
308.15	0.1997	0.0301	1543.32	1.48
308.15	0.1997	0.0326	1543.42	1.47
308.15	0.1997	0.0356	1543.52	1.47
308.15	0.1997	0.0395	1543.66	1.47
308.15	0.1997	0.0429	1543.76	1.47
308.15	0.1997	0.0477	1543.9	1.47
308.15	0.1997	0.0499	1543.96	1.47
308.15	0.1997	0.0531	1544.04	1.47
308.15	0.1997	0.0555	1544.11	1.47
293.15	0.3007	0	1523.59	1.47
293.15	0.3007	0.03	1525.1	1.48
293.15	0.3007	0.0326	1525.2	1.47
293.15	0.3007	0.0354	1525.3	1.47
293.15	0.3007	0.0392	1525.43	1.47
293.15	0.3007	0.043	1525.54	1.47
293.15	0.3007	0.0473	1525.69	1.47
293.15	0.3007	0.05	1525.76	1.47
293.15	0.3007	0.0531	1525.85	1.47
293.15	0.3007	0.0555	1525.91	1.47
298.15	0.3007	0	1534.72	1.47
298.15	0.3007	0.03	1536.21	1.48
298.15	0.3007	0.0326	1536.29	1.47
298.15	0.3007	0.0354	1536.38	1.47
298.15	0.3007	0.0392	1536.51	1.47
298.15	0.3007	0.043	1536.62	1.47
298.15	0.3007	0.0473	1536.74	1.47
298.15	0.3007	0.05	1536.81	1.47
298.15	0.3007	0.0531	1536.9	1.47
298.15	0.3007	0.0555	1536.95	1.47
303.15	0.3007	0	1544.34	1.47
303.15	0.3007	0.03	1545.7	1.48
303.15	0.3007	0.0326	1545.78	1.47
303.15	0.3007	0.0354	1545.85	1.47
303.15	0.3007	0.0392	1545.96	1.47
303.15	0.3007	0.043	1546.06	1.47
303.15	0.3007	0.0473	1546.16	1.47
303.15	0.3007	0.05	1546.22	1.47
303.15	0.3007	0.0531	1546.29	1.47
303.15	0.3007	0.0555	1546.34	1.47
308.15	0.3007	0	1552.66	1.47
308.15	0.3007	0.03	1553.95	1.47
308.15	0.3007	0.0326	1554.04	1.47
308.15	0.3007	0.0354	1554.12	1.47
308.15	0.3007	0.0392	1554.22	1.47
308.15	0.3007	0.043	1554.31	1.47
308.15	0.3007	0.0473	1554.41	1.47
308.15	0.3007	0.05	1554.48	1.47
308.15	0.3007	0.0531	1554.55	1.47
308.15	0.3007	0.0555	1554.59	1.47
293.15	0.4004	0	1536.09	1.47
293.15	0.4004	0.0298	1537.55	1.47
293.15	0.4004	0.0326	1537.66	1.47
293.15	0.4004	0.0359	1537.77	1.47
293.15	0.4004	0.039	1537.87	1.47
293.15	0.4004	0.043	1537.99	1.47
293.15	0.4004	0.0475	1538.14	1.47
293.15	0.4004	0.0497	1538.19	1.47
293.15	0.4004	0.0532	1538.29	1.47
293.15	0.4004	0.0557	1538.35	1.47
298.15	0.4004	0	1546.46	1.47
298.15	0.4004	0.0298	1547.91	1.49
298.15	0.4004	0.0326	1548	1.47
298.15	0.4004	0.0359	1548.11	1.47
298.15	0.4004	0.039	1548.2	1.47
298.15	0.4004	0.043	1548.32	1.47
298.15	0.4004	0.0475	1548.45	1.47
298.15	0.4004	0.0497	1548.5	1.47
298.15	0.4004	0.0532	1548.61	1.47
298.15	0.4004	0.0557	1548.67	1.48
303.15	0.4004	0	1555.34	1.47
303.15	0.4004	0.0298	1556.66	1.48
303.15	0.4004	0.0326	1556.74	1.47
303.15	0.4004	0.0359	1556.84	1.47
303.15	0.4004	0.039	1556.93	1.47
303.15	0.4004	0.043	1557.04	1.47
303.15	0.4004	0.0475	1557.17	1.47
303.15	0.4004	0.0497	1557.22	1.47
303.15	0.4004	0.0532	1557.29	1.47
303.15	0.4004	0.0557	1557.35	1.48
308.15	0.4004	0	1562.62	1.47
308.15	0.4004	0.0298	1563.89	1.47
308.15	0.4004	0.0326	1563.98	1.47
308.15	0.4004	0.0359	1564.08	1.47
308.15	0.4004	0.039	1564.17	1.47
308.15	0.4004	0.043	1564.27	1.47
308.15	0.4004	0.0475	1564.38	1.47
308.15	0.4004	0.0497	1564.43	1.47
308.15	0.4004	0.0532	1564.52	1.47
308.15	0.4004	0.0557	1564.57	1.47

System: N-acetyl-p-aminophenol + water + 1-butyl-3-methylimidazolium chloride; phases: Liquid
Fixed: Pressure, kPa = 101.3
Fixed: Frequency, MHz = 0.0003
Property: Electrical conductivity, S/m (Liquid); method: Alternating current cell with electrodes
Temperature, K	Solvent: Molality, mol/kg of N-acetyl-p-aminophenol	Molality, mol/kg of 1-butyl-3-methylimidazolium chloride	Electrical conductivity, S/m	uncertainty
293.15	0.0306	0.000281	0.002786	0.003459
293.15	0.0306	0.000467	0.004426	0.003442
293.15	0.0306	0.000658	0.00607	0.003426
293.15	0.0306	0.000894	0.00807	0.003442
293.15	0.0306	0.001078	0.00961	0.003438
293.15	0.0306	0.001254	0.01106	0.003476
293.15	0.0306	0.001447	0.01263	0.003509
293.15	0.0306	0.001646	0.01423	0.003526
293.15	0.0306	0.001861	0.01598	0.00355
293.15	0.0306	0.002084	0.01772	0.003585
293.15	0.0306	0.002306	0.01944	0.003615
293.15	0.0306	0.00247	0.02068	0.003667
293.15	0.0306	0.002612	0.02176	0.003756
293.15	0.0306	0.002777	0.02296	0.00377
293.15	0.0306	0.002957	0.02427	0.003819
298.15	0.0306	0.000141	0.001642	0.00384
298.15	0.0306	0.000231	0.002521	0.003814
298.15	0.0306	0.000373	0.003885	0.003741
298.15	0.0306	0.000491	0.00501	0.003746
298.15	0.0306	0.000616	0.00617	0.003728
298.15	0.0306	0.000708	0.00701	0.003679
298.15	0.0306	0.000938	0.00904	0.003585
298.15	0.0306	0.001062	0.01011	0.003517
298.15	0.0306	0.001202	0.01128	0.003379
298.15	0.0306	0.001363	0.01257	0.003246
298.15	0.0306	0.001492	0.01356	0.003237
298.15	0.0306	0.001596	0.01429	0.003527
298.15	0.0306	0.001718	0.0151	0.003511
298.15	0.0306	0.001935	0.0166	0.003536
303.15	0.0306	0.000187	0.002164	0.003922
303.15	0.0306	0.000325	0.003546	0.003914
303.15	0.0306	0.00051	0.00539	0.00383
303.15	0.0306	0.000736	0.0076	0.003845
303.15	0.0306	0.000959	0.00972	0.003822
303.15	0.0306	0.001121	0.01124	0.003806
303.15	0.0306	0.001296	0.0128	0.003794
303.15	0.0306	0.001487	0.01448	0.003738
303.15	0.0306	0.001665	0.01596	0.003769
303.15	0.0306	0.001878	0.0178	0.003791
303.15	0.0306	0.002113	0.01974	0.003765
303.15	0.0306	0.002282	0.02105	0.003763
303.15	0.0306	0.002489	0.02265	0.0039
303.15	0.0306	0.002629	0.02371	0.003885
303.15	0.0306	0.002822	0.02517	0.004156
308.15	0.0306	0.000223	0.002769	0.00427
308.15	0.0306	0.000415	0.004866	0.00418
308.15	0.0306	0.000568	0.00652	0.004143
308.15	0.0306	0.000808	0.009	0.004189
308.15	0.0306	0.001008	0.01102	0.004069
308.15	0.0306	0.001403	0.01484	0.004085
308.15	0.0306	0.001635	0.01699	0.004065
308.15	0.0306	0.001797	0.0185	0.00414
308.15	0.0306	0.00203	0.02063	0.004103
308.15	0.0306	0.002242	0.02241	0.004023
308.15	0.0306	0.002493	0.02448	0.004045
308.15	0.0306	0.002748	0.02645	0.004083
308.15	0.0306	0.002958	0.0281	0.004194
308.15	0.0306	0.003217	0.02999	0.004256
293.15	0.0602	0.000249	0.002452	0.003095
293.15	0.0602	0.000415	0.003779	0.00302
293.15	0.0602	0.000632	0.00546	0.002993
293.15	0.0602	0.000805	0.00674	0.003071
293.15	0.0602	0.001052	0.00855	0.002976
293.15	0.0602	0.0013	0.01032	0.002942
293.15	0.0602	0.001542	0.01195	0.002903
293.15	0.0602	0.001761	0.01332	0.002881
293.15	0.0602	0.002017	0.01493	0.002896
293.15	0.0602	0.00228	0.01658	0.002924
293.15	0.0602	0.002554	0.01823	0.002966
293.15	0.0602	0.002881	0.02007	0.003024
293.15	0.0602	0.003121	0.02139	0.003036
293.15	0.0602	0.00336	0.02268	0.003146
293.15	0.0602	0.003632	0.02403	0.00317
298.15	0.0602	0.000253	0.002751	0.003632
298.15	0.0602	0.000456	0.004553	0.003545
298.15	0.0602	0.000677	0.00648	0.003508
298.15	0.0602	0.000881	0.0082	0.003453
298.15	0.0602	0.00108	0.00987	0.003448
298.15	0.0602	0.001288	0.01153	0.00345
298.15	0.0602	0.001534	0.01349	0.003435
298.15	0.0602	0.001812	0.01573	0.003511
298.15	0.0602	0.002014	0.01721	0.003504
298.15	0.0602	0.00222	0.01879	0.003498
298.15	0.0602	0.00252	0.02095	0.003578
298.15	0.0602	0.002773	0.02272	0.003592
298.15	0.0602	0.00299	0.02423	0.003708
298.15	0.0602	0.003139	0.02526	0.003458
298.15	0.0602	0.003474	0.02744	0.003495
303.15	0.0602	0.000145	0.001752	0.003724
303.15	0.0602	0.000466	0.0048	0.003641
303.15	0.0602	0.000668	0.00666	0.003746
303.15	0.0602	0.000948	0.00921	0.003697
303.15	0.0602	0.001239	0.01184	0.003708
303.15	0.0602	0.001464	0.01376	0.00369
303.15	0.0602	0.001714	0.01586	0.00367
303.15	0.0602	0.001933	0.01767	0.003721
303.15	0.0602	0.002135	0.01927	0.003762
303.15	0.0602	0.002402	0.02147	0.003801
303.15	0.0602	0.002658	0.02351	0.00388
303.15	0.0602	0.002903	0.02532	0.003939
303.15	0.0602	0.003186	0.02739	0.004002
303.15	0.0602	0.00356	0.0302	0.004191
303.15	0.0602	0.003799	0.03182	0.004299
308.15	0.0602	0.000234	0.002771	0.004054
308.15	0.0602	0.000456	0.005044	0.003995
308.15	0.0602	0.000676	0.00724	0.003978
308.15	0.0602	0.000928	0.00972	0.003956
308.15	0.0602	0.001243	0.01265	0.003923
308.15	0.0602	0.001479	0.01486	0.003897
308.15	0.0602	0.001743	0.01714	0.003935
308.15	0.0602	0.002023	0.01958	0.003924
308.15	0.0602	0.002276	0.0218	0.003979
308.15	0.0602	0.002581	0.02423	0.004064
308.15	0.0602	0.002861	0.02645	0.004138
308.15	0.0602	0.003101	0.02837	0.004246
308.15	0.0602	0.003357	0.0304	0.004387
308.15	0.0602	0.003642	0.03261	0.004524
308.15	0.0602	0.003908	0.03473	0.004684

System: water + 1-butyl-3-methylimidazolium bromide; phases: Liquid
Fixed: Pressure, kPa = 101.3
Property: Mass density, kg/m3 (Liquid); method: Vibrating tube method
Temperature, K	Molality, mol/kg of 1-butyl-3-methylimidazolium bromide	Mass density, kg/m3	uncertainty
293.15	0.1009	1003.269	0.307
298.15	0.1009	1002.026	0.307
303.15	0.1009	1000.581	0.306
308.15	0.1009	998.918	0.306
293.15	0.2003	1008.106	0.307
298.15	0.2003	1006.832	0.307
303.15	0.2003	1005.315	0.307
308.15	0.2003	1003.616	0.307
293.15	0.2985	1012.676	0.308
298.15	0.2985	1011.327	0.308
303.15	0.2985	1009.769	0.308
308.15	0.2985	1007.999	0.307
293.15	0.4006	1017.539	0.309
298.15	0.4006	1016.134	0.309
303.15	0.4006	1014.503	0.309
308.15	0.4006	1012.704	0.308

System: water + 1-butyl-3-methylimidazolium bromide; phases: Liquid
Fixed: Pressure, kPa = 101.3
Fixed: Frequency, MHz = 3
Property: Speed of sound, m/s (Liquid); method: Single path-length method
Temperature, K	Molality, mol/kg of 1-butyl-3-methylimidazolium bromide	Speed of sound, m/s	uncertainty
293.15	0.1009	1493.46	1.04
298.15	0.1009	1506.49	1.04
303.15	0.1009	1517.88	1.04
308.15	0.1009	1527.71	1.04
293.15	0.2003	1503.61	1.05
298.15	0.2003	1515.79	1.05
303.15	0.2003	1526.19	1.05
308.15	0.2003	1535.21	1.05
293.15	0.2985	1512.88	1.06
298.15	0.2985	1524.53	1.06
303.15	0.2985	1534.07	1.06
308.15	0.2985	1542.36	1.05
293.15	0.4006	1522.64	1.07
298.15	0.4006	1533.06	1.07
303.15	0.4006	1541.99	1.07
308.15	0.4006	1549.37	1.07

System: water + 1-butyl-3-methylimidazolium chloride; phases: Liquid
Fixed: Pressure, kPa = 101.3
Property: Mass density, kg/m3 (Liquid); method: Vibrating tube method
Temperature, K	Molality, mol/kg of 1-butyl-3-methylimidazolium chloride	Mass density, kg/m3	uncertainty
293.15	0.101	999.535	0.303
298.15	0.101	998.308	0.303
303.15	0.101	996.883	0.303
308.15	0.101	995.222	0.303
293.15	0.1997	1000.819	0.303
298.15	0.1997	999.565	0.303
303.15	0.1997	998.065	0.303
308.15	0.1997	996.342	0.303
293.15	0.3007	1002.099	0.304
298.15	0.3007	1000.788	0.303
303.15	0.3007	999.244	0.303
308.15	0.3007	997.484	0.304
293.15	0.4004	1003.371	0.304
298.15	0.4004	1001.999	0.304
303.15	0.4004	1000.397	0.304
308.15	0.4004	998.586	0.304

System: water + 1-butyl-3-methylimidazolium chloride; phases: Liquid
Fixed: Pressure, kPa = 101.3
Fixed: Frequency, MHz = 3
Property: Speed of sound, m/s (Liquid); method: Single path-length method
Temperature, K	Molality, mol/kg of 1-butyl-3-methylimidazolium chloride	Speed of sound, m/s	uncertainty
293.15	0.101	1496.72	1.04
298.15	0.101	1509.78	1.04
303.15	0.101	1521.14	1.04
308.15	0.101	1530.82	1.04
293.15	0.1997	1510.41	1.05
298.15	0.1997	1522.65	1.05
303.15	0.1997	1532.96	1.05
308.15	0.1997	1541.95	1.04
293.15	0.3007	1523.59	1.05
298.15	0.3007	1534.72	1.05
303.15	0.3007	1544.34	1.05
308.15	0.3007	1552.66	1.05
293.15	0.4004	1536.09	1.06
298.15	0.4004	1546.46	1.06
303.15	0.4004	1555.34	1.06
308.15	0.4004	1562.62	1.06
