Measured thermophysical data. The Solid-Liquid Equilibrium and Crystal Habit of l-Carnitine Fumarate
Source: J. Chem. Eng. Data, 2018, 10.1021/acs.jced.7b00768
Compound 1: L-carnitine fumarate, C11H19NO7, InChI=1S/C7H15NO3.C4H4O4/c1-8(2,3)5-6(9)4-7(10)11;5-3(6)1-2-4(7)8/h6,9H,4-5H2,1-3H3;1-2H,(H,5,6)(H,7,8)/b;2-1+/t6-;/m1./s1, purity 99%
Compound 2: methanol, CH4O, InChI=1S/CH4O/c1-2/h2H,1H3, purity 99.5%
Compound 3: ethanol, C2H6O, InChI=1S/C2H6O/c1-2-3/h3H,2H2,1H3, purity 99.7%
Compound 4: propan-1-ol, C3H8O, InChI=1S/C3H8O/c1-2-3-4/h4H,2-3H2,1H3, purity 99.8%
Compound 5: propan-2-ol, C3H8O, InChI=1S/C3H8O/c1-3(2)4/h3-4H,1-2H3, purity 99.7%
Compound 6: butan-1-ol, C4H10O, InChI=1S/C4H10O/c1-2-3-4-5/h5H,2-4H2,1H3, purity 99.5%

System: L-carnitine fumarate; phases: Crystal, Liquid, Air at 1 atmosphere
Property: Triple point temperature, K (Crystal); method: DSC
Triple point temperature, K	uncertainty
412.2	0.8

System: L-carnitine fumarate; phases: Crystal, Liquid, Air at 1 atmosphere
Property: Molar enthalpy of transition or fusion, kJ/mol (Crystal); method: DSC
Molar enthalpy of transition or fusion, kJ/mol	uncertainty
51.19	1.43

System: L-carnitine fumarate + methanol + ethanol; phases: Liquid, Crystal
Fixed: Pressure, kPa = 100
Property: Mole fraction of L-carnitine fumarate (Liquid); method: gravimetric
Temperature, K	Solvent: Mole fraction of methanol	Mole fraction of L-carnitine fumarate	uncertainty
288.15	0	0.000216	2.2e-05
293.15	0	0.000329	3.3e-05
298.15	0	0.000488	5e-05
303.15	0	0.000769	7.8e-05
308.15	0	0.001019	0.000103
313.15	0	0.001469	0.000148
318.15	0	0.00205	0.000206
323.15	0	0.002467	0.000247
328.15	0	0.002732	0.000273
288.15	0.1	0.000277	2.8e-05
293.15	0.1	0.000414	4.2e-05
298.15	0.1	0.000588	6e-05
303.15	0.1	0.000911	9.2e-05
308.15	0.1	0.00122	0.00012
313.15	0.1	0.00176	0.00018
318.15	0.1	0.00236	0.00024
323.15	0.1	0.0028	0.00028
328.15	0.1	0.00324	0.00032
288.15	0.2	0.000361	3.7e-05
293.15	0.2	0.000527	5.3e-05
298.15	0.2	0.000743	7.5e-05
303.15	0.2	0.0011	0.00011
308.15	0.2	0.00149	0.00015
313.15	0.2	0.00215	0.00022
318.15	0.2	0.00282	0.00028
323.15	0.2	0.00342	0.00034
328.15	0.2	0.00379	0.00038
288.15	0.3	0.000483	4.9e-05
293.15	0.3	0.00071	7.2e-05
298.15	0.3	0.000976	9.9e-05
303.15	0.3	0.00137	0.00014
308.15	0.3	0.00186	0.00019
313.15	0.3	0.00263	0.00027
318.15	0.3	0.00349	0.00035
323.15	0.3	0.00395	0.0004
328.15	0.3	0.00455	0.00046
288.15	0.4	0.000665	6.8e-05
293.15	0.4	0.000956	9.7e-05
298.15	0.4	0.00128	0.00013
303.15	0.4	0.00172	0.00017
308.15	0.4	0.00237	0.00024
313.15	0.4	0.00329	0.00033
318.15	0.4	0.00439	0.00044
323.15	0.4	0.00507	0.00051
328.15	0.4	0.00553	0.00056
288.15	0.5	0.000941	9.6e-05
293.15	0.5	0.00131	0.00013
298.15	0.5	0.00167	0.00017
303.15	0.5	0.00219	0.00022
308.15	0.5	0.00306	0.00031
313.15	0.5	0.00428	0.00043
318.15	0.5	0.00555	0.00056
323.15	0.5	0.00624	0.00063
328.15	0.5	0.00684	0.00069
288.15	0.6	0.00131	0.00013
293.15	0.6	0.00177	0.00018
298.15	0.6	0.00219	0.00022
303.15	0.6	0.00287	0.00029
308.15	0.6	0.00402	0.00041
313.15	0.6	0.00539	0.00054
318.15	0.6	0.007	0.00071
323.15	0.6	0.0079	0.00079
328.15	0.6	0.00891	0.0009
288.15	0.7	0.00179	0.00018
293.15	0.7	0.00231	0.00023
298.15	0.7	0.00287	0.00029
303.15	0.7	0.00375	0.00038
308.15	0.7	0.00512	0.00052
313.15	0.7	0.00684	0.00069
318.15	0.7	0.00891	0.0009
323.15	0.7	0.0101	0.001
328.15	0.7	0.0113	0.0011
288.15	0.8	0.00232	0.00023
293.15	0.8	0.00299	0.0003
298.15	0.8	0.00373	0.00038
303.15	0.8	0.00496	0.0005
308.15	0.8	0.00656	0.00066
313.15	0.8	0.00865	0.00087
318.15	0.8	0.0111	0.0011
323.15	0.8	0.0132	0.0013
328.15	0.8	0.015	0.0015
288.15	0.9	0.00304	0.00031
293.15	0.9	0.00384	0.00039
298.15	0.9	0.00484	0.00049
303.15	0.9	0.00639	0.00064
308.15	0.9	0.00833	0.00084
313.15	0.9	0.0106	0.0011
318.15	0.9	0.0135	0.0014
323.15	0.9	0.0167	0.0017
328.15	0.9	0.021	0.0021
288.15	1	0.00379	0.00038
293.15	1	0.00489	0.00049
298.15	1	0.00617	0.00062
303.15	1	0.00787	0.00079
308.15	1	0.0101	0.001
313.15	1	0.0129	0.0013
318.15	1	0.0161	0.0016
323.15	1	0.0211	0.0021
328.15	1	0.0278	0.0028

System: L-carnitine fumarate + methanol + propan-1-ol; phases: Liquid, Crystal
Fixed: Pressure, kPa = 100
Property: Mole fraction of L-carnitine fumarate (Liquid); method: gravimetric
Temperature, K	Solvent: Mole fraction of methanol	Mole fraction of L-carnitine fumarate	uncertainty
288.15	0	9.67e-05	1.56e-05
293.15	0	0.000145	2.3e-05
298.15	0	0.000209	3.4e-05
303.15	0	0.000313	5e-05
308.15	0	0.000414	6.7e-05
313.15	0	0.000609	9.8e-05
318.15	0	0.000901	0.000144
323.15	0	0.000946	0.000152
328.15	0	0.00124	0.0002
288.15	0.1	0.00012	1.9e-05
293.15	0.1	0.000172	2.8e-05
298.15	0.1	0.000259	4.2e-05
303.15	0.1	0.000384	6.2e-05
308.15	0.1	0.000522	8.4e-05
313.15	0.1	0.000742	0.000119
318.15	0.1	0.0011	0.00018
323.15	0.1	0.00135	0.00022
328.15	0.1	0.00162	0.00026
288.15	0.2	0.000159	2.6e-05
293.15	0.2	0.000256	4.1e-05
298.15	0.2	0.000348	5.6e-05
303.15	0.2	0.000498	8e-05
308.15	0.2	0.000681	0.000109
313.15	0.2	0.000962	0.000155
318.15	0.2	0.00136	0.00022
323.15	0.2	0.00167	0.00027
328.15	0.2	0.00211	0.00034
288.15	0.3	0.00022	3.6e-05
293.15	0.3	0.000362	5.8e-05
298.15	0.3	0.000477	7.7e-05
303.15	0.3	0.000694	0.000112
308.15	0.3	0.000954	0.000153
313.15	0.3	0.00126	0.0002
318.15	0.3	0.00173	0.00028
323.15	0.3	0.00222	0.00036
328.15	0.3	0.00272	0.00044
288.15	0.4	0.000321	5.2e-05
293.15	0.4	0.000514	8.3e-05
298.15	0.4	0.000693	0.000112
303.15	0.4	0.000951	0.000153
308.15	0.4	0.00131	0.00021
313.15	0.4	0.00171	0.00028
318.15	0.4	0.00228	0.00037
323.15	0.4	0.00276	0.00044
328.15	0.4	0.00347	0.00056
288.15	0.5	0.000481	7.8e-05
293.15	0.5	0.000727	0.000118
298.15	0.5	0.000986	0.000159
303.15	0.5	0.00136	0.00022
308.15	0.5	0.00183	0.0003
313.15	0.5	0.00233	0.00038
318.15	0.5	0.00308	0.0005
323.15	0.5	0.00357	0.00057
328.15	0.5	0.00415	0.00067
288.15	0.6	0.000736	0.000119
293.15	0.6	0.00104	0.00017
298.15	0.6	0.00139	0.00022
303.15	0.6	0.0019	0.00031
308.15	0.6	0.00255	0.00041
313.15	0.6	0.00326	0.00052
318.15	0.6	0.00426	0.00068
323.15	0.6	0.00462	0.00074
328.15	0.6	0.00534	0.00086
288.15	0.7	0.00115	0.00019
293.15	0.7	0.0015	0.00024
298.15	0.7	0.002	0.00032
303.15	0.7	0.0027	0.00043
308.15	0.7	0.00358	0.00058
313.15	0.7	0.00465	0.00075
318.15	0.7	0.006	0.00096
323.15	0.7	0.00651	0.00104
328.15	0.7	0.00755	0.00121
288.15	0.8	0.00177	0.00028
293.15	0.8	0.00221	0.00035
298.15	0.8	0.00289	0.00046
303.15	0.8	0.00385	0.00062
308.15	0.8	0.00505	0.00081
313.15	0.8	0.00649	0.00104
318.15	0.8	0.00834	0.00134
323.15	0.8	0.00946	0.00152
328.15	0.8	0.0119	0.0019
288.15	0.9	0.00269	0.00043
293.15	0.9	0.0033	0.00053
298.15	0.9	0.00419	0.00067
303.15	0.9	0.00544	0.00087
308.15	0.9	0.0071	0.00114
313.15	0.9	0.00896	0.00144
318.15	0.9	0.0114	0.0018
323.15	0.9	0.0149	0.0024
328.15	0.9	0.0189	0.003
288.15	1	0.00379	0.00061
293.15	1	0.00489	0.00078
298.15	1	0.00617	0.00099
303.15	1	0.00787	0.00126
308.15	1	0.0101	0.0016
313.15	1	0.0129	0.0021
318.15	1	0.0161	0.0026
323.15	1	0.0211	0.0034
328.15	1	0.0278	0.0045

System: L-carnitine fumarate + methanol + propan-2-ol; phases: Liquid, Crystal
Fixed: Pressure, kPa = 100
Property: Mole fraction of L-carnitine fumarate (Liquid); method: gravimetric
Temperature, K	Solvent: Mole fraction of methanol	Mole fraction of L-carnitine fumarate	uncertainty
288.15	0	5.24e-05	3.47e-05
293.15	0	0.000115	2.3e-05
298.15	0	0.00015	3e-05
303.15	0	0.000246	4.9e-05
308.15	0	0.000348	7e-05
313.15	0	0.00041	8.2e-05
318.15	0	0.000622	0.000125
323.15	0	0.000827	0.000166
328.15	0	0.00105	0.00021
288.15	0.1	9.06e-05	3.09e-05
293.15	0.1	0.00016	3.2e-05
298.15	0.1	0.00021	4.2e-05
303.15	0.1	0.000325	6.5e-05
308.15	0.1	0.000432	8.7e-05
313.15	0.1	0.000595	0.000119
318.15	0.1	0.000882	0.000177
323.15	0.1	0.00114	0.00023
328.15	0.1	0.00136	0.00027
288.15	0.2	0.000144	2.9e-05
293.15	0.2	0.000204	4.1e-05
298.15	0.2	0.000303	6.1e-05
303.15	0.2	0.000386	7.7e-05
308.15	0.2	0.000556	0.000112
313.15	0.2	0.000795	0.000159
318.15	0.2	0.00105	0.00021
323.15	0.2	0.00137	0.00027
328.15	0.2	0.00162	0.00032
288.15	0.3	0.000164	3.3e-05
293.15	0.3	0.000264	5.3e-05
298.15	0.3	0.000382	7.7e-05
303.15	0.3	0.00054	0.000108
308.15	0.3	0.000744	0.000149
313.15	0.3	0.000996	0.0002
318.15	0.3	0.0014	0.00028
323.15	0.3	0.00187	0.00037
328.15	0.3	0.0023	0.00046
288.15	0.4	0.000262	5.3e-05
293.15	0.4	0.000372	7.5e-05
298.15	0.4	0.000522	0.000105
303.15	0.4	0.00074	0.000149
308.15	0.4	0.00103	0.00021
313.15	0.4	0.00139	0.00028
318.15	0.4	0.00196	0.00039
323.15	0.4	0.00248	0.0005
328.15	0.4	0.00293	0.00059
288.15	0.5	0.000387	7.8e-05
293.15	0.5	0.000548	0.00011
298.15	0.5	0.000772	0.000155
303.15	0.5	0.00101	0.0002
308.15	0.5	0.00143	0.00029
313.15	0.5	0.00203	0.00041
318.15	0.5	0.00262	0.00053
323.15	0.5	0.00334	0.00067
328.15	0.5	0.00414	0.00083
288.15	0.6	0.000543	0.000109
293.15	0.6	0.000753	0.000151
298.15	0.6	0.00103	0.00021
303.15	0.6	0.0014	0.00028
308.15	0.6	0.00188	0.00038
313.15	0.6	0.00267	0.00054
318.15	0.6	0.00358	0.00072
323.15	0.6	0.00431	0.00086
328.15	0.6	0.00516	0.00104
288.15	0.7	0.000796	0.00016
293.15	0.7	0.00114	0.00023
298.15	0.7	0.00148	0.0003
303.15	0.7	0.002	0.0004
308.15	0.7	0.00266	0.00053
313.15	0.7	0.00376	0.00075
318.15	0.7	0.00492	0.00099
323.15	0.7	0.00617	0.00124
328.15	0.7	0.00738	0.00148
288.15	0.8	0.00123	0.00025
293.15	0.8	0.00165	0.00033
298.15	0.8	0.00228	0.00046
303.15	0.8	0.00304	0.00061
308.15	0.8	0.00401	0.0008
313.15	0.8	0.00515	0.00103
318.15	0.8	0.00684	0.00137
323.15	0.8	0.00845	0.00169
328.15	0.8	0.0108	0.0022
288.15	0.9	0.00211	0.00042
293.15	0.9	0.00265	0.00053
298.15	0.9	0.00347	0.0007
303.15	0.9	0.00451	0.0009
308.15	0.9	0.00595	0.00119
313.15	0.9	0.00785	0.00157
318.15	0.9	0.0103	0.0021
323.15	0.9	0.0123	0.0025
328.15	0.9	0.0157	0.0032
288.15	1	0.00379	0.00076
293.15	1	0.00489	0.00098
298.15	1	0.00617	0.00124
303.15	1	0.00787	0.00158
308.15	1	0.0101	0.002
313.15	1	0.0129	0.0026
318.15	1	0.0161	0.0032
323.15	1	0.0211	0.0042
328.15	1	0.0278	0.0056

System: L-carnitine fumarate + methanol + butan-1-ol; phases: Liquid, Crystal
Fixed: Pressure, kPa = 100
Property: Mole fraction of L-carnitine fumarate (Liquid); method: gravimetric
Temperature, K	Solvent: Mole fraction of methanol	Mole fraction of L-carnitine fumarate	uncertainty
293.15	0	0.000103	3.9e-05
298.15	0	0.000132	4.2e-05
303.15	0	0.000208	2.9e-05
308.15	0	0.000294	4.1e-05
313.15	0	0.000379	5.3e-05
318.15	0	0.000441	6.2e-05
323.15	0	0.000703	9.9e-05
328.15	0	0.000833	0.000117
333.15	0	0.00121	0.00017
293.15	0.1	0.000152	2.1e-05
298.15	0.1	0.000188	2.6e-05
303.15	0.1	0.000275	3.9e-05
308.15	0.1	0.000402	5.6e-05
313.15	0.1	0.000503	7.1e-05
318.15	0.1	0.000559	7.9e-05
323.15	0.1	0.00104	0.00015
328.15	0.1	0.00117	0.00016
333.15	0.1	0.00146	0.00021
293.15	0.2	0.00018	2.5e-05
298.15	0.2	0.000283	4e-05
303.15	0.2	0.000323	4.6e-05
308.15	0.2	0.000521	7.3e-05
313.15	0.2	0.000706	9.9e-05
318.15	0.2	0.000709	0.0001
323.15	0.2	0.00122	0.00017
328.15	0.2	0.00141	0.0002
333.15	0.2	0.0021	0.0003
293.15	0.3	0.000249	3.5e-05
298.15	0.3	0.000352	5e-05
303.15	0.3	0.000517	7.3e-05
308.15	0.3	0.000684	9.6e-05
313.15	0.3	0.000868	0.000122
318.15	0.3	0.000955	0.000135
323.15	0.3	0.00156	0.00022
328.15	0.3	0.00214	0.0003
333.15	0.3	0.00247	0.00035
293.15	0.4	0.000306	4.3e-05
298.15	0.4	0.000449	6.4e-05
303.15	0.4	0.000662	9.3e-05
308.15	0.4	0.000912	0.000128
313.15	0.4	0.00119	0.00017
318.15	0.4	0.00126	0.00018
323.15	0.4	0.00203	0.00029
328.15	0.4	0.00263	0.00037
333.15	0.4	0.00366	0.00052
293.15	0.5	0.00051	7.3e-05
298.15	0.5	0.000685	9.7e-05
303.15	0.5	0.000863	0.000122
308.15	0.5	0.00117	0.00017
313.15	0.5	0.00164	0.00023
318.15	0.5	0.00188	0.00027
323.15	0.5	0.00293	0.00041
328.15	0.5	0.00374	0.00053
333.15	0.5	0.00434	0.00061
293.15	0.6	0.000736	0.000104
298.15	0.6	0.000993	0.00014
303.15	0.6	0.00115	0.00016
308.15	0.6	0.00161	0.00023
313.15	0.6	0.00237	0.00033
318.15	0.6	0.00277	0.00039
323.15	0.6	0.00387	0.00055
328.15	0.6	0.00472	0.00067
333.15	0.6	0.00581	0.00082
293.15	0.7	0.00109	0.00015
298.15	0.7	0.00142	0.0002
303.15	0.7	0.00182	0.00026
308.15	0.7	0.00233	0.00033
313.15	0.7	0.00324	0.00046
318.15	0.7	0.00419	0.00059
323.15	0.7	0.00548	0.00077
328.15	0.7	0.00693	0.00097
333.15	0.7	0.00777	0.00109
293.15	0.8	0.00152	0.00021
298.15	0.8	0.00213	0.0003
303.15	0.8	0.00293	0.00041
308.15	0.8	0.00361	0.00051
313.15	0.8	0.00503	0.00071
318.15	0.8	0.00647	0.00091
323.15	0.8	0.00775	0.00109
328.15	0.8	0.0094	0.00132
333.15	0.8	0.0113	0.0016
293.15	0.9	0.00236	0.00033
298.15	0.9	0.00338	0.00048
303.15	0.9	0.00436	0.00061
308.15	0.9	0.00578	0.00081
313.15	0.9	0.00782	0.0011
318.15	0.9	0.01	0.0014
323.15	0.9	0.0126	0.0018
328.15	0.9	0.0164	0.0023
333.15	0.9	0.0212	0.003
293.15	1	0.00489	0.00069
298.15	1	0.00617	0.00087
303.15	1	0.00787	0.0011
308.15	1	0.0101	0.0014
313.15	1	0.0129	0.0018
318.15	1	0.0161	0.0023
323.15	1	0.0211	0.003
328.15	1	0.0278	0.0039
333.15	1	0.0407	0.0057

System: L-carnitine fumarate + ethanol; phases: Liquid, Crystal
Fixed: Pressure, kPa = 100
Property: Mole fraction of L-carnitine fumarate (Liquid); method: gravimetric
Temperature, K	Mole fraction of L-carnitine fumarate	uncertainty
288.15	0.000216	2.2e-05
293.15	0.000329	3.3e-05
298.15	0.000488	5e-05
303.15	0.000769	7.8e-05
308.15	0.001019	0.000103
313.15	0.001469	0.000148
318.15	0.00205	0.000206
323.15	0.002467	0.000247
328.15	0.002732	0.000273

System: L-carnitine fumarate + methanol; phases: Liquid, Crystal
Fixed: Pressure, kPa = 100
Property: Mole fraction of L-carnitine fumarate (Liquid); method: gravimetric
Temperature, K	Mole fraction of L-carnitine fumarate	uncertainty
288.15	0.00379	0.00038
293.15	0.00489	0.00049
298.15	0.00617	0.00062
303.15	0.00787	0.00079
308.15	0.0101	0.001
313.15	0.0129	0.0013
318.15	0.0161	0.0016
323.15	0.0211	0.0021
328.15	0.0278	0.0028
333.15	0.0407	0.0057

System: L-carnitine fumarate + propan-1-ol; phases: Liquid, Crystal
Fixed: Pressure, kPa = 100
Property: Mole fraction of L-carnitine fumarate (Liquid); method: gravimetric
Temperature, K	Mole fraction of L-carnitine fumarate	uncertainty
288.15	9.67e-05	1.56e-05
293.15	0.000145	2.3e-05
298.15	0.000209	3.4e-05
303.15	0.000313	5e-05
308.15	0.000414	6.7e-05
313.15	0.000609	9.8e-05
318.15	0.000901	0.000144
323.15	0.000946	0.000152
328.15	0.00124	0.0002

System: L-carnitine fumarate + propan-2-ol; phases: Liquid, Crystal
Fixed: Pressure, kPa = 100
Property: Mole fraction of L-carnitine fumarate (Liquid); method: gravimetric
Temperature, K	Mole fraction of L-carnitine fumarate	uncertainty
288.15	5.24e-05	3.47e-05
293.15	0.000115	2.3e-05
298.15	0.00015	3e-05
303.15	0.000246	4.9e-05
308.15	0.000348	7e-05
313.15	0.00041	8.2e-05
318.15	0.000622	0.000125
323.15	0.000827	0.000166
328.15	0.00105	0.00021

System: L-carnitine fumarate + butan-1-ol; phases: Liquid, Crystal
Fixed: Pressure, kPa = 100
Property: Mole fraction of L-carnitine fumarate (Liquid); method: gravimetric
Temperature, K	Mole fraction of L-carnitine fumarate	uncertainty
288.15	0.000103	3.9e-05
293.15	0.000132	4.2e-05
298.15	0.000208	2.9e-05
303.15	0.000294	4.1e-05
308.15	0.000379	5.3e-05
313.15	0.000441	6.2e-05
318.15	0.000703	9.9e-05
323.15	0.000833	0.000117
328.15	0.00121	0.00017
