Measured thermophysical data. Investigation on Temperature-Dependent Volumetric and Acoustical Properties of Homologous Series of Glycols in Aqueous Sorbitol Solutions
Source: J. Chem. Eng. Data, 2017, 10.1021/acs.jced.7b00501
Compound 1: 1,2-ethanediol, C2H6O2, InChI=1S/C2H6O2/c3-1-2-4/h3-4H,1-2H2, purity 99%
Compound 2: diethylene glycol, C4H10O3, InChI=1S/C4H10O3/c5-1-3-7-4-2-6/h5-6H,1-4H2, purity 98.5%
Compound 3: triethylene glycol, C6H14O4, InChI=1S/C6H14O4/c7-1-3-9-5-6-10-4-2-8/h7-8H,1-6H2, purity 98%
Compound 4: D-sorbitol, C6H14O6, InChI=1S/C6H14O6/c7-1-3(9)5(11)6(12)4(10)2-8/h3-12H,1-2H2/t3-,4+,5-,6-/m1/s1, purity 99%
Compound 5: water, H2O, InChI=1S/H2O/h1H2, purity 99.9%

System: water; phases: Liquid
Fixed: Pressure, kPa = 100
Property: Mass density, kg/m3 (Liquid); method: Vibrating tube method
Temperature, K	Mass density, kg/m3	uncertainty
288.15	999.257	0.105
298.15	997.047	0.105
308.15	994.039	0.106
318.15	990.356	0.107

System: water; phases: Liquid
Fixed: Pressure, kPa = 100
Fixed: Frequency, MHz = 3
Property: Speed of sound, m/s (Liquid); method: Single path-length method
Temperature, K	Speed of sound, m/s	uncertainty
288.15	1466.59	30
298.15	1495.85	30
308.15	1519.14	30
318.15	1536.02	30

System: 1,2-ethanediol + D-sorbitol + water; phases: Liquid
Fixed: Pressure, kPa = 100
Property: Mass density, kg/m3 (Liquid); method: Vibrating tube method
Temperature, K	Solvent: Molality, mol/kg of D-sorbitol	Molality, mol/kg of 1,2-ethanediol	Mass density, kg/m3	uncertainty
288.15	0	0	999.257	0.154
288.15	0	0.09889	1000.117	0.154
288.15	0	0.19894	1000.96	0.154
288.15	0	0.29967	1001.786	0.154
288.15	0	0.39481	1002.529	0.155
288.15	0	0.50155	1003.347	0.155
288.15	0	0.59227	1004.018	0.155
288.15	0	0.69637	1004.757	0.156
288.15	0	0.79832	1005.436	0.156
298.15	0	0	997.047	0.154
298.15	0	0.09889	997.877	0.154
298.15	0	0.19894	998.688	0.154
298.15	0	0.29967	999.473	0.154
298.15	0	0.39481	1000.184	0.154
298.15	0	0.50155	1000.961	0.154
298.15	0	0.59227	1001.596	0.154
298.15	0	0.69637	1002.293	0.155
298.15	0	0.79832	1002.952	0.155
308.15	0	0	994.039	0.155
308.15	0	0.09889	994.84	0.155
308.15	0	0.19894	995.613	0.155
308.15	0	0.29967	996.362	0.155
308.15	0	0.39481	997.038	0.155
308.15	0	0.50155	997.764	0.154
308.15	0	0.59227	998.366	0.154
308.15	0	0.69637	999.045	0.154
308.15	0	0.79832	999.679	0.154
318.15	0	0	990.356	0.156
318.15	0	0.09889	991.134	0.155
318.15	0	0.19894	991.88	0.155
318.15	0	0.29967	992.607	0.155
318.15	0	0.39481	993.261	0.155
318.15	0	0.50155	993.973	0.155
318.15	0	0.59227	994.55	0.155
318.15	0	0.69637	995.188	0.155
318.15	0	0.79832	995.805	0.155
288.15	0.01	0	999.887	0.154
288.15	0.01	0.10112	1000.758	0.154
288.15	0.01	0.19853	1001.577	0.154
288.15	0.01	0.29634	1002.374	0.155
288.15	0.01	0.39843	1003.17	0.155
288.15	0.01	0.49911	1003.929	0.155
288.15	0.01	0.5996	1004.676	0.155
288.15	0.01	0.7027	1005.395	0.156
288.15	0.01	0.79472	1006.002	0.156
298.15	0.01	0	997.823	0.154
298.15	0.01	0.10112	998.661	0.154
298.15	0.01	0.19853	999.445	0.154
298.15	0.01	0.29634	1000.203	0.154
298.15	0.01	0.39843	1000.963	0.154
298.15	0.01	0.49911	1001.682	0.154
298.15	0.01	0.5996	1002.382	0.155
298.15	0.01	0.7027	1003.07	0.155
298.15	0.01	0.79472	1003.645	0.155
308.15	0.01	0	994.845	0.155
308.15	0.01	0.10112	995.656	0.155
308.15	0.01	0.19853	996.4	0.155
308.15	0.01	0.29634	997.12	0.155
308.15	0.01	0.39843	997.841	0.154
308.15	0.01	0.49911	998.515	0.154
308.15	0.01	0.5996	999.173	0.154
308.15	0.01	0.7027	999.836	0.154
308.15	0.01	0.79472	1000.409	0.154
318.15	0.01	0	990.914	0.156
318.15	0.01	0.10112	991.703	0.156
318.15	0.01	0.19853	992.424	0.155
318.15	0.01	0.29634	993.124	0.155
318.15	0.01	0.39843	993.828	0.155
318.15	0.01	0.49911	994.487	0.155
318.15	0.01	0.5996	995.115	0.155
318.15	0.01	0.7027	995.737	0.155
318.15	0.01	0.79472	996.282	0.155
288.15	0.03	0	1001.172	0.154
288.15	0.03	0.09897	1002.008	0.154
288.15	0.03	0.20032	1002.838	0.155
288.15	0.03	0.29755	1003.605	0.155
288.15	0.03	0.40096	1004.397	0.155
288.15	0.03	0.4992	1005.122	0.156
288.15	0.03	0.60067	1005.859	0.156
288.15	0.03	0.69838	1006.539	0.156
288.15	0.03	0.79884	1007.241	0.157
298.15	0.03	0	999.084	0.154
298.15	0.03	0.09897	999.89	0.154
298.15	0.03	0.20032	1000.69	0.154
298.15	0.03	0.29755	1001.436	0.154
298.15	0.03	0.40096	1002.201	0.155
298.15	0.03	0.4992	1002.891	0.155
298.15	0.03	0.60067	1003.588	0.155
298.15	0.03	0.69838	1004.233	0.155
298.15	0.03	0.79884	1004.866	0.156
308.15	0.03	0	996.047	0.155
308.15	0.03	0.09897	996.825	0.155
308.15	0.03	0.20032	997.597	0.154
308.15	0.03	0.29755	998.306	0.154
308.15	0.03	0.40096	999.032	0.154
308.15	0.03	0.4992	999.676	0.154
308.15	0.03	0.60067	1000.338	0.154
308.15	0.03	0.69838	1000.95	0.155
308.15	0.03	0.79884	1001.549	0.155
318.15	0.03	0	992.106	0.155
318.15	0.03	0.09897	992.864	0.155
318.15	0.03	0.20032	993.614	0.155
318.15	0.03	0.29755	994.3	0.155
318.15	0.03	0.40096	995.004	0.155
318.15	0.03	0.4992	995.638	0.155
318.15	0.03	0.60067	996.269	0.155
318.15	0.03	0.69838	996.842	0.155
318.15	0.03	0.79884	997.441	0.155
288.15	0.05	0	1002.435	0.155
288.15	0.05	0.09873	1003.244	0.155
288.15	0.05	0.20082	1004.062	0.155
288.15	0.05	0.299	1004.83	0.156
288.15	0.05	0.3998	1005.596	0.156
288.15	0.05	0.49828	1006.321	0.156
288.15	0.05	0.60039	1007.057	0.156
288.15	0.05	0.69943	1007.743	0.157
288.15	0.05	0.79893	1008.421	0.157
298.15	0.05	0	1000.322	0.154
298.15	0.05	0.09873	1001.106	0.154
298.15	0.05	0.20082	1001.892	0.154
298.15	0.05	0.299	1002.63	0.155
298.15	0.05	0.3998	1003.36	0.155
298.15	0.05	0.49828	1004.06	0.155
298.15	0.05	0.60039	1004.761	0.156
298.15	0.05	0.69943	1005.412	0.156
298.15	0.05	0.79893	1006.037	0.156
308.15	0.05	0	997.257	0.154
308.15	0.05	0.09873	998.011	0.154
308.15	0.05	0.20082	998.766	0.154
308.15	0.05	0.299	999.475	0.154
308.15	0.05	0.3998	1000.176	0.154
308.15	0.05	0.49828	1000.837	0.154
308.15	0.05	0.60039	1001.495	0.155
308.15	0.05	0.69943	1002.101	0.155
308.15	0.05	0.79893	1002.684	0.155
318.15	0.05	0	993.322	0.155
318.15	0.05	0.09873	994.05	0.155
318.15	0.05	0.20082	994.782	0.155
318.15	0.05	0.299	995.463	0.155
318.15	0.05	0.3998	996.139	0.155
318.15	0.05	0.49828	996.781	0.155
318.15	0.05	0.60039	997.427	0.155
318.15	0.05	0.69943	998.005	0.155
318.15	0.05	0.79893	998.582	0.155

System: 1,2-ethanediol + D-sorbitol + water; phases: Liquid
Fixed: Pressure, kPa = 100
Fixed: Frequency, MHz = 3
Property: Speed of sound, m/s (Liquid); method: Single path-length method
Temperature, K	Solvent: Molality, mol/kg of D-sorbitol	Molality, mol/kg of 1,2-ethanediol	Speed of sound, m/s	uncertainty
288.15	0	0	1466.59	30.01
288.15	0	0.09889	1469.57	30.01
288.15	0	0.19894	1472.72	30.01
288.15	0	0.29967	1475.45	30.01
288.15	0	0.39481	1478.57	30.01
288.15	0	0.50155	1481.17	30.01
288.15	0	0.59227	1484.02	30.01
288.15	0	0.69637	1486.59	30.01
288.15	0	0.79832	1489.45	30.01
298.15	0	0	1495.85	30.01
298.15	0	0.09889	1498.92	30.01
298.15	0	0.19894	1501.72	30.01
298.15	0	0.29967	1504.29	30.01
298.15	0	0.39481	1506.64	30.01
298.15	0	0.50155	1509.09	30.01
298.15	0	0.59227	1511.61	30.01
298.15	0	0.69637	1514.81	30.01
298.15	0	0.79832	1517.93	30.01
308.15	0	0	1519.14	30.01
308.15	0	0.09889	1521.84	30.01
308.15	0	0.19894	1524.03	30.01
308.15	0	0.29967	1526.18	30.01
308.15	0	0.39481	1528.28	30.01
308.15	0	0.50155	1530.34	30.01
308.15	0	0.59227	1534.12	30.01
308.15	0	0.69637	1537.56	30.01
308.15	0	0.79832	1540.35	30.01
318.15	0	0	1536.02	30.01
318.15	0	0.09889	1539.17	30.01
318.15	0	0.19894	1542.24	30.01
318.15	0	0.29967	1544.95	30.01
318.15	0	0.39481	1547.87	30.01
318.15	0	0.50155	1550.65	30.01
318.15	0	0.59227	1553.56	30.01
318.15	0	0.69637	1556.55	30.01
318.15	0	0.79832	1559.58	30.01
288.15	0.01	0	1467.84	30.01
288.15	0.01	0.10112	1470.98	30.01
288.15	0.01	0.19853	1473.92	30.01
288.15	0.01	0.29634	1476.85	30.01
288.15	0.01	0.39843	1480.02	30.01
288.15	0.01	0.49911	1482.52	30.01
288.15	0.01	0.5996	1485.58	30.01
288.15	0.01	0.7027	1488.75	30.01
288.15	0.01	0.79472	1491.03	30.01
298.15	0.01	0	1497.55	30.01
298.15	0.01	0.10112	1500.61	30.01
298.15	0.01	0.19853	1503.51	30.01
298.15	0.01	0.29634	1506.35	30.01
298.15	0.01	0.39843	1509.22	30.01
298.15	0.01	0.49911	1511.85	30.01
298.15	0.01	0.5996	1514.98	30.01
298.15	0.01	0.7027	1518.29	30.01
298.15	0.01	0.79472	1520.69	30.01
308.15	0.01	0	1520.61	30.01
308.15	0.01	0.10112	1523.56	30.01
308.15	0.01	0.19853	1526.27	30.01
308.15	0.01	0.29634	1529.12	30.01
308.15	0.01	0.39843	1532.18	30.01
308.15	0.01	0.49911	1534.69	30.01
308.15	0.01	0.5996	1538.05	30.01
308.15	0.01	0.7027	1541.61	30.01
308.15	0.01	0.79472	1544.15	30.01
318.15	0.01	0	1537.24	30.01
318.15	0.01	0.10112	1540.37	30.01
318.15	0.01	0.19853	1543.25	30.01
318.15	0.01	0.29634	1546.09	30.01
318.15	0.01	0.39843	1548.91	30.01
318.15	0.01	0.49911	1551.57	30.01
318.15	0.01	0.5996	1554.86	30.01
318.15	0.01	0.7027	1558.21	30.01
318.15	0.01	0.79472	1560.62	30.01
288.15	0.03	0	1469.89	30.01
288.15	0.03	0.09897	1472.91	30.01
288.15	0.03	0.20032	1476.06	30.01
288.15	0.03	0.29755	1478.85	30.01
288.15	0.03	0.40096	1482.03	30.01
288.15	0.03	0.4992	1484.79	30.01
288.15	0.03	0.60067	1487.58	30.01
288.15	0.03	0.69838	1490.08	30.01
288.15	0.03	0.79884	1492.8	30
298.15	0.03	0	1499.13	30.01
298.15	0.03	0.09897	1502.18	30.01
298.15	0.03	0.20032	1505.54	30.01
298.15	0.03	0.29755	1508.12	30.01
298.15	0.03	0.40096	1511.35	30.01
298.15	0.03	0.4992	1514.17	30.01
298.15	0.03	0.60067	1516.87	30.01
298.15	0.03	0.69838	1519.92	30.01
298.15	0.03	0.79884	1522.81	30.01
308.15	0.03	0	1522.05	30.01
308.15	0.03	0.09897	1524.89	30.01
308.15	0.03	0.20032	1527.85	30.01
308.15	0.03	0.29755	1530.54	30.01
308.15	0.03	0.40096	1533.96	30.01
308.15	0.03	0.4992	1536.73	30.01
308.15	0.03	0.60067	1539.62	30.01
308.15	0.03	0.69838	1542.56	30.01
308.15	0.03	0.79884	1545.67	30.01
318.15	0.03	0	1538.75	30.01
318.15	0.03	0.09897	1541.78	30.01
318.15	0.03	0.20032	1544.69	30.01
318.15	0.03	0.29755	1547.34	30.01
318.15	0.03	0.40096	1550.48	30.01
318.15	0.03	0.4992	1553.32	30.01
318.15	0.03	0.60067	1556.18	30.01
318.15	0.03	0.69838	1558.98	30.01
318.15	0.03	0.79884	1562.06	30.01
288.15	0.05	0	1472.54	30.01
288.15	0.05	0.09873	1475.48	30.01
288.15	0.05	0.20082	1478.69	30.01
288.15	0.05	0.299	1481.68	30.01
288.15	0.05	0.3998	1484.59	30.01
288.15	0.05	0.49828	1487.39	30.01
288.15	0.05	0.60039	1490.13	30.01
288.15	0.05	0.69943	1492.84	30.01
288.15	0.05	0.79893	1495.35	30.01
298.15	0.05	0	1501.21	30.01
298.15	0.05	0.09873	1504.26	30.01
298.15	0.05	0.20082	1507.53	30.01
298.15	0.05	0.299	1510.29	30.01
298.15	0.05	0.3998	1513.06	30.01
298.15	0.05	0.49828	1515.74	30.01
298.15	0.05	0.60039	1518.61	30.01
298.15	0.05	0.69943	1521.55	30.01
298.15	0.05	0.79893	1524.33	30.01
308.15	0.05	0	1523.28	30.01
308.15	0.05	0.09873	1526.17	30.01
308.15	0.05	0.20082	1529.32	30.01
308.15	0.05	0.299	1532.23	30.01
308.15	0.05	0.3998	1535.14	30.01
308.15	0.05	0.49828	1537.95	30.01
308.15	0.05	0.60039	1540.85	30.01
308.15	0.05	0.69943	1543.85	30.01
308.15	0.05	0.79893	1546.86	30.01
318.15	0.05	0	1540.42	30.01
318.15	0.05	0.09873	1543.36	30.01
318.15	0.05	0.20082	1546.37	30.01
318.15	0.05	0.299	1549.26	30.01
318.15	0.05	0.3998	1552.08	30.01
318.15	0.05	0.49828	1554.93	30.01
318.15	0.05	0.60039	1557.89	30.01
318.15	0.05	0.69943	1560.66	30.01
318.15	0.05	0.79893	1563.68	30.01

System: diethylene glycol + D-sorbitol + water; phases: Liquid
Fixed: Pressure, kPa = 100
Property: Mass density, kg/m3 (Liquid); method: Vibrating tube method
Temperature, K	Solvent: Molality, mol/kg of D-sorbitol	Molality, mol/kg of diethylene glycol	Mass density, kg/m3	uncertainty
288.15	0	0	999.257	0.192
288.15	0	0.09849	1000.689	0.192
288.15	0	0.19736	1002.06	0.193
288.15	0	0.29505	1003.358	0.194
288.15	0	0.41013	1004.837	0.194
288.15	0	0.50063	1005.961	0.195
288.15	0	0.60007	1007.125	0.196
288.15	0	0.69956	1008.278	0.196
288.15	0	0.79993	1009.393	0.197
288.15	0.01	0	999.887	0.192
288.15	0.01	0.10041	1001.309	0.192
288.15	0.01	0.19992	1002.67	0.193
288.15	0.01	0.29515	1003.938	0.194
288.15	0.01	0.40405	1005.34	0.195
288.15	0.01	0.49995	1006.534	0.195
288.15	0.01	0.60913	1007.839	0.196
288.15	0.01	0.69162	1008.786	0.197
288.15	0.01	0.79888	1009.988	0.197
288.15	0.03	0	1001.172	0.192
288.15	0.03	0.1	1002.541	0.193
288.15	0.03	0.2007	1003.875	0.194
288.15	0.03	0.2999	1005.146	0.195
288.15	0.03	0.39776	1006.365	0.195
288.15	0.03	0.50052	1007.614	0.196
288.15	0.03	0.60534	1008.851	0.197
288.15	0.03	0.69708	1009.891	0.197
288.15	0.03	0.79956	1011.024	0.198
288.15	0.05	0	1002.435	0.193
288.15	0.05	0.1002	1003.759	0.194
288.15	0.05	0.19977	1005.041	0.195
288.15	0.05	0.29953	1006.292	0.195
288.15	0.05	0.39978	1007.51	0.196
288.15	0.05	0.5015	1008.724	0.197
288.15	0.05	0.59942	1009.87	0.197
288.15	0.05	0.6986	1010.999	0.198
288.15	0.05	0.80042	1012.138	0.198
298.15	0	0	997.047	0.192
298.15	0	0.09849	998.458	0.192
298.15	0	0.19736	999.78	0.192
298.15	0	0.29505	1001.026	0.193
298.15	0	0.41013	1002.49	0.193
298.15	0	0.50063	1003.585	0.194
298.15	0	0.60007	1004.735	0.195
298.15	0	0.69956	1005.827	0.195
298.15	0	0.79993	1006.873	0.196
298.15	0.01	0	997.823	0.192
298.15	0.01	0.10041	999.21	0.192
298.15	0.01	0.19992	1000.538	0.192
298.15	0.01	0.29515	1001.771	0.193
298.15	0.01	0.40405	1003.137	0.194
298.15	0.01	0.49995	1004.289	0.194
298.15	0.01	0.60913	1005.551	0.195
298.15	0.01	0.69162	1006.456	0.195
298.15	0.01	0.79888	1007.575	0.196
298.15	0.03	0	999.084	0.192
298.15	0.03	0.1	1000.418	0.192
298.15	0.03	0.2007	1001.719	0.193
298.15	0.03	0.2999	1002.951	0.194
298.15	0.03	0.39776	1004.141	0.194
298.15	0.03	0.50052	1005.356	0.195
298.15	0.03	0.60534	1006.553	0.195
298.15	0.03	0.69708	1007.583	0.196
298.15	0.03	0.79956	1008.693	0.197
298.15	0.05	0	1000.322	0.192
298.15	0.05	0.1002	1001.611	0.193
298.15	0.05	0.19977	1002.861	0.193
298.15	0.05	0.29953	1004.082	0.194
298.15	0.05	0.39978	1005.276	0.195
298.15	0.05	0.5015	1006.466	0.195
298.15	0.05	0.59942	1007.579	0.196
298.15	0.05	0.6986	1008.673	0.197
298.15	0.05	0.80042	1009.783	0.197
308.15	0	0	994.039	0.193
308.15	0	0.09849	995.44	0.193
308.15	0	0.19736	996.778	0.192
308.15	0	0.29505	998.046	0.192
308.15	0	0.41013	999.471	0.192
308.15	0	0.50063	1000.531	0.192
308.15	0	0.60007	1001.676	0.193
308.15	0	0.69956	1002.761	0.194
308.15	0	0.79993	1003.829	0.194
308.15	0.01	0	994.845	0.193
308.15	0.01	0.10041	996.218	0.193
308.15	0.01	0.19992	997.528	0.192
308.15	0.01	0.29515	998.738	0.192
308.15	0.01	0.40405	1000.072	0.192
308.15	0.01	0.49995	1001.205	0.193
308.15	0.01	0.60913	1002.445	0.194
308.15	0.01	0.69162	1003.321	0.194
308.15	0.01	0.79888	1004.434	0.195
308.15	0.03	0	996.047	0.193
308.15	0.03	0.1	997.357	0.192
308.15	0.03	0.2007	998.633	0.192
308.15	0.03	0.2999	999.862	0.192
308.15	0.03	0.39776	1001.04	0.193
308.15	0.03	0.50052	1002.239	0.193
308.15	0.03	0.60534	1003.421	0.194
308.15	0.03	0.69708	1004.438	0.195
308.15	0.03	0.79956	1005.533	0.195
308.15	0.05	0	997.257	0.192
308.15	0.05	0.1002	998.518	0.192
308.15	0.05	0.19977	999.738	0.192
308.15	0.05	0.29953	1000.929	0.193
308.15	0.05	0.39978	1002.094	0.193
308.15	0.05	0.5015	1003.241	0.194
308.15	0.05	0.59942	1004.325	0.195
308.15	0.05	0.6986	1005.403	0.195
308.15	0.05	0.80042	1006.485	0.196
318.15	0	0	990.356	0.193
318.15	0	0.09849	991.758	0.193
318.15	0	0.19736	993.102	0.193
318.15	0	0.29505	994.366	0.193
318.15	0	0.41013	995.788	0.193
318.15	0	0.50063	996.853	0.193
318.15	0	0.60007	997.974	0.193
318.15	0	0.69956	999.056	0.192
318.15	0	0.79993	1000.108	0.192
318.15	0.01	0	990.914	0.193
318.15	0.01	0.10041	992.276	0.193
318.15	0.01	0.19992	993.586	0.193
318.15	0.01	0.29515	994.791	0.193
318.15	0.01	0.40405	996.116	0.193
318.15	0.01	0.49995	997.24	0.193
318.15	0.01	0.60913	998.484	0.193
318.15	0.01	0.69162	999.383	0.193
318.15	0.01	0.79888	1000.525	0.193
318.15	0.03	0	992.106	0.193
318.15	0.03	0.1	993.403	0.193
318.15	0.03	0.2007	994.669	0.193
318.15	0.03	0.2999	995.884	0.193
318.15	0.03	0.39776	997.042	0.193
318.15	0.03	0.50052	998.222	0.193
318.15	0.03	0.60534	999.401	0.193
318.15	0.03	0.69708	1000.387	0.193
318.15	0.03	0.79956	1001.453	0.193
318.15	0.05	0	993.322	0.193
318.15	0.05	0.1002	994.571	0.193
318.15	0.05	0.19977	995.78	0.193
318.15	0.05	0.29953	996.963	0.193
318.15	0.05	0.39978	998.122	0.193
318.15	0.05	0.5015	999.269	0.193
318.15	0.05	0.59942	1000.341	0.193
318.15	0.05	0.6986	1001.411	0.193
318.15	0.05	0.80042	1002.486	0.194

System: diethylene glycol + D-sorbitol + water; phases: Liquid
Fixed: Pressure, kPa = 100
Fixed: Frequency, MHz = 3
Property: Speed of sound, m/s (Liquid); method: Single path-length method
Temperature, K	Solvent: Molality, mol/kg of D-sorbitol	Molality, mol/kg of diethylene glycol	Speed of sound, m/s	uncertainty
288.15	0	0	1466.59	30.01
288.15	0	0.09849	1472.11	30.01
288.15	0	0.19736	1478.01	30.01
288.15	0	0.29505	1483.78	30.01
288.15	0	0.41013	1489.36	30.01
288.15	0	0.50063	1494.73	30.01
288.15	0	0.60007	1500.28	30.01
288.15	0	0.69956	1505.69	30.01
288.15	0	0.79993	1510.78	30.01
298.15	0	0	1495.85	30.01
298.15	0	0.09849	1501.24	30.01
298.15	0	0.19736	1506.01	30.01
298.15	0	0.29505	1510.78	30.01
298.15	0	0.41013	1516.15	30.01
298.15	0	0.50063	1520.34	30.01
298.15	0	0.60007	1527.06	30.01
298.15	0	0.69956	1534.55	30.01
298.15	0	0.79993	1540.32	30.01
308.15	0	0	1519.14	30.01
308.15	0	0.09849	1523.52	30.01
308.15	0	0.19736	1527.52	30.01
308.15	0	0.29505	1531.47	30.01
308.15	0	0.41013	1536.11	30.01
308.15	0	0.50063	1541.59	30.01
308.15	0	0.60007	1549.18	30.01
308.15	0	0.69956	1556.59	30.01
308.15	0	0.79993	1562.29	30.01
318.15	0	0	1536.02	30.01
318.15	0	0.09849	1541.59	30.01
318.15	0	0.19736	1547.17	30.01
318.15	0	0.29505	1552.68	30.01
318.15	0	0.41013	1558.07	30.01
318.15	0	0.50063	1563.21	30.01
318.15	0	0.60007	1568.76	30.01
318.15	0	0.69956	1573.92	30.01
318.15	0	0.79993	1579.48	30.01
288.15	0.01	0	1467.84	30.01
288.15	0.01	0.10041	1473.34	30.01
288.15	0.01	0.19992	1479.22	30.01
288.15	0.01	0.29515	1484.81	30.01
288.15	0.01	0.40405	1490.84	30.01
288.15	0.01	0.49995	1496.15	30.01
288.15	0.01	0.60913	1502.08	30.01
288.15	0.01	0.69162	1506.43	30.01
288.15	0.01	0.79888	1512.08	30.01
298.15	0.01	0	1497.55	30.01
298.15	0.01	0.10041	1502.97	30.01
298.15	0.01	0.19992	1508.73	30.01
298.15	0.01	0.29515	1513.85	30.01
298.15	0.01	0.40405	1519.72	30.01
298.15	0.01	0.49995	1524.82	30.01
298.15	0.01	0.60913	1530.95	30.01
298.15	0.01	0.69162	1535.53	30.01
298.15	0.01	0.79888	1541.58	30.01
308.15	0.01	0	1520.61	30.01
308.15	0.01	0.10041	1526.18	30.01
308.15	0.01	0.19992	1531.46	30.01
308.15	0.01	0.29515	1536.28	30.01
308.15	0.01	0.40405	1541.92	30.01
308.15	0.01	0.49995	1547.29	30.01
308.15	0.01	0.60913	1553.17	30.01
308.15	0.01	0.69162	1557.54	30.01
308.15	0.01	0.79888	1563.68	30.01
318.15	0.01	0	1537.24	30.01
318.15	0.01	0.10041	1542.89	30.01
318.15	0.01	0.19992	1548.34	30.01
318.15	0.01	0.29515	1553.65	30.01
318.15	0.01	0.40405	1559.52	30.01
318.15	0.01	0.49995	1564.61	30.01
318.15	0.01	0.60913	1570.52	30.01
318.15	0.01	0.69162	1574.92	30.01
318.15	0.01	0.79888	1580.81	30.01
288.15	0.03	0	1469.89	30.01
288.15	0.03	0.1	1475.27	30.01
288.15	0.03	0.2007	1480.96	30.01
288.15	0.03	0.2999	1486.75	30.01
288.15	0.03	0.39776	1492.33	30.01
288.15	0.03	0.50052	1497.98	30.01
288.15	0.03	0.60534	1503.55	30.01
288.15	0.03	0.69708	1508.59	30.01
288.15	0.03	0.79956	1514.24	30.01
298.15	0.03	0	1499.13	30.01
298.15	0.03	0.1	1504.86	30.01
298.15	0.03	0.2007	1510.78	30.01
298.15	0.03	0.2999	1516.24	30.01
298.15	0.03	0.39776	1521.52	30.01
298.15	0.03	0.50052	1526.69	30.01
298.15	0.03	0.60534	1532.53	30.01
298.15	0.03	0.69708	1537.56	30.01
298.15	0.03	0.79956	1543.46	30.01
308.15	0.03	0	1522.05	30.01
308.15	0.03	0.1	1527.55	30.01
308.15	0.03	0.2007	1532.72	30.01
308.15	0.03	0.2999	1538.05	30.01
308.15	0.03	0.39776	1543.05	30.01
308.15	0.03	0.50052	1548.55	30.01
308.15	0.03	0.60534	1554.35	30.01
308.15	0.03	0.69708	1559.12	30.01
308.15	0.03	0.79956	1565.07	30.01
318.15	0.03	0	1538.75	30.01
318.15	0.03	0.1	1544.53	30.01
318.15	0.03	0.2007	1549.97	30.01
318.15	0.03	0.2999	1555.38	30.01
318.15	0.03	0.39776	1560.81	30.01
318.15	0.03	0.50052	1566.22	30.01
318.15	0.03	0.60534	1571.94	30.01
318.15	0.03	0.69708	1577.02	30.01
318.15	0.03	0.79956	1582.35	30.01
288.15	0.05	0	1472.54	30.01
288.15	0.05	0.1002	1477.82	30.01
288.15	0.05	0.19977	1483.33	30.01
288.15	0.05	0.29953	1488.96	30.01
288.15	0.05	0.39978	1494.75	30.01
288.15	0.05	0.5015	1500.33	30.01
288.15	0.05	0.59942	1505.64	30.01
288.15	0.05	0.6986	1511.04	30.01
288.15	0.05	0.80042	1516.68	30.01
298.15	0.05	0	1501.21	30.01
298.15	0.05	0.1002	1506.89	30.01
298.15	0.05	0.19977	1512.64	30.01
298.15	0.05	0.29953	1518.27	30.01
298.15	0.05	0.39978	1523.62	30.01
298.15	0.05	0.5015	1528.92	30.01
298.15	0.05	0.59942	1534.48	30.01
298.15	0.05	0.6986	1539.87	30.01
298.15	0.05	0.80042	1545.83	30.01
308.15	0.05	0	1523.28	30.01
308.15	0.05	0.1002	1528.94	30.01
308.15	0.05	0.19977	1534.11	30.01
308.15	0.05	0.29953	1539.52	30.01
308.15	0.05	0.39978	1544.63	30.01
308.15	0.05	0.5015	1550.02	30.01
308.15	0.05	0.59942	1555.52	30.01
308.15	0.05	0.6986	1560.65	30.01
308.15	0.05	0.80042	1566.42	30.01
318.15	0.05	0	1540.42	30.01
318.15	0.05	0.1002	1546.18	30.01
318.15	0.05	0.19977	1551.62	30.01
318.15	0.05	0.29953	1557.04	30.01
318.15	0.05	0.39978	1562.58	30.01
318.15	0.05	0.5015	1567.94	30.01
318.15	0.05	0.59942	1573.24	30.01
318.15	0.05	0.6986	1578.56	30.01
318.15	0.05	0.80042	1583.98	30.01

System: triethylene glycol + D-sorbitol + water; phases: Liquid
Fixed: Pressure, kPa = 100
Property: Mass density, kg/m3 (Liquid); method: Vibrating tube method
Temperature, K	Solvent: Molality, mol/kg of D-sorbitol	Molality, mol/kg of triethylene glycol	Mass density, kg/m3	uncertainty
288.15	0	0	999.257	0.243
288.15	0	0.0965	1001.366	0.244
288.15	0	0.2002	1003.551	0.245
288.15	0	0.29205	1005.416	0.247
288.15	0	0.39856	1007.496	0.248
288.15	0	0.49879	1009.367	0.25
288.15	0	0.59989	1011.202	0.251
288.15	0	0.6947	1012.819	0.253
288.15	0	0.7929	1014.471	0.254
298.15	0	0	997.047	0.243
298.15	0	0.0965	999.126	0.243
298.15	0	0.2002	1001.272	0.244
298.15	0	0.29205	1003.106	0.245
298.15	0	0.39856	1005.14	0.247
298.15	0	0.49879	1006.991	0.248
298.15	0	0.59989	1008.767	0.25
298.15	0	0.6947	1010.377	0.251
298.15	0	0.7929	1011.992	0.252
308.15	0	0	994.039	0.243
308.15	0	0.0965	996.095	0.243
308.15	0	0.2002	998.216	0.243
308.15	0	0.29205	1000.013	0.243
308.15	0	0.39856	1002.025	0.244
308.15	0	0.49879	1003.851	0.246
308.15	0	0.59989	1005.625	0.247
308.15	0	0.6947	1007.215	0.248
308.15	0	0.7929	1008.811	0.25
318.15	0	0	990.356	0.243
318.15	0	0.0965	992.405	0.243
318.15	0	0.2002	994.52	0.243
318.15	0	0.29205	996.322	0.243
318.15	0	0.39856	998.332	0.243
318.15	0	0.49879	1000.147	0.243
318.15	0	0.59989	1001.923	0.245
318.15	0	0.6947	1003.518	0.246
318.15	0	0.7929	1005.119	0.247
288.15	0.01	0	999.887	0.243
288.15	0.01	0.09989	1002.032	0.244
288.15	0.01	0.19946	1004.1	0.246
288.15	0.01	0.30086	1006.132	0.247
288.15	0.01	0.39136	1007.88	0.249
288.15	0.01	0.50029	1009.913	0.25
288.15	0.01	0.59685	1011.659	0.252
288.15	0.01	0.6991	1013.438	0.253
288.15	0.01	0.80096	1015.139	0.255
298.15	0.01	0	997.823	0.243
298.15	0.01	0.09989	999.93	0.243
298.15	0.01	0.19946	1001.952	0.244
298.15	0.01	0.30086	1003.941	0.246
298.15	0.01	0.39136	1005.648	0.247
298.15	0.01	0.50029	1007.647	0.249
298.15	0.01	0.59685	1009.357	0.25
298.15	0.01	0.6991	1011.098	0.251
298.15	0.01	0.80096	1012.777	0.253
308.15	0.01	0	994.845	0.243
308.15	0.01	0.09989	996.931	0.243
308.15	0.01	0.19946	998.936	0.243
308.15	0.01	0.30086	1000.904	0.244
308.15	0.01	0.39136	1002.605	0.245
308.15	0.01	0.50029	1004.587	0.246
308.15	0.01	0.59685	1006.26	0.248
308.15	0.01	0.6991	1007.983	0.249
308.15	0.01	0.80096	1009.652	0.251
318.15	0.01	0	990.914	0.243
318.15	0.01	0.09989	992.996	0.243
318.15	0.01	0.19946	995	0.243
318.15	0.01	0.30086	996.967	0.243
318.15	0.01	0.39136	998.657	0.243
318.15	0.01	0.50029	1000.639	0.244
318.15	0.01	0.59685	1002.321	0.245
318.15	0.01	0.6991	1004.03	0.246
318.15	0.01	0.80096	1005.689	0.247
288.15	0.03	0	1001.172	0.244
288.15	0.03	0.09945	1003.261	0.245
288.15	0.03	0.20225	1005.341	0.247
288.15	0.03	0.30046	1007.259	0.248
288.15	0.03	0.40037	1009.148	0.25
288.15	0.03	0.50006	1010.952	0.251
288.15	0.03	0.60023	1012.708	0.253
288.15	0.03	0.69798	1014.346	0.254
288.15	0.03	0.79686	1015.964	0.255
298.15	0.03	0	999.084	0.243
298.15	0.03	0.09945	1001.132	0.244
298.15	0.03	0.20225	1003.177	0.245
298.15	0.03	0.30046	1005.059	0.247
298.15	0.03	0.40037	1006.898	0.248
298.15	0.03	0.50006	1008.668	0.249
298.15	0.03	0.60023	1010.393	0.251
298.15	0.03	0.69798	1012.024	0.252
298.15	0.03	0.79686	1013.605	0.254
308.15	0.03	0	996.047	0.243
308.15	0.03	0.09945	998.074	0.243
308.15	0.03	0.20225	1000.094	0.243
308.15	0.03	0.30046	1001.956	0.244
308.15	0.03	0.40037	1003.79	0.246
308.15	0.03	0.50006	1005.544	0.247
308.15	0.03	0.60023	1007.253	0.249
308.15	0.03	0.69798	1008.842	0.25
308.15	0.03	0.79686	1010.405	0.251
318.15	0.03	0	992.106	0.243
318.15	0.03	0.09945	994.128	0.243
318.15	0.03	0.20225	996.14	0.243
318.15	0.03	0.30046	997.991	0.243
318.15	0.03	0.40037	999.81	0.243
318.15	0.03	0.50006	1001.569	0.244
318.15	0.03	0.60023	1003.267	0.246
318.15	0.03	0.69798	1004.857	0.247
318.15	0.03	0.79686	1006.421	0.248
288.15	0.05	0	1002.435	0.244
288.15	0.05	0.09971	1004.487	0.246
288.15	0.05	0.20032	1006.484	0.248
288.15	0.05	0.29848	1008.368	0.249
288.15	0.05	0.40106	1010.26	0.251
288.15	0.05	0.49992	1012.023	0.252
288.15	0.05	0.59987	1013.74	0.254
288.15	0.05	0.69799	1015.376	0.255
288.15	0.05	0.79874	1016.973	0.256
298.15	0.05	0	1000.322	0.243
298.15	0.05	0.09971	1002.339	0.244
298.15	0.05	0.20032	1004.3	0.246
298.15	0.05	0.29848	1006.139	0.247
298.15	0.05	0.40106	1007.997	0.249
298.15	0.05	0.49992	1009.731	0.25
298.15	0.05	0.59987	1011.425	0.252
298.15	0.05	0.69799	1013.018	0.253
298.15	0.05	0.79874	1014.605	0.254
308.15	0.05	0	997.257	0.243
308.15	0.05	0.09971	999.249	0.243
308.15	0.05	0.20032	1001.191	0.244
308.15	0.05	0.29848	1003.019	0.245
308.15	0.05	0.40106	1004.862	0.247
308.15	0.05	0.49992	1006.571	0.248
308.15	0.05	0.59987	1008.225	0.249
308.15	0.05	0.69799	1009.792	0.251
308.15	0.05	0.79874	1011.336	0.252
318.15	0.05	0	993.322	0.243
318.15	0.05	0.09971	995.296	0.243
318.15	0.05	0.20032	997.217	0.243
318.15	0.05	0.29848	999.02	0.243
318.15	0.05	0.40106	1000.847	0.244
318.15	0.05	0.49992	1002.528	0.245
318.15	0.05	0.59987	1004.179	0.246
318.15	0.05	0.69799	1005.749	0.248
318.15	0.05	0.79874	1007.308	0.249

System: triethylene glycol + D-sorbitol + water; phases: Liquid
Fixed: Pressure, kPa = 100
Fixed: Frequency, MHz = 3
Property: Speed of sound, m/s (Liquid); method: Single path-length method
Temperature, K	Solvent: Molality, mol/kg of D-sorbitol	Molality, mol/kg of triethylene glycol	Speed of sound, m/s	uncertainty
288.15	0	0	1466.59	30.02
288.15	0	0.0965	1474.72	30.02
288.15	0	0.2002	1483.26	30.02
288.15	0	0.29205	1491.74	30.02
288.15	0	0.39856	1499.22	30.02
288.15	0	0.49879	1508.48	30.02
288.15	0	0.59989	1516.07	30.02
288.15	0	0.6947	1523.59	30.02
288.15	0	0.7929	1531.19	30.02
298.15	0	0	1495.85	30.02
298.15	0	0.0965	1503.48	30.02
298.15	0	0.2002	1511.04	30.02
298.15	0	0.29205	1517.62	30.02
298.15	0	0.39856	1525.38	30.02
298.15	0	0.49879	1532.21	30.02
298.15	0	0.59989	1542.37	30.02
298.15	0	0.6947	1551.24	30.02
298.15	0	0.7929	1560.56	30.02
308.15	0	0	1519.14	30.02
308.15	0	0.0965	1525.09	30.02
308.15	0	0.2002	1531.28	30.02
308.15	0	0.29205	1536.87	30.02
308.15	0	0.39856	1543.31	30.02
308.15	0	0.49879	1550.94	30.02
308.15	0	0.59989	1563.23	30.02
308.15	0	0.6947	1572.72	30.02
308.15	0	0.7929	1582.65	30.02
318.15	0	0	1536.02	30.02
318.15	0	0.0965	1543.95	30.02
318.15	0	0.2002	1552.21	30.02
318.15	0	0.29205	1560.57	30.02
318.15	0	0.39856	1567.78	30.02
318.15	0	0.49879	1576.89	30.02
318.15	0	0.59989	1584.48	30.02
318.15	0	0.6947	1592.31	30.02
318.15	0	0.7929	1600.48	30.02
288.15	0.01	0	1467.84	30.02
288.15	0.01	0.09989	1476.72	30.02
288.15	0.01	0.19946	1485.02	30.02
288.15	0.01	0.30086	1493.31	30.02
288.15	0.01	0.39136	1500.78	30.02
288.15	0.01	0.50029	1509.82	30.02
288.15	0.01	0.59685	1517.59	30.02
288.15	0.01	0.6991	1525.52	30.02
288.15	0.01	0.80096	1533.56	30.02
298.15	0.01	0	1497.55	30.02
298.15	0.01	0.09989	1505.85	30.02
298.15	0.01	0.19946	1514.25	30.02
298.15	0.01	0.30086	1522.16	30.02
298.15	0.01	0.39136	1529.37	30.02
298.15	0.01	0.50029	1537.95	30.02
298.15	0.01	0.59685	1545.53	30.02
298.15	0.01	0.6991	1553.81	30.02
298.15	0.01	0.80096	1562.87	30.02
308.15	0.01	0	1520.61	30.02
308.15	0.01	0.09989	1528.45	30.02
308.15	0.01	0.19946	1535.98	30.02
308.15	0.01	0.30086	1543.94	30.02
308.15	0.01	0.39136	1551.14	30.02
308.15	0.01	0.50029	1559.92	30.02
308.15	0.01	0.59685	1567.85	30.02
308.15	0.01	0.6991	1576.53	30.02
308.15	0.01	0.80096	1584.83	30.02
318.15	0.01	0	1537.24	30.02
318.15	0.01	0.09989	1545.45	30.02
318.15	0.01	0.19946	1553.54	30.02
318.15	0.01	0.30086	1561.78	30.02
318.15	0.01	0.39136	1569.02	30.02
318.15	0.01	0.50029	1577.78	30.02
318.15	0.01	0.59685	1585.65	30.02
318.15	0.01	0.6991	1593.99	30.02
318.15	0.01	0.80096	1602.56	30.02
288.15	0.03	0	1469.89	30.02
288.15	0.03	0.09945	1478.42	30.02
288.15	0.03	0.20225	1486.99	30.02
288.15	0.03	0.30046	1495.23	30.02
288.15	0.03	0.40037	1503.52	30.02
288.15	0.03	0.50006	1511.71	30.02
288.15	0.03	0.60023	1519.77	30.02
288.15	0.03	0.69798	1527.28	30.02
288.15	0.03	0.79686	1534.85	30.02
298.15	0.03	0	1499.13	30.02
298.15	0.03	0.09945	1507.29	30.02
298.15	0.03	0.20225	1515.98	30.02
298.15	0.03	0.30046	1523.75	30.02
298.15	0.03	0.40037	1531.62	30.02
298.15	0.03	0.50006	1539.56	30.02
298.15	0.03	0.60023	1547.42	30.02
298.15	0.03	0.69798	1555.35	30.02
298.15	0.03	0.79686	1564.18	30.02
308.15	0.03	0	1522.05	30.02
308.15	0.03	0.09945	1529.78	30.02
308.15	0.03	0.20225	1537.56	30.02
308.15	0.03	0.30046	1545.37	30.02
308.15	0.03	0.40037	1553.46	30.02
308.15	0.03	0.50006	1561.38	30.02
308.15	0.03	0.60023	1569.69	30.02
308.15	0.03	0.69798	1577.93	30.02
308.15	0.03	0.79686	1585.86	30.02
318.15	0.03	0	1538.75	30.02
318.15	0.03	0.09945	1546.92	30.02
318.15	0.03	0.20225	1555.32	30.02
318.15	0.03	0.30046	1563.23	30.02
318.15	0.03	0.40037	1571.17	30.02
318.15	0.03	0.50006	1579.24	30.02
318.15	0.03	0.60023	1587.16	30.02
318.15	0.03	0.69798	1595.18	30.02
318.15	0.03	0.79686	1603.29	30.02
288.15	0.05	0	1472.54	30.02
288.15	0.05	0.09971	1480.95	30.02
288.15	0.05	0.20032	1489.59	30.02
288.15	0.05	0.29848	1497.84	30.02
288.15	0.05	0.40106	1506.23	30.02
288.15	0.05	0.49992	1514.49	30.02
288.15	0.05	0.59987	1522.36	30.02
288.15	0.05	0.69799	1529.89	30.02
288.15	0.05	0.79874	1537.51	30.02
298.15	0.05	0	1501.21	30.02
298.15	0.05	0.09971	1509.34	30.02
298.15	0.05	0.20032	1517.93	30.02
298.15	0.05	0.29848	1525.61	30.02
298.15	0.05	0.40106	1533.72	30.02
298.15	0.05	0.49992	1541.57	30.02
298.15	0.05	0.59987	1549.37	30.02
298.15	0.05	0.69799	1557.35	30.02
298.15	0.05	0.79874	1566.35	30.02
308.15	0.05	0	1523.28	30.02
308.15	0.05	0.09971	1531.24	30.02
308.15	0.05	0.20032	1538.88	30.02
308.15	0.05	0.29848	1546.63	30.02
308.15	0.05	0.40106	1554.73	30.02
308.15	0.05	0.49992	1562.64	30.02
308.15	0.05	0.59987	1570.88	30.02
308.15	0.05	0.69799	1579.14	30.02
308.15	0.05	0.79874	1587.25	30.02
318.15	0.05	0	1540.42	30.02
318.15	0.05	0.09971	1548.54	30.02
318.15	0.05	0.20032	1556.78	30.02
318.15	0.05	0.29848	1564.61	30.02
318.15	0.05	0.40106	1572.99	30.02
318.15	0.05	0.49992	1580.82	30.02
318.15	0.05	0.59987	1588.93	30.02
318.15	0.05	0.69799	1596.74	30.02
318.15	0.05	0.79874	1604.94	30.02

System: 1,2-ethanediol + water; phases: Liquid
Fixed: Pressure, kPa = 100
Property: Mass density, kg/m3 (Liquid); method: Vibrating tube method
Temperature, K	Molality, mol/kg of 1,2-ethanediol	Mass density, kg/m3	uncertainty
288.15	0.09889	1000.117	0.105
288.15	0.19894	1000.96	0.105
288.15	0.29967	1001.786	0.105
288.15	0.39481	1002.529	0.105
288.15	0.50155	1003.347	0.106
288.15	0.59227	1004.018	0.106
288.15	0.69637	1004.757	0.106
288.15	0.79832	1005.436	0.106
298.15	0.09889	997.877	0.105
298.15	0.19894	998.688	0.105
298.15	0.29967	999.473	0.105
298.15	0.39481	1000.184	0.105
298.15	0.50155	1000.961	0.106
298.15	0.59227	1001.596	0.106
298.15	0.69637	1002.293	0.106
298.15	0.79832	1002.952	0.106
308.15	0.09889	994.84	0.106
308.15	0.19894	995.613	0.106
308.15	0.29967	996.362	0.106
308.15	0.39481	997.038	0.106
308.15	0.50155	997.764	0.106
308.15	0.59227	998.366	0.106
308.15	0.69637	999.045	0.106
308.15	0.79832	999.679	0.106
318.15	0.09889	991.134	0.107
318.15	0.19894	991.88	0.107
318.15	0.29967	992.607	0.107
318.15	0.39481	993.261	0.107
318.15	0.50155	993.973	0.107
318.15	0.59227	994.55	0.107
318.15	0.69637	995.188	0.107
318.15	0.79832	995.805	0.107

System: 1,2-ethanediol + water; phases: Liquid
Fixed: Pressure, kPa = 100
Fixed: Frequency, MHz = 3
Property: Speed of sound, m/s (Liquid); method: Single path-length method
Temperature, K	Molality, mol/kg of 1,2-ethanediol	Speed of sound, m/s	uncertainty
288.15	0.09889	1469.57	30
288.15	0.19894	1472.72	30
288.15	0.29967	1475.45	30
288.15	0.39481	1478.57	30
288.15	0.50155	1481.17	30
288.15	0.59227	1484.02	30
288.15	0.69637	1486.59	30
288.15	0.79832	1489.45	30
298.15	0.09889	1498.92	30
298.15	0.19894	1501.72	30
298.15	0.29967	1504.29	30
298.15	0.39481	1506.64	30
298.15	0.50155	1509.09	30
298.15	0.59227	1511.61	30
298.15	0.69637	1514.81	30
298.15	0.79832	1517.93	30
308.15	0.09889	1521.84	30
308.15	0.19894	1524.03	30
308.15	0.29967	1526.18	30
308.15	0.39481	1528.28	30
308.15	0.50155	1530.34	30
308.15	0.59227	1534.12	30
308.15	0.69637	1537.56	30
308.15	0.79832	1540.35	30
318.15	0.09889	1539.17	30
318.15	0.19894	1542.24	30
318.15	0.29967	1544.95	30
318.15	0.39481	1547.87	30
318.15	0.50155	1550.65	30
318.15	0.59227	1553.56	30
318.15	0.69637	1556.55	30
318.15	0.79832	1559.58	30

System: D-sorbitol + water; phases: Liquid
Fixed: Pressure, kPa = 100
Property: Mass density, kg/m3 (Liquid); method: Vibrating tube method
Temperature, K	Molality, mol/kg of D-sorbitol	Mass density, kg/m3	uncertainty
288.15	0.01	999.887	0.105
298.15	0.01	997.823	0.105
308.15	0.01	994.845	0.106
318.15	0.01	990.914	0.107
288.15	0.03	1001.172	0.105
298.15	0.03	999.084	0.105
308.15	0.03	996.047	0.106
318.15	0.03	992.106	0.107
288.15	0.05	1002.435	0.105
298.15	0.05	1000.322	0.105
308.15	0.05	997.257	0.106
318.15	0.05	993.322	0.107

System: D-sorbitol + water; phases: Liquid
Fixed: Pressure, kPa = 100
Fixed: Frequency, MHz = 3
Property: Speed of sound, m/s (Liquid); method: Single path-length method
Temperature, K	Molality, mol/kg of D-sorbitol	Speed of sound, m/s	uncertainty
288.15	0.01	1467.84	30
298.15	0.01	1497.55	30
308.15	0.01	1520.61	30
318.15	0.01	1537.24	30
288.15	0.03	1469.89	30
298.15	0.03	1499.13	30
308.15	0.03	1522.05	30
318.15	0.03	1538.75	30
288.15	0.05	1472.54	30
298.15	0.05	1501.21	30
308.15	0.05	1523.28	30
318.15	0.05	1540.42	30

System: diethylene glycol + water; phases: Liquid
Fixed: Pressure, kPa = 100
Property: Mass density, kg/m3 (Liquid); method: Vibrating tube method
Temperature, K	Molality, mol/kg of diethylene glycol	Mass density, kg/m3	uncertainty
288.15	0.09849	1000.689	0.105
288.15	0.19736	1002.06	0.105
288.15	0.29505	1003.358	0.106
288.15	0.41013	1004.837	0.106
288.15	0.50063	1005.961	0.107
288.15	0.60007	1007.125	0.107
288.15	0.69956	1008.278	0.108
288.15	0.79993	1009.393	0.108
298.15	0.09849	998.458	0.105
298.15	0.19736	999.78	0.105
298.15	0.29505	1001.026	0.106
298.15	0.41013	1002.49	0.106
298.15	0.50063	1003.585	0.107
298.15	0.60007	1004.735	0.107
298.15	0.69956	1005.827	0.107
298.15	0.79993	1006.873	0.108
308.15	0.09849	995.44	0.106
308.15	0.19736	996.778	0.106
308.15	0.29505	998.046	0.106
308.15	0.41013	999.471	0.106
308.15	0.50063	1000.531	0.107
308.15	0.60007	1001.676	0.107
308.15	0.69956	1002.761	0.107
308.15	0.79993	1003.829	0.108
318.15	0.09849	991.758	0.107
318.15	0.19736	993.102	0.107
318.15	0.29505	994.366	0.107
318.15	0.41013	995.788	0.107
318.15	0.50063	996.853	0.107
318.15	0.60007	997.974	0.107
318.15	0.69956	999.056	0.108
318.15	0.79993	1000.108	0.108

System: diethylene glycol + water; phases: Liquid
Fixed: Pressure, kPa = 100
Fixed: Frequency, MHz = 3
Property: Speed of sound, m/s (Liquid); method: Single path-length method
Temperature, K	Molality, mol/kg of diethylene glycol	Speed of sound, m/s	uncertainty
288.15	0.09849	1472.11	30
288.15	0.19736	1478.01	30
288.15	0.29505	1483.78	30
288.15	0.41013	1489.36	30
288.15	0.50063	1494.73	30
288.15	0.60007	1500.28	30
288.15	0.69956	1505.69	30
288.15	0.79993	1510.78	30
298.15	0.09849	1501.24	30
298.15	0.19736	1506.01	30
298.15	0.29505	1510.78	30
298.15	0.41013	1516.15	30
298.15	0.50063	1520.34	30
298.15	0.60007	1527.06	30
298.15	0.69956	1534.55	30
298.15	0.79993	1540.32	30
308.15	0.09849	1523.52	30
308.15	0.19736	1527.52	30
308.15	0.29505	1531.47	30
308.15	0.41013	1536.11	30
308.15	0.50063	1541.59	30
308.15	0.60007	1549.18	30
308.15	0.69956	1556.59	30
308.15	0.79993	1562.29	30
318.15	0.09849	1541.59	30
318.15	0.19736	1547.17	30
318.15	0.29505	1552.68	30
318.15	0.41013	1558.07	30
318.15	0.50063	1563.21	30
318.15	0.60007	1568.76	30
318.15	0.69956	1573.92	30
318.15	0.79993	1579.48	30

System: triethylene glycol + water; phases: Liquid
Fixed: Pressure, kPa = 100
Property: Mass density, kg/m3 (Liquid); method: Vibrating tube method
Temperature, K	Molality, mol/kg of triethylene glycol	Mass density, kg/m3	uncertainty
288.15	0.0965	1001.366	0.105
288.15	0.2002	1003.551	0.106
288.15	0.29205	1005.416	0.107
288.15	0.39856	1007.496	0.108
288.15	0.49879	1009.367	0.109
288.15	0.59989	1011.202	0.11
288.15	0.6947	1012.819	0.111
288.15	0.7929	1014.471	0.112
298.15	0.0965	999.126	0.105
298.15	0.2002	1001.272	0.106
298.15	0.29205	1003.106	0.107
298.15	0.39856	1005.14	0.108
298.15	0.49879	1006.991	0.109
298.15	0.59989	1008.767	0.11
298.15	0.6947	1010.377	0.111
298.15	0.7929	1011.992	0.112
308.15	0.0965	996.095	0.106
308.15	0.2002	998.216	0.106
308.15	0.29205	1000.013	0.107
308.15	0.39856	1002.025	0.108
308.15	0.49879	1003.851	0.109
308.15	0.59989	1005.625	0.11
308.15	0.6947	1007.215	0.111
308.15	0.7929	1008.811	0.112
318.15	0.0965	992.405	0.107
318.15	0.2002	994.52	0.107
318.15	0.29205	996.322	0.107
318.15	0.39856	998.332	0.108
318.15	0.49879	1000.147	0.108
318.15	0.59989	1001.923	0.109
318.15	0.6947	1003.518	0.11
318.15	0.7929	1005.119	0.112

System: triethylene glycol + water; phases: Liquid
Fixed: Pressure, kPa = 100
Fixed: Frequency, MHz = 3
Property: Speed of sound, m/s (Liquid); method: Single path-length method
Temperature, K	Molality, mol/kg of triethylene glycol	Speed of sound, m/s	uncertainty
288.15	0.0965	1474.72	30
288.15	0.2002	1483.26	30
288.15	0.29205	1491.74	30
288.15	0.39856	1499.22	30
288.15	0.49879	1508.48	30
288.15	0.59989	1516.07	30
288.15	0.6947	1523.59	30
288.15	0.7929	1531.19	30
298.15	0.0965	1503.48	30
298.15	0.2002	1511.04	30
298.15	0.29205	1517.62	30
298.15	0.39856	1525.38	30
298.15	0.49879	1532.21	30
298.15	0.59989	1542.37	30
298.15	0.6947	1551.24	30
298.15	0.7929	1560.56	30
308.15	0.0965	1525.09	30
308.15	0.2002	1531.28	30
308.15	0.29205	1536.87	30
308.15	0.39856	1543.31	30
308.15	0.49879	1550.94	30
308.15	0.59989	1563.23	30
308.15	0.6947	1572.72	30
308.15	0.7929	1582.65	30
318.15	0.0965	1543.95	30
318.15	0.2002	1552.21	30
318.15	0.29205	1560.57	30
318.15	0.39856	1567.78	30
318.15	0.49879	1576.89	30
318.15	0.59989	1584.48	30
318.15	0.6947	1592.31	30
318.15	0.7929	1600.48	30
