Measured thermophysical data. Effect of Diluents on Extraction Equilibrium of trans-Aconitic Acid
Source: J. Chem. Eng. Data, 2019, 10.1021/acs.jced.9b00059
Compound 1: trans-1-propene-1,2,3-tricarboxylic acid, C6H6O6, InChI=1S/C6H6O6/c7-4(8)1-3(6(11)12)2-5(9)10/h1H,2H2,(H,7,8)(H,9,10)(H,11,12)/b3-1+
Compound 2: heptane, C7H16, InChI=1S/C7H16/c1-3-5-7-6-4-2/h3-7H2,1-2H3
Compound 3: benzene, C6H6, InChI=1S/C6H6/c1-2-4-6-5-3-1/h1-6H
Compound 4: dodecan-1-ol, C12H26O, InChI=1S/C12H26O/c1-2-3-4-5-6-7-8-9-10-11-12-13/h13H,2-12H2,1H3
Compound 5: benzenemethanol, C7H8O, InChI=1S/C7H8O/c8-6-7-4-2-1-3-5-7/h1-5,8H,6H2
Compound 6: cyclohexanone, C6H10O, InChI=1S/C6H10O/c7-6-4-2-1-3-5-6/h1-5H2
Compound 7: 4-methylpentan-2-one, C6H12O, InChI=1S/C6H12O/c1-5(2)4-6(3)7/h5H,4H2,1-3H3
Compound 8: water, H2O, InChI=1S/H2O/h1H2, purity 99.9%

System: trans-1-propene-1,2,3-tricarboxylic acid + cyclohexanone + water; phases: Liquid mixture 1, Liquid mixture 2
Fixed: Temperature, K = 300.15
Fixed: Pressure, kPa = 100
Property: Molality, mol/kg of trans-1-propene-1,2,3-tricarboxylic acid (Liquid mixture 1); method: titration
Molality, mol/kg of trans-1-propene-1,2,3-tricarboxylic acid	Molality, mol/kg of trans-1-propene-1,2,3-tricarboxylic acid	uncertainty
0.041	0.032	0.013
0.063	0.102	0.015
0.079	0.167	0.016
0.094	0.217	0.015

System: trans-1-propene-1,2,3-tricarboxylic acid + 4-methylpentan-2-one + water; phases: Liquid mixture 1, Liquid mixture 2
Fixed: Temperature, K = 300.15
Fixed: Pressure, kPa = 100
Property: Molality, mol/kg of trans-1-propene-1,2,3-tricarboxylic acid (Liquid mixture 1); method: titration
Molality, mol/kg of trans-1-propene-1,2,3-tricarboxylic acid	Molality, mol/kg of trans-1-propene-1,2,3-tricarboxylic acid	uncertainty
0.055	0.018	0.004
0.122	0.043	0.004
0.179	0.067	0.005
0.217	0.094	0.005

System: trans-1-propene-1,2,3-tricarboxylic acid + dodecan-1-ol + water; phases: Liquid mixture 1, Liquid mixture 2
Fixed: Temperature, K = 300.15
Fixed: Pressure, kPa = 100
Property: Molality, mol/kg of trans-1-propene-1,2,3-tricarboxylic acid (Liquid mixture 1); method: titration
Molality, mol/kg of trans-1-propene-1,2,3-tricarboxylic acid	Molality, mol/kg of trans-1-propene-1,2,3-tricarboxylic acid	uncertainty
0.048	0.025	0.005
0.105	0.06	0.005
0.156	0.089	0.005
0.199	0.112	0.005

System: trans-1-propene-1,2,3-tricarboxylic acid + benzenemethanol + water; phases: Liquid mixture 1, Liquid mixture 2
Fixed: Temperature, K = 300.15
Fixed: Pressure, kPa = 100
Property: Molality, mol/kg of trans-1-propene-1,2,3-tricarboxylic acid (Liquid mixture 1); method: titration
Molality, mol/kg of trans-1-propene-1,2,3-tricarboxylic acid	Molality, mol/kg of trans-1-propene-1,2,3-tricarboxylic acid	uncertainty
0.038	0.035	0.006
0.083	0.082	0.006
0.121	0.124	0.007
0.15	0.16	0.007

System: trans-1-propene-1,2,3-tricarboxylic acid + benzene + water; phases: Liquid mixture 1, Liquid mixture 2
Fixed: Temperature, K = 300.15
Fixed: Pressure, kPa = 100
Property: Molality, mol/kg of trans-1-propene-1,2,3-tricarboxylic acid (Liquid mixture 1); method: titration
Molality, mol/kg of trans-1-propene-1,2,3-tricarboxylic acid	Molality, mol/kg of trans-1-propene-1,2,3-tricarboxylic acid	uncertainty
0.063	0.01	0.004
0.141	0.024	0.004
0.219	0.026	0.004
0.273	0.037	0.004

System: trans-1-propene-1,2,3-tricarboxylic acid + heptane + water; phases: Liquid mixture 1, Liquid mixture 2
Fixed: Temperature, K = 300.15
Fixed: Pressure, kPa = 100
Property: Molality, mol/kg of trans-1-propene-1,2,3-tricarboxylic acid (Liquid mixture 1); method: titration
Molality, mol/kg of trans-1-propene-1,2,3-tricarboxylic acid	Molality, mol/kg of trans-1-propene-1,2,3-tricarboxylic acid	uncertainty
0.071	0.002	0.002
0.148	0.018	0.004
0.221	0.029	0.004
0.275	0.035	0.004
