Measured thermophysical data. Solubility and Mixing Thermodynamics Properties of p-Toluenesulfonamide and o-Toluenesulfonamide in Seven Monosolvents at Different Temperatures
Source: J. Chem. Eng. Data, 2017, 10.1021/acs.jced.7b00714
Compound 1: p-toluenesulfonamide, C7H9NO2S, InChI=1S/C7H9NO2S/c1-6-2-4-7(5-3-6)11(8,9)10/h2-5H,1H3,(H2,8,9,10), purity 99.4%
Compound 2: o-toluenesulfonamide, C7H9NO2S, InChI=1S/C7H9NO2S/c1-6-4-2-3-5-7(6)11(8,9)10/h2-5H,1H3,(H2,8,9,10), purity 99.5%
Compound 3: methanol, CH4O, InChI=1S/CH4O/c1-2/h2H,1H3, purity 99.6%
Compound 4: ethanol, C2H6O, InChI=1S/C2H6O/c1-2-3/h3H,2H2,1H3, purity 99.8%
Compound 5: propan-1-ol, C3H8O, InChI=1S/C3H8O/c1-2-3-4/h4H,2-3H2,1H3, purity 99.9%
Compound 6: propan-2-ol, C3H8O, InChI=1S/C3H8O/c1-3(2)4/h3-4H,1-2H3, purity 99.8%
Compound 7: acetonitrile, C2H3N, InChI=1S/C2H3N/c1-2-3/h1H3, purity 99.6%
Compound 8: ethyl acetate, C4H8O2, InChI=1S/C4H8O2/c1-3-6-4(2)5/h3H2,1-2H3, purity 99.8%
Compound 9: butan-1-ol, C4H10O, InChI=1S/C4H10O/c1-2-3-4-5/h5H,2-4H2,1H3

System: p-toluenesulfonamide + methanol; phases: Liquid, Crystal
Fixed: Pressure, kPa = 101.1
Property: Mole fraction of p-toluenesulfonamide (Liquid); method: Chromatography
Temperature, K	Mole fraction of p-toluenesulfonamide	uncertainty
283.15	0.04408	0.00212
288.15	0.05047	0.00243
293.15	0.05692	0.00274
298.15	0.06476	0.00311
303.15	0.07298	0.00351
308.15	0.08265	0.00397
313.15	0.09318	0.00448
318.15	0.1043	0.005

System: p-toluenesulfonamide + ethanol; phases: Liquid, Crystal
Fixed: Pressure, kPa = 101.1
Property: Mole fraction of p-toluenesulfonamide (Liquid); method: Chromatography
Temperature, K	Mole fraction of p-toluenesulfonamide	uncertainty
283.15	0.03438	0.00165
288.15	0.03918	0.00188
293.15	0.04482	0.00215
298.15	0.05239	0.00252
303.15	0.06082	0.00292
308.15	0.07013	0.00337
313.15	0.08007	0.00385
318.15	0.09142	0.00439

System: p-toluenesulfonamide + propan-1-ol; phases: Liquid, Crystal
Fixed: Pressure, kPa = 101.1
Property: Mole fraction of p-toluenesulfonamide (Liquid); method: Chromatography
Temperature, K	Mole fraction of p-toluenesulfonamide	uncertainty
283.15	0.02717	0.00131
288.15	0.03129	0.0015
293.15	0.03581	0.00172
298.15	0.04155	0.002
303.15	0.04696	0.00226
308.15	0.05418	0.0026
313.15	0.06113	0.00294
318.15	0.06888	0.00331

System: p-toluenesulfonamide + propan-2-ol; phases: Liquid, Crystal
Fixed: Pressure, kPa = 101.1
Property: Mole fraction of p-toluenesulfonamide (Liquid); method: Chromatography
Temperature, K	Mole fraction of p-toluenesulfonamide	uncertainty
283.15	0.02025	0.00097
288.15	0.02318	0.00111
293.15	0.02671	0.00128
298.15	0.0306	0.00147
303.15	0.0347	0.00167
308.15	0.03919	0.00188
313.15	0.04449	0.00214
318.15	0.05092	0.00245

System: p-toluenesulfonamide + butan-1-ol; phases: Liquid, Crystal
Fixed: Pressure, kPa = 101.1
Property: Mole fraction of p-toluenesulfonamide (Liquid); method: Chromatography
Temperature, K	Mole fraction of p-toluenesulfonamide	uncertainty
283.15	0.02421	0.00116
288.15	0.028	0.00135
293.15	0.03163	0.00152
298.15	0.0358	0.0017
303.15	0.0403	0.0019
308.15	0.04517	0.00217
313.15	0.05011	0.00241
318.15	0.05645	0.00271

System: p-toluenesulfonamide + acetonitrile; phases: Liquid, Crystal
Fixed: Pressure, kPa = 101.1
Property: Mole fraction of p-toluenesulfonamide (Liquid); method: Chromatography
Temperature, K	Mole fraction of p-toluenesulfonamide	uncertainty
283.15	0.07796	0.00375
288.15	0.08484	0.00408
293.15	0.09552	0.00459
298.15	0.106	0.0051
303.15	0.118	0.0057
308.15	0.1301	0.0063
313.15	0.1433	0.0069
318.15	0.1588	0.0076

System: p-toluenesulfonamide + ethyl acetate; phases: Liquid, Crystal
Fixed: Pressure, kPa = 101.1
Property: Mole fraction of p-toluenesulfonamide (Liquid); method: Chromatography
Temperature, K	Mole fraction of p-toluenesulfonamide	uncertainty
283.15	0.07279	0.0035
288.15	0.07862	0.00378
293.15	0.08586	0.00413
298.15	0.09462	0.00455
303.15	0.1042	0.005
308.15	0.1141	0.0055
313.15	0.1235	0.0059
318.15	0.1329	0.0064

System: o-toluenesulfonamide + methanol; phases: Liquid, Crystal
Fixed: Pressure, kPa = 101.1
Property: Mole fraction of o-toluenesulfonamide (Liquid); method: Chromatography
Temperature, K	Mole fraction of o-toluenesulfonamide	uncertainty
283.15	0.02772	0.00133
288.15	0.0305	0.00147
293.15	0.03415	0.00164
298.15	0.03784	0.00182
303.15	0.04249	0.00204
308.15	0.04729	0.00227
313.15	0.05257	0.00253
318.15	0.0579	0.00278

System: o-toluenesulfonamide + ethanol; phases: Liquid, Crystal
Fixed: Pressure, kPa = 101.1
Property: Mole fraction of o-toluenesulfonamide (Liquid); method: Chromatography
Temperature, K	Mole fraction of o-toluenesulfonamide	uncertainty
283.15	0.02417	0.00116
288.15	0.02663	0.00128
293.15	0.02928	0.00141
298.15	0.03207	0.00154
303.15	0.03503	0.00168
308.15	0.0384	0.00185
313.15	0.04204	0.00202
318.15	0.04564	0.00219

System: o-toluenesulfonamide + propan-1-ol; phases: Liquid, Crystal
Fixed: Pressure, kPa = 101.1
Property: Mole fraction of o-toluenesulfonamide (Liquid); method: Chromatography
Temperature, K	Mole fraction of o-toluenesulfonamide	uncertainty
283.15	0.02257	0.00108
288.15	0.02486	0.00119
293.15	0.02743	0.00132
298.15	0.03013	0.00145
303.15	0.03305	0.00159
308.15	0.03613	0.00174
313.15	0.03937	0.00189
318.15	0.04271	0.00205

System: o-toluenesulfonamide + propan-2-ol; phases: Liquid, Crystal
Fixed: Pressure, kPa = 101.1
Property: Mole fraction of o-toluenesulfonamide (Liquid); method: Chromatography
Temperature, K	Mole fraction of o-toluenesulfonamide	uncertainty
283.15	0.01982	0.00095
288.15	0.02204	0.00106
293.15	0.0246	0.00118
298.15	0.02758	0.00133
303.15	0.03052	0.00147
308.15	0.03368	0.00162
313.15	0.0374	0.0018
318.15	0.04142	0.00199

System: o-toluenesulfonamide + butan-1-ol; phases: Liquid, Crystal
Fixed: Pressure, kPa = 101.1
Property: Mole fraction of o-toluenesulfonamide (Liquid); method: Chromatography
Temperature, K	Mole fraction of o-toluenesulfonamide	uncertainty
283.15	0.02094	0.00101
288.15	0.02317	0.00111
293.15	0.02575	0.00124
298.15	0.02865	0.00138
303.15	0.03162	0.00152
308.15	0.03484	0.00167
313.15	0.03822	0.00184
318.15	0.04211	0.00202

System: o-toluenesulfonamide + acetonitrile; phases: Liquid, Crystal
Fixed: Pressure, kPa = 101.1
Property: Mole fraction of o-toluenesulfonamide (Liquid); method: Chromatography
Temperature, K	Mole fraction of o-toluenesulfonamide	uncertainty
283.15	0.0337	0.00162
288.15	0.03754	0.0018
293.15	0.04226	0.00203
298.15	0.0475	0.00228
303.15	0.05335	0.00256
308.15	0.0597	0.00287
313.15	0.06694	0.00322
318.15	0.07368	0.00354

System: o-toluenesulfonamide + ethyl acetate; phases: Liquid, Crystal
Fixed: Pressure, kPa = 101.1
Property: Mole fraction of o-toluenesulfonamide (Liquid); method: Chromatography
Temperature, K	Mole fraction of o-toluenesulfonamide	uncertainty
283.15	0.04973	0.00239
288.15	0.05301	0.00255
293.15	0.05664	0.00272
298.15	0.06043	0.0029
303.15	0.06441	0.00309
308.15	0.0687	0.0033
313.15	0.07291	0.0035
318.15	0.07748	0.00372
