Measured thermophysical data. Solubility and Thermodynamic Behavior of Veramoss in Different Pure Solvents and {Ethanol + Water} Mixtures from T = 283.15 to 333.15 K
Source: J. Chem. Eng. Data, 2017, 10.1021/acs.jced.6b00646
Compound 1: methyl 2,4-dihydroxy-3,6-dimethylbenzoate, C10H12O4, InChI=1S/C10H12O4/c1-5-4-7(11)6(2)9(12)8(5)10(13)14-3/h4,11-12H,1-3H3, purity 99%
Compound 2: ethanol, C2H6O, InChI=1S/C2H6O/c1-2-3/h3H,2H2,1H3, purity 99.5%
Compound 3: butan-1-ol, C4H10O, InChI=1S/C4H10O/c1-2-3-4-5/h5H,2-4H2,1H3, purity 99.5%
Compound 4: propan-2-ol, C3H8O, InChI=1S/C3H8O/c1-3(2)4/h3-4H,1-2H3, purity 99.5%
Compound 5: ethyl acetate, C4H8O2, InChI=1S/C4H8O2/c1-3-6-4(2)5/h3H2,1-2H3, purity 99.5%
Compound 6: acetone, C3H6O, InChI=1S/C3H6O/c1-3(2)4/h1-2H3, purity 99.5%
Compound 7: tetrahydrofuran, C4H8O, InChI=1S/C4H8O/c1-2-4-5-3-1/h1-4H2, purity 99.5%
Compound 8: 3-methylbutan-1-ol, C5H12O, InChI=1S/C5H12O/c1-5(2)3-4-6/h5-6H,3-4H2,1-2H3, purity 99.5%
Compound 9: pentan-1-ol, C5H12O, InChI=1S/C5H12O/c1-2-3-4-5-6/h6H,2-5H2,1H3, purity 99.5%
Compound 10: propan-1-ol, C3H8O, InChI=1S/C3H8O/c1-2-3-4/h4H,2-3H2,1H3, purity 99.5%
Compound 11: dimethylformamide, C3H7NO, InChI=1S/C3H7NO/c1-4(2)3-5/h3H,1-2H3, purity 99.5%
Compound 12: water, H2O, InChI=1S/H2O/h1H2, purity 99.9%

System: methyl 2,4-dihydroxy-3,6-dimethylbenzoate; phases: Crystal, Liquid, Air at 1 atmosphere
Property: Normal melting temperature, K (Crystal); method: DTA
Normal melting temperature, K	uncertainty
419.77	1.06

System: methyl 2,4-dihydroxy-3,6-dimethylbenzoate; phases: Crystal, Liquid, Air at 1 atmosphere
Property: Molar enthalpy of transition or fusion, kJ/mol (Crystal); method: DSC
Molar enthalpy of transition or fusion, kJ/mol	uncertainty
28.3856	0.6291

System: butan-1-ol + methyl 2,4-dihydroxy-3,6-dimethylbenzoate; phases: Liquid, Crystal
Fixed: Pressure, kPa = 100
Property: Mole fraction of methyl 2,4-dihydroxy-3,6-dimethylbenzoate (Liquid); method: Titration method
Temperature, K	Mole fraction of methyl 2,4-dihydroxy-3,6-dimethylbenzoate	uncertainty
283.15	0.0786	0.0016
293.15	0.0971	0.002
303.15	0.1153	0.0024
313.15	0.1354	0.0028
323.15	0.158	0.0032
333.15	0.192	0.0039

System: propan-2-ol + methyl 2,4-dihydroxy-3,6-dimethylbenzoate; phases: Liquid, Crystal
Fixed: Pressure, kPa = 100
Property: Mole fraction of methyl 2,4-dihydroxy-3,6-dimethylbenzoate (Liquid); method: Titration method
Temperature, K	Mole fraction of methyl 2,4-dihydroxy-3,6-dimethylbenzoate	uncertainty
283.15	0.0806	0.0017
293.15	0.0996	0.002
303.15	0.1202	0.0025
313.15	0.1421	0.0029
323.15	0.1696	0.0035
333.15	0.2061	0.0042

System: ethyl acetate + methyl 2,4-dihydroxy-3,6-dimethylbenzoate; phases: Liquid, Crystal
Fixed: Pressure, kPa = 100
Property: Mole fraction of methyl 2,4-dihydroxy-3,6-dimethylbenzoate (Liquid); method: Titration method
Temperature, K	Mole fraction of methyl 2,4-dihydroxy-3,6-dimethylbenzoate	uncertainty
283.15	0.132	0.0027
293.15	0.1431	0.0029
303.15	0.1542	0.0031
313.15	0.1693	0.0034
323.15	0.1861	0.0038
333.15	0.2081	0.0042

System: acetone + methyl 2,4-dihydroxy-3,6-dimethylbenzoate; phases: Liquid, Crystal
Fixed: Pressure, kPa = 100
Property: Mole fraction of methyl 2,4-dihydroxy-3,6-dimethylbenzoate (Liquid); method: Titration method
Temperature, K	Mole fraction of methyl 2,4-dihydroxy-3,6-dimethylbenzoate	uncertainty
283.15	0.1631	0.0033
293.15	0.1659	0.0033
303.15	0.1718	0.0035
313.15	0.1805	0.0036
323.15	0.1913	0.0039
333.15	0.208	0.0042

System: tetrahydrofuran + methyl 2,4-dihydroxy-3,6-dimethylbenzoate; phases: Liquid, Crystal
Fixed: Pressure, kPa = 100
Property: Mole fraction of methyl 2,4-dihydroxy-3,6-dimethylbenzoate (Liquid); method: Titration method
Temperature, K	Mole fraction of methyl 2,4-dihydroxy-3,6-dimethylbenzoate	uncertainty
283.15	0.2676	0.0054
293.15	0.276	0.0056
303.15	0.2885	0.0058
313.15	0.3009	0.0061
323.15	0.3154	0.0064
333.15	0.3319	0.0067

System: ethanol + methyl 2,4-dihydroxy-3,6-dimethylbenzoate; phases: Liquid, Crystal
Fixed: Pressure, kPa = 100
Property: Mole fraction of methyl 2,4-dihydroxy-3,6-dimethylbenzoate (Liquid); method: Titration method
Temperature, K	Mole fraction of methyl 2,4-dihydroxy-3,6-dimethylbenzoate	uncertainty
283.15	0.0781	0.0016
293.15	0.0938	0.0019
303.15	0.1179	0.0024
313.15	0.1361	0.0028
323.15	0.166	0.0034
333.15	0.2	0.0041

System: 3-methylbutan-1-ol + methyl 2,4-dihydroxy-3,6-dimethylbenzoate; phases: Liquid, Crystal
Fixed: Pressure, kPa = 100
Property: Mole fraction of methyl 2,4-dihydroxy-3,6-dimethylbenzoate (Liquid); method: Titration method
Temperature, K	Mole fraction of methyl 2,4-dihydroxy-3,6-dimethylbenzoate	uncertainty
283.15	0.0694	0.0014
293.15	0.0852	0.0018
303.15	0.1097	0.0023
313.15	0.132	0.0027
323.15	0.1605	0.0033
333.15	0.1865	0.0038

System: pentan-1-ol + methyl 2,4-dihydroxy-3,6-dimethylbenzoate; phases: Liquid, Crystal
Fixed: Pressure, kPa = 100
Property: Mole fraction of methyl 2,4-dihydroxy-3,6-dimethylbenzoate (Liquid); method: Titration method
Temperature, K	Mole fraction of methyl 2,4-dihydroxy-3,6-dimethylbenzoate	uncertainty
283.15	0.0873	0.0018
293.15	0.102	0.0021
303.15	0.1231	0.0025
313.15	0.1485	0.003
323.15	0.1748	0.0036
333.15	0.2037	0.0041

System: propan-1-ol + methyl 2,4-dihydroxy-3,6-dimethylbenzoate; phases: Liquid, Crystal
Fixed: Pressure, kPa = 100
Property: Mole fraction of methyl 2,4-dihydroxy-3,6-dimethylbenzoate (Liquid); method: Titration method
Temperature, K	Mole fraction of methyl 2,4-dihydroxy-3,6-dimethylbenzoate	uncertainty
283.15	0.0709	0.0015
293.15	0.089	0.0018
303.15	0.1113	0.0023
313.15	0.1332	0.0027
323.15	0.1673	0.0034
333.15	0.1976	0.004

System: dimethylformamide + methyl 2,4-dihydroxy-3,6-dimethylbenzoate; phases: Liquid, Crystal
Fixed: Pressure, kPa = 100
Property: Mole fraction of methyl 2,4-dihydroxy-3,6-dimethylbenzoate (Liquid); method: Titration method
Temperature, K	Mole fraction of methyl 2,4-dihydroxy-3,6-dimethylbenzoate	uncertainty
283.15	0.4355	0.0088
293.15	0.4462	0.009
303.15	0.4591	0.0092
313.15	0.4691	0.0094
323.15	0.4862	0.0098
333.15	0.4984	0.01

System: ethanol + methyl 2,4-dihydroxy-3,6-dimethylbenzoate + water; phases: Liquid, Crystal
Fixed: Pressure, kPa = 100
Property: Mole fraction of methyl 2,4-dihydroxy-3,6-dimethylbenzoate (Liquid); method: Titration method
Temperature, K	Solvent: Mass fraction of ethanol	Mole fraction of methyl 2,4-dihydroxy-3,6-dimethylbenzoate	uncertainty
283.15	0.2	5.71e-05	5.71e-05
283.15	0.3	0.000189	0.000189
283.15	0.4	0.0010007	0.0010007
283.15	0.5	0.003909	0.0034181
283.15	0.6	0.0111364	0.0051105
283.15	0.7	0.018152	0.0089384
283.15	0.8	0.036343	0.0119716
283.15	0.9	0.04852	0.0118786
293.15	0.2	8.84e-05	8.84e-05
293.15	0.3	0.000331	0.000331
293.15	0.4	0.0019182	0.0019182
293.15	0.5	0.0066	0.0045616
293.15	0.6	0.0152632	0.0081462
293.15	0.7	0.029836	0.0124544
293.15	0.8	0.0493066	0.0165477
293.15	0.9	0.07215	0.0188456
303.15	0.2	0.0001518	0.0001518
303.15	0.3	0.0005473	0.0005473
303.15	0.4	0.0040407	0.003035
303.15	0.5	0.009475	0.0066218
303.15	0.6	0.023428	0.0115374
303.15	0.7	0.042014	0.0147676
303.15	0.8	0.0618571	0.0191706
303.15	0.9	0.089292	0.025548
313.15	0.2	0.0002387	0.0002387
313.15	0.3	0.0008476	0.0008476
313.15	0.4	0.0067518	0.0047608
313.15	0.5	0.014794	0.0084405
313.15	0.6	0.0310188	0.0142068
313.15	0.7	0.054376	0.019603
313.15	0.8	0.0824748	0.0247496
313.15	0.9	0.114372	0.0292555
323.15	0.2	0.0003833	0.0003833
323.15	0.3	0.0015336	0.0015336
323.15	0.4	0.012306	0.0076154
323.15	0.5	0.02361	0.0108314
323.15	0.6	0.0424894	0.0194964
323.15	0.7	0.077947	0.0233379
323.15	0.8	0.0989829	0.0267057
323.15	0.9	0.13821	0.0374255
333.15	0.2	0.0006726	0.0006726
333.15	0.3	0.002562	0.002562
333.15	0.4	0.0180934	0.0114572
333.15	0.5	0.035846	0.0150645
333.15	0.6	0.0593348	0.0241615
333.15	0.7	0.101505	0.0295411
333.15	0.8	0.1296654	0.0328282
333.15	0.9	0.171424	0.0413797
