Measured thermophysical data. Vapor-Liquid Equilibrium Measurements of Ethanol and n-Nonane or n-Decane Binary Mixtures with Large Relative Volatility
Source: J. Chem. Eng. Data, 2018, 10.1021/acs.jced.7b00875
Compound 1: ethanol, C2H6O, InChI=1S/C2H6O/c1-2-3/h3H,2H2,1H3, purity 99%
Compound 2: nonane, C9H20, InChI=1S/C9H20/c1-3-5-7-9-8-6-4-2/h3-9H2,1-2H3, purity 99%
Compound 3: decane, C10H22, InChI=1S/C10H22/c1-3-5-7-9-10-8-6-4-2/h3-10H2,1-2H3, purity 99%

System: ethanol; phases: Liquid
Property: Refractive index (Na D-line) (Liquid); method: Standard Abbe refractometry
Temperature, K	Pressure, kPa	Refractive index (Na D-line)	uncertainty
293.15	101.325	1.3616	0.002

System: ethanol; phases: Liquid, Gas
Property: Vapor or sublimation pressure, kPa (Liquid); method: Ebulliometric method (Recirculating still)
Temperature, K	Vapor or sublimation pressure, kPa	uncertainty
323.21	29.58	0.975
328.17	37.53	0.985
333.21	47.042	1.013
338.17	58.6	1.052
343.21	72.387	1.104
348.16	88.83	1.138

System: nonane; phases: Liquid
Property: Refractive index (Na D-line) (Liquid); method: Standard Abbe refractometry
Temperature, K	Pressure, kPa	Refractive index (Na D-line)	uncertainty
293.15	101.325	1.4074	0.002

System: nonane; phases: Liquid, Gas
Property: Vapor or sublimation pressure, kPa (Liquid); method: Ebulliometric method (Recirculating still)
Temperature, K	Vapor or sublimation pressure, kPa	uncertainty
323.21	2.417	0.921
333.21	4.027	0.921
343.21	6.331	0.921

System: decane; phases: Liquid
Property: Refractive index (Na D-line) (Liquid); method: Standard Abbe refractometry
Temperature, K	Pressure, kPa	Refractive index (Na D-line)	uncertainty
293.15	101.325	1.4122	0.002

System: decane; phases: Liquid, Gas
Property: Vapor or sublimation pressure, kPa (Liquid); method: Ebulliometric method (Recirculating still)
Temperature, K	Vapor or sublimation pressure, kPa	uncertainty
328.17	1.18	0.92
338.17	1.93	0.92
348.16	3.24	0.92

System: ethanol + nonane; phases: Liquid, Gas
Property: Vapor or sublimation pressure, kPa (Liquid); method: Ebulliometric method (Recirculating still)
Mole fraction of ethanol	Temperature, K	Vapor or sublimation pressure, kPa	uncertainty
0	323.21	2.42	0.92
0.061	323.21	19.21	2.74
0.083	323.21	23.28	1.69
0.114	323.21	26.65	1.02
0.208	323.21	28.1	0.99
0.288	323.21	28.56	0.99
0.33	323.21	28.64	0.99
0.396	323.21	28.68	0.99
0.495	323.21	28.74	0.99
0.602	323.21	28.73	0.99
0.757	323.21	29.15	0.99
0.8	323.21	29.24	0.99
0.892	323.21	29.5	0.99
0.93	323.21	29.61	1
0.956	323.21	29.77	1
0.972	323.21	29.8	1
1	323.21	29.58	1
0	333.21	4.03	0.92
0.072	333.21	33.87	3.84
0.094	333.21	35.83	1.26
0.132	333.21	39.43	1.11
0.21	333.21	43.51	1.05
0.301	333.21	44.85	1.01
0.413	333.21	45.12	1.02
0.543	333.21	45.35	1.02
0.609	333.21	45.48	1.03
0.789	333.21	46.11	1.04
0.837	333.21	46.3	1.04
0.898	333.21	46.78	1.05
0.93	333.21	46.95	1.06
0.957	333.21	47.06	1.05
0.972	333.21	47.15	1.09
1	333.21	47.04	1.04
0	343.21	6.33	0.92
0.089	343.21	50.49	2.64
0.216	343.21	61.94	1.24
0.295	343.21	64.67	1.08
0.374	343.21	66.24	1.07
0.458	343.21	67.51	1.07
0.508	343.21	67.98	1.08
0.592	343.21	68.83	1.08
0.629	343.21	69.16	1.08
0.673	343.21	69.53	1.08
0.714	343.21	69.83	1.09
0.75	343.21	70.2	1.09
0.781	343.21	70.54	1.09
0.799	343.21	70.69	1.09
0.808	343.21	70.8	1.09
0.819	343.21	70.91	1.1
0.841	343.21	71.16	1.1
0.864	343.21	71.53	1.1
0.878	343.21	71.68	1.1
0.899	343.21	71.93	1.1
0.919	343.21	72.19	1.11
0.937	343.21	72.39	1.11
0.953	343.21	72.58	1.1
0.967	343.21	72.65	1.1
0.979	343.21	72.65	1.1
0.989	343.21	72.58	1.11
1	343.21	72.39	1.1

System: ethanol + nonane; phases: Gas, Liquid
Property: Mole fraction of ethanol (Gas); method: Chromatography
Mole fraction of ethanol	Temperature, K	Mole fraction of ethanol	uncertainty
0	323.21	0	
0.061	323.21	0.875	0.116
0.083	323.21	0.9	0.012
0.114	323.21	0.91	0.01
0.208	323.21	0.912	0.01
0.288	323.21	0.915	0.01
0.33	323.21	0.916	0.01
0.396	323.21	0.917	0.01
0.495	323.21	0.918	0.01
0.602	323.21	0.925	0.01
0.757	323.21	0.93	0.01
0.8	323.21	0.931	0.01
0.892	323.21	0.94	0.01
0.93	323.21	0.949	0.011
0.956	323.21	0.96	0.011
0.972	323.21	0.971	0.014
1	323.21	1	
0	333.21	0	
0.072	333.21	0.884	0.106
0.094	333.21	0.891	0.011
0.132	333.21	0.902	0.01
0.21	333.21	0.907	0.01
0.301	333.21	0.914	0.01
0.413	333.21	0.916	0.01
0.543	333.21	0.918	0.01
0.609	333.21	0.924	0.01
0.789	333.21	0.93	0.01
0.837	333.21	0.933	0.01
0.898	333.21	0.941	0.01
0.93	333.21	0.95	0.011
0.957	333.21	0.961	0.011
0.972	333.21	0.971	0.014
1	333.21	1	
0	343.21	0	
0.089	343.21	0.879	0.041
0.216	343.21	0.905	0.01
0.295	343.21	0.91	0.01
0.374	343.21	0.913	0.01
0.458	343.21	0.916	0.01
0.508	343.21	0.917	0.01
0.592	343.21	0.919	0.01
0.629	343.21	0.92	0.01
0.673	343.21	0.922	0.01
0.714	343.21	0.923	0.01
0.75	343.21	0.925	0.01
0.781	343.21	0.927	0.01
0.799	343.21	0.928	0.01
0.808	343.21	0.929	0.01
0.819	343.21	0.93	0.01
0.841	343.21	0.932	0.01
0.864	343.21	0.935	0.01
0.878	343.21	0.938	0.01
0.899	343.21	0.942	0.01
0.919	343.21	0.947	0.01
0.937	343.21	0.953	0.011
0.953	343.21	0.96	0.011
0.967	343.21	0.969	0.012
0.979	343.21	0.978	0.013
0.989	343.21	0.987	0.013
1	343.21	1	

System: ethanol + decane; phases: Liquid, Gas
Property: Vapor or sublimation pressure, kPa (Liquid); method: Ebulliometric method (Recirculating still)
Mole fraction of ethanol	Temperature, K	Vapor or sublimation pressure, kPa	uncertainty
0	328.17	1.18	0.92
0.036	328.17	24	2.76
0.116	328.17	34.21	1.05
0.312	328.17	35.32	1.02
0.451	328.17	35.42	1.02
0.634	328.17	35.61	1.02
0.748	328.17	35.76	1.02
0.822	328.17	36.1	1.02
0.913	328.17	36.52	1.02
0.983	328.17	37.15	1.05
1	328.17	37.53	1.03
0	338.17	1.93	0.92
0.041	338.17	32.1	3.68
0.113	338.17	46.15	1.15
0.335	338.17	54.7	1.14
0.448	338.17	55.15	1.03
0.68	338.17	55.79	1.11
0.792	338.17	56.16	1.13
0.848	338.17	56.32	1.13
0.931	338.17	57.15	1.13
0.983	338.17	58	1.17
1	338.17	58.6	1.09
0	348.16	3.24	0.92
0.054	348.16	49.01	5.19
0.117	348.16	66.8	1.36
0.354	348.16	81.08	1.3
0.482	348.16	82.05	1.24
0.695	348.16	84.38	1.15
0.816	348.16	85.96	1.26
0.871	348.16	86.45	1.27
0.938	348.16	87.12	1.2
0.983	348.16	88.17	1.25
1	348.16	88.83	1.19
0	446.84	101.3	1
0.027	405.65	101.3	1.4
0.041	389.15	101.3	1.4
0.061	375.76	101.3	1.5
0.123	362.36	101.3	1.4
0.368	354.36	101.3	1.2
0.482	353.26	101.3	1.3
0.716	352.46	101.3	1.3
0.807	352.26	101.3	1.3
0.864	351.96	101.3	1.3
0.938	351.46	101.3	1.4
0.962	351.36	101.3	1.2
0.983	351.26	101.3	1.4
1	351.06	101.3	1.3

System: ethanol + decane; phases: Gas, Liquid
Property: Mole fraction of ethanol (Gas); method: Chromatography
Mole fraction of ethanol	Temperature, K	Mole fraction of ethanol	uncertainty
0	328.17	0	
0.036	328.17	0.938	0.062
0.116	328.17	0.963	0.01
0.312	328.17	0.971	0.01
0.451	328.17	0.972	0.01
0.634	328.17	0.974	0.01
0.748	328.17	0.975	0.01
0.822	328.17	0.976	0.01
0.913	328.17	0.98	0.01
0.983	328.17	0.994	0.006
1	328.17	1	
0	338.17	0	
0.041	338.17	0.943	0.057
0.113	338.17	0.956	0.01
0.335	338.17	0.966	0.01
0.448	338.17	0.969	0.01
0.68	338.17	0.972	0.01
0.792	338.17	0.973	0.01
0.848	338.17	0.975	0.01
0.931	338.17	0.981	0.01
0.983	338.17	0.994	0.006
1	338.17	1	
0	348.16	0	
0.054	348.16	0.93	0.07
0.117	348.16	0.939	0.01
0.354	348.16	0.962	0.01
0.482	348.16	0.965	0.01
0.695	348.16	0.969	0.01
0.816	348.16	0.971	0.01
0.871	348.16	0.974	0.01
0.938	348.16	0.981	0.01
0.983	348.16	0.995	0.005
1	348.16	1	
0	446.84	0	
0.027	405.65	0.653	0.013
0.041	389.15	0.801	0.011
0.061	375.76	0.887	0.01
0.123	362.36	0.938	0.01
0.368	354.36	0.961	0.01
0.482	353.26	0.963	0.01
0.716	352.46	0.967	0.01
0.807	352.26	0.97	0.01
0.864	351.96	0.973	0.01
0.938	351.46	0.982	0.01
0.962	351.36	0.988	0.01
0.983	351.26	0.996	0.004
1	351.06	1	
