Measured thermophysical data. MgF2 Solubility in MgF2 + Salt + H2O Systems (Salt = MgSO4, (NH4)2SO4, NH4Cl) at 298.15 K
Source: J. Chem. Eng. Data, 2019, 10.1021/acs.jced.8b00772
Compound 1: magnesium difluoride, F2Mg, InChI=1S/2FH.Mg/h2*1H;/q;;+2/p-2, purity 98%
Compound 2: magnesium sulfate, MgO4S, InChI=1S/Mg.H2O4S/c;1-5(2,3)4/h;(H2,1,2,3,4)/q+2;/p-2, purity 99%
Compound 3: ammonium sulfate, H8N2O4S, InChI=1S/2H3N.H2O4S/c;;1-5(2,3)4/h2*1H3;(H2,1,2,3,4), purity 99%
Compound 4: ammonium chloride (NH4Cl), ClH4N, InChI=1S/ClH.H3N/h1H;1H3, purity 99.5%
Compound 5: water, H2O, InChI=1S/H2O/h1H2, purity 99.9%

System: magnesium difluoride + ammonium sulfate + water; phases: Liquid, Crystal
Fixed: Temperature, K = 298.15
Fixed: Pressure, kPa = 101
Property: Molality, mol/kg of magnesium difluoride (Liquid); method: ion-selective electrode and tiitration with EDTA
Molality, mol/kg of ammonium sulfate	Molality, mol/kg of magnesium difluoride	uncertainty
0	0.00136	0.00027
0.00605	0.0016	0.00032
0.0198	0.00183	0.00037
0.101	0.00269	0.00054
1.16	0.00551	0.0011
2.57	0.00682	0.00136
3.62	0.00705	0.00141
5.06	0.00724	0.00145
6.11	0.00729	0.00146

System: magnesium difluoride + ammonium chloride (NH4Cl) + water; phases: Liquid, Crystal
Fixed: Temperature, K = 298.15
Fixed: Pressure, kPa = 101
Property: Molality, mol/kg of magnesium difluoride (Liquid); method: ion-selective electrode and tiitration with EDTA
Molality, mol/kg of ammonium chloride (NH4Cl)	Molality, mol/kg of magnesium difluoride	uncertainty
0	0.00136	0.00027
0.0025	0.00161	0.00032
0.028	0.0018	0.00036
0.0936	0.00207	0.00041
0.928	0.00323	0.00065
2.8	0.00385	0.00077
5.61	0.00398	0.0008
6.9	0.0039	0.00078
9.2	0.00367	0.00073

System: magnesium difluoride + magnesium sulfate + water; phases: Liquid, Crystal
Fixed: Temperature, K = 298.15
Fixed: Pressure, kPa = 101
Property: Molality, mol/kg of magnesium difluoride (Liquid); method: ion-selective electrode and tiitration with EDTA
Molality, mol/kg of magnesium sulfate	Molality, mol/kg of magnesium difluoride	uncertainty
0	0.00136	0.00027
0.0126	0.000738	0.000148
0.141	0.00102	0.0002
0.488	0.00212	0.00042
1.6	0.00597	0.00119
2.96	0.012	0.0024

System: magnesium difluoride + magnesium sulfate + water; phases: Liquid, Crystal of intercomponent compound 1
Property: Molality, mol/kg of magnesium difluoride (Liquid); method: ion-selective electrode and tiitration with EDTA
Molality, mol/kg of magnesium sulfate	Temperature, K	Pressure, kPa	Molality, mol/kg of magnesium difluoride	uncertainty
2.96	298.15	101	0.012	0.0024

System: magnesium difluoride + water; phases: Liquid, Crystal
Property: Molality, mol/kg of magnesium difluoride (Liquid); method: ion-selective electrode and tiitration with EDTA
Temperature, K	Pressure, kPa	Molality, mol/kg of magnesium difluoride	uncertainty
298.15	101	0.00136	0.00027
