Measured thermophysical data. Solubility and Molecular Interactions of Trimetazidine Hydrochloride in 12 Monosolvents and Solvent Mixtures of Methanol + (Ethanol, N,N-Dimethylformamide or Ethyl Acetate)
Source: J. Chem. Eng. Data, 2018, 10.1021/acs.jced.8b00235
Compound 1: trimetazidine hydrochloride (1:2), C14H24Cl2N2O3, InChI=1S/C14H22N2O3.2ClH/c1-17-12-5-4-11(13(18-2)14(12)19-3)10-16-8-6-15-7-9-16;;/h4-5,15H,6-10H2,1-3H3;2*1H, purity 98.3%
Compound 2: methanol, CH4O, InChI=1S/CH4O/c1-2/h2H,1H3, purity 99.6%
Compound 3: ethanol, C2H6O, InChI=1S/C2H6O/c1-2-3/h3H,2H2,1H3, purity 99.5%
Compound 4: propan-1-ol, C3H8O, InChI=1S/C3H8O/c1-2-3-4/h4H,2-3H2,1H3, purity 99.5%
Compound 5: propan-2-ol, C3H8O, InChI=1S/C3H8O/c1-3(2)4/h3-4H,1-2H3, purity 99.6%
Compound 6: butan-1-ol, C4H10O, InChI=1S/C4H10O/c1-2-3-4-5/h5H,2-4H2,1H3, purity 99.4%
Compound 7: acetone, C3H6O, InChI=1S/C3H6O/c1-3(2)4/h1-2H3, purity 99.5%
Compound 8: butanone, C4H8O, InChI=1S/C4H8O/c1-3-4(2)5/h3H2,1-2H3, purity 99.3%
Compound 9: acetonitrile, C2H3N, InChI=1S/C2H3N/c1-2-3/h1H3, purity 99.6%
Compound 10: ethyl acetate, C4H8O2, InChI=1S/C4H8O2/c1-3-6-4(2)5/h3H2,1-2H3, purity 99.5%
Compound 11: toluene, C7H8, InChI=1S/C7H8/c1-7-5-3-2-4-6-7/h2-6H,1H3, purity 99.6%
Compound 12: 1,4-dioxane, C4H8O2, InChI=1S/C4H8O2/c1-2-6-4-3-5-1/h1-4H2, purity 99.4%
Compound 13: dimethylformamide, C3H7NO, InChI=1S/C3H7NO/c1-4(2)3-5/h3H,1-2H3, purity 99.6%

System: trimetazidine hydrochloride (1:2) + methanol; phases: Liquid, Crystal
Fixed: Pressure, kPa = 101.2
Property: Mole fraction of trimetazidine hydrochloride (1:2) (Liquid); method: Chromatography
Temperature, K	Mole fraction of trimetazidine hydrochloride (1:2)	uncertainty
278.15	0.003527	0.000198
283.15	0.004024	0.000226
288.15	0.004581	0.000257
293.15	0.005245	0.000294
298.15	0.006027	0.000338
303.15	0.006821	0.000382
308.15	0.007775	0.000436
313.15	0.00882	0.000494
318.15	0.00993	0.000557
323.15	0.01112	0.00062

System: trimetazidine hydrochloride (1:2) + ethanol; phases: Liquid, Crystal
Fixed: Pressure, kPa = 101.2
Property: Mole fraction of trimetazidine hydrochloride (1:2) (Liquid); method: Chromatography
Temperature, K	Mole fraction of trimetazidine hydrochloride (1:2)	uncertainty
278.15	0.0005825	3.26e-05
283.15	0.0006516	3.65e-05
288.15	0.0007274	4.08e-05
293.15	0.0008046	4.51e-05
298.15	0.00089	4.99e-05
303.15	0.0009866	5.53e-05
308.15	0.001093	6.1e-05
313.15	0.001203	6.7e-05
318.15	0.001321	7.4e-05
323.15	0.001449	8.1e-05

System: trimetazidine hydrochloride (1:2) + ethyl acetate; phases: Liquid, Crystal
Fixed: Pressure, kPa = 101.2
Property: Mole fraction of trimetazidine hydrochloride (1:2) (Liquid); method: Chromatography
Temperature, K	Mole fraction of trimetazidine hydrochloride (1:2)	uncertainty
278.15	0.002009	0.000113
283.15	0.002092	0.000117
288.15	0.002173	0.000122
293.15	0.002258	0.000127
298.15	0.002345	0.000131
303.15	0.002437	0.000137
308.15	0.00254	0.000142
313.15	0.002644	0.000148
318.15	0.002751	0.000154
323.15	0.002862	0.00016

System: trimetazidine hydrochloride (1:2) + dimethylformamide; phases: Liquid, Crystal
Fixed: Pressure, kPa = 101.2
Property: Mole fraction of trimetazidine hydrochloride (1:2) (Liquid); method: Chromatography
Temperature, K	Mole fraction of trimetazidine hydrochloride (1:2)	uncertainty
278.15	0.0005298	2.97e-05
283.15	0.0005662	3.17e-05
288.15	0.0006094	3.42e-05
293.15	0.0006576	3.69e-05
298.15	0.0007053	3.95e-05
303.15	0.0007543	4.23e-05
308.15	0.0008031	4.5e-05
313.15	0.0008569	4.8e-05
318.15	0.0009126	5.11e-05
323.15	0.000975	5.46e-05

System: trimetazidine hydrochloride (1:2) + propan-1-ol; phases: Liquid, Crystal
Fixed: Pressure, kPa = 101.2
Property: Mole fraction of trimetazidine hydrochloride (1:2) (Liquid); method: Chromatography
Temperature, K	Mole fraction of trimetazidine hydrochloride (1:2)	uncertainty
278.15	0.0001932	1.08e-05
283.15	0.0002167	1.21e-05
288.15	0.000246	1.38e-05
293.15	0.0002814	1.58e-05
298.15	0.0003225	1.81e-05
303.15	0.0003663	2.05e-05
308.15	0.0004129	2.31e-05
313.15	0.0004642	2.6e-05
318.15	0.0005205	2.92e-05
323.15	0.0005812	3.26e-05

System: trimetazidine hydrochloride (1:2) + propan-2-ol; phases: Liquid, Crystal
Fixed: Pressure, kPa = 101.2
Property: Mole fraction of trimetazidine hydrochloride (1:2) (Liquid); method: Chromatography
Temperature, K	Mole fraction of trimetazidine hydrochloride (1:2)	uncertainty
278.15	7.61e-05	4.3e-06
283.15	9.15e-05	5.1e-06
288.15	0.00011	6.2e-06
293.15	0.0001326	7.4e-06
298.15	0.0001565	8.8e-06
303.15	0.0001844	1.03e-05
308.15	0.0002147	1.2e-05
313.15	0.0002473	1.39e-05
318.15	0.0002866	1.61e-05
323.15	0.0003331	1.87e-05

System: trimetazidine hydrochloride (1:2) + acetone; phases: Liquid, Crystal
Fixed: Pressure, kPa = 101.2
Property: Mole fraction of trimetazidine hydrochloride (1:2) (Liquid); method: Chromatography
Temperature, K	Mole fraction of trimetazidine hydrochloride (1:2)	uncertainty
278.15	6.234e-06	3.49e-07
283.15	6.822e-06	3.82e-07
288.15	7.472e-06	4.19e-07
293.15	8.158e-06	4.57e-07
298.15	8.853e-06	4.96e-07
303.15	9.616e-06	5.39e-07
308.15	1.032e-05	5.8e-07
313.15	1.11e-05	6.2e-07
318.15	1.199e-05	6.7e-07
323.15	1.304e-05	7.3e-07

System: trimetazidine hydrochloride (1:2) + butanone; phases: Liquid, Crystal
Fixed: Pressure, kPa = 101.2
Property: Mole fraction of trimetazidine hydrochloride (1:2) (Liquid); method: Chromatography
Temperature, K	Mole fraction of trimetazidine hydrochloride (1:2)	uncertainty
278.15	6.021e-06	3.37e-07
283.15	6.559e-06	3.68e-07
288.15	7.104e-06	3.98e-07
293.15	7.724e-06	4.33e-07
298.15	8.354e-06	4.68e-07
303.15	9.047e-06	5.07e-07
308.15	9.846e-06	5.52e-07
313.15	1.064e-05	6e-07
318.15	1.15e-05	6.4e-07
323.15	1.242e-05	7e-07

System: trimetazidine hydrochloride (1:2) + acetonitrile; phases: Liquid, Crystal
Fixed: Pressure, kPa = 101.2
Property: Mole fraction of trimetazidine hydrochloride (1:2) (Liquid); method: Chromatography
Temperature, K	Mole fraction of trimetazidine hydrochloride (1:2)	uncertainty
278.15	1.233e-05	6.9e-07
283.15	1.366e-05	7.7e-07
288.15	1.493e-05	8.4e-07
293.15	1.632e-05	9.1e-07
298.15	1.768e-05	9.9e-07
303.15	1.897e-05	1.06e-06
308.15	2.038e-05	1.14e-06
313.15	2.192e-05	1.23e-06
318.15	2.376e-05	1.33e-06
323.15	2.578e-05	1.44e-06

System: trimetazidine hydrochloride (1:2) + butan-1-ol; phases: Liquid, Crystal
Fixed: Pressure, kPa = 101.2
Property: Mole fraction of trimetazidine hydrochloride (1:2) (Liquid); method: Chromatography
Temperature, K	Mole fraction of trimetazidine hydrochloride (1:2)	uncertainty
278.15	0.0001315	7.4e-06
283.15	0.0001527	8.6e-06
288.15	0.0001765	9.9e-06
293.15	0.0002008	1.13e-05
298.15	0.0002318	1.3e-05
303.15	0.000263	1.47e-05
308.15	0.0002972	1.67e-05
313.15	0.0003365	1.89e-05
318.15	0.0003834	2.15e-05
323.15	0.0004325	2.42e-05

System: trimetazidine hydrochloride (1:2) + toluene; phases: Liquid, Crystal
Fixed: Pressure, kPa = 101.2
Property: Mole fraction of trimetazidine hydrochloride (1:2) (Liquid); method: Chromatography
Temperature, K	Mole fraction of trimetazidine hydrochloride (1:2)	uncertainty
278.15	7.023e-07	3.94e-08
283.15	8.189e-07	4.59e-08
288.15	9.583e-07	5.37e-08
293.15	1.124e-06	6.3e-08
298.15	1.332e-06	7.5e-08
303.15	1.565e-06	8.8e-08
308.15	1.825e-06	1.02e-07
313.15	2.121e-06	1.19e-07
318.15	2.43e-06	1.36e-07
323.15	2.764e-06	1.55e-07

System: trimetazidine hydrochloride (1:2) + 1,4-dioxane; phases: Liquid, Crystal
Fixed: Pressure, kPa = 101.2
Property: Mole fraction of trimetazidine hydrochloride (1:2) (Liquid); method: Chromatography
Temperature, K	Mole fraction of trimetazidine hydrochloride (1:2)	uncertainty
288.15	5.08e-05	2.8e-06
293.15	6.07e-05	3.4e-06
298.15	7.16e-05	4e-06
303.15	8.25e-05	4.6e-06
308.15	9.48e-05	5.3e-06
313.15	0.000109	6.1e-06
318.15	0.0001242	7e-06
323.15	0.0001415	7.9e-06

System: trimetazidine hydrochloride (1:2) + methanol + ethanol; phases: Liquid, Crystal
Fixed: Pressure, kPa = 101.2
Property: Mole fraction of trimetazidine hydrochloride (1:2) (Liquid); method: Chromatography
Temperature, K	Solvent: Mass fraction of methanol	Mole fraction of trimetazidine hydrochloride (1:2)	uncertainty
278.15	0	0.0005825	3.26e-05
283.15	0	0.0006516	3.65e-05
288.15	0	0.0007274	4.08e-05
293.15	0	0.0008046	4.51e-05
298.15	0	0.00089	4.99e-05
303.15	0	0.0009866	5.53e-05
308.15	0	0.001093	6.1e-05
313.15	0	0.001203	6.7e-05
318.15	0	0.001321	7.4e-05
323.15	0	0.001449	8.1e-05
278.15	0.0996	0.0008325	4.67e-05
283.15	0.0996	0.0009552	5.35e-05
288.15	0.0996	0.00106	5.9e-05
293.15	0.0996	0.0012	6.7e-05
298.15	0.0996	0.00131	7.3e-05
303.15	0.0996	0.0015	8.4e-05
308.15	0.0996	0.00162	9.1e-05
313.15	0.0996	0.00178	0.0001
318.15	0.0996	0.00191	0.000107
323.15	0.0996	0.00207	0.000116
278.15	0.2005	0.001098	6.2e-05
283.15	0.2005	0.00125	7e-05
288.15	0.2005	0.001413	7.9e-05
293.15	0.2005	0.001575	8.8e-05
298.15	0.2005	0.001801	0.000101
303.15	0.2005	0.001953	0.000109
308.15	0.2005	0.002135	0.00012
313.15	0.2005	0.002365	0.000133
318.15	0.2005	0.002551	0.000143
323.15	0.2005	0.002744	0.000154
278.15	0.299	0.00135	7.6e-05
283.15	0.299	0.00153	8.6e-05
288.15	0.299	0.00173	9.7e-05
293.15	0.299	0.00195	0.000109
298.15	0.299	0.00206	0.000115
303.15	0.299	0.00232	0.00013
308.15	0.299	0.00266	0.000149
313.15	0.299	0.00298	0.000167
318.15	0.299	0.00318	0.000178
323.15	0.299	0.00347	0.000194
278.15	0.4003	0.001586	8.9e-05
283.15	0.4003	0.001826	0.000102
288.15	0.4003	0.00206	0.000115
293.15	0.4003	0.00235	0.000132
298.15	0.4003	0.002561	0.000144
303.15	0.4003	0.002857	0.00016
308.15	0.4003	0.003231	0.000181
313.15	0.4003	0.003571	0.0002
318.15	0.4003	0.003878	0.000217
323.15	0.4003	0.004234	0.000237
278.15	0.5002	0.001787	0.0001
283.15	0.5002	0.002111	0.000118
288.15	0.5002	0.00239	0.000134
293.15	0.5002	0.002755	0.000154
298.15	0.5002	0.002997	0.000168
303.15	0.5002	0.003368	0.000189
308.15	0.5002	0.003881	0.000218
313.15	0.5002	0.004278	0.00024
318.15	0.5002	0.004748	0.000266
323.15	0.5002	0.005168	0.00029
278.15	0.5991	0.002122	0.000119
283.15	0.5991	0.002452	0.000137
288.15	0.5991	0.002816	0.000158
293.15	0.5991	0.003155	0.000177
298.15	0.5991	0.003521	0.000197
303.15	0.5991	0.003915	0.000219
308.15	0.5991	0.004524	0.000254
313.15	0.5991	0.00499	0.00028
318.15	0.5991	0.005548	0.000311
323.15	0.5991	0.006115	0.000343
278.15	0.7008	0.00247	0.000138
283.15	0.7008	0.002812	0.000158
288.15	0.7008	0.00321	0.00018
293.15	0.7008	0.003648	0.000204
298.15	0.7008	0.004057	0.000227
303.15	0.7008	0.004584	0.000257
308.15	0.7008	0.005184	0.000291
313.15	0.7008	0.005808	0.000326
318.15	0.7008	0.006438	0.000361
323.15	0.7008	0.007086	0.000397
278.15	0.7998	0.002724	0.000153
283.15	0.7998	0.003135	0.000176
288.15	0.7998	0.003595	0.000202
293.15	0.7998	0.004125	0.000231
298.15	0.7998	0.004641	0.00026
303.15	0.7998	0.005256	0.000295
308.15	0.7998	0.00601	0.000337
313.15	0.7998	0.006735	0.000377
318.15	0.7998	0.007515	0.000421
323.15	0.7998	0.008356	0.000468
278.15	0.8996	0.00314	0.000176
283.15	0.8996	0.00357	0.0002
288.15	0.8996	0.004119	0.000231
293.15	0.8996	0.004709	0.000264
298.15	0.8996	0.00527	0.000295
303.15	0.8996	0.00599	0.000336
308.15	0.8996	0.006889	0.000386
313.15	0.8996	0.007739	0.000434
318.15	0.8996	0.0087	0.000488
323.15	0.8996	0.00967	0.000542
278.15	1	0.003527	0.000198
283.15	1	0.004024	0.000226
288.15	1	0.004581	0.000257
293.15	1	0.005245	0.000294
298.15	1	0.006027	0.000338
303.15	1	0.006821	0.000382
308.15	1	0.007775	0.000436
313.15	1	0.00882	0.000494
318.15	1	0.00993	0.000557
323.15	1	0.01112	0.00062

System: trimetazidine hydrochloride (1:2) + methanol + dimethylformamide; phases: Liquid, Crystal
Fixed: Pressure, kPa = 101.2
Property: Mole fraction of trimetazidine hydrochloride (1:2) (Liquid); method: Chromatography
Temperature, K	Solvent: Mass fraction of methanol	Mole fraction of trimetazidine hydrochloride (1:2)	uncertainty
278.15	0	0.0005298	2.97e-05
283.15	0	0.0005662	3.17e-05
288.15	0	0.0006094	3.42e-05
293.15	0	0.0006576	3.69e-05
298.15	0	0.0007053	3.95e-05
303.15	0	0.0007543	4.23e-05
308.15	0	0.0008031	4.5e-05
313.15	0	0.0008569	4.8e-05
318.15	0	0.0009126	5.11e-05
323.15	0	0.000975	5.46e-05
278.15	0.0988	0.000938	5.26e-05
283.15	0.0988	0.001031	5.8e-05
288.15	0.0988	0.00109	6.1e-05
293.15	0.0988	0.001172	6.6e-05
298.15	0.0988	0.001253	7e-05
303.15	0.0988	0.001375	7.7e-05
308.15	0.0988	0.001452	8.1e-05
313.15	0.0988	0.00155	8.7e-05
318.15	0.0988	0.001683	9.4e-05
323.15	0.0988	0.001815	0.000102
278.15	0.1988	0.001319	7.4e-05
283.15	0.1988	0.001486	8.3e-05
288.15	0.1988	0.001619	9.1e-05
293.15	0.1988	0.001771	9.9e-05
298.15	0.1988	0.001915	0.000107
303.15	0.1988	0.002047	0.000115
308.15	0.1988	0.002181	0.000122
313.15	0.1988	0.002327	0.00013
318.15	0.1988	0.002538	0.000142
323.15	0.1988	0.00272	0.000152
278.15	0.2983	0.001714	9.6e-05
283.15	0.2983	0.001881	0.000105
288.15	0.2983	0.002064	0.000116
293.15	0.2983	0.002266	0.000127
298.15	0.2983	0.002457	0.000138
303.15	0.2983	0.002667	0.000149
308.15	0.2983	0.00286	0.00016
313.15	0.2983	0.003132	0.000176
318.15	0.2983	0.003484	0.000195
323.15	0.2983	0.003659	0.000205
278.15	0.4036	0.00193	0.000108
283.15	0.4036	0.002211	0.000124
288.15	0.4036	0.002499	0.00014
293.15	0.4036	0.002751	0.000154
298.15	0.4036	0.00295	0.000165
303.15	0.4036	0.003247	0.000182
308.15	0.4036	0.003505	0.000196
313.15	0.4036	0.003863	0.000217
318.15	0.4036	0.00425	0.000238
323.15	0.4036	0.004683	0.000262
278.15	0.5001	0.002379	0.000133
283.15	0.5001	0.002509	0.000141
288.15	0.5001	0.002856	0.00016
293.15	0.5001	0.003145	0.000176
298.15	0.5001	0.003387	0.00019
303.15	0.5001	0.003806	0.000213
308.15	0.5001	0.004175	0.000234
313.15	0.5001	0.004649	0.000261
318.15	0.5001	0.00517	0.00029
323.15	0.5001	0.005627	0.000315
278.15	0.5993	0.002381	0.000133
283.15	0.5993	0.002715	0.000152
288.15	0.5993	0.003094	0.000173
293.15	0.5993	0.003458	0.000194
298.15	0.5993	0.003901	0.000219
303.15	0.5993	0.004368	0.000245
308.15	0.5993	0.004733	0.000265
313.15	0.5993	0.005534	0.00031
318.15	0.5993	0.006247	0.00035
323.15	0.5993	0.007207	0.000404
278.15	0.7009	0.00268	0.00015
283.15	0.7009	0.003061	0.000172
288.15	0.7009	0.003441	0.000193
293.15	0.7009	0.003891	0.000218
298.15	0.7009	0.004408	0.000247
303.15	0.7009	0.005051	0.000283
308.15	0.7009	0.005731	0.000321
313.15	0.7009	0.006405	0.000359
318.15	0.7009	0.007174	0.000402
323.15	0.7009	0.007974	0.000447
278.15	0.8028	0.002901	0.000163
283.15	0.8028	0.003418	0.000192
288.15	0.8028	0.003786	0.000212
293.15	0.8028	0.004294	0.000241
298.15	0.8028	0.005024	0.000282
303.15	0.8028	0.005725	0.000321
308.15	0.8028	0.006522	0.000366
313.15	0.8028	0.007257	0.000407
318.15	0.8028	0.008331	0.000467
323.15	0.8028	0.009499	0.000532
278.15	0.9015	0.00317	0.000178
283.15	0.9015	0.003708	0.000208
288.15	0.9015	0.004211	0.000236
293.15	0.9015	0.004749	0.000266
298.15	0.9015	0.005364	0.000301
303.15	0.9015	0.006309	0.000354
308.15	0.9015	0.007317	0.00041
313.15	0.9015	0.008176	0.000458
318.15	0.9015	0.009579	0.000537
323.15	0.9015	0.01067	0.0006
278.15	1	0.003527	0.000198
283.15	1	0.004024	0.000226
288.15	1	0.004581	0.000257
293.15	1	0.005245	0.000294
298.15	1	0.006027	0.000338
303.15	1	0.006821	0.000382
308.15	1	0.007775	0.000436
313.15	1	0.00882	0.000494
318.15	1	0.00993	0.000557
323.15	1	0.01112	0.00062

System: trimetazidine hydrochloride (1:2) + methanol + ethyl acetate; phases: Liquid, Crystal
Fixed: Pressure, kPa = 101.2
Property: Mole fraction of trimetazidine hydrochloride (1:2) (Liquid); method: Chromatography
Temperature, K	Solvent: Mass fraction of methanol	Mole fraction of trimetazidine hydrochloride (1:2)	uncertainty
278.15	0	0.002009	0.000113
283.15	0	0.002092	0.000117
288.15	0	0.002173	0.000122
293.15	0	0.002258	0.000127
298.15	0	0.002345	0.000131
303.15	0	0.002437	0.000137
308.15	0	0.00254	0.000142
313.15	0	0.002644	0.000148
318.15	0	0.002751	0.000154
323.15	0	0.002862	0.00016
278.15	0.0998	0.002248	0.000126
283.15	0.0998	0.002364	0.000132
288.15	0.0998	0.002492	0.00014
293.15	0.0998	0.002643	0.000148
298.15	0.0998	0.002741	0.000154
303.15	0.0998	0.002875	0.000161
308.15	0.0998	0.003003	0.000168
313.15	0.0998	0.003184	0.000178
318.15	0.0998	0.003369	0.000189
323.15	0.0998	0.003529	0.000198
278.15	0.2008	0.002428	0.000136
283.15	0.2008	0.002629	0.000147
288.15	0.2008	0.002785	0.000156
293.15	0.2008	0.002965	0.000166
298.15	0.2008	0.003162	0.000177
303.15	0.2008	0.003334	0.000187
308.15	0.2008	0.003546	0.000199
313.15	0.2008	0.003819	0.000214
318.15	0.2008	0.004046	0.000227
323.15	0.2008	0.004273	0.000239
278.15	0.303	0.002548	0.000143
283.15	0.303	0.002807	0.000157
288.15	0.303	0.003073	0.000172
293.15	0.303	0.003317	0.000186
298.15	0.303	0.003532	0.000198
303.15	0.303	0.003807	0.000213
308.15	0.303	0.004068	0.000228
313.15	0.303	0.004374	0.000245
318.15	0.303	0.0047	0.000263
323.15	0.303	0.005011	0.000281
278.15	0.3976	0.002684	0.00015
283.15	0.3976	0.002985	0.000167
288.15	0.3976	0.003256	0.000182
293.15	0.3976	0.003523	0.000197
298.15	0.3976	0.003892	0.000218
303.15	0.3976	0.004293	0.000241
308.15	0.3976	0.004555	0.000255
313.15	0.3976	0.004956	0.000278
318.15	0.3976	0.005377	0.000301
323.15	0.3976	0.005815	0.000326
278.15	0.5041	0.002831	0.000159
283.15	0.5041	0.003157	0.000177
288.15	0.5041	0.003497	0.000196
293.15	0.5041	0.003869	0.000217
298.15	0.5041	0.004307	0.000241
303.15	0.5041	0.004709	0.000264
308.15	0.5041	0.005155	0.000289
313.15	0.5041	0.005631	0.000316
318.15	0.5041	0.006119	0.000343
323.15	0.5041	0.006669	0.000374
278.15	0.5983	0.002982	0.000167
283.15	0.5983	0.003342	0.000187
288.15	0.5983	0.00375	0.00021
293.15	0.5983	0.004141	0.000232
298.15	0.5983	0.004603	0.000258
303.15	0.5983	0.005129	0.000287
308.15	0.5983	0.005678	0.000318
313.15	0.5983	0.006302	0.000353
318.15	0.5983	0.006916	0.000388
323.15	0.5983	0.00758	0.000425
278.15	0.7009	0.003023	0.000169
283.15	0.7009	0.003365	0.000189
288.15	0.7009	0.003858	0.000216
293.15	0.7009	0.004397	0.000246
298.15	0.7009	0.004975	0.000279
303.15	0.7009	0.005582	0.000313
308.15	0.7009	0.00615	0.000345
313.15	0.7009	0.007017	0.000393
318.15	0.7009	0.007827	0.000439
323.15	0.7009	0.008566	0.00048
278.15	0.7991	0.00325	0.000182
283.15	0.7991	0.003634	0.000204
288.15	0.7991	0.004088	0.000229
293.15	0.7991	0.004645	0.00026
298.15	0.7991	0.005285	0.000296
303.15	0.7991	0.005986	0.000336
308.15	0.7991	0.0067	0.000376
313.15	0.7991	0.007525	0.000422
318.15	0.7991	0.008423	0.000472
323.15	0.7991	0.009358	0.000524
278.15	0.8955	0.003378	0.000189
283.15	0.8955	0.003827	0.000215
288.15	0.8955	0.004338	0.000243
293.15	0.8955	0.004942	0.000277
298.15	0.8955	0.00566	0.000317
303.15	0.8955	0.00635	0.000356
308.15	0.8955	0.007217	0.000405
313.15	0.8955	0.008202	0.00046
318.15	0.8955	0.009212	0.000516
323.15	0.8955	0.01015	0.00057
278.15	1	0.003527	0.000198
283.15	1	0.004024	0.000226
288.15	1	0.004581	0.000257
293.15	1	0.005245	0.000294
298.15	1	0.006027	0.000338
303.15	1	0.006821	0.000382
308.15	1	0.007775	0.000436
313.15	1	0.00882	0.000494
318.15	1	0.00993	0.000557
323.15	1	0.01112	0.00062
