Measured thermophysical data. Measurement and Correlation of Solubility of 3-Hydroxy-2-naphthoic Acid in Ten Pure and Binary Mixed Organic Solvents from T = (293.15 to 333.15 K)
Source: J. Chem. Eng. Data, 2018, 10.1021/acs.jced.8b00578
Compound 1: 3-hydroxy-2-naphthoic acid, C11H8O3, InChI=1S/C11H8O3/c12-10-6-8-4-2-1-3-7(8)5-9(10)11(13)14/h1-6,12H,(H,13,14), purity 99%
Compound 2: methanol, CH4O, InChI=1S/CH4O/c1-2/h2H,1H3, purity 99.5%
Compound 3: ethanol, C2H6O, InChI=1S/C2H6O/c1-2-3/h3H,2H2,1H3, purity 99.5%
Compound 4: propan-1-ol, C3H8O, InChI=1S/C3H8O/c1-2-3-4/h4H,2-3H2,1H3, purity 99.5%
Compound 5: propan-2-ol, C3H8O, InChI=1S/C3H8O/c1-3(2)4/h3-4H,1-2H3, purity 99.5%
Compound 6: butan-1-ol, C4H10O, InChI=1S/C4H10O/c1-2-3-4-5/h5H,2-4H2,1H3, purity 99.5%
Compound 7: 2-methyl-1-propanol, C4H10O, InChI=1S/C4H10O/c1-4(2)3-5/h4-5H,3H2,1-2H3, purity 99.5%
Compound 8: acetone, C3H6O, InChI=1S/C3H6O/c1-3(2)4/h1-2H3, purity 99.5%
Compound 9: acetic acid, C2H4O2, InChI=1S/C2H4O2/c1-2(3)4/h1H3,(H,3,4), purity 99.5%
Compound 10: methyl ethanoate, C3H6O2, InChI=1S/C3H6O2/c1-3(4)5-2/h1-2H3, purity 99.5%
Compound 11: ethyl acetate, C4H8O2, InChI=1S/C4H8O2/c1-3-6-4(2)5/h3H2,1-2H3, purity 99.5%

System: 3-hydroxy-2-naphthoic acid; phases: Crystal, Liquid, Air at 1 atmosphere
Property: Triple point temperature, K (Crystal); method: DSC
Triple point temperature, K	uncertainty
494.4	0.81

System: 3-hydroxy-2-naphthoic acid; phases: Crystal, Liquid, Air at 1 atmosphere
Property: Molar enthalpy of transition or fusion, kJ/mol (Crystal); method: DSC
Molar enthalpy of transition or fusion, kJ/mol	uncertainty
27.7018924182	1.260802114

System: 3-hydroxy-2-naphthoic acid + methanol; phases: Liquid, Crystal
Fixed: Pressure, kPa = 100
Property: Mole fraction of 3-hydroxy-2-naphthoic acid (Liquid); method: gravimetric
Temperature, K	Mole fraction of 3-hydroxy-2-naphthoic acid	uncertainty
293.15	0.01306	0.00131
298.15	0.0155	0.00155
303.15	0.018	0.0018
308.15	0.02082	0.00209
313.15	0.02387	0.00239
318.15	0.02708	0.00271
323.15	0.03128	0.00313
328.15	0.03581	0.00359
333.15	0.04151	0.00416

System: 3-hydroxy-2-naphthoic acid + ethanol; phases: Liquid, Crystal
Fixed: Pressure, kPa = 100
Property: Mole fraction of 3-hydroxy-2-naphthoic acid (Liquid); method: gravimetric
Temperature, K	Mole fraction of 3-hydroxy-2-naphthoic acid	uncertainty
293.15	0.02181	0.00219
298.15	0.02583	0.00259
303.15	0.02939	0.00294
308.15	0.03308	0.00331
313.15	0.03703	0.00371
318.15	0.04146	0.00415
323.15	0.04688	0.0047
328.15	0.05375	0.00538
333.15	0.06185	0.00619

System: 3-hydroxy-2-naphthoic acid + propan-1-ol; phases: Liquid, Crystal
Fixed: Pressure, kPa = 100
Property: Mole fraction of 3-hydroxy-2-naphthoic acid (Liquid); method: gravimetric
Temperature, K	Mole fraction of 3-hydroxy-2-naphthoic acid	uncertainty
293.15	0.02344	0.00235
298.15	0.02586	0.00259
303.15	0.02884	0.00289
308.15	0.03232	0.00324
313.15	0.03718	0.00372
318.15	0.04017	0.00402
323.15	0.04527	0.00453
328.15	0.05133	0.00514
333.15	0.05737	0.00574

System: 3-hydroxy-2-naphthoic acid + propan-2-ol; phases: Liquid, Crystal
Fixed: Pressure, kPa = 100
Property: Mole fraction of 3-hydroxy-2-naphthoic acid (Liquid); method: gravimetric
Temperature, K	Mole fraction of 3-hydroxy-2-naphthoic acid	uncertainty
293.15	0.02342	0.00235
298.15	0.0267	0.00267
303.15	0.0306	0.00307
308.15	0.03496	0.0035
313.15	0.04059	0.00406
318.15	0.04461	0.00447
323.15	0.05141	0.00515
328.15	0.05651	0.00566
333.15	0.06491	0.0065

System: 3-hydroxy-2-naphthoic acid + butan-1-ol; phases: Liquid, Crystal
Fixed: Pressure, kPa = 100
Property: Mole fraction of 3-hydroxy-2-naphthoic acid (Liquid); method: gravimetric
Temperature, K	Mole fraction of 3-hydroxy-2-naphthoic acid	uncertainty
293.15	0.02679	0.00268
298.15	0.02995	0.003
303.15	0.03458	0.00346
308.15	0.03824	0.00383
313.15	0.04308	0.00431
318.15	0.0466	0.00467
323.15	0.05293	0.0053
328.15	0.05788	0.0058
333.15	0.0663	0.00664

System: 3-hydroxy-2-naphthoic acid + 2-methyl-1-propanol; phases: Liquid, Crystal
Fixed: Pressure, kPa = 100
Property: Mole fraction of 3-hydroxy-2-naphthoic acid (Liquid); method: gravimetric
Temperature, K	Mole fraction of 3-hydroxy-2-naphthoic acid	uncertainty
293.15	0.01472	0.00148
298.15	0.01741	0.00175
303.15	0.02067	0.00207
308.15	0.02356	0.00236
313.15	0.02787	0.00279
318.15	0.03163	0.00317
323.15	0.03768	0.00377
328.15	0.04213	0.00422
333.15	0.05007	0.00502

System: 3-hydroxy-2-naphthoic acid + acetone; phases: Liquid, Crystal
Fixed: Pressure, kPa = 100
Property: Mole fraction of 3-hydroxy-2-naphthoic acid (Liquid); method: gravimetric
Temperature, K	Mole fraction of 3-hydroxy-2-naphthoic acid	uncertainty
293.15	0.0363	0.00363
298.15	0.03891	0.00389
303.15	0.04228	0.00423
308.15	0.04612	0.00462
313.15	0.0506	0.00506
318.15	0.05466	0.00547
323.15	0.06073	0.00608
328.15	0.06609	0.00661

System: 3-hydroxy-2-naphthoic acid + acetic acid; phases: Liquid, Crystal
Fixed: Pressure, kPa = 100
Property: Mole fraction of 3-hydroxy-2-naphthoic acid (Liquid); method: gravimetric
Temperature, K	Mole fraction of 3-hydroxy-2-naphthoic acid	uncertainty
293.15	0.00556	0.00056
298.15	0.00672	0.00067
303.15	0.00786	0.00079
308.15	0.00913	0.00091
313.15	0.01048	0.00105
318.15	0.01213	0.00122
323.15	0.01405	0.00141
328.15	0.01638	0.00164
333.15	0.0192	0.00192

System: 3-hydroxy-2-naphthoic acid + methyl ethanoate; phases: Liquid, Crystal
Fixed: Pressure, kPa = 100
Property: Mole fraction of 3-hydroxy-2-naphthoic acid (Liquid); method: gravimetric
Temperature, K	Mole fraction of 3-hydroxy-2-naphthoic acid	uncertainty
293.15	0.02045	0.00205
298.15	0.02246	0.00225
303.15	0.02496	0.0025
308.15	0.02856	0.00286
313.15	0.03182	0.00319
318.15	0.03488	0.00349
323.15	0.0402	0.00403
328.15	0.04475	0.00448

System: 3-hydroxy-2-naphthoic acid + ethyl acetate; phases: Liquid, Crystal
Fixed: Pressure, kPa = 100
Property: Mole fraction of 3-hydroxy-2-naphthoic acid (Liquid); method: gravimetric
Temperature, K	Mole fraction of 3-hydroxy-2-naphthoic acid	uncertainty
293.15	0.02216	0.00222
298.15	0.02506	0.00251
303.15	0.02784	0.00279
308.15	0.03093	0.0031
313.15	0.03381	0.00338
318.15	0.03752	0.00376
323.15	0.0417	0.00418
328.15	0.0468	0.00469
333.15	0.05327	0.00533

System: 3-hydroxy-2-naphthoic acid + ethanol + propan-1-ol; phases: Liquid, Crystal
Fixed: Pressure, kPa = 100
Property: Mole fraction of 3-hydroxy-2-naphthoic acid (Liquid); method: gravimetric
Solvent: Mass fraction of ethanol	Temperature, K	Mole fraction of 3-hydroxy-2-naphthoic acid	uncertainty
0.1	293.15	0.02338	0.00234
0.1	298.15	0.02611	0.00261
0.1	303.15	0.02915	0.00292
0.1	308.15	0.03242	0.00325
0.1	313.15	0.03635	0.00364
0.1	318.15	0.04051	0.00406
0.1	323.15	0.04539	0.00454
0.1	328.15	0.05035	0.00504
0.1	333.15	0.05705	0.00571
0.2	293.15	0.02371	0.00237
0.2	298.15	0.0264	0.00264
0.2	303.15	0.02928	0.00293
0.2	308.15	0.03262	0.00327
0.2	313.15	0.03672	0.00368
0.2	318.15	0.04026	0.00403
0.2	323.15	0.04546	0.00455
0.2	328.15	0.04995	0.005
0.2	333.15	0.05704	0.00573
0.3	293.15	0.02395	0.0024
0.3	298.15	0.02654	0.00266
0.3	303.15	0.0293	0.00293
0.3	308.15	0.03261	0.00327
0.3	313.15	0.03674	0.00368
0.3	318.15	0.04002	0.00401
0.3	323.15	0.04521	0.00453
0.3	328.15	0.04919	0.00493
0.3	333.15	0.05669	0.00568
0.4	293.15	0.02435	0.00244
0.4	298.15	0.02697	0.0027
0.4	303.15	0.0298	0.00298
0.4	308.15	0.0332	0.00332
0.4	313.15	0.03705	0.00371
0.4	318.15	0.04061	0.00407
0.4	323.15	0.04558	0.00456
0.4	328.15	0.04988	0.00499
0.4	333.15	0.05685	0.00569
0.5	293.15	0.02444	0.00245
0.5	298.15	0.02707	0.00271
0.5	303.15	0.03006	0.00301
0.5	308.15	0.03307	0.00331
0.5	313.15	0.03685	0.00369
0.5	318.15	0.04045	0.00405
0.5	323.15	0.04532	0.00454
0.5	328.15	0.04988	0.00499
0.5	333.15	0.05534	0.00554
0.6	293.15	0.02458	0.00246
0.6	298.15	0.02718	0.00272
0.6	303.15	0.03014	0.00302
0.6	308.15	0.03309	0.00331
0.6	313.15	0.0372	0.00372
0.6	318.15	0.04099	0.0041
0.6	323.15	0.04598	0.0046
0.6	328.15	0.05031	0.00504
0.6	333.15	0.05657	0.00566
0.7	293.15	0.02485	0.00249
0.7	298.15	0.0273	0.00273
0.7	303.15	0.03003	0.00301
0.7	308.15	0.03333	0.00334
0.7	313.15	0.03735	0.00374
0.7	318.15	0.04078	0.00408
0.7	323.15	0.04601	0.00461
0.7	328.15	0.04945	0.00495
0.7	333.15	0.05675	0.00568
0.8	293.15	0.02489	0.00249
0.8	298.15	0.02728	0.00273
0.8	303.15	0.03007	0.00301
0.8	308.15	0.03298	0.0033
0.8	313.15	0.0371	0.00371
0.8	318.15	0.03987	0.00399
0.8	323.15	0.04538	0.00454
0.8	328.15	0.04885	0.00489
0.8	333.15	0.05602	0.00561
0.9	293.15	0.0249	0.00249
0.9	298.15	0.02724	0.00273
0.9	303.15	0.03015	0.00302
0.9	308.15	0.03324	0.00333
0.9	313.15	0.0371	0.00371
0.9	318.15	0.04023	0.00403
0.9	323.15	0.04522	0.00453
0.9	328.15	0.0492	0.00493
0.9	333.15	0.05626	0.00563
