Measured thermophysical data. Measurements and Thermodynamic Modeling of Liquid-Liquid Equilibria Data for the Ternary (Methyl Propyl Ketone + Catechol/Resorcinol/Hydroquinone + Water) Systems
Source: J. Chem. Eng. Data, 2019, 10.1021/acs.jced.9b00633
Compound 1: 1,2-benzenediol, C6H6O2, InChI=1S/C6H6O2/c7-5-3-1-2-4-6(5)8/h1-4,7-8H, purity 99%
Compound 2: 1,3-benzenediol, C6H6O2, InChI=1S/C6H6O2/c7-5-2-1-3-6(8)4-5/h1-4,7-8H, purity 99%
Compound 3: 1,4-benzenediol, C6H6O2, InChI=1S/C6H6O2/c7-5-1-2-6(8)4-3-5/h1-4,7-8H, purity 99%
Compound 4: pentan-2-one, C5H10O, InChI=1S/C5H10O/c1-3-4-5(2)6/h3-4H2,1-2H3, purity 99%
Compound 5: water, H2O, InChI=1S/H2O/h1H2, purity 99.9%

System: pentan-2-one + 1,2-benzenediol + water; phases: Liquid mixture 1, Liquid mixture 2
Fixed: Pressure, kPa = 101.3
Property: Mole fraction of 1,2-benzenediol (Liquid mixture 1); method: Chromatography
Property: Mole fraction of 1,2-benzenediol (Liquid mixture 2); method: Chromatography
Property: Mole fraction of pentan-2-one (Liquid mixture 2); method: Chromatography
Temperature, K	Mole fraction of pentan-2-one	Mole fraction of 1,2-benzenediol	uncertainty	Mole fraction of 1,2-benzenediol	uncertainty	Mole fraction of pentan-2-one	uncertainty
333.15	0.8122	0		0		0.0081	
333.15	0.7462	0.0377	0.029	0.0004	0.0004	0.0086	
333.15	0.7128	0.0573	0.0288	0.0007	0.0007	0.0081	
333.15	0.685	0.0724	0.0274	0.0009	0.0009	0.0077	
333.15	0.6513	0.0859	0.0276	0.0011	0.0011	0.0073	
333.15	0.6135	0.1068	0.0281	0.0015	0.0015	0.0068	
333.15	0.5778	0.1236	0.0278	0.0018	0.0018	0.0063	
333.15	0.5491	0.1388	0.0283	0.0021	0.0021	0.0059	
333.15	0.5389	0.1419	0.0275	0.0022	0.0022	0.0058	
343.15	0.8089	0		0		0.008	
343.15	0.7413	0.0389	0.0291	0.0004	0.0004	0.0084	
343.15	0.7094	0.0584	0.0278	0.0007	0.0007	0.008	
343.15	0.6825	0.0727	0.0281	0.0009	0.0009	0.0076	
343.15	0.6488	0.086	0.0277	0.0012	0.0012	0.0072	
343.15	0.6124	0.107	0.0279	0.0016	0.0016	0.0067	
343.15	0.5736	0.1237	0.0275	0.0019	0.0019	0.0061	
343.15	0.5462	0.1386	0.0277	0.0022	0.0022	0.0056	
343.15	0.5379	0.1425	0.0285	0.0023	0.0023	0.0055	
353.15	0.8061	0		0		0.0076	
353.15	0.74	0.0392	0.0292	0.0005	0.0005	0.0083	
353.15	0.7048	0.06	0.028	0.0008	0.0008	0.0078	
353.15	0.6754	0.0722	0.027	0.001	0.001	0.0074	
353.15	0.6435	0.0866	0.0279	0.0013	0.0013	0.0069	
353.15	0.6007	0.1095	0.0276	0.0017	0.0017	0.0064	
353.15	0.5667	0.1233	0.028	0.002	0.002	0.0059	
353.15	0.5439	0.1399	0.0284	0.0023	0.0023	0.0053	
353.15	0.533	0.1441	0.0296	0.0024	0.0024	0.0051	

System: pentan-2-one + 1,3-benzenediol + water; phases: Liquid mixture 1, Liquid mixture 2
Fixed: Pressure, kPa = 101.3
Property: Mole fraction of 1,3-benzenediol (Liquid mixture 1); method: Chromatography
Property: Mole fraction of pentan-2-one (Liquid mixture 2); method: Chromatography
Property: Mole fraction of 1,3-benzenediol (Liquid mixture 2); method: Chromatography
Temperature, K	Mole fraction of pentan-2-one	Mole fraction of 1,3-benzenediol	uncertainty	Mole fraction of pentan-2-one	uncertainty	Mole fraction of 1,3-benzenediol	uncertainty
333.15	0.8122	0		0.0081	0.0038	0	
333.15	0.7574	0.0332	0.0279	0.0087	0.0038	0.0004	
333.15	0.7301	0.0503	0.0282	0.0084	0.0038	0.0007	
333.15	0.6891	0.062	0.0259	0.0083	0.0038	0.0011	
333.15	0.6656	0.0708	0.026	0.0081	0.0038	0.0014	
333.15	0.6384	0.0834	0.0259	0.0079	0.0038	0.0018	
333.15	0.6151	0.0926	0.0269	0.0077	0.0038	0.0022	
333.15	0.5905	0.0976	0.0267	0.008	0.0038	0.0026	
333.15	0.5532	0.1196	0.0294	0.0073	0.0038	0.0035	
343.15	0.8089	0		0.008	0.0038	0	
343.15	0.7552	0.0339	0.0277	0.0089	0.0038	0.0005	
343.15	0.7284	0.0507	0.0283	0.0086	0.0038	0.0008	
343.15	0.6845	0.0622	0.0257	0.0084	0.0038	0.0012	
343.15	0.6619	0.0714	0.0256	0.0082	0.0038	0.0015	
343.15	0.6318	0.0831	0.0256	0.0079	0.0038	0.002	
343.15	0.6092	0.0926	0.0269	0.0079	0.0038	0.0024	
343.15	0.585	0.0973	0.0269	0.008	0.0038	0.0028	
343.15	0.5523	0.1189	0.0307	0.0073	0.0038	0.0036	
353.15	0.8061	0		0.0076	0.0038	0	
353.15	0.753	0.0345	0.0277	0.0091	0.0038	0.0005	
353.15	0.7373	0.0502	0.028	0.0087	0.0038	0.0009	
353.15	0.6827	0.0613	0.0251	0.0083	0.0038	0.0013	
353.15	0.6651	0.0722	0.0251	0.0079	0.0038	0.0017	
353.15	0.6272	0.0822	0.025	0.0076	0.0038	0.0021	
353.15	0.6099	0.0901	0.0255	0.0073	0.0038	0.0026	
353.15	0.584	0.0951	0.0252	0.0073	0.0038	0.0029	
353.15	0.5824	0.0953	0.0251	0.0074	0.0038	0.0031	

System: pentan-2-one + 1,4-benzenediol + water; phases: Liquid mixture 1, Liquid mixture 2
Fixed: Pressure, kPa = 101.3
Property: Mole fraction of 1,4-benzenediol (Liquid mixture 1); method: Chromatography
Property: Mole fraction of 1,4-benzenediol (Liquid mixture 2); method: Chromatography
Property: Mole fraction of pentan-2-one (Liquid mixture 2); method: Chromatography
Temperature, K	Mole fraction of pentan-2-one	Mole fraction of 1,4-benzenediol	uncertainty	Mole fraction of 1,4-benzenediol	uncertainty	Mole fraction of pentan-2-one	uncertainty
333.15	0.8122	0		0		0.0081	
333.15	0.751	0.0281	0.0219	0.0006	0.0006	0.0081	
333.15	0.7164	0.0403	0.0214	0.001	0.001	0.0078	
333.15	0.6915	0.0504	0.0213	0.0013	0.0013	0.0075	
333.15	0.6649	0.0588	0.0216	0.0016	0.0016	0.0071	
333.15	0.6245	0.0763	0.0219	0.0023	0.0023	0.0063	
333.15	0.5748	0.0967	0.0212	0.0034	0.0034	0.0075	
333.15	0.5126	0.1147	0.0217	0.0048	0.0048	0.0058	
333.15	0.4693	0.1395	0.0235	0.0061	0.0052	0.0044	
343.15	0.8089	0		0		0.008	
343.15	0.745	0.0292	0.0217	0.0007	0.0007	0.0078	
343.15	0.7061	0.0402	0.0214	0.0011	0.0011	0.0075	
343.15	0.6827	0.0526	0.0215	0.0015	0.0015	0.0071	
343.15	0.6584	0.0595	0.0216	0.0018	0.0018	0.0068	
343.15	0.6163	0.0776	0.022	0.0026	0.0026	0.0058	
343.15	0.5685	0.0982	0.0212	0.0037	0.0037	0.0067	
343.15	0.5065	0.1154	0.0214	0.0051	0.0051	0.0051	
343.15	0.4621	0.1384	0.0232	0.0064	0.0052	0.0036	
353.15	0.8061	0		0		0.0076	
353.15	0.7403	0.03	0.0216	0.0008	0.0008	0.0074	
353.15	0.6991	0.0407	0.0211	0.0012	0.0012	0.0072	
353.15	0.6867	0.0531	0.0212	0.0017	0.0017	0.0067	
353.15	0.6529	0.0592	0.021	0.002	0.002	0.0064	
353.15	0.6055	0.0784	0.022	0.0029	0.0029	0.0053	
353.15	0.5633	0.098	0.0214	0.0041	0.0041	0.0062	
353.15	0.5042	0.116	0.0216	0.0055	0.0052	0.0045	
353.15	0.4595	0.1385	0.0227	0.0068	0.0052	0.0031	

System: pentan-2-one + water; phases: Liquid mixture 1, Liquid mixture 2
Fixed: Pressure, kPa = 101.3
Property: Mole fraction of pentan-2-one (Liquid mixture 1); method: Chromatography
Temperature, K	Mole fraction of pentan-2-one	uncertainty
333.15	0.8122	0.0276
343.15	0.8089	0.0276
353.15	0.8061	0.0276

System: pentan-2-one + water; phases: Liquid mixture 2, Liquid mixture 1
Fixed: Pressure, kPa = 101.3
Property: Mole fraction of pentan-2-one (Liquid mixture 2); method: Chromatography
Temperature, K	Mole fraction of pentan-2-one	uncertainty
333.15	0.0081	0.0038
343.15	0.008	0.0038
353.15	0.0076	0.0038
