Measured thermophysical data. Density, Viscosity, and Vapor-Liquid Equilibrium Data for the Binary Mixture at Atmosphere Pressure: Cyclopropyl Methyl Ketone + 2-Acetylbutyrolactone, Cyclopropyl Methyl Ketone + 5-Chloro-2-pentanone
Source: J. Chem. Eng. Data, 2017, 10.1021/acs.jced.7b00344
Compound 1: 1-cyclopropyl ethanone, C5H8O, InChI=1S/C5H8O/c1-4(6)5-2-3-5/h5H,2-3H2,1H3, purity 98%
Compound 2: 2-acetylbutyrolactone, C6H8O3, InChI=1S/C6H8O3/c1-4(7)5-2-3-9-6(5)8/h5H,2-3H2,1H3, purity 98%
Compound 3: 1-chloro-4-pentanone, C5H9ClO, InChI=1S/C5H9ClO/c1-5(7)3-2-4-6/h2-4H2,1H3, purity 96%

System: 1-cyclopropyl ethanone; phases: Liquid, Gas
Property: Vapor or sublimation pressure, kPa (Liquid); method: Ebulliometric method (Recirculating still)
Temperature, K	Vapor or sublimation pressure, kPa	uncertainty
385	102.18	0.83
380.6	89.62	0.814
376.9	80.03	0.775
372.6	70.04	0.741
367.6	59.85	0.714
362.1	49.78	0.685
355.6	40.07	0.66
347.7	30.05	0.637
337	20.07	0.618
320.8	9.95	0.609
310.1	6.06	0.603
300	3.65	0.602

System: 1-cyclopropyl ethanone; phases: Liquid
Fixed: Pressure, kPa = 101.3
Property: Mass density, kg/m3 (Liquid); method: Pycnometric method
Temperature, K	Mass density, kg/m3	uncertainty
303.15	889.8	1.1
313.15	880.3	1.1
323.15	870.6	1.1
333.15	861.2	1.1

System: 1-cyclopropyl ethanone; phases: Liquid
Fixed: Pressure, kPa = 101.3
Property: Viscosity, Pa*s (Liquid); method: Capillary tube (Ostwald; Ubbelohde) method
Temperature, K	Viscosity, Pa*s	uncertainty
303.15	0.0005572	1.18e-05
313.15	0.0005015	1.06e-05
323.15	0.0004524	9.6e-06
333.15	0.0003942	8.5e-06

System: 1-cyclopropyl ethanone; phases: Liquid, Gas
Property: Vapor or sublimation pressure, kPa (Liquid); method: Ebulliometric method (Recirculating still)
Temperature, K	Vapor or sublimation pressure, kPa	uncertainty
384.8	101.3	600

System: 2-acetylbutyrolactone; phases: Liquid, Gas
Property: Vapor or sublimation pressure, kPa (Liquid); method: Ebulliometric method (Recirculating still)
Temperature, K	Vapor or sublimation pressure, kPa	uncertainty
530.8	103.54	0.731
523.3	88.01	0.711
517.3	78.1	0.682
511.5	69.06	0.678
505.8	60.05	0.654
489.4	40.17	0.639
478.2	30.05	0.622
464.5	20	0.612
445.1	10	0.607
434.6	6.98	0.603
425.5	4.61	0.602
415.3	2.92	0.601
405.2	1.77	0.6
395.1	1.02	0.6
385	0.552	0.6

System: 2-acetylbutyrolactone; phases: Liquid
Fixed: Pressure, kPa = 101.3
Property: Mass density, kg/m3 (Liquid); method: Pycnometric method
Temperature, K	Mass density, kg/m3	uncertainty
303.15	1185.7	1.1
313.15	1178.3	1.1
323.15	1168.9	1.1
333.15	1159.4	1.1

System: 2-acetylbutyrolactone; phases: Liquid
Fixed: Pressure, kPa = 101.3
Property: Viscosity, Pa*s (Liquid); method: Capillary tube (Ostwald; Ubbelohde) method
Temperature, K	Viscosity, Pa*s	uncertainty
303.15	0.0037942	7.92e-05
313.15	0.003424	7.15e-05
323.15	0.003067	6.41e-05
333.15	0.0027192	5.7e-05

System: 2-acetylbutyrolactone; phases: Liquid, Gas
Property: Vapor or sublimation pressure, kPa (Liquid); method: Ebulliometric method (Recirculating still)
Temperature, K	Vapor or sublimation pressure, kPa	uncertainty
530.9	101.3	600

System: 1-chloro-4-pentanone; phases: Liquid, Gas
Property: Vapor or sublimation pressure, kPa (Liquid); method: Ebulliometric method (Recirculating still)
Temperature, K	Vapor or sublimation pressure, kPa	uncertainty
454	103.425	0.752
449.3	92.851	0.733
443.6	81.585	0.704
438.1	72.35	0.712
433.5	62.265	0.656
423.8	52.605	0.638
413.8	41.16	0.644
404.6	30.233	0.634
393.8	20.79	0.613
373.8	10.5	0.607
363.1	7.15	0.603
353.1	4.66	0.602
343.2	2.91	0.601

System: 1-chloro-4-pentanone; phases: Liquid
Fixed: Pressure, kPa = 101.3
Property: Mass density, kg/m3 (Liquid); method: Pycnometric method
Temperature, K	Mass density, kg/m3	uncertainty
303.15	1051.3	1.1
313.15	1041.1	1.1
323.15	1031.2	1.1
333.15	1020.8	1.1

System: 1-chloro-4-pentanone; phases: Liquid
Fixed: Pressure, kPa = 101.3
Property: Viscosity, Pa*s (Liquid); method: Capillary tube (Ostwald; Ubbelohde) method
Temperature, K	Viscosity, Pa*s	uncertainty
303.15	0.0015819	3.34e-05
313.15	0.0013181	2.8e-05
323.15	0.0010781	2.28e-05
333.15	0.0009667	2.04e-05

System: 1-cyclopropyl ethanone + 2-acetylbutyrolactone; phases: Liquid
Fixed: Pressure, kPa = 101.3
Property: Mass density, kg/m3 (Liquid); method: Pycnometric method
Mole fraction of 1-cyclopropyl ethanone	Temperature, K	Mass density, kg/m3	uncertainty
1	303.15	889.8	1.1
0.8999	303.15	924.5	1.3
0.7999	303.15	958.3	1.3
0.6999	303.15	991.1	1.3
0.5999	303.15	1022.5	1.2
0.4999	303.15	1052.8	1.2
0.4002	303.15	1081.9	1.2
0.3004	303.15	1109.7	1.2
0.2009	303.15	1136.2	1.2
0.0998	303.15	1161.9	1.2
0	303.15	1185.7	1.1
1	313.15	880.3	1.1
0.8999	313.15	915.5	1.3
0.7999	313.15	949.2	1.3
0.6999	313.15	982.1	1.3
0.5999	313.15	1013.8	1.2
0.4999	313.15	1044.3	1.2
0.4002	313.15	1073.7	1.2
0.3004	313.15	1101.8	1.2
0.2009	313.15	1128.5	1.2
0.0998	313.15	1154.3	1.2
0	313.15	1178.3	1.1
1	323.15	870.6	1.1
0.8999	323.15	905.9	1.3
0.7999	323.15	939.6	1.3
0.6999	323.15	972.4	1.3
0.5999	323.15	1004.2	1.3
0.4999	323.15	1034.8	1.2
0.4002	323.15	1064.2	1.2
0.3004	323.15	1092.3	1.2
0.2009	323.15	1119.1	1.2
0.0998	323.15	1144.9	1.2
0	323.15	1168.9	1.1
1	333.15	861.2	1.1
0.8999	333.15	896.5	1.3
0.7999	333.15	930.2	1.3
0.6999	333.15	963.1	1.3
0.5999	333.15	994.8	1.3
0.4999	333.15	1025.4	1.3
0.4002	333.15	1054.8	1.2
0.3004	333.15	1082.9	1.2
0.2009	333.15	1109.7	1.2
0.0998	333.15	1135.6	1.2
0	333.15	1159.4	1.1

System: 1-cyclopropyl ethanone + 2-acetylbutyrolactone; phases: Liquid
Fixed: Pressure, kPa = 101.3
Property: Viscosity, Pa*s (Liquid); method: Capillary tube (Ostwald; Ubbelohde) method
Mole fraction of 1-cyclopropyl ethanone	Temperature, K	Viscosity, Pa*s	uncertainty
1	303.15	0.0005572	1.18e-05
0.8999	303.15	0.0006546	1.4e-05
0.7999	303.15	0.000783	1.69e-05
0.6999	303.15	0.0009813	2.11e-05
0.5999	303.15	0.0011983	2.57e-05
0.4999	303.15	0.0014519	3.11e-05
0.4002	303.15	0.0017857	3.81e-05
0.3004	303.15	0.002164	4.61e-05
0.2009	303.15	0.0026328	5.6e-05
0.0998	303.15	0.0031953	6.77e-05
0	303.15	0.0037942	7.92e-05
1	313.15	0.0005015	1.06e-05
0.8999	313.15	0.0005854	1.25e-05
0.7999	313.15	0.0006912	1.49e-05
0.6999	313.15	0.0008642	1.86e-05
0.5999	313.15	0.0010545	2.26e-05
0.4999	313.15	0.0013055	2.8e-05
0.4002	313.15	0.0015987	3.42e-05
0.3004	313.15	0.0019452	4.15e-05
0.2009	313.15	0.0023685	5.04e-05
0.0998	313.15	0.0028894	6.13e-05
0	313.15	0.003424	7.15e-05
1	323.15	0.0004524	9.6e-06
0.8999	323.15	0.0005436	1.17e-05
0.7999	323.15	0.000639	1.37e-05
0.6999	323.15	0.000778	1.67e-05
0.5999	323.15	0.0009344	2e-05
0.4999	323.15	0.0011539	2.48e-05
0.4002	323.15	0.0014153	3.03e-05
0.3004	323.15	0.0017479	3.73e-05
0.2009	323.15	0.0021177	4.52e-05
0.0998	323.15	0.0026087	5.54e-05
0	323.15	0.003067	6.41e-05
1	333.15	0.0003942	8.5e-06
0.8999	333.15	0.0004933	1.06e-05
0.7999	333.15	0.0005704	1.23e-05
0.6999	333.15	0.0006958	1.49e-05
0.5999	333.15	0.0008398	1.8e-05
0.4999	333.15	0.0010255	2.2e-05
0.4002	333.15	0.0012776	2.73e-05
0.3004	333.15	0.0015707	3.35e-05
0.2009	333.15	0.0018923	4.03e-05
0.0998	333.15	0.0023296	4.95e-05
0	333.15	0.0027192	5.7e-05

System: 1-cyclopropyl ethanone + 2-acetylbutyrolactone; phases: Liquid, Gas
Fixed: Pressure, kPa = 101.3
Property: Boiling temperature at pressure P, K (Liquid); method: Ebulliometric method (Recirculating still)
Mole fraction of 1-cyclopropyl ethanone	Boiling temperature at pressure P, K	uncertainty
1	384.8	0.3
0.9278	387.4	0.3
0.81	392.4	0.4
0.5145	411.3	0.6
0.5042	412.2	0.6
0.4197	420.4	0.7
0.3267	431.9	0.9
0.241	445.8	1.1
0.1968	454.7	1.5
0.1178	475.5	2
0.1137	476.8	2
0.1054	479.6	2
0.0998	481.5	1.8
0.0698	490.2	2.6
0.0365	508.2	3.5
0	530.9	0.3

System: 1-cyclopropyl ethanone + 2-acetylbutyrolactone; phases: Gas, Liquid
Fixed: Pressure, kPa = 101.3
Property: Mole fraction of 1-cyclopropyl ethanone (Gas); method: Chromatography
Mole fraction of 1-cyclopropyl ethanone	Mole fraction of 1-cyclopropyl ethanone	uncertainty
1	1	
0.9278	0.9947	0.0053
0.81	0.9881	0.006
0.5145	0.9757	0.007
0.5042	0.9695	0.007
0.4197	0.9645	0.006
0.3267	0.9597	0.0061
0.241	0.9266	0.0068
0.1968	0.8894	0.0096
0.1178	0.7781	0.0262
0.1137	0.7502	0.0189
0.1054	0.7257	0.0189
0.0998	0.7171	0.0152
0.0698	0.65	0.0264
0.0365	0.45	0.0566
0	0	

System: 1-cyclopropyl ethanone + 1-chloro-4-pentanone; phases: Liquid
Fixed: Pressure, kPa = 101.3
Property: Mass density, kg/m3 (Liquid); method: Pycnometric method
Mole fraction of 1-cyclopropyl ethanone	Temperature, K	Mass density, kg/m3	uncertainty
0.8999	303.15	910.5	1.1
0.7999	303.15	930.2	1.1
0.6999	303.15	948.9	1.1
0.5999	303.15	966.5	1.1
0.4999	303.15	982.8	1.1
0.4002	303.15	998	1
0.3004	303.15	1012.5	1.1
0.2009	303.15	1026.1	1.1
0.0998	303.15	1039.1	1.1
0	303.15	1051.3	1.1
0.8999	313.15	901.1	1.1
0.7999	313.15	921	1
0.6999	313.15	939.7	1.1
0.5999	313.15	957.1	1.1
0.4999	313.15	973.3	1.1
0.4002	313.15	988.5	1.1
0.3004	313.15	1002.9	1.1
0.2009	313.15	1016.3	1.1
0.0998	313.15	1029.1	1.1
0	313.15	1041.1	1.1
0.8999	323.15	891.6	1.1
0.7999	323.15	911.7	1.1
0.6999	323.15	930.4	1.1
0.5999	323.15	947.7	1.1
0.4999	323.15	963.9	1.1
0.4002	323.15	979.1	1.1
0.3004	323.15	993.4	1.1
0.2009	323.15	1006.7	1.1
0.0998	323.15	1019.4	1.1
0	323.15	1031.2	1.1
0.8999	333.15	882.4	1.2
0.7999	333.15	902.6	1.2
0.6999	333.15	921.1	1.1
0.5999	333.15	938.3	1.1
0.4999	333.15	954.4	1.1
0.4002	333.15	969.5	1.1
0.3004	333.15	983.6	1.1
0.2009	333.15	996.8	1.1
0.0998	333.15	1009.3	1.1
0	333.15	1020.8	1.1

System: 1-cyclopropyl ethanone + 1-chloro-4-pentanone; phases: Liquid
Fixed: Pressure, kPa = 101.3
Property: Viscosity, Pa*s (Liquid); method: Capillary tube (Ostwald; Ubbelohde) method
Mole fraction of 1-cyclopropyl ethanone	Temperature, K	Viscosity, Pa*s	uncertainty
0.8999	303.15	0.0007027	1.49e-05
0.7999	303.15	0.0007363	1.57e-05
0.6999	303.15	0.000839	1.77e-05
0.5999	303.15	0.0008757	1.85e-05
0.4999	303.15	0.000955	2.03e-05
0.4002	303.15	0.0010699	2.26e-05
0.3004	303.15	0.0011348	2.4e-05
0.2009	303.15	0.0012229	2.61e-05
0.0998	303.15	0.0014272	3.03e-05
0	303.15	0.0015819	3.34e-05
0.8999	313.15	0.0006216	1.32e-05
0.7999	313.15	0.0006493	1.38e-05
0.6999	313.15	0.0007366	1.56e-05
0.5999	313.15	0.0007715	1.63e-05
0.4999	313.15	0.0008296	1.76e-05
0.4002	313.15	0.0009252	1.96e-05
0.3004	313.15	0.0009766	2.07e-05
0.2009	313.15	0.0010431	2.22e-05
0.0998	313.15	0.0012103	2.57e-05
0	313.15	0.0013181	2.8e-05
0.8999	323.15	0.0005513	1.17e-05
0.7999	323.15	0.0005783	1.23e-05
0.6999	323.15	0.000649	1.38e-05
0.5999	323.15	0.0006787	1.44e-05
0.4999	323.15	0.0007322	1.55e-05
0.4002	323.15	0.0008063	1.71e-05
0.3004	323.15	0.0008507	1.8e-05
0.2009	323.15	0.0009043	1.92e-05
0.0998	323.15	0.0010297	2.18e-05
0	323.15	0.0010781	2.28e-05
0.8999	333.15	0.0004968	1.06e-05
0.7999	333.15	0.0005207	1.11e-05
0.6999	333.15	0.0005818	1.24e-05
0.5999	333.15	0.0006086	1.29e-05
0.4999	333.15	0.0006517	1.38e-05
0.4002	333.15	0.0007131	1.51e-05
0.3004	333.15	0.0007484	1.59e-05
0.2009	333.15	0.0007927	1.68e-05
0.0998	333.15	0.0008933	1.9e-05
0	333.15	0.0009667	2.04e-05
