Measured thermophysical data. Measurement and Correlation of Solubility of Resorcinol Bis(cyclic 2,2-dimethyl-1,3-propanediol phosphate) in Selected Solvents from T = 293.15 to 333.15 K
Source: J. Chem. Eng. Data, 2017, 10.1021/acs.jced.7b00695
Compound 1: resorcinol bis(cyclic 2,2-dimethyl-1,3-propanediol phosphate), C16H24O8P2, InChI=1S/C16H24O8P2/c1-15(2)9-19-25(17,20-10-15)23-13-6-5-7-14(8-13)24-26(18)21-11-16(3,4)12-22-26/h5-8H,9-12H2,1-4H3, purity 99.2%
Compound 2: N-acetyl-p-aminophenol, C8H9NO2, InChI=1S/C8H9NO2/c1-6(10)9-7-2-4-8(11)5-3-7/h2-5,11H,1H3,(H,9,10), purity 99%
Compound 3: trichloromethane, CHCl3, InChI=1S/CHCl3/c2-1(3)4/h1H, purity 99.5%
Compound 4: acetone, C3H6O, InChI=1S/C3H6O/c1-3(2)4/h1-2H3, purity 99.5%
Compound 5: toluene, C7H8, InChI=1S/C7H8/c1-7-5-3-2-4-6-7/h2-6H,1H3, purity 99.5%
Compound 6: methanol, CH4O, InChI=1S/CH4O/c1-2/h2H,1H3, purity 99.5%
Compound 7: acetonitrile, C2H3N, InChI=1S/C2H3N/c1-2-3/h1H3, purity 99%
Compound 8: ethanol, C2H6O, InChI=1S/C2H6O/c1-2-3/h3H,2H2,1H3, purity 99.7%
Compound 9: methyl ethanoate, C3H6O2, InChI=1S/C3H6O2/c1-3(4)5-2/h1-2H3, purity 98%
Compound 10: ethyl acetate, C4H8O2, InChI=1S/C4H8O2/c1-3-6-4(2)5/h3H2,1-2H3, purity 99.5%
Compound 11: 1,2-dichloroethane, C2H4Cl2, InChI=1S/C2H4Cl2/c3-1-2-4/h1-2H2, purity 99.5%
Compound 12: propan-1-ol, C3H8O, InChI=1S/C3H8O/c1-2-3-4/h4H,2-3H2,1H3, purity 99.5%
Compound 13: hexane, C6H14, InChI=1S/C6H14/c1-3-5-6-4-2/h3-6H2,1-2H3, purity 97%
Compound 14: ethyl methanoate, C3H6O2, InChI=1S/C3H6O2/c1-2-5-3-4/h3H,2H2,1H3, purity 99.8%
Compound 15: water, H2O, InChI=1S/H2O/h1H2, purity 99.8%

System: resorcinol bis(cyclic 2,2-dimethyl-1,3-propanediol phosphate); phases: Crystal, Liquid, Air at 1 atmosphere
Property: Triple point temperature, K (Crystal); method: DSC
Triple point temperature, K	uncertainty
438.53	0.77

System: resorcinol bis(cyclic 2,2-dimethyl-1,3-propanediol phosphate); phases: Crystal, Liquid, Air at 1 atmosphere
Property: Molar enthalpy of transition or fusion, kJ/mol (Crystal); method: DSC
Molar enthalpy of transition or fusion, kJ/mol	uncertainty
42.36536833814	0.89793290522

System: resorcinol bis(cyclic 2,2-dimethyl-1,3-propanediol phosphate) + acetone; phases: Liquid, Crystal
Fixed: Pressure, kPa = 100
Property: Mole fraction of resorcinol bis(cyclic 2,2-dimethyl-1,3-propanediol phosphate) (Liquid); method: gravimetric
Temperature, K	Mole fraction of resorcinol bis(cyclic 2,2-dimethyl-1,3-propanediol phosphate)	uncertainty
293.15	0.00607	0.00024
298.15	0.00796	0.00032
303.15	0.01029	0.00041
308.15	0.01308	0.00052
313.15	0.01626	0.00065
318.15	0.02013	0.00081
323.15	0.02512	0.00101

System: resorcinol bis(cyclic 2,2-dimethyl-1,3-propanediol phosphate) + methanol; phases: Liquid, Crystal
Fixed: Pressure, kPa = 100
Property: Mole fraction of resorcinol bis(cyclic 2,2-dimethyl-1,3-propanediol phosphate) (Liquid); method: gravimetric
Temperature, K	Mole fraction of resorcinol bis(cyclic 2,2-dimethyl-1,3-propanediol phosphate)	uncertainty
293.15	0.0022	9e-05
298.15	0.00357	0.00014
303.15	0.00543	0.00022
308.15	0.0085	0.00034
313.15	0.01285	0.00052
318.15	0.01871	0.00075
323.15	0.0284	0.00114

System: resorcinol bis(cyclic 2,2-dimethyl-1,3-propanediol phosphate) + trichloromethane; phases: Liquid, Crystal
Fixed: Pressure, kPa = 100
Property: Mole fraction of resorcinol bis(cyclic 2,2-dimethyl-1,3-propanediol phosphate) (Liquid); method: gravimetric
Temperature, K	Mole fraction of resorcinol bis(cyclic 2,2-dimethyl-1,3-propanediol phosphate)	uncertainty
293.15	0.06459	0.00259
298.15	0.07003	0.00281
303.15	0.07515	0.00301
308.15	0.08073	0.00323
313.15	0.08603	0.00345
318.15	0.09226	0.0037
323.15	0.09842	0.00394

System: resorcinol bis(cyclic 2,2-dimethyl-1,3-propanediol phosphate) + toluene; phases: Liquid, Crystal
Fixed: Pressure, kPa = 100
Property: Mole fraction of resorcinol bis(cyclic 2,2-dimethyl-1,3-propanediol phosphate) (Liquid); method: gravimetric
Temperature, K	Mole fraction of resorcinol bis(cyclic 2,2-dimethyl-1,3-propanediol phosphate)	uncertainty
293.15	0.00016	1e-05
298.15	0.0002	1e-05
303.15	0.00026	1e-05
308.15	0.00032	1e-05
313.15	0.0004	2e-05
318.15	0.00049	2e-05
323.15	0.00061	3e-05
328.15	0.00076	3e-05
333.15	0.0009	4e-05

System: resorcinol bis(cyclic 2,2-dimethyl-1,3-propanediol phosphate) + acetonitrile; phases: Liquid, Crystal
Fixed: Pressure, kPa = 100
Property: Mole fraction of resorcinol bis(cyclic 2,2-dimethyl-1,3-propanediol phosphate) (Liquid); method: gravimetric
Temperature, K	Mole fraction of resorcinol bis(cyclic 2,2-dimethyl-1,3-propanediol phosphate)	uncertainty
293.15	0.0102	0.00041
298.15	0.0127	0.00051
303.15	0.01534	0.00062
308.15	0.01913	0.00077
313.15	0.02314	0.00093
318.15	0.02792	0.00112
323.15	0.03419	0.00137
328.15	0.04051	0.00162
333.15	0.04913	0.00197

System: resorcinol bis(cyclic 2,2-dimethyl-1,3-propanediol phosphate) + ethanol; phases: Liquid, Crystal
Fixed: Pressure, kPa = 100
Property: Mole fraction of resorcinol bis(cyclic 2,2-dimethyl-1,3-propanediol phosphate) (Liquid); method: gravimetric
Temperature, K	Mole fraction of resorcinol bis(cyclic 2,2-dimethyl-1,3-propanediol phosphate)	uncertainty
293.15	0.00179	7e-05
298.15	0.0024	0.0001
303.15	0.00313	0.00013
308.15	0.00413	0.00017
313.15	0.00541	0.00022
318.15	0.00702	0.00028
323.15	0.00902	0.00036
328.15	0.01179	0.00047
333.15	0.01507	0.0006

System: resorcinol bis(cyclic 2,2-dimethyl-1,3-propanediol phosphate) + ethyl acetate; phases: Liquid, Crystal
Fixed: Pressure, kPa = 100
Property: Mole fraction of resorcinol bis(cyclic 2,2-dimethyl-1,3-propanediol phosphate) (Liquid); method: gravimetric
Temperature, K	Mole fraction of resorcinol bis(cyclic 2,2-dimethyl-1,3-propanediol phosphate)	uncertainty
293.15	0.0008	3e-05
298.15	0.00099	4e-05
303.15	0.00123	5e-05
308.15	0.00154	6e-05
313.15	0.00189	8e-05
318.15	0.00233	9e-05
323.15	0.00284	0.00011
328.15	0.00348	0.00014
333.15	0.0042	0.00017

System: resorcinol bis(cyclic 2,2-dimethyl-1,3-propanediol phosphate) + methyl ethanoate; phases: Liquid, Crystal
Fixed: Pressure, kPa = 100
Property: Mole fraction of resorcinol bis(cyclic 2,2-dimethyl-1,3-propanediol phosphate) (Liquid); method: gravimetric
Temperature, K	Mole fraction of resorcinol bis(cyclic 2,2-dimethyl-1,3-propanediol phosphate)	uncertainty
293.15	0.00229	9e-05
298.15	0.00281	0.00011
303.15	0.00347	0.00014
308.15	0.00422	0.00017
313.15	0.00511	0.0002
318.15	0.0062	0.00025
323.15	0.00745	0.0003

System: resorcinol bis(cyclic 2,2-dimethyl-1,3-propanediol phosphate) + 1,2-dichloroethane; phases: Liquid, Crystal
Fixed: Pressure, kPa = 100
Property: Mole fraction of resorcinol bis(cyclic 2,2-dimethyl-1,3-propanediol phosphate) (Liquid); method: gravimetric
Temperature, K	Mole fraction of resorcinol bis(cyclic 2,2-dimethyl-1,3-propanediol phosphate)	uncertainty
293.15	0.01698	0.00068
298.15	0.01995	0.0008
303.15	0.0233	0.00093
308.15	0.02728	0.00109
313.15	0.03168	0.00127
318.15	0.03656	0.00147
323.15	0.04234	0.0017
328.15	0.04905	0.00197
333.15	0.05643	0.00226

System: resorcinol bis(cyclic 2,2-dimethyl-1,3-propanediol phosphate) + propan-1-ol; phases: Liquid, Crystal
Fixed: Pressure, kPa = 100
Property: Mole fraction of resorcinol bis(cyclic 2,2-dimethyl-1,3-propanediol phosphate) (Liquid); method: gravimetric
Temperature, K	Mole fraction of resorcinol bis(cyclic 2,2-dimethyl-1,3-propanediol phosphate)	uncertainty
293.15	0.00096	4e-05
298.15	0.00135	5e-05
303.15	0.00187	8e-05
308.15	0.0026	0.0001
313.15	0.00356	0.00014
318.15	0.00495	0.0002
323.15	0.00658	0.00026
328.15	0.00899	0.00036
333.15	0.01181	0.00047

System: resorcinol bis(cyclic 2,2-dimethyl-1,3-propanediol phosphate) + hexane; phases: Liquid, Crystal
Fixed: Pressure, kPa = 100
Property: Mole fraction of resorcinol bis(cyclic 2,2-dimethyl-1,3-propanediol phosphate) (Liquid); method: gravimetric
Temperature, K	Mole fraction of resorcinol bis(cyclic 2,2-dimethyl-1,3-propanediol phosphate)	uncertainty
293.15	1e-05	1e-05
298.15	2e-05	1e-05
303.15	2e-05	1e-05
308.15	4e-05	1e-05
313.15	6e-05	1e-05
318.15	8e-05	1e-05
323.15	0.00012	1e-05

System: resorcinol bis(cyclic 2,2-dimethyl-1,3-propanediol phosphate) + ethyl methanoate; phases: Liquid, Crystal
Fixed: Pressure, kPa = 100
Property: Mole fraction of resorcinol bis(cyclic 2,2-dimethyl-1,3-propanediol phosphate) (Liquid); method: gravimetric
Temperature, K	Mole fraction of resorcinol bis(cyclic 2,2-dimethyl-1,3-propanediol phosphate)	uncertainty
293.15	0.00422	0.00017
298.15	0.00508	0.0002
303.15	0.00607	0.00024
308.15	0.00713	0.00029
313.15	0.00842	0.00034
318.15	0.00988	0.0004
323.15	0.0116	0.00046

System: N-acetyl-p-aminophenol + water; phases: Liquid, Crystal
Fixed: Pressure, kPa = 100
Property: Mole fraction of N-acetyl-p-aminophenol (Liquid); method: gravimetric
Temperature, K	Mole fraction of N-acetyl-p-aminophenol	uncertainty
273.15	0.000855	3.4e-05
278.15	0.00098	3.9e-05
283.15	0.001118	4.5e-05
288.15	0.00131	5.2e-05
293.15	0.00151	6.1e-05
298.15	0.00179	7.2e-05
303.15	0.00208	8.3e-05
308.15	0.002546	0.000102
313.15	0.00313	0.000125
