Measured thermophysical data. Accurate p-.rho.-T Data for a Synthetic Residual Natural Gas Mixture (0.95 CH4 + 0.04 C2H6 + 0.01 C3H8) at Temperatures between (135 and 500) K at Pressures to 200 MPa
Source: J. Chem. Eng. Data, 2016, 10.1021/acs.jced.6b00137
Compound 1: methane, CH4, InChI=1S/CH4/h1H4, purity 99.9%
Compound 2: ethane, C2H6, InChI=1S/C2H6/c1-2/h1-2H3, purity 99.9%
Compound 3: propane, C3H8, InChI=1S/C3H8/c1-3-2/h3H2,1-2H3, purity 99.9%

System: methane + ethane + propane; phases: Gas
Fixed: Mole fraction of methane = 0.95039
Fixed: Mole fraction of ethane = 0.03961
Property: Mass density, kg/m3 (Gas); method: Buoyancy - hydrostatic balance with magnetic suspension - one sinker
Temperature, K	Pressure, kPa	Mass density, kg/m3	uncertainty
350	1006	5.891	0.114
375	1026	5.591	0.11
350	2023	11.983	0.112
400	2054	10.539	0.109
350	4998	30.47	0.112
300	4999	37.306	0.121
325	5000	33.485	0.117
400	5009	26.058	0.109
375	5017	28.131	0.11
350	7495	46.652	0.113
300	7503	58.646	0.123
325	10000	70.876	0.118
300	10002	81.394	0.125
375	10019	57.578	0.111
350	10021	63.431	0.114
400	10024	52.951	0.109
400	12499	66.231	0.109
325	12500	90.289	0.119
300	12505	104.869	0.13
375	12508	72.366	0.111
350	12526	80.209	0.114
375	14970	86.847	0.112
300	14999	127.822	0.149
325	15006	109.585	0.127
400	15018	79.591	0.11
350	15025	96.805	0.114
400	17495	92.444	0.109
325	17507	128.112	0.143
300	17508	149.468	0.166
375	17509	101.434	0.113
350	17544	113.084	0.126
300	19995	168.813	0.183
325	19996	145.414	0.161
375	20011	115.297	0.126
350	20021	128.379	0.141
400	20025	105.175	0.113
300	29984	225.81	0.232
400	30033	150.277	0.156
375	30035	163.982	0.17
325	30059	201.282	0.208
350	30062	180.758	0.187
300	39987	261.352	0.266
325	40015	238.616	0.275
350	40025	218.503	0.258
400	40031	186.306	0.229
375	40061	201.33	0.23
300	49935	286.23	0.303
350	49958	246.513	0.27
325	49963	265.488	0.286
400	49997	214.747	0.241
300	59928	305.314	0.316
350	59953	268.419	0.281
375	59976	252.342	0.27
400	59979	237.723	0.253
325	59992	286.267	0.298
300	79952	333.809	0.342
325	79963	317.017	0.326
350	80013	301.223	0.311
375	80023	286.582	0.297
400	80040	272.978	0.284
375	99910	311.732	0.319
300	99947	354.975	0.362
325	99953	339.762	0.347
350	99973	325.311	0.332
400	100082	299.242	0.307
300	119913	371.914	0.378
375	119931	331.832	0.338
325	119937	357.863	0.364
350	119974	344.476	0.351
400	120026	320.036	0.327
325	139769	372.872	0.379
400	139961	337.257	0.343
300	139983	386.188	0.392
375	140002	348.536	0.355
350	140057	360.457	0.366
300	149800	392.43	0.398
350	149839	367.377	0.373
325	149914	379.699	0.386
400	150019	344.956	0.351
300	159850	398.411	0.404
325	159898	385.959	0.392
350	159954	374.043	0.38
300	179730	409.211	0.415
350	179786	385.932	0.392
325	179838	397.373	0.403
350	199260	396.37	0.402
300	199494	418.862	0.425

System: methane + ethane + propane; phases: Gas
Fixed: Mole fraction of methane = 0.95039
Fixed: Mole fraction of ethane = 0.03961
Property: Mass density, kg/m3 (Gas); method: ISOCHOR
Temperature, K	Pressure, kPa	Mass density, kg/m3	uncertainty
150	46673	433.17	2.606
150	15612	401.402	2.411
160	58336	431.833	2.603
160	24230	399.427	2.399
160	10359	376.726	2.263
170	69828	430.641	2.602
170	32998	397.835	2.391
170	17926	374.758	2.252
180	81107	429.544	2.605
180	41844	396.516	2.384
180	24878	373.144	2.243
190	92171	428.512	2.611
190	50644	395.368	2.38
190	32061	371.77	2.236
200	103186	427.523	2.62
200	59332	394.332	2.377
200	39369	370.585	2.247
200	6517	256.083	1.57
205	5806	174.141	1.088
205	3088	39.737	0.261
210	67890	393.371	2.376
210	46602	369.54	2.252
210	113535	426.588	2.632
210	9558	255.154	1.559
210	6534	174.079	1.07
210	3737	49.562	0.302
210	3193	39.725	0.241
210.01	2402	27.761	0.168
215	3340	39.712	0.239
220	76296	392.465	2.377
220	123882	425.676	2.647
220	53767	368.587	2.259
220	12599	254.209	1.554
220	8109	173.951	1.064
220	6193	100.43	0.632
220	4029	49.531	0.306
220	3455	39.7	0.241
220	2561	27.744	0.168
230	84574	391.599	2.379
230	134009	424.789	2.664
230	60808	367.702	2.269
230	15612	253.281	1.552
230	9666	173.824	1.059
230	6953	100.362	0.622
230	4336	49.5	0.304
230	3663	39.676	0.242
240	67751	366.865	2.283
240	143910	423.923	2.684
240	18583	252.396	1.551
240	11229	173.696	1.058
240	7691	100.295	0.619
240	4644	49.469	0.301
240	3891	39.651	0.241
240	2874	27.71	0.168
240	92716	390.765	2.383
250	74622	366.063	2.298
250	21523	251.568	1.55
250	12795	173.569	1.058
250	8413	100.228	0.617
250	153629	423.076	2.707
250	4944	49.437	0.301
250	4122	39.627	0.241
250	100712	389.956	2.388
259.99	163152	422.245	2.732
260	81090	365.303	2.316
260	24432	250.798	1.551
260	14361	173.441	1.058
260	9136	100.16	0.616
260	5243	49.406	0.3
260	108572	389.17	2.394
260	4353	39.602	0.24
260	3182	27.677	0.168
263.06	166346	421.984	2.726
270	27306	250.082	1.553
270	15914	173.315	1.058
270	9863	100.093	0.615
270	88411	364.53	2.339
270	116283	388.401	2.402
270	5549	49.375	0.3
270	172833	421.418	2.758
270	4585	39.578	0.24
270	3336	27.66	0.168
275	177422	421.015	2.766
275	91387	364.176	2.335
280	30162	249.412	1.555
280	95010	363.801	2.363
280	17471	173.19	1.059
280	123913	387.647	2.419
280	10559	100.027	0.614
280	5841	49.344	0.3
280	182090	420.612	2.787
280	4812	39.553	0.24
280	3489	27.643	0.168
285	186633	420.213	2.816
290	32993	248.781	1.559
290	131404	386.906	2.419
290	19023	173.065	1.059
290	191147	419.817	2.818
290	11268	99.96	0.614
290	6130	49.314	0.3
290	101518	363.089	2.386
290	5038	39.529	0.24
290	3639	27.626	0.167
295	195624	419.424	2.852
300	20567	172.942	1.062
300	107927	362.392	2.412
300	11962	99.894	0.613
300	138909	386.174	2.431
300	6421	49.283	0.3
300	5262	39.505	0.24
300	199871	419.037	2.854
300	3788	27.609	0.167
300	35793	248.183	1.562

System: methane + ethane + propane; phases: Gas
Fixed: Mole fraction of methane = 0.95039
Fixed: Mole fraction of ethane = 0.03961
Property: Mass density, kg/m3 (Gas); method: ISOCHOR
Temperature, K	Pressure, kPa	Mass density, kg/m3	uncertainty
300	20567	172.942	0.411
300	107927	362.392	0.931
300	11962	99.894	0.238
300	138909	386.174	1.076
300	6421	49.283	0.112
300	5262	39.505	0.107
300	199871	419.037	1.595
300	3788	27.609	0.103
300	35793	248.183	0.685
305.15	3868	27.601	0.103
310	12677	99.827	0.243
310	6717	49.252	0.112
310	5490	39.48	0.107
310	81228	328.903	1.354
310	113859	361.719	1.025
310	3939	27.593	0.103
310	146102	385.458	1.264
320	13376	99.761	0.244
320	7008	49.221	0.112
320	5715	39.456	0.107
320	153255	384.749	1.314
320	120066	361.046	1.067
320	4084	27.576	0.103
320	86267	328.27	1.417
325	123137	360.713	1.14
325	156694	384.4	1.347
330	126204	360.382	1.115
330	7297	49.19	0.112
330	5938	39.431	0.107
330	14074	99.694	0.246
330	91252	327.649	1.538
330	160301	384.049	1.374
330.01	4214	27.56	0.103
340	7584	49.16	0.112
340	96175	327.039	1.543
340	6161	39.407	0.107
340	132236	359.727	1.143
340	14766	99.629	0.247
340	167260	383.356	1.418
340	4384	27.543	0.103
350	7871	49.129	0.113
350	15446	99.563	0.249
350	101041	326.439	1.605
350	174109	382.671	1.47
350	6383	39.383	0.107
350	138193	359.081	1.183
350	4534	27.526	0.103
360	144085	358.441	1.223
360	6605	39.359	0.107
360	16116	99.498	0.25
360	105850	325.848	1.667
360	8126	49.099	0.113
360	4682	27.509	0.103
360	180858	381.993	1.524
370	149924	357.808	1.265
370	6825	39.334	0.107
370	187502	381.321	1.578
370	8444	49.068	0.113
370	4822	27.493	0.103
370	110611	325.264	1.729
370	16791	99.434	0.252
375	190822	380.986	1.646
380	7044	39.31	0.107
380	194055	380.655	1.641
380	8727	49.037	0.113
380	17461	99.369	0.254
380	155672	357.181	1.332
380	115312	324.688	1.789
390	7263	39.286	0.107
390	18128	99.305	0.256
390	9010	49.007	0.114
390	119962	324.118	1.85
390	200509	379.994	1.702
390	161350	356.56	1.348
400	9291	48.976	0.114
400	166951	355.945	1.521
400	18790	99.241	0.257
400	124565	323.554	1.91
400	7481	39.262	0.108
410	9527	48.947	0.114
410	172351	355.337	1.571
410	129127	322.995	2.038
410	7699	39.238	0.108
420	20120	99.115	0.263
420	133630	322.442	2.03
420	7916	39.214	0.108
420	9850	48.915	0.115
420	177828	354.731	1.618
430	8133	39.19	0.108
430	183199	354.131	1.666
430	138102	321.893	1.917
430	10128	48.885	0.115
440	188558	353.533	1.712
440	142519	321.348	1.803
440	10406	48.855	0.115
440	8348	39.166	0.108
450	10683	48.825	0.115
450	193800	352.941	1.76
450	8562	39.142	0.108
450	146879	320.809	2.462
460	8777	39.118	0.102
470	8990	39.094	0.102
480	9202	39.07	0.102
490	9414	39.046	0.103
500	9625	39.023	0.103
