Measured thermophysical data. Physico-chemical Properties of the (LiF + CaF2)eut + LaF3 System: Phase Equilibria, Volume Properties, Electrical Conductivity and Surface Tension
Source: J. Chem. Eng. Data, 2016, 10.1021/acs.jced.5b00536
Compound 1: lithium fluoride, FLi, InChI=1S/FH.Li/h1H;/q;+1/p-1, purity 99%
Compound 2: calcium fluoride, CaF2, InChI=1S/Ca.2FH/h;2*1H/q+2;;/p-2, purity 99%
Compound 3: lanthanum trifluoride, F3La, InChI=1S/3FH.La/h3*1H;/q;;;+3/p-3, purity 99.9%

System: lithium fluoride + calcium fluoride + lanthanum trifluoride; phases: Liquid
Fixed: Pressure, kPa = 100
Property: Mass density, kg/m3 (Liquid); method: Buoyancy - hydrostatic balance
Temperature, K	Mole fraction of lithium fluoride	Mole fraction of calcium fluoride	Mass density, kg/m3	uncertainty
1203.69	0.79	0.21	2019.6	36.4
1203.4	0.79	0.21	2020.1	36.6
1203.05	0.79	0.21	2020.2	36.6
1202.54	0.79	0.21	2020.8	36.5
1202.29	0.79	0.21	2020.8	35.6
1202.08	0.79	0.21	2022	36
1201.63	0.79	0.21	2022.6	36.7
1201.19	0.79	0.21	2023.2	36.7
1200.84	0.79	0.21	2023.2	36.2
1200.57	0.79	0.21	2023.8	36
1200.02	0.79	0.21	2024.4	37
1199.64	0.79	0.21	2024.4	38.1
1199.32	0.79	0.21	2025	38.1
1198.81	0.79	0.21	2025.1	38
1198.34	0.79	0.21	2025.7	38.1
1197.56	0.79	0.21	2026.3	37.7
1197.09	0.79	0.21	2026.4	37.5
1196.4	0.79	0.21	2027	37.6
1195.96	0.79	0.21	2027.1	37.6
1195.67	0.79	0.21	2027.7	37.4
1195.3	0.79	0.21	2028.3	37.4
1194.72	0.79	0.21	2028.3	37.4
1194.54	0.79	0.21	2028.9	37.5
1194.4	0.79	0.21	2029.5	37.3
1194.11	0.79	0.21	2029.5	37.3
1193.73	0.79	0.21	2030.1	37.4
1193.2	0.79	0.21	2030.7	37.3
1192.87	0.79	0.21	2030.7	37.3
1192.38	0.79	0.21	2031.4	37.1
1191.64	0.79	0.21	2032	37.1
1190.83	0.79	0.21	2032.6	37.1
1190.15	0.79	0.21	2032.7	36.9
1189.93	0.79	0.21	2033.3	37
1189.38	0.79	0.21	2033.9	36.9
1189.09	0.79	0.21	2033.9	36.9
1188.37	0.79	0.21	2034.6	36.8
1187.82	0.79	0.21	2035.2	37
1186.98	0.79	0.21	2035.3	36.8
1186.63	0.79	0.21	2035.9	36.7
1185.82	0.79	0.21	2036.5	36.6
1184.47	0.79	0.21	2033.9	37
1184.13	0.79	0.21	2034	36.8
1183.89	0.79	0.21	2034.6	36.9
1183.21	0.79	0.21	2034.6	36.7
1182.75	0.79	0.21	2035.2	36.8
1182.52	0.79	0.21	2035.8	36.7
1182.22	0.79	0.21	2035.9	36.6
1181.58	0.79	0.21	2036.5	36.7
1181.17	0.79	0.21	2037.1	36.7
1181.01	0.79	0.21	2037.1	36.7
1180.79	0.79	0.21	2037.7	36.7
1180.47	0.79	0.21	2038.3	36.6
1180.53	0.79	0.21	2038.8	36.6
1180.54	0.79	0.21	2038.8	36.6
1180.29	0.79	0.21	2039.4	37
1179.65	0.79	0.21	2040	36.9
1179.39	0.79	0.21	2040	37
1178.4	0.79	0.21	2040.7	36.9
1177.51	0.79	0.21	2041.4	36.9
1177.13	0.79	0.21	2042	36.8
1176.34	0.79	0.21	2042.1	36.6
1176.02	0.79	0.21	2042.7	36.5
1175.41	0.79	0.21	2043.3	36.3
1174.87	0.79	0.21	2043.9	36.4
1173.79	0.79	0.21	2038.5	36.9
1173.6	0.79	0.21	2039.1	36.9
1173.32	0.79	0.21	2039.1	36.7
1173.2	0.79	0.21	2039.7	36.7
1172.92	0.79	0.21	2040.3	36.6
1172.22	0.79	0.21	2040.9	36.6
1171.88	0.79	0.21	2040.9	36.5
1171.47	0.79	0.21	2041.5	36.6
1171.15	0.79	0.21	2042.1	36.4
1170.58	0.79	0.21	2042.7	36.4
1170.11	0.79	0.21	2042.8	36.4
1169.94	0.79	0.21	2043.4	36.5
1169.33	0.79	0.21	2044	37.2
1168.82	0.79	0.21	2044.6	36.9
1168.98	0.79	0.21	2044.6	36.9
1168.55	0.79	0.21	2045.2	37
1167.93	0.79	0.21	2045.3	37
1167.68	0.79	0.21	2045.8	36.9
1167.25	0.79	0.21	2046.4	36.9
1166.52	0.79	0.21	2046.5	36.7
1166.24	0.79	0.21	2047.1	36.8
1165.37	0.79	0.21	2047.8	36.8
1165.07	0.79	0.21	2048.4	36.6
1164.88	0.79	0.21	2048.4	36.6
1164.66	0.79	0.21	2048.4	36.6
1164.33	0.79	0.21	2044.6	36.9
1163.56	0.79	0.21	2044.7	36.8
1163.24	0.79	0.21	2045.3	36.8
1162.79	0.79	0.21	2045.9	36.9
1161.91	0.79	0.21	2046	36.7
1161.3	0.79	0.21	2046.6	36.6
1161.32	0.79	0.21	2046.6	36.6
1160.17	0.79	0.21	2047.3	37.1
1159.94	0.79	0.21	2047.9	37.2
1159.1	0.79	0.21	2048.5	37.1
1159.05	0.79	0.21	2048.5	37.1
1158.76	0.79	0.21	2049.1	37
1157.67	0.79	0.21	2049.8	37
1157.45	0.79	0.21	2050.4	37.1
1157.11	0.79	0.21	2050.4	36.8
1156.56	0.79	0.21	2049.9	37.2
1156.54	0.79	0.21	2050.5	37.1
1156.59	0.79	0.21	2051	37.1
1155.94	0.79	0.21	2051.1	37
1155.63	0.79	0.21	2051.7	36.6
1155.47	0.79	0.21	2051.7	36.8
1154.82	0.79	0.21	2052.3	36.8
1154.79	0.79	0.21	2052.9	36.8
1154.59	0.79	0.21	2053.5	36.6
1154.11	0.79	0.21	2053.5	36.6
1153.81	0.79	0.21	2054.1	36.7
1152.94	0.79	0.21	2054.8	36.5
1152.6	0.79	0.21	2055.4	36.5
1152.03	0.79	0.21	2055.4	36.6
1151.4	0.79	0.21	2056.1	36.2
1150.75	0.79	0.21	2056.7	36.2
1150.27	0.79	0.21	2056.7	36.1
1149.66	0.79	0.21	2057.4	36.4
1149.04	0.79	0.21	2058	36.4
1148.89	0.79	0.21	2058	36.2
1148.57	0.79	0.21	2058.6	36.2
1148.01	0.79	0.21	2059.2	36.3
1147.85	0.79	0.21	2059.2	36.3
1147.54	0.79	0.21	2059.8	36.3
1146.86	0.79	0.21	2060.5	36.1
1146.5	0.79	0.21	2061.1	36
1145.99	0.79	0.21	2061.1	36
1145.54	0.79	0.21	2052.9	36.7
1145.23	0.79	0.21	2053.5	36.9
1144.72	0.79	0.21	2053.5	36.6
1144.41	0.79	0.21	2054.1	36.5
1144.22	0.79	0.21	2054.7	36.5
1143.47	0.79	0.21	2054.8	36.5
1143.37	0.79	0.21	2055.4	36.6
1142.69	0.79	0.21	2056	36.3
1142.04	0.79	0.21	2056.6	36.3
1141.41	0.79	0.21	2056.7	37.4
1141.14	0.79	0.21	2057.3	37.3
1140.85	0.79	0.21	2057.9	37.4
1140.37	0.79	0.21	2058.5	37.2
1139.95	0.79	0.21	2059.1	37.2
1139.26	0.79	0.21	2059.2	37.3
1138.65	0.79	0.21	2059.8	37.1
1138.25	0.79	0.21	2060.4	37.1
1137.79	0.79	0.21	2061	37.1
1137.49	0.79	0.21	2061.6	37.2
1137.17	0.79	0.21	2060	37.3
1136.75	0.79	0.21	2060.6	37.1
1136.55	0.79	0.21	2060.6	37
1136.93	0.79	0.21	2061.1	37
1136.24	0.79	0.21	2061.7	37.1
1135.67	0.79	0.21	2062.4	37.1
1135.3	0.79	0.21	2062.4	37.3
1135.3	0.79	0.21	2063	37.2
1135.05	0.79	0.21	2063.5	37.2
1134.2	0.79	0.21	2064.2	37.9
1134.12	0.79	0.21	2064.2	37.9
1133.34	0.79	0.21	2064.9	38.3
1132.74	0.79	0.21	2065.5	37.7
1132.82	0.79	0.21	2066	37.7
1131.93	0.79	0.21	2066.7	38.2
1131.4	0.79	0.21	2066.7	38.1
1131.01	0.79	0.21	2067.3	38.2
1130.29	0.79	0.21	2068	39
1130.17	0.79	0.21	2068.5	39.2
1129.83	0.79	0.21	2069.1	2173.3
1128.87	0.79	0.21	2069.8	2172.7
1128.81	0.79	0.21	2059.9	2266
1128.4	0.79	0.21	2059.9	2260.4
1127.92	0.79	0.21	2060.5	2239.5
1127.89	0.79	0.21	2061.1	2233.2
1127.46	0.79	0.21	2061.1	2247.7
1126.72	0.79	0.21	2061.8	2231.5
1126.26	0.79	0.21	2062.4	2231.2
1126.18	0.79	0.21	2062.9	2220.8
1125.99	0.79	0.21	2063.5	2208
1125.1	0.79	0.21	2063.6	2192.9
1124.79	0.79	0.21	2064.2	2337.4
1124.42	0.79	0.21	2064.8	2335.4
1123.67	0.79	0.21	2065.5	2307.4
1123.31	0.79	0.21	2066.1	2313.8
1123.29	0.79	0.21	2066.6	2308.8
1122.54	0.79	0.21	2066.7	2292.8
1122.2	0.79	0.21	2067.3	2274.5
1121.74	0.79	0.21	2067.9	2330.7
1121.22	0.79	0.21	2068.5	2321.6
1121.04	0.79	0.21	2069.1	2315
1120.49	0.79	0.21	2065.8	2354.8
1120.13	0.79	0.21	2065.9	2341.2
1119.71	0.79	0.21	2066.5	2326.2
1119.36	0.79	0.21	2067.1	2332.1
1118.96	0.79	0.21	2067.7	2314.5
1118.76	0.79	0.21	2067.7	2302.7
1118.43	0.79	0.21	2068.3	2309.3
1118.02	0.79	0.21	2068.9	2293
1117.48	0.79	0.21	2063.4	2343.9
1117.03	0.79	0.21	2064	2319.7
1116.67	0.79	0.21	2064.6	2309.9
1116.23	0.79	0.21	2064.7	2359.3
1115.87	0.79	0.21	2065.3	2356.4
1115.73	0.79	0.21	2065.9	2349.6
1115.44	0.79	0.21	2066.4	2339.6
1114.87	0.79	0.21	2066.5	2327.6
1114.68	0.79	0.21	2067.1	2324.2
1114.73	0.79	0.21	2067.6	2318.9
1114.32	0.79	0.21	2068.2	2307.4
1114.22	0.79	0.21	2068.3	2306.5
1113.47	0.79	0.21	2068.9	2451.4
1113	0.79	0.21	2069.5	2462.1
1112.79	0.79	0.21	2069.5	2461.8
1112.27	0.79	0.21	2070.1	2459.5
1111.76	0.79	0.21	2070.8	20.1
1111.56	0.79	0.21	2071.3	19.8
1111.19	0.79	0.21	2071.9	19.7
1110.57	0.79	0.21	2072	19.9
1110.34	0.79	0.21	2073.1	19.8
1110.01	0.79	0.21	2073.2	19.7
1109.46	0.79	0.21	2073.8	19.8
1109.13	0.79	0.21	2074.4	19.7
1108.81	0.79	0.21	2076.1	19.7
1108.5	0.79	0.21	2076.1	19.8
1107.93	0.79	0.21	2076.8	19.9
1107.57	0.79	0.21	2077.4	19.8
1106.98	0.79	0.21	2077.4	19.7
1106.6	0.79	0.21	2078	19.7
1106.35	0.79	0.21	2078.6	19.9
1105.74	0.79	0.21	2079.2	19.7
1105.5	0.79	0.21	2079.3	19.7
1105.2	0.79	0.21	2079.9	19.7
1104.6	0.79	0.21	2080.5	19.4
1104.16	0.79	0.21	2081.1	19.4
1103.77	0.79	0.21	2081.7	19.4
1103.24	0.79	0.21	2082.3	19.4
1102.92	0.79	0.21	2082.4	19.5
1102.62	0.79	0.21	2082.9	19.6
1102.1	0.79	0.21	2083.6	19.5
1101.79	0.79	0.21	2084.1	19.5
1101.46	0.79	0.21	2084.2	19.5
1101.03	0.79	0.21	2084.8	19.5
1100.66	0.79	0.21	2085.4	19.5
1100.2	0.79	0.21	2086	19.7
1099.89	0.79	0.21	2086	19.7
1099.45	0.79	0.21	2086.6	19.5
1099.09	0.79	0.21	2087.2	19.5
1098.76	0.79	0.21	2087.3	19
1098.42	0.79	0.21	2087.9	19
1098.03	0.79	0.21	2088.5	18.9
1097.61	0.79	0.21	2089.1	18.7
1097.33	0.79	0.21	2089.1	18.8
1096.93	0.79	0.21	2089.7	18.8
1096.65	0.79	0.21	2090.3	18.8
1096.29	0.79	0.21	2090.9	18.8
1096.22	0.79	0.21	2090.9	18.8
1096.28	0.79	0.21	2091.5	18.8
1095.51	0.79	0.21	2092.1	18.9
1095.04	0.79	0.21	2092.2	18.3
1094.76	0.79	0.21	2092.8	18.3
1094.36	0.79	0.21	2090.6	18.3
1094.07	0.79	0.21	2090.6	18.3
1093.77	0.79	0.21	2091.2	18.1
1093.13	0.79	0.21	2091.3	18.3
1092.81	0.79	0.21	2091.9	18.1
1092.81	0.79	0.21	2092.4	18.1
1091.92	0.79	0.21	2093.1	18
1091.73	0.79	0.21	2093.7	18.1
1091.21	0.79	0.21	2093.7	17.9
1090.82	0.79	0.21	2092.1	18
1090.55	0.79	0.21	2092.2	17.9
1090	0.79	0.21	2092.8	18.6
1089.55	0.79	0.21	2092.8	18.5
1089.28	0.79	0.21	2093.4	18.6
1088.85	0.79	0.21	2094	18.6
1088.58	0.79	0.21	2094.1	18.5
1088.17	0.79	0.21	2094.7	18.6
1087.75	0.79	0.21	2094.7	18.5
1087.19	0.79	0.21	2095.3	18.5
1086.89	0.79	0.21	2095.9	18.5
1086.38	0.79	0.21	2096	19.1
1086.11	0.79	0.21	2096.6	19.1
1085.89	0.79	0.21	2096.6	19.2
1085.54	0.79	0.21	2097.2	19.2
1085	0.79	0.21	2097.8	19.1
1084.54	0.79	0.21	2097.9	19.2
1084.27	0.79	0.21	2098.5	19.2
1083.84	0.79	0.21	2098.5	19.2
1083.63	0.79	0.21	2099.1	19.3
1083.45	0.79	0.21	2099.1	19.3
1082.91	0.79	0.21	2099.7	19.3
1082.39	0.79	0.21	2099.8	19.1
1082.02	0.79	0.21	2100.4	19.2
1081.82	0.79	0.21	2101	19.2
1081.43	0.79	0.21	2101	19.3
1081.06	0.79	0.21	2101.6	19.2
1080.67	0.79	0.21	2101.7	19.2
1080.31	0.79	0.21	2102.3	19.3
1080.04	0.79	0.21	2102.9	19.3
1079.85	0.79	0.21	2102.9	19.4
1079.38	0.79	0.21	2103.5	19.4
1079.07	0.79	0.21	2103.5	19.2
1078.72	0.79	0.21	2104.1	19.3
1078.38	0.79	0.21	2104.2	19.4
1077.98	0.79	0.21	2104.8	19.4
1077.7	0.79	0.21	2104.8	19
1077.48	0.79	0.21	2105.4	19.2
1077.12	0.79	0.21	2106	19.6
1076.83	0.79	0.21	2106	19.3
1076.73	0.79	0.21	2106.6	19.6
1076.24	0.79	0.21	2106.7	19.4
1075.92	0.79	0.21	2107.3	19.3
1076.19	0.79	0.21	2107.8	20
1075.67	0.79	0.21	2107.8	19.6
1233.08	0.786	0.209	2115.7	18.6
1232.75	0.786	0.209	2115.7	18.7
1232.81	0.786	0.209	2115.7	18.7
1232.48	0.786	0.209	2115.7	18.7
1232.3	0.786	0.209	2115.8	18.7
1232.11	0.786	0.209	2115.8	18.7
1231.89	0.786	0.209	2115.8	18.7
1231.72	0.786	0.209	2115.8	18.8
1231.53	0.786	0.209	2116.4	18.7
1231.27	0.786	0.209	2116.4	18.7
1230.9	0.786	0.209	2116.5	18.6
1230.71	0.786	0.209	2116.5	18.7
1230.46	0.786	0.209	2116.5	18.7
1230.14	0.786	0.209	2117.1	18.6
1229.83	0.786	0.209	2117.1	18.6
1229.63	0.786	0.209	2117.1	18.6
1229.26	0.786	0.209	2117.2	18.7
1229.03	0.786	0.209	2117.2	18.6
1228.72	0.786	0.209	2117.8	18.6
1228.42	0.786	0.209	2117.8	18.6
1228.13	0.786	0.209	2117.8	18.6
1227.72	0.786	0.209	2117.9	18.7
1227.38	0.786	0.209	2118.4	18.6
1227.09	0.786	0.209	2118.5	18.6
1226.65	0.786	0.209	2118.5	18.6
1226.39	0.786	0.209	2118.5	18.7
1225.97	0.786	0.209	2119.1	18.6
1225.7	0.786	0.209	2119.2	18.6
1225.27	0.786	0.209	2119.2	18.6
1224.9	0.786	0.209	2119.2	18.7
1224.64	0.786	0.209	2119.8	18.5
1224.21	0.786	0.209	2119.9	18.5
1223.85	0.786	0.209	2119.9	18.5
1223.55	0.786	0.209	2119.9	18.5
1223.12	0.786	0.209	2120.5	18.5
1222.67	0.786	0.209	2120.6	18.5
1222.35	0.786	0.209	2120.6	18.5
1221.91	0.786	0.209	2120.6	18.5
1221.53	0.786	0.209	2121.2	18.5
1221.13	0.786	0.209	2121.3	18.5
1220.52	0.786	0.209	2121.3	18.5
1220.36	0.786	0.209	2121.9	18.4
1219.89	0.786	0.209	2121.9	18.4
1219.45	0.786	0.209	2122	18.5
1219.05	0.786	0.209	2122	18.5
1218.7	0.786	0.209	2122.6	18.5
1218.2	0.786	0.209	2122.6	18.5
1217.77	0.786	0.209	2122.7	18.6
1217.28	0.786	0.209	2122.7	18.5
1217.02	0.786	0.209	2123.3	18.5
1216.58	0.786	0.209	2123.4	18.5
1216.15	0.786	0.209	2123.4	18.5
1215.65	0.786	0.209	2124	18.5
1215.36	0.786	0.209	2124	18.6
1214.79	0.786	0.209	2124.1	18.5
1214.51	0.786	0.209	2124.7	18.4
1213.99	0.786	0.209	2124.7	18.5
1213.63	0.786	0.209	2124.7	18.5
1212.96	0.786	0.209	2125.4	18.5
1212.65	0.786	0.209	2125.4	18.5
1212.23	0.786	0.209	2125.4	18.5
1211.73	0.786	0.209	2125.5	18.5
1211.32	0.786	0.209	2126.1	18.5
1210.83	0.786	0.209	2126.1	18.5
1210.3	0.786	0.209	2126.2	18.4
1209.93	0.786	0.209	2126.8	18.4
1209.51	0.786	0.209	2126.8	18.5
1209.1	0.786	0.209	2126.8	18.5
1208.61	0.786	0.209	2126.9	18.4
1208.22	0.786	0.209	2127.5	18.4
1207.66	0.786	0.209	2127.5	18.5
1207.33	0.786	0.209	2127.6	18.5
1206.82	0.786	0.209	2128.2	18.4
1206.21	0.786	0.209	2128.2	18.5
1205.84	0.786	0.209	2128.3	18.4
1205.38	0.786	0.209	2128.3	23.8
1204.97	0.786	0.209	2128.9	23.8
1204.54	0.786	0.209	2128.9	23.9
1204.05	0.786	0.209	2129	24.2
1203.59	0.786	0.209	2129.6	24.4
1203.15	0.786	0.209	2129.6	25.1
1202.68	0.786	0.209	2129.7	25.9
1202.15	0.786	0.209	2129.7	27
1201.91	0.786	0.209	2130.3	26.6
1201.33	0.786	0.209	2130.4	27.4
1200.81	0.786	0.209	2130.4	26.8
1200.4	0.786	0.209	2131	27.4
1199.78	0.786	0.209	2131.1	27.1
1199.42	0.786	0.209	2131.1	27
1198.99	0.786	0.209	2131.1	26.9
1198.59	0.786	0.209	2131.7	26.8
1198.08	0.786	0.209	2131.8	27.4
1197.61	0.786	0.209	2131.8	26.2
1197.11	0.786	0.209	2132.4	26.4
1196.58	0.786	0.209	2132.5	26.4
1196.24	0.786	0.209	2132.5	25.5
1195.77	0.786	0.209	2132.6	26.8
1195.33	0.786	0.209	2133.2	26.7
1194.9	0.786	0.209	2133.2	26.5
1194.37	0.786	0.209	2133.3	26.2
1193.95	0.786	0.209	2133.8	26.1
1193.42	0.786	0.209	2133.9	26.6
1193	0.786	0.209	2133.9	26.2
1192.58	0.786	0.209	2134.5	26.1
1192.09	0.786	0.209	2134.6	25.9
1191.65	0.786	0.209	2134.6	26.4
1191.11	0.786	0.209	2134.7	26.4
1190.62	0.786	0.209	2135.3	26.2
1190.27	0.786	0.209	2135.3	25.8
1189.86	0.786	0.209	2135.4	26.2
1189.32	0.786	0.209	2136	25.9
1188.86	0.786	0.209	2136	26.5
1188.35	0.786	0.209	2136.1	26.2
1187.8	0.786	0.209	2136.1	25.4
1187.46	0.786	0.209	2136.7	26.2
1186.94	0.786	0.209	2136.7	25.7
1186.57	0.786	0.209	2136.8	26
1186.02	0.786	0.209	2137.4	25.9
1185.66	0.786	0.209	2137.4	25.4
1185.17	0.786	0.209	2137.5	25.9
1184.74	0.786	0.209	2138.1	26.4
1184.22	0.786	0.209	2138.1	25.8
1183.71	0.786	0.209	2138.2	24.9
1183.27	0.786	0.209	2138.2	25.5
1182.83	0.786	0.209	2138.8	26.4
1182.38	0.786	0.209	2138.8	26.6
1181.9	0.786	0.209	2138.9	26.7
1181.5	0.786	0.209	2139.5	26.1
1180.92	0.786	0.209	2139.5	26.5
1180.58	0.786	0.209	2139.6	26.3
1180.08	0.786	0.209	2140.2	25.6
1179.53	0.786	0.209	2140.2	26
1179.17	0.786	0.209	2140.3	26.2
1178.67	0.786	0.209	2140.9	26.2
1178.19	0.786	0.209	2140.9	25.4
1177.8	0.786	0.209	2141	25.5
1177.33	0.786	0.209	2141.6	24.9
1176.79	0.786	0.209	2141.6	25.6
1176.37	0.786	0.209	2141.6	24.8
1175.93	0.786	0.209	2141.7	25.4
1175.55	0.786	0.209	2142.3	25.6
1175.13	0.786	0.209	2142.3	26.4
1174.61	0.786	0.209	2142.9	25.7
1174.16	0.786	0.209	2143	26.5
1173.62	0.786	0.209	2143	25.7
1173.15	0.786	0.209	2143.6	25.3
1172.8	0.786	0.209	2143.7	24.8
1172.35	0.786	0.209	2143.7	26.5
1171.97	0.786	0.209	2144.3	25.8
1171.41	0.786	0.209	2144.3	26.7
1170.92	0.786	0.209	2144.4	27.2
1170.52	0.786	0.209	2145	27.2
1170.09	0.786	0.209	2145	27.7
1169.67	0.786	0.209	2145.1	27.6
1169.16	0.786	0.209	2145.7	28.3
1168.72	0.786	0.209	2145.7	29.1
1168.25	0.786	0.209	2145.8	30.1
1167.95	0.786	0.209	2146.3	30.5
1167.5	0.786	0.209	2146.4	29.6
1167	0.786	0.209	2146.4	30.3
1166.63	0.786	0.209	2147	30.9
1166.09	0.786	0.209	2147.1	30.7
1165.65	0.786	0.209	2147.1	32.1
1165.3	0.786	0.209	2147.7	31.6
1164.81	0.786	0.209	2147.8	31.5
1164.22	0.786	0.209	2148.4	32.2
1163.82	0.786	0.209	2148.4	32.4
1163.48	0.786	0.209	2148.4	33
1162.96	0.786	0.209	2149	34.2
1162.53	0.786	0.209	2149.1	502
1161.96	0.786	0.209	2149.1	508.7
1161.63	0.786	0.209	2149.7	496.5
1161.12	0.786	0.209	2149.8	501.5
1160.82	0.786	0.209	2149.8	500.6
1160.33	0.786	0.209	2150.4	510.3
1159.88	0.786	0.209	2150.5	506.8
1159.54	0.786	0.209	2150.5	496
1158.95	0.786	0.209	2151.1	503.3
1158.63	0.786	0.209	2151.1	500.8
1158.14	0.786	0.209	2151.7	492.3
1157.63	0.786	0.209	2151.8	494.8
1157.27	0.786	0.209	2151.8	485.7
1156.85	0.786	0.209	2152.4	474.2
1156.39	0.786	0.209	2152.5	495.7
1155.87	0.786	0.209	2152.5	468.7
1155.5	0.786	0.209	2153.1	457.2
1155.04	0.786	0.209	2153.1	490.8
1154.63	0.786	0.209	2153.2	473.9
1154.22	0.786	0.209	2153.2	472.6
1153.67	0.786	0.209	2153.8	467.7
1153.33	0.786	0.209	2153.9	474.2
1152.92	0.786	0.209	2153.9	458.1
1152.4	0.786	0.209	2154.5	466.4
1152.03	0.786	0.209	2154.6	454.5
1151.52	0.786	0.209	2154.6	458.8
1151.09	0.786	0.209	2155.2	454.5
1150.69	0.786	0.209	2155.2	444.3
1150.26	0.786	0.209	2155.3	448.8
1149.75	0.786	0.209	2155.9	450.9
1149.38	0.786	0.209	2155.9	453.4
1148.96	0.786	0.209	2156	441.4
1148.5	0.786	0.209	2156.6	445.4
1147.95	0.786	0.209	2156.6	437.7
1147.71	0.786	0.209	2156.6	434.2
1147.32	0.786	0.209	2157.2	431.1
1146.72	0.786	0.209	2157.3	428.5
1146.35	0.786	0.209	2157.3	1116.5
1145.92	0.786	0.209	2157.4	1104.9
1145.54	0.786	0.209	2158	1089.6
1145.06	0.786	0.209	2158	1099.5
1144.62	0.786	0.209	2158.1	1074.4
1144.21	0.786	0.209	2158.6	1087.8
1143.6	0.786	0.209	2158.7	1203.1
1143.34	0.786	0.209	2158.7	1202.5
1142.96	0.786	0.209	2159.3	1217.3
1142.55	0.786	0.209	2159.4	1201.6
1142.18	0.786	0.209	2159.4	1208.9
1141.7	0.786	0.209	2159.5	1198.3
1141.27	0.786	0.209	2160	1197.5
1140.78	0.786	0.209	2160.1	1178.7
1140.52	0.786	0.209	2160.1	1187.9
1140	0.786	0.209	2160.7	1195.8
1139.57	0.786	0.209	2160.8	1180.7
1139.19	0.786	0.209	2160.8	1165.7
1138.79	0.786	0.209	2161.4	1172.1
1138.33	0.786	0.209	2161.4	1166.5
1137.8	0.786	0.209	2161.5	1173.2
1137.49	0.786	0.209	2162.1	1163.3
1137.04	0.786	0.209	2162.1	1162.3
1136.6	0.786	0.209	2162.2	2209.2
1136.21	0.786	0.209	2162.8	2200.2
1135.84	0.786	0.209	2162.8	2204.8
1135.36	0.786	0.209	2162.9	2241.4
1134.9	0.786	0.209	2162.9	2223.1
1134.59	0.786	0.209	2163.5	2239.4
1134.08	0.786	0.209	2163.5	2189.1
1133.66	0.786	0.209	2163.6	2190.3
1133.2	0.786	0.209	2164.2	2173.7
1132.92	0.786	0.209	2164.2	2158.9
1132.47	0.786	0.209	2164.2	2153.7
1132.03	0.786	0.209	2164.8	2158.3
1131.51	0.786	0.209	2164.9	2152.5
1131.19	0.786	0.209	2164.9	2138.4
1130.84	0.786	0.209	2165.5	2137.9
1130.36	0.786	0.209	2165.6	2121.5
1130.09	0.786	0.209	2165.6	2120.1
1129.56	0.786	0.209	2165.6	2117.4
1129.19	0.786	0.209	2166.2	2117.4
1128.75	0.786	0.209	2166.3	2102.5
1128.39	0.786	0.209	2166.3	2095.6
1127.96	0.786	0.209	2166.9	2081.8
1127.58	0.786	0.209	2166.9	2072.1
1127.12	0.786	0.209	2167	2063.7
1126.83	0.786	0.209	2167	2380.9
1126.23	0.786	0.209	2167.6	2375.4
1125.98	0.786	0.209	2167.7	2372.1
1125.49	0.786	0.209	2167.7	2351.8
1125.05	0.786	0.209	2168.3	2354.9
1124.69	0.786	0.209	2168.3	2338.9
1124.22	0.786	0.209	2168.4	2318.2
1123.85	0.786	0.209	2168.4	2320.7
1123.45	0.786	0.209	2169	2320.8
1123.04	0.786	0.209	2169.1	2302.9
1122.59	0.786	0.209	2169.1	2284.7
1122.25	0.786	0.209	2169.7	2279.6
1121.83	0.786	0.209	2169.7	2283.3
1121.44	0.786	0.209	2169.8	2263.1
1121.04	0.786	0.209	2170.4	2269.2
1120.58	0.786	0.209	2170.4	2262.8
1120.22	0.786	0.209	2171	2252.3
1119.73	0.786	0.209	2171.1	2221.7
1119.48	0.786	0.209	2171.1	2220.5
1219.08	0.782	0.208	2155.6	18.5
1218.73	0.782	0.208	2155.6	18.5
1218.35	0.782	0.208	2155.7	18.4
1217.93	0.782	0.208	2155.7	18.5
1217.48	0.782	0.208	2156.3	18.5
1217.11	0.782	0.208	2156.3	18.5
1216.69	0.782	0.208	2156.4	18.5
1216.31	0.782	0.208	2157	18.5
1215.86	0.782	0.208	2157	18.5
1215.4	0.782	0.208	2157.1	18.6
1214.87	0.782	0.208	2157.1	18.5
1214.58	0.782	0.208	2157.7	18.5
1214.16	0.782	0.208	2157.7	18.5
1213.8	0.782	0.208	2157.8	18.5
1213.25	0.782	0.208	2158.4	18.5
1212.83	0.782	0.208	2158.4	18.6
1212.37	0.782	0.208	2158.5	18.6
1211.95	0.782	0.208	2159.1	18.5
1211.45	0.782	0.208	2159.1	18.5
1211.14	0.782	0.208	2159.1	18.5
1210.68	0.782	0.208	2159.7	18.5
1210.14	0.782	0.208	2159.8	18.5
1209.74	0.782	0.208	2159.8	18.5
1209.3	0.782	0.208	2160.4	18.5
1208.81	0.782	0.208	2160.5	18.5
1208.39	0.782	0.208	2160.5	18.5
1207.95	0.782	0.208	2161.1	18.4
1207.39	0.782	0.208	2161.2	18.5
1207.05	0.782	0.208	2161.2	18.5
1206.68	0.782	0.208	2161.2	18.5
1206.1	0.782	0.208	2161.8	18.5
1205.63	0.782	0.208	2161.9	18.5
1205.2	0.782	0.208	2161.9	18.4
1204.74	0.782	0.208	2162.5	18.5
1204.27	0.782	0.208	2162.6	18.5
1203.75	0.782	0.208	2162.6	18.5
1203.36	0.782	0.208	2163.2	18.4
1202.9	0.782	0.208	2163.3	18.5
1202.38	0.782	0.208	2163.3	18.4
1202.03	0.782	0.208	2163.9	18.4
1201.52	0.782	0.208	2163.9	18.5
1201	0.782	0.208	2164	18.4
1200.57	0.782	0.208	2164.6	18.5
1200.08	0.782	0.208	2164.6	18.4
1199.7	0.782	0.208	2164.7	18.5
1199.27	0.782	0.208	2165.3	18.5
1198.72	0.782	0.208	2165.3	18.4
1198.28	0.782	0.208	2165.4	18.5
1197.75	0.782	0.208	2166	18.4
1197.25	0.782	0.208	2166	18.5
1196.97	0.782	0.208	2166.1	18.4
1196.42	0.782	0.208	2166.7	18.4
1195.95	0.782	0.208	2166.7	18.4
1195.48	0.782	0.208	2167.3	18.4
1195.03	0.782	0.208	2167.4	18.4
1194.46	0.782	0.208	2167.4	18.4
1194.17	0.782	0.208	2168	18.4
1193.68	0.782	0.208	2168	18.3
1193.13	0.782	0.208	2168.6	18.4
1192.67	0.782	0.208	2168.7	18.4
1192.18	0.782	0.208	2168.7	18.3
1191.84	0.782	0.208	2169.3	18.4
1191.27	0.782	0.208	2169.4	18.4
1190.77	0.782	0.208	2169.4	18.3
1190.33	0.782	0.208	2170	18.4
1189.92	0.782	0.208	2170.1	18.4
1189.45	0.782	0.208	2170.7	18.4
1188.99	0.782	0.208	2170.7	18.3
1188.45	0.782	0.208	2170.8	18.4
1188.05	0.782	0.208	2171.4	18.4
1187.65	0.782	0.208	2171.4	18.3
1187.15	0.782	0.208	2172	18.4
1186.78	0.782	0.208	2172	18.4
1186.26	0.782	0.208	2172.1	18.4
1185.77	0.782	0.208	2172.7	18.4
1185.44	0.782	0.208	2172.7	18.4
1184.79	0.782	0.208	2172.8	18.4
1184.42	0.782	0.208	2173.4	18.4
1183.92	0.782	0.208	2173.4	18.4
1183.43	0.782	0.208	2174	18.5
1183.01	0.782	0.208	2174.1	18.3
1182.52	0.782	0.208	2174.1	18.3
1182.03	0.782	0.208	2174.7	18.4
1181.65	0.782	0.208	2174.8	18.4
1181.08	0.782	0.208	2175.4	18.4
1180.62	0.782	0.208	2175.4	18.4
1180.25	0.782	0.208	2175.5	18.4
1179.79	0.782	0.208	2176	18.3
1179.35	0.782	0.208	2176.1	18.3
1178.91	0.782	0.208	2176.1	18.4
1178.49	0.782	0.208	2176.7	18.3
1178.09	0.782	0.208	2176.8	18.3
1177.41	0.782	0.208	2176.8	18.3
1177.02	0.782	0.208	2177.4	18.2
1176.64	0.782	0.208	2177.5	18.3
1176.24	0.782	0.208	2177.5	18.3
1175.65	0.782	0.208	2178.1	18.2
1175.18	0.782	0.208	2178.2	18.3
1174.77	0.782	0.208	2178.2	18.3
1174.39	0.782	0.208	2178.8	18.2
1173.79	0.782	0.208	2178.9	18.2
1173.45	0.782	0.208	2178.9	18.2
1173.02	0.782	0.208	2179.5	18.3
1172.66	0.782	0.208	2179.5	18.2
1172.04	0.782	0.208	2179.6	18.3
1171.73	0.782	0.208	2180.2	18.3
1171.23	0.782	0.208	2180.2	18.3
1170.64	0.782	0.208	2180.3	33.6
1170.22	0.782	0.208	2180.9	33.7
1169.87	0.782	0.208	2180.9	33.5
1169.28	0.782	0.208	2181	33.4
1168.88	0.782	0.208	2181.6	33.5
1168.43	0.782	0.208	2181.6	33.5
1168.07	0.782	0.208	2181.6	33.3
1167.53	0.782	0.208	2182.3	33.3
1167.19	0.782	0.208	2182.3	33.4
1166.66	0.782	0.208	2182.9	33.1
1166.28	0.782	0.208	2182.9	33.2
1165.93	0.782	0.208	2183	33.1
1165.29	0.782	0.208	2183	32.9
1164.95	0.782	0.208	2183.6	33
1164.51	0.782	0.208	2183.7	32.9
1164.09	0.782	0.208	2184.3	33
1163.62	0.782	0.208	2184.3	32.8
1163.19	0.782	0.208	2184.3	32.8
1162.73	0.782	0.208	2184.9	32.7
1162.23	0.782	0.208	2185	34
1161.85	0.782	0.208	2185	33.9
1161.43	0.782	0.208	2185.6	33.6
1160.92	0.782	0.208	2185.7	33.6
1160.5	0.782	0.208	2185.7	33.6
1160.02	0.782	0.208	2186.3	33.9
1159.53	0.782	0.208	2186.4	33.6
1159.13	0.782	0.208	2186.4	33.7
1158.63	0.782	0.208	2186.5	33.6
1158.37	0.782	0.208	2187	33.7
1157.93	0.782	0.208	2187.1	33.6
1157.37	0.782	0.208	2187.1	33.5
1156.96	0.782	0.208	2187.7	33.5
1156.52	0.782	0.208	2187.8	33.3
1156.13	0.782	0.208	2187.8	33.2
1155.6	0.782	0.208	2188.4	33.2
1155.23	0.782	0.208	2188.5	33.2
1154.87	0.782	0.208	2188.5	33.5
1154.4	0.782	0.208	2189.1	33.3
1154	0.782	0.208	2189.1	33.3
1153.43	0.782	0.208	2189.2	33
1153.13	0.782	0.208	2189.8	33.2
1152.64	0.782	0.208	2189.8	33
1152.25	0.782	0.208	2189.9	33
1151.72	0.782	0.208	2190.5	32.8
1151.3	0.782	0.208	2190.5	32.8
1150.89	0.782	0.208	2190.6	32.6
1150.51	0.782	0.208	2191.2	32.8
1150.05	0.782	0.208	2191.2	32.8
1149.57	0.782	0.208	2191.8	32.8
1149.16	0.782	0.208	2191.8	32.7
1148.72	0.782	0.208	2191.9	32.8
1148.32	0.782	0.208	2192.5	32.8
1147.87	0.782	0.208	2192.5	32.6
1147.39	0.782	0.208	2192.6	32.6
1147.04	0.782	0.208	2193.2	32.6
1146.67	0.782	0.208	2193.2	32.5
1146.17	0.782	0.208	2193.2	32.4
1145.71	0.782	0.208	2193.8	32.4
1145.38	0.782	0.208	2193.9	32.4
1144.88	0.782	0.208	2194.5	32.4
1144.5	0.782	0.208	2194.5	32.2
1143.95	0.782	0.208	2194.6	34.2
1143.51	0.782	0.208	2195.2	34
1143.17	0.782	0.208	2195.2	34.1
1142.73	0.782	0.208	2195.3	34.2
1142.38	0.782	0.208	2195.8	34.5
1141.97	0.782	0.208	2195.9	34.6
1141.46	0.782	0.208	2196.5	34.5
1141.01	0.782	0.208	2196.5	34.1
1140.59	0.782	0.208	2197.1	34.1
1140.27	0.782	0.208	2197.2	34.2
1139.82	0.782	0.208	2197.2	34.1
1139.41	0.782	0.208	2197.8	34.5
1138.96	0.782	0.208	2197.9	34.3
1138.61	0.782	0.208	2197.9	33.9
1274.36	0.774	0.206	2200	15.5
1273.91	0.774	0.206	2200.6	15.4
1273.51	0.774	0.206	2200.6	15.4
1272.91	0.774	0.206	2201.2	15.3
1272.38	0.774	0.206	2201.3	15.4
1271.94	0.774	0.206	2201.3	15.4
1271.6	0.774	0.206	2201.9	15.3
1271.01	0.774	0.206	2201.9	15.4
1270.36	0.774	0.206	2201.9	15.4
1269.72	0.774	0.206	2202.5	15.4
1269.25	0.774	0.206	2202.6	15.4
1268.85	0.774	0.206	2202.6	15.4
1268.29	0.774	0.206	2203.2	15.4
1267.67	0.774	0.206	2203.2	15.4
1267.25	0.774	0.206	2203.8	15.3
1266.59	0.774	0.206	2203.8	15.4
1265.86	0.774	0.206	2203.9	15.4
1265.26	0.774	0.206	2204.5	15.4
1264.56	0.774	0.206	2204.5	15.4
1263.92	0.774	0.206	2204.6	15.4
1263.48	0.774	0.206	2205.1	15.4
1262.99	0.774	0.206	2205.2	15.3
1262.49	0.774	0.206	2205.2	15.4
1262.02	0.774	0.206	2205.8	15.4
1261.69	0.774	0.206	2205.8	15.4
1261.09	0.774	0.206	2206.4	15.3
1260.61	0.774	0.206	2206.4	15.4
1260.13	0.774	0.206	2206.5	15.4
1259.52	0.774	0.206	2207	15.4
1259.16	0.774	0.206	2207.1	15.4
1258.46	0.774	0.206	2207.1	15.4
1257.92	0.774	0.206	2207.7	15.4
1257.26	0.774	0.206	2207.8	15.4
1256.77	0.774	0.206	2207.8	15.4
1256.24	0.774	0.206	2208.4	15.4
1255.66	0.774	0.206	2208.4	15.4
1255.13	0.774	0.206	2208.4	15.4
1254.52	0.774	0.206	2209	15.4
1253.87	0.774	0.206	2209.1	15.4
1253.23	0.774	0.206	2209.1	15.4
1252.62	0.774	0.206	2209.7	15.4
1252.32	0.774	0.206	2209.7	15.4
1251.61	0.774	0.206	2210.3	15.4
1250.97	0.774	0.206	2210.4	15.4
1250.46	0.774	0.206	2210.4	15.4
1249.63	0.774	0.206	2211	15.4
1249.1	0.774	0.206	2211	15.4
1248.69	0.774	0.206	2211.1	15.4
1248.22	0.774	0.206	2211.6	15.4
1247.71	0.774	0.206	2211.7	15.4
1247.15	0.774	0.206	2212.3	15.3
1246.66	0.774	0.206	2212.3	15.4
1246.06	0.774	0.206	2212.3	15.4
1245.42	0.774	0.206	2212.9	74.8
1244.92	0.774	0.206	2213	73.5
1244.38	0.774	0.206	2213	75.6
1243.88	0.774	0.206	2213.6	74.1
1243.46	0.774	0.206	2213.6	76.4
1242.86	0.774	0.206	2213.7	74
1242.49	0.774	0.206	2214.2	74.5
1241.93	0.774	0.206	2214.3	76.5
1241.48	0.774	0.206	2214.8	76.3
1241.18	0.774	0.206	2214.9	74.2
1240.72	0.774	0.206	2214.9	75.7
1240.25	0.774	0.206	2215.5	75.7
1239.91	0.774	0.206	2215.5	75.5
1239.52	0.774	0.206	2215.5	76.5
1239.09	0.774	0.206	2216.1	75.1
1238.76	0.774	0.206	2216.1	75.1
1238.39	0.774	0.206	2216.1	75.3
1237.81	0.774	0.206	2216.7	75.3
1237.34	0.774	0.206	2216.8	75
1236.82	0.774	0.206	2216.8	74.4
1236.32	0.774	0.206	2217.4	75.1
1235.74	0.774	0.206	2217.4	74
1235.25	0.774	0.206	2218	75.4
1234.18	0.774	0.206	2218.1	73.7
1233.8	0.774	0.206	2218.1	74.8
1232.94	0.774	0.206	2218.7	74.4
1232.26	0.774	0.206	2218.8	75.1
1231.6	0.774	0.206	2218.8	73.9
1231.06	0.774	0.206	2219.4	76
1230.38	0.774	0.206	2219.4	75.9
1229.85	0.774	0.206	2219.5	74.8
1229.53	0.774	0.206	2220	73.6
1228.83	0.774	0.206	2220.1	75.2
1228.48	0.774	0.206	2220.1	75.3
1228.22	0.774	0.206	2220.7	74.1
1227.66	0.774	0.206	2220.7	73.7
1227.28	0.774	0.206	2221.3	74.2
1226.66	0.774	0.206	2221.3	74.2
1226.13	0.774	0.206	2221.4	73
1225.33	0.774	0.206	2221.4	72.9
1224.64	0.774	0.206	2222	74
1224.26	0.774	0.206	2222	71.2
1223.58	0.774	0.206	2222.1	72.5
1222.89	0.774	0.206	2222.7	72.7
1222.33	0.774	0.206	2222.7	18.6
1221.55	0.774	0.206	2222.8	18.7
1221.11	0.774	0.206	2223.3	18.7
1220.63	0.774	0.206	2223.4	18.6
1220.2	0.774	0.206	2223.4	18.6
1219.66	0.774	0.206	2224	18.7
1219.19	0.774	0.206	2224	18.6
1218.77	0.774	0.206	2224.1	18.7
1218.4	0.774	0.206	2224.6	18.7
1218.01	0.774	0.206	2224.7	18.6
1217.77	0.774	0.206	2224.7	18.6
1217.33	0.774	0.206	2225.3	18.7
1217.01	0.774	0.206	2225.3	18.7
1216.59	0.774	0.206	2225.3	18.7
1216.13	0.774	0.206	2225.3	18.7
1215.83	0.774	0.206	2225.9	18.6
1215.43	0.774	0.206	2225.9	18.7
1215.11	0.774	0.206	2225.9	18.7
1214.59	0.774	0.206	2226.5	18.6
1214.2	0.774	0.206	2226.6	18.6
1213.54	0.774	0.206	2226.6	18.7
1212.97	0.774	0.206	2227.2	18.7
1212.36	0.774	0.206	2227.2	18.7
1211.73	0.774	0.206	2227.3	18.6
1211.07	0.774	0.206	2227.9	18.6
1210.35	0.774	0.206	2227.9	18.6
1209.78	0.774	0.206	2228	18.6
1209.32	0.774	0.206	2228.5	18.6
1208.5	0.774	0.206	2228.6	18.6
1208.01	0.774	0.206	2229.2	18.6
1207.63	0.774	0.206	2229.2	18.5
1207.14	0.774	0.206	2229.2	18.5
1206.53	0.774	0.206	2229.8	18.6
1205.98	0.774	0.206	2229.9	18.5
1205.69	0.774	0.206	2229.9	18.5
1205.02	0.774	0.206	2229.9	18.5
1204.49	0.774	0.206	2230.5	18.5
1203.95	0.774	0.206	2230.5	18.5
1203.45	0.774	0.206	2231.1	18.6
1203.13	0.774	0.206	2231.2	18.4
1202.41	0.774	0.206	2231.2	18.5
1202.37	0.774	0.206	2231.2	18.5
1201.77	0.774	0.206	2231.8	18.5
1201.27	0.774	0.206	2231.8	18.4
1200.65	0.774	0.206	2231.9	18.4
1200.08	0.774	0.206	2232.5	18.4
1199.21	0.774	0.206	2232.5	18.5
1198.83	0.774	0.206	2232.5	18.3
1198.26	0.774	0.206	2233.1	18.4
1197.56	0.774	0.206	2233.2	18.3
1197.23	0.774	0.206	2233.2	18.4
1196.74	0.774	0.206	2233.8	18.4
1196.07	0.774	0.206	2233.8	18.3
1195.44	0.774	0.206	2233.9	18.3
1195.04	0.774	0.206	2234.4	18.3
1194.42	0.774	0.206	2234.5	18.2
1194.1	0.774	0.206	2234.5	18.3
1193.61	0.774	0.206	2235.1	18.2
1193.1	0.774	0.206	2235.1	18.2
1192.58	0.774	0.206	2235.2	18.3
1192.13	0.774	0.206	2235.7	18.3
1191.66	0.774	0.206	2235.8	18.2
1191.23	0.774	0.206	2235.8	18.1
1190.69	0.774	0.206	2235.8	18.2
1190.34	0.774	0.206	2236.4	18.2
1189.9	0.774	0.206	2236.4	18.1
1189.42	0.774	0.206	2236.5	18.2
1189.08	0.774	0.206	2237.1	18.2
1188.71	0.774	0.206	2237.1	18.1
1188.23	0.774	0.206	2237.1	18.1
1187.78	0.774	0.206	2237.7	18.1
1187.53	0.774	0.206	2237.7	18.1
1186.98	0.774	0.206	2237.7	18.1
1186.63	0.774	0.206	2238.3	18.2
1186.28	0.774	0.206	2238.3	18.1
1185.88	0.774	0.206	2238.4	18.1
1185.36	0.774	0.206	2239	18
1184.98	0.774	0.206	2239	18.1
1184.78	0.774	0.206	2239	18.1
1184.29	0.774	0.206	2239	18.1
1183.95	0.774	0.206	2239.6	18
1183.54	0.774	0.206	2239.6	18
1183.09	0.774	0.206	2239.7	18.1
1182.76	0.774	0.206	2240.2	18
1182.34	0.774	0.206	2240.3	18
1181.8	0.774	0.206	2240.3	17.9
1181.31	0.774	0.206	2240.3	18
1180.58	0.774	0.206	2240.9	18
1179.87	0.774	0.206	2241	17.9
1179.11	0.774	0.206	2241	17.8
1178.51	0.774	0.206	2241.6	17.9
1178.05	0.774	0.206	2241.6	17.8
1177.51	0.774	0.206	2241.7	17.8
1177.11	0.774	0.206	2242.3	17.9
1176.67	0.774	0.206	2242.3	17.8
1176.14	0.774	0.206	2242.3	17.7
1175.94	0.774	0.206	2242.9	17.9
1175.27	0.774	0.206	2242.9	17.7
1174.65	0.774	0.206	2243.5	17.8
1174.31	0.774	0.206	2243.6	17.9
1174	0.774	0.206	2243.6	17.8
1173.23	0.774	0.206	2244.2	17.8
1273.72	0.751	0.199	2356.5	37.9
1273.19	0.751	0.199	2356.6	38.4
1272.81	0.751	0.199	2357.2	36.9
1272.23	0.751	0.199	2357.3	38.1
1271.87	0.751	0.199	2357.3	38.1
1271.2	0.751	0.199	2357.4	39.4
1270.79	0.751	0.199	2358	38
1270.23	0.751	0.199	2358	38.3
1269.75	0.751	0.199	2358.1	39.5
1269.21	0.751	0.199	2358.2	38.7
1268.68	0.751	0.199	2358.8	37.9
1268.18	0.751	0.199	2358.8	38.6
1267.59	0.751	0.199	2358.9	38.6
1267.03	0.751	0.199	2359.5	38.6
1266.52	0.751	0.199	2359.6	38.5
1266.02	0.751	0.199	2359.6	38.5
1265.56	0.751	0.199	2360.2	39
1265.1	0.751	0.199	2360.3	38.9
1264.48	0.751	0.199	2360.4	38.1
1264.03	0.751	0.199	2361	38.1
1263.48	0.751	0.199	2361	39.4
1262.97	0.751	0.199	2361.1	38.3
1262.48	0.751	0.199	2361.7	37.9
1261.92	0.751	0.199	2361.8	38.5
1261.36	0.751	0.199	2361.8	38.4
1260.85	0.751	0.199	2362.4	37.7
1260.29	0.751	0.199	2362.5	39.1
1259.79	0.751	0.199	2362.6	38.2
1259.26	0.751	0.199	2362.6	39.6
1258.81	0.751	0.199	2363.2	39
1258.23	0.751	0.199	2363.3	38.3
1257.67	0.751	0.199	2363.4	39.3
1257.12	0.751	0.199	2364	38.7
1256.69	0.751	0.199	2364	38.2
1256.09	0.751	0.199	2364.1	39.5
1255.57	0.751	0.199	2364.7	38.8
1255.04	0.751	0.199	2364.8	38.8
1254.52	0.751	0.199	2364.8	39.3
1253.98	0.751	0.199	2364.9	39
1253.52	0.751	0.199	2365.5	38.5
1253.01	0.751	0.199	2365.5	39.1
1252.45	0.751	0.199	2365.6	38.9
1251.87	0.751	0.199	2365.7	39.2
1251.37	0.751	0.199	2366.3	38.3
1250.85	0.751	0.199	2366.4	38.9
1250.34	0.751	0.199	2366.4	39.1
1249.84	0.751	0.199	2367	39.7
1249.31	0.751	0.199	2367.1	39
1248.73	0.751	0.199	2367.1	38.8
1248.22	0.751	0.199	2367.8	39.5
1247.66	0.751	0.199	2367.8	39.7
1247.24	0.751	0.199	2367.9	38.7
1246.6	0.751	0.199	2368.5	39.3
1246.15	0.751	0.199	2368.6	39.4
1245.64	0.751	0.199	2368.6	39.5
1245.02	0.751	0.199	2368.7	39.7
1244.54	0.751	0.199	2369.3	39.2
1244.09	0.751	0.199	2369.3	39.2
1243.47	0.751	0.199	2369.4	39.8
1243.04	0.751	0.199	2370	39.3
1242.49	0.751	0.199	2370.1	39.1
1241.91	0.751	0.199	2370.1	39.7
1241.44	0.751	0.199	2370.2	40
1240.91	0.751	0.199	2370.8	39.8
1240.41	0.751	0.199	2370.9	39.5
1239.81	0.751	0.199	2370.9	40.8
1239.3	0.751	0.199	2371.6	40.5
1238.81	0.751	0.199	2371.6	39.5
1238.29	0.751	0.199	2371.7	40.3
1237.79	0.751	0.199	2372.3	40.3
1237.27	0.751	0.199	2372.3	41
1236.81	0.751	0.199	2372.4	40.7
1236.15	0.751	0.199	2373	40.8
1235.64	0.751	0.199	2373.1	40.9
1235.17	0.751	0.199	2373.1	39.9
1234.7	0.751	0.199	2373.7	40.9
1234.19	0.751	0.199	2373.8	40.7
1233.68	0.751	0.199	2373.9	40.6
1233.11	0.751	0.199	2374.5	40.4
1232.62	0.751	0.199	2374.5	40.7
1232.07	0.751	0.199	2374.6	39.9
1231.68	0.751	0.199	2375.2	40.3
1231.07	0.751	0.199	2375.3	40.8
1230.54	0.751	0.199	2375.3	40.1
1230.12	0.751	0.199	2375.4	40.1
1229.6	0.751	0.199	2376	39.9
1229.07	0.751	0.199	2376.1	39.9
1228.57	0.751	0.199	2376.1	39.7
1228.07	0.751	0.199	2376.7	39.6
1227.49	0.751	0.199	2376.8	39.5
1227.02	0.751	0.199	2376.8	39.8
1226.49	0.751	0.199	2376.9	40.3
1226.04	0.751	0.199	2377.5	40.2
1225.52	0.751	0.199	2377.6	40.4
1224.95	0.751	0.199	2377.6	40.6
1224.49	0.751	0.199	2378.2	40.3
1223.97	0.751	0.199	2378.3	39.3
1223.48	0.751	0.199	2378.4	39.6
1222.93	0.751	0.199	2378.4	40.7
1222.49	0.751	0.199	2379	40
1221.93	0.751	0.199	2379.1	39.2
1221.42	0.751	0.199	2379.2	40.4
1220.9	0.751	0.199	2379.8	40.3
1220.43	0.751	0.199	2379.8	39.4
1219.92	0.751	0.199	2379.9	39.2
1219.45	0.751	0.199	2379.9	40.2
1218.97	0.751	0.199	2380.5	39.7
1218.46	0.751	0.199	2380.6	39.2
1217.95	0.751	0.199	2380.7	40.2
1217.44	0.751	0.199	2381.3	39.8
1216.89	0.751	0.199	2381.3	39.2
1216.46	0.751	0.199	2381.4	39.7
1215.91	0.751	0.199	2381.5	40.3
1215.43	0.751	0.199	2382.1	40.9
1214.98	0.751	0.199	2382.1	40.3
1214.47	0.751	0.199	2382.2	39.4
1213.98	0.751	0.199	2382.8	40.4
1213.47	0.751	0.199	2382.8	40.4
1212.99	0.751	0.199	2382.9	40.2
1212.51	0.751	0.199	2383	40.3
1212.01	0.751	0.199	2383.6	40.2
1211.43	0.751	0.199	2383.6	40.7
1211.03	0.751	0.199	2383.7	40.2
1210.49	0.751	0.199	2384.3	40.2
1209.95	0.751	0.199	2384.4	39.4
1209.48	0.751	0.199	2384.4	40.3
1209.01	0.751	0.199	2384.5	40.3
1208.51	0.751	0.199	2385.1	40
1208.02	0.751	0.199	2385.1	39.9
1207.61	0.751	0.199	2385.2	39.9
1207.08	0.751	0.199	2385.8	39.9
1206.63	0.751	0.199	2385.9	39.8
1206.14	0.751	0.199	2385.9	40
1205.69	0.751	0.199	2386	40.4
1205.21	0.751	0.199	2386.6	39.9
1204.6	0.751	0.199	2386.7	40.4
1204.14	0.751	0.199	2386.7	39.8
1203.61	0.751	0.199	2387.3	39.5
1203.14	0.751	0.199	2387.4	39.4
1202.72	0.751	0.199	2387.4	39.7
1202.27	0.751	0.199	2388	39.5
1201.8	0.751	0.199	2388.1	40.3
1201.24	0.751	0.199	2388.2	40.3
1200.78	0.751	0.199	2388.2	39.4
1200.34	0.751	0.199	2388.8	40.2
1199.9	0.751	0.199	2388.9	40.3
1199.37	0.751	0.199	2388.9	39.5
1198.91	0.751	0.199	2389.5	39.5
1198.48	0.751	0.199	2389.6	40.3
1197.89	0.751	0.199	2389.6	39.2
1197.43	0.751	0.199	2389.7	39.2
1196.94	0.751	0.199	2390.3	39.3
1196.46	0.751	0.199	2390.4	39.9
1196.02	0.751	0.199	2390.4	39.2
1195.57	0.751	0.199	2391	39.4
1195.03	0.751	0.199	2391.1	39.8
1194.51	0.751	0.199	2391.2	38.9
1194.02	0.751	0.199	2391.2	38.9
1193.62	0.751	0.199	2391.8	39.3
1193.16	0.751	0.199	2391.9	39.8
1192.64	0.751	0.199	2391.9	39.1
1192.25	0.751	0.199	2392.5	39
1191.69	0.751	0.199	2392.6	39.8
1191.28	0.751	0.199	2392.6	39
1190.81	0.751	0.199	2393.2	38.5
1190.32	0.751	0.199	2393.3	39.5
1189.83	0.751	0.199	2393.4	39.6
1189.32	0.751	0.199	2393.4	38.9
1188.88	0.751	0.199	2394	38.2
1188.42	0.751	0.199	2394.1	39.5
1187.97	0.751	0.199	2394.1	38.8
1187.55	0.751	0.199	2394.7	38.4
1187.06	0.751	0.199	2394.8	38.9
1186.56	0.751	0.199	2394.9	38.7
1186.12	0.751	0.199	2395.5	38.7
1185.69	0.751	0.199	2395.5	39.3
1185.17	0.751	0.199	2395.6	39.2
1184.72	0.751	0.199	2395.6	39.6
1184.26	0.751	0.199	2396.2	38.7
1183.8	0.751	0.199	2396.3	39.5
1183.29	0.751	0.199	2396.3	39.5
1283.87	0.711	0.189	2655.3	16
1283.45	0.711	0.189	2655.4	16
1283.02	0.711	0.189	2656	15.9
1282.52	0.711	0.189	2656.1	16
1282.12	0.711	0.189	2656.1	16
1281.69	0.711	0.189	2656.7	15.9
1281.12	0.711	0.189	2656.8	16
1280.62	0.711	0.189	2656.9	16
1280.19	0.711	0.189	2657.5	15.9
1279.73	0.711	0.189	2657.5	16
1279.31	0.711	0.189	2657.6	16
1278.83	0.711	0.189	2657.6	16
1278.3	0.711	0.189	2658.3	16
1277.84	0.711	0.189	2658.3	16
1277.36	0.711	0.189	2658.4	15.9
1276.8	0.711	0.189	2659	16
1276.3	0.711	0.189	2659.1	16
1275.9	0.711	0.189	2659.1	16
1275.45	0.711	0.189	2659.7	16.4
1274.88	0.711	0.189	2659.8	16.5
1274.38	0.711	0.189	2659.9	16.5
1273.91	0.711	0.189	2660.5	16.5
1273.36	0.711	0.189	2660.6	16.6
1272.83	0.711	0.189	2660.6	16.7
1272.23	0.711	0.189	2661.2	16.8
1271.8	0.711	0.189	2661.3	16.8
1271.21	0.711	0.189	2661.4	16.8
1270.82	0.711	0.189	2662	16.9
1270.18	0.711	0.189	2662.1	16.8
1269.72	0.711	0.189	2662.1	16.8
1269.13	0.711	0.189	2662.2	16.7
1268.62	0.711	0.189	2662.8	16.8
1268.07	0.711	0.189	2662.9	16.8
1267.55	0.711	0.189	2663	16.8
1267.11	0.711	0.189	2663.6	16.8
1266.5	0.711	0.189	2663.7	16.8
1265.94	0.711	0.189	2663.7	16.8
1265.46	0.711	0.189	2664.3	16.8
1264.83	0.711	0.189	2664.4	16.8
1264.37	0.711	0.189	2664.5	16.8
1263.93	0.711	0.189	2665.1	16.9
1263.34	0.711	0.189	2665.2	16.8
1262.74	0.711	0.189	2665.2	16.8
1262.25	0.711	0.189	2665.9	16.8
1261.74	0.711	0.189	2665.9	16.8
1261.17	0.711	0.189	2666.6	16.8
1260.68	0.711	0.189	2666.6	16.8
1260.06	0.711	0.189	2666.7	16.8
1259.62	0.711	0.189	2667.3	16.8
1259.03	0.711	0.189	2667.4	16.8
1258.5	0.711	0.189	2667.5	16.8
1257.97	0.711	0.189	2668.1	16.8
1257.49	0.711	0.189	2668.1	16.9
1257.01	0.711	0.189	2668.2	16.9
1256.33	0.711	0.189	2668.8	16.8
1255.82	0.711	0.189	2668.9	16.9
1255.34	0.711	0.189	2669	16.8
1254.85	0.711	0.189	2669.6	16.9
1254.3	0.711	0.189	2669.7	16.9
1253.79	0.711	0.189	2669.7	16.9
1253.22	0.711	0.189	2670.3	16.8
1252.75	0.711	0.189	2670.4	16.9
1252.21	0.711	0.189	2670.5	16.9
1251.64	0.711	0.189	2671.1	16.9
1251.19	0.711	0.189	2671.2	16.9
1250.62	0.711	0.189	2671.2	16.9
1250.08	0.711	0.189	2671.9	17
1249.49	0.711	0.189	2671.9	16.9
1248.94	0.711	0.189	2672	16.8
1248.37	0.711	0.189	2672.6	16.9
1247.86	0.711	0.189	2672.7	16.9
1247.3	0.711	0.189	2672.8	16.8
1246.79	0.711	0.189	2673.4	16.9
1246.19	0.711	0.189	2673.5	16.8
1245.7	0.711	0.189	2674.1	16.9
1245.29	0.711	0.189	2674.1	17
1244.65	0.711	0.189	2674.2	16.9
1244.21	0.711	0.189	2674.8	16.9
1243.63	0.711	0.189	2674.9	16.9
1243.06	0.711	0.189	2675.5	16.9
1242.54	0.711	0.189	2675.6	16.9
1242.01	0.711	0.189	2675.7	17
1241.48	0.711	0.189	2676.3	17
1240.93	0.711	0.189	2676.4	16.8
1240.41	0.711	0.189	2676.4	17
1239.96	0.711	0.189	2676.5	16.9
1239.47	0.711	0.189	2677.1	17
1238.89	0.711	0.189	2677.2	16.9
1238.32	0.711	0.189	2677.8	16.8
1237.81	0.711	0.189	2677.9	17
1237.34	0.711	0.189	2677.9	17
1236.79	0.711	0.189	2678	16.9
1236.31	0.711	0.189	2678.6	17
1235.73	0.711	0.189	2678.7	17
1235.26	0.711	0.189	2678.8	16.9
1234.71	0.711	0.189	2679.4	16.8
1234.28	0.711	0.189	2679.4	16.9
1233.71	0.711	0.189	2679.5	17
1233.27	0.711	0.189	2680.1	17
1232.78	0.711	0.189	2680.2	17
1232.2	0.711	0.189	2680.3	17
1231.66	0.711	0.189	2680.9	16.9
1231.2	0.711	0.189	2681	17
1230.73	0.711	0.189	2681	16.9
1230.17	0.711	0.189	2681.1	17
1229.62	0.711	0.189	2681.7	16.9
1229.09	0.711	0.189	2681.8	16.9
1228.57	0.711	0.189	2681.9	17
1228.08	0.711	0.189	2682.5	16.9
1227.53	0.711	0.189	2682.5	16.9
1227.06	0.711	0.189	2682.6	16.9
1226.52	0.711	0.189	2683.2	16.9
1225.98	0.711	0.189	2683.3	16.9
1225.43	0.711	0.189	2683.4	16.9
1225.05	0.711	0.189	2683.4	17
1224.54	0.711	0.189	2684	17
1224.02	0.711	0.189	2684.1	16.9
1223.47	0.711	0.189	2684.2	17
1223.01	0.711	0.189	2684.8	17
1222.49	0.711	0.189	2684.9	17
1221.97	0.711	0.189	2684.9	17
1221.51	0.711	0.189	2685	16.9
1221	0.711	0.189	2685.6	17
1220.4	0.711	0.189	2685.7	16.9
1219.96	0.711	0.189	2685.8	17
1219.44	0.711	0.189	2686.4	17
1218.96	0.711	0.189	2686.4	16.9
1218.44	0.711	0.189	2686.5	16.9
1217.96	0.711	0.189	2686.6	17
1217.41	0.711	0.189	2687.2	16.9
1216.92	0.711	0.189	2687.3	16.9
1216.36	0.711	0.189	2687.3	17
1215.98	0.711	0.189	2687.9	16.9
1215.44	0.711	0.189	2688	16.9
1214.95	0.711	0.189	2688.1	17
1214.42	0.711	0.189	2688.1	16.9
1213.97	0.711	0.189	2688.8	16.9
1213.42	0.711	0.189	2688.8	16.9
1213.01	0.711	0.189	2688.9	16.9
1212.48	0.711	0.189	2689.5	16.9
1211.97	0.711	0.189	2689.6	16.9
1211.53	0.711	0.189	2689.6	16.9
1210.88	0.711	0.189	2690.3	17
1210.44	0.711	0.189	2690.3	16.8
1210.01	0.711	0.189	2690.4	16.9
1209.49	0.711	0.189	2690.5	16.9
1208.99	0.711	0.189	2691.1	16.9
1208.54	0.711	0.189	2691.1	16.9
1208.04	0.711	0.189	2691.2	16.9
1207.54	0.711	0.189	2691.8	16.9
1206.99	0.711	0.189	2691.9	16.8
1206.56	0.711	0.189	2691.9	16.9
1206.05	0.711	0.189	2692	16.9
1205.62	0.711	0.189	2692.6	16.9
1205.15	0.711	0.189	2692.7	16.9
1204.59	0.711	0.189	2692.8	16.8
1204.1	0.711	0.189	2693.4	16.9
1203.64	0.711	0.189	2693.4	16.8
1203.15	0.711	0.189	2693.5	16.8
1202.72	0.711	0.189	2693.6	16.9
1202.28	0.711	0.189	2694.2	16.9
1201.77	0.711	0.189	2694.2	17
1201.21	0.711	0.189	2694.3	17
1200.68	0.711	0.189	2694.9	17
1200.22	0.711	0.189	2695	17
1199.8	0.711	0.189	2695.1	17
1199.32	0.711	0.189	2695.1	17
1198.78	0.711	0.189	2695.7	17
1198.27	0.711	0.189	2695.8	17
1197.8	0.711	0.189	2695.9	17
1197.31	0.711	0.189	2696.5	17
1196.88	0.711	0.189	2696.5	17
1196.43	0.711	0.189	2696.6	17
1195.89	0.711	0.189	2696.7	17
1195.46	0.711	0.189	2697.3	17
1194.96	0.711	0.189	2697.4	17
1194.56	0.711	0.189	2697.4	17
1194.02	0.711	0.189	2698	17
1193.5	0.711	0.189	2698.1	17
1192.98	0.711	0.189	2698.2	17
1192.57	0.711	0.189	2698.2	17
1192.11	0.711	0.189	2698.8	17
1191.58	0.711	0.189	2698.9	17
1191.11	0.711	0.189	2699	17
1190.66	0.711	0.189	2699	17
1190.16	0.711	0.189	2699.6	17
1189.73	0.711	0.189	2699.7	17
1189.28	0.711	0.189	2699.8	17
1188.83	0.711	0.189	2699.8	17
1188.3	0.711	0.189	2700.5	17
1187.81	0.711	0.189	2700.5	17
1187.45	0.711	0.189	2701.1	17
1186.91	0.711	0.189	2701.2	17
1186.41	0.711	0.189	2701.3	17
1185.99	0.711	0.189	2701.3	17
1185.54	0.711	0.189	2701.4	17
1185.01	0.711	0.189	2702	17
1184.6	0.711	0.189	2702	17
1184.12	0.711	0.189	2702.1	17
1183.61	0.711	0.189	2702.7	17
1183.13	0.711	0.189	2702.8	17
1182.73	0.711	0.189	2702.9	17
1182.16	0.711	0.189	2702.9	16.9
1181.81	0.711	0.189	2703.5	17
1181.31	0.711	0.189	2703.6	17
1180.85	0.711	0.189	2703.7	17
1180.33	0.711	0.189	2703.7	17
1179.89	0.711	0.189	2704.3	17
1179.36	0.711	0.189	2704.4	17
1178.89	0.711	0.189	2704.5	17
1178.41	0.711	0.189	2704.5	17
1177.9	0.711	0.189	2704.6	17
1177.5	0.711	0.189	2705.2	17
1176.98	0.711	0.189	2705.3	17
1176.59	0.711	0.189	2705.3	17
1176.05	0.711	0.189	2705.4	17
1175.61	0.711	0.189	2706	17
1175.08	0.711	0.189	2706.1	17
1174.63	0.711	0.189	2706.1	17
1174.12	0.711	0.189	2706.2	17
1173.69	0.711	0.189	2706.8	17
1173.3	0.711	0.189	2706.9	17
1172.82	0.711	0.189	2706.9	17
1172.26	0.711	0.189	2707	17
1171.87	0.711	0.189	2707.1	17
1171.46	0.711	0.189	2707.7	17
1170.96	0.711	0.189	2707.7	17
1170.52	0.711	0.189	2707.8	17
1170.07	0.711	0.189	2707.9	17
1169.66	0.711	0.189	2707.9	17
1169.12	0.711	0.189	2708.5	17
1168.76	0.711	0.189	2708.6	17
1168.3	0.711	0.189	2708.7	17
1167.83	0.711	0.189	2708.7	17
1167.41	0.711	0.189	2709.3	17
1166.99	0.711	0.189	2709.4	17
1166.45	0.711	0.189	2709.5	17
1166	0.711	0.189	2709.5	16.9
1165.63	0.711	0.189	2709.6	16.9
1165.1	0.711	0.189	2710.2	17
1164.76	0.711	0.189	2710.2	17
1164.26	0.711	0.189	2710.3	16.9
1163.76	0.711	0.189	2710.4	16.9
1163.4	0.711	0.189	2711	17
1162.95	0.711	0.189	2711	40.9
1162.44	0.711	0.189	2711.1	38.8
1162.02	0.711	0.189	2711.7	39.1
1161.58	0.711	0.189	2711.8	38.5
1161.15	0.711	0.189	2711.8	39.1
1160.74	0.711	0.189	2711.9	40.1
1160.21	0.711	0.189	2712.5	38.4
1159.79	0.711	0.189	2712.6	38.7
1159.41	0.711	0.189	2712.6	38.9
1158.96	0.711	0.189	2712.7	41.1
1158.48	0.711	0.189	2712.7	41
1158.02	0.711	0.189	2713.3	39
1157.69	0.711	0.189	2713.4	41
1157.17	0.711	0.189	2713.5	41.2
1156.73	0.711	0.189	2713.5	40.5
1156.28	0.711	0.189	2713.6	41.2
1155.86	0.711	0.189	2714.2	41.2
1155.43	0.711	0.189	2714.3	41.2
1154.97	0.711	0.189	2714.3	41.3
1154.62	0.711	0.189	2714.4	40.9
1154.1	0.711	0.189	2714.4	40.9
1153.64	0.711	0.189	2715	40.9
1284.12	0.671	0.179	2938.3	135.9
1283.54	0.671	0.179	2938.9	136.9
1283.1	0.671	0.179	2939	136.9
1282.62	0.671	0.179	2939.6	138.9
1282.03	0.671	0.179	2939.7	137
1281.59	0.671	0.179	2939.7	136.8
1281.11	0.671	0.179	2939.8	136.1
1280.54	0.671	0.179	2940.4	136.6
1280.11	0.671	0.179	2940.5	135.9
1279.53	0.671	0.179	2941.1	137.4
1279.03	0.671	0.179	2941.2	137.8
1278.5	0.671	0.179	2941.3	137
1277.98	0.671	0.179	2941.9	137.6
1277.47	0.671	0.179	2942	137.7
1277.01	0.671	0.179	2942	137
1276.41	0.671	0.179	2942.7	137.5
1275.94	0.671	0.179	2942.7	137.7
1275.4	0.671	0.179	2942.8	138.4
1274.88	0.671	0.179	2943.4	137.6
1274.32	0.671	0.179	2943.5	137.7
1273.86	0.671	0.179	2943.6	137.1
1273.32	0.671	0.179	2944.2	137.8
1272.82	0.671	0.179	2944.3	137.8
1272.2	0.671	0.179	2944.4	137.1
1271.71	0.671	0.179	2944.5	136.8
1271.21	0.671	0.179	2945.1	137.4
1270.65	0.671	0.179	2945.2	137.3
1270.12	0.671	0.179	2945.8	137.5
1269.61	0.671	0.179	2945.9	137.4
1269.09	0.671	0.179	2945.9	137.2
1268.57	0.671	0.179	2946.6	137.7
1267.99	0.671	0.179	2946.6	137.1
1267.5	0.671	0.179	2946.7	137
1266.92	0.671	0.179	2947.4	137.9
1266.41	0.671	0.179	2947.4	137.6
1265.87	0.671	0.179	2947.5	138.4
1265.39	0.671	0.179	2948.1	137.9
1264.83	0.671	0.179	2948.2	137.4
1264.27	0.671	0.179	2948.3	138.7
1263.75	0.671	0.179	2948.9	137.9
1263.24	0.671	0.179	2949	137.8
1262.69	0.671	0.179	2949.1	138.8
1262.15	0.671	0.179	2949.1	137.3
1261.59	0.671	0.179	2949.8	137.7
1261.13	0.671	0.179	2949.8	138.7
1260.54	0.671	0.179	2949.9	137.4
1259.94	0.671	0.179	2950.6	137.9
1259.39	0.671	0.179	2950.6	138.7
1258.95	0.671	0.179	2950.7	137.7
1258.43	0.671	0.179	2951.3	138.1
1257.82	0.671	0.179	2951.4	136.6
1257.36	0.671	0.179	2951.5	139.2
1256.84	0.671	0.179	2952.1	137.9
1256.27	0.671	0.179	2952.2	136.7
1255.77	0.671	0.179	2952.3	139.5
1255.25	0.671	0.179	2952.4	137.2
1254.62	0.671	0.179	2953	136.9
1254.12	0.671	0.179	2953.1	139.4
1253.59	0.671	0.179	2953.1	138.9
1253.06	0.671	0.179	2953.2	136.3
1252.55	0.671	0.179	2953.8	139.5
1252.04	0.671	0.179	2953.9	139.6
1251.48	0.671	0.179	2954	138.8
1250.95	0.671	0.179	2954.6	137.2
1250.46	0.671	0.179	2954.7	139.7
1249.91	0.671	0.179	2954.8	15.9
1249.33	0.671	0.179	2954.9	15.9
1248.92	0.671	0.179	2955.5	16
1248.29	0.671	0.179	2955.6	15.9
1247.84	0.671	0.179	2955.6	15.9
1247.25	0.671	0.179	2955.7	16
1246.75	0.671	0.179	2956.3	15.9
1246.24	0.671	0.179	2956.4	15.9
1245.62	0.671	0.179	2956.5	15.9
1245.13	0.671	0.179	2956.6	15.9
1244.56	0.671	0.179	2957.2	15.9
1243.95	0.671	0.179	2957.3	15.9
1243.43	0.671	0.179	2957.4	15.9
1242.85	0.671	0.179	2958	15.9
1242.41	0.671	0.179	2958.1	15.9
1241.86	0.671	0.179	2958.2	15.9
1241.37	0.671	0.179	2958.2	15.9
1240.8	0.671	0.179	2958.9	15.9
1240.34	0.671	0.179	2958.9	15.9
1239.8	0.671	0.179	2959	15.9
1239.19	0.671	0.179	2959.6	15.9
1238.69	0.671	0.179	2959.7	15.9
1238.18	0.671	0.179	2959.8	15.9
1237.66	0.671	0.179	2959.9	15.9
1237.15	0.671	0.179	2960.5	15.9
1236.59	0.671	0.179	2960.6	15.9
1236.12	0.671	0.179	2960.6	15.9
1235.57	0.671	0.179	2960.7	15.9
1235.01	0.671	0.179	2961.4	15.9
1234.58	0.671	0.179	2961.4	15.9
1234	0.671	0.179	2961.5	15.9
1233.54	0.671	0.179	2961.6	15.9
1233.01	0.671	0.179	2962.2	15.9
1232.52	0.671	0.179	2962.3	15.9
1232.02	0.671	0.179	2962.4	15.9
1231.53	0.671	0.179	2962.4	15.9
1230.98	0.671	0.179	2963.1	15.9
1230.41	0.671	0.179	2963.1	15.9
1229.95	0.671	0.179	2963.2	15.9
1229.36	0.671	0.179	2963.3	15.9
1228.88	0.671	0.179	2963.9	15.9
1228.35	0.671	0.179	2964	15.9
1227.96	0.671	0.179	2964	15.9
1227.37	0.671	0.179	2964.1	15.9
1226.88	0.671	0.179	2964.8	15.9
1226.44	0.671	0.179	2964.8	15.9
1225.92	0.671	0.179	2964.9	15.9
1225.28	0.671	0.179	2965	15.9
1224.84	0.671	0.179	2965.6	15.9
1224.35	0.671	0.179	2965.7	15.9
1223.79	0.671	0.179	2965.8	15.9
1223.3	0.671	0.179	2965.8	15.9
1222.76	0.671	0.179	2966.5	15.8
1222.3	0.671	0.179	2966.5	15.9
1221.7	0.671	0.179	2966.6	15.9
1221.29	0.671	0.179	2966.7	15.8
1220.78	0.671	0.179	2967.3	15.9
1220.26	0.671	0.179	2967.4	15.9
1219.7	0.671	0.179	2967.5	15.9
1219.19	0.671	0.179	2967.5	15.8
1218.73	0.671	0.179	2967.6	15.8
1218.34	0.671	0.179	2968.2	15.9
1217.79	0.671	0.179	2968.3	15.8
1217.18	0.671	0.179	2968.4	15.9
1216.76	0.671	0.179	2969	15.9
1216.15	0.671	0.179	2969.1	15.9
1215.68	0.671	0.179	2969.2	15.8
1215.22	0.671	0.179	2969.2	15.9
1214.69	0.671	0.179	2969.3	15.9
1214.22	0.671	0.179	2969.9	15.8
1213.74	0.671	0.179	2970	15.8
1213.22	0.671	0.179	2970.1	15.8
1212.7	0.671	0.179	2970.7	15.9
1212.28	0.671	0.179	2970.8	15.8
1211.72	0.671	0.179	2970.8	15.8
1211.23	0.671	0.179	2970.9	15.8
1210.7	0.671	0.179	2971.5	15.8
1210.27	0.671	0.179	2971.6	15.9
1209.78	0.671	0.179	2971.7	15.9
1209.29	0.671	0.179	2971.7	15.8
1208.79	0.671	0.179	2971.8	15.8
1208.31	0.671	0.179	2972.4	15.8
1207.84	0.671	0.179	2972.5	15.9
1207.34	0.671	0.179	2972.6	15.8
1206.8	0.671	0.179	2972.7	15.8
1206.3	0.671	0.179	2972.7	15.8
1205.88	0.671	0.179	2973.4	15.8
1205.42	0.671	0.179	2973.4	15.8
1204.81	0.671	0.179	2973.5	15.8
1204.37	0.671	0.179	2973.6	15.8
1203.86	0.671	0.179	2974.2	15.8
1203.48	0.671	0.179	2974.3	15.8
1373.92	0.632	0.168	3095.1	10.6
1373.48	0.632	0.168	3095.1	10.6
1372.86	0.632	0.168	3095.2	10.6
1372.31	0.632	0.168	3095.3	10.6
1371.75	0.632	0.168	3095.9	10.6
1371.2	0.632	0.168	3096	10.6
1370.57	0.632	0.168	3096.1	10.6
1369.9	0.632	0.168	3096.8	10.6
1369.34	0.632	0.168	3096.9	10.6
1368.74	0.632	0.168	3096.9	10.6
1368.17	0.632	0.168	3097	10.7
1367.54	0.632	0.168	3097.7	10.6
1366.95	0.632	0.168	3097.8	10.6
1366.28	0.632	0.168	3097.9	10.7
1365.67	0.632	0.168	3098.5	10.6
1365.06	0.632	0.168	3098.6	10.6
1364.37	0.632	0.168	3098.7	10.7
1363.77	0.632	0.168	3099.3	10.7
1363.13	0.632	0.168	3099.4	10.6
1362.43	0.632	0.168	3099.6	10.7
1361.88	0.632	0.168	3100.2	10.7
1361.25	0.632	0.168	3100.3	10.7
1360.59	0.632	0.168	3100.4	10.7
1359.95	0.632	0.168	3101	10.7
1359.32	0.632	0.168	3101.1	10.7
1358.7	0.632	0.168	3101.2	10.7
1357.99	0.632	0.168	3101.3	10.7
1357.39	0.632	0.168	3102	10.7
1356.72	0.632	0.168	3102.1	10.7
1356.09	0.632	0.168	3102.2	10.7
1355.37	0.632	0.168	3102.8	10.7
1354.72	0.632	0.168	3102.9	10.7
1354.06	0.632	0.168	3103	10.7
1353.35	0.632	0.168	3103.7	10.7
1352.72	0.632	0.168	3103.8	10.8
1351.97	0.632	0.168	3103.9	10.8
1351.34	0.632	0.168	3104.5	10.8
1350.7	0.632	0.168	3104.6	10.8
1350.09	0.632	0.168	3104.7	10.8
1349.32	0.632	0.168	3104.8	10.8
1348.71	0.632	0.168	3105.5	10.8
1348.06	0.632	0.168	3105.6	10.8
1347.45	0.632	0.168	3106.2	10.8
1346.78	0.632	0.168	3106.3	10.8
1346.09	0.632	0.168	3106.4	10.8
1345.46	0.632	0.168	3107.1	10.8
1344.84	0.632	0.168	3107.2	10.9
1344.18	0.632	0.168	3107.3	10.8
1343.51	0.632	0.168	3107.9	10.9
1342.84	0.632	0.168	3108	10.8
1342.17	0.632	0.168	3108.1	10.9
1341.59	0.632	0.168	3108.8	10.9
1340.93	0.632	0.168	3108.9	10.8
1340.25	0.632	0.168	3109	10.9
1339.62	0.632	0.168	3109.6	10.9
1338.99	0.632	0.168	3109.7	10.9
1338.23	0.632	0.168	3109.8	10.9
1337.57	0.632	0.168	3110.5	10.9
1336.94	0.632	0.168	3110.6	10.9
1336.28	0.632	0.168	3110.7	10.9
1335.63	0.632	0.168	3111.3	10.9
1334.97	0.632	0.168	3111.4	10.9
1334.35	0.632	0.168	3111.5	10.9
1333.67	0.632	0.168	3112.2	10.9
1332.96	0.632	0.168	3112.3	10.9
1332.38	0.632	0.168	3112.4	10.9
1331.77	0.632	0.168	3113	11
1331.11	0.632	0.168	3113.1	10.9
1330.44	0.632	0.168	3113.2	11
1329.77	0.632	0.168	3113.8	11
1329.18	0.632	0.168	3113.9	10.9
1328.57	0.632	0.168	3114	11
1327.86	0.632	0.168	3114.7	11
1327.19	0.632	0.168	3114.8	11
1326.67	0.632	0.168	3114.9	11
1325.98	0.632	0.168	3115.5	11
1325.27	0.632	0.168	3115.6	11
1324.56	0.632	0.168	3115.7	11
1323.91	0.632	0.168	3116.4	11
1323.26	0.632	0.168	3116.5	11
1322.66	0.632	0.168	3116.6	11.1
1321.99	0.632	0.168	3117.2	11.1
1321.37	0.632	0.168	3117.3	11
1320.7	0.632	0.168	3117.4	11.1
1320.03	0.632	0.168	3118.1	11.1
1319.51	0.632	0.168	3118.2	11
1318.86	0.632	0.168	3118.3	11.1
1318.22	0.632	0.168	3118.9	11.1
1317.55	0.632	0.168	3119	11.1
1316.96	0.632	0.168	3119.1	11.1
1316.33	0.632	0.168	3119.7	11.1
1315.73	0.632	0.168	3119.8	11.1
1315.13	0.632	0.168	3119.9	11.1
1314.47	0.632	0.168	3120.6	11.1
1313.86	0.632	0.168	3120.7	11.1
1313.24	0.632	0.168	3121.3	11.2
1312.67	0.632	0.168	3121.4	11.2
1311.98	0.632	0.168	3121.5	11.1
1311.4	0.632	0.168	3121.6	11.2
1310.68	0.632	0.168	3122.3	11.2
1310.16	0.632	0.168	3122.3	11.1
1309.53	0.632	0.168	3122.4	11.2
1308.96	0.632	0.168	3123.1	11.1
1308.2	0.632	0.168	3123.2	11.1
1307.67	0.632	0.168	3123.3	11.2
1307.02	0.632	0.168	3123.9	11.2
1306.43	0.632	0.168	3124	11.2
1305.81	0.632	0.168	3124.1	11.2
1305.26	0.632	0.168	3124.7	11.2
1304.61	0.632	0.168	3124.8	11.2
1303.95	0.632	0.168	3124.9	11.2
1303.41	0.632	0.168	3125.6	11.2
1302.72	0.632	0.168	3125.7	11.2
1302.11	0.632	0.168	3125.8	11.2
1301.56	0.632	0.168	3126.4	11.3
1300.9	0.632	0.168	3126.5	11.2
1300.33	0.632	0.168	3126.6	11.2
1299.65	0.632	0.168	3126.7	11.3
1299.08	0.632	0.168	3127.3	11.2
1298.54	0.632	0.168	3127.4	11.2
1297.89	0.632	0.168	3127.5	11.3
1297.37	0.632	0.168	3128.2	11.2
1296.73	0.632	0.168	3128.3	11.3
1296.12	0.632	0.168	3128.3	11.3
1295.54	0.632	0.168	3129	11.3
1294.91	0.632	0.168	3129.1	11.3
1294.32	0.632	0.168	3129.2	11.3
1293.66	0.632	0.168	3129.8	11.3
1293.16	0.632	0.168	3129.9	11.3
1292.55	0.632	0.168	3130	11.3
1291.96	0.632	0.168	3130.6	11.4
1291.33	0.632	0.168	3130.7	11.3
1290.7	0.632	0.168	3130.8	11.3
1290.15	0.632	0.168	3131.5	11.3
1289.56	0.632	0.168	3131.6	11.4
1288.95	0.632	0.168	3131.6	11.3
1288.44	0.632	0.168	3132.3	11.4
1287.81	0.632	0.168	3132.4	11.4
1287.21	0.632	0.168	3133	11.4
1286.59	0.632	0.168	3133.1	11.4
1286.13	0.632	0.168	3133.2	11.4
1285.51	0.632	0.168	3133.8	11.9
1284.8	0.632	0.168	3133.9	12.1
1284.3	0.632	0.168	3134	12.2
1283.66	0.632	0.168	3134.7	12.4
1283.12	0.632	0.168	3134.7	12.5
1282.6	0.632	0.168	3134.8	12.5
1282.04	0.632	0.168	3135.5	12.6
1281.39	0.632	0.168	3135.6	12.6
1280.76	0.632	0.168	3135.7	12.7
1280.19	0.632	0.168	3136.3	12.7
1279.63	0.632	0.168	3136.4	12.8
1279.11	0.632	0.168	3136.5	12.8
1278.52	0.632	0.168	3137.1	12.7
1277.96	0.632	0.168	3137.2	11.9
1277.36	0.632	0.168	3137.3	11.8
1276.89	0.632	0.168	3137.9	11.9
1276.4	0.632	0.168	3138	11.8
1275.92	0.632	0.168	3138.1	11.8
1275.56	0.632	0.168	3138.7	11.8
1275.05	0.632	0.168	3138.7	11.8
1274.67	0.632	0.168	3138.8	11.8
1274.41	0.632	0.168	3138.8	11.8
1274.03	0.632	0.168	3139.4	11.8
1373.89	0.593	0.157	3244.7	119
1373.31	0.593	0.157	3244.8	119.9
1372.74	0.593	0.157	3245.4	118.8
1372.08	0.593	0.157	3245.5	120.3
1371.49	0.593	0.157	3246.1	118.5
1370.92	0.593	0.157	3246.2	118.9
1370.31	0.593	0.157	3246.9	117.1
1369.69	0.593	0.157	3247	117.6
1369.16	0.593	0.157	3247.6	116.9
1368.53	0.593	0.157	3247.7	117.5
1367.95	0.593	0.157	3248.3	117.5
1367.26	0.593	0.157	3248.5	116.8
1366.68	0.593	0.157	3249.1	116.2
1366.08	0.593	0.157	3249.2	115.9
1365.52	0.593	0.157	3249.8	116
1364.89	0.593	0.157	3249.9	115.6
1364.28	0.593	0.157	3250.6	115.7
1363.68	0.593	0.157	3250.7	115.9
1363.05	0.593	0.157	3251.3	114.5
1362.43	0.593	0.157	3251.4	114.2
1361.75	0.593	0.157	3252.1	114.6
1361.13	0.593	0.157	3252.7	113.7
1360.49	0.593	0.157	3252.8	114.5
1359.88	0.593	0.157	3253.5	114.5
1359.19	0.593	0.157	3253.6	113.7
1358.61	0.593	0.157	3254.2	113.4
1358.01	0.593	0.157	3254.3	114.4
1357.4	0.593	0.157	3255	113.4
1356.8	0.593	0.157	3255	112.6
1356.14	0.593	0.157	3255.7	112.5
1355.51	0.593	0.157	3255.8	112.3
1354.86	0.593	0.157	3256.5	112.7
1354.15	0.593	0.157	3257.1	111
1353.48	0.593	0.157	3257.2	112.7
1352.81	0.593	0.157	3257.9	110.7
1352.21	0.593	0.157	3258	111.5
1351.62	0.593	0.157	3258.6	110.6
1350.89	0.593	0.157	3259.3	110.8
1350.19	0.593	0.157	3259.4	110.2
1349.53	0.593	0.157	3260	109.6
1348.99	0.593	0.157	3260.1	110.4
1348.33	0.593	0.157	3260.8	109.5
1347.6	0.593	0.157	3261.4	108.1
1346.98	0.593	0.157	3261.5	109
1346.4	0.593	0.157	3262.2	108.1
1345.64	0.593	0.157	3262.3	109.3
1345.03	0.593	0.157	3263	107.7
1344.34	0.593	0.157	3263.1	108.3
1343.71	0.593	0.157	3263.7	107.8
1343.16	0.593	0.157	3264.3	107.2
1342.57	0.593	0.157	3264.4	107.4
1341.75	0.593	0.157	3265.1	106.7
1341.1	0.593	0.157	3265.8	106.9
1340.44	0.593	0.157	3265.9	105.8
1339.78	0.593	0.157	3266.5	107.1
1339.07	0.593	0.157	3266.6	106.7
1338.37	0.593	0.157	3267.3	106
1337.81	0.593	0.157	3267.9	106.3
1337.12	0.593	0.157	3268.1	105.3
1336.47	0.593	0.157	3268.7	104.2
1335.86	0.593	0.157	3268.8	105.8
1335.16	0.593	0.157	3269.5	104.9
1334.54	0.593	0.157	3269.6	105.2
1333.8	0.593	0.157	3270.2	104.1
1333.11	0.593	0.157	3270.9	104.1
1332.51	0.593	0.157	3271	103.6
1331.87	0.593	0.157	3271.6	103.8
1331.2	0.593	0.157	3271.7	103.5
1330.59	0.593	0.157	3272.4	102.7
1329.95	0.593	0.157	3273	103.7
1329.31	0.593	0.157	3273.1	102.9
1328.72	0.593	0.157	3273.8	101.9
1328.1	0.593	0.157	3273.9	102.9
1327.5	0.593	0.157	3274.5	102.1
1326.89	0.593	0.157	3275.2	101.3
1326.26	0.593	0.157	3275.3	102.2
1325.59	0.593	0.157	3275.9	100.9
1324.94	0.593	0.157	3276	101.6
1324.37	0.593	0.157	3276.7	100.7
1323.76	0.593	0.157	3277.3	100.6
1323.05	0.593	0.157	3277.4	100.1
1322.47	0.593	0.157	3278.1	99.9
1321.8	0.593	0.157	3278.7	99.1
1321.14	0.593	0.157	3278.8	99
1320.56	0.593	0.157	3279.5	99
1320.05	0.593	0.157	3279.6	99.2
1319.31	0.593	0.157	3280.2	96.8
1318.68	0.593	0.157	3280.9	98.1
1317.99	0.593	0.157	3281	97.8
1317.41	0.593	0.157	3281.6	96.4
1316.65	0.593	0.157	3282.3	97.4
1316.11	0.593	0.157	3282.4	95.9
1315.53	0.593	0.157	3283	96.1
1314.83	0.593	0.157	3283.7	95.5
1314.17	0.593	0.157	3283.8	95.5
1313.56	0.593	0.157	3284.5	94.7
1312.92	0.593	0.157	3284.6	95.4
1312.32	0.593	0.157	3285.2	94.5
1311.69	0.593	0.157	3285.8	95.2
1311	0.593	0.157	3286	94.8
1310.46	0.593	0.157	3286.6	93.1
1309.76	0.593	0.157	3286.7	93.6
1309.27	0.593	0.157	3287.3	93
1308.64	0.593	0.157	3288	93.3
1307.95	0.593	0.157	3288.1	92.6
1307.41	0.593	0.157	3288.7	92
1306.8	0.593	0.157	3288.8	92.7
1306.11	0.593	0.157	3289.5	91
1305.46	0.593	0.157	3289.6	92.6
1304.94	0.593	0.157	3290.2	91.3
1304.28	0.593	0.157	3290.3	90.4
1303.73	0.593	0.157	3291	91.2
1303.1	0.593	0.157	3291.6	90.6
1302.5	0.593	0.157	3291.7	90.4
1301.96	0.593	0.157	3292.4	90
1301.38	0.593	0.157	3292.5	90.4
1300.72	0.593	0.157	3293.1	90.3
1299.97	0.593	0.157	3293.2	91
1299.4	0.593	0.157	3293.9	89.6
1298.9	0.593	0.157	3294	89
1298.21	0.593	0.157	3294.6	88.9
1297.7	0.593	0.157	3294.7	88.8
1297.09	0.593	0.157	3295.3	89.6
1296.5	0.593	0.157	3295.4	88.6
1295.88	0.593	0.157	3296.1	89.7
1295.37	0.593	0.157	3296.2	88.7
1294.7	0.593	0.157	3296.8	88.4
1294.11	0.593	0.157	3296.9	89.2
1293.46	0.593	0.157	3297.6	88.6
1292.82	0.593	0.157	3297.7	88.5
1292.27	0.593	0.157	3298.3	88.8
1291.7	0.593	0.157	3298.4	88.8
1291.11	0.593	0.157	3299.1	88.6
1290.49	0.593	0.157	3299.2	88.3
1289.98	0.593	0.157	3299.8	89
1289.34	0.593	0.157	3299.9	88.8
1288.79	0.593	0.157	3300.5	88.1
1288.15	0.593	0.157	3300.6	89.1
1287.52	0.593	0.157	3301.3	87.6
1286.97	0.593	0.157	3301.4	87.2
1286.43	0.593	0.157	3302	88.6
1285.84	0.593	0.157	3302.1	88.1
1285.27	0.593	0.157	3302.8	88.9
1284.75	0.593	0.157	3302.8	88.4
1284.18	0.593	0.157	3303.5	87.8
1283.47	0.593	0.157	3303.6	88.5
1282.87	0.593	0.157	3304.2	88.2
1282.26	0.593	0.157	3304.3	88.7
1281.77	0.593	0.157	3304.4	89
1281.19	0.593	0.157	3305.1	88
1280.7	0.593	0.157	3305.1	88
1280.06	0.593	0.157	3305.8	88
1279.42	0.593	0.157	3305.9	89.1
1278.93	0.593	0.157	3306.5	87.8
1278.38	0.593	0.157	3306.6	88.6
1277.74	0.593	0.157	3307.3	88.2
1277.26	0.593	0.157	3307.4	88.3
1276.57	0.593	0.157	3308	88.4
1276.08	0.593	0.157	3308.1	88.5
1275.44	0.593	0.157	3308.8	86.8
1274.97	0.593	0.157	3308.8	88.7
1274.41	0.593	0.157	3309.5	87.7
1273.85	0.593	0.157	3309.6	88.8
1273.26	0.593	0.157	3310.2	87.6
1272.67	0.593	0.157	3310.3	87.7
1272.14	0.593	0.157	3310.9	87.7
1271.59	0.593	0.157	3311	88.1
1271.03	0.593	0.157	3311.7	87.1
1270.47	0.593	0.157	3311.8	88.1
1269.91	0.593	0.157	3312.4	87.1
1269.34	0.593	0.157	3312.5	87.9
1268.72	0.593	0.157	3313.1	87.3
1268.18	0.593	0.157	3313.2	88.2
1267.63	0.593	0.157	3313.9	87.3
1267.1	0.593	0.157	3314	88.1
1266.56	0.593	0.157	3314.6	87.1
1265.94	0.593	0.157	3314.7	87.9
1265.35	0.593	0.157	3315.3	87.4
1264.84	0.593	0.157	3315.4	88.1
1264.33	0.593	0.157	3316.1	87.4
1263.72	0.593	0.157	3316.2	88.4
1263.16	0.593	0.157	3316.8	87.2
1262.6	0.593	0.157	3316.9	88.1
1262.11	0.593	0.157	3317.5	87.2
1261.53	0.593	0.157	3317.6	88.3
1260.98	0.593	0.157	3318.3	87.8
1260.44	0.593	0.157	3318.3	88.7
1259.77	0.593	0.157	3319	87.2
1259.32	0.593	0.157	3319.1	88.2
1258.78	0.593	0.157	3319.7	87.4
1258.28	0.593	0.157	3319.8	88.2
1257.69	0.593	0.157	3320.4	87.9
1257.13	0.593	0.157	3320.5	88.6
1256.55	0.593	0.157	3321.2	87.5
1256.04	0.593	0.157	3321.3	88.7
1255.5	0.593	0.157	3321.9	88.4
1254.93	0.593	0.157	3322	88.6
1254.35	0.593	0.157	3322.6	87.9
1253.79	0.593	0.157	3322.7	88.3
1253.33	0.593	0.157	3323.4	88.6
1252.67	0.593	0.157	3323.5	89.4
1252.25	0.593	0.157	3324.1	88.5
1251.62	0.593	0.157	3324.2	89.1
1251.21	0.593	0.157	3324.8	88.3
1250.63	0.593	0.157	3324.9	90
1250.1	0.593	0.157	3325.5	89.5
1249.5	0.593	0.157	3325.6	90.7
1249.04	0.593	0.157	3326.3	88.7
1248.59	0.593	0.157	3326.3	89.3
1248.03	0.593	0.157	3327	89.1
1247.46	0.593	0.157	3327.1	90.5
1246.94	0.593	0.157	3327.7	88.7
1246.5	0.593	0.157	3327.8	90.1
1245.96	0.593	0.157	3328.4	89.2
1245.44	0.593	0.157	3328.5	90.6
1244.85	0.593	0.157	3329.2	88.7
1244.26	0.593	0.157	3329.2	90.1
1243.83	0.593	0.157	3329.9	88.9
1243.26	0.593	0.157	3330	95.3
1242.7	0.593	0.157	3330.6	89.5
1242.21	0.593	0.157	3330.7	95.6
1241.66	0.593	0.157	3331.3	89
1241.13	0.593	0.157	3331.4	96.3
1240.7	0.593	0.157	3332	88.8
1240.15	0.593	0.157	3332.1	98.5
1239.58	0.593	0.157	3332.8	95.7
1239.03	0.593	0.157	3333.4	65.4
1238.54	0.593	0.157	3333.5	65.5
1238.09	0.593	0.157	3334.1	65.3
1237.5	0.593	0.157	3334.2	65.5
1236.95	0.593	0.157	3334.9	65.6
1236.53	0.593	0.157	3334.9	65.2
1235.95	0.593	0.157	3335.6	65.3
1235.47	0.593	0.157	3336.2	12.3
1234.92	0.593	0.157	3336.3	12.3
1234.46	0.593	0.157	3336.9	12.4
1233.94	0.593	0.157	3337	12.3
1233.4	0.593	0.157	3337.6	12.4
1232.88	0.593	0.157	3337.7	12.3
1232.32	0.593	0.157	3338.4	12.4
1231.79	0.593	0.157	3338.5	12.3
1231.32	0.593	0.157	3339.1	12.3
1230.7	0.593	0.157	3339.2	12.4
1230.38	0.593	0.157	3339.8	12.4
1229.83	0.593	0.157	3339.9	12.4
1229.28	0.593	0.157	3340.5	12.3
1228.87	0.593	0.157	3340.6	12.4
1228.3	0.593	0.157	3341.2	12.3
1227.82	0.593	0.157	3341.3	12.3
1227.42	0.593	0.157	3341.9	12.4
1226.84	0.593	0.157	3342	12.3
1226.38	0.593	0.157	3342.7	12.4
1225.86	0.593	0.157	3343.3	12.4
1225.3	0.593	0.157	3343.4	12.4
1224.87	0.593	0.157	3343.5	12.3
1224.41	0.593	0.157	3344.1	12.4
1223.9	0.593	0.157	3344.2	12.3
1373.49	0.553	0.147	3470.2	178
1372.94	0.553	0.147	3470.3	176.9
1372.49	0.553	0.147	3470.4	176.5
1372.01	0.553	0.147	3471	177.6
1371.54	0.553	0.147	3471.1	177.3
1370.92	0.553	0.147	3471.2	175.2
1370.37	0.553	0.147	3471.8	176.9
1369.81	0.553	0.147	3471.9	175.2
1369.16	0.553	0.147	3472.6	177.3
1368.55	0.553	0.147	3472.7	175.5
1367.98	0.553	0.147	3472.8	175.5
1367.45	0.553	0.147	3473.4	175.7
1366.92	0.553	0.147	3473.5	175.8
1366.28	0.553	0.147	3474.2	175.5
1365.71	0.553	0.147	3474.3	174.8
1365.07	0.553	0.147	3474.9	175.5
1364.45	0.553	0.147	3475	174.9
1363.94	0.553	0.147	3475.1	173.3
1363.3	0.553	0.147	3475.8	174.7
1362.73	0.553	0.147	3475.9	173.8
1362.21	0.553	0.147	3476.5	175
1361.53	0.553	0.147	3477.2	173.9
1360.81	0.553	0.147	3477.3	174.8
1360.12	0.553	0.147	3478	173.5
1359.62	0.553	0.147	3478.1	172.5
1359.12	0.553	0.147	3478.7	174.2
1358.5	0.553	0.147	3478.8	173.2
1357.86	0.553	0.147	3479.4	174.2
1357.3	0.553	0.147	3479.5	174.6
1356.68	0.553	0.147	3480.2	173.4
1355.97	0.553	0.147	3480.3	173
1355.4	0.553	0.147	3481	172.6
1354.77	0.553	0.147	3481.1	173.4
1354.14	0.553	0.147	3481.7	173
1353.45	0.553	0.147	3481.8	172.4
1352.82	0.553	0.147	3482.5	172.6
1352.31	0.553	0.147	3482.6	172.3
1351.64	0.553	0.147	3483.2	172.3
1351.19	0.553	0.147	3483.3	172.6
1350.42	0.553	0.147	3484	172.5
1349.7	0.553	0.147	3484.7	172.6
1348.96	0.553	0.147	3484.8	170.4
1348.32	0.553	0.147	3485.5	172.5
1347.77	0.553	0.147	3485.6	171.4
1347.14	0.553	0.147	3486.2	171.6
1346.49	0.553	0.147	3486.3	170.5
1345.81	0.553	0.147	3487	170.7
1345.18	0.553	0.147	3487.1	170.9
1344.45	0.553	0.147	3487.8	169.7
1343.77	0.553	0.147	3488.4	170.8
1343.19	0.553	0.147	3488.5	169.2
1342.58	0.553	0.147	3489.2	170.5
1341.93	0.553	0.147	3489.3	168.9
1341.25	0.553	0.147	3490	168.8
1340.72	0.553	0.147	3490.6	169.9
1340.21	0.553	0.147	3490.7	169.1
1339.57	0.553	0.147	3491.3	169.7
1339.05	0.553	0.147	3491.4	169.1
1338.49	0.553	0.147	3492.1	169.8
1337.92	0.553	0.147	3492.2	168.4
1337.18	0.553	0.147	3492.8	169.7
1336.38	0.553	0.147	3493.5	169.7
1335.73	0.553	0.147	3493.6	168.3
1335	0.553	0.147	3494.3	168.6
1334.44	0.553	0.147	3494.4	168.9
1333.79	0.553	0.147	3495.1	168.1
1333.2	0.553	0.147	3495.2	168.2
1332.55	0.553	0.147	3495.8	168.8
1331.8	0.553	0.147	3496.5	169.1
1331.12	0.553	0.147	3496.6	168
1330.54	0.553	0.147	3497.3	168.9
1330.11	0.553	0.147	3497.3	167.8
1329.45	0.553	0.147	3498	168.9
1328.87	0.553	0.147	3498.1	168
1328.35	0.553	0.147	3498.7	167.7
1327.74	0.553	0.147	3499.4	169.4
1327.18	0.553	0.147	3499.5	168.3
1326.55	0.553	0.147	3500.1	167.9
1325.94	0.553	0.147	3500.3	167.6
1325.28	0.553	0.147	3500.9	167.7
1324.37	0.553	0.147	3501.6	167.7
1323.69	0.553	0.147	3501.7	168.4
1322.98	0.553	0.147	3502.4	168.5
1322.29	0.553	0.147	3502.5	167.8
1321.79	0.553	0.147	3503.2	167.7
1320.98	0.553	0.147	3503.3	167.8
1320.3	0.553	0.147	3504	168
1319.75	0.553	0.147	3504.6	168.9
1319.1	0.553	0.147	3504.7	166.9
1318.41	0.553	0.147	3505.4	167.9
1317.76	0.553	0.147	3505.5	167.8
1317.17	0.553	0.147	3506.1	167.3
1316.68	0.553	0.147	3506.2	165.8
1316.08	0.553	0.147	3506.9	167.3
1315.47	0.553	0.147	3507	168.1
1314.78	0.553	0.147	3507.7	166.2
1314.35	0.553	0.147	3508.3	168.6
1313.7	0.553	0.147	3508.4	165.9
1312.94	0.553	0.147	3509.1	167.3
1312.41	0.553	0.147	3509.2	165.9
1311.82	0.553	0.147	3509.8	167.7
1311.25	0.553	0.147	3509.9	166.2
1310.63	0.553	0.147	3510.6	168.1
1309.97	0.553	0.147	3510.7	168.4
1309.43	0.553	0.147	3511.3	166.8
1308.87	0.553	0.147	3511.4	167.9
1308.27	0.553	0.147	3512.1	166.9
1307.64	0.553	0.147	3512.2	168
1306.82	0.553	0.147	3512.9	165.4
1306.25	0.553	0.147	3513	168.3
1305.61	0.553	0.147	3513.6	165.4
1304.95	0.553	0.147	3514.3	168.6
1304.39	0.553	0.147	3514.4	13.5
1303.8	0.553	0.147	3515	13.6
1303.1	0.553	0.147	3515.2	13.6
1302.61	0.553	0.147	3515.8	13.6
1302.02	0.553	0.147	3515.9	13.6
1301.31	0.553	0.147	3516.6	13.5
1300.88	0.553	0.147	3516.6	13.5
1300.2	0.553	0.147	3517.3	13.6
1299.54	0.553	0.147	3518	13.6
1299.1	0.553	0.147	3518	13.6
1298.44	0.553	0.147	3518.7	13.6
1297.96	0.553	0.147	3518.8	13.6
1297.48	0.553	0.147	3519.4	13.6
1296.75	0.553	0.147	3519.5	13.6
1296.22	0.553	0.147	3520.2	13.6
1295.63	0.553	0.147	3520.8	13.6
1294.97	0.553	0.147	3521	13.6
1294.45	0.553	0.147	3521.6	13.6
1293.99	0.553	0.147	3521.7	13.6
1293.4	0.553	0.147	3522.3	13.6
1292.8	0.553	0.147	3523	13.6
1292.13	0.553	0.147	3523.1	13.7
1291.59	0.553	0.147	3523.7	13.6
1291	0.553	0.147	3524.4	13.6
1290.28	0.553	0.147	3524.5	13.6
1289.69	0.553	0.147	3525.2	13.7
1288.96	0.553	0.147	3525.3	13.6
1288.45	0.553	0.147	3525.9	13.6
1287.86	0.553	0.147	3526.6	13.7
1287.29	0.553	0.147	3526.7	13.7
1286.74	0.553	0.147	3527.3	13.6
1286.26	0.553	0.147	3527.4	13.7
1285.58	0.553	0.147	3528.1	13.7
1285.06	0.553	0.147	3528.7	13.7
1284.51	0.553	0.147	3528.8	13.7
1283.93	0.553	0.147	3529.5	13.7
1283.39	0.553	0.147	3529.6	13.6
1282.94	0.553	0.147	3530.2	13.7
1282.26	0.553	0.147	3530.3	13.6
1281.7	0.553	0.147	3530.9	13.7
1281.13	0.553	0.147	3531.6	13.6
1280.59	0.553	0.147	3531.7	13.7
1279.93	0.553	0.147	3532.4	13.7
1279.32	0.553	0.147	3532.5	13.7
1278.56	0.553	0.147	3533.1	13.7
1278.16	0.553	0.147	3533.2	13.7
1277.48	0.553	0.147	3533.9	13.7
1277.05	0.553	0.147	3534	13.6
1276.59	0.553	0.147	3534.6	13.7
1275.83	0.553	0.147	3535.3	13.7
1275.33	0.553	0.147	3535.4	13.6
1274.87	0.553	0.147	3536	13.8
1274.26	0.553	0.147	3536.1	13.7
1273.72	0.553	0.147	3536.7	13.8
1273.2	0.553	0.147	3536.8	13.7
1423.92	0.514	0.136	3549.8	11.5
1423.28	0.514	0.136	3550	11.4
1422.8	0.514	0.136	3550.6	11.4
1422.18	0.514	0.136	3550.7	11.5
1421.56	0.514	0.136	3551.4	11.5
1420.87	0.514	0.136	3551.5	177.4
1420.29	0.514	0.136	3552.1	178.2
1419.6	0.514	0.136	3552.8	183.6
1418.89	0.514	0.136	3552.9	179.2
1418.09	0.514	0.136	3553.6	178
1417.35	0.514	0.136	3554.3	183.1
1416.67	0.514	0.136	3554.4	178.7
1415.85	0.514	0.136	3555.1	178.7
1415.01	0.514	0.136	3555.2	183.4
1414.4	0.514	0.136	3555.9	179.2
1413.65	0.514	0.136	3556.5	177.9
1412.86	0.514	0.136	3556.7	183.1
1412.11	0.514	0.136	3557.4	179.3
1411.47	0.514	0.136	3558	178.3
1410.69	0.514	0.136	3558.2	178.4
1410.02	0.514	0.136	3558.8	178.9
1409.41	0.514	0.136	3559.5	182.3
1408.6	0.514	0.136	3559.6	9.6
1407.77	0.514	0.136	3560.3	9.6
1407.11	0.514	0.136	3561	9.6
1406.38	0.514	0.136	3561.1	9.6
1405.59	0.514	0.136	3561.8	9.5
1404.85	0.514	0.136	3561.9	9.5
1404.16	0.514	0.136	3562.6	9.5
1403.29	0.514	0.136	3563.3	9.6
1402.59	0.514	0.136	3563.9	9.6
1401.86	0.514	0.136	3564.1	9.7
1401.08	0.514	0.136	3564.7	9.6
1400.48	0.514	0.136	3565.4	9.7
1399.65	0.514	0.136	3565.5	9.7
1398.91	0.514	0.136	3566.2	9.6
1398.24	0.514	0.136	3566.9	9.6
1397.51	0.514	0.136	3567.5	9.7
1396.77	0.514	0.136	3567.7	9.6
1396.06	0.514	0.136	3568.3	9.6
1395.32	0.514	0.136	3569	9.7
1394.58	0.514	0.136	3569.2	9.6
1393.79	0.514	0.136	3569.8	9.6
1393.03	0.514	0.136	3570.5	9.6
1392.43	0.514	0.136	3570.6	9.7
1391.63	0.514	0.136	3571.3	9.7
1390.89	0.514	0.136	3572	9.6
1390.14	0.514	0.136	3572.1	9.7
1389.47	0.514	0.136	3572.8	9.7
1388.73	0.514	0.136	3573.5	9.6
1388.01	0.514	0.136	3574.1	9.7
1387.41	0.514	0.136	3574.8	9.7
1386.59	0.514	0.136	3574.9	9.6
1385.86	0.514	0.136	3575.6	9.7
1385.07	0.514	0.136	3576.3	9.7
1384.37	0.514	0.136	3576.4	9.7
1383.62	0.514	0.136	3577.1	9.6
1382.96	0.514	0.136	3577.7	9.6
1382.21	0.514	0.136	3577.9	9.7
1381.53	0.514	0.136	3578.5	9.6
1380.88	0.514	0.136	3579.2	9.6
1380.04	0.514	0.136	3579.9	9.7
1379.5	0.514	0.136	3580	9.6
1378.74	0.514	0.136	3580.7	9.6
1378.03	0.514	0.136	3581.3	9.7
1377.38	0.514	0.136	3581.5	9.6
1376.44	0.514	0.136	3582.2	9.6
1375.84	0.514	0.136	3582.8	9.6
1375.19	0.514	0.136	3582.9	9.6
1374.48	0.514	0.136	3583.6	9.6
1373.76	0.514	0.136	3584.3	9.6
1373.01	0.514	0.136	3584.4	9.6
1372.18	0.514	0.136	3585.1	9.6
1371.57	0.514	0.136	3585.8	9.6
1370.87	0.514	0.136	3585.9	9.6
1370.1	0.514	0.136	3586.6	9.6
1369.54	0.514	0.136	3587.2	9.6
1368.83	0.514	0.136	3587.3	9.6
1368.03	0.514	0.136	3588	9.7
1367.36	0.514	0.136	3588.7	9.6
1366.74	0.514	0.136	3588.8	9.7
1365.97	0.514	0.136	3589.5	9.7
1365.22	0.514	0.136	3590.2	9.7
1364.63	0.514	0.136	3590.3	9.7
1363.86	0.514	0.136	3590.9	9.6
1363.21	0.514	0.136	3591.6	9.6
1362.7	0.514	0.136	3591.7	9.7
1362.04	0.514	0.136	3592.4	9.7
1361.2	0.514	0.136	3593.1	9.7
1360.52	0.514	0.136	3593.2	9.7
1359.87	0.514	0.136	3593.8	9.7
1359.1	0.514	0.136	3594	9.7
1358.52	0.514	0.136	3594.6	9.7
1357.9	0.514	0.136	3595.3	9.7
1357.15	0.514	0.136	3596	9.7
1356.55	0.514	0.136	3596.1	9.7
1355.82	0.514	0.136	3596.7	9.7
1355.17	0.514	0.136	3597.4	9.7
1354.6	0.514	0.136	3597.5	9.8
1353.9	0.514	0.136	3598.2	9.7
1353.22	0.514	0.136	3598.8	9.8
1352.57	0.514	0.136	3599	9.7
1351.67	0.514	0.136	3599.7	9.8
1351.11	0.514	0.136	3600.3	9.8
1350.52	0.514	0.136	3601	9.9
1349.75	0.514	0.136	3601.1	9.8
1349.1	0.514	0.136	3601.8	9.9
1348.41	0.514	0.136	3602.4	9.9
1347.62	0.514	0.136	3603.1	10
1346.97	0.514	0.136	3603.8	9.9
1346.25	0.514	0.136	3604.4	9.9
1345.79	0.514	0.136	3605.1	9.9
1345.23	0.514	0.136	3605.2	9.9
1344.48	0.514	0.136	3605.9	9.9
1343.87	0.514	0.136	3606.5	9.9
1343.16	0.514	0.136	3607.2	9.8
1342.33	0.514	0.136	3607.3	9.8
1341.67	0.514	0.136	3608	9.8
1341.1	0.514	0.136	3608.1	9.8
1340.43	0.514	0.136	3608.8	9.8
1339.88	0.514	0.136	3609.4	9.9
1339.23	0.514	0.136	3610.1	9.8
1338.5	0.514	0.136	3610.2	9.8
1337.93	0.514	0.136	3610.8	9.9
1337.32	0.514	0.136	3611.5	9.8
1336.85	0.514	0.136	3611.6	9.8
1336.1	0.514	0.136	3612.3	9.9
1335.51	0.514	0.136	3612.9	9.8
1334.89	0.514	0.136	3613	9.8
1334.19	0.514	0.136	3613.7	9.8
1333.33	0.514	0.136	3614.4	9.8
1332.83	0.514	0.136	3614.5	9.9
1332.05	0.514	0.136	3615.2	9.8
1331.41	0.514	0.136	3615.8	9.8
1330.77	0.514	0.136	3616	9.8
1330.29	0.514	0.136	3616.6	9.9
1329.7	0.514	0.136	3616.7	9.8
1329.38	0.514	0.136	3617.3	9.9
1328.95	0.514	0.136	3617.4	9.8
1328.71	0.514	0.136	3618	10
1328.32	0.514	0.136	3618	9.9

System: lithium fluoride + calcium fluoride + lanthanum trifluoride; phases: Liquid
Fixed: Pressure, kPa = 100
Property: Electrical conductivity, S/m (Liquid); method: Alternating current cell with electrodes
Temperature, K	Mole fraction of lithium fluoride	Mole fraction of calcium fluoride	Electrical conductivity, S/m	uncertainty
1164.83	0.79	0.21	0.062395	0.000584
1163.59	0.79	0.21	0.062335	0.000559
1162.12	0.79	0.21	0.062142	0.000615
1160.66	0.79	0.21	0.062006	0.000579
1159.22	0.79	0.21	0.061947	0.000633
1157.7	0.79	0.21	0.061682	0.000638
1156.19	0.79	0.21	0.061602	0.000607
1154.54	0.79	0.21	0.06131	0.000627
1152.99	0.79	0.21	0.061107	0.000529
1151.44	0.79	0.21	0.060952	0.000495
1149.87	0.79	0.21	0.060793	0.000472
1148.21	0.79	0.21	0.060575	0.000456
1146.53	0.79	0.21	0.060565	0.000471
1144.91	0.79	0.21	0.060331	0.000506
1143.17	0.79	0.21	0.060132	0.000586
1141.54	0.79	0.21	0.059885	0.000636
1139.91	0.79	0.21	0.059649	0.000678
1138.12	0.79	0.21	0.05927	0.000621
1136.44	0.79	0.21	0.059124	0.000589
1134.72	0.79	0.21	0.058881	0.000563
1133	0.79	0.21	0.05876	0.000504
1131.22	0.79	0.21	0.058645	0.000553
1129.55	0.79	0.21	0.058502	0.000401
1127.89	0.79	0.21	0.058312	0.000412
1126.09	0.79	0.21	0.058025	0.000453
1124.4	0.79	0.21	0.05824	0.000443
1122.7	0.79	0.21	0.05808	0.000391
1120.91	0.79	0.21	0.057801	0.000451
1119.17	0.79	0.21	0.057652	0.000499
1117.42	0.79	0.21	0.057563	0.0005
1115.65	0.79	0.21	0.057288	0.000467
1114	0.79	0.21	0.057185	0.000479
1112.27	0.79	0.21	0.057032	0.000471
1110.47	0.79	0.21	0.056816	0.000461
1108.82	0.79	0.21	0.056707	0.000432
1107.11	0.79	0.21	0.056539	0.000514
1105.32	0.79	0.21	0.056372	0.000511
1103.62	0.79	0.21	0.056339	0.000512
1101.92	0.79	0.21	0.056058	0.000504
1100.2	0.79	0.21	0.055864	0.000484
1098.52	0.79	0.21	0.055712	0.000535
1096.79	0.79	0.21	0.055599	0.000491
1095.12	0.79	0.21	0.055475	0.000468
1093.42	0.79	0.21	0.055248	0.000508
1091.77	0.79	0.21	0.055063	0.000521
1090.07	0.79	0.21	0.054963	0.000518
1088.37	0.79	0.21	0.05469	0.000517
1086.81	0.79	0.21	0.054549	0.000505
1085.07	0.79	0.21	0.054362	0.000472
1083.43	0.79	0.21	0.0542	0.000406
1081.79	0.79	0.21	0.054	0.000423
1080.13	0.79	0.21	0.053944	0.000327
1078.54	0.79	0.21	0.053855	0.000327
1076.81	0.79	0.21	0.053685	0.000239
1075.19	0.79	0.21	0.053697	0.000229
1073.52	0.79	0.21	0.053593	0.000253
1071.9	0.79	0.21	0.053745	0.000242
1070.37	0.79	0.21	0.053533	0.000264
1068.75	0.79	0.21	0.053333	0.000251
1067.11	0.79	0.21	0.053153	0.000495
1065.52	0.79	0.21	0.053101	0.000356
1063.85	0.79	0.21	0.053003	0.000271
1160.69	0.782	0.208	0.063806	0.000619
1159.84	0.782	0.208	0.063623	0.000565
1158.66	0.782	0.208	0.063555	0.001166
1157.26	0.782	0.208	0.063244	0.00093
1155.78	0.782	0.208	0.06305	0.000785
1154.24	0.782	0.208	0.062269	0.000823
1152.54	0.782	0.208	0.062151	0.000802
1150.93	0.782	0.208	0.061887	0.000754
1149.25	0.782	0.208	0.061615	0.000449
1147.74	0.782	0.208	0.061359	0.000442
1146.08	0.782	0.208	0.061239	0.000339
1144.33	0.782	0.208	0.061239	0.000427
1142.59	0.782	0.208	0.061127	0.000376
1140.88	0.782	0.208	0.061239	0.000366
1139.26	0.782	0.208	0.060773	0.000427
1137.42	0.782	0.208	0.060706	0.00045
1135.61	0.782	0.208	0.060501	0.000551
1133.96	0.782	0.208	0.060217	0.000446
1132.21	0.782	0.208	0.060116	0.000491
1130.46	0.782	0.208	0.059858	0.000451
1128.66	0.782	0.208	0.059702	0.000443
1126.97	0.782	0.208	0.059482	0.000412
1125.09	0.782	0.208	0.059382	0.000378
1123.4	0.782	0.208	0.059104	0.000358
1121.6	0.782	0.208	0.059162	0.000401
1119.88	0.782	0.208	0.058924	0.000358
1118.06	0.782	0.208	0.058808	0.000392
1116.28	0.782	0.208	0.05846	0.000434
1114.55	0.782	0.208	0.05847	0.0004
1112.83	0.782	0.208	0.058114	0.000323
1111.08	0.782	0.208	0.058059	0.000284
1109.26	0.782	0.208	0.057914	0.000326
1107.45	0.782	0.208	0.057976	0.000239
1105.69	0.782	0.208	0.057788	0.000303
1103.95	0.782	0.208	0.057628	0.000375
1102.24	0.782	0.208	0.057487	0.000444
1100.48	0.782	0.208	0.057259	0.000442
1098.64	0.782	0.208	0.056936	0.000444
1096.96	0.782	0.208	0.056816	0.000493
1095.2	0.782	0.208	0.056631	0.000447
1093.43	0.782	0.208	0.056471	0.000446
1091.64	0.782	0.208	0.056183	0.000505
1089.98	0.782	0.208	0.056086	0.000535
1088.24	0.782	0.208	0.055776	0.00051
1086.5	0.782	0.208	0.0555	0.000539
1084.83	0.782	0.208	0.055257	0.000495
1083.07	0.782	0.208	0.055159	0.000423
1081.45	0.782	0.208	0.054829	0.000443
1079.73	0.782	0.208	0.054825	0.000426
1078.08	0.782	0.208	0.054705	0.000464
1076.34	0.782	0.208	0.054389	0.00039
1074.75	0.782	0.208	0.054198	0.000497
1073	0.782	0.208	0.054006	0.000547
1071.3	0.782	0.208	0.05388	0.000509
1069.67	0.782	0.208	0.053605	0.0005
1067.94	0.782	0.208	0.053332	0.000505
1066.39	0.782	0.208	0.05315	0.000538
1064.69	0.782	0.208	0.052961	0.000513
1063.06	0.782	0.208	0.052775	0.000228
1061.45	0.782	0.208	0.05258	0.000293
1059.82	0.782	0.208	0.052412	0.000284
1058.26	0.782	0.208	0.052883	0.000213
1056.63	0.782	0.208	0.0526	0.000225
1055.1	0.782	0.208	0.052393	0.000231
1053.46	0.782	0.208	0.05227	0.000499
1051.84	0.782	0.208	0.052089	0.000461
1050.28	0.782	0.208	0.051889	0.000439
1048.68	0.782	0.208	0.05169	0.000461
1047.1	0.782	0.208	0.051501	0.000485
1045.5	0.782	0.208	0.051339	0.000447
1044.01	0.782	0.208	0.051181	0.000436
1042.45	0.782	0.208	0.050951	0.000473
1040.85	0.782	0.208	0.050835	0.000434
1162.68	0.774	0.206	0.063877	0.000682
1161.2	0.774	0.206	0.063787	0.000702
1159.68	0.774	0.206	0.063592	0.000509
1158.02	0.774	0.206	0.063086	0.000419
1156.31	0.774	0.206	0.06293	0.000469
1154.63	0.774	0.206	0.06295	0.000464
1152.86	0.774	0.206	0.062843	0.000287
1151.27	0.774	0.206	0.06262	0.000249
1149.44	0.774	0.206	0.062404	0.000319
1147.81	0.774	0.206	0.062465	0.000392
1146	0.774	0.206	0.062402	0.000479
1144.28	0.774	0.206	0.062284	0.00037
1142.49	0.774	0.206	0.062037	0.000481
1140.82	0.774	0.206	0.061555	0.000518
1139.01	0.774	0.206	0.061702	0.00056
1137.31	0.774	0.206	0.06135	0.000555
1135.49	0.774	0.206	0.061141	0.000463
1133.75	0.774	0.206	0.06087	0.000479
1131.97	0.774	0.206	0.060687	0.000516
1130.21	0.774	0.206	0.060379	0.000521
1128.43	0.774	0.206	0.060532	0.000486
1126.66	0.774	0.206	0.060063	0.000498
1124.84	0.774	0.206	0.059808	0.000427
1123.13	0.774	0.206	0.05966	0.00054
1121.31	0.774	0.206	0.05942	0.000387
1119.44	0.774	0.206	0.059273	0.000413
1117.7	0.774	0.206	0.059151	0.000369
1115.95	0.774	0.206	0.059058	0.000401
1114.18	0.774	0.206	0.058739	0.000459
1112.39	0.774	0.206	0.058705	0.000476
1110.58	0.774	0.206	0.058404	0.000454
1108.93	0.774	0.206	0.058081	0.000384
1107.15	0.774	0.206	0.057944	0.000471
1105.38	0.774	0.206	0.057896	0.000386
1103.58	0.774	0.206	0.05774	0.000354
1101.82	0.774	0.206	0.057461	0.00043
1100.13	0.774	0.206	0.0574	0.000537
1098.42	0.774	0.206	0.057151	0.000479
1096.63	0.774	0.206	0.056812	0.000383
1094.93	0.774	0.206	0.056494	0.000456
1093.2	0.774	0.206	0.056505	0.000419
1091.47	0.774	0.206	0.056474	0.000409
1089.77	0.774	0.206	0.056223	0.000405
1088.05	0.774	0.206	0.056069	0.000447
1086.4	0.774	0.206	0.055767	0.000505
1084.55	0.774	0.206	0.055446	0.000455
1082.93	0.774	0.206	0.05536	0.000452
1081.29	0.774	0.206	0.055199	0.000376
1079.56	0.774	0.206	0.05508	0.000374
1077.91	0.774	0.206	0.054953	0.000379
1076.26	0.774	0.206	0.054829	0.000429
1074.53	0.774	0.206	0.054539	0.000456
1072.91	0.774	0.206	0.054423	0.000463
1071.29	0.774	0.206	0.054135	0.000407
1069.62	0.774	0.206	0.053967	0.000394
1067.96	0.774	0.206	0.05383	0.000354
1066.39	0.774	0.206	0.053862	0.000368
1064.85	0.774	0.206	0.053607	0.000477
1063.13	0.774	0.206	0.053612	0.000422
1061.5	0.774	0.206	0.053303	0.000544
1059.87	0.774	0.206	0.052848	0.000518
1058.26	0.774	0.206	0.052883	0.000584
1056.63	0.774	0.206	0.0526	0.000503
1055.1	0.774	0.206	0.052393	0.0004
1053.46	0.774	0.206	0.05227	0.000499
1051.84	0.774	0.206	0.052089	0.000461
1050.28	0.774	0.206	0.051889	0.000439
1048.68	0.774	0.206	0.05169	0.000461
1047.1	0.774	0.206	0.051501	0.000485
1045.5	0.774	0.206	0.051339	0.000447
1044.01	0.774	0.206	0.051181	0.000436
1042.45	0.774	0.206	0.050951	0.000473
1040.85	0.774	0.206	0.050835	0.000434
1147.94	0.751	0.199	0.065529	0.011583
1146.24	0.751	0.199	0.065267	0.011458
1144.48	0.751	0.199	0.065212	0.011599
1142.72	0.751	0.199	0.065094	0.010871
1140.97	0.751	0.199	0.064829	0.011341
1139.14	0.751	0.199	0.064736	0.011762
1137.32	0.751	0.199	0.064509	0.011288
1135.6	0.751	0.199	0.064154	0.011163
1133.81	0.751	0.199	0.063819	0.011586
1132.04	0.751	0.199	0.0636	0.01139
1130.28	0.751	0.199	0.063615	0.011712
1128.47	0.751	0.199	0.063524	0.011824
1126.6	0.751	0.199	0.063335	0.009836
1124.92	0.751	0.199	0.06304	0.010649
1122.98	0.751	0.199	0.062991	0.010976
1121.25	0.751	0.199	0.062871	0.010851
1119.5	0.751	0.199	0.063064	0.011033
1117.7	0.751	0.199	0.062991	0.011288
1115.96	0.751	0.199	0.062754	0.011272
1114.17	0.751	0.199	0.062578	0.011578
1112.4	0.751	0.199	0.062264	0.011638
1110.61	0.751	0.199	0.062088	0.011212
1108.85	0.751	0.199	0.061862	0.010963
1107.06	0.751	0.199	0.061708	0.01142
1105.34	0.751	0.199	0.061599	0.011322
1103.6	0.751	0.199	0.061349	0.011168
1101.76	0.751	0.199	0.061209	0.011116
1100.11	0.751	0.199	0.060994	0.011396
1098.44	0.751	0.199	0.060671	0.010504
1096.67	0.751	0.199	0.060441	0.010889
1094.92	0.751	0.199	0.060228	0.011524
1093.17	0.751	0.199	0.059901	0.011234
1091.44	0.751	0.199	0.059637	0.010802
1089.69	0.751	0.199	0.059467	0.010614
1088.04	0.751	0.199	0.059737	0.010799
1086.26	0.751	0.199	0.05963	0.010708
1084.72	0.751	0.199	0.059414	0.011083
1082.95	0.751	0.199	0.059166	0.012048
1081.32	0.751	0.199	0.058944	0.011929
1079.56	0.751	0.199	0.058612	0.011793
1077.98	0.751	0.199	0.058603	0.011725
1076.25	0.751	0.199	0.058172	0.011444
1074.66	0.751	0.199	0.058207	0.011371
1072.97	0.751	0.199	0.057794	0.01133
1071.32	0.751	0.199	0.057509	0.010834
1069.73	0.751	0.199	0.057259	0.00943
1068.07	0.751	0.199	0.057146	0.009305
1066.49	0.751	0.199	0.05695	0.00915
1064.8	0.751	0.199	0.05675	0.00873
1063.14	0.751	0.199	0.056574	0.008735
1061.61	0.751	0.199	0.056467	0.008778
1060.04	0.751	0.199	0.056365	0.008867
1058.39	0.751	0.199	0.055987	0.00949
1056.84	0.751	0.199	0.05582	0.009331
1055.27	0.751	0.199	0.055658	0.010097
1053.65	0.751	0.199	0.055653	0.010142
1052.06	0.751	0.199	0.055463	0.010186
1050.55	0.751	0.199	0.055487	0.010261
1049.04	0.751	0.199	0.055118	0.010845
1047.51	0.751	0.199	0.054895	0.010452
1045.87	0.751	0.199	0.054693	0.010861
1044.4	0.751	0.199	0.054597	0.010435
1042.87	0.751	0.199	0.054405	0.010386
1041.36	0.751	0.199	0.054241	0.010352
1039.84	0.751	0.199	0.05401	0.010378
1038.34	0.751	0.199	0.053822	0.01042
1036.83	0.751	0.199	0.053527	0.010431
1035.3	0.751	0.199	0.053378	0.010621
1161.37	0.711	0.189	0.060235	0.000181
1160.47	0.711	0.189	0.059726	0.000212
1159.49	0.711	0.189	0.059833	0.0001
1158.34	0.711	0.189	0.059432	8.8e-05
1157.23	0.711	0.189	0.060117	0.000532
1155.96	0.711	0.189	0.059952	0.000335
1154.67	0.711	0.189	0.059914	0.000468
1153.3	0.711	0.189	0.059403	0.000156
1151.73	0.711	0.189	0.059024	0.000686
1150.36	0.711	0.189	0.058776	0.000714
1148.73	0.711	0.189	0.059125	0.000311
1147.23	0.711	0.189	0.058465	0.000612
1145.61	0.711	0.189	0.058305	0.000609
1143.96	0.711	0.189	0.058869	0.000735
1142.33	0.711	0.189	0.058039	0.000422
1140.62	0.711	0.189	0.058138	0.000534
1138.96	0.711	0.189	0.057922	0.000646
1137.23	0.711	0.189	0.057997	0.000714
1135.46	0.711	0.189	0.057448	0.000349
1133.75	0.711	0.189	0.057549	0.000352
1132.03	0.711	0.189	0.056918	0.000351
1121.32	0.711	0.189	0.057584	0.000295
1119.6	0.711	0.189	0.057308	0.000292
1117.79	0.711	0.189	0.057074	0.000305
1115.93	0.711	0.189	0.056915	0.000335
1114.07	0.711	0.189	0.056942	0.000389
1112.28	0.711	0.189	0.056902	0.000359
1110.41	0.711	0.189	0.057102	0.000426
1108.64	0.711	0.189	0.056579	0.000471
1106.84	0.711	0.189	0.056469	0.000543
1104.97	0.711	0.189	0.056011	0.000528
1103.19	0.711	0.189	0.055894	0.000514
1101.44	0.711	0.189	0.055622	0.000705
1099.55	0.711	0.189	0.055857	0.00047
1097.81	0.711	0.189	0.055392	0.000481
1095.97	0.711	0.189	0.054708	0.000495
1094.25	0.711	0.189	0.054971	0.000588
1092.42	0.711	0.189	0.054807	0.000499
1090.63	0.711	0.189	0.054507	0.000436
1088.84	0.711	0.189	0.054434	0.000642
1087.15	0.711	0.189	0.054242	0.000697
1085.37	0.711	0.189	0.053782	0.000654
1083.57	0.711	0.189	0.053396	0.000733
1081.87	0.711	0.189	0.053119	0.000776
1080.09	0.711	0.189	0.05296	0.000596
1078.41	0.711	0.189	0.052676	0.000277
1076.66	0.711	0.189	0.052352	0.000292
1074.97	0.711	0.189	0.052425	0.00028
1066.4	0.711	0.189	0.053128	0.000234
1064.78	0.711	0.189	0.053104	0.000222
1062.97	0.711	0.189	0.05255	0.000251
1061.43	0.711	0.189	0.052561	0.000796
1059.77	0.711	0.189	0.052116	0.000923
1058.08	0.711	0.189	0.051811	0.000871
1056.48	0.711	0.189	0.051216	0.000893
1054.73	0.711	0.189	0.05084	0.000992
1053.22	0.711	0.189	0.050492	0.000807
1051.5	0.711	0.189	0.050406	0.000717
1049.93	0.711	0.189	0.049745	0.000586
1048.36	0.711	0.189	0.049939	0.000535
1046.71	0.711	0.189	0.049573	0.000561
1045.13	0.711	0.189	0.049588	0.000428
1043.46	0.711	0.189	0.049344	0.000575
1041.9	0.711	0.189	0.049205	0.000597
1040.32	0.711	0.189	0.048928	0.000701
1038.83	0.711	0.189	0.048715	0.000671
1037.2	0.711	0.189	0.048296	0.000818
1035.65	0.711	0.189	0.048045	0.000801
1034.06	0.711	0.189	0.047892	0.000739
1254.18	0.671	0.179	0.065046	0.000309
1252.88	0.671	0.179	0.065706	0.000436
1251.37	0.671	0.179	0.064818	0.00033
1249.81	0.671	0.179	0.064653	0.000343
1248.2	0.671	0.179	0.064762	0.000398
1246.6	0.671	0.179	0.064176	0.00044
1244.81	0.671	0.179	0.064336	0.000414
1243.04	0.671	0.179	0.064631	0.000565
1241.18	0.671	0.179	0.064031	0.00036
1239.21	0.671	0.179	0.064135	0.000413
1237.3	0.671	0.179	0.063608	0.000428
1235.36	0.671	0.179	0.063415	0.000413
1233.31	0.671	0.179	0.062965	0.000449
1231.3	0.671	0.179	0.06289	0.000408
1229.21	0.671	0.179	0.062598	0.000431
1227.21	0.671	0.179	0.062611	0.000437
1225.02	0.671	0.179	0.062338	0.000516
1222.99	0.671	0.179	0.061925	0.000464
1220.84	0.671	0.179	0.060952	0.000536
1218.64	0.671	0.179	0.061336	0.000727
1216.6	0.671	0.179	0.060773	9.2e-05
1214.43	0.671	0.179	0.060609	0.000324
1212.24	0.671	0.179	0.060764	0.0001
1210.13	0.671	0.179	0.060728	5.5e-05
1207.91	0.671	0.179	0.060571	2.7e-05
1205.82	0.671	0.179	0.060682	3.6e-05
1203.55	0.671	0.179	0.060708	0.000168
1201.49	0.671	0.179	0.06076	0.000647
1199.36	0.671	0.179	0.060239	0.000486
1197.01	0.671	0.179	0.059413	0.000124
1194.91	0.671	0.179	0.05976	0.00021
1192.69	0.671	0.179	0.06102	0.000619
1190.62	0.671	0.179	0.060671	0.000434
1188.49	0.671	0.179	0.060627	0.000462
1186.34	0.671	0.179	0.060628	0.000562
1184.23	0.671	0.179	0.060084	0.00061
1182.05	0.671	0.179	0.05952	0.001053
1180.06	0.671	0.179	0.059397	0.000795
1177.93	0.671	0.179	0.058504	0.000746
1175.78	0.671	0.179	0.058473	0.000183
1173.75	0.671	0.179	0.058042	0.000144
1171.66	0.671	0.179	0.059074	0.000197
1169.57	0.671	0.179	0.058767	0.000135
1167.55	0.671	0.179	0.058129	0.000779
1165.52	0.671	0.179	0.05787	0.000241
1163.36	0.671	0.179	0.05749	0.00023
1161.4	0.671	0.179	0.058323	0.000249
1159.34	0.671	0.179	0.057741	0.000172
1157.21	0.671	0.179	0.057419	0.000516
1155.33	0.671	0.179	0.057224	0.000393
1153.3	0.671	0.179	0.057486	0.00042
1151.28	0.671	0.179	0.056993	0.000359
1149.28	0.671	0.179	0.056683	0.000715
1147.38	0.671	0.179	0.056645	0.000562
1145.35	0.671	0.179	0.056379	0.000419
1143.38	0.671	0.179	0.055716	0.000489
1141.51	0.671	0.179	0.055863	0.000531
1139.58	0.671	0.179	0.055799	0.000484
1137.69	0.671	0.179	0.055333	0.000569
1135.72	0.671	0.179	0.055126	0.000526
1133.88	0.671	0.179	0.05503	0.000551
1131.95	0.671	0.179	0.054138	0.000846

System: lithium fluoride + calcium fluoride + lanthanum trifluoride; phases: Liquid, Air at 1 atmosphere
Property: Surface tension liquid-gas, N/m (Liquid); method: Maximal bubble pressure
Temperature, K	Mole fraction of lithium fluoride	Mole fraction of calcium fluoride	Surface tension liquid-gas, N/m	uncertainty
1188	0.79	0.21	0.2138	0.0102
1170	0.79	0.21	0.216	0.0102
1151	0.79	0.21	0.2159	0.0102
1131	0.79	0.21	0.2184	0.0102
1112	0.79	0.21	0.2214	0.0102
1240	0.751	0.199	0.2348	0.0101
1221	0.751	0.199	0.2369	0.0101
1202	0.751	0.199	0.239	0.04
1182	0.751	0.199	0.2415	0.0393
1163	0.751	0.199	0.2429	0.039
1255	0.711	0.189	0.2364	0.0101
1236	0.711	0.189	0.2387	0.0101
1217	0.711	0.189	0.241	0.0101
1198	0.711	0.189	0.2431	0.0101
1178	0.711	0.189	0.2454	0.0101
1263	0.671	0.179	0.2312	0.0101
1244	0.671	0.179	0.2351	0.0101
1225	0.671	0.179	0.238	0.0101
1205	0.671	0.179	0.2446	0.0101
1186	0.671	0.179	0.2537	0.0101

System: lithium fluoride + calcium fluoride; phases: Liquid
Fixed: Mole fraction of lithium fluoride = 0.79
Fixed: Pressure, kPa = 100
Property: Mass density, kg/m3 (Liquid); method: Buoyancy - hydrostatic balance
Temperature, K	Mass density, kg/m3	uncertainty
1203.69	2019.6	12
1203.4	2020.1	12
1203.05	2020.2	12
1202.54	2020.8	12
1202.29	2020.8	12
1202.08	2022	12
1201.63	2022.6	12
1201.19	2023.2	12
1200.84	2023.2	12
1200.57	2023.8	12
1200.02	2024.4	12
1199.64	2024.4	8.2
1199.32	2025	8.1
1198.81	2025.1	8.1
1198.34	2025.7	8.2
1197.56	2026.3	8
1197.09	2026.4	7.9
1196.4	2027	8
1195.96	2027.1	7.9
1195.67	2027.7	7.9
1195.3	2028.3	7.9
1194.72	2028.3	7.9
1194.54	2028.9	7.9
1194.4	2029.5	7.9
1194.11	2029.5	7.9
1193.73	2030.1	7.9
1193.2	2030.7	7.9
1192.87	2030.7	8
1192.38	2031.4	8
1191.64	2032	7.9
1190.83	2032.6	7.9
1190.15	2032.7	7.8
1189.93	2033.3	7.8
1189.38	2033.9	7.2
1189.09	2033.9	7.2
1188.37	2034.6	7.2
1187.82	2035.2	7.2
1186.98	2035.3	7.2
1186.63	2035.9	7.2
1185.82	2036.5	7.2
1184.47	2033.9	7.5
1184.13	2034	7.5
1183.89	2034.6	7.5
1183.21	2034.6	7.4
1182.75	2035.2	7.5
1182.52	2035.8	7.4
1182.22	2035.9	7.5
1181.58	2036.5	7.4
1181.17	2037.1	7.5
1181.01	2037.1	7.4
1180.79	2037.7	7.4
1180.47	2038.3	7.4
1180.53	2038.8	7.4
1180.54	2038.8	7.4
1180.29	2039.4	8.2
1179.65	2040	8.2
1179.39	2040	8.2
1178.4	2040.7	7.1
1177.51	2041.4	7.2
1177.13	2042	7.2
1176.34	2042.1	7.2
1176.02	2042.7	7.1
1175.41	2043.3	7.1
1174.87	2043.9	7.2
1173.79	2038.5	7.2
1173.6	2039.1	7.2
1173.32	2039.1	7.2
1173.2	2039.7	7.2
1172.92	2040.3	7.2
1172.22	2040.9	7.2
1171.88	2040.9	7.2
1171.47	2041.5	7.2
1171.15	2042.1	7.2
1170.58	2042.7	7.2
1170.11	2042.8	7.2
1169.94	2043.4	7.2
1169.33	2044	8.3
1168.82	2044.6	8.1
1168.98	2044.6	8.2
1168.55	2045.2	7.3
1167.93	2045.3	7.3
1167.68	2045.8	7.3
1167.25	2046.4	7.3
1166.52	2046.5	7.2
1166.24	2047.1	7.2
1165.37	2047.8	7.2
1165.07	2048.4	7.2
1164.88	2048.4	7.1
1164.66	2048.4	7.2
1164.33	2044.6	7.1
1163.56	2044.7	7.2
1163.24	2045.3	7.1
1162.79	2045.9	7.2
1161.91	2046	7.2
1161.3	2046.6	7.2
1161.32	2046.6	7.2
1160.17	2047.3	7.7
1159.94	2047.9	7.8
1159.1	2048.5	7.8
1159.05	2048.5	7.8
1158.76	2049.1	8
1157.67	2049.8	8.1
1157.45	2050.4	8.1
1157.11	2050.4	8.1
1156.56	2049.9	8
1156.54	2050.5	8
1156.59	2051	8
1155.94	2051.1	8.1
1155.63	2051.7	8
1155.47	2051.7	8
1154.82	2052.3	8.1
1154.79	2052.9	8.1
1154.59	2053.5	7.9
1154.11	2053.5	7.9
1153.81	2054.1	7.9
1152.94	2054.8	8
1152.6	2055.4	8
1152.03	2055.4	8.2
1151.4	2056.1	8.2
1150.75	2056.7	8.1
1150.27	2056.7	7.9
1149.66	2057.4	7.1
1149.04	2058	7.1
1148.89	2058	7.1
1148.57	2058.6	7.1
1148.01	2059.2	7.1
1147.85	2059.2	7.1
1147.54	2059.8	7.1
1146.86	2060.5	7.1
1146.5	2061.1	7.1
1145.99	2061.1	7.1
1145.54	2052.9	7.1
1145.23	2053.5	7.1
1144.72	2053.5	7.1
1144.41	2054.1	7.1
1144.22	2054.7	7.1
1143.47	2054.8	7.1
1143.37	2055.4	7.1
1142.69	2056	7.1
1142.04	2056.6	7.1
1141.41	2056.7	7.8
1141.14	2057.3	7.9
1140.85	2057.9	7.8
1140.37	2058.5	8
1139.95	2059.1	7.9
1139.26	2059.2	8.1
1138.65	2059.8	8
1138.25	2060.4	8
1137.79	2061	8
1137.49	2061.6	8
1137.17	2060	8.3
1136.75	2060.6	8
1136.55	2060.6	8.1
1136.93	2061.1	8.2
1136.24	2061.7	8.1
1135.67	2062.4	7.9
1135.3	2062.4	7.9
1135.3	2063	7.9
1135.05	2063.5	8.1
1134.2	2064.2	8.1
1134.12	2064.2	8.2
1133.34	2064.9	8
1132.74	2065.5	7.1
1132.82	2066	7.1
1131.93	2066.7	7.1
1131.4	2066.7	7.1
1131.01	2067.3	7.1
1130.29	2068	7.1
1130.17	2068.5	7.1
1129.83	2069.1	7.1
1128.87	2069.8	7.1
1128.81	2059.9	7.1
1128.4	2059.9	7.1
1127.92	2060.5	7.1
1127.89	2061.1	7.1
1127.46	2061.1	7.1
1126.72	2061.8	7.1
1126.26	2062.4	7.1
1126.18	2062.9	7.1
1125.99	2063.5	7.1
1125.1	2063.6	7.1
1124.79	2064.2	7.6
1124.42	2064.8	7.6
1123.67	2065.5	7.6
1123.31	2066.1	7.7
1123.29	2066.6	7.7
1122.54	2066.7	7.7
1122.2	2067.3	7.7
1121.74	2067.9	7.1
1121.22	2068.5	7.1
1121.04	2069.1	7.1
1120.49	2065.8	7.1
1120.13	2065.9	7.1
1119.71	2066.5	7.1
1119.36	2067.1	7.1
1118.96	2067.7	7.1
1118.76	2067.7	7.1
1118.43	2068.3	7.1
1118.02	2068.9	7.1
1117.48	2063.4	7.1
1117.03	2064	7.1
1116.67	2064.6	7.1
1116.23	2064.7	7.4
1115.87	2065.3	7.4
1115.73	2065.9	7.5
1115.44	2066.4	7.5
1114.87	2066.5	7.4
1114.68	2067.1	7.4
1114.73	2067.6	7.4
1114.32	2068.2	7.4
1114.22	2068.3	7.4
1113.47	2068.9	8.8
1113	2069.5	9.2
1112.79	2069.5	9.1
1112.27	2070.1	9
1111.76	2070.8	9.2
1111.56	2071.3	8.8
1111.19	2071.9	8.8
1110.57	2072	9
1110.34	2073.1	8.9
1110.01	2073.2	8.7
1109.46	2073.8	8.8
1109.13	2074.4	8.8
1108.81	2076.1	8.8
1108.5	2076.1	8.9
1107.93	2076.8	8.9
1107.57	2077.4	8.9
1106.98	2077.4	8.7
1106.6	2078	8.7
1106.35	2078.6	8.9
1105.74	2079.2	8.7
1105.5	2079.3	8.7
1105.2	2079.9	8.8
1104.6	2080.5	8.4
1104.16	2081.1	8.4
1103.77	2081.7	8.4
1103.24	2082.3	8.4
1102.92	2082.4	8.5
1102.62	2082.9	8.6
1102.1	2083.6	8.5
1101.79	2084.1	8.5
1101.46	2084.2	8.5
1101.03	2084.8	8.5
1100.66	2085.4	8.6
1100.2	2086	8.7
1099.89	2086	8.7
1099.45	2086.6	8.5
1099.09	2087.2	8.6
1098.76	2087.3	8
1098.42	2087.9	8
1098.03	2088.5	7.9
1097.61	2089.1	7.8
1097.33	2089.1	7.8
1096.93	2089.7	7.9
1096.65	2090.3	7.9
1096.29	2090.9	7.9
1096.22	2090.9	7.9
1096.28	2091.5	7.9
1095.51	2092.1	7.9
1095.04	2092.2	7.4
1094.76	2092.8	7.4
1094.36	2090.6	7.4
1094.07	2090.6	7.4
1093.77	2091.2	7.3
1093.13	2091.3	7.4
1092.81	2091.9	7.4
1092.81	2092.4	7.4
1091.92	2093.1	7.3
1091.73	2093.7	7.3
1091.21	2093.7	7.2
1090.82	2092.1	7.3
1090.55	2092.2	7.2
1090	2092.8	7.6
1089.55	2092.8	7.6
1089.28	2093.4	7.7
1088.85	2094	7.7
1088.58	2094.1	7.6
1088.17	2094.7	7.6
1087.75	2094.7	7.6
1087.19	2095.3	7.6
1086.89	2095.9	7.6
1086.38	2096	8
1086.11	2096.6	8
1085.89	2096.6	8.1
1085.54	2097.2	8.1
1085	2097.8	8
1084.54	2097.9	8.1
1084.27	2098.5	8.2
1083.84	2098.5	8.1
1083.63	2099.1	8.2
1083.45	2099.1	8.2
1082.91	2099.7	8.2
1082.39	2099.8	8.1
1082.02	2100.4	8.1
1081.82	2101	8.1
1081.43	2101	8.2
1081.06	2101.6	8.1
1080.67	2101.7	8.1
1080.31	2102.3	8.2
1080.04	2102.9	8.2
1079.85	2102.9	8.3
1079.38	2103.5	12.3
1079.07	2103.5	12.3
1078.72	2104.1	12.3
1078.38	2104.2	12.3
1077.98	2104.8	12.3
1077.7	2104.8	12.3
1077.48	2105.4	12.3
1077.12	2106	12.3
1076.83	2106	12.3
1076.73	2106.6	12.3
1076.24	2106.7	12.3
1075.92	2107.3	12.3
1076.19	2107.8	12.3
1075.67	2107.8	12.3

System: lithium fluoride + calcium fluoride; phases: Liquid
Fixed: Mole fraction of lithium fluoride = 0.79
Fixed: Pressure, kPa = 100
Property: Electrical conductivity, S/m (Liquid); method: Alternating current cell with electrodes
Temperature, K	Electrical conductivity, S/m	uncertainty
1164.83	0.062395	4e-06
1163.59	0.062335	4e-06
1162.12	0.062142	4e-06
1160.66	0.062006	0.000367
1159.22	0.061947	0.000454
1157.7	0.061682	0.000454
1156.19	0.061602	0.000458
1154.54	0.06131	0.000494
1152.99	0.061107	0.000467
1151.44	0.060952	0.000429
1149.87	0.060793	0.000406
1148.21	0.060575	0.000397
1146.53	0.060565	0.000431
1144.91	0.060331	0.00046
1143.17	0.060132	0.000517
1141.54	0.059885	0.000571
1139.91	0.059649	0.000569
1138.12	0.05927	0.000539
1136.44	0.059124	0.00048
1134.72	0.058881	0.000443
1133	0.05876	0.000375
1131.22	0.058645	0.000425
1129.55	0.058502	0.000249
1127.89	0.058312	0.000264
1126.09	0.058025	0.000327
1124.4	0.05824	0.000328
1122.7	0.05808	0.000286
1120.91	0.057801	0.000283
1119.17	0.057652	0.000406
1117.42	0.057563	0.000402
1115.65	0.057288	0.000377
1114	0.057185	0.000365
1112.27	0.057032	0.000397
1110.47	0.056816	0.000355
1108.82	0.056707	0.000326
1107.11	0.056539	0.000376
1105.32	0.056372	0.000371
1103.62	0.056339	0.000386
1101.92	0.056058	0.000364
1100.2	0.055864	0.000352
1098.52	0.055712	0.000428
1096.79	0.055599	0.000392
1095.12	0.055475	0.000356
1093.42	0.055248	0.000403
1091.77	0.055063	0.000421
1090.07	0.054963	0.000443
1088.37	0.05469	0.00042
1086.81	0.054549	0.000426
1085.07	0.054362	0.00041
1083.43	0.0542	0.00034
1081.79	0.054	0.000346
1080.13	0.053944	0.000269
1078.54	0.053855	0.000245
1076.81	0.053685	0.000104
1075.19	0.053697	0.000169
1073.52	0.053593	0.000213
1071.9	0.053745	0.000218
1070.37	0.053533	0.000247
1068.75	0.053333	0.000244
1067.11	0.053153	4e-06
1065.52	0.053101	4e-06
1063.85	0.053003	4e-06

System: lithium fluoride + calcium fluoride; phases: Liquid, Air at 1 atmosphere
Fixed: Mole fraction of lithium fluoride = 0.79
Property: Surface tension liquid-gas, N/m (Liquid); method: Maximal bubble pressure
Temperature, K	Surface tension liquid-gas, N/m	uncertainty
1188	0.2138	0.0102
1170	0.216	0.0102
1151	0.2159	0.0102
1131	0.2184	0.0102
1112	0.2214	0.0102
