Measured thermophysical data. Experiments and COSMO-SAC Modeling of Methyl Isobutyl Ketone + Dimethylphenols + Water Mixtures
Source: J. Chem. Eng. Data, 2019, 10.1021/acs.jced.9b00300
Compound 1: water, H2O, InChI=1S/H2O/h1H2
Compound 2: 2,3-dimethylphenol, C8H10O, InChI=1S/C8H10O/c1-6-4-3-5-8(9)7(6)2/h3-5,9H,1-2H3, purity 99%
Compound 3: 3,4-dimethylphenol, C8H10O, InChI=1S/C8H10O/c1-6-3-4-8(9)5-7(6)2/h3-5,9H,1-2H3, purity 98%
Compound 4: 3,5-dimethylphenol, C8H10O, InChI=1S/C8H10O/c1-6-3-7(2)5-8(9)4-6/h3-5,9H,1-2H3, purity 99%
Compound 5: 4-methylpentan-2-one, C6H12O, InChI=1S/C6H12O/c1-5(2)4-6(3)7/h5H,4H2,1-3H3, purity 99%

System: 4-methylpentan-2-one + 2,3-dimethylphenol + water; phases: Liquid mixture 2, Liquid mixture 1
Fixed: Pressure, kPa = 101.3
Property: Mass fraction of 2,3-dimethylphenol (Liquid mixture 2); method: Chromatography
Property: Mass fraction of 2,3-dimethylphenol (Liquid mixture 1); method: Chromatography
Property: Mass fraction of 4-methylpentan-2-one (Liquid mixture 1); method: Chromatography
Temperature, K	Mass fraction of 4-methylpentan-2-one	Mass fraction of 2,3-dimethylphenol	uncertainty	Mass fraction of 2,3-dimethylphenol	uncertainty	Mass fraction of 4-methylpentan-2-one	uncertainty
298.15	0.85636	0.1106	0.04223	0.00033	0.00033	0.01546	
298.15	0.80185	0.16388	0.04231	0.00055	0.00055	0.01463	
298.15	0.75822	0.20687	0.04244	0.00082	0.00082	0.0136	
298.15	0.7162	0.24836	0.0423	0.00113	0.00113	0.01302	
298.15	0.68065	0.28284	0.04221	0.00148	0.00148	0.01228	
298.15	0.64541	0.31736	0.04225	0.00185	0.00185	0.01058	
298.15	0.60446	0.35722	0.04235	0.00217	0.00217	0.00947	
298.15	0.5635	0.39764	0.04252	0.00251	0.00251	0.00905	
313.15	0.82718	0.13802	0.04243	0.00047	0.00047	0.01257	
313.15	0.77417	0.19032	0.0424	0.00079	0.00079	0.01156	
313.15	0.72051	0.24316	0.04219	0.00121	0.00121	0.00982	
313.15	0.68335	0.27869	0.04211	0.00154	0.00154	0.00938	
313.15	0.64494	0.31639	0.04232	0.00195	0.00195	0.00884	
313.15	0.60037	0.35989	0.04217	0.00236	0.00236	0.00809	
313.15	0.56849	0.39031	0.04212	0.00265	0.00265	0.0071	
313.15	0.50461	0.45287	0.04238	0.00324	0.00324	0.00603	
323.15	0.84128	0.12351	0.04228	0.00046	0.00046	0.01129	
323.15	0.76515	0.19791	0.04233	0.00085	0.00085	0.01057	
323.15	0.71138	0.25103	0.04242	0.00128	0.00128	0.01005	
323.15	0.66967	0.29197	0.04221	0.00173	0.00173	0.00862	
323.15	0.62336	0.33677	0.04231	0.00214	0.00214	0.00788	
323.15	0.58286	0.37685	0.04216	0.0026	0.0026	0.00678	
323.15	0.55812	0.40024	0.04217	0.00293	0.00293	0.0063	
323.15	0.50333	0.45326	0.04182	0.00348	0.00348	0.00521	
333.15	0.83289	0.1303	0.04265	0.00051	0.00051	0.01053	
333.15	0.76677	0.1962	0.04248	0.00096	0.00096	0.00985	
333.15	0.71766	0.2441	0.04226	0.00143	0.00143	0.0083	
333.15	0.67223	0.28864	0.04204	0.00187	0.00187	0.00766	
333.15	0.64285	0.31657	0.04198	0.00224	0.00224	0.00713	
333.15	0.60264	0.35541	0.04214	0.00265	0.00265	0.00658	
333.15	0.56056	0.39681	0.04176	0.00312	0.00312	0.0059	
333.15	0.50322	0.45014	0.0415	0.00369	0.00369	0.00523	
343.15	0.80258	0.15984	0.04215	0.00101	0.00101	0.0103	
343.15	0.73988	0.22088	0.0423	0.00144	0.00144	0.00865	
343.15	0.68173	0.27824	0.04178	0.00195	0.00195	0.00816	
343.15	0.63348	0.32236	0.04144	0.00238	0.00238	0.00755	
343.15	0.59059	0.3638	0.04216	0.00285	0.00285	0.00699	
343.15	0.54234	0.41084	0.04209	0.00327	0.00327	0.00638	
343.15	0.50112	0.45026	0.04097	0.00373	0.00373	0.00571	
343.15	0.44382	0.50096	0.04042	0.00467	0.00407	0.0047	

System: 4-methylpentan-2-one + 3,4-dimethylphenol + water; phases: Liquid mixture 2, Liquid mixture 1
Fixed: Pressure, kPa = 101.3
Property: Mass fraction of 3,4-dimethylphenol (Liquid mixture 2); method: Chromatography
Property: Mass fraction of 3,4-dimethylphenol (Liquid mixture 1); method: Chromatography
Property: Mass fraction of 4-methylpentan-2-one (Liquid mixture 1); method: Chromatography
Temperature, K	Mass fraction of 4-methylpentan-2-one	Mass fraction of 3,4-dimethylphenol	uncertainty	Mass fraction of 3,4-dimethylphenol	uncertainty	Mass fraction of 4-methylpentan-2-one	uncertainty
298.15	0.85426	0.11235	0.04431	0.00031	0.00028	0.01509	
313.15	0.8009	0.16129	0.04444	0.00057	0.00023	0.01142	
313.15	0.75618	0.20514	0.04463	0.00077	0.00028	0.00945	
313.15	0.71089	0.24935	0.04476	0.00108	0.00031	0.00878	
313.15	0.67088	0.28919	0.04492	0.00136	0.00056	0.00842	
313.15	0.62355	0.33617	0.04419	0.00173	0.00041	0.00795	
313.15	0.57565	0.38189	0.04365	0.00219	0.00039	0.00728	
313.15	0.51096	0.4422	0.04355	0.00268	0.00029	0.00539	
323.15	0.85225	0.10826	0.04589	0.00037	0.00022	0.01048	
323.15	0.80165	0.15818	0.04414	0.00057	0.00047	0.01016	
323.15	0.75787	0.19886	0.04406	0.00078	0.00047	0.00963	
298.15	0.80988	0.15543	0.04373	0.00052	0.00025	0.01449	
323.15	0.70765	0.24825	0.04467	0.00108	0.00044	0.00919	
323.15	0.6572	0.2981	0.0448	0.00154	0.00051	0.00824	
323.15	0.60887	0.34605	0.04464	0.00203	0.00039	0.00745	
323.15	0.55778	0.39576	0.04404	0.00242	0.00038	0.0068	
323.15	0.48287	0.46678	0.04392	0.00289	0.00029	0.005	
333.15	0.83803	0.11026	0.04694	0.0004	0.00026	0.01186	
333.15	0.77953	0.17363	0.04586	0.0007	0.00023	0.01134	
333.15	0.72338	0.22913	0.0445	0.00103	0.00028	0.00877	
333.15	0.67715	0.27366	0.04408	0.00138	0.0003	0.00834	
333.15	0.63423	0.31464	0.04403	0.00169	0.00065	0.00793	
298.15	0.77224	0.18975	0.04369	0.00064	0.00027	0.01373	
333.15	0.59302	0.35411	0.04429	0.00207	0.00056	0.00746	
333.15	0.56281	0.38847	0.04433	0.00248	0.00053	0.00679	
333.15	0.50595	0.43875	0.04193	0.00294	0.00027	0.00588	
343.15	0.81688	0.12564	0.04715	0.00048	0.00028	0.01022	
343.15	0.74062	0.20891	0.04587	0.00097	0.00045	0.0082	
343.15	0.68765	0.25918	0.04367	0.00134	0.00044	0.00779	
343.15	0.63855	0.30491	0.04365	0.00184	0.00044	0.00741	
343.15	0.59683	0.34451	0.0439	0.00232	0.00059	0.00671	
343.15	0.5566	0.38274	0.04386	0.00261	0.00056	0.00594	
343.15	0.49264	0.44323	0.04434	0.00305	0.00047	0.00533	
298.15	0.73175	0.22903	0.04428	0.0009	0.00032	0.01239	
343.15	0.42708	0.50803	0.04484	0.00362	0.00068	0.00469	
298.15	0.68991	0.26948	0.04431	0.00111	0.00028	0.01205	
298.15	0.64941	0.30882	0.04438	0.00132	0.00029	0.01159	
298.15	0.60843	0.34865	0.04447	0.00161	0.00024	0.00983	
298.15	0.56078	0.39524	0.04455	0.00196	0.00032	0.00954	
313.15	0.8556	0.10811	0.04453	0.00035	0.0002	0.01225	

System: 4-methylpentan-2-one + 3,5-dimethylphenol + water; phases: Liquid mixture 2, Liquid mixture 1
Fixed: Pressure, kPa = 101.3
Property: Mass fraction of 3,5-dimethylphenol (Liquid mixture 2); method: Chromatography
Property: Mass fraction of 3,5-dimethylphenol (Liquid mixture 1); method: Chromatography
Property: Mass fraction of 4-methylpentan-2-one (Liquid mixture 1); method: Chromatography
Temperature, K	Mass fraction of 4-methylpentan-2-one	Mass fraction of 3,5-dimethylphenol	uncertainty	Mass fraction of 3,5-dimethylphenol	uncertainty	Mass fraction of 4-methylpentan-2-one	uncertainty
298.15	0.8479	0.11599	0.04363	0.00035	0.00022	0.0165	
298.15	0.80876	0.14838	0.04532	0.00047	0.00025	0.01555	
298.15	0.76306	0.19231	0.04717	0.00066	0.00023	0.01384	
298.15	0.71908	0.23617	0.04764	0.00083	0.00023	0.01387	
298.15	0.6662	0.28895	0.04757	0.00112	0.0003	0.01104	
298.15	0.62566	0.32906	0.04732	0.00146	0.0003	0.01055	
298.15	0.59279	0.36103	0.04734	0.00165	0.0003	0.01026	
298.15	0.55176	0.40156	0.04745	0.00194	0.00033	0.00936	
313.15	0.88945	0.06827	0.04684	0.00022	0.00022	0.01243	
313.15	0.83557	0.12032	0.04649	0.00042	0.00025	0.01122	
313.15	0.78869	0.16407	0.04605	0.0006	0.00025	0.0103	
313.15	0.75141	0.19895	0.04669	0.00078	0.0003	0.00942	
313.15	0.70866	0.24076	0.04744	0.00099	0.00034	0.00898	
313.15	0.66851	0.28021	0.04771	0.00121	0.00045	0.00832	
313.15	0.62325	0.32475	0.04724	0.00163	0.00045	0.00762	
313.15	0.56972	0.37634	0.04853	0.00208	0.00048	0.0068	
323.15	0.8843	0.06985	0.04738	0.00024	0.00024	0.01135	
323.15	0.83092	0.12261	0.04749	0.00047	0.00033	0.01033	
323.15	0.78702	0.16624	0.04757	0.00068	0.00039	0.00962	
323.15	0.74017	0.2129	0.04769	0.00095	0.00053	0.00917	
323.15	0.69233	0.26026	0.04772	0.00132	0.00046	0.00897	
323.15	0.64698	0.30465	0.04765	0.00165	0.00051	0.00831	
323.15	0.6061	0.34437	0.04743	0.00198	0.00042	0.00735	
323.15	0.54252	0.40631	0.0461	0.00239	0.00039	0.00651	
333.15	0.86487	0.08839	0.04804	0.00034	0.00034	0.00956	
333.15	0.82164	0.13228	0.0473	0.00061	0.00052	0.00895	
333.15	0.76413	0.18732	0.0469	0.00095	0.00051	0.00846	
333.15	0.71989	0.23074	0.04692	0.00124	0.00059	0.00804	
333.15	0.67328	0.27621	0.04671	0.00153	0.00061	0.00754	
333.15	0.61775	0.32925	0.04596	0.00193	0.00064	0.00715	
333.15	0.54865	0.39185	0.04626	0.00239	0.00065	0.00647	
333.15	0.48833	0.45053	0.04711	0.00289	0.00063	0.00587	
343.15	0.83155	0.11869	0.04669	0.00052	0.00052	0.00871	
343.15	0.78481	0.16355	0.04657	0.00082	0.00057	0.00837	
343.15	0.73752	0.20842	0.04655	0.00113	0.00052	0.00803	
343.15	0.70242	0.24211	0.04704	0.0014	0.00064	0.00767	
343.15	0.65606	0.28766	0.04702	0.00181	0.00065	0.0069	
343.15	0.62168	0.32051	0.04649	0.00214	0.00064	0.00659	
343.15	0.58076	0.35915	0.04644	0.00252	0.00064	0.0062	
343.15	0.54582	0.39232	0.04652	0.00308	0.0007	0.00547	

System: 4-methylpentan-2-one + water; phases: Liquid mixture 1, Liquid mixture 2
Fixed: Pressure, kPa = 101.3
Property: Mass fraction of 4-methylpentan-2-one (Liquid mixture 1); method: Chromatography
Temperature, K	Mass fraction of 4-methylpentan-2-one	uncertainty
298.15	0.0178	0.0012
313.15	0.0145	0.0012
323.15	0.0136	0.0012
333.15	0.0127	0.0012
343.15	0.0121	0.0012

System: 4-methylpentan-2-one + water; phases: Liquid mixture 1, Liquid mixture 2
Fixed: Pressure, kPa = 101.3
Property: Mass fraction of water (Liquid mixture 1); method: Titration method
Temperature, K	Mass fraction of water	uncertainty
298.15	0.0245	0.0016
313.15	0.0256	0.0016
323.15	0.0278	0.0016
333.15	0.0295	0.0017
343.15	0.0321	0.0017
