Measured thermophysical data. Vapor Pressures and Thermophysical Properties of Ethylene Carbonate, Propylene Carbonate,  -Valerolactone, and  -Butyrolactone
Source: J. Chem. Eng. Data, 2017, 10.1021/acs.jced.7b00578
Compound 1: ethylene carbonate, C3H4O3, InChI=1S/C3H4O3/c4-3-5-1-2-6-3/h1-2H2, purity 99.9%
Compound 2: 4-methyl-1,3-dioxolan-2-one, C4H6O3, InChI=1S/C4H6O3/c1-3-2-6-4(5)7-3/h3H,2H2,1H3, purity 99.94%
Compound 3: .gamma.-valerolactone, C5H8O2, InChI=1S/C5H8O2/c1-4-2-3-5(6)7-4/h4H,2-3H2,1H3, purity 99.9%

System: ethylene carbonate; phases: Crystal, Liquid, Air at 1 atmosphere
Property: Normal melting temperature, K (Crystal); method: DTA
Normal melting temperature, K	uncertainty
309.13	0.7

System: ethylene carbonate; phases: Crystal, Liquid, Air at 1 atmosphere
Property: Molar enthalpy of transition or fusion, kJ/mol (Crystal); method: DSC
Molar enthalpy of transition or fusion, kJ/mol	uncertainty
13.5	0.7

System: ethylene carbonate; phases: Crystal, Gas
Property: Vapor or sublimation pressure, kPa (Crystal); method: Closed cell (Static) method
Temperature, K	Vapor or sublimation pressure, kPa	uncertainty
272.67	0.00025	0.00012
272.74	0.00026	0.00012
272.8	0.00025	0.00012
272.88	0.00025	0.00012
278.16	0.00051	0.00012
278.16	0.00049	0.00012
278.17	0.00049	0.00012
283.05	0.00088	0.00013
283.05	0.00086	0.00013
283.05	0.00088	0.00013
283.05	0.00087	0.00013
288.1	0.00154	0.00014
288.1	0.00152	0.00014
288.1	0.00151	0.00014
288.1	0.00152	0.00014
293.01	0.00258	0.00016
293.01	0.00256	0.00016
293.02	0.00254	0.00016
293.02	0.00256	0.00016
297.98	0.00431	0.0002
297.98	0.0043	0.0002
297.98	0.00431	0.0002
297.99	0.00431	0.0002
302.82	0.00702	0.00029
302.82	0.00697	0.00029
302.82	0.00702	0.00029
302.83	0.00701	0.00029
307.84	0.01131	0.00045
307.85	0.01133	0.00045
307.85	0.0113	0.00045

System: ethylene carbonate; phases: Metastable liquid, Gas
Property: Vapor or sublimation pressure, kPa (Metastable liquid); method: Closed cell (Static) method
Temperature, K	Vapor or sublimation pressure, kPa	uncertainty
292.98	0.0034	0.00018
292.98	0.00338	0.00018
293	0.00341	0.00018
297.99	0.00518	0.00023
297.99	0.0052	0.00023
297.99	0.00521	0.00023
298	0.0052	0.00023
302.92	0.0078	0.00032
302.92	0.00783	0.00032
302.92	0.00783	0.00032
307.84	0.01153	0.00046
307.84	0.01158	0.00046
307.84	0.01159	0.00046
307.85	0.01159	0.00046
312.82	0.01692	0.00057
312.82	0.01692	0.00057
312.82	0.01693	0.00057
312.83	0.01694	0.00057
317.76	0.02435	0.00069
317.77	0.02435	0.00069
317.77	0.02433	0.00069
322.65	0.03439	0.00084
322.65	0.03437	0.00084
322.66	0.03443	0.00085
327.75	0.04874	0.00109
327.75	0.04875	0.00109
327.76	0.04872	0.00109
327.77	0.04878	0.00109
332.8	0.06796	0.00142
332.8	0.06798	0.00142
332.8	0.06797	0.00142
337.66	0.09261	0.00184
337.67	0.09259	0.00184
337.67	0.09267	0.00184
337.68	0.09275	0.00185
342.68	0.12603	0.00242
342.69	0.12614	0.00242
342.69	0.1262	0.00242
342.7	0.1262	0.00242
347.63	0.16945	0.00272
347.65	0.16954	0.00272
347.66	0.16963	0.00272
352.45	0.22346	0.00336
352.46	0.22358	0.00337
352.46	0.22365	0.00337
352.47	0.22384	0.00337
352.49	0.22414	0.00337
357.49	0.29602	0.00424
357.5	0.29613	0.00424
357.5	0.29624	0.00424
357.5	0.29631	0.00424
362.62	0.39059	0.00538
362.63	0.39064	0.00538
362.63	0.39067	0.00538

System: ethylene carbonate; phases: Crystal
Fixed: Pressure, kPa = 101.325
Property: Molar heat capacity at constant pressure, J/K/mol (Crystal); method: Extra sensitive DSC
Temperature, K	Molar heat capacity at constant pressure, J/K/mol	uncertainty
262.19	101.89	3.95
264	102.85	3.98
266	104	4.03
268	105.06	4.07
270	106.2	4.11
272	107.35	4.16
274	108.49	4.2
276	109.72	4.25
278	110.87	4.29
280	112.1	4.34
282	113.33	4.39
284	114.57	4.44
286	115.8	4.49
288	117.03	4.53
290	118.26	4.58
292	119.59	4.63
294	120.91	4.68
295.68	121.96	4.72

System: ethylene carbonate; phases: Liquid
Fixed: Pressure, kPa = 101.325
Property: Molar heat capacity at constant pressure, J/K/mol (Liquid); method: Extra sensitive DSC
Temperature, K	Molar heat capacity at constant pressure, J/K/mol	uncertainty
316.43	139.49	5.4
317	139.58	5.41
318	139.75	5.41
319	139.84	5.42
320	140.02	5.42
321	140.1	5.43
322	140.28	5.43
323	140.37	5.44
323.6	140.46	5.44

System: 4-methyl-1,3-dioxolan-2-one; phases: Liquid, Gas
Property: Vapor or sublimation pressure, kPa (Liquid); method: Closed cell (Static) method
Temperature, K	Vapor or sublimation pressure, kPa	uncertainty
278.19	0.00132	0.00013
278.37	0.00133	0.00013
278.37	0.00133	0.00013
278.39	0.00133	0.00013
283.31	0.00214	0.00015
283.31	0.00214	0.00015
283.32	0.00214	0.00015
283.32	0.00214	0.00015
288.19	0.00332	0.00017
288.19	0.00332	0.00017
288.2	0.00333	0.00017
288.22	0.00332	0.00017
293.12	0.00511	0.00022
293.14	0.00512	0.00022
293.15	0.00514	0.00023
293.15	0.00511	0.00022
298.1	0.00778	0.00032
298.1	0.00778	0.00032
298.11	0.00778	0.00032
298.12	0.00777	0.00032
303.01	0.01158	0.00046
303.01	0.01155	0.00046
303.03	0.01156	0.00046
307.94	0.01701	0.00058
307.94	0.01698	0.00058
307.95	0.01694	0.00057
307.95	0.01696	0.00057
312.97	0.0247	0.00069
312.97	0.02472	0.00069
312.98	0.02474	0.00069
312.99	0.02479	0.0007
317.91	0.03529	0.00086
317.92	0.0353	0.00086
317.92	0.03533	0.00086
317.92	0.03536	0.00086
322.9	0.04993	0.00111
322.92	0.04996	0.00111
322.92	0.05002	0.00111
322.92	0.05	0.00111
327.8	0.06936	0.00144
327.81	0.06935	0.00144
327.81	0.06932	0.00144
327.81	0.06938	0.00144
332.89	0.09634	0.00191
332.89	0.09635	0.00191
332.91	0.09643	0.00191
332.92	0.09645	0.00191
337.83	0.13107	0.00227
337.84	0.13108	0.00227
337.84	0.13117	0.00227
337.85	0.13121	0.00227
342.82	0.17704	0.00281
342.83	0.17715	0.00281
342.84	0.17729	0.00281
342.84	0.17724	0.00281
347.69	0.23533	0.00351
347.69	0.23533	0.00351
347.7	0.23536	0.00351
347.7	0.23544	0.00351
352.55	0.30959	0.0044
352.58	0.3102	0.00441
352.59	0.3103	0.00441
357.59	0.40781	0.00559
357.59	0.40783	0.0056
357.59	0.40782	0.00559
357.6	0.40794	0.0056
362.51	0.52898	0.00707
362.53	0.52931	0.00707
362.53	0.52945	0.00707
362.53	0.52951	0.00707

System: 4-methyl-1,3-dioxolan-2-one; phases: Liquid
Fixed: Pressure, kPa = 101.325
Property: Molar heat capacity at constant pressure, J/K/mol (Liquid); method: Extra sensitive DSC
Temperature, K	Molar heat capacity at constant pressure, J/K/mol	uncertainty
262.22	162.94	6.31
265	163.34	6.33
270	164.16	6.36
275	164.98	6.39
280	165.79	6.42
285	166.61	6.45
290	167.53	6.49
295	168.45	6.52
300	169.37	6.56
305	170.29	6.6
310	171.2	6.63
315	172.23	6.67
320	173.14	6.71
325	174.17	6.75
330	175.19	6.79
335	176.11	6.82
340	177.13	6.86
345	178.15	6.9
350	179.17	6.94
355	180.09	6.97
357.99	180.7	7

System: .gamma.-valerolactone; phases: Crystal, Liquid, Air at 1 atmosphere
Property: Normal melting temperature, K (Crystal); method: DTA
Normal melting temperature, K	uncertainty
238.34	0.7

System: .gamma.-valerolactone; phases: Crystal, Liquid, Air at 1 atmosphere
Property: Molar enthalpy of transition or fusion, kJ/mol (Crystal); method: DSC
Molar enthalpy of transition or fusion, kJ/mol	uncertainty
7.1	0.6

System: .gamma.-valerolactone; phases: Liquid, Gas
Property: Vapor or sublimation pressure, kPa (Liquid); method: Closed cell (Static) method
Temperature, K	Vapor or sublimation pressure, kPa	uncertainty
238.09	0.00015	0.00011
238.08	0.00015	0.00011
238.07	0.00014	0.00011
243.07	0.00026	0.00011
243.06	0.00026	0.00011
243.06	0.00026	0.00011
248.13	0.00048	0.00012
248.13	0.00048	0.00012
248.13	0.00048	0.00012
253.14	0.00082	0.00012
253.14	0.00082	0.00012
253.14	0.00082	0.00012
258.15	0.00138	0.00013
258.15	0.00138	0.00013
258.15	0.00138	0.00013
263.14	0.00228	0.00015
263.14	0.00228	0.00015
263.14	0.00228	0.00015
268.14	0.00369	0.00018
268.14	0.00369	0.00018
268.14	0.00369	0.00018
273.15	0.00586	0.00025
273.15	0.00586	0.00025
273.14	0.00586	0.00025
273.64	0.00612	0.00026
273.64	0.00612	0.00026
273.63	0.00612	0.00026
278.14	0.00912	0.00037
278.14	0.00912	0.00037
278.14	0.00912	0.00037
283.14	0.01396	0.00053
283.14	0.01395	0.00053
283.14	0.01395	0.00053
288.14	0.02098	0.00064
288.14	0.02097	0.00064
288.15	0.021	0.00064
293.14	0.03111	0.0008
293.14	0.03109	0.0008
293.13	0.03106	0.0008
298.14	0.04532	0.00102
298.14	0.04531	0.00102
298.14	0.04532	0.00102
303.13	0.06501	0.00133
303.13	0.06502	0.00133
303.13	0.06502	0.00133
308.14	0.09212	0.00175
308.14	0.09211	0.00175
308.14	0.09211	0.00175

System: .gamma.-valerolactone; phases: Liquid
Fixed: Pressure, kPa = 101.325
Property: Molar heat capacity at constant pressure, J/K/mol (Liquid); method: Extra sensitive DSC
Temperature, K	Molar heat capacity at constant pressure, J/K/mol	uncertainty
265.37	167.7	6.5
270	168.6	6.53
275	169.6	6.57
280	170.7	6.61
285	171.81	6.65
290	172.91	6.7
295	174.11	6.74
300	175.31	6.79
305	176.61	6.84
310	177.81	6.89
315	179.11	6.94
320	180.42	6.99
325	181.72	7.04
330	183.02	7.09
335	184.22	7.13
340	185.52	7.19
345	186.72	7.23
350	187.93	7.28
355	189.13	7.33
358.5	189.93	7.36
