Measured thermophysical data. Measurement and Correlation of Solubility and Thermodynamic Properties of Vinpocetine in Nine Pure Solvents and (Ethanol + Water) Binary Solvent
Source: J. Chem. Eng. Data, 2019, 10.1021/acs.jced.8b00663
Compound 1: vinpocetine, C22H26N2O2, InChI=1S/C22H26N2O2/c1-3-22-11-7-12-23-13-10-16-15-8-5-6-9-17(15)24(19(16)20(22)23)18(14-22)21(25)26-4-2/h5-6,8-9,14,20H,3-4,7,10-13H2,1-2H3/t20-,22+/m1/s1, purity 99%
Compound 2: methanol, CH4O, InChI=1S/CH4O/c1-2/h2H,1H3, purity 99.8%
Compound 3: ethanol, C2H6O, InChI=1S/C2H6O/c1-2-3/h3H,2H2,1H3, purity 99.7%
Compound 4: propan-1-ol, C3H8O, InChI=1S/C3H8O/c1-2-3-4/h4H,2-3H2,1H3, purity 99.8%
Compound 5: propan-2-ol, C3H8O, InChI=1S/C3H8O/c1-3(2)4/h3-4H,1-2H3, purity 99.7%
Compound 6: butan-1-ol, C4H10O, InChI=1S/C4H10O/c1-2-3-4-5/h5H,2-4H2,1H3, purity 99.5%
Compound 7: ethyl acetate, C4H8O2, InChI=1S/C4H8O2/c1-3-6-4(2)5/h3H2,1-2H3, purity 99.5%
Compound 8: methyl ethanoate, C3H6O2, InChI=1S/C3H6O2/c1-3(4)5-2/h1-2H3, purity 98%
Compound 9: cyclohexane, C6H12, InChI=1S/C6H12/c1-2-4-6-5-3-1/h1-6H2, purity 99.5%
Compound 10: butanone, C4H8O, InChI=1S/C4H8O/c1-3-4(2)5/h3H2,1-2H3, purity 99.5%
Compound 11: water, H2O, InChI=1S/H2O/h1H2, purity 99.9%
Compound 12: thiourea, CH4N2S, InChI=1S/CH4N2S/c2-1(3)4/h(H4,2,3,4), purity 99.5%

System: vinpocetine; phases: Crystal, Liquid, Air at 1 atmosphere
Property: Normal melting temperature, K (Crystal); method: DTA
Normal melting temperature, K	uncertainty
422.15	1.06

System: vinpocetine; phases: Crystal, Liquid, Air at 1 atmosphere
Property: Molar enthalpy of transition or fusion, kJ/mol (Crystal); method: DSC
Molar enthalpy of transition or fusion, kJ/mol	uncertainty
37.359	1.664

System: vinpocetine + methanol; phases: Liquid, Crystal
Fixed: Pressure, kPa = 101.3
Property: Mole fraction of vinpocetine (Liquid); method: gravimetric
Temperature, K	Mole fraction of vinpocetine	uncertainty
283.15	0.0003783	2.27e-05
288.15	0.0004755	2.86e-05
293.15	0.0006076	3.65e-05
298.15	0.0007365	4.42e-05
303.15	0.0008899	5.34e-05
308.15	0.0010989	6.6e-05
313.15	0.0013599	8.17e-05
318.15	0.0016592	9.97e-05
323.15	0.0020372	0.0001223

System: vinpocetine + ethanol; phases: Liquid, Crystal
Fixed: Pressure, kPa = 101.3
Property: Mole fraction of vinpocetine (Liquid); method: gravimetric
Temperature, K	Mole fraction of vinpocetine	uncertainty
283.15	0.0004919	2.96e-05
288.15	0.0006407	3.85e-05
293.15	0.0008204	4.93e-05
298.15	0.0010134	6.09e-05
303.15	0.0012637	7.59e-05
308.15	0.0015808	9.49e-05
313.15	0.0019711	0.0001184
318.15	0.0024458	0.0001469
323.15	0.0030239	0.0001816

System: vinpocetine + propan-1-ol; phases: Liquid, Crystal
Fixed: Pressure, kPa = 101.3
Property: Mole fraction of vinpocetine (Liquid); method: gravimetric
Temperature, K	Mole fraction of vinpocetine	uncertainty
283.15	0.0007266	4.37e-05
288.15	0.0009796	5.89e-05
293.15	0.0012636	7.59e-05
298.15	0.0016386	9.84e-05
303.15	0.0020846	0.0001252
308.15	0.0026809	0.000161
313.15	0.0034291	0.000206
318.15	0.0043483	0.0002612
323.15	0.0052778	0.000317

System: vinpocetine + propan-2-ol; phases: Liquid, Crystal
Fixed: Pressure, kPa = 101.3
Property: Mole fraction of vinpocetine (Liquid); method: gravimetric
Temperature, K	Mole fraction of vinpocetine	uncertainty
283.15	0.0003447	2.07e-05
288.15	0.0004736	2.85e-05
293.15	0.0006429	3.86e-05
298.15	0.0008341	5.01e-05
303.15	0.001084	6.51e-05
308.15	0.0013737	8.25e-05
313.15	0.0018399	0.0001105
318.15	0.0024499	0.0001472
323.15	0.0032311	0.0001941

System: vinpocetine + butan-1-ol; phases: Liquid, Crystal
Fixed: Pressure, kPa = 101.3
Property: Mole fraction of vinpocetine (Liquid); method: gravimetric
Temperature, K	Mole fraction of vinpocetine	uncertainty
283.15	0.0009356	5.62e-05
288.15	0.0012655	7.6e-05
293.15	0.0017022	0.0001023
298.15	0.002202	0.0001323
303.15	0.0028501	0.0001712
308.15	0.0037399	0.0002247
313.15	0.0048003	0.0002884
318.15	0.0063232	0.0003799
323.15	0.0080564	0.0004839

System: vinpocetine + ethyl acetate; phases: Liquid, Crystal
Fixed: Pressure, kPa = 101.3
Property: Mole fraction of vinpocetine (Liquid); method: gravimetric
Temperature, K	Mole fraction of vinpocetine	uncertainty
283.15	0.0038971	0.0002341
288.15	0.0048064	0.0002887
293.15	0.0058528	0.0003515
298.15	0.0071846	0.0004315
303.15	0.0087908	0.000528
308.15	0.0106196	0.0006378
313.15	0.0127494	0.0007657
318.15	0.0153509	0.0009219
323.15	0.0185256	0.0011125

System: vinpocetine + methyl ethanoate; phases: Liquid, Crystal
Fixed: Pressure, kPa = 101.3
Property: Mole fraction of vinpocetine (Liquid); method: gravimetric
Temperature, K	Mole fraction of vinpocetine	uncertainty
283.15	0.0026245	0.0001577
288.15	0.0032931	0.0001978
293.15	0.0041581	0.0002498
298.15	0.0051682	0.0003104
303.15	0.0064589	0.0003879
308.15	0.0079443	0.0004771
313.15	0.0097327	0.0005846
318.15	0.0121088	0.0007273
323.15	0.0148049	0.0008891

System: vinpocetine + cyclohexane; phases: Liquid, Crystal
Fixed: Pressure, kPa = 101.3
Property: Mole fraction of vinpocetine (Liquid); method: gravimetric
Temperature, K	Mole fraction of vinpocetine	uncertainty
283.15	0.0013289	7.98e-05
288.15	0.001696	0.0001019
293.15	0.002159	0.0001297
298.15	0.0027439	0.0001648
303.15	0.0034599	0.0002078
308.15	0.0043274	0.0002599
313.15	0.0053664	0.0003223
318.15	0.0065604	0.000394
323.15	0.0080228	0.0004818

System: vinpocetine + butanone; phases: Liquid, Crystal
Fixed: Pressure, kPa = 101.3
Property: Mole fraction of vinpocetine (Liquid); method: gravimetric
Temperature, K	Mole fraction of vinpocetine	uncertainty
283.15	0.0052639	0.0003162
288.15	0.0064916	0.0003899
293.15	0.0079349	0.0004766
298.15	0.0096199	0.0005778
303.15	0.0117504	0.0007057
308.15	0.0141567	0.0008502
313.15	0.0169744	0.0010194
318.15	0.0202769	0.0012177
323.15	0.0238834	0.0014342

System: vinpocetine + ethanol + water; phases: Liquid, Crystal
Fixed: Pressure, kPa = 101.3
Property: Mole fraction of vinpocetine (Liquid); method: gravimetric
Solvent: Mass fraction of ethanol	Temperature, K	Mole fraction of vinpocetine	uncertainty
0.2	283.15	3.9e-06	2e-07
0.2	288.15	5.5e-06	3e-07
0.2	293.15	7.6e-06	5e-07
0.2	298.15	1.03e-05	6e-07
0.2	303.15	1.4e-05	8e-07
0.2	308.15	1.89e-05	1.1e-06
0.2	313.15	2.53e-05	1.5e-06
0.2	318.15	3.46e-05	2.1e-06
0.2	323.15	4.61e-05	2.8e-06
0.3	283.15	3.43e-05	2.1e-06
0.3	288.15	4.46e-05	2.7e-06
0.3	293.15	5.8e-05	3.5e-06
0.3	298.15	7.2e-05	4.3e-06
0.3	303.15	9.1e-05	5.5e-06
0.3	308.15	0.0001154	6.9e-06
0.3	313.15	0.00014	8.4e-06
0.3	318.15	0.0001799	1.08e-05
0.3	323.15	0.00023	1.38e-05
0.4	283.15	8.83e-05	5.3e-06
0.4	288.15	0.0001152	6.9e-06
0.4	293.15	0.0001485	8.9e-06
0.4	298.15	0.0001762	1.06e-05
0.4	303.15	0.0002318	1.39e-05
0.4	308.15	0.00029	1.74e-05
0.4	313.15	0.000353	2.12e-05
0.4	318.15	0.0004393	2.64e-05
0.4	323.15	0.0005613	3.37e-05
0.5	283.15	0.0001682	1.01e-05
0.5	288.15	0.0002154	1.29e-05
0.5	293.15	0.000276	1.66e-05
0.5	298.15	0.0003398	2.04e-05
0.5	303.15	0.0004299	2.58e-05
0.5	308.15	0.000539	3.24e-05
0.5	313.15	0.0006684	4.01e-05
0.5	318.15	0.0008499	5.1e-05
0.5	323.15	0.001039	6.24e-05
0.6	283.15	0.0002561	1.54e-05
0.6	288.15	0.0003302	1.98e-05
0.6	293.15	0.0004293	2.58e-05
0.6	298.15	0.0005195	3.12e-05
0.6	303.15	0.0006387	3.84e-05
0.6	308.15	0.0008258	4.96e-05
0.6	313.15	0.0009999	6.01e-05
0.6	318.15	0.0012573	7.55e-05
0.6	323.15	0.0015519	9.32e-05
0.7	283.15	0.0003609	2.17e-05
0.7	288.15	0.0004514	2.71e-05
0.7	293.15	0.0005896	3.54e-05
0.7	298.15	0.0007147	4.29e-05
0.7	303.15	0.0008996	5.4e-05
0.7	308.15	0.0011281	6.78e-05
0.7	313.15	0.0014091	8.46e-05
0.7	318.15	0.0017559	0.0001055
0.7	323.15	0.0021501	0.0001291
0.8	283.15	0.0004308	2.59e-05
0.8	288.15	0.0005553	3.34e-05
0.8	293.15	0.0007108	4.27e-05
0.8	298.15	0.0008798	5.28e-05
0.8	303.15	0.0010954	6.58e-05
0.8	308.15	0.0014133	8.49e-05
0.8	313.15	0.0017198	0.0001033
0.8	318.15	0.0021924	0.0001317
0.8	323.15	0.0026647	0.00016
0.9	283.15	0.0004501	2.7e-05
0.9	288.15	0.0005778	3.47e-05
0.9	293.15	0.0007554	4.54e-05
0.9	298.15	0.0009516	5.72e-05
0.9	303.15	0.0011836	7.11e-05
0.9	308.15	0.0015383	9.24e-05
0.9	313.15	0.0018743	0.0001126
0.9	318.15	0.0024363	0.0001463
0.9	323.15	0.0030255	0.0001817
1	283.15	0.0004919	2.96e-05
1	288.15	0.0006407	3.85e-05
1	293.15	0.0008204	4.93e-05
1	298.15	0.0010134	6.09e-05
1	303.15	0.0012637	7.59e-05
1	308.15	0.0015808	9.49e-05
1	313.15	0.0019711	0.0001184
1	318.15	0.0024458	0.0001469
1	323.15	0.0030239	0.0001816

System: thiourea + methanol + ethanol; phases: Liquid, Crystal
Fixed: Pressure, kPa = 101.3
Property: Mole fraction of thiourea (Liquid); method: gravimetric
Solvent: Mass fraction of methanol	Temperature, K	Mole fraction of thiourea	uncertainty
0.4	288.15	0.02668	0.0016
0.4	298.15	0.03297	0.00198
0.4	308.15	0.03995	0.0024
0.8	288.15	0.03789	0.00228
0.8	298.15	0.04541	0.00273
0.8	308.15	0.05518	0.00331

System: thiourea + methanol + propan-1-ol; phases: Liquid, Crystal
Fixed: Pressure, kPa = 101.3
Property: Mole fraction of thiourea (Liquid); method: gravimetric
Solvent: Mass fraction of methanol	Temperature, K	Mole fraction of thiourea	uncertainty
0.4	288.15	0.01987	0.00119
0.4	298.15	0.02451	0.00147
0.4	308.15	0.03082	0.00185
0.8	288.15	0.03324	0.002
0.8	298.15	0.03968	0.00238
0.8	308.15	0.04922	0.00296
