Measured thermophysical data. Equilibrium Solubilities of Diisooctyl Sebacate in Supercritical Carbon Dioxide
Source: J. Chem. Eng. Data, 2015, 10.1021/acs.jced.5b00457
Compound 1: carbon dioxide, CO2, InChI=1S/CO2/c2-1-3, purity 99.9%
Compound 2: bis(2-ethylhexyl) decanedioate, C26H50O4, InChI=1S/C26H50O4/c1-5-9-17-23(7-3)21-29-25(27)19-15-13-11-12-14-16-20-26(28)30-22-24(8-4)18-10-6-2/h23-24H,5-22H2,1-4H3, purity 98%
Compound 3: ethanol, C2H6O, InChI=1S/C2H6O/c1-2-3/h3H,2H2,1H3, purity 99.8%

System: ethanol + carbon dioxide; phases: Liquid, Gas
Fixed: Temperature, K = 333.4
Property: Vapor or sublimation pressure, kPa (Liquid); method: Closed cell (Static) method
Mole fraction of carbon dioxide	Vapor or sublimation pressure, kPa	uncertainty
0.4934	9020	240
0.6111	9950	250
0.8164	10660	260

System: ethanol + carbon dioxide; phases: Gas, Liquid
Fixed: Temperature, K = 333.4
Property: Mole fraction of carbon dioxide (Gas); method: volumetric
Mole fraction of carbon dioxide	Mole fraction of carbon dioxide	uncertainty
0.4934	0.9725	0.0101
0.6111	0.9532	0.0102
0.8164	0.9085	0.0102

System: bis(2-ethylhexyl) decanedioate + carbon dioxide; phases: Liquid, Gas
Property: Vapor or sublimation pressure, kPa (Liquid); method: Closed cell (Static) method
Mole fraction of carbon dioxide	Temperature, K	Vapor or sublimation pressure, kPa	uncertainty
0.4415	313.2	7260	300
0.4724	313.2	8180	310
0.4988	313.2	9000	280
0.5616	313.2	10660	240
0.6292	313.2	12000	220
0.6808	313.2	13080	200
0.7351	313.2	13960	180
0.4228	328.2	7240	490
0.4623	328.2	9180	400
0.4943	328.2	10020	280
0.5372	328.2	11240	260
0.5814	328.2	12220	240
0.6605	328.2	14080	210
0.7436	328.2	15420	180
0.4029	343.2	7260	540
0.4261	343.2	8380	480
0.4543	343.2	9680	360
0.5141	343.2	11580	310
0.5613	343.2	13000	280
0.6243	343.2	14620	230
0.6902	343.2	15820	200
0.3942	358.2	7280	630
0.4157	358.2	8620	550
0.4432	358.2	9980	480
0.4671	358.2	11080	460
0.5095	358.2	12980	380
0.5524	358.2	14240	260
0.6263	358.2	15960	250

System: bis(2-ethylhexyl) decanedioate + carbon dioxide; phases: Gas, Liquid
Property: Mole fraction of carbon dioxide (Gas); method: volumetric
Temperature, K	Mole fraction of carbon dioxide	Mole fraction of carbon dioxide	uncertainty
313.2	0.4415	0.9973	0.0027
313.2	0.4724	0.9961	0.0039
313.2	0.4988	0.995	0.005
313.2	0.5616	0.9935	0.0065
313.2	0.6292	0.9922	0.0078
313.2	0.6808	0.9908	0.0092
313.2	0.7351	0.989	0.01
328.2	0.4228	0.9976	0.0024
328.2	0.4623	0.9959	0.0041
328.2	0.4943	0.9951	0.0049
328.2	0.5372	0.9939	0.0061
328.2	0.5814	0.9928	0.0072
328.2	0.6605	0.991	0.009
328.2	0.7436	0.9892	0.01
343.2	0.4029	0.9981	0.0019
343.2	0.4261	0.9972	0.0028
343.2	0.4543	0.996	0.004
343.2	0.5141	0.9946	0.0054
343.2	0.5613	0.9933	0.0067
343.2	0.6243	0.9917	0.0083
343.2	0.6902	0.9901	0.0099
358.2	0.3942	0.9986	0.0014
358.2	0.4157	0.9975	0.0025
358.2	0.4432	0.9966	0.0034
358.2	0.4671	0.9956	0.0044
358.2	0.5095	0.9943	0.0057
358.2	0.5524	0.9931	0.0069
358.2	0.6263	0.9914	0.0086
