Measured thermophysical data. Solubility of Hexane in Aqueous Solutions of Methyldiethanolamine
Source: J. Chem. Eng. Data, 2015, 10.1021/acs.jced.5b00240
Compound 1: hexane, C6H14, InChI=1S/C6H14/c1-3-5-6-4-2/h3-6H2,1-2H3
Compound 2: N-methyldiethanolamine, C5H13NO2, InChI=1S/C5H13NO2/c1-6(2-4-7)3-5-8/h7-8H,2-5H2,1H3
Compound 3: water, H2O, InChI=1S/H2O/h1H2

System: N-methyldiethanolamine + hexane + water; phases: Liquid mixture 1, Liquid mixture 2
Fixed: Pressure, kPa = 101
Property: Mole fraction of hexane (Liquid mixture 1); method: Chromatography
Solvent: Mass fraction of N-methyldiethanolamine	Temperature, K	Mole fraction of hexane	uncertainty
0.402	298.15	1.55e-05	1.14e-05
0.402	308.15	1.74e-05	1e-05
0.402	318.15	3e-05	1e-05
0.402	328.15	3.1e-05	1e-05
0.4499	298.15	2.12e-05	1e-05
0.4499	308.15	2.32e-05	1.01e-05
0.4499	318.15	4.2e-05	1.01e-05
0.4499	328.15	5.3e-05	1.01e-05
0.4999	298.15	4.37e-05	1.01e-05
0.4999	308.15	5.9e-05	1.01e-05
0.4999	318.15	7.03e-05	1.01e-05
0.4999	328.15	8.13e-05	1.6e-05
