Measured thermophysical data. Measurement and Correlation of the Solubility of 2,6-Dihydroxybenzoic Acid in Alcohols and Binary Solvents
Source: J. Chem. Eng. Data, 2017, 10.1021/acs.jced.6b00957
Compound 1: 2,6-dihydroxybenzoic acid, C7H6O4, InChI=1S/C7H6O4/c8-4-2-1-3-5(9)6(4)7(10)11/h1-3,8-9H,(H,10,11), purity 98%
Compound 2: methanol, CH4O, InChI=1S/CH4O/c1-2/h2H,1H3, purity 99.5%
Compound 3: ethanol, C2H6O, InChI=1S/C2H6O/c1-2-3/h3H,2H2,1H3, purity 99.5%
Compound 4: propan-2-ol, C3H8O, InChI=1S/C3H8O/c1-3(2)4/h3-4H,1-2H3, purity 99.5%
Compound 5: butan-1-ol, C4H10O, InChI=1S/C4H10O/c1-2-3-4-5/h5H,2-4H2,1H3, purity 99.5%
Compound 6: water, H2O, InChI=1S/H2O/h1H2, purity 99.9%
Compound 7: propan-1-ol, C3H8O, InChI=1S/C3H8O/c1-2-3-4/h4H,2-3H2,1H3, purity 99.5%
Compound 8: 2-hydroxybenzoic acid, C7H6O3, InChI=1S/C7H6O3/c8-6-4-2-1-3-5(6)7(9)10/h1-4,8H,(H,9,10), purity 99%

System: 2,6-dihydroxybenzoic acid; phases: Crystal, Liquid, Air at 1 atmosphere
Property: Normal melting temperature, K (Crystal); method: DTA
Normal melting temperature, K	uncertainty
440.2	4

System: 2,6-dihydroxybenzoic acid; phases: Crystal, Liquid, Air at 1 atmosphere
Property: Molar enthalpy of transition or fusion, kJ/mol (Crystal); method: DSC
Molar enthalpy of transition or fusion, kJ/mol	uncertainty
25.3	1.6

System: 2,6-dihydroxybenzoic acid + methanol; phases: Liquid, Crystal
Fixed: Pressure, kPa = 101.3
Property: Mole fraction of 2,6-dihydroxybenzoic acid (Liquid); method: Titration method
Temperature, K	Mole fraction of 2,6-dihydroxybenzoic acid	uncertainty
278.15	0.19966	0.09983
283.15	0.21374	0.10687
288.15	0.22653	0.11327
293.15	0.2471	0.12355
298.15	0.26061	0.13031
303.15	0.27568	0.13784
308.15	0.28369	0.14185
313.15	0.3004	0.1502
318.15	0.31383	0.15692

System: 2,6-dihydroxybenzoic acid + ethanol; phases: Liquid, Crystal
Fixed: Pressure, kPa = 101.3
Property: Mole fraction of 2,6-dihydroxybenzoic acid (Liquid); method: Titration method
Temperature, K	Mole fraction of 2,6-dihydroxybenzoic acid	uncertainty
278.15	0.22095	0.11048
283.15	0.23441	0.11721
288.15	0.24541	0.12271
293.15	0.25768	0.12884
298.15	0.27253	0.13627
303.15	0.28595	0.14298
308.15	0.29377	0.14689
313.15	0.30576	0.15288
318.15	0.31762	0.15881

System: 2,6-dihydroxybenzoic acid + propan-2-ol; phases: Liquid, Crystal
Fixed: Pressure, kPa = 101.3
Property: Mole fraction of 2,6-dihydroxybenzoic acid (Liquid); method: Titration method
Temperature, K	Mole fraction of 2,6-dihydroxybenzoic acid	uncertainty
278.15	0.22486	0.11243
283.15	0.23999	0.12
288.15	0.25356	0.12678
293.15	0.2681	0.13405
298.15	0.27985	0.13993
303.15	0.29229	0.14615
308.15	0.30328	0.15164
313.15	0.31491	0.15746
318.15	0.3231	0.16155

System: 2,6-dihydroxybenzoic acid + butan-1-ol; phases: Liquid, Crystal
Fixed: Pressure, kPa = 101.3
Property: Mole fraction of 2,6-dihydroxybenzoic acid (Liquid); method: Titration method
Temperature, K	Mole fraction of 2,6-dihydroxybenzoic acid	uncertainty
278.15	0.18871	0.09436
283.15	0.2022	0.1011
288.15	0.21608	0.10804
293.15	0.2302	0.1151
298.15	0.24488	0.12244
303.15	0.25975	0.12988
308.15	0.27494	0.13747
313.15	0.29042	0.14521
318.15	0.30617	0.15309

System: 2,6-dihydroxybenzoic acid + methanol + water; phases: Liquid, Crystal
Fixed: Pressure, kPa = 101.3
Property: Mole fraction of 2,6-dihydroxybenzoic acid (Liquid); method: Titration method
Temperature, K	Solvent: Mole fraction of methanol	Mole fraction of 2,6-dihydroxybenzoic acid	uncertainty
278.15	0.835	0.14555	0.07278
278.15	0.6922	0.08045	0.040226
278.15	0.5675	0.04333	0.021667
278.15	0.4575	0.01995	0.009976
278.15	0.3599	0.00904	0.00452
278.15	0.2727	0.00426	0.00213
278.15	0.1942	0.00199	0.000995
278.15	0.1232	0.00123	0.000615
278.15	0.0588	0.000435	0.000218
283.15	0.835	0.17401	0.08701
283.15	0.6922	0.09603	0.048017
283.15	0.5675	0.0545	0.027252
283.15	0.4575	0.02602	0.013012
283.15	0.3599	0.01208	0.006041
283.15	0.2727	0.00468	0.00234
283.15	0.1942	0.00232	0.00116
283.15	0.1232	0.00147	0.000735
283.15	0.0588	0.000759	0.00038
288.15	0.835	0.20111	0.10056
288.15	0.6922	0.11366	0.05683
288.15	0.5675	0.06615	0.033077
288.15	0.4575	0.03402	0.017012
288.15	0.3599	0.01553	0.007766
288.15	0.2727	0.00703	0.003515
288.15	0.1942	0.00294	0.00147
288.15	0.1232	0.00172	0.00086
288.15	0.0588	0.00111	0.000555
293.15	0.835	0.22338	0.11169
293.15	0.6922	0.13189	0.06595
293.15	0.5675	0.08029	0.040147
293.15	0.4575	0.04407	0.022037
293.15	0.3599	0.01993	0.009966
293.15	0.2727	0.01072	0.005361
293.15	0.1942	0.00367	0.001835
293.15	0.1232	0.00188	0.00094
293.15	0.0588	0.00139	0.000695
298.15	0.835	0.24019	0.1201
298.15	0.6922	0.1508	0.0754
298.15	0.5675	0.09737	0.048687
298.15	0.4575	0.05632	0.028162
298.15	0.3599	0.02617	0.013086
298.15	0.2727	0.01697	0.008486
298.15	0.1942	0.00478	0.00239
298.15	0.1232	0.00241	0.001205
298.15	0.0588	0.00198	0.00099
303.15	0.835	0.25276	0.12638
303.15	0.6922	0.17128	0.08564
303.15	0.5675	0.11686	0.05843
303.15	0.4575	0.07084	0.035423
303.15	0.3599	0.03519	0.017597
303.15	0.2727	0.02523	0.012616
303.15	0.1942	0.00678	0.003391
303.15	0.1232	0.00345	0.001725
303.15	0.0588	0.00218	0.00109
308.15	0.835	0.26322	0.13161
308.15	0.6922	0.19437	0.09719
308.15	0.5675	0.13777	0.06889
308.15	0.4575	0.0876	0.043803
308.15	0.3599	0.04769	0.023847
308.15	0.2727	0.03422	0.017111
308.15	0.1942	0.01027	0.005136
308.15	0.1232	0.00484	0.00242
308.15	0.0588	0.00255	0.001275
313.15	0.835	0.27358	0.13679
313.15	0.6922	0.22049	0.11025
313.15	0.5675	0.15917	0.07959
313.15	0.4575	0.10635	0.05318
313.15	0.3599	0.06382	0.031912
313.15	0.2727	0.04278	0.021391
313.15	0.1942	0.01581	0.007906
313.15	0.1232	0.0064	0.0032
313.15	0.0588	0.00319	0.001595
318.15	0.835	0.28472	0.14236
318.15	0.6922	0.24877	0.12439
318.15	0.5675	0.18076	0.09038
318.15	0.4575	0.12658	0.06329
318.15	0.3599	0.08285	0.041427
318.15	0.2727	0.05087	0.025436
318.15	0.1942	0.02371	0.011856
318.15	0.1232	0.00839	0.004196
318.15	0.0588	0.00418	0.00209

System: 2,6-dihydroxybenzoic acid + ethanol + water; phases: Liquid, Crystal
Fixed: Pressure, kPa = 101.3
Property: Mole fraction of 2,6-dihydroxybenzoic acid (Liquid); method: Titration method
Temperature, K	Solvent: Mole fraction of ethanol	Mole fraction of 2,6-dihydroxybenzoic acid	uncertainty
278.15	0.7787	0.12851	0.06426
278.15	0.61	0.06786	0.033931
278.15	0.4771	0.04568	0.022841
278.15	0.3697	0.03103	0.015516
278.15	0.2811	0.01591	0.007956
278.15	0.2068	0.00655	0.003275
278.15	0.1435	0.00294	0.00147
278.15	0.0891	0.00189	0.000945
278.15	0.0416	0.000657	0.000329
283.15	0.7787	0.14167	0.07084
283.15	0.61	0.07034	0.035171
283.15	0.4771	0.05368	0.026841
283.15	0.3697	0.03394	0.016971
283.15	0.2811	0.01769	0.008846
283.15	0.2068	0.00777	0.003885
283.15	0.1435	0.00385	0.001925
283.15	0.0891	0.00201	0.001005
283.15	0.0416	0.00127	0.000635
288.15	0.7787	0.16109	0.08055
288.15	0.61	0.07546	0.037731
288.15	0.4771	0.06328	0.031641
288.15	0.3697	0.04282	0.021411
288.15	0.2811	0.02252	0.011261
288.15	0.2068	0.01141	0.005706
288.15	0.1435	0.00488	0.00244
288.15	0.0891	0.00222	0.00111
288.15	0.0416	0.00183	0.000915
293.15	0.7787	0.18366	0.09183
293.15	0.61	0.08304	0.041522
293.15	0.4771	0.07424	0.037121
293.15	0.3697	0.05339	0.026696
293.15	0.2811	0.02898	0.014491
293.15	0.2068	0.0181	0.009051
293.15	0.1435	0.00614	0.00307
293.15	0.0891	0.00293	0.001465
293.15	0.0416	0.00205	0.001025
298.15	0.7787	0.20708	0.10354
298.15	0.61	0.09292	0.046462
298.15	0.4771	0.08642	0.043211
298.15	0.3697	0.06455	0.032276
298.15	0.2811	0.03632	0.018161
298.15	0.2068	0.02462	0.012311
298.15	0.1435	0.00803	0.004015
298.15	0.0891	0.00377	0.001885
298.15	0.0416	0.00235	0.001175
303.15	0.7787	0.22979	0.1149
303.15	0.61	0.10493	0.05247
303.15	0.4771	0.09971	0.049856
303.15	0.3697	0.07632	0.038161
303.15	0.2811	0.04424	0.022121
303.15	0.2068	0.03066	0.015331
303.15	0.1435	0.01114	0.005571
303.15	0.0891	0.00491	0.002455
303.15	0.0416	0.00268	0.00134
308.15	0.7787	0.25084	0.12542
308.15	0.61	0.11893	0.05947
308.15	0.4771	0.11405	0.05703
308.15	0.3697	0.08933	0.044666
308.15	0.2811	0.05287	0.026436
308.15	0.2068	0.03706	0.018531
308.15	0.1435	0.01599	0.007996
308.15	0.0891	0.00672	0.00336
308.15	0.0416	0.00331	0.001655
313.15	0.7787	0.26978	0.13489
313.15	0.61	0.1348	0.0674
313.15	0.4771	0.12934	0.06467
313.15	0.3697	0.10434	0.05217
313.15	0.2811	0.06259	0.031296
313.15	0.2068	0.04522	0.022611
313.15	0.1435	0.02288	0.011441
313.15	0.0891	0.00962	0.00481
313.15	0.0416	0.00427	0.002135
318.15	0.7787	0.28656	0.14328
318.15	0.61	0.15241	0.07621
318.15	0.4771	0.14544	0.07272
318.15	0.3697	0.12179	0.0609
318.15	0.2811	0.07395	0.036977
318.15	0.2068	0.05658	0.028291
318.15	0.1435	0.0317	0.015851
318.15	0.0891	0.01395	0.006976
318.15	0.0416	0.00559	0.002795

System: 2,6-dihydroxybenzoic acid + propan-2-ol + water; phases: Liquid, Crystal
Fixed: Pressure, kPa = 101.3
Property: Mole fraction of 2,6-dihydroxybenzoic acid (Liquid); method: Titration method
Temperature, K	Solvent: Mole fraction of propan-2-ol	Mole fraction of 2,6-dihydroxybenzoic acid	uncertainty
278.15	0.7297	0.10093	0.05047
278.15	0.5454	0.0743	0.037151
278.15	0.4117	0.04268	0.021341
278.15	0.3103	0.03129	0.015646
278.15	0.2307	0.01477	0.007385
278.15	0.1667	0.01257	0.006285
278.15	0.1139	0.00473	0.002365
278.15	0.0698	0.00169	0.000845
278.15	0.0323	0.000891	0.000446
283.15	0.7297	0.11707	0.05854
283.15	0.5454	0.08408	0.042041
283.15	0.4117	0.05169	0.025846
283.15	0.3103	0.03845	0.019226
283.15	0.2307	0.02069	0.010346
283.15	0.1667	0.01533	0.007665
283.15	0.1139	0.00654	0.00327
283.15	0.0698	0.00178	0.00089
283.15	0.0323	0.00133	0.000665
288.15	0.7297	0.13504	0.06752
288.15	0.5454	0.09318	0.046591
288.15	0.4117	0.06239	0.031196
288.15	0.3103	0.04505	0.022526
288.15	0.2307	0.02855	0.014276
288.15	0.1667	0.01832	0.00916
288.15	0.1139	0.00863	0.004315
288.15	0.0698	0.00219	0.001095
288.15	0.0323	0.00181	0.000905
293.15	0.7297	0.15362	0.07681
293.15	0.5454	0.10414	0.05207
293.15	0.4117	0.07433	0.037166
293.15	0.3103	0.05171	0.025856
293.15	0.2307	0.03657	0.018286
293.15	0.1667	0.02217	0.011085
293.15	0.1139	0.01089	0.005445
293.15	0.0698	0.00359	0.001795
293.15	0.0323	0.00245	0.001225
298.15	0.7297	0.17194	0.08597
298.15	0.5454	0.11723	0.05862
298.15	0.4117	0.08717	0.043586
298.15	0.3103	0.05959	0.029796
298.15	0.2307	0.04445	0.022226
298.15	0.1667	0.02719	0.013596
298.15	0.1139	0.01394	0.00697
298.15	0.0698	0.00556	0.00278
298.15	0.0323	0.00289	0.001445
303.15	0.7297	0.18945	0.09473
303.15	0.5454	0.13147	0.06574
303.15	0.4117	0.10068	0.05034
303.15	0.3103	0.06998	0.034991
303.15	0.2307	0.0528	0.026401
303.15	0.1667	0.03341	0.016706
303.15	0.1139	0.01803	0.009015
303.15	0.0698	0.00806	0.00403
303.15	0.0323	0.00339	0.001695
308.15	0.7297	0.20587	0.10294
308.15	0.5454	0.14559	0.0728
308.15	0.4117	0.11482	0.05741
308.15	0.3103	0.08382	0.041911
308.15	0.2307	0.06263	0.031316
308.15	0.1667	0.04065	0.020326
308.15	0.1139	0.02307	0.011535
308.15	0.0698	0.01103	0.005515
308.15	0.0323	0.00415	0.002075
313.15	0.7297	0.22126	0.11063
313.15	0.5454	0.15902	0.07951
313.15	0.4117	0.12971	0.06486
313.15	0.3103	0.10126	0.05063
313.15	0.2307	0.07476	0.037381
313.15	0.1667	0.0486	0.024301
313.15	0.1139	0.02883	0.014416
313.15	0.0698	0.0144	0.0072
313.15	0.0323	0.00535	0.002675
318.15	0.7297	0.23592	0.11796
318.15	0.5454	0.17291	0.08646
318.15	0.4117	0.14567	0.07284
318.15	0.3103	0.12122	0.06061
318.15	0.2307	0.08933	0.044666
318.15	0.1667	0.05685	0.028426
318.15	0.1139	0.03501	0.017506
318.15	0.0698	0.01811	0.009055
318.15	0.0323	0.0071	0.00355

System: 2-hydroxybenzoic acid + propan-1-ol; phases: Liquid, Crystal
Fixed: Pressure, kPa = 101.3
Property: Mole fraction of 2-hydroxybenzoic acid (Liquid); method: Titration method
Temperature, K	Mole fraction of 2-hydroxybenzoic acid	uncertainty
298.2	0.1265	0.0633
308.2	0.1576	0.0788
318.2	0.1588	0.0794
328.2	0.1883	0.0942
338.2	0.1901	0.0951

System: 2-hydroxybenzoic acid + propan-1-ol + water; phases: Liquid, Crystal
Fixed: Pressure, kPa = 101.3
Fixed: Temperature, K = 298.2
Property: Mole fraction of 2-hydroxybenzoic acid (Liquid); method: Titration method
Solvent: Mole fraction of propan-1-ol	Mole fraction of 2-hydroxybenzoic acid	uncertainty
0.731	0.1334	0.0669
0.545	0.1162	0.0585
0.411	0.0958	0.0495
0.31	0.0663	0.0366
0.231	0.0492	0.0278
