Measured thermophysical data. Molecular Interactions of Saccharides and Their Derivatives with Thiamine HCl and Pyridoxine HCl Vitamins in Aqueous Solutions: Calorimetric, Viscometric, and NMR Spectroscopic Studies
Source: J. Chem. Eng. Data, 2018, 10.1021/acs.jced.7b00937
Compound 1: thiamine hydrochloride, C12H18Cl2N4OS, InChI=1S/C12H17N4OS.2ClH/c1-8-11(3-4-17)18-7-16(8)6-10-5-14-9(2)15-12(10)13;;/h5,7,17H,3-4,6H2,1-2H3,(H2,13,14,15);2*1H/q+1;;/p-1, purity 99%
Compound 2: 5-hydroxy-6-methyl-3,4-pyridinedimethanol hydrochloride, C8H12ClNO3, InChI=1S/C8H11NO3.ClH/c1-5-8(12)7(4-11)6(3-10)2-9-5;/h2,10-12H,3-4H2,1H3;1H, purity 99%
Compound 3: D-xylose, C5H10O5, InChI=1S/C5H10O5/c6-1-3(8)5(10)4(9)2-7/h1,3-5,7-10H,2H2/t3-,4+,5+/m0/s1, purity 99%
Compound 4: xylitol, C5H12O5, InChI=1S/C5H12O5/c6-1-3(8)5(10)4(9)2-7/h3-10H,1-2H2/t3-,4+,5+, purity 99%
Compound 5: D-glucose, C6H12O6, InChI=1S/C6H12O6/c7-1-3(9)5(11)6(12)4(10)2-8/h1,3-6,8-12H,2H2/t3-,4+,5+,6+/m0/s1, purity 99%
Compound 6: 2-deoxy-D-glucose, C6H12O5, InChI=1S/C6H12O5/c7-2-4-6(10)3(8)1-5(9)11-4/h3-10H,1-2H2/t3-,4-,5?,6+/m1/s1, purity 99%
Compound 7: methyl-.alpha.-D-glucopyranoside, C7H14O6, InChI=1S/C7H14O6/c1-12-7-6(11)5(10)4(9)3(2-8)13-7/h3-11H,2H2,1H3/t3-,4-,5+,6-,7+/m1/s1, purity 99%
Compound 8: D-maltose, C12H22O11, InChI=1S/C12H22O11/c13-1-3-5(15)6(16)9(19)12(22-3)23-10-4(2-14)21-11(20)8(18)7(10)17/h3-20H,1-2H2/t3-,4-,5-,6+,7-,8-,9-,10-,11?,12-/m1/s1, purity 99%
Compound 9: water, H2O, InChI=1S/H2O/h1H2, purity 99.8%

System: D-xylose + thiamine hydrochloride + water; phases: Liquid
Fixed: Pressure, kPa = 100
Property: Viscosity, Pa*s (Liquid); method: Capillary tube (Ostwald; Ubbelohde) method
Solvent: Molality, mol/kg of thiamine hydrochloride	Molality, mol/kg of D-xylose	Temperature, K	Viscosity, Pa*s	uncertainty
0.05	0	288.15	0.001179	2.1e-05
0.05	0.041	288.15	0.001203	2.2e-05
0.05	0.0604	288.15	0.001214	2.2e-05
0.05	0.0805	288.15	0.001225	2.2e-05
0.05	0.1004	288.15	0.00124	2.2e-05
0.05	0.1201	288.15	0.001247	2.2e-05
0.05	0.1396	288.15	0.00126	2.2e-05
0.05	0.1598	288.15	0.001272	2.2e-05
0.05	0.1799	288.15	0.001286	2.2e-05
0.15	0	288.15	0.00127	2.2e-05
0.15	0.0408	288.15	0.001299	2.2e-05
0.15	0.0614	288.15	0.001312	2.2e-05
0.15	0.0799	288.15	0.001326	2.2e-05
0.15	0.1004	288.15	0.001341	2.2e-05
0.15	0.1202	288.15	0.001354	2.2e-05
0.15	0.1401	288.15	0.001368	2.2e-05
0.15	0.16	288.15	0.001379	2.2e-05
0.15	0.1798	288.15	0.001392	2.2e-05
0.25	0	288.15	0.001368	2.2e-05
0.25	0.0404	288.15	0.001398	2.2e-05
0.25	0.061	288.15	0.001419	2.2e-05
0.25	0.0807	288.15	0.001435	2.2e-05
0.25	0.1005	288.15	0.001449	2.2e-05
0.25	0.1194	288.15	0.001464	2.2e-05
0.25	0.1397	288.15	0.001475	2.2e-05
0.25	0.1601	288.15	0.001492	2.2e-05
0.25	0.1798	288.15	0.001508	2.2e-05
0.35	0	288.15	0.001473	2.2e-05
0.35	0.0408	288.15	0.001514	2.2e-05
0.35	0.0602	288.15	0.001531	2.2e-05
0.35	0.0801	288.15	0.001547	2.2e-05
0.35	0.1002	288.15	0.001563	2.2e-05
0.35	0.1207	288.15	0.001583	2.3e-05
0.35	0.1393	288.15	0.001594	2.3e-05
0.35	0.1602	288.15	0.001616	2.3e-05
0.35	0.1798	288.15	0.001632	2.3e-05
0.05	0	298.15	0.000917	2.1e-05
0.05	0.041	298.15	0.000935	2.1e-05
0.05	0.0604	298.15	0.000944	2.1e-05
0.05	0.0805	298.15	0.000954	2.1e-05
0.05	0.1004	298.15	0.000963	2.1e-05
0.05	0.1201	298.15	0.00097	2.1e-05
0.05	0.1396	298.15	0.000979	2.1e-05
0.05	0.1598	298.15	0.000987	2.1e-05
0.05	0.1799	298.15	0.000996	2.1e-05
0.15	0	298.15	0.000986	2.1e-05
0.15	0.0408	298.15	0.001009	2.1e-05
0.15	0.0614	298.15	0.00102	2.1e-05
0.15	0.0799	298.15	0.001028	2.1e-05
0.15	0.1004	298.15	0.001039	2.1e-05
0.15	0.1202	298.15	0.001047	2.1e-05
0.15	0.1401	298.15	0.001058	2.1e-05
0.15	0.16	298.15	0.001068	2.1e-05
0.15	0.1798	298.15	0.001078	2.1e-05
0.25	0	298.15	0.001059	2.1e-05
0.25	0.0404	298.15	0.001082	2.1e-05
0.25	0.061	298.15	0.001093	2.1e-05
0.25	0.0807	298.15	0.001106	2.1e-05
0.25	0.1005	298.15	0.001118	2.1e-05
0.25	0.1194	298.15	0.001129	2.1e-05
0.25	0.1397	298.15	0.001143	2.1e-05
0.25	0.1601	298.15	0.001154	2.1e-05
0.25	0.1798	298.15	0.001164	2.1e-05
0.35	0	298.15	0.001146	2.1e-05
0.35	0.0408	298.15	0.001176	2.1e-05
0.35	0.0602	298.15	0.001188	2.2e-05
0.35	0.0801	298.15	0.0012	2.2e-05
0.35	0.1002	298.15	0.001215	2.2e-05
0.35	0.1207	298.15	0.001228	2.2e-05
0.35	0.1393	298.15	0.001242	2.2e-05
0.35	0.1602	298.15	0.001256	2.2e-05
0.35	0.1798	298.15	0.001265	2.2e-05
0.05	0	308.15	0.000748	2.1e-05
0.05	0.041	308.15	0.000764	2.1e-05
0.05	0.0604	308.15	0.000771	2.1e-05
0.05	0.0805	308.15	0.000779	2.1e-05
0.05	0.1004	308.15	0.000785	2.1e-05
0.05	0.1201	308.15	0.000792	2.1e-05
0.05	0.1396	308.15	0.000798	2.1e-05
0.05	0.1598	308.15	0.000805	2.1e-05
0.05	0.1799	308.15	0.000811	2.1e-05
0.15	0	308.15	0.000803	2.1e-05
0.15	0.0408	308.15	0.000821	2.1e-05
0.15	0.0614	308.15	0.000829	2.1e-05
0.15	0.0799	308.15	0.000839	2.1e-05
0.15	0.1004	308.15	0.000846	2.1e-05
0.15	0.1202	308.15	0.000855	2.1e-05
0.15	0.1401	308.15	0.000862	2.1e-05
0.15	0.16	308.15	0.000868	2.1e-05
0.15	0.1798	308.15	0.000876	2.1e-05
0.25	0	308.15	0.000851	2.1e-05
0.25	0.0404	308.15	0.000871	2.1e-05
0.25	0.061	308.15	0.00088	2.1e-05
0.25	0.0807	308.15	0.00089	2.1e-05
0.25	0.1005	308.15	0.000897	2.1e-05
0.25	0.1194	308.15	0.000906	2.1e-05
0.25	0.1397	308.15	0.000916	2.1e-05
0.25	0.1601	308.15	0.000925	2.1e-05
0.25	0.1798	308.15	0.000935	2.1e-05
0.35	0	308.15	0.00091	2.1e-05
0.35	0.0408	308.15	0.000931	2.1e-05
0.35	0.0602	308.15	0.000942	2.1e-05
0.35	0.0801	308.15	0.000951	2.1e-05
0.35	0.1002	308.15	0.000964	2.1e-05
0.35	0.1207	308.15	0.000974	2.1e-05
0.35	0.1393	308.15	0.000983	2.1e-05
0.35	0.1602	308.15	0.000995	2.1e-05
0.35	0.1798	308.15	0.001006	2.1e-05
0.05	0	318.15	0.000615	2e-05
0.05	0.041	318.15	0.000627	2e-05
0.05	0.0604	318.15	0.000632	2.1e-05
0.05	0.0805	318.15	0.000639	2.1e-05
0.05	0.1004	318.15	0.000646	2.1e-05
0.05	0.1201	318.15	0.00065	2.1e-05
0.05	0.1396	318.15	0.000658	2.1e-05
0.05	0.1598	318.15	0.000661	2.1e-05
0.05	0.1799	318.15	0.000667	2.1e-05
0.15	0	318.15	0.000658	2.1e-05
0.15	0.0408	318.15	0.000672	2.1e-05
0.15	0.0614	318.15	0.000679	2.1e-05
0.15	0.0799	318.15	0.000686	2.1e-05
0.15	0.1004	318.15	0.000692	2.1e-05
0.15	0.1202	318.15	0.000697	2.1e-05
0.15	0.1401	318.15	0.000705	2.1e-05
0.15	0.16	318.15	0.000712	2.1e-05
0.15	0.1798	318.15	0.000719	2.1e-05
0.25	0	318.15	0.000703	2.1e-05
0.25	0.0404	318.15	0.000719	2.1e-05
0.25	0.061	318.15	0.000728	2.1e-05
0.25	0.0807	318.15	0.000735	2.1e-05
0.25	0.1005	318.15	0.000742	2.1e-05
0.25	0.1194	318.15	0.000748	2.1e-05
0.25	0.1397	318.15	0.000756	2.1e-05
0.25	0.1601	318.15	0.000764	2.1e-05
0.25	0.1798	318.15	0.000771	2.1e-05
0.35	0	318.15	0.000749	2.1e-05
0.35	0.0408	318.15	0.000768	2.1e-05
0.35	0.0602	318.15	0.000775	2.1e-05
0.35	0.0801	318.15	0.000784	2.1e-05
0.35	0.1002	318.15	0.000792	2.1e-05
0.35	0.1207	318.15	0.000801	2.1e-05
0.35	0.1393	318.15	0.000811	2.1e-05
0.35	0.1602	318.15	0.000819	2.1e-05
0.35	0.1798	318.15	0.000827	2.1e-05

System: xylitol + thiamine hydrochloride + water; phases: Liquid
Fixed: Pressure, kPa = 100
Property: Viscosity, Pa*s (Liquid); method: Capillary tube (Ostwald; Ubbelohde) method
Solvent: Molality, mol/kg of thiamine hydrochloride	Molality, mol/kg of xylitol	Temperature, K	Viscosity, Pa*s	uncertainty
0.05	0.0405	288.15	0.001203	2.2e-05
0.05	0.0604	288.15	0.001217	2.2e-05
0.05	0.0797	288.15	0.001227	2.2e-05
0.05	0.1011	288.15	0.001244	2.2e-05
0.05	0.1199	288.15	0.001257	2.2e-05
0.05	0.1401	288.15	0.001269	2.2e-05
0.15	0.0399	288.15	0.001299	2.2e-05
0.15	0.0604	288.15	0.001317	2.2e-05
0.15	0.0801	288.15	0.001329	2.2e-05
0.15	0.0997	288.15	0.001344	2.2e-05
0.15	0.1209	288.15	0.00136	2.2e-05
0.15	0.1385	288.15	0.001373	2.2e-05
0.25	0.0404	288.15	0.0014	2.2e-05
0.25	0.0602	288.15	0.001418	2.2e-05
0.25	0.08	288.15	0.001438	2.2e-05
0.25	0.1	288.15	0.001453	2.2e-05
0.25	0.1197	288.15	0.001471	2.2e-05
0.25	0.14	288.15	0.001486	2.2e-05
0.35	0.0402	288.15	0.00151	2.2e-05
0.35	0.0603	288.15	0.00153	2.2e-05
0.35	0.0801	288.15	0.001553	2.2e-05
0.35	0.1007	288.15	0.001571	2.2e-05
0.35	0.1204	288.15	0.001586	2.3e-05
0.35	0.1401	288.15	0.001606	2.3e-05
0.05	0.0405	298.15	0.000938	2.1e-05
0.05	0.0604	298.15	0.000947	2.1e-05
0.05	0.0797	298.15	0.000956	2.1e-05
0.05	0.1011	298.15	0.000967	2.1e-05
0.05	0.1199	298.15	0.000975	2.1e-05
0.05	0.1401	298.15	0.000982	2.1e-05
0.15	0.0399	298.15	0.001009	2.1e-05
0.15	0.0604	298.15	0.00102	2.1e-05
0.15	0.0801	298.15	0.001031	2.1e-05
0.15	0.0997	298.15	0.001042	2.1e-05
0.15	0.1209	298.15	0.001055	2.1e-05
0.15	0.1385	298.15	0.001063	2.1e-05
0.25	0.0404	298.15	0.001087	2.1e-05
0.25	0.0602	298.15	0.001095	2.1e-05
0.25	0.08	298.15	0.001111	2.1e-05
0.25	0.1	298.15	0.001122	2.1e-05
0.25	0.1197	298.15	0.001136	2.1e-05
0.25	0.14	298.15	0.001149	2.1e-05
0.35	0.0402	298.15	0.001174	2.1e-05
0.35	0.0603	298.15	0.00119	2.2e-05
0.35	0.0801	298.15	0.001206	2.2e-05
0.35	0.1007	298.15	0.001221	2.2e-05
0.35	0.1204	298.15	0.001235	2.2e-05
0.35	0.1401	298.15	0.001248	2.2e-05
0.05	0.0405	308.15	0.000763	2.1e-05
0.05	0.0604	308.15	0.000772	2.1e-05
0.05	0.0797	308.15	0.000779	2.1e-05
0.05	0.1011	308.15	0.000788	2.1e-05
0.05	0.1199	308.15	0.000795	2.1e-05
0.05	0.1401	308.15	0.000801	2.1e-05
0.15	0.0399	308.15	0.000822	2.1e-05
0.15	0.0604	308.15	0.00083	2.1e-05
0.15	0.0801	308.15	0.00084	2.1e-05
0.15	0.0997	308.15	0.000848	2.1e-05
0.15	0.1209	308.15	0.000857	2.1e-05
0.15	0.1385	308.15	0.000866	2.1e-05
0.25	0.0404	308.15	0.000873	2.1e-05
0.25	0.0602	308.15	0.000882	2.1e-05
0.25	0.08	308.15	0.000892	2.1e-05
0.25	0.1	308.15	0.000902	2.1e-05
0.25	0.1197	308.15	0.000911	2.1e-05
0.25	0.14	308.15	0.00092	2.1e-05
0.35	0.0402	308.15	0.000932	2.1e-05
0.35	0.0603	308.15	0.000945	2.1e-05
0.35	0.0801	308.15	0.000955	2.1e-05
0.35	0.1007	308.15	0.000968	2.1e-05
0.35	0.1204	308.15	0.000978	2.1e-05
0.35	0.1401	308.15	0.000989	2.1e-05
0.05	0.0405	318.15	0.000628	2e-05
0.05	0.0604	318.15	0.000634	2.1e-05
0.05	0.0797	318.15	0.00064	2.1e-05
0.05	0.1011	318.15	0.000648	2.1e-05
0.05	0.1199	318.15	0.000654	2.1e-05
0.05	0.1401	318.15	0.000659	2.1e-05
0.15	0.0399	318.15	0.000672	2.1e-05
0.15	0.0604	318.15	0.00068	2.1e-05
0.15	0.0801	318.15	0.000687	2.1e-05
0.15	0.0997	318.15	0.000693	2.1e-05
0.15	0.1209	318.15	0.000701	2.1e-05
0.15	0.1385	318.15	0.000708	2.1e-05
0.25	0.0404	318.15	0.000719	2.1e-05
0.25	0.0602	318.15	0.000727	2.1e-05
0.25	0.08	318.15	0.000735	2.1e-05
0.25	0.1	318.15	0.000745	2.1e-05
0.25	0.1197	318.15	0.000751	2.1e-05
0.25	0.14	318.15	0.000759	2.1e-05
0.35	0.0402	318.15	0.000768	2.1e-05
0.35	0.0603	318.15	0.000778	2.1e-05
0.35	0.0801	318.15	0.000787	2.1e-05
0.35	0.1007	318.15	0.000797	2.1e-05
0.35	0.1204	318.15	0.000803	2.1e-05
0.35	0.1401	318.15	0.000812	2.1e-05

System: D-glucose + thiamine hydrochloride + water; phases: Liquid
Fixed: Pressure, kPa = 100
Property: Viscosity, Pa*s (Liquid); method: Capillary tube (Ostwald; Ubbelohde) method
Solvent: Molality, mol/kg of thiamine hydrochloride	Molality, mol/kg of D-glucose	Temperature, K	Viscosity, Pa*s	uncertainty
0.05	0.0399	288.15	0.001208	2.2e-05
0.05	0.0597	288.15	0.00122	2.2e-05
0.05	0.08	288.15	0.001235	2.2e-05
0.05	0.0998	288.15	0.001248	2.2e-05
0.05	0.1199	288.15	0.001261	2.2e-05
0.05	0.1392	288.15	0.001274	2.2e-05
0.05	0.1598	288.15	0.001286	2.2e-05
0.05	0.1796	288.15	0.001298	2.2e-05
0.15	0.0402	288.15	0.0013	2.2e-05
0.15	0.0598	288.15	0.001317	2.2e-05
0.15	0.0795	288.15	0.001333	2.2e-05
0.15	0.1002	288.15	0.001349	2.2e-05
0.15	0.1196	288.15	0.00136	2.2e-05
0.15	0.14	288.15	0.001373	2.2e-05
0.15	0.1597	288.15	0.001388	2.2e-05
0.15	0.1796	288.15	0.0014	2.2e-05
0.25	0.0401	288.15	0.001403	2.2e-05
0.25	0.0608	288.15	0.00142	2.2e-05
0.25	0.0801	288.15	0.001438	2.2e-05
0.25	0.1006	288.15	0.001452	2.2e-05
0.25	0.1192	288.15	0.001466	2.2e-05
0.25	0.1396	288.15	0.001482	2.2e-05
0.25	0.1599	288.15	0.001497	2.2e-05
0.25	0.1798	288.15	0.001514	2.2e-05
0.35	0.04	288.15	0.001512	2.2e-05
0.35	0.0601	288.15	0.001529	2.2e-05
0.35	0.0803	288.15	0.001547	2.2e-05
0.35	0.1002	288.15	0.001571	2.2e-05
0.35	0.1205	288.15	0.001588	2.3e-05
0.35	0.1404	288.15	0.001606	2.3e-05
0.35	0.1598	288.15	0.001622	2.3e-05
0.35	0.18	288.15	0.001642	2.3e-05
0.05	0.0399	298.15	0.000936	2.1e-05
0.05	0.0597	298.15	0.000948	2.1e-05
0.05	0.08	298.15	0.000959	2.1e-05
0.05	0.0998	298.15	0.00097	2.1e-05
0.05	0.1199	298.15	0.000979	2.1e-05
0.05	0.1392	298.15	0.000988	2.1e-05
0.05	0.1598	298.15	0.001	2.1e-05
0.05	0.1796	298.15	0.001006	2.1e-05
0.15	0.0402	298.15	0.00101	2.1e-05
0.15	0.0598	298.15	0.001021	2.1e-05
0.15	0.0795	298.15	0.001033	2.1e-05
0.15	0.1002	298.15	0.001042	2.1e-05
0.15	0.1196	298.15	0.001052	2.1e-05
0.15	0.14	298.15	0.001064	2.1e-05
0.15	0.1597	298.15	0.001074	2.1e-05
0.15	0.1796	298.15	0.001086	2.1e-05
0.25	0.0401	298.15	0.001087	2.1e-05
0.25	0.0608	298.15	0.001097	2.1e-05
0.25	0.0801	298.15	0.00111	2.1e-05
0.25	0.1006	298.15	0.001122	2.1e-05
0.25	0.1192	298.15	0.001134	2.1e-05
0.25	0.1396	298.15	0.001144	2.1e-05
0.25	0.1599	298.15	0.001155	2.1e-05
0.25	0.1798	298.15	0.001171	2.1e-05
0.35	0.04	298.15	0.001176	2.1e-05
0.35	0.0601	298.15	0.001189	2.2e-05
0.35	0.0803	298.15	0.001205	2.2e-05
0.35	0.1002	298.15	0.001222	2.2e-05
0.35	0.1205	298.15	0.001234	2.2e-05
0.35	0.1404	298.15	0.001246	2.2e-05
0.35	0.1598	298.15	0.001263	2.2e-05
0.35	0.18	298.15	0.001274	2.2e-05
0.05	0.0399	308.15	0.000766	2.1e-05
0.05	0.0597	308.15	0.000774	2.1e-05
0.05	0.08	308.15	0.000781	2.1e-05
0.05	0.0998	308.15	0.000789	2.1e-05
0.05	0.1199	308.15	0.000798	2.1e-05
0.05	0.1392	308.15	0.000805	2.1e-05
0.05	0.1598	308.15	0.000815	2.1e-05
0.05	0.1796	308.15	0.00082	2.1e-05
0.15	0.0402	308.15	0.000822	2.1e-05
0.15	0.0598	308.15	0.000831	2.1e-05
0.15	0.0795	308.15	0.00084	2.1e-05
0.15	0.1002	308.15	0.000851	2.1e-05
0.15	0.1196	308.15	0.000856	2.1e-05
0.15	0.14	308.15	0.000868	2.1e-05
0.15	0.1597	308.15	0.000874	2.1e-05
0.15	0.1796	308.15	0.000882	2.1e-05
0.25	0.0401	308.15	0.000873	2.1e-05
0.25	0.0608	308.15	0.000883	2.1e-05
0.25	0.0801	308.15	0.000892	2.1e-05
0.25	0.1006	308.15	0.000902	2.1e-05
0.25	0.1192	308.15	0.000911	2.1e-05
0.25	0.1396	308.15	0.00092	2.1e-05
0.25	0.1599	308.15	0.000928	2.1e-05
0.25	0.1798	308.15	0.000938	2.1e-05
0.35	0.04	308.15	0.000933	2.1e-05
0.35	0.0601	308.15	0.000945	2.1e-05
0.35	0.0803	308.15	0.000956	2.1e-05
0.35	0.1002	308.15	0.000968	2.1e-05
0.35	0.1205	308.15	0.000978	2.1e-05
0.35	0.1404	308.15	0.000989	2.1e-05
0.35	0.1598	308.15	0.001	2.1e-05
0.35	0.18	308.15	0.001011	2.1e-05
0.05	0.0399	318.15	0.000629	2.1e-05
0.05	0.0597	318.15	0.000636	2.1e-05
0.05	0.08	318.15	0.000642	2.1e-05
0.05	0.0998	318.15	0.000647	2.1e-05
0.05	0.1199	318.15	0.000656	2.1e-05
0.05	0.1392	318.15	0.000663	2.1e-05
0.05	0.1598	318.15	0.000668	2.1e-05
0.05	0.1796	318.15	0.000674	2.1e-05
0.15	0.0402	318.15	0.000673	2.1e-05
0.15	0.0598	318.15	0.000679	2.1e-05
0.15	0.0795	318.15	0.000686	2.1e-05
0.15	0.1002	318.15	0.000695	2.1e-05
0.15	0.1196	318.15	0.000703	2.1e-05
0.15	0.14	318.15	0.000709	2.1e-05
0.15	0.1597	318.15	0.000716	2.1e-05
0.15	0.1796	318.15	0.000724	2.1e-05
0.25	0.0401	318.15	0.000719	2.1e-05
0.25	0.0608	318.15	0.000728	2.1e-05
0.25	0.0801	318.15	0.000736	2.1e-05
0.25	0.1006	318.15	0.000743	2.1e-05
0.25	0.1192	318.15	0.000751	2.1e-05
0.25	0.1396	318.15	0.000759	2.1e-05
0.25	0.1599	318.15	0.000767	2.1e-05
0.25	0.1798	318.15	0.000775	2.1e-05
0.35	0.04	318.15	0.000768	2.1e-05
0.35	0.0601	318.15	0.000778	2.1e-05
0.35	0.0803	318.15	0.000788	2.1e-05
0.35	0.1002	318.15	0.000796	2.1e-05
0.35	0.1205	318.15	0.000807	2.1e-05
0.35	0.1404	318.15	0.000814	2.1e-05
0.35	0.1598	318.15	0.000821	2.1e-05
0.35	0.18	318.15	0.000831	2.1e-05

System: 2-deoxy-D-glucose + thiamine hydrochloride + water; phases: Liquid
Fixed: Pressure, kPa = 100
Property: Viscosity, Pa*s (Liquid); method: Capillary tube (Ostwald; Ubbelohde) method
Solvent: Molality, mol/kg of thiamine hydrochloride	Molality, mol/kg of 2-deoxy-D-glucose	Temperature, K	Viscosity, Pa*s	uncertainty
0.05	0.0405	288.15	0.001204	2.2e-05
0.05	0.0596	288.15	0.001216	2.2e-05
0.05	0.0798	288.15	0.001228	2.2e-05
0.05	0.1	288.15	0.001241	2.2e-05
0.05	0.1202	288.15	0.001253	2.2e-05
0.05	0.1403	288.15	0.001262	2.2e-05
0.15	0.0398	288.15	0.001298	2.2e-05
0.15	0.0603	288.15	0.001311	2.2e-05
0.15	0.0802	288.15	0.001325	2.2e-05
0.15	0.1001	288.15	0.001339	2.2e-05
0.15	0.1201	288.15	0.001352	2.2e-05
0.15	0.1402	288.15	0.001366	2.2e-05
0.25	0.0406	288.15	0.001402	2.2e-05
0.25	0.0604	288.15	0.001417	2.2e-05
0.25	0.0807	288.15	0.001431	2.2e-05
0.25	0.1	288.15	0.001446	2.2e-05
0.25	0.12	288.15	0.001462	2.2e-05
0.25	0.1401	288.15	0.001476	2.2e-05
0.35	0.0404	288.15	0.001511	2.2e-05
0.35	0.0605	288.15	0.001529	2.2e-05
0.35	0.0798	288.15	0.001545	2.2e-05
0.35	0.1	288.15	0.001563	2.2e-05
0.35	0.1199	288.15	0.00158	2.2e-05
0.35	0.1402	288.15	0.001597	2.3e-05
0.05	0.0405	298.15	0.000934	2.1e-05
0.05	0.0596	298.15	0.000945	2.1e-05
0.05	0.0798	298.15	0.000954	2.1e-05
0.05	0.1	298.15	0.000961	2.1e-05
0.05	0.1202	298.15	0.000971	2.1e-05
0.05	0.1403	298.15	0.00098	2.1e-05
0.15	0.0398	298.15	0.001006	2.1e-05
0.15	0.0603	298.15	0.001018	2.1e-05
0.15	0.0802	298.15	0.001027	2.1e-05
0.15	0.1001	298.15	0.001036	2.1e-05
0.15	0.1201	298.15	0.001047	2.1e-05
0.15	0.1402	298.15	0.001057	2.1e-05
0.25	0.0406	298.15	0.001083	2.1e-05
0.25	0.0604	298.15	0.001095	2.1e-05
0.25	0.0807	298.15	0.001107	2.1e-05
0.25	0.1	298.15	0.001115	2.1e-05
0.25	0.12	298.15	0.001127	2.1e-05
0.25	0.1401	298.15	0.00114	2.1e-05
0.35	0.0404	298.15	0.001175	2.1e-05
0.35	0.0605	298.15	0.001187	2.2e-05
0.35	0.0798	298.15	0.0012	2.2e-05
0.35	0.1	298.15	0.001216	2.2e-05
0.35	0.1199	298.15	0.001228	2.2e-05
0.35	0.1402	298.15	0.001239	2.2e-05
0.05	0.0405	308.15	0.000764	2.1e-05
0.05	0.0596	308.15	0.00077	2.1e-05
0.05	0.0798	308.15	0.000777	2.1e-05
0.05	0.1	308.15	0.000784	2.1e-05
0.05	0.1202	308.15	0.000792	2.1e-05
0.05	0.1403	308.15	0.000798	2.1e-05
0.15	0.0398	308.15	0.000818	2.1e-05
0.15	0.0603	308.15	0.000828	2.1e-05
0.15	0.0802	308.15	0.000834	2.1e-05
0.15	0.1001	308.15	0.000844	2.1e-05
0.15	0.1201	308.15	0.000852	2.1e-05
0.15	0.1402	308.15	0.000861	2.1e-05
0.25	0.0406	308.15	0.000869	2.1e-05
0.25	0.0604	308.15	0.000878	2.1e-05
0.25	0.0807	308.15	0.000887	2.1e-05
0.25	0.1	308.15	0.000896	2.1e-05
0.25	0.12	308.15	0.000907	2.1e-05
0.25	0.1401	308.15	0.000915	2.1e-05
0.35	0.0404	308.15	0.000932	2.1e-05
0.35	0.0605	308.15	0.000942	2.1e-05
0.35	0.0798	308.15	0.000952	2.1e-05
0.35	0.1	308.15	0.000963	2.1e-05
0.35	0.1199	308.15	0.000973	2.1e-05
0.35	0.1402	308.15	0.000984	2.1e-05
0.05	0.0405	318.15	0.000627	2e-05
0.05	0.0596	318.15	0.000633	2.1e-05
0.05	0.0798	318.15	0.000638	2.1e-05
0.05	0.1	318.15	0.000645	2.1e-05
0.05	0.1202	318.15	0.000651	2.1e-05
0.05	0.1403	318.15	0.000656	2.1e-05
0.15	0.0398	318.15	0.000671	2.1e-05
0.15	0.0603	318.15	0.000676	2.1e-05
0.15	0.0802	318.15	0.000684	2.1e-05
0.15	0.1001	318.15	0.000691	2.1e-05
0.15	0.1201	318.15	0.000698	2.1e-05
0.15	0.1402	318.15	0.000704	2.1e-05
0.25	0.0406	318.15	0.000718	2.1e-05
0.25	0.0604	318.15	0.000726	2.1e-05
0.25	0.0807	318.15	0.000733	2.1e-05
0.25	0.1	318.15	0.000739	2.1e-05
0.25	0.12	318.15	0.000747	2.1e-05
0.25	0.1401	318.15	0.000755	2.1e-05
0.35	0.0404	318.15	0.000767	2.1e-05
0.35	0.0605	318.15	0.000774	2.1e-05
0.35	0.0798	318.15	0.000782	2.1e-05
0.35	0.1	318.15	0.000792	2.1e-05
0.35	0.1199	318.15	0.000801	2.1e-05
0.35	0.1402	318.15	0.000809	2.1e-05

System: methyl-.alpha.-D-glucopyranoside + thiamine hydrochloride + water; phases: Liquid
Fixed: Pressure, kPa = 100
Property: Viscosity, Pa*s (Liquid); method: Capillary tube (Ostwald; Ubbelohde) method
Solvent: Molality, mol/kg of thiamine hydrochloride	Molality, mol/kg of methyl-.alpha.-D-glucopyranoside	Temperature, K	Viscosity, Pa*s	uncertainty
0.05	0.04	288.15	0.001207	2.2e-05
0.05	0.0601	288.15	0.001222	2.2e-05
0.05	0.0797	288.15	0.001232	2.2e-05
0.05	0.0998	288.15	0.001243	2.2e-05
0.05	0.1196	288.15	0.001257	2.2e-05
0.05	0.1397	288.15	0.00127	2.2e-05
0.05	0.1602	288.15	0.001282	2.2e-05
0.05	0.1795	288.15	0.001294	2.2e-05
0.15	0.0403	288.15	0.0013	2.2e-05
0.15	0.0598	288.15	0.001312	2.2e-05
0.15	0.0801	288.15	0.001329	2.2e-05
0.15	0.1004	288.15	0.001345	2.2e-05
0.15	0.12	288.15	0.001361	2.2e-05
0.15	0.1399	288.15	0.00137	2.2e-05
0.15	0.1599	288.15	0.001387	2.2e-05
0.15	0.18	288.15	0.001397	2.2e-05
0.25	0.0402	288.15	0.001403	2.2e-05
0.25	0.0607	288.15	0.001419	2.2e-05
0.25	0.0792	288.15	0.001431	2.2e-05
0.25	0.1004	288.15	0.001451	2.2e-05
0.25	0.12	288.15	0.001464	2.2e-05
0.25	0.1395	288.15	0.001479	2.2e-05
0.25	0.1599	288.15	0.001496	2.2e-05
0.25	0.1799	288.15	0.001512	2.2e-05
0.35	0.0406	288.15	0.001513	2.2e-05
0.35	0.06	288.15	0.001525	2.2e-05
0.35	0.0797	288.15	0.001543	2.2e-05
0.35	0.0999	288.15	0.001563	2.2e-05
0.35	0.1198	288.15	0.001581	2.3e-05
0.35	0.1404	288.15	0.001603	2.3e-05
0.35	0.16	288.15	0.001622	2.3e-05
0.35	0.18	288.15	0.001636	2.3e-05
0.05	0.04	298.15	0.000935	2.1e-05
0.05	0.0601	298.15	0.000945	2.1e-05
0.05	0.0797	298.15	0.000954	2.1e-05
0.05	0.0998	298.15	0.000964	2.1e-05
0.05	0.1196	298.15	0.000973	2.1e-05
0.05	0.1397	298.15	0.000984	2.1e-05
0.05	0.1602	298.15	0.000994	2.1e-05
0.05	0.1795	298.15	0.001005	2.1e-05
0.15	0.0403	298.15	0.001004	2.1e-05
0.15	0.0598	298.15	0.001017	2.1e-05
0.15	0.0801	298.15	0.001028	2.1e-05
0.15	0.1004	298.15	0.001039	2.1e-05
0.15	0.12	298.15	0.001051	2.1e-05
0.15	0.1399	298.15	0.001062	2.1e-05
0.15	0.1599	298.15	0.001073	2.1e-05
0.15	0.18	298.15	0.001082	2.1e-05
0.25	0.0402	298.15	0.001082	2.1e-05
0.25	0.0607	298.15	0.001093	2.1e-05
0.25	0.0792	298.15	0.001107	2.1e-05
0.25	0.1004	298.15	0.001116	2.1e-05
0.25	0.12	298.15	0.00113	2.1e-05
0.25	0.1395	298.15	0.001145	2.1e-05
0.25	0.1599	298.15	0.001154	2.1e-05
0.25	0.1799	298.15	0.001164	2.1e-05
0.35	0.0406	298.15	0.001171	2.1e-05
0.35	0.06	298.15	0.001186	2.2e-05
0.35	0.0797	298.15	0.001203	2.2e-05
0.35	0.0999	298.15	0.001214	2.2e-05
0.35	0.1198	298.15	0.001231	2.2e-05
0.35	0.1404	298.15	0.001242	2.2e-05
0.35	0.16	298.15	0.001255	2.2e-05
0.35	0.18	298.15	0.001267	2.2e-05
0.05	0.04	308.15	0.000762	2.1e-05
0.05	0.0601	308.15	0.00077	2.1e-05
0.05	0.0797	308.15	0.000778	2.1e-05
0.05	0.0998	308.15	0.000785	2.1e-05
0.05	0.1196	308.15	0.000794	2.1e-05
0.05	0.1397	308.15	0.000803	2.1e-05
0.05	0.1602	308.15	0.000811	2.1e-05
0.05	0.1795	308.15	0.000817	2.1e-05
0.15	0.0403	308.15	0.000821	2.1e-05
0.15	0.0598	308.15	0.000829	2.1e-05
0.15	0.0801	308.15	0.000838	2.1e-05
0.15	0.1004	308.15	0.000846	2.1e-05
0.15	0.12	308.15	0.000855	2.1e-05
0.15	0.1399	308.15	0.000862	2.1e-05
0.15	0.1599	308.15	0.000871	2.1e-05
0.15	0.18	308.15	0.000879	2.1e-05
0.25	0.0402	308.15	0.00087	2.1e-05
0.25	0.0607	308.15	0.000878	2.1e-05
0.25	0.0792	308.15	0.000888	2.1e-05
0.25	0.1004	308.15	0.000897	2.1e-05
0.25	0.12	308.15	0.000909	2.1e-05
0.25	0.1395	308.15	0.000916	2.1e-05
0.25	0.1599	308.15	0.000926	2.1e-05
0.25	0.1799	308.15	0.000933	2.1e-05
0.35	0.0406	308.15	0.000932	2.1e-05
0.35	0.06	308.15	0.000941	2.1e-05
0.35	0.0797	308.15	0.000953	2.1e-05
0.35	0.0999	308.15	0.000966	2.1e-05
0.35	0.1198	308.15	0.000975	2.1e-05
0.35	0.1404	308.15	0.000984	2.1e-05
0.35	0.16	308.15	0.000994	2.1e-05
0.35	0.18	308.15	0.001004	2.1e-05
0.05	0.04	318.15	0.000629	2e-05
0.05	0.0601	318.15	0.000634	2.1e-05
0.05	0.0797	318.15	0.000639	2.1e-05
0.05	0.0998	318.15	0.000645	2.1e-05
0.05	0.1196	318.15	0.000651	2.1e-05
0.05	0.1397	318.15	0.000658	2.1e-05
0.05	0.1602	318.15	0.000663	2.1e-05
0.05	0.1795	318.15	0.000669	2.1e-05
0.15	0.0403	318.15	0.000673	2.1e-05
0.15	0.0598	318.15	0.000679	2.1e-05
0.15	0.0801	318.15	0.000684	2.1e-05
0.15	0.1004	318.15	0.000692	2.1e-05
0.15	0.12	318.15	0.000697	2.1e-05
0.15	0.1399	318.15	0.000703	2.1e-05
0.15	0.1599	318.15	0.000711	2.1e-05
0.15	0.18	318.15	0.000718	2.1e-05
0.25	0.0402	318.15	0.000719	2.1e-05
0.25	0.0607	318.15	0.000727	2.1e-05
0.25	0.0792	318.15	0.000733	2.1e-05
0.25	0.1004	318.15	0.00074	2.1e-05
0.25	0.12	318.15	0.000748	2.1e-05
0.25	0.1395	318.15	0.000754	2.1e-05
0.25	0.1599	318.15	0.00076	2.1e-05
0.25	0.1799	318.15	0.000766	2.1e-05
0.35	0.0406	318.15	0.000765	2.1e-05
0.35	0.06	318.15	0.000775	2.1e-05
0.35	0.0797	318.15	0.000783	2.1e-05
0.35	0.0999	318.15	0.000792	2.1e-05
0.35	0.1198	318.15	0.0008	2.1e-05
0.35	0.1404	318.15	0.000806	2.1e-05
0.35	0.16	318.15	0.000816	2.1e-05
0.35	0.18	318.15	0.000823	2.1e-05

System: D-maltose + thiamine hydrochloride + water; phases: Liquid
Fixed: Pressure, kPa = 100
Property: Viscosity, Pa*s (Liquid); method: Capillary tube (Ostwald; Ubbelohde) method
Solvent: Molality, mol/kg of thiamine hydrochloride	Molality, mol/kg of D-maltose	Temperature, K	Viscosity, Pa*s	uncertainty
0.05	0.0402	288.15	0.001239	2.2e-05
0.0499	0.0597	288.15	0.00127	2.2e-05
0.0499	0.0797	288.15	0.001295	2.2e-05
0.0499	0.0995	288.15	0.001325	2.2e-05
0.0499	0.1197	288.15	0.001356	2.2e-05
0.0499	0.1391	288.15	0.001379	2.2e-05
0.0499	0.1591	288.15	0.00141	2.2e-05
0.0498	0.1791	288.15	0.00143	2.2e-05
0.1499	0.0401	288.15	0.001338	2.2e-05
0.1498	0.0596	288.15	0.001374	2.2e-05
0.1498	0.0794	288.15	0.001412	2.2e-05
0.1497	0.0993	288.15	0.001442	2.2e-05
0.1497	0.1197	288.15	0.001477	2.2e-05
0.1496	0.1397	288.15	0.001505	2.2e-05
0.1495	0.1593	288.15	0.001543	2.2e-05
0.1495	0.179	288.15	0.001564	2.2e-05
0.2498	0.0404	288.15	0.001449	2.2e-05
0.2497	0.0599	288.15	0.001493	2.2e-05
0.2496	0.0796	288.15	0.001528	2.2e-05
0.2495	0.0992	288.15	0.001565	2.2e-05
0.2494	0.1196	288.15	0.001605	2.3e-05
0.2493	0.1394	288.15	0.001639	2.3e-05
0.2492	0.1592	288.15	0.001681	2.3e-05
0.2491	0.1791	288.15	0.001714	2.3e-05
0.3497	0.04	288.15	0.001568	2.2e-05
0.3496	0.0601	288.15	0.001613	2.3e-05
0.3494	0.0795	288.15	0.001658	2.3e-05
0.3493	0.0996	288.15	0.0017	2.3e-05
0.3492	0.1195	288.15	0.001746	2.3e-05
0.349	0.1395	288.15	0.001786	2.3e-05
0.3489	0.1594	288.15	0.001832	2.3e-05
0.3487	0.1793	288.15	0.001868	2.3e-05
0.05	0.0402	298.15	0.000966	2.1e-05
0.0499	0.0597	298.15	0.000985	2.1e-05
0.0499	0.0797	298.15	0.001005	2.1e-05
0.0499	0.0995	298.15	0.001029	2.1e-05
0.0499	0.1197	298.15	0.001053	2.1e-05
0.0499	0.1391	298.15	0.001073	2.1e-05
0.0499	0.1591	298.15	0.001092	2.1e-05
0.0498	0.1791	298.15	0.001112	2.1e-05
0.1499	0.0401	298.15	0.001037	2.1e-05
0.1498	0.0596	298.15	0.001063	2.1e-05
0.1498	0.0794	298.15	0.001091	2.1e-05
0.1497	0.0993	298.15	0.001116	2.1e-05
0.1497	0.1197	298.15	0.001137	2.1e-05
0.1496	0.1397	298.15	0.001168	2.1e-05
0.1495	0.1593	298.15	0.001191	2.2e-05
0.1495	0.179	298.15	0.001214	2.2e-05
0.2498	0.0404	298.15	0.00112	2.1e-05
0.2497	0.0599	298.15	0.001152	2.1e-05
0.2496	0.0796	298.15	0.001178	2.1e-05
0.2495	0.0992	298.15	0.001205	2.2e-05
0.2494	0.1196	298.15	0.001238	2.2e-05
0.2493	0.1394	298.15	0.00127	2.2e-05
0.2492	0.1592	298.15	0.001296	2.2e-05
0.2491	0.1791	298.15	0.001325	2.2e-05
0.3497	0.04	298.15	0.001222	2.2e-05
0.3496	0.0601	298.15	0.001253	2.2e-05
0.3494	0.0795	298.15	0.001283	2.2e-05
0.3493	0.0996	298.15	0.001324	2.2e-05
0.3492	0.1195	298.15	0.001352	2.2e-05
0.349	0.1395	298.15	0.001393	2.2e-05
0.3489	0.1594	298.15	0.001419	2.2e-05
0.3487	0.1793	298.15	0.001453	2.2e-05
0.05	0.0402	308.15	0.000788	2.1e-05
0.0499	0.0597	308.15	0.000802	2.1e-05
0.0499	0.0797	308.15	0.000824	2.1e-05
0.0499	0.0995	308.15	0.00084	2.1e-05
0.0499	0.1197	308.15	0.000857	2.1e-05
0.0499	0.1391	308.15	0.000875	2.1e-05
0.0499	0.1591	308.15	0.00089	2.1e-05
0.0498	0.1791	308.15	0.000906	2.1e-05
0.1499	0.0401	308.15	0.000848	2.1e-05
0.1498	0.0596	308.15	0.000868	2.1e-05
0.1498	0.0794	308.15	0.000889	2.1e-05
0.1497	0.0993	308.15	0.000906	2.1e-05
0.1497	0.1197	308.15	0.000931	2.1e-05
0.1496	0.1397	308.15	0.000948	2.1e-05
0.1495	0.1593	308.15	0.000969	2.1e-05
0.1495	0.179	308.15	0.000987	2.1e-05
0.2498	0.0404	308.15	0.000903	2.1e-05
0.2497	0.0599	308.15	0.000926	2.1e-05
0.2496	0.0796	308.15	0.000945	2.1e-05
0.2495	0.0992	308.15	0.00097	2.1e-05
0.2494	0.1196	308.15	0.000995	2.1e-05
0.2493	0.1394	308.15	0.001021	2.1e-05
0.2492	0.1592	308.15	0.001038	2.1e-05
0.2491	0.1791	308.15	0.001061	2.1e-05
0.3497	0.04	308.15	0.000965	2.1e-05
0.3496	0.0601	308.15	0.000992	2.1e-05
0.3494	0.0795	308.15	0.001016	2.1e-05
0.3493	0.0996	308.15	0.001041	2.1e-05
0.3492	0.1195	308.15	0.001078	2.1e-05
0.349	0.1395	308.15	0.001103	2.1e-05
0.3489	0.1594	308.15	0.00113	2.1e-05
0.3487	0.1793	308.15	0.001154	2.1e-05
0.05	0.0402	318.15	0.000646	2.1e-05
0.0499	0.0597	318.15	0.000661	2.1e-05
0.0499	0.0797	318.15	0.000672	2.1e-05
0.0499	0.0995	318.15	0.000689	2.1e-05
0.0499	0.1197	318.15	0.000705	2.1e-05
0.0499	0.1391	318.15	0.000717	2.1e-05
0.0499	0.1591	318.15	0.000732	2.1e-05
0.0498	0.1791	318.15	0.000745	2.1e-05
0.1499	0.0401	318.15	0.000691	2.1e-05
0.1498	0.0596	318.15	0.000707	2.1e-05
0.1498	0.0794	318.15	0.000724	2.1e-05
0.1497	0.0993	318.15	0.00074	2.1e-05
0.1497	0.1197	318.15	0.000758	2.1e-05
0.1496	0.1397	318.15	0.000777	2.1e-05
0.1495	0.1593	318.15	0.000793	2.1e-05
0.1495	0.179	318.15	0.000809	2.1e-05
0.2498	0.0404	318.15	0.000743	2.1e-05
0.2497	0.0599	318.15	0.000764	2.1e-05
0.2496	0.0796	318.15	0.000778	2.1e-05
0.2495	0.0992	318.15	0.000803	2.1e-05
0.2494	0.1196	318.15	0.000821	2.1e-05
0.2493	0.1394	318.15	0.000841	2.1e-05
0.2492	0.1592	318.15	0.000853	2.1e-05
0.2491	0.1791	318.15	0.00087	2.1e-05
0.3497	0.04	318.15	0.000801	2.1e-05
0.3496	0.0601	318.15	0.000821	2.1e-05
0.3494	0.0795	318.15	0.000837	2.1e-05
0.3493	0.0996	318.15	0.000863	2.1e-05
0.3492	0.1195	318.15	0.00088	2.1e-05
0.349	0.1395	318.15	0.000904	2.1e-05
0.3489	0.1594	318.15	0.000923	2.1e-05
0.3487	0.1793	318.15	0.000948	2.1e-05

System: D-xylose + 5-hydroxy-6-methyl-3,4-pyridinedimethanol hydrochloride + water; phases: Liquid
Fixed: Pressure, kPa = 100
Property: Viscosity, Pa*s (Liquid); method: Capillary tube (Ostwald; Ubbelohde) method
Solvent: Molality, mol/kg of 5-hydroxy-6-methyl-3,4-pyridinedimethanol hydrochloride	Molality, mol/kg of D-xylose	Temperature, K	Viscosity, Pa*s	uncertainty
0.05	0	288.15	0.00116	2.1e-05
0.05	0.0401	288.15	0.001182	2.1e-05
0.05	0.0605	288.15	0.001194	2.2e-05
0.05	0.0808	288.15	0.001204	2.2e-05
0.05	0.1002	288.15	0.001216	2.2e-05
0.05	0.12	288.15	0.001227	2.2e-05
0.05	0.1401	288.15	0.001237	2.2e-05
0.05	0.1601	288.15	0.001245	2.2e-05
0.05	0.18	288.15	0.001256	2.2e-05
0.15	0	288.15	0.001209	2.2e-05
0.15	0.0406	288.15	0.001233	2.2e-05
0.15	0.0598	288.15	0.001248	2.2e-05
0.15	0.0806	288.15	0.001259	2.2e-05
0.15	0.1005	288.15	0.001271	2.2e-05
0.15	0.1199	288.15	0.001283	2.2e-05
0.15	0.1397	288.15	0.001292	2.2e-05
0.15	0.1598	288.15	0.001302	2.2e-05
0.15	0.1797	288.15	0.001315	2.2e-05
0.25	0	288.15	0.001256	2.2e-05
0.25	0.0408	288.15	0.001282	2.2e-05
0.25	0.0605	288.15	0.001294	2.2e-05
0.25	0.0804	288.15	0.001306	2.2e-05
0.25	0.0992	288.15	0.001321	2.2e-05
0.25	0.1195	288.15	0.001336	2.2e-05
0.25	0.14	288.15	0.001347	2.2e-05
0.25	0.1599	288.15	0.001362	2.2e-05
0.25	0.18	288.15	0.001375	2.2e-05
0.35	0	288.15	0.001304	2.2e-05
0.35	0.0407	288.15	0.001335	2.2e-05
0.35	0.0605	288.15	0.001348	2.2e-05
0.35	0.08	288.15	0.001362	2.2e-05
0.35	0.1002	288.15	0.001375	2.2e-05
0.35	0.1196	288.15	0.001391	2.2e-05
0.35	0.1398	288.15	0.001406	2.2e-05
0.35	0.1597	288.15	0.001421	2.2e-05
0.35	0.1802	288.15	0.001432	2.2e-05
0.05	0	298.15	0.000912	2.1e-05
0.05	0.0401	298.15	0.000928	2.1e-05
0.05	0.0605	298.15	0.000936	2.1e-05
0.05	0.0808	298.15	0.000944	2.1e-05
0.05	0.1002	298.15	0.000951	2.1e-05
0.05	0.12	298.15	0.000959	2.1e-05
0.05	0.1401	298.15	0.000969	2.1e-05
0.05	0.1601	298.15	0.000976	2.1e-05
0.05	0.18	298.15	0.000984	2.1e-05
0.15	0	298.15	0.000944	2.1e-05
0.15	0.0406	298.15	0.000963	2.1e-05
0.15	0.0598	298.15	0.00097	2.1e-05
0.15	0.0806	298.15	0.000981	2.1e-05
0.15	0.1005	298.15	0.00099	2.1e-05
0.15	0.1199	298.15	0.000997	2.1e-05
0.15	0.1397	298.15	0.001007	2.1e-05
0.15	0.1598	298.15	0.001017	2.1e-05
0.15	0.1797	298.15	0.001024	2.1e-05
0.25	0	298.15	0.000982	2.1e-05
0.25	0.0408	298.15	0.001003	2.1e-05
0.25	0.0605	298.15	0.001011	2.1e-05
0.25	0.0804	298.15	0.001021	2.1e-05
0.25	0.0992	298.15	0.00103	2.1e-05
0.25	0.1195	298.15	0.00104	2.1e-05
0.25	0.14	298.15	0.001049	2.1e-05
0.25	0.1599	298.15	0.00106	2.1e-05
0.25	0.18	298.15	0.001069	2.1e-05
0.35	0	298.15	0.001019	2.1e-05
0.35	0.0407	298.15	0.00104	2.1e-05
0.35	0.0605	298.15	0.00105	2.1e-05
0.35	0.08	298.15	0.001062	2.1e-05
0.35	0.1002	298.15	0.001071	2.1e-05
0.35	0.1196	298.15	0.00108	2.1e-05
0.35	0.1398	298.15	0.001095	2.1e-05
0.35	0.1597	298.15	0.001106	2.1e-05
0.35	0.1802	298.15	0.001119	2.1e-05
0.05	0	308.15	0.000736	2.1e-05
0.05	0.0401	308.15	0.000751	2.1e-05
0.05	0.0605	308.15	0.000757	2.1e-05
0.05	0.0808	308.15	0.000764	2.1e-05
0.05	0.1002	308.15	0.000769	2.1e-05
0.05	0.12	308.15	0.000775	2.1e-05
0.05	0.1401	308.15	0.000782	2.1e-05
0.05	0.1601	308.15	0.000788	2.1e-05
0.05	0.18	308.15	0.000794	2.1e-05
0.15	0	308.15	0.000761	2.1e-05
0.15	0.0406	308.15	0.000777	2.1e-05
0.15	0.0598	308.15	0.000784	2.1e-05
0.15	0.0806	308.15	0.000791	2.1e-05
0.15	0.1005	308.15	0.000797	2.1e-05
0.15	0.1199	308.15	0.000803	2.1e-05
0.15	0.1397	308.15	0.00081	2.1e-05
0.15	0.1598	308.15	0.000817	2.1e-05
0.15	0.1797	308.15	0.000825	2.1e-05
0.25	0	308.15	0.000791	2.1e-05
0.25	0.0408	308.15	0.000808	2.1e-05
0.25	0.0605	308.15	0.000815	2.1e-05
0.25	0.0804	308.15	0.000823	2.1e-05
0.25	0.0992	308.15	0.000828	2.1e-05
0.25	0.1195	308.15	0.000838	2.1e-05
0.25	0.14	308.15	0.000845	2.1e-05
0.25	0.1599	308.15	0.000853	2.1e-05
0.25	0.18	308.15	0.000861	2.1e-05
0.35	0	308.15	0.00082	2.1e-05
0.35	0.0407	308.15	0.000837	2.1e-05
0.35	0.0605	308.15	0.000845	2.1e-05
0.35	0.08	308.15	0.000854	2.1e-05
0.35	0.1002	308.15	0.000862	2.1e-05
0.35	0.1196	308.15	0.000871	2.1e-05
0.35	0.1398	308.15	0.000881	2.1e-05
0.35	0.1597	308.15	0.000889	2.1e-05
0.35	0.1802	308.15	0.000898	2.1e-05
0.05	0	318.15	0.000607	2e-05
0.05	0.0401	318.15	0.000618	2e-05
0.05	0.0605	318.15	0.000624	2e-05
0.05	0.0808	318.15	0.000629	2e-05
0.05	0.1002	318.15	0.000634	2.1e-05
0.05	0.12	318.15	0.000639	2.1e-05
0.05	0.1401	318.15	0.000644	2.1e-05
0.05	0.1601	318.15	0.000651	2.1e-05
0.05	0.18	318.15	0.000654	2.1e-05
0.15	0	318.15	0.000634	2.1e-05
0.15	0.0406	318.15	0.000646	2.1e-05
0.15	0.0598	318.15	0.000653	2.1e-05
0.15	0.0806	318.15	0.000658	2.1e-05
0.15	0.1005	318.15	0.000664	2.1e-05
0.15	0.1199	318.15	0.000668	2.1e-05
0.15	0.1397	318.15	0.000675	2.1e-05
0.15	0.1598	318.15	0.00068	2.1e-05
0.15	0.1797	318.15	0.000686	2.1e-05
0.25	0	318.15	0.000656	2.1e-05
0.25	0.0408	318.15	0.000669	2.1e-05
0.25	0.0605	318.15	0.000675	2.1e-05
0.25	0.0804	318.15	0.000684	2.1e-05
0.25	0.0992	318.15	0.000689	2.1e-05
0.25	0.1195	318.15	0.000695	2.1e-05
0.25	0.14	318.15	0.0007	2.1e-05
0.25	0.1599	318.15	0.000706	2.1e-05
0.25	0.18	318.15	0.000712	2.1e-05
0.35	0	318.15	0.00068	2.1e-05
0.35	0.0407	318.15	0.000695	2.1e-05
0.35	0.0605	318.15	0.000703	2.1e-05
0.35	0.08	318.15	0.00071	2.1e-05
0.35	0.1002	318.15	0.000715	2.1e-05
0.35	0.1196	318.15	0.000722	2.1e-05
0.35	0.1398	318.15	0.00073	2.1e-05
0.35	0.1597	318.15	0.000737	2.1e-05
0.35	0.1802	318.15	0.000744	2.1e-05

System: xylitol + 5-hydroxy-6-methyl-3,4-pyridinedimethanol hydrochloride + water; phases: Liquid
Fixed: Pressure, kPa = 100
Property: Viscosity, Pa*s (Liquid); method: Capillary tube (Ostwald; Ubbelohde) method
Solvent: Molality, mol/kg of 5-hydroxy-6-methyl-3,4-pyridinedimethanol hydrochloride	Molality, mol/kg of xylitol	Temperature, K	Viscosity, Pa*s	uncertainty
0.05	0.0405	288.15	0.001185	2.1e-05
0.05	0.0601	288.15	0.001196	2.2e-05
0.05	0.0799	288.15	0.001208	2.2e-05
0.05	0.0999	288.15	0.00122	2.2e-05
0.05	0.1193	288.15	0.001234	2.2e-05
0.05	0.1399	288.15	0.001243	2.2e-05
0.15	0.0404	288.15	0.001235	2.2e-05
0.15	0.0602	288.15	0.001249	2.2e-05
0.15	0.0796	288.15	0.001262	2.2e-05
0.15	0.0998	288.15	0.001273	2.2e-05
0.15	0.1201	288.15	0.001289	2.2e-05
0.15	0.1398	288.15	0.0013	2.2e-05
0.25	0.0407	288.15	0.001285	2.2e-05
0.25	0.0599	288.15	0.001301	2.2e-05
0.25	0.0799	288.15	0.001313	2.2e-05
0.25	0.1001	288.15	0.001329	2.2e-05
0.25	0.1201	288.15	0.001342	2.2e-05
0.25	0.1399	288.15	0.001356	2.2e-05
0.35	0.04	288.15	0.001336	2.2e-05
0.35	0.0601	288.15	0.00135	2.2e-05
0.35	0.08	288.15	0.001365	2.2e-05
0.35	0.0999	288.15	0.001384	2.2e-05
0.35	0.1197	288.15	0.001399	2.2e-05
0.35	0.1401	288.15	0.001415	2.2e-05
0.05	0.0405	298.15	0.00093	2.1e-05
0.05	0.0601	298.15	0.000939	2.1e-05
0.05	0.0799	298.15	0.000948	2.1e-05
0.05	0.0999	298.15	0.000956	2.1e-05
0.05	0.1193	298.15	0.000967	2.1e-05
0.05	0.1399	298.15	0.000976	2.1e-05
0.15	0.0404	298.15	0.000964	2.1e-05
0.15	0.0602	298.15	0.000974	2.1e-05
0.15	0.0796	298.15	0.000984	2.1e-05
0.15	0.0998	298.15	0.000995	2.1e-05
0.15	0.1201	298.15	0.001005	2.1e-05
0.15	0.1398	298.15	0.001015	2.1e-05
0.25	0.0407	298.15	0.001002	2.1e-05
0.25	0.0599	298.15	0.001013	2.1e-05
0.25	0.0799	298.15	0.001025	2.1e-05
0.25	0.1001	298.15	0.001038	2.1e-05
0.25	0.1201	298.15	0.001048	2.1e-05
0.25	0.1399	298.15	0.001058	2.1e-05
0.35	0.04	298.15	0.00104	2.1e-05
0.35	0.0601	298.15	0.001054	2.1e-05
0.35	0.08	298.15	0.001065	2.1e-05
0.35	0.0999	298.15	0.00108	2.1e-05
0.35	0.1197	298.15	0.001094	2.1e-05
0.35	0.1401	298.15	0.001104	2.1e-05
0.05	0.0405	308.15	0.000751	2.1e-05
0.05	0.0601	308.15	0.000756	2.1e-05
0.05	0.0799	308.15	0.000764	2.1e-05
0.05	0.0999	308.15	0.000772	2.1e-05
0.05	0.1193	308.15	0.000779	2.1e-05
0.05	0.1399	308.15	0.000786	2.1e-05
0.15	0.0404	308.15	0.000778	2.1e-05
0.15	0.0602	308.15	0.000785	2.1e-05
0.15	0.0796	308.15	0.000793	2.1e-05
0.15	0.0998	308.15	0.000799	2.1e-05
0.15	0.1201	308.15	0.000807	2.1e-05
0.15	0.1398	308.15	0.000816	2.1e-05
0.25	0.0407	308.15	0.000808	2.1e-05
0.25	0.0599	308.15	0.000816	2.1e-05
0.25	0.0799	308.15	0.000825	2.1e-05
0.25	0.1001	308.15	0.000835	2.1e-05
0.25	0.1201	308.15	0.000842	2.1e-05
0.25	0.1399	308.15	0.000849	2.1e-05
0.35	0.04	308.15	0.000839	2.1e-05
0.35	0.0601	308.15	0.000849	2.1e-05
0.35	0.08	308.15	0.000858	2.1e-05
0.35	0.0999	308.15	0.000867	2.1e-05
0.35	0.1197	308.15	0.000875	2.1e-05
0.35	0.1401	308.15	0.000884	2.1e-05
0.05	0.0405	318.15	0.000619	2e-05
0.05	0.0601	318.15	0.000625	2e-05
0.05	0.0799	318.15	0.000631	2.1e-05
0.05	0.0999	318.15	0.000636	2.1e-05
0.05	0.1193	318.15	0.000641	2.1e-05
0.05	0.1399	318.15	0.000647	2.1e-05
0.15	0.0404	318.15	0.000646	2.1e-05
0.15	0.0602	318.15	0.000652	2.1e-05
0.15	0.0796	318.15	0.000659	2.1e-05
0.15	0.0998	318.15	0.000666	2.1e-05
0.15	0.1201	318.15	0.000672	2.1e-05
0.15	0.1398	318.15	0.000677	2.1e-05
0.25	0.0407	318.15	0.000671	2.1e-05
0.25	0.0599	318.15	0.000677	2.1e-05
0.25	0.0799	318.15	0.000684	2.1e-05
0.25	0.1001	318.15	0.000691	2.1e-05
0.25	0.1201	318.15	0.000697	2.1e-05
0.25	0.1399	318.15	0.000704	2.1e-05
0.35	0.04	318.15	0.000696	2.1e-05
0.35	0.0601	318.15	0.000703	2.1e-05
0.35	0.08	318.15	0.000711	2.1e-05
0.35	0.0999	318.15	0.000719	2.1e-05
0.35	0.1197	318.15	0.000726	2.1e-05
0.35	0.1401	318.15	0.000733	2.1e-05

System: D-glucose + 5-hydroxy-6-methyl-3,4-pyridinedimethanol hydrochloride + water; phases: Liquid
Fixed: Pressure, kPa = 100
Property: Viscosity, Pa*s (Liquid); method: Capillary tube (Ostwald; Ubbelohde) method
Solvent: Molality, mol/kg of 5-hydroxy-6-methyl-3,4-pyridinedimethanol hydrochloride	Molality, mol/kg of D-glucose	Temperature, K	Viscosity, Pa*s	uncertainty
0.05	0.0401	288.15	0.001185	2.1e-05
0.05	0.0606	288.15	0.001197	2.2e-05
0.05	0.0795	288.15	0.001209	2.2e-05
0.05	0.0996	288.15	0.001221	2.2e-05
0.05	0.1193	288.15	0.001233	2.2e-05
0.05	0.1401	288.15	0.001246	2.2e-05
0.05	0.1599	288.15	0.00126	2.2e-05
0.05	0.1799	288.15	0.001271	2.2e-05
0.15	0.0406	288.15	0.001238	2.2e-05
0.15	0.06	288.15	0.00125	2.2e-05
0.15	0.08	288.15	0.001263	2.2e-05
0.15	0.1001	288.15	0.001276	2.2e-05
0.15	0.1201	288.15	0.001291	2.2e-05
0.15	0.14	288.15	0.001301	2.2e-05
0.15	0.1597	288.15	0.00132	2.2e-05
0.15	0.1802	288.15	0.001328	2.2e-05
0.25	0.0402	288.15	0.001288	2.2e-05
0.25	0.0603	288.15	0.001302	2.2e-05
0.25	0.0801	288.15	0.001315	2.2e-05
0.25	0.1002	288.15	0.00133	2.2e-05
0.25	0.1201	288.15	0.001344	2.2e-05
0.25	0.1401	288.15	0.001359	2.2e-05
0.25	0.1598	288.15	0.001373	2.2e-05
0.25	0.1798	288.15	0.001386	2.2e-05
0.35	0.0401	288.15	0.001338	2.2e-05
0.35	0.06	288.15	0.001352	2.2e-05
0.35	0.08	288.15	0.001369	2.2e-05
0.35	0.1001	288.15	0.001385	2.2e-05
0.35	0.1201	288.15	0.001402	2.2e-05
0.35	0.1397	288.15	0.001416	2.2e-05
0.35	0.16	288.15	0.001431	2.2e-05
0.35	0.1799	288.15	0.001446	2.2e-05
0.05	0.0401	298.15	0.000931	2.1e-05
0.05	0.0606	298.15	0.00094	2.1e-05
0.05	0.0795	298.15	0.000949	2.1e-05
0.05	0.0996	298.15	0.000958	2.1e-05
0.05	0.1193	298.15	0.000966	2.1e-05
0.05	0.1401	298.15	0.000975	2.1e-05
0.05	0.1599	298.15	0.000984	2.1e-05
0.05	0.1799	298.15	0.000993	2.1e-05
0.15	0.0406	298.15	0.000967	2.1e-05
0.15	0.06	298.15	0.000976	2.1e-05
0.15	0.08	298.15	0.000985	2.1e-05
0.15	0.1001	298.15	0.000994	2.1e-05
0.15	0.1201	298.15	0.001003	2.1e-05
0.15	0.14	298.15	0.001015	2.1e-05
0.15	0.1597	298.15	0.001025	2.1e-05
0.15	0.1802	298.15	0.001036	2.1e-05
0.25	0.0402	298.15	0.001005	2.1e-05
0.25	0.0603	298.15	0.001014	2.1e-05
0.25	0.0801	298.15	0.001022	2.1e-05
0.25	0.1002	298.15	0.001037	2.1e-05
0.25	0.1201	298.15	0.001047	2.1e-05
0.25	0.1401	298.15	0.00106	2.1e-05
0.25	0.1598	298.15	0.001069	2.1e-05
0.25	0.1798	298.15	0.001079	2.1e-05
0.35	0.0401	298.15	0.001044	2.1e-05
0.35	0.06	298.15	0.001056	2.1e-05
0.35	0.08	298.15	0.001067	2.1e-05
0.35	0.1001	298.15	0.001079	2.1e-05
0.35	0.1201	298.15	0.00109	2.1e-05
0.35	0.1397	298.15	0.001102	2.1e-05
0.35	0.16	298.15	0.001114	2.1e-05
0.35	0.1799	298.15	0.001129	2.1e-05
0.05	0.0401	308.15	0.00075	2.1e-05
0.05	0.0606	308.15	0.000759	2.1e-05
0.05	0.0795	308.15	0.000765	2.1e-05
0.05	0.0996	308.15	0.000773	2.1e-05
0.05	0.1193	308.15	0.00078	2.1e-05
0.05	0.1401	308.15	0.000785	2.1e-05
0.05	0.1599	308.15	0.000793	2.1e-05
0.05	0.1799	308.15	0.0008	2.1e-05
0.15	0.0406	308.15	0.000777	2.1e-05
0.15	0.06	308.15	0.000784	2.1e-05
0.15	0.08	308.15	0.000791	2.1e-05
0.15	0.1001	308.15	0.000799	2.1e-05
0.15	0.1201	308.15	0.000807	2.1e-05
0.15	0.14	308.15	0.000815	2.1e-05
0.15	0.1597	308.15	0.000824	2.1e-05
0.15	0.1802	308.15	0.000832	2.1e-05
0.25	0.0402	308.15	0.000809	2.1e-05
0.25	0.0603	308.15	0.000816	2.1e-05
0.25	0.0801	308.15	0.000825	2.1e-05
0.25	0.1002	308.15	0.000833	2.1e-05
0.25	0.1201	308.15	0.00084	2.1e-05
0.25	0.1401	308.15	0.000848	2.1e-05
0.25	0.1598	308.15	0.00086	2.1e-05
0.25	0.1798	308.15	0.000869	2.1e-05
0.35	0.0401	308.15	0.000839	2.1e-05
0.35	0.06	308.15	0.000847	2.1e-05
0.35	0.08	308.15	0.000856	2.1e-05
0.35	0.1001	308.15	0.000868	2.1e-05
0.35	0.1201	308.15	0.000876	2.1e-05
0.35	0.1397	308.15	0.000883	2.1e-05
0.35	0.16	308.15	0.000895	2.1e-05
0.35	0.1799	308.15	0.000903	2.1e-05
0.05	0.0401	318.15	0.000618	2e-05
0.05	0.0606	318.15	0.000626	2e-05
0.05	0.0795	318.15	0.00063	2.1e-05
0.05	0.0996	318.15	0.000635	2.1e-05
0.05	0.1193	318.15	0.00064	2.1e-05
0.05	0.1401	318.15	0.000647	2.1e-05
0.05	0.1599	318.15	0.000652	2.1e-05
0.05	0.1799	318.15	0.000658	2.1e-05
0.15	0.0406	318.15	0.000648	2.1e-05
0.15	0.06	318.15	0.000654	2.1e-05
0.15	0.08	318.15	0.000659	2.1e-05
0.15	0.1001	318.15	0.000665	2.1e-05
0.15	0.1201	318.15	0.000672	2.1e-05
0.15	0.14	318.15	0.000678	2.1e-05
0.15	0.1597	318.15	0.000684	2.1e-05
0.15	0.1802	318.15	0.000688	2.1e-05
0.25	0.0402	318.15	0.00067	2.1e-05
0.25	0.0603	318.15	0.000677	2.1e-05
0.25	0.0801	318.15	0.000683	2.1e-05
0.25	0.1002	318.15	0.00069	2.1e-05
0.25	0.1201	318.15	0.000697	2.1e-05
0.25	0.1401	318.15	0.000704	2.1e-05
0.25	0.1598	318.15	0.000711	2.1e-05
0.25	0.1798	318.15	0.000718	2.1e-05
0.35	0.0401	318.15	0.000693	2.1e-05
0.35	0.06	318.15	0.000702	2.1e-05
0.35	0.08	318.15	0.000711	2.1e-05
0.35	0.1001	318.15	0.000719	2.1e-05
0.35	0.1201	318.15	0.000725	2.1e-05
0.35	0.1397	318.15	0.000732	2.1e-05
0.35	0.16	318.15	0.000741	2.1e-05
0.35	0.1799	318.15	0.000748	2.1e-05

System: 2-deoxy-D-glucose + 5-hydroxy-6-methyl-3,4-pyridinedimethanol hydrochloride + water; phases: Liquid
Fixed: Pressure, kPa = 100
Property: Viscosity, Pa*s (Liquid); method: Capillary tube (Ostwald; Ubbelohde) method
Solvent: Molality, mol/kg of 5-hydroxy-6-methyl-3,4-pyridinedimethanol hydrochloride	Molality, mol/kg of 2-deoxy-D-glucose	Temperature, K	Viscosity, Pa*s	uncertainty
0.05	0.0404	288.15	0.001184	2.1e-05
0.05	0.0603	288.15	0.001195	2.2e-05
0.05	0.0796	288.15	0.001207	2.2e-05
0.05	0.0998	288.15	0.001219	2.2e-05
0.05	0.1195	288.15	0.001231	2.2e-05
0.05	0.1398	288.15	0.001243	2.2e-05
0.15	0.0402	288.15	0.001236	2.2e-05
0.15	0.0604	288.15	0.001249	2.2e-05
0.15	0.0794	288.15	0.001261	2.2e-05
0.15	0.1001	288.15	0.001275	2.2e-05
0.15	0.1199	288.15	0.001286	2.2e-05
0.15	0.1399	288.15	0.001298	2.2e-05
0.25	0.0402	288.15	0.001287	2.2e-05
0.25	0.0601	288.15	0.001299	2.2e-05
0.25	0.0806	288.15	0.001316	2.2e-05
0.25	0.0999	288.15	0.001329	2.2e-05
0.25	0.12	288.15	0.001341	2.2e-05
0.25	0.1397	288.15	0.001353	2.2e-05
0.35	0.0402	288.15	0.001335	2.2e-05
0.35	0.0605	288.15	0.001353	2.2e-05
0.35	0.0796	288.15	0.001366	2.2e-05
0.35	0.1001	288.15	0.001382	2.2e-05
0.35	0.1199	288.15	0.001398	2.2e-05
0.35	0.1398	288.15	0.00141	2.2e-05
0.05	0.0404	298.15	0.00093	2.1e-05
0.05	0.0603	298.15	0.000939	2.1e-05
0.05	0.0796	298.15	0.000947	2.1e-05
0.05	0.0998	298.15	0.000955	2.1e-05
0.05	0.1195	298.15	0.000963	2.1e-05
0.05	0.1398	298.15	0.000972	2.1e-05
0.15	0.0402	298.15	0.000966	2.1e-05
0.15	0.0604	298.15	0.000973	2.1e-05
0.15	0.0794	298.15	0.000982	2.1e-05
0.15	0.1001	298.15	0.000994	2.1e-05
0.15	0.1199	298.15	0.001002	2.1e-05
0.15	0.1399	298.15	0.001011	2.1e-05
0.25	0.0402	298.15	0.001003	2.1e-05
0.25	0.0601	298.15	0.001014	2.1e-05
0.25	0.0806	298.15	0.001024	2.1e-05
0.25	0.0999	298.15	0.001034	2.1e-05
0.25	0.12	298.15	0.001045	2.1e-05
0.25	0.1397	298.15	0.001055	2.1e-05
0.35	0.0402	298.15	0.001044	2.1e-05
0.35	0.0605	298.15	0.001056	2.1e-05
0.35	0.0796	298.15	0.001066	2.1e-05
0.35	0.1001	298.15	0.001077	2.1e-05
0.35	0.1199	298.15	0.001088	2.1e-05
0.35	0.1398	298.15	0.001099	2.1e-05
0.05	0.0404	308.15	0.000751	2.1e-05
0.05	0.0603	308.15	0.000758	2.1e-05
0.05	0.0796	308.15	0.000764	2.1e-05
0.05	0.0998	308.15	0.00077	2.1e-05
0.05	0.1195	308.15	0.000777	2.1e-05
0.05	0.1398	308.15	0.000784	2.1e-05
0.15	0.0402	308.15	0.000776	2.1e-05
0.15	0.0604	308.15	0.000784	2.1e-05
0.15	0.0794	308.15	0.000791	2.1e-05
0.15	0.1001	308.15	0.000798	2.1e-05
0.15	0.1199	308.15	0.000806	2.1e-05
0.15	0.1399	308.15	0.000814	2.1e-05
0.25	0.0402	308.15	0.000808	2.1e-05
0.25	0.0601	308.15	0.000816	2.1e-05
0.25	0.0806	308.15	0.000825	2.1e-05
0.25	0.0999	308.15	0.000832	2.1e-05
0.25	0.12	308.15	0.00084	2.1e-05
0.25	0.1397	308.15	0.000849	2.1e-05
0.35	0.0402	308.15	0.000838	2.1e-05
0.35	0.0605	308.15	0.000849	2.1e-05
0.35	0.0796	308.15	0.000858	2.1e-05
0.35	0.1001	308.15	0.000866	2.1e-05
0.35	0.1199	308.15	0.000875	2.1e-05
0.35	0.1398	308.15	0.000883	2.1e-05
0.05	0.0404	318.15	0.000618	2e-05
0.05	0.0603	318.15	0.000624	2e-05
0.05	0.0796	318.15	0.000629	2e-05
0.05	0.0998	318.15	0.000634	2.1e-05
0.05	0.1195	318.15	0.00064	2.1e-05
0.05	0.1398	318.15	0.000646	2.1e-05
0.15	0.0402	318.15	0.000645	2.1e-05
0.15	0.0604	318.15	0.000651	2.1e-05
0.15	0.0794	318.15	0.000658	2.1e-05
0.15	0.1001	318.15	0.000665	2.1e-05
0.15	0.1199	318.15	0.00067	2.1e-05
0.15	0.1399	318.15	0.000677	2.1e-05
0.25	0.0402	318.15	0.000669	2.1e-05
0.25	0.0601	318.15	0.000677	2.1e-05
0.25	0.0806	318.15	0.000683	2.1e-05
0.25	0.0999	318.15	0.000689	2.1e-05
0.25	0.12	318.15	0.000697	2.1e-05
0.25	0.1397	318.15	0.000702	2.1e-05
0.35	0.0402	318.15	0.000695	2.1e-05
0.35	0.0605	318.15	0.000703	2.1e-05
0.35	0.0796	318.15	0.000711	2.1e-05
0.35	0.1001	318.15	0.000719	2.1e-05
0.35	0.1199	318.15	0.000725	2.1e-05
0.35	0.1398	318.15	0.000733	2.1e-05

System: methyl-.alpha.-D-glucopyranoside + 5-hydroxy-6-methyl-3,4-pyridinedimethanol hydrochloride + water; phases: Liquid
Fixed: Pressure, kPa = 100
Property: Viscosity, Pa*s (Liquid); method: Capillary tube (Ostwald; Ubbelohde) method
Solvent: Molality, mol/kg of 5-hydroxy-6-methyl-3,4-pyridinedimethanol hydrochloride	Molality, mol/kg of methyl-.alpha.-D-glucopyranoside	Temperature, K	Viscosity, Pa*s	uncertainty
0.05	0.0402	288.15	0.001189	2.2e-05
0.05	0.06	288.15	0.001199	2.2e-05
0.05	0.0799	288.15	0.001213	2.2e-05
0.05	0.0998	288.15	0.001223	2.2e-05
0.05	0.1197	288.15	0.001236	2.2e-05
0.05	0.1398	288.15	0.001246	2.2e-05
0.05	0.1601	288.15	0.001257	2.2e-05
0.05	0.18	288.15	0.001271	2.2e-05
0.15	0.04	288.15	0.001237	2.2e-05
0.15	0.06	288.15	0.00125	2.2e-05
0.15	0.08	288.15	0.001264	2.2e-05
0.15	0.1001	288.15	0.001278	2.2e-05
0.15	0.1199	288.15	0.00129	2.2e-05
0.15	0.14	288.15	0.001303	2.2e-05
0.15	0.1601	288.15	0.001317	2.2e-05
0.15	0.1799	288.15	0.001328	2.2e-05
0.25	0.0402	288.15	0.00129	2.2e-05
0.25	0.0601	288.15	0.001301	2.2e-05
0.25	0.08	288.15	0.001315	2.2e-05
0.25	0.1001	288.15	0.001331	2.2e-05
0.25	0.1199	288.15	0.001345	2.2e-05
0.25	0.1401	288.15	0.00136	2.2e-05
0.25	0.1601	288.15	0.001371	2.2e-05
0.25	0.18	288.15	0.001385	2.2e-05
0.35	0.0401	288.15	0.001337	2.2e-05
0.35	0.0617	288.15	0.001354	2.2e-05
0.35	0.0798	288.15	0.001368	2.2e-05
0.35	0.0999	288.15	0.001385	2.2e-05
0.35	0.1198	288.15	0.001402	2.2e-05
0.35	0.1402	288.15	0.001414	2.2e-05
0.35	0.16	288.15	0.001431	2.2e-05
0.35	0.18	288.15	0.001442	2.2e-05
0.05	0.0402	298.15	0.000933	2.1e-05
0.05	0.06	298.15	0.000942	2.1e-05
0.05	0.0799	298.15	0.000949	2.1e-05
0.05	0.0998	298.15	0.000959	2.1e-05
0.05	0.1197	298.15	0.000967	2.1e-05
0.05	0.1398	298.15	0.000975	2.1e-05
0.05	0.1601	298.15	0.000984	2.1e-05
0.05	0.18	298.15	0.000993	2.1e-05
0.15	0.04	298.15	0.000963	2.1e-05
0.15	0.06	298.15	0.000976	2.1e-05
0.15	0.08	298.15	0.000986	2.1e-05
0.15	0.1001	298.15	0.000995	2.1e-05
0.15	0.1199	298.15	0.001005	2.1e-05
0.15	0.14	298.15	0.001014	2.1e-05
0.15	0.1601	298.15	0.001023	2.1e-05
0.15	0.1799	298.15	0.001032	2.1e-05
0.25	0.0402	298.15	0.001004	2.1e-05
0.25	0.0601	298.15	0.001017	2.1e-05
0.25	0.08	298.15	0.001026	2.1e-05
0.25	0.1001	298.15	0.001038	2.1e-05
0.25	0.1199	298.15	0.001046	2.1e-05
0.25	0.1401	298.15	0.001057	2.1e-05
0.25	0.1601	298.15	0.001067	2.1e-05
0.25	0.18	298.15	0.001076	2.1e-05
0.35	0.0401	298.15	0.001045	2.1e-05
0.35	0.0617	298.15	0.001056	2.1e-05
0.35	0.0798	298.15	0.001069	2.1e-05
0.35	0.0999	298.15	0.001079	2.1e-05
0.35	0.1198	298.15	0.001089	2.1e-05
0.35	0.1402	298.15	0.001101	2.1e-05
0.35	0.16	298.15	0.001113	2.1e-05
0.35	0.18	298.15	0.001123	2.1e-05
0.05	0.0402	308.15	0.000752	2.1e-05
0.05	0.06	308.15	0.00076	2.1e-05
0.05	0.0799	308.15	0.000766	2.1e-05
0.05	0.0998	308.15	0.000773	2.1e-05
0.05	0.1197	308.15	0.00078	2.1e-05
0.05	0.1398	308.15	0.000787	2.1e-05
0.05	0.1601	308.15	0.000794	2.1e-05
0.05	0.18	308.15	0.0008	2.1e-05
0.15	0.04	308.15	0.000778	2.1e-05
0.15	0.06	308.15	0.000785	2.1e-05
0.15	0.08	308.15	0.000794	2.1e-05
0.15	0.1001	308.15	0.000802	2.1e-05
0.15	0.1199	308.15	0.000808	2.1e-05
0.15	0.14	308.15	0.000816	2.1e-05
0.15	0.1601	308.15	0.000822	2.1e-05
0.15	0.1799	308.15	0.000831	2.1e-05
0.25	0.0402	308.15	0.000808	2.1e-05
0.25	0.0601	308.15	0.000817	2.1e-05
0.25	0.08	308.15	0.000825	2.1e-05
0.25	0.1001	308.15	0.000833	2.1e-05
0.25	0.1199	308.15	0.000841	2.1e-05
0.25	0.1401	308.15	0.000849	2.1e-05
0.25	0.1601	308.15	0.00086	2.1e-05
0.25	0.18	308.15	0.000869	2.1e-05
0.35	0.0401	308.15	0.000839	2.1e-05
0.35	0.0617	308.15	0.000848	2.1e-05
0.35	0.0798	308.15	0.000857	2.1e-05
0.35	0.0999	308.15	0.000865	2.1e-05
0.35	0.1198	308.15	0.000874	2.1e-05
0.35	0.1402	308.15	0.000884	2.1e-05
0.35	0.16	308.15	0.000895	2.1e-05
0.35	0.18	308.15	0.000904	2.1e-05
0.05	0.0402	318.15	0.000618	2e-05
0.05	0.06	318.15	0.000624	2e-05
0.05	0.0799	318.15	0.00063	2.1e-05
0.05	0.0998	318.15	0.000635	2.1e-05
0.05	0.1197	318.15	0.000642	2.1e-05
0.05	0.1398	318.15	0.000648	2.1e-05
0.05	0.1601	318.15	0.000652	2.1e-05
0.05	0.18	318.15	0.000658	2.1e-05
0.15	0.04	318.15	0.000646	2.1e-05
0.15	0.06	318.15	0.000652	2.1e-05
0.15	0.08	318.15	0.000658	2.1e-05
0.15	0.1001	318.15	0.000664	2.1e-05
0.15	0.1199	318.15	0.000671	2.1e-05
0.15	0.14	318.15	0.000676	2.1e-05
0.15	0.1601	318.15	0.000684	2.1e-05
0.15	0.1799	318.15	0.00069	2.1e-05
0.25	0.0402	318.15	0.000669	2.1e-05
0.25	0.0601	318.15	0.000676	2.1e-05
0.25	0.08	318.15	0.000684	2.1e-05
0.25	0.1001	318.15	0.000689	2.1e-05
0.25	0.1199	318.15	0.000696	2.1e-05
0.25	0.1401	318.15	0.000702	2.1e-05
0.25	0.1601	318.15	0.000711	2.1e-05
0.25	0.18	318.15	0.000718	2.1e-05
0.35	0.0401	318.15	0.000694	2.1e-05
0.35	0.0617	318.15	0.000703	2.1e-05
0.35	0.0798	318.15	0.00071	2.1e-05
0.35	0.0999	318.15	0.000717	2.1e-05
0.35	0.1198	318.15	0.000724	2.1e-05
0.35	0.1402	318.15	0.000731	2.1e-05
0.35	0.16	318.15	0.00074	2.1e-05
0.35	0.18	318.15	0.000746	2.1e-05

System: D-maltose + 5-hydroxy-6-methyl-3,4-pyridinedimethanol hydrochloride + water; phases: Liquid
Fixed: Pressure, kPa = 100
Property: Viscosity, Pa*s (Liquid); method: Capillary tube (Ostwald; Ubbelohde) method
Solvent: Molality, mol/kg of 5-hydroxy-6-methyl-3,4-pyridinedimethanol hydrochloride	Molality, mol/kg of D-maltose	Temperature, K	Viscosity, Pa*s	uncertainty
0.05	0.0395	288.15	0.001221	2.2e-05
0.0499	0.0592	288.15	0.001246	2.2e-05
0.0499	0.0785	288.15	0.00127	2.2e-05
0.0499	0.0975	288.15	0.001298	2.2e-05
0.0499	0.1174	288.15	0.001331	2.2e-05
0.0499	0.1364	288.15	0.001361	2.2e-05
0.0499	0.1552	288.15	0.001385	2.2e-05
0.0498	0.1741	288.15	0.001408	2.2e-05
0.1499	0.04	288.15	0.001281	2.2e-05
0.1498	0.0591	288.15	0.001303	2.2e-05
0.1498	0.0787	288.15	0.001335	2.2e-05
0.1497	0.0981	288.15	0.001369	2.2e-05
0.1497	0.1174	288.15	0.001394	2.2e-05
0.1496	0.1366	288.15	0.001425	2.2e-05
0.1496	0.1553	288.15	0.001453	2.2e-05
0.1495	0.1744	288.15	0.001484	2.2e-05
0.2498	0.0397	288.15	0.001335	2.2e-05
0.2497	0.0594	288.15	0.001369	2.2e-05
0.2496	0.0785	288.15	0.001396	2.2e-05
0.2495	0.0982	288.15	0.001436	2.2e-05
0.2494	0.1172	288.15	0.001466	2.2e-05
0.2493	0.1366	288.15	0.001505	2.2e-05
0.2492	0.1554	288.15	0.001539	2.2e-05
0.2492	0.1738	288.15	0.00156	2.2e-05
0.3497	0.0397	288.15	0.001383	2.2e-05
0.3496	0.0594	288.15	0.001415	2.2e-05
0.3495	0.079	288.15	0.001459	2.2e-05
0.3493	0.0982	288.15	0.001489	2.2e-05
0.3492	0.1173	288.15	0.001522	2.2e-05
0.3491	0.1363	288.15	0.001559	2.2e-05
0.3489	0.1555	288.15	0.001597	2.3e-05
0.3488	0.1742	288.15	0.001633	2.3e-05
0.05	0.0395	298.15	0.000958	2.1e-05
0.0499	0.0592	298.15	0.000982	2.1e-05
0.0499	0.0785	298.15	0.001	2.1e-05
0.0499	0.0975	298.15	0.001018	2.1e-05
0.0499	0.1174	298.15	0.001049	2.1e-05
0.0499	0.1364	298.15	0.001067	2.1e-05
0.0499	0.1552	298.15	0.001084	2.1e-05
0.0498	0.1741	298.15	0.001103	2.1e-05
0.1499	0.04	298.15	0.000997	2.1e-05
0.1498	0.0591	298.15	0.001018	2.1e-05
0.1498	0.0787	298.15	0.001041	2.1e-05
0.1497	0.0981	298.15	0.001068	2.1e-05
0.1497	0.1174	298.15	0.001086	2.1e-05
0.1496	0.1366	298.15	0.001105	2.1e-05
0.1496	0.1553	298.15	0.001137	2.1e-05
0.1495	0.1744	298.15	0.001156	2.1e-05
0.2498	0.0397	298.15	0.001035	2.1e-05
0.2497	0.0594	298.15	0.001059	2.1e-05
0.2496	0.0785	298.15	0.001093	2.1e-05
0.2495	0.0982	298.15	0.001114	2.1e-05
0.2494	0.1172	298.15	0.001147	2.1e-05
0.2493	0.1366	298.15	0.00117	2.1e-05
0.2492	0.1554	298.15	0.001204	2.2e-05
0.2492	0.1738	298.15	0.001225	2.2e-05
0.3497	0.0397	298.15	0.001079	2.1e-05
0.3496	0.0594	298.15	0.001106	2.1e-05
0.3495	0.079	298.15	0.001134	2.1e-05
0.3493	0.0982	298.15	0.00116	2.1e-05
0.3492	0.1173	298.15	0.001193	2.2e-05
0.3491	0.1363	298.15	0.001222	2.2e-05
0.3489	0.1555	298.15	0.001246	2.2e-05
0.3488	0.1742	298.15	0.001269	2.2e-05
0.05	0.0395	308.15	0.000772	2.1e-05
0.0499	0.0592	308.15	0.000789	2.1e-05
0.0499	0.0785	308.15	0.000806	2.1e-05
0.0499	0.0975	308.15	0.000822	2.1e-05
0.0499	0.1174	308.15	0.000841	2.1e-05
0.0499	0.1364	308.15	0.000857	2.1e-05
0.0499	0.1552	308.15	0.000878	2.1e-05
0.0498	0.1741	308.15	0.000895	2.1e-05
0.1499	0.04	308.15	0.000801	2.1e-05
0.1498	0.0591	308.15	0.000821	2.1e-05
0.1498	0.0787	308.15	0.000837	2.1e-05
0.1497	0.0981	308.15	0.00086	2.1e-05
0.1497	0.1174	308.15	0.000878	2.1e-05
0.1496	0.1366	308.15	0.000896	2.1e-05
0.1496	0.1553	308.15	0.000911	2.1e-05
0.1495	0.1744	308.15	0.000928	2.1e-05
0.2498	0.0397	308.15	0.000833	2.1e-05
0.2497	0.0594	308.15	0.000856	2.1e-05
0.2496	0.0785	308.15	0.000882	2.1e-05
0.2495	0.0982	308.15	0.000894	2.1e-05
0.2494	0.1172	308.15	0.000921	2.1e-05
0.2493	0.1366	308.15	0.000947	2.1e-05
0.2492	0.1554	308.15	0.000964	2.1e-05
0.2492	0.1738	308.15	0.000988	2.1e-05
0.3497	0.0397	308.15	0.000869	2.1e-05
0.3496	0.0594	308.15	0.000892	2.1e-05
0.3495	0.079	308.15	0.000913	2.1e-05
0.3493	0.0982	308.15	0.000935	2.1e-05
0.3492	0.1173	308.15	0.000956	2.1e-05
0.3491	0.1363	308.15	0.000977	2.1e-05
0.3489	0.1555	308.15	0.001005	2.1e-05
0.3488	0.1742	308.15	0.001019	2.1e-05
0.05	0.0395	318.15	0.000635	2.1e-05
0.0499	0.0592	318.15	0.000649	2.1e-05
0.0499	0.0785	318.15	0.000662	2.1e-05
0.0499	0.0975	318.15	0.000674	2.1e-05
0.0499	0.1174	318.15	0.000691	2.1e-05
0.0499	0.1364	318.15	0.000706	2.1e-05
0.0499	0.1552	318.15	0.000722	2.1e-05
0.0498	0.1741	318.15	0.000736	2.1e-05
0.1499	0.04	318.15	0.000661	2.1e-05
0.1498	0.0591	318.15	0.000679	2.1e-05
0.1498	0.0787	318.15	0.000699	2.1e-05
0.1497	0.0981	318.15	0.00071	2.1e-05
0.1497	0.1174	318.15	0.000727	2.1e-05
0.1496	0.1366	318.15	0.000744	2.1e-05
0.1496	0.1553	318.15	0.000757	2.1e-05
0.1495	0.1744	318.15	0.000774	2.1e-05
0.2498	0.0397	318.15	0.00069	2.1e-05
0.2497	0.0594	318.15	0.000711	2.1e-05
0.2496	0.0785	318.15	0.000725	2.1e-05
0.2495	0.0982	318.15	0.000748	2.1e-05
0.2494	0.1172	318.15	0.000765	2.1e-05
0.2493	0.1366	318.15	0.000783	2.1e-05
0.2492	0.1554	318.15	0.000795	2.1e-05
0.2492	0.1738	318.15	0.000815	2.1e-05
0.3497	0.0397	318.15	0.00072	2.1e-05
0.3496	0.0594	318.15	0.000738	2.1e-05
0.3495	0.079	318.15	0.000755	2.1e-05
0.3493	0.0982	318.15	0.000778	2.1e-05
0.3492	0.1173	318.15	0.000792	2.1e-05
0.3491	0.1363	318.15	0.000811	2.1e-05
0.3489	0.1555	318.15	0.000827	2.1e-05
0.3488	0.1742	318.15	0.000845	2.1e-05

System: thiamine hydrochloride + water; phases: Liquid
Fixed: Pressure, kPa = 100
Property: Viscosity, Pa*s (Liquid); method: Capillary tube (Ostwald; Ubbelohde) method
Molality, mol/kg of thiamine hydrochloride	Temperature, K	Viscosity, Pa*s	uncertainty
0.05	288.15	0.001179	2.1e-05
0.15	288.15	0.00127	2.1e-05
0.25	288.15	0.001368	2.1e-05
0.35	288.15	0.001473	2.2e-05
0.05	298.15	0.000917	2.1e-05
0.15	298.15	0.000986	2.1e-05
0.25	298.15	0.001059	2.1e-05
0.35	298.15	0.001146	2.1e-05
0.05	308.15	0.000748	2.1e-05
0.15	308.15	0.000803	2.1e-05
0.25	308.15	0.000851	2.1e-05
0.35	308.15	0.00091	2.1e-05
0.05	318.15	0.000615	2e-05
0.15	318.15	0.000658	2e-05
0.25	318.15	0.000703	2e-05
0.35	318.15	0.000749	2.1e-05

System: 5-hydroxy-6-methyl-3,4-pyridinedimethanol hydrochloride + water; phases: Liquid
Fixed: Pressure, kPa = 100
Property: Viscosity, Pa*s (Liquid); method: Capillary tube (Ostwald; Ubbelohde) method
Molality, mol/kg of 5-hydroxy-6-methyl-3,4-pyridinedimethanol hydrochloride	Temperature, K	Viscosity, Pa*s	uncertainty
0.05	288.15	0.00116	2.1e-05
0.15	288.15	0.001209	2.1e-05
0.25	288.15	0.001256	2.1e-05
0.35	288.15	0.001304	2.1e-05
0.05	298.15	0.000912	2.1e-05
0.15	298.15	0.000944	2.1e-05
0.25	298.15	0.000982	2.1e-05
0.35	298.15	0.001019	2.1e-05
0.05	308.15	0.000736	2e-05
0.15	308.15	0.000761	2.1e-05
0.25	308.15	0.000791	2.1e-05
0.35	308.15	0.00082	2.1e-05
0.05	318.15	0.000607	2e-05
0.15	318.15	0.000634	2e-05
0.25	318.15	0.000656	2e-05
0.35	318.15	0.00068	2e-05

System: D-xylose + water; phases: Liquid
Fixed: Initial molality of solute, mol/kg = 0.25
Fixed: Pressure, kPa = 100
Fixed: Final molality of solute, mol/kg = 0
Property: Molar enthalpy of dilution, kJ/mol (Liquid); method: titration calorimeter
Temperature, K	Molar enthalpy of dilution, kJ/mol	uncertainty
288.15	-0.07769	0.00178
298.15	-0.07421	0.00174
308.15	-0.06717	0.00167
318.15	-0.06504	0.00165

System: xylitol + water; phases: Liquid
Fixed: Initial molality of solute, mol/kg = 0.25
Fixed: Pressure, kPa = 100
Fixed: Final molality of solute, mol/kg = 0
Property: Molar enthalpy of dilution, kJ/mol (Liquid); method: titration calorimeter
Temperature, K	Molar enthalpy of dilution, kJ/mol	uncertainty
288.15	-0.01242	0.00113
298.15	-0.02266	0.00123
308.15	-0.03071	0.00131
318.15	-0.04368	0.00144

System: D-glucose + water; phases: Liquid
Fixed: Initial molality of solute, mol/kg = 0.25
Fixed: Pressure, kPa = 100
Fixed: Final molality of solute, mol/kg = 0
Property: Molar enthalpy of dilution, kJ/mol (Liquid); method: titration calorimeter
Temperature, K	Molar enthalpy of dilution, kJ/mol	uncertainty
288.15	-0.07072	0.00171
298.15	-0.07838	0.00178
308.15	-0.08141	0.00182
318.15	-0.08721	0.00187

System: 2-deoxy-D-glucose + water; phases: Liquid
Fixed: Initial molality of solute, mol/kg = 0.25
Fixed: Pressure, kPa = 100
Fixed: Final molality of solute, mol/kg = 0
Property: Molar enthalpy of dilution, kJ/mol (Liquid); method: titration calorimeter
Temperature, K	Molar enthalpy of dilution, kJ/mol	uncertainty
288.15	-0.15984	0.0026
298.15	-0.14538	0.00245
308.15	-0.12228	0.00222
318.15	-0.10496	0.00205

System: methyl-.alpha.-D-glucopyranoside + water; phases: Liquid
Fixed: Initial molality of solute, mol/kg = 0.25
Fixed: Pressure, kPa = 100
Fixed: Final molality of solute, mol/kg = 0
Property: Molar enthalpy of dilution, kJ/mol (Liquid); method: titration calorimeter
Temperature, K	Molar enthalpy of dilution, kJ/mol	uncertainty
288.15	-0.25497	0.00355
298.15	-0.24632	0.00346
308.15	-0.22306	0.00323
318.15	-0.20927	0.00309

System: D-maltose + water; phases: Liquid
Fixed: Initial molality of solute, mol/kg = 0.25
Fixed: Pressure, kPa = 100
Fixed: Final molality of solute, mol/kg = 0
Property: Molar enthalpy of dilution, kJ/mol (Liquid); method: titration calorimeter
Temperature, K	Molar enthalpy of dilution, kJ/mol	uncertainty
288.15	-0.07627	0.00177
298.15	-0.11898	0.00219
308.15	-0.14026	0.0024
318.15	-0.14634	0.00246
