Measured thermophysical data. Solubility and Solvent Effect of Acetamiprid in Thirteen Pure Solvents and Aqueous Solutions of Ethanol
Source: J. Chem. Eng. Data, 2019, 10.1021/acs.jced.9b00294
Compound 1: acetamiprid, C10H11ClN4, InChI=1S/C10H11ClN4/c1-8(14-7-12)15(2)6-9-3-4-10(11)13-5-9/h3-5H,6H2,1-2H3/b14-8+, purity 98.3%
Compound 2: methanol, CH4O, InChI=1S/CH4O/c1-2/h2H,1H3, purity 99.6%
Compound 3: ethanol, C2H6O, InChI=1S/C2H6O/c1-2-3/h3H,2H2,1H3, purity 99.7%
Compound 4: 2-methyl-1-propanol, C4H10O, InChI=1S/C4H10O/c1-4(2)3-5/h4-5H,3H2,1-2H3, purity 99.5%
Compound 5: propan-2-ol, C3H8O, InChI=1S/C3H8O/c1-3(2)4/h3-4H,1-2H3, purity 99.4%
Compound 6: butan-1-ol, C4H10O, InChI=1S/C4H10O/c1-2-3-4-5/h5H,2-4H2,1H3, purity 99.5%
Compound 7: acetone, C3H6O, InChI=1S/C3H6O/c1-3(2)4/h1-2H3, purity 99.6%
Compound 8: 1,2-ethanediol, C2H6O2, InChI=1S/C2H6O2/c3-1-2-4/h3-4H,1-2H2, purity 99.3%
Compound 9: N-methylpyrrolidone, C5H9NO, InChI=1S/C5H9NO/c1-6-4-2-3-5(6)7/h2-4H2,1H3, purity 99.5%
Compound 10: ethyl acetate, C4H8O2, InChI=1S/C4H8O2/c1-3-6-4(2)5/h3H2,1-2H3, purity 99.5%
Compound 11: dimethyl sulfoxide, C2H6OS, InChI=1S/C2H6OS/c1-4(2)3/h1-2H3, purity 99.6%
Compound 12: 1,4-dioxane, C4H8O2, InChI=1S/C4H8O2/c1-2-6-4-3-5-1/h1-4H2, purity 99.4%
Compound 13: dimethylformamide, C3H7NO, InChI=1S/C3H7NO/c1-4(2)3-5/h3H,1-2H3, purity 99.4%
Compound 14: water, H2O, InChI=1S/H2O/h1H2, purity 99.9%

System: acetamiprid + methanol; phases: Liquid, Crystal
Fixed: Pressure, kPa = 101.2
Property: Mole fraction of acetamiprid (Liquid); method: Chromatography
Temperature, K	Mole fraction of acetamiprid	uncertainty
278.15	0.01988	0.00127
283.15	0.02269	0.00145
288.15	0.0273	0.00175
293.15	0.03248	0.00208
298.15	0.03816	0.00244
303.15	0.04523	0.0029
308.15	0.05324	0.00341
313.15	0.06185	0.00396
318.15	0.0703	0.0045

System: acetamiprid + ethanol; phases: Liquid, Crystal
Fixed: Pressure, kPa = 101.2
Property: Mole fraction of acetamiprid (Liquid); method: Chromatography
Temperature, K	Mole fraction of acetamiprid	uncertainty
278.15	0.01624	0.00104
283.15	0.01921	0.00123
288.15	0.02317	0.00148
293.15	0.02844	0.00182
298.15	0.03283	0.0021
303.15	0.03817	0.00244
308.15	0.04477	0.00287
313.15	0.04999	0.0032
318.15	0.05723	0.00367

System: acetamiprid + ethyl acetate; phases: Liquid, Crystal
Fixed: Pressure, kPa = 101.2
Property: Mole fraction of acetamiprid (Liquid); method: Chromatography
Temperature, K	Mole fraction of acetamiprid	uncertainty
278.15	0.0106	0.00068
283.15	0.01277	0.00082
288.15	0.01548	0.00099
293.15	0.01903	0.00122
298.15	0.02335	0.0015
303.15	0.02807	0.0018
308.15	0.03324	0.00213
313.15	0.03901	0.0025
318.15	0.04478	0.00287

System: acetamiprid + dimethylformamide; phases: Liquid, Crystal
Fixed: Pressure, kPa = 101.2
Property: Mole fraction of acetamiprid (Liquid); method: Chromatography
Temperature, K	Mole fraction of acetamiprid	uncertainty
278.15	0.1755	0.0112
283.15	0.2005	0.0128
288.15	0.2292	0.0147
293.15	0.2685	0.0172
298.15	0.3176	0.0203
303.15	0.3685	0.0236
308.15	0.421	0.027
313.15	0.4769	0.0305
318.15	0.5419	0.0293

System: acetamiprid + 2-methyl-1-propanol; phases: Liquid, Crystal
Fixed: Pressure, kPa = 101.2
Property: Mole fraction of acetamiprid (Liquid); method: Chromatography
Temperature, K	Mole fraction of acetamiprid	uncertainty
278.15	0.002803	0.00018
283.15	0.003151	0.000202
288.15	0.003705	0.000237
293.15	0.004521	0.00029
298.15	0.005195	0.000333
303.15	0.006133	0.000393
308.15	0.006964	0.000446
313.15	0.008205	0.000525
318.15	0.009316	0.000597

System: acetamiprid + propan-2-ol; phases: Liquid, Crystal
Fixed: Pressure, kPa = 101.2
Property: Mole fraction of acetamiprid (Liquid); method: Chromatography
Temperature, K	Mole fraction of acetamiprid	uncertainty
278.15	0.006704	0.000429
283.15	0.007627	0.000488
288.15	0.008862	0.000568
293.15	0.01078	0.00069
298.15	0.01268	0.00081
303.15	0.01471	0.00094
308.15	0.01657	0.00106
313.15	0.01949	0.00125
318.15	0.02206	0.00141

System: acetamiprid + water; phases: Liquid, Crystal
Fixed: Pressure, kPa = 101.2
Property: Mole fraction of acetamiprid (Liquid); method: Chromatography
Temperature, K	Mole fraction of acetamiprid	uncertainty
278.15	0.0001458	9.3e-06
283.15	0.0001735	1.11e-05
288.15	0.0002134	1.37e-05
293.15	0.0002685	1.72e-05
298.15	0.0003476	2.23e-05
303.15	0.00045	2.88e-05
308.15	0.0005721	3.67e-05
313.15	0.0007205	4.62e-05
318.15	0.0009107	5.83e-05

System: acetamiprid + acetone; phases: Liquid, Crystal
Fixed: Pressure, kPa = 101.2
Property: Mole fraction of acetamiprid (Liquid); method: Chromatography
Temperature, K	Mole fraction of acetamiprid	uncertainty
278.15	0.1036	0.0066
283.15	0.1177	0.0075
288.15	0.1379	0.0088
293.15	0.162	0.0104
298.15	0.1905	0.0122
303.15	0.2263	0.0145
308.15	0.2637	0.0169
313.15	0.303	0.0194
318.15	0.3465	0.0222

System: acetamiprid + 1,2-ethanediol; phases: Liquid, Crystal
Fixed: Pressure, kPa = 101.2
Property: Mole fraction of acetamiprid (Liquid); method: Chromatography
Temperature, K	Mole fraction of acetamiprid	uncertainty
278.15	0.009784	0.000627
283.15	0.01064	0.00068
288.15	0.01341	0.00086
293.15	0.01626	0.00104
298.15	0.01941	0.00124
303.15	0.02304	0.00148
308.15	0.0269	0.00172
313.15	0.03134	0.00201
318.15	0.03671	0.00235

System: acetamiprid + butan-1-ol; phases: Liquid, Crystal
Fixed: Pressure, kPa = 101.2
Property: Mole fraction of acetamiprid (Liquid); method: Chromatography
Temperature, K	Mole fraction of acetamiprid	uncertainty
278.15	0.00149	9.5e-05
283.15	0.001647	0.000105
288.15	0.002017	0.000129
293.15	0.002415	0.000155
298.15	0.00284	0.000182
303.15	0.003369	0.000216
308.15	0.00378	0.000242
313.15	0.004472	0.000286
318.15	0.005072	0.000325

System: acetamiprid + N-methylpyrrolidone; phases: Liquid, Crystal
Fixed: Pressure, kPa = 101.2
Property: Mole fraction of acetamiprid (Liquid); method: Chromatography
Temperature, K	Mole fraction of acetamiprid	uncertainty
278.15	0.1967	0.0126
283.15	0.2214	0.0142
288.15	0.2549	0.0163
293.15	0.2994	0.0192
298.15	0.3524	0.0226
303.15	0.4046	0.0259
308.15	0.4604	0.0295
313.15	0.5228	0.0306
318.15	0.589	0.0263

System: acetamiprid + dimethyl sulfoxide; phases: Liquid, Crystal
Fixed: Pressure, kPa = 101.2
Property: Mole fraction of acetamiprid (Liquid); method: Chromatography
Temperature, K	Mole fraction of acetamiprid	uncertainty
293.15	0.3758	0.0241
298.15	0.4256	0.0273
303.15	0.4812	0.0308
308.15	0.5396	0.0295
313.15	0.6083	0.0251
318.15	0.6799	0.0205

System: acetamiprid + 1,4-dioxane; phases: Liquid, Crystal
Fixed: Pressure, kPa = 101.2
Property: Mole fraction of acetamiprid (Liquid); method: Chromatography
Temperature, K	Mole fraction of acetamiprid	uncertainty
288.15	0.06932	0.00444
293.15	0.0799	0.00512
298.15	0.09414	0.00603
303.15	0.1132	0.0073
308.15	0.1323	0.0085
313.15	0.1535	0.0098
318.15	0.1752	0.0112

System: acetamiprid + ethanol + water; phases: Liquid, Crystal
Fixed: Pressure, kPa = 101.2
Property: Mole fraction of acetamiprid (Liquid); method: Chromatography
Temperature, K	Solvent: Mass fraction of ethanol	Mole fraction of acetamiprid	uncertainty
278.15	0	0.0001458	1.46e-05
283.15	0	0.0001735	1.74e-05
288.15	0	0.0002134	2.13e-05
293.15	0	0.0002685	2.69e-05
298.15	0	0.0003476	3.48e-05
303.15	0	0.00045	4.5e-05
308.15	0	0.0005721	5.72e-05
313.15	0	0.0007205	7.21e-05
318.15	0	0.0009107	9.11e-05
278.15	0.1	0.0004677	4.68e-05
283.15	0.1	0.0006114	6.12e-05
288.15	0.1	0.0007684	7.69e-05
293.15	0.1	0.0009756	9.76e-05
298.15	0.1	0.001213	0.000121
303.15	0.1	0.001484	0.000148
308.15	0.1	0.001805	0.000181
313.15	0.1	0.002168	0.000217
318.15	0.1	0.002604	0.000261
278.15	0.2	0.0009471	9.48e-05
283.15	0.2	0.00124	0.000124
288.15	0.2	0.001582	0.000158
293.15	0.2	0.002034	0.000203
298.15	0.2	0.002496	0.00025
303.15	0.2	0.003058	0.000306
308.15	0.2	0.003728	0.000373
313.15	0.2	0.004443	0.000444
318.15	0.2	0.005195	0.00052
278.15	0.3	0.001533	0.000153
283.15	0.3	0.001984	0.000198
288.15	0.3	0.002514	0.000252
293.15	0.3	0.003237	0.000324
298.15	0.3	0.004088	0.000409
303.15	0.3	0.004985	0.000499
308.15	0.3	0.006116	0.000612
313.15	0.3	0.007466	0.000747
318.15	0.3	0.008965	0.000897
278.15	0.4	0.002265	0.000227
283.15	0.4	0.003025	0.000303
288.15	0.4	0.003831	0.000383
293.15	0.4	0.004824	0.000483
298.15	0.4	0.006065	0.000607
303.15	0.4	0.007414	0.000742
308.15	0.4	0.008856	0.000886
313.15	0.4	0.01049	0.00105
318.15	0.4	0.01228	0.00123
278.15	0.5	0.003248	0.000325
283.15	0.5	0.004311	0.000431
288.15	0.5	0.005338	0.000534
293.15	0.5	0.006655	0.000666
298.15	0.5	0.008171	0.000817
303.15	0.5	0.009982	0.000999
308.15	0.5	0.01208	0.00121
313.15	0.5	0.01411	0.00141
318.15	0.5	0.01698	0.0017
278.15	0.6	0.004345	0.000435
283.15	0.6	0.005634	0.000564
288.15	0.6	0.00743	0.000743
293.15	0.6	0.008901	0.00089
298.15	0.6	0.01059	0.00106
303.15	0.6	0.01276	0.00128
308.15	0.6	0.01539	0.00154
313.15	0.6	0.01802	0.0018
318.15	0.6	0.0213	0.00213
278.15	0.7	0.006127	0.000613
283.15	0.7	0.008003	0.000801
288.15	0.7	0.01024	0.00102
293.15	0.7	0.01233	0.00123
298.15	0.7	0.01427	0.00143
303.15	0.7	0.01685	0.00169
308.15	0.7	0.01943	0.00194
313.15	0.7	0.02299	0.0023
318.15	0.7	0.02663	0.00266
278.15	0.8	0.008382	0.000839
283.15	0.8	0.01079	0.00108
288.15	0.8	0.01372	0.00137
293.15	0.8	0.01628	0.00163
298.15	0.8	0.01856	0.00186
303.15	0.8	0.02191	0.00219
308.15	0.8	0.0252	0.00252
313.15	0.8	0.02885	0.00289
318.15	0.8	0.03319	0.00332
278.15	0.9	0.01176	0.00118
283.15	0.9	0.01477	0.00148
288.15	0.9	0.01785	0.00179
293.15	0.9	0.02121	0.00212
298.15	0.9	0.02471	0.00247
303.15	0.9	0.02856	0.00286
308.15	0.9	0.03261	0.00326
313.15	0.9	0.03836	0.00384
318.15	0.9	0.04452	0.00445
278.15	1	0.01624	0.00162
283.15	1	0.01921	0.00192
288.15	1	0.02317	0.00232
293.15	1	0.02844	0.00284
298.15	1	0.03283	0.00328
303.15	1	0.03817	0.00382
308.15	1	0.04477	0.00448
313.15	1	0.04999	0.005
318.15	1	0.05723	0.00572
