Measured thermophysical data. Bubble Pressure Measurement and Prediction for n-Hexadecane and n-Eicosane + Cyclohexane, Methylcyclohexane, and Ethylcyclohexane Binary Mixtures from 303.15 to 393.15 K
Source: J. Chem. Eng. Data, 2018, 10.1021/acs.jced.8b00125
Compound 1: hexadecane, C16H34, InChI=1S/C16H34/c1-3-5-7-9-11-13-15-16-14-12-10-8-6-4-2/h3-16H2,1-2H3, purity 99%
Compound 2: eicosane, C20H42, InChI=1S/C20H42/c1-3-5-7-9-11-13-15-17-19-20-18-16-14-12-10-8-6-4-2/h3-20H2,1-2H3, purity 99%
Compound 3: cyclohexane, C6H12, InChI=1S/C6H12/c1-2-4-6-5-3-1/h1-6H2, purity 99%
Compound 4: methylcyclohexane, C7H14, InChI=1S/C7H14/c1-7-5-3-2-4-6-7/h7H,2-6H2,1H3, purity 99%
Compound 5: ethylcyclohexane, C8H16, InChI=1S/C8H16/c1-2-8-6-4-3-5-7-8/h8H,2-7H2,1H3, purity 99%
Compound 6: heptane, C7H16, InChI=1S/C7H16/c1-3-5-7-6-4-2/h3-7H2,1-2H3, purity 99%
Compound 7: octane, C8H18, InChI=1S/C8H18/c1-3-5-7-8-6-4-2/h3-8H2,1-2H3, purity 99%
Compound 8: decane, C10H22, InChI=1S/C10H22/c1-3-5-7-9-10-8-6-4-2/h3-10H2,1-2H3, purity 99%
Compound 9: dodecane, C12H26, InChI=1S/C12H26/c1-3-5-7-9-11-12-10-8-6-4-2/h3-12H2,1-2H3, purity 98%
Compound 10: benzene, C6H6, InChI=1S/C6H6/c1-2-4-6-5-3-1/h1-6H, purity 99.9%
Compound 11: toluene, C7H8, InChI=1S/C7H8/c1-7-5-3-2-4-6-7/h2-6H,1H3, purity 99.9%

System: cyclohexane; phases: Liquid, Gas
Property: Vapor or sublimation pressure, kPa (Liquid); method: Closed cell (Static) method
Temperature, K	Vapor or sublimation pressure, kPa	uncertainty
303.15	16.4	1
313.15	24.7	1
323.15	36.4	1
333.15	52	1.1
343.15	72.5	1.1

System: methylcyclohexane; phases: Liquid, Gas
Property: Vapor or sublimation pressure, kPa (Liquid); method: Closed cell (Static) method
Temperature, K	Vapor or sublimation pressure, kPa	uncertainty
303.15	7.9	1
313.15	12.3	1
323.15	18.5	1
333.15	27.1	1
343.15	38.7	1
353.15	53.8	1.1
363.15	73.3	1.1

System: ethylcyclohexane; phases: Liquid, Gas
Property: Vapor or sublimation pressure, kPa (Liquid); method: Closed cell (Static) method
Temperature, K	Vapor or sublimation pressure, kPa	uncertainty
303.15	2.1	1
313.15	3.7	1
323.15	6	1
333.15	9.3	1
343.15	13.9	1
353.15	20.4	1
363.15	28.9	1
373.15	40.3	1
383.15	54.8	1.1
393.15	73.2	1.1

System: heptane; phases: Liquid, Gas
Property: Vapor or sublimation pressure, kPa (Liquid); method: Closed cell (Static) method
Temperature, K	Vapor or sublimation pressure, kPa	uncertainty
303.15	7.9	1
313.15	12.4	1
323.15	19	1
333.15	28.2	1
343.15	40.6	1
353.15	57.1	1.1

System: decane; phases: Liquid, Gas
Property: Vapor or sublimation pressure, kPa (Liquid); method: Closed cell (Static) method
Temperature, K	Vapor or sublimation pressure, kPa	uncertainty
303.15	0.2	1
313.15	0.6	1
323.15	1	1
333.15	1.7	1
343.15	2.7	1
353.15	4.3	1
363.15	6.6	1
373.15	9.9	1
383.15	14.4	1
393.15	20.6	1

System: dodecane; phases: Liquid, Gas
Property: Vapor or sublimation pressure, kPa (Liquid); method: Closed cell (Static) method
Temperature, K	Vapor or sublimation pressure, kPa	uncertainty
343.15	0.4	1
353.15	0.7	1
363.15	1.2	1
373.15	2	1
383.15	3.2	1
393.15	4.9	1

System: toluene + methylcyclohexane; phases: Liquid, Gas
Property: Vapor or sublimation pressure, kPa (Liquid); method: Closed cell (Static) method
Mole fraction of toluene	Temperature, K	Vapor or sublimation pressure, kPa	uncertainty
0.8026	303.15	5.8	1
0.8026	313.15	9.2	1
0.8026	323.15	14	1
0.8026	333.15	20.7	1
0.8026	348.15	35.8	1
0.8026	353.15	42.4	1.1
0.8026	363.15	58.6	1.1
0.8026	373.15	79.2	1
0.5003	303.15	7	1
0.5003	313.15	10.9	1
0.5003	323.15	16.6	1
0.5003	333.15	24.6	1
0.5003	348.15	42	1
0.5003	353.15	49.5	1.1
0.5003	363.15	67.8	1.1

System: toluene + cyclohexane; phases: Liquid, Gas
Fixed: Mole fraction of toluene = 0.8026
Property: Vapor or sublimation pressure, kPa (Liquid); method: Closed cell (Static) method
Temperature, K	Vapor or sublimation pressure, kPa	uncertainty
303.15	8.5	1
308.15	10.6	1
313.15	13.1	1
323.15	19.4	1
333.15	28.1	1
343.15	39.7	1
352.15	53.3	1.1
365.65	80.5	1.1

System: cyclohexane + heptane; phases: Liquid, Gas
Fixed: Mole fraction of cyclohexane = 0.7998
Property: Vapor or sublimation pressure, kPa (Liquid); method: Closed cell (Static) method
Temperature, K	Vapor or sublimation pressure, kPa	uncertainty
298.15	11.9	1
313.15	22.4	1
333.15	47.5	1

System: benzene + octane; phases: Liquid, Gas
Fixed: Mole fraction of benzene = 0.0997
Property: Vapor or sublimation pressure, kPa (Liquid); method: Closed cell (Static) method
Temperature, K	Vapor or sublimation pressure, kPa	uncertainty
298.15	3.4	1
313.15	6.8	1
328.15	12.9	1
338.15	19	1
348.15	27.3	1

System: hexadecane + cyclohexane; phases: Liquid, Gas
Property: Vapor or sublimation pressure, kPa (Liquid); method: Closed cell (Static) method
Mole fraction of hexadecane	Temperature, K	Vapor or sublimation pressure, kPa	uncertainty
0.1999	303.15	12.6	1
0.3	303.15	10.7	1
0.3999	303.15	8.9	1
0.529	303.15	6.7	1
0.5992	303.15	5.5	1
0.6997	303.15	4	1
0.7997	303.15	2.6	1
0.1999	313.15	18.9	1
0.3	313.15	16	1
0.3999	313.15	13.3	1
0.529	313.15	9.9	1
0.5992	313.15	8.2	1
0.6997	313.15	5.8	1
0.7997	313.15	3.7	1
0.1999	323.15	27.5	1
0.3	323.15	23.2	1
0.3999	323.15	19.3	1
0.529	323.15	14.3	1
0.5992	323.15	11.8	1
0.6997	323.15	8.3	1
0.7997	323.15	5.3	1
0.1999	333.15	39.5	1
0.3	333.15	33.1	1
0.3999	333.15	27.5	1
0.529	333.15	20.5	1
0.5992	333.15	16.9	1
0.6997	333.15	12	1
0.7997	333.15	7.6	1
0.1999	343.15	54.8	1.1
0.3	343.15	46.1	1.1
0.3999	343.15	38.2	1
0.529	343.15	28.4	1
0.5992	343.15	23.3	1
0.6997	343.15	16.6	1
0.7997	343.15	10.6	1
0.1999	353.15	74	1.1
0.3	353.15	62	1.1
0.3999	353.15	51.2	1.1
0.529	353.15	38.2	1
0.5992	353.15	31.3	1
0.6997	353.15	22.2	1
0.7997	353.15	14.3	1
0.3999	363.15	67.7	1.1
0.529	363.15	50.1	1.1
0.5992	363.15	41.2	1
0.6997	363.15	29.2	1
0.7997	363.15	18.7	1
0.529	373.15	64.2	1.1
0.5992	373.15	53	1
0.6997	373.15	37.6	1
0.7997	373.15	23.8	1
0.6997	383.15	46.8	1
0.7997	383.15	30	1
0.6997	393.15	57	1
0.7997	393.15	36.9	1

System: hexadecane + methylcyclohexane; phases: Liquid, Gas
Property: Vapor or sublimation pressure, kPa (Liquid); method: Closed cell (Static) method
Mole fraction of hexadecane	Temperature, K	Vapor or sublimation pressure, kPa	uncertainty
0.1999	303.15	6.2	1
0.2999	303.15	5.2	1
0.3999	303.15	4.3	1
0.4995	303.15	3.5	1
0.5999	303.15	2.7	1
0.6969	303.15	1.9	1
0.7994	303.15	1.2	1
0.1999	313.15	9.5	1
0.2999	313.15	8	1
0.3999	313.15	6.7	1
0.4995	313.15	5.4	1
0.5999	313.15	4.1	1
0.6969	313.15	3	1
0.7994	313.15	1.9	1
0.1999	323.15	14.2	1
0.2999	323.15	12	1
0.3999	323.15	10	1
0.4995	323.15	8	1
0.5999	323.15	6.2	1
0.6969	323.15	4.5	1
0.7994	323.15	2.9	1
0.1999	333.15	20.7	1
0.2999	333.15	17.5	1
0.3999	333.15	14.5	1
0.4995	333.15	11.7	1
0.5999	333.15	9	1
0.6969	333.15	6.5	1
0.7994	333.15	4.1	1
0.1999	343.15	29.6	1
0.2999	343.15	24.9	1
0.3999	343.15	20.7	1
0.4995	343.15	16.6	1
0.5999	343.15	12.7	1
0.6969	343.15	9.1	1
0.7994	343.15	5.8	1
0.1999	353.15	41.2	1
0.2999	353.15	34.8	1
0.3999	353.15	28.8	1
0.4995	353.15	23.2	1
0.5999	353.15	17.6	1
0.6969	353.15	12.8	1
0.7994	353.15	8.2	1
0.1999	363.15	56.2	1.1
0.2999	363.15	47.2	1.1
0.3999	363.15	38.9	1
0.4995	363.15	31.4	1
0.5999	363.15	24.1	1
0.6969	363.15	17.5	1
0.7994	363.15	11.1	1
0.1999	373.15	74.8	1.1
0.2999	373.15	62.5	1.1
0.3999	373.15	51.7	1.1
0.4995	373.15	41.5	1
0.5999	373.15	31.8	1
0.6969	373.15	23	1
0.7994	373.15	14.7	1
0.3999	383.15	67.1	1.1
0.4995	383.15	53.9	1.1
0.5999	383.15	41.2	1
0.6969	383.15	29.8	1
0.7994	383.15	18.8	1
0.4995	393.15	68	1.1
0.5999	393.15	51.9	1
0.6969	393.15	37.9	1
0.7994	393.15	24.1	1

System: hexadecane + ethylcyclohexane; phases: Liquid, Gas
Property: Vapor or sublimation pressure, kPa (Liquid); method: Closed cell (Static) method
Mole fraction of hexadecane	Temperature, K	Vapor or sublimation pressure, kPa	uncertainty
0.2033	303.15	1.8	1
0.2998	303.15	1.5	1
0.4	303.15	1.3	1
0.4995	303.15	1	1
0.5997	303.15	0.8	1
0.6983	303.15	0.5	1
0.8	303.15	0.4	1
0.2033	313.15	2.9	1
0.2998	313.15	2.5	1
0.4	313.15	2.1	1
0.4995	313.15	1.7	1
0.5997	313.15	1.3	1
0.6983	313.15	0.9	1
0.8	313.15	0.6	1
0.2033	323.15	4.7	1
0.2998	323.15	4	1
0.4	323.15	3.4	1
0.4995	323.15	2.7	1
0.5997	323.15	2.1	1
0.6983	323.15	1.5	1
0.8	323.15	1	1
0.2033	333.15	7.2	1
0.2998	333.15	6.2	1
0.4	333.15	5.2	1
0.4995	333.15	4.2	1
0.5997	333.15	3.2	1
0.6983	333.15	2.3	1
0.8	333.15	1.5	1
0.2033	343.15	10.8	1
0.2998	343.15	9.2	1
0.4	343.15	7.7	1
0.4995	343.15	6.2	1
0.5997	343.15	4.9	1
0.6983	343.15	3.5	1
0.8	343.15	2.3	1
0.2033	353.15	15.6	1
0.2998	353.15	13.4	1
0.4	353.15	11.2	1
0.4995	353.15	9.1	1
0.5997	353.15	7.1	1
0.6983	353.15	5.1	1
0.8	353.15	3.3	1
0.2033	363.15	22.2	1
0.2998	363.15	19.1	1
0.4	363.15	15.9	1
0.4995	363.15	12.8	1
0.5997	363.15	10	1
0.6983	363.15	7.2	1
0.8	363.15	4.7	1
0.2033	373.15	30.9	1
0.2998	373.15	26.5	1
0.4	373.15	22.2	1
0.4995	373.15	17.9	1
0.5997	373.15	13.7	1
0.6983	373.15	10	1
0.8	373.15	6.5	1
0.2033	383.15	42.2	1
0.2998	383.15	36	1
0.4	383.15	30.1	1
0.4995	383.15	24.2	1
0.5997	383.15	18.7	1
0.6983	383.15	13.6	1
0.8	383.15	8.8	1
0.2033	393.15	56.3	1.1
0.2998	393.15	48	1
0.4	393.15	40.1	1
0.4995	393.15	32.2	1
0.5997	393.15	24.9	1
0.6983	393.15	18.2	1
0.8	393.15	11.7	1

System: eicosane + cyclohexane; phases: Liquid, Gas
Property: Vapor or sublimation pressure, kPa (Liquid); method: Closed cell (Static) method
Mole fraction of eicosane	Temperature, K	Vapor or sublimation pressure, kPa	uncertainty
0.1	303.15	14.3	1
0.2	303.15	12.4	1
0.3	303.15	10.4	1
0.1	313.15	21.6	1
0.2	313.15	18.5	1
0.3	313.15	15.4	1
0.1	323.15	31.5	1
0.2	323.15	27.2	1
0.3	323.15	22.6	1
0.1	333.15	45	1.1
0.2	333.15	38.9	1
0.3	333.15	32.3	1
0.1	343.15	62.7	1.1
0.2	343.15	53.9	1.1
0.3	343.15	44.5	1.1
0.3	353.15	59.9	1.1

System: eicosane + methylcyclohexane; phases: Liquid, Gas
Property: Vapor or sublimation pressure, kPa (Liquid); method: Closed cell (Static) method
Mole fraction of eicosane	Temperature, K	Vapor or sublimation pressure, kPa	uncertainty
0.1	303.15	7	1
0.2001	303.15	6.1	1
0.2999	303.15	5.1	1
0.1	313.15	10.8	1
0.2001	313.15	9.4	1
0.2999	313.15	7.8	1
0.1	323.15	16.2	1
0.2001	323.15	14	1
0.2999	323.15	11.7	1
0.1	333.15	23.7	1
0.2001	333.15	20.5	1
0.2999	333.15	17.1	1
0.1	343.15	33.8	1
0.2001	343.15	29.4	1
0.2999	343.15	24.3	1
0.1	353.15	47.3	1.1
0.2001	353.15	40.7	1
0.2999	353.15	34	1
0.1	363.15	64.4	1.1
0.2001	363.15	55.3	1.1
0.2999	363.15	46.2	1.1
0.2001	373.15	73.4	1.1
0.2999	373.15	61.3	1.1

System: eicosane + ethylcyclohexane; phases: Liquid, Gas
Property: Vapor or sublimation pressure, kPa (Liquid); method: Closed cell (Static) method
Mole fraction of eicosane	Temperature, K	Vapor or sublimation pressure, kPa	uncertainty
0.1	303.15	2	1
0.1999	303.15	1.8	1
0.2996	303.15	1.5	1
0.1	313.15	3.3	1
0.1999	313.15	2.9	1
0.2996	313.15	2.4	1
0.1	323.15	5.3	1
0.1999	323.15	4.7	1
0.2996	323.15	3.8	1
0.1	333.15	8.2	1
0.1999	333.15	7.2	1
0.2996	333.15	5.9	1
0.1	343.15	12.3	1
0.1999	343.15	10.7	1
0.2996	343.15	8.9	1
0.1	353.15	17.9	1
0.1999	353.15	15.6	1
0.2996	353.15	12.9	1
0.1	363.15	25.5	1
0.1999	363.15	22	1
0.2996	363.15	18.4	1
0.1	373.15	35.5	1
0.1999	373.15	30.7	1
0.2996	373.15	25.7	1
0.1	383.15	48.5	1.1
0.1999	383.15	41.8	1
0.2996	383.15	34.8	1
0.1	393.15	64.8	1.1
0.1999	393.15	55.7	1.1
0.2996	393.15	46.2	1
