Measured thermophysical data. Thermophysical properties and supercooling of fatty acids  and their binary eutectic phase change slurries for thermal  energy storage
Source: J. Chem. Eng. Data, 2015, 10.1021/acs.jced.5b00371
Compound 1: decanoic acid, C10H20O2, InChI=1S/C10H20O2/c1-2-3-4-5-6-7-8-9-10(11)12/h2-9H2,1H3,(H,11,12), purity 99%
Compound 2: dodecanoic acid, C12H24O2, InChI=1S/C12H24O2/c1-2-3-4-5-6-7-8-9-10-11-12(13)14/h2-11H2,1H3,(H,13,14), purity 98%
Compound 3: hexadecanoic acid, C16H32O2, InChI=1S/C16H32O2/c1-2-3-4-5-6-7-8-9-10-11-12-13-14-15-16(17)18/h2-15H2,1H3,(H,17,18), purity 97%
Compound 4: octadecanoic acid, C18H36O2, InChI=1S/C18H36O2/c1-2-3-4-5-6-7-8-9-10-11-12-13-14-15-16-17-18(19)20/h2-17H2,1H3,(H,19,20), purity 98%
Compound 5: tetradecanoic acid, C14H28O2, InChI=1S/C14H28O2/c1-2-3-4-5-6-7-8-9-10-11-12-13-14(15)16/h2-13H2,1H3,(H,15,16), purity 98%

System: decanoic acid; phases: Crystal, Liquid, Air at 1 atmosphere
Property: Normal melting temperature, K (Crystal); method: DTA
Normal melting temperature, K	uncertainty
306.3	4.02

System: decanoic acid; phases: Crystal, Liquid, Air at 1 atmosphere
Property: Molar enthalpy of transition or fusion, kJ/mol (Crystal); method: DSC
Molar enthalpy of transition or fusion, kJ/mol	uncertainty
25.980946972	4.16880332

System: dodecanoic acid; phases: Crystal, Liquid, Air at 1 atmosphere
Property: Normal melting temperature, K (Crystal); method: DTA
Normal melting temperature, K	uncertainty
318.44	6.01

System: dodecanoic acid; phases: Crystal, Liquid, Air at 1 atmosphere
Property: Molar enthalpy of transition or fusion, kJ/mol (Crystal); method: DSC
Molar enthalpy of transition or fusion, kJ/mol	uncertainty
34.584861264	1.7447676896

System: hexadecanoic acid; phases: Crystal, Liquid, Air at 1 atmosphere
Property: Normal melting temperature, K (Crystal); method: DTA
Normal melting temperature, K	uncertainty
337.13	6.01

System: hexadecanoic acid; phases: Crystal, Liquid, Air at 1 atmosphere
Property: Molar enthalpy of transition or fusion, kJ/mol (Crystal); method: DSC
Molar enthalpy of transition or fusion, kJ/mol	uncertainty
50.9873640672	6.231105144

System: octadecanoic acid; phases: Crystal, Liquid, Air at 1 atmosphere
Property: Normal melting temperature, K (Crystal); method: DTA
Normal melting temperature, K	uncertainty
343.9	4.02

System: octadecanoic acid; phases: Crystal, Liquid, Air at 1 atmosphere
Property: Molar enthalpy of transition or fusion, kJ/mol (Crystal); method: DSC
Molar enthalpy of transition or fusion, kJ/mol	uncertainty
59.2935911332	2.0425465832

System: tetradecanoic acid; phases: Crystal, Liquid, Air at 1 atmosphere
Property: Normal melting temperature, K (Crystal); method: DTA
Normal melting temperature, K	uncertainty
328.38	4.02

System: tetradecanoic acid; phases: Crystal, Liquid, Air at 1 atmosphere
Property: Molar enthalpy of transition or fusion, kJ/mol (Crystal); method: DSC
Molar enthalpy of transition or fusion, kJ/mol	uncertainty
42.0910442652	0.9386044812

System: dodecanoic acid + decanoic acid; phases: Crystal, Crystal, Liquid, Air at 1 atmosphere
Property: Eutectic temperature, K (Crystal); method: DTA
Eutectic temperature, K	uncertainty
296.11	2.03

System: dodecanoic acid + decanoic acid; phases: Crystal, Crystal, Liquid, Air at 1 atmosphere
Property: Eutectic composition: mass fraction of decanoic acid (Crystal); method: One component added until temperature minimum was detected for melting
Eutectic composition: mass fraction of decanoic acid	uncertainty
0.62	0.08

System: decanoic acid + tetradecanoic acid; phases: Crystal, Crystal, Liquid, Air at 1 atmosphere
Property: Eutectic temperature, K (Crystal); method: DTA
Eutectic temperature, K	uncertainty
298.27	2.03

System: decanoic acid + tetradecanoic acid; phases: Crystal, Crystal, Liquid, Air at 1 atmosphere
Property: Eutectic composition: mass fraction of decanoic acid (Crystal); method: One component added until temperature minimum was detected for melting
Eutectic composition: mass fraction of decanoic acid	uncertainty
0.75	0.1

System: hexadecanoic acid + decanoic acid; phases: Crystal, Crystal, Liquid, Air at 1 atmosphere
Property: Eutectic temperature, K (Crystal); method: DTA
Eutectic temperature, K	uncertainty
300.66	2.03

System: hexadecanoic acid + decanoic acid; phases: Crystal, Crystal, Liquid, Air at 1 atmosphere
Property: Eutectic composition: mass fraction of decanoic acid (Crystal); method: One component added until temperature minimum was detected for melting
Eutectic composition: mass fraction of decanoic acid	uncertainty
0.826	0.06

System: octadecanoic acid + decanoic acid; phases: Crystal, Crystal, Liquid, Air at 1 atmosphere
Property: Eutectic temperature, K (Crystal); method: DTA
Eutectic temperature, K	uncertainty
303.33	2.03

System: octadecanoic acid + decanoic acid; phases: Crystal, Crystal, Liquid, Air at 1 atmosphere
Property: Eutectic composition: mass fraction of decanoic acid (Crystal); method: One component added until temperature minimum was detected for melting
Eutectic composition: mass fraction of decanoic acid	uncertainty
0.92	0.06

System: dodecanoic acid + tetradecanoic acid; phases: Crystal, Crystal, Liquid, Air at 1 atmosphere
Property: Eutectic temperature, K (Crystal); method: DTA
Eutectic temperature, K	uncertainty
308.94	2.03

System: dodecanoic acid + tetradecanoic acid; phases: Crystal, Crystal, Liquid, Air at 1 atmosphere
Property: Eutectic composition: mass fraction of tetradecanoic acid (Crystal); method: One component added until temperature minimum was detected for melting
Eutectic composition: mass fraction of tetradecanoic acid	uncertainty
0.37	0.04

System: hexadecanoic acid + dodecanoic acid; phases: Crystal, Crystal, Liquid, Air at 1 atmosphere
Property: Eutectic temperature, K (Crystal); method: DTA
Eutectic temperature, K	uncertainty
310.16	4.02

System: hexadecanoic acid + dodecanoic acid; phases: Crystal, Crystal, Liquid, Air at 1 atmosphere
Property: Eutectic composition: mass fraction of dodecanoic acid (Crystal); method: One component added until temperature minimum was detected for melting
Eutectic composition: mass fraction of dodecanoic acid	uncertainty
0.74	0.12

System: octadecanoic acid + dodecanoic acid; phases: Crystal, Crystal, Liquid, Air at 1 atmosphere
Property: Eutectic temperature, K (Crystal); method: DTA
Eutectic temperature, K	uncertainty
312.64	8.01

System: octadecanoic acid + dodecanoic acid; phases: Crystal, Crystal, Liquid, Air at 1 atmosphere
Property: Eutectic composition: mass fraction of dodecanoic acid (Crystal); method: One component added until temperature minimum was detected for melting
Eutectic composition: mass fraction of dodecanoic acid	uncertainty
0.83	0.04

System: hexadecanoic acid + tetradecanoic acid; phases: Crystal, Crystal, Liquid, Air at 1 atmosphere
Property: Eutectic temperature, K (Crystal); method: DTA
Eutectic temperature, K	uncertainty
320	4.02

System: hexadecanoic acid + tetradecanoic acid; phases: Crystal, Crystal, Liquid, Air at 1 atmosphere
Property: Eutectic composition: mass fraction of tetradecanoic acid (Crystal); method: One component added until temperature minimum was detected for melting
Eutectic composition: mass fraction of tetradecanoic acid	uncertainty
0.64	0.08

System: octadecanoic acid + tetradecanoic acid; phases: Crystal, Crystal, Liquid, Air at 1 atmosphere
Property: Eutectic temperature, K (Crystal); method: DTA
Eutectic temperature, K	uncertainty
320.28	2.03

System: octadecanoic acid + tetradecanoic acid; phases: Crystal, Crystal, Liquid, Air at 1 atmosphere
Property: Eutectic composition: mass fraction of tetradecanoic acid (Crystal); method: One component added until temperature minimum was detected for melting
Eutectic composition: mass fraction of tetradecanoic acid	uncertainty
0.74	0.06

System: hexadecanoic acid + octadecanoic acid; phases: Crystal, Crystal, Liquid, Air at 1 atmosphere
Property: Eutectic temperature, K (Crystal); method: DTA
Eutectic temperature, K	uncertainty
329.86	8.01

System: hexadecanoic acid + octadecanoic acid; phases: Crystal, Crystal, Liquid, Air at 1 atmosphere
Property: Eutectic composition: mass fraction of octadecanoic acid (Crystal); method: One component added until temperature minimum was detected for melting
Eutectic composition: mass fraction of octadecanoic acid	uncertainty
0.38	0.06
