Measured thermophysical data. Experimental Measurement and Modeling of Vapor-Liquid Equilibrium for the Ternary System Water + 1-Propanol + Glycerol
Source: J. Chem. Eng. Data, 2016, 10.1021/acs.jced.5b01015
Compound 1: propan-1-ol, C3H8O, InChI=1S/C3H8O/c1-2-3-4/h4H,2-3H2,1H3, purity 99.8%
Compound 2: glycerol, C3H8O3, InChI=1S/C3H8O3/c4-1-3(6)2-5/h3-6H,1-2H2, purity 99.5%
Compound 3: water, H2O, InChI=1S/H2O/h1H2

System: glycerol + propan-1-ol + water; phases: Gas, Liquid
Property: Mole fraction of water (Gas); method: chromatography and titration
Temperature, K	Solvent: Mole fraction of propan-1-ol	Mass fraction of glycerol	Mole fraction of water	uncertainty
380.92	0.1017	0.8013	0.5508	0.0112
373.24	0.1001	0.6999	0.5675	0.0116
369.17	0.1001	0.6073	0.5813	0.0118
366.29	0.1	0.5014	0.5913	0.012
364.51	0.1004	0.4002	0.6008	0.0121
363.3	0.1001	0.3027	0.6087	0.0123
362.41	0.1001	0.2038	0.6148	0.0124
361.71	0.1004	0.1003	0.6196	0.0125
378.46	0.2	0.7978	0.4262	0.0137
372.17	0.1971	0.7032	0.4626	0.0103
368.18	0.2005	0.6007	0.494	0.0106
365.79	0.2003	0.5009	0.5214	0.0109
364.15	0.2003	0.4002	0.5441	0.0112
362.94	0.2007	0.3013	0.5665	0.1692
362.03	0.2002	0.2012	0.5843	0.0119
361.3	0.2002	0.1001	0.599	0.0121
379.02	0.4001	0.7998	0.2872	0.0087
373.32	0.4008	0.7001	0.334	0.0087
369.88	0.4006	0.6015	0.3813	0.0089
367.39	0.4005	0.5013	0.4257	0.0093
365.49	0.4008	0.4022	0.4642	0.01
363.89	0.3999	0.3019	0.4995	0.011
362.56	0.4002	0.202	0.5248	0.0108
361.38	0.399	0.1006	0.5519	0.0118
380.55	0.6002	0.8005	0.1765	0.0065
375.69	0.6004	0.7039	0.2214	0.0085
372.51	0.6002	0.6038	0.2704	0.0081
369.96	0.6005	0.5014	0.3168	0.0087
367.9	0.6002	0.4033	0.3598	0.0098
365.99	0.6008	0.3029	0.3985	0.0098
364.18	0.6	0.2035	0.4359	0.0105
362.43	0.6001	0.102	0.4734	0.0112
381.92	0.8008	0.7989	0.0808	0.0069
377.95	0.8011	0.7035	0.1094	0.0097
375.33	0.8002	0.6009	0.1443	0.0123
373.09	0.8004	0.499	0.1784	0.0139
371.25	0.8006	0.4027	0.2147	0.0188
369.34	0.7996	0.3009	0.2473	0.0115
367.32	0.7999	0.2002	0.2889	0.0111
365.27	0.7994	0.1003	0.325	0.0102
383.56	0.9503	0.8066	0.0183	0.0079
379.77	0.9502	0.7022	0.0268	0.0106
377.61	0.9502	0.6052	0.0347	0.0146
375.91	0.9502	0.5016	0.0465	0.0119
374.44	0.9501	0.4032	0.0575	0.0093
372.93	0.9502	0.301	0.0718	0.0086
371.33	0.9501	0.2015	0.088	0.009
369.63	0.9504	0.1041	0.1076	0.0087

System: glycerol + propan-1-ol + water; phases: Gas, Liquid
Property: Mole fraction of propan-1-ol (Gas); method: chromatography and titration
Temperature, K	Solvent: Mole fraction of propan-1-ol	Mass fraction of glycerol	Mole fraction of propan-1-ol	uncertainty
380.92	0.1017	0.8013	0.449	0.0092
373.24	0.1001	0.6999	0.4324	0.009
369.17	0.1001	0.6073	0.4186	0.0086
366.29	0.1	0.5014	0.4087	0.0083
364.51	0.1004	0.4002	0.3992	0.0081
363.3	0.1001	0.3027	0.3913	0.008
362.41	0.1001	0.2038	0.3852	0.0078
361.71	0.1004	0.1003	0.3804	0.0077
378.46	0.2	0.7978	0.5736	0.0157
372.17	0.1971	0.7032	0.5373	0.0117
368.18	0.2005	0.6007	0.5059	0.0109
365.79	0.2003	0.5009	0.4786	0.0101
364.15	0.2003	0.4002	0.4559	0.0095
362.94	0.2007	0.3013	0.4335	0.169
362.03	0.2002	0.2012	0.4157	0.0085
361.3	0.2002	0.1001	0.401	0.0081
379.02	0.4001	0.7998	0.7126	0.0157
373.32	0.4008	0.7001	0.6659	0.0144
369.88	0.4006	0.6015	0.6186	0.0132
367.39	0.4005	0.5013	0.5743	0.0121
365.49	0.4008	0.4022	0.5357	0.0114
363.89	0.3999	0.3019	0.5005	0.011
362.56	0.4002	0.202	0.4752	0.0099
361.38	0.399	0.1006	0.4481	0.0099
380.55	0.6002	0.8005	0.8232	0.0174
375.69	0.6004	0.7039	0.7785	0.0172
372.51	0.6002	0.6038	0.7295	0.0158
369.96	0.6005	0.5014	0.6831	0.0149
367.9	0.6002	0.4033	0.6401	0.0145
365.99	0.6008	0.3029	0.6014	0.0134
364.18	0.6	0.2035	0.5641	0.0127
362.43	0.6001	0.102	0.5265	0.0121
381.92	0.8008	0.7989	0.9188	0.0196
377.95	0.8011	0.7035	0.8902	0.0202
375.33	0.8002	0.6009	0.8555	0.0209
373.09	0.8004	0.499	0.8215	0.0217
371.25	0.8006	0.4027	0.7852	0.0241
369.34	0.7996	0.3009	0.7526	0.0183
367.32	0.7999	0.2002	0.711	0.0171
365.27	0.7994	0.1003	0.675	0.0157
383.56	0.9503	0.8066	0.9812	0.0188
379.77	0.9502	0.7022	0.9729	0.0222
377.61	0.9502	0.6052	0.9649	0.0241
375.91	0.9502	0.5016	0.9533	0.0224
374.44	0.9501	0.4032	0.9422	0.0209
372.93	0.9502	0.301	0.928	0.0204
371.33	0.9501	0.2015	0.9119	0.0203
369.63	0.9504	0.1041	0.8924	0.0198

System: glycerol + propan-1-ol + water; phases: Liquid, Gas
Property: Vapor or sublimation pressure, kPa (Liquid); method: Ebulliometric method (Recirculating still)
Temperature, K	Solvent: Mole fraction of propan-1-ol	Mass fraction of glycerol	Vapor or sublimation pressure, kPa	uncertainty
380.92	0.1017	0.8013	100	1
373.24	0.1001	0.6999	100	1
369.17	0.1001	0.6073	100	1
366.29	0.1	0.5014	100	1
364.51	0.1004	0.4002	100	1
363.3	0.1001	0.3027	100	1
362.41	0.1001	0.2038	100	1
361.71	0.1004	0.1003	100	1
378.46	0.2	0.7978	100	1
372.17	0.1971	0.7032	100	1
368.18	0.2005	0.6007	100	1
365.79	0.2003	0.5009	100	1
364.15	0.2003	0.4002	100	1
362.94	0.2007	0.3013	100	1
362.03	0.2002	0.2012	100	1
361.3	0.2002	0.1001	100	1
379.02	0.4001	0.7998	100	1
373.32	0.4008	0.7001	100	1
369.88	0.4006	0.6015	100	1
367.39	0.4005	0.5013	100	1
365.49	0.4008	0.4022	100	1
363.89	0.3999	0.3019	100	1
362.56	0.4002	0.202	100	1
361.38	0.399	0.1006	100	1
380.55	0.6002	0.8005	100	1
375.69	0.6004	0.7039	100	1
372.51	0.6002	0.6038	100	1
369.96	0.6005	0.5014	100	1
367.9	0.6002	0.4033	100	1
365.99	0.6008	0.3029	100	1
364.18	0.6	0.2035	100	1
362.43	0.6001	0.102	100	1
381.92	0.8008	0.7989	100	1
377.95	0.8011	0.7035	100	1
375.33	0.8002	0.6009	100	1
373.09	0.8004	0.499	100	1
371.25	0.8006	0.4027	100	1
369.34	0.7996	0.3009	100	1
367.32	0.7999	0.2002	100	1
365.27	0.7994	0.1003	100	1
383.56	0.9503	0.8066	100	1
379.77	0.9502	0.7022	100	1
377.61	0.9502	0.6052	100	1
375.91	0.9502	0.5016	100	1
374.44	0.9501	0.4032	100	1
372.93	0.9502	0.301	100	1
371.33	0.9501	0.2015	100	1
369.63	0.9504	0.1041	100	1
