Measured thermophysical data. Isothermal Vapor-Liquid Equilibrium Measurements for Alcohol + Water/n-Hexane Azeotropic Systems Using Both Dynamic and Automated Static-Synthetic Methods
Source: J. Chem. Eng. Data, 2019, 10.1021/acs.jced.9b00102
Compound 1: propan-1-ol, C3H8O, InChI=1S/C3H8O/c1-2-3-4/h4H,2-3H2,1H3, purity 99.5%
Compound 2: butan-2-ol, C4H10O, InChI=1S/C4H10O/c1-3-4(2)5/h4-5H,3H2,1-2H3, purity 99%
Compound 3: 2-methyl-1-propanol, C4H10O, InChI=1S/C4H10O/c1-4(2)3-5/h4-5H,3H2,1-2H3, purity 99%
Compound 4: hexane, C6H14, InChI=1S/C6H14/c1-3-5-6-4-2/h3-6H2,1-2H3, purity 99%
Compound 5: water, H2O, InChI=1S/H2O/h1H2, purity 99.9%

System: propan-1-ol; phases: Liquid
Property: Refractive index (Na D-line) (Liquid); method: Standard Abbe refractometry
Temperature, K	Pressure, kPa	Refractive index (Na D-line)	uncertainty
293.15	101.325	1.3853	0.002

System: propan-1-ol; phases: Liquid, Gas
Property: Vapor or sublimation pressure, kPa (Liquid); method: Ebulliometric method (Recirculating still)
Temperature, K	Vapor or sublimation pressure, kPa	uncertainty
303.15	3.9	0.22
313.15	7.02	0.23
323.15	12.19	0.23
313.15	6.93	0.23

System: butan-2-ol; phases: Liquid
Property: Refractive index (Na D-line) (Liquid); method: Standard Abbe refractometry
Temperature, K	Pressure, kPa	Refractive index (Na D-line)	uncertainty
293.15	101.325	1.3976	0.002

System: butan-2-ol; phases: Liquid, Gas
Property: Vapor or sublimation pressure, kPa (Liquid); method: Ebulliometric method (Recirculating still)
Temperature, K	Vapor or sublimation pressure, kPa	uncertainty
303.15	3.27	0.23
329.15	14.83	0.23
343.15	29.58	0.26
329.15	14.37	0.23

System: 2-methyl-1-propanol; phases: Liquid
Property: Refractive index (Na D-line) (Liquid); method: Standard Abbe refractometry
Temperature, K	Pressure, kPa	Refractive index (Na D-line)	uncertainty
293.15	101.325	1.3958	0.002

System: 2-methyl-1-propanol; phases: Liquid, Gas
Property: Vapor or sublimation pressure, kPa (Liquid); method: Ebulliometric method (Recirculating still)
Temperature, K	Vapor or sublimation pressure, kPa	uncertainty
303.15	2.01	0.22
323.15	7.11	0.23
343.15	20.47	0.24

System: hexane; phases: Liquid
Property: Refractive index (Na D-line) (Liquid); method: Standard Abbe refractometry
Temperature, K	Pressure, kPa	Refractive index (Na D-line)	uncertainty
293.15	101.325	1.3725	0.002

System: hexane; phases: Liquid, Gas
Property: Vapor or sublimation pressure, kPa (Liquid); method: Ebulliometric method (Recirculating still)
Temperature, K	Vapor or sublimation pressure, kPa	uncertainty
303.15	25.09	0.28
329.15	66.87	0.39
343.15	105.38	0.71
329.15	67.73	0.39
323.15	54.3	0.29

System: water; phases: Liquid
Property: Refractive index (Na D-line) (Liquid); method: Standard Abbe refractometry
Temperature, K	Pressure, kPa	Refractive index (Na D-line)	uncertainty
293.15	101.325	1.3333	0.002

System: water; phases: Liquid, Gas
Property: Vapor or sublimation pressure, kPa (Liquid); method: Ebulliometric method (Recirculating still)
Temperature, K	Vapor or sublimation pressure, kPa	uncertainty
303.15	4.27	0.22
313.15	7.44	0.23
323.15	12.38	0.23
313.15	7.34	0.23

System: water + propan-1-ol; phases: Liquid, Gas
Property: Vapor or sublimation pressure, kPa (Liquid); method: Ebulliometric method (Recirculating still)
Mole fraction of water	Temperature, K	Vapor or sublimation pressure, kPa	uncertainty
0	303.15	3.9	0.23
0.009	303.15	3.97	0.24
0.055	303.15	4.4	0.25
0.0849	303.15	4.7	0.25
0.1173	303.15	4.98	0.24
0.196	303.15	5.5	0.24
0.2353	303.15	5.74	0.24
0.2851	303.15	5.95	0.24
0.328	303.15	6.03	0.23
0.4172	303.15	6.19	0.24
0.4776	303.15	6.26	0.24
0.545	303.15	6.3	0.24
0.616	303.15	6.39	0.24
0.7344	303.15	6.38	0.23
0.836	303.15	6.36	0.24
0.9245	303.15	6	0.24
0.9555	303.15	5.6	0.29
0.9773	303.15	5.1	0.36
0.9939	303.15	4.54	0.31
1	303.15	4.27	0.23
0	313.15	7.02	0.23
0.0052	313.15	7.11	0.23
0.0569	313.15	7.9	0.29
0.0869	313.15	8.37	0.28
0.1154	313.15	8.77	0.25
0.1979	313.15	9.7	0.28
0.2334	313.15	10.01	0.25
0.2871	313.15	10.4	0.25
0.3299	313.15	10.64	0.24
0.419	313.15	11	0.25
0.4757	313.15	11.16	0.24
0.5469	313.15	11.22	0.25
0.6179	313.15	11.24	0.25
0.7325	313.15	11.25	0.24
0.8389	313.15	11.18	0.25
0.9306	313.15	10.62	0.25
0.9633	313.15	9.84	0.38
0.9809	313.15	9.05	0.67
0.9968	313.15	7.78	0.28
1	313.15	7.44	0.23
0	323.15	12.19	0.24
0.0063	323.15	12.5	0.3
0.054	323.15	13.8	0.36
0.0859	323.15	14.55	0.34
0.1164	323.15	15.24	0.31
0.1969	323.15	16.7	0.31
0.2344	323.15	17.37	0.3
0.2861	323.15	18.1	0.28
0.3289	323.15	18.4	0.26
0.4181	323.15	18.8	0.26
0.4767	323.15	19.01	0.26
0.546	323.15	19.13	0.26
0.617	323.15	19.1	0.26
0.7335	323.15	18.9	0.26
0.8379	323.15	18.75	0.26
0.9315	323.15	17.9	0.29
0.9624	323.15	16.7	0.61
0.9818	323.15	15	1.09
0.9958	323.15	13.1	0.62
1	323.15	12.38	0.24

System: water + propan-1-ol; phases: Gas, Liquid
Property: Mole fraction of water (Gas); method: Chromatography
Mole fraction of water	Temperature, K	Mole fraction of water	uncertainty
0	303.15	0	
0.009	303.15	0.033	0.0286
0.055	303.15	0.1701	0.029
0.0849	303.15	0.2374	0.0232
0.1173	303.15	0.3	0.0185
0.196	303.15	0.4108	0.0168
0.2353	303.15	0.4509	0.0134
0.2851	303.15	0.4825	0.0123
0.328	303.15	0.505	0.012
0.4172	303.15	0.5481	0.0116
0.4776	303.15	0.5697	0.0109
0.545	303.15	0.578	0.0109
0.616	303.15	0.5986	0.0109
0.7344	303.15	0.6272	0.0106
0.836	303.15	0.6234	0.0107
0.9245	303.15	0.6605	0.0126
0.9555	303.15	0.7165	0.0296
0.9773	303.15	0.8109	0.0552
0.9939	303.15	0.9272	0.0439
1	303.15	1	
0	313.15	0	
0.0052	313.15	0.0189	0.0184
0.0569	313.15	0.173	0.0293
0.0869	313.15	0.24	0.0229
0.1154	313.15	0.293	0.0181
0.1979	313.15	0.4098	0.017
0.2334	313.15	0.446	0.0142
0.2871	313.15	0.4935	0.0134
0.3299	313.15	0.5205	0.012
0.419	313.15	0.5591	0.0115
0.4757	313.15	0.5806	0.0113
0.5469	313.15	0.607	0.0109
0.6179	313.15	0.6196	0.0106
0.7325	313.15	0.6162	0.0106
0.8389	313.15	0.6262	0.0108
0.9306	313.15	0.6643	0.0124
0.9633	313.15	0.7266	0.0294
0.9809	313.15	0.8099	0.0694
0.9968	313.15	0.9572	0.0308
1	313.15	1	
0	323.15	0	
0.0063	323.15	0.0225	0.021
0.054	323.15	0.1621	0.0286
0.0859	323.15	0.2337	0.0229
0.1164	323.15	0.29	0.018
0.1969	323.15	0.4008	0.0164
0.2344	323.15	0.435	0.0138
0.2861	323.15	0.4783	0.0131
0.3289	323.15	0.505	0.0121
0.4181	323.15	0.5481	0.0116
0.4767	323.15	0.5697	0.0109
0.546	323.15	0.578	0.0109
0.617	323.15	0.5986	0.0108
0.7335	323.15	0.6152	0.0106
0.8379	323.15	0.6234	0.0108
0.9315	323.15	0.6605	0.0124
0.9624	323.15	0.7165	0.0306
0.9818	323.15	0.8109	0.0673
0.9958	323.15	0.9427	0.0408
1	323.15	1	

System: water + propan-1-ol; phases: Liquid, Gas
Fixed: Temperature, K = 313.15
Property: Vapor or sublimation pressure, kPa (Liquid); method: Closed cell (Static) method
Mole fraction of water	Vapor or sublimation pressure, kPa	uncertainty
0	6.93	0.23
0.01	7.18	0.23
0.02	7.42	0.23
0.03	7.63	0.23
0.04	7.82	0.23
0.05	8	0.23
0.06	8.17	0.23
0.07	8.33	0.23
0.1	8.74	0.23
0.13	9.09	0.23
0.16	9.41	0.23
0.19	9.71	0.23
0.22	9.99	0.23
0.25	10.25	0.23
0.28	10.5	0.23
0.31	10.72	0.23
0.34	10.91	0.23
0.37	11.08	0.23
0.4	11.2	0.23
0.43	11.3	0.23
0.46	11.35	0.23
0.49	11.38	0.23
0.52	11.38	0.23
0.55	11.36	0.23
0.58	11.34	0.23
0.61	11.31	0.23
0.64	11.3	0.23
0.67	11.3	0.23
0.7	11.29	0.23
0.73	11.27	0.23
0.76	11.25	0.23
0.79	11.24	0.23
0.82	11.23	0.23
0.85	11.22	0.23
0.88	11.17	0.23
0.9	11.11	0.23
0.925	10.96	0.23
0.935	10.77	0.23
0.945	10.55	0.24
0.955	10.29	0.24
0.96	9.98	0.25
0.97	9.62	0.25
0.975	9.2	0.26
0.985	8.71	0.25
0.995	8.15	0.29
1	7.34	0.23

System: hexane + butan-2-ol; phases: Liquid, Gas
Property: Vapor or sublimation pressure, kPa (Liquid); method: Ebulliometric method (Recirculating still)
Mole fraction of hexane	Temperature, K	Vapor or sublimation pressure, kPa	uncertainty
0	303.15	3.27	0.23
0.011	303.15	4.32	0.91
0.0512	303.15	7.81	0.86
0.0812	303.15	10.07	0.74
0.1212	303.15	12.66	0.61
0.1921	303.15	16.24	0.54
0.2391	303.15	18.08	0.46
0.2813	303.15	19.41	0.41
0.3242	303.15	20.47	0.36
0.4132	303.15	22.08	0.34
0.4813	303.15	22.84	0.33
0.5413	303.15	23.26	0.32
0.6121	303.15	23.63	0.32
0.7382	303.15	24.08	0.32
0.8322	303.15	24.45	0.33
0.9282	303.15	24.92	0.33
0.9517	303.15	25.01	0.33
0.9812	303.15	25.07	0.32
0.9941	303.15	25.11	0.32
1	303.15	25.09	0.32
0	329.15	14.83	0.25
0.0091	329.15	17.28	1.07
0.0531	329.15	25.82	2.11
0.0831	329.15	32.36	1.79
0.1193	329.15	38.7	1.09
0.194	329.15	46.14	1.15
0.2373	329.15	50.08	1
0.2832	329.15	54.34	0.82
0.3261	329.15	56.9	0.47
0.4152	329.15	60.7	0.6
0.4795	329.15	62.6	0.52
0.5432	329.15	64.2	0.45
0.6141	329.15	65.4	0.44
0.7363	329.15	66.5	0.46
0.8341	329.15	67.25	0.49
0.9263	329.15	67.95	0.61
0.9536	329.15	67.75	0.53
0.9792	329.15	67.34	0.44
0.996	329.15	67.01	1.66
1	329.15	66.87	0.44
0	343.15	29.58	0.3
0.0101	343.15	33.16	3.26
0.0503	343.15	46	3.04
0.0802	343.15	54.24	2.55
0.1203	343.15	63.71	2.05
0.1911	343.15	76.76	1.74
0.2382	343.15	83.3	1.36
0.2804	343.15	88	1.13
0.3242	343.15	91.92	0.9
0.4123	343.15	97.55	0.79
0.4804	343.15	100.45	0.91
0.5404	343.15	102.34	0.88
0.6112	343.15	104.06	0.86
0.7373	343.15	106.48	0.86
0.8612	343.15	108.14	0.86
0.9292	343.15	107.98	0.85
0.9508	343.15	107.55	0.89
0.9753	343.15	106.72	0.93
0.9881	343.15	106.1	1
1	343.15	105.38	0.84

System: hexane + butan-2-ol; phases: Gas, Liquid
Property: Mole fraction of hexane (Gas); method: Chromatography
Mole fraction of hexane	Temperature, K	Mole fraction of hexane	uncertainty
0	303.15	0	
0.011	303.15	0.2307	0.1137
0.0512	303.15	0.6139	0.0698
0.0812	303.15	0.7037	0.0234
0.1212	303.15	0.762	0.0156
0.1921	303.15	0.8333	0.0133
0.2391	303.15	0.8597	0.0111
0.2813	303.15	0.8716	0.0104
0.3242	303.15	0.8753	0.0102
0.4132	303.15	0.8833	0.0102
0.4813	303.15	0.8874	0.0102
0.5413	303.15	0.8952	0.0102
0.6121	303.15	0.8996	0.0102
0.7382	303.15	0.9128	0.0102
0.8322	303.15	0.9259	0.0102
0.9282	303.15	0.946	0.0114
0.9517	303.15	0.9587	0.0118
0.9812	303.15	0.9792	0.0126
0.9941	303.15	0.9921	0.0079
1	303.15	1	
0	329.15	0	
0.0091	329.15	0.134	0.0623
0.0531	329.15	0.439	0.0619
0.0831	329.15	0.5745	0.0336
0.1193	329.15	0.6548	0.0169
0.194	329.15	0.7268	0.014
0.2373	329.15	0.7598	0.0122
0.2832	329.15	0.7815	0.0113
0.3261	329.15	0.7978	0.011
0.4152	329.15	0.8272	0.0107
0.4795	329.15	0.8418	0.0105
0.5432	329.15	0.8538	0.0104
0.6141	329.15	0.8655	0.0102
0.7363	329.15	0.8715	0.0102
0.8341	329.15	0.8798	0.0105
0.9263	329.15	0.9196	0.0112
0.9536	329.15	0.9379	0.0136
0.9792	329.15	0.9683	0.0164
0.996	329.15	0.9933	0.0067
1	329.15	1	
0	343.15	0	
0.0101	343.15	0.1148	0.0747
0.0503	343.15	0.3858	0.0557
0.0802	343.15	0.4923	0.0304
0.1203	343.15	0.5851	0.0198
0.1911	343.15	0.6783	0.0155
0.2382	343.15	0.7131	0.0125
0.2804	343.15	0.7357	0.0117
0.3242	343.15	0.7548	0.0113
0.4123	343.15	0.7892	0.011
0.4804	343.15	0.8114	0.0106
0.5404	343.15	0.8175	0.0105
0.6112	343.15	0.8319	0.0104
0.7373	343.15	0.8471	0.0104
0.8612	343.15	0.8823	0.0108
0.9292	343.15	0.9172	0.0115
0.9508	343.15	0.9318	0.0138
0.9753	343.15	0.9603	0.0161
0.9881	343.15	0.9792	0.0189
1	343.15	1	

System: hexane + butan-2-ol; phases: Liquid, Gas
Fixed: Temperature, K = 329.15
Property: Vapor or sublimation pressure, kPa (Liquid); method: Closed cell (Static) method
Mole fraction of hexane	Vapor or sublimation pressure, kPa	uncertainty
0	14.37	0.24
0.0005	14.56	0.29
0.0009	14.66	0.37
0.0015	14.8	0.45
0.0018	14.89	0.52
0.0025	15.08	0.58
0.0044	15.54	0.63
0.0051	15.73	0.63
0.0058	15.91	0.63
0.0041	15.68	0.62
0.0082	16.74	0.62
0.0123	17.78	0.56
0.0163	18.79	0.54
0.0203	19.68	0.54
0.0361	23.48	0.54
0.0438	25.19	0.51
0.0515	26.82	0.5
0.059	28.37	0.5
0.0664	29.85	0.49
0.0737	31.26	0.47
0.0881	33.87	0.47
0.102	36.25	0.46
0.1088	37.35	0.45
0.1156	38.41	0.44
0.1288	40.38	0.44
0.1448	42.6	0.44
0.1602	44.58	0.43
0.1751	46.35	0.42
0.2171	50.65	0.43
0.2428	52.85	0.42
0.3005	56.79	0.44
0.3212	57.91	0.43
0.3933	60.94	0.44
0.4311	62.09	0.45
0.4645	62.92	0.45
0.4941	63.56	0.45
0.5207	64.07	0.45
0.5446	64.48	0.46
0.5001	63.69	0.45
0.5201	64.07	0.45
0.5418	64.44	0.46
0.5653	64.83	0.46
0.5911	65.22	0.46
0.6192	65.63	0.46
0.6503	66.07	0.46
0.6844	66.53	0.47
0.7432	67.3	0.47
0.7884	67.84	0.47
0.8392	68.35	0.48
0.8792	68.61	0.48
0.9036	68.68	0.48
0.9293	68.66	0.48
0.9495	68.57	0.48
0.9565	68.52	0.48
0.9633	68.45	0.48
0.9705	68.38	0.48
0.9778	68.29	0.48
0.9852	68.19	0.48
0.9924	68.07	0.48
1	67.73	0.47

System: hexane + 2-methyl-1-propanol; phases: Liquid, Gas
Property: Vapor or sublimation pressure, kPa (Liquid); method: Ebulliometric method (Recirculating still)
Mole fraction of hexane	Temperature, K	Vapor or sublimation pressure, kPa	uncertainty
0	303.15	2.01	0.23
0.0101	303.15	2.99	1
0.0522	303.15	6.81	0.93
0.0821	303.15	9.48	0.78
0.1202	303.15	11.85	0.61
0.193	303.15	15.72	0.55
0.2382	303.15	17.37	0.44
0.2823	303.15	18.71	0.43
0.3252	303.15	20.07	0.37
0.4142	303.15	21.72	0.34
0.4804	303.15	22.34	0.32
0.5423	303.15	22.75	0.32
0.6131	303.15	23.28	0.32
0.7373	303.15	23.81	0.32
0.8331	303.15	24.09	0.32
0.9273	303.15	24.72	0.32
0.9527	303.15	24.81	0.32
0.9802	303.15	24.89	0.32
0.9951	303.15	25.01	0.32
1	303.15	25.09	0.31
0	323.15	7.11	0.24
0.0091	323.15	8.94	1.37
0.0491	323.15	17.96	2.1
0.0831	323.15	23.5	1.6
0.1193	323.15	29.21	1.12
0.194	323.15	37.81	1.27
0.2373	323.15	41.92	1.01
0.2832	323.15	46.4	0.87
0.3261	323.15	48.69	0.47
0.4152	323.15	52.03	0.68
0.4795	323.15	53.36	0.5
0.5432	323.15	54.37	0.45
0.6141	323.15	54.5	0.42
0.7363	323.15	54.6	0.42
0.8341	323.15	54.84	0.43
0.9263	323.15	55.48	0.59
0.9536	323.15	55.52	0.43
0.9792	323.15	55.72	0.53
0.996	323.15	55.02	1.63
1	323.15	54.3	0.41
0	343.15	20.47	0.26
0.007	343.15	23.87	2.79
0.05	343.15	40.92	3.65
0.084	343.15	51.79	2.99
0.1183	343.15	61.21	2.14
0.195	343.15	75.63	1.74
0.2363	343.15	80.73	1.26
0.2841	343.15	86.03	1.24
0.3271	343.15	91.08	0.89
0.462	343.15	99.5	1.06
0.495	343.15	102.46	0.97
0.5641	343.15	105.05	0.89
0.625	343.15	106.6	0.85
0.7353	343.15	107.9	0.85
0.835	343.15	108.8	0.85
0.9254	343.15	108.96	0.84
0.9545	343.15	109.05	0.85
0.9782	343.15	108.43	0.96
0.9969	343.15	107.05	0.87
1	343.15	105.38	0.83

System: hexane + 2-methyl-1-propanol; phases: Gas, Liquid
Property: Mole fraction of hexane (Gas); method: Chromatography
Mole fraction of hexane	Temperature, K	Mole fraction of hexane	uncertainty
0	303.15	0	
0.0101	303.15	0.357	0.3536
0.0522	303.15	0.7149	0.0646
0.0821	303.15	0.8046	0.0225
0.1202	303.15	0.8529	0.0127
0.193	303.15	0.8924	0.0112
0.2382	303.15	0.9079	0.0106
0.2823	303.15	0.9197	0.0103
0.3252	303.15	0.9243	0.0101
0.4142	303.15	0.9343	0.0101
0.4804	303.15	0.9427	0.0101
0.5423	303.15	0.9467	0.0101
0.6131	303.15	0.9507	0.01
0.7373	303.15	0.9538	0.01
0.8331	303.15	0.9558	0.01
0.9273	303.15	0.9607	0.01
0.9527	303.15	0.9658	0.0107
0.9802	303.15	0.9812	0.012
0.9951	303.15	0.9945	0.0055
1	303.15	1	
0	323.15	0	
0.0091	323.15	0.2349	0.0839
0.0491	323.15	0.6158	0.0694
0.0831	323.15	0.7274	0.0261
0.1193	323.15	0.7838	0.0144
0.194	323.15	0.8428	0.0121
0.2373	323.15	0.8589	0.0111
0.2832	323.15	0.8806	0.0107
0.3261	323.15	0.8873	0.0104
0.4152	323.15	0.9063	0.0102
0.4795	323.15	0.909	0.0101
0.5432	323.15	0.914	0.0101
0.6141	323.15	0.917	0.0101
0.7363	323.15	0.919	0.0101
0.8341	323.15	0.9208	0.0102
0.9263	323.15	0.9486	0.0105
0.9536	323.15	0.9588	0.0115
0.9792	323.15	0.9783	0.0131
0.996	323.15	0.9954	0.0046
1	323.15	1	
0	343.15	0	
0.007	343.15	0.1465	0.0611
0.05	343.15	0.5167	0.0646
0.084	343.15	0.6283	0.0289
0.1183	343.15	0.699	0.0164
0.195	343.15	0.7718	0.0132
0.2363	343.15	0.7899	0.0114
0.2841	343.15	0.8116	0.0111
0.3271	343.15	0.8264	0.0105
0.462	343.15	0.8435	0.0104
0.495	343.15	0.8488	0.0104
0.5641	343.15	0.8588	0.0104
0.625	343.15	0.877	0.0104
0.7353	343.15	0.8963	0.0102
0.835	343.15	0.9044	0.0103
0.9254	343.15	0.9296	0.0106
0.9545	343.15	0.9479	0.0128
0.9782	343.15	0.9719	0.015
0.9969	343.15	0.9956	0.0044
1	343.15	1	
