Measured thermophysical data. Isobaric Vapor - Liquid Equilibrium for Ethyl acetate + Methanol + Ionic Liquids Ternary systems at 101.3 kPa
Source: J. Chem. Eng. Data, 2016, 10.1021/acs.jced.5b00546
Compound 1: methanol, CH4O, InChI=1S/CH4O/c1-2/h2H,1H3, purity 99.5%
Compound 2: ethyl acetate, C4H8O2, InChI=1S/C4H8O2/c1-3-6-4(2)5/h3H2,1-2H3, purity 99.5%
Compound 3: 1-ethyl-3-methylimidazolium diethyl phosphate, C10H21N2O4P, InChI=1S/C6H11N2.C4H11O4P/c1-3-8-5-4-7(2)6-8;1-3-7-9(5,6)8-4-2/h4-6H,3H2,1-2H3;3-4H2,1-2H3,(H,5,6)/q+1;/p-1
Compound 4: 1-butyl-3-methylimidazolium dibutyl phosphate, C16H33N2O4P, InChI=1S/C8H15N2.C8H19O4P/c1-3-4-5-10-7-6-9(2)8-10;1-3-5-7-11-13(9,10)12-8-6-4-2/h6-8H,3-5H2,1-2H3;3-8H2,1-2H3,(H,9,10)/q+1;/p-1

System: methanol; phases: Liquid, Gas
Property: Vapor or sublimation pressure, kPa (Liquid); method: Ebulliometric method (Recirculating still)
Temperature, K	Vapor or sublimation pressure, kPa	uncertainty
337.68	101.3	25.3

System: ethyl acetate; phases: Liquid, Gas
Property: Vapor or sublimation pressure, kPa (Liquid); method: Ebulliometric method (Recirculating still)
Temperature, K	Vapor or sublimation pressure, kPa	uncertainty
350.35	101.3	25.3

System: methanol + ethyl acetate; phases: Liquid, Gas
Fixed: Pressure, kPa = 101.3
Property: Boiling temperature at pressure P, K (Liquid); method: Ebulliometric method (Recirculating still)
Mole fraction of ethyl acetate	Boiling temperature at pressure P, K	uncertainty
0	337.68	5
0.03	337.12	5
0.072	336.49	5
0.145	335.87	5
0.211	335.59	5
0.244	335.64	5
0.303	335.77	5
0.365	335.94	5
0.419	336.17	5
0.487	336.39	5
0.531	336.61	5
0.61	337.05	5
0.672	337.53	5
0.734	338.29	5
0.801	339.65	5.01
0.865	341.59	5.01
0.913	343.71	5.03
0.952	346.22	5.05
0.983	348.74	5.07
1	350.35	5

System: methanol + ethyl acetate; phases: Gas, Liquid
Fixed: Pressure, kPa = 101.3
Property: Mole fraction of ethyl acetate (Gas); method: Chromatography
Mole fraction of ethyl acetate	Mole fraction of ethyl acetate	uncertainty
0	0	
0.03	0.058	0.019
0.072	0.114	0.016
0.145	0.195	0.014
0.211	0.246	0.012
0.244	0.265	0.013
0.303	0.311	0.012
0.365	0.332	0.011
0.419	0.361	0.012
0.487	0.391	0.011
0.531	0.41	0.012
0.61	0.447	0.012
0.672	0.483	0.013
0.734	0.522	0.013
0.801	0.58	0.015
0.865	0.653	0.017
0.913	0.734	0.022
0.952	0.826	0.03
0.983	0.932	0.037
1	1	

System: methanol + ethyl acetate + 1-ethyl-3-methylimidazolium diethyl phosphate; phases: Liquid, Gas
Fixed: Pressure, kPa = 101.3
Property: Boiling temperature at pressure P, K (Liquid); method: Ebulliometric method (Recirculating still)
Mole fraction of 1-ethyl-3-methylimidazolium diethyl phosphate	Solvent: Mole fraction of ethyl acetate	Boiling temperature at pressure P, K	uncertainty
0.031	0	341.6	5.09
0.029	0.043	339.68	5.11
0.029	0.084	338.41	5.14
0.032	0.126	337.31	5.15
0.03	0.178	337.51	5.14
0.031	0.236	338.11	5.14
0.029	0.303	338.61	5.02
0.028	0.357	338.88	5.01
0.031	0.415	339.62	5.12
0.03	0.477	340.07	5.1
0.032	0.548	341.02	5.08
0.029	0.61	341.85	5.07
0.029	0.672	342.53	5.08
0.031	0.741	343.89	5.07
0.03	0.789	344.77	5.05
0.033	0.82	345.34	5.06
0.032	0.861	346.2	5.06
0.031	0.909	347.46	5.03
0.03	0.947	349.37	5.04
0.031	1	351.3	5
0.05	0	346	5.02
0.051	0.05	345	5.02
0.049	0.094	344.5	5.02
0.052	0.15	343.9	5.02
0.05	0.211	343.6	5.02
0.051	0.289	343.4	5.01
0.049	0.336	343.6	5.02
0.05	0.389	344.19	5.01
0.048	0.44	344.66	5.01
0.05	0.489	345.1	5.01
0.051	0.539	345.51	5.01
0.051	0.585	345.9	5.02
0.052	0.633	346.47	5.02
0.049	0.682	347	5.01
0.049	0.743	347.79	5.01
0.051	0.801	348.56	5.01
0.05	0.851	349.33	5.01
0.052	0.902	350.2	5.01
0.048	0.947	350.92	5.01
0.049	1	351.8	5
0.1	0	348.6	5.01
0.101	0.035	347.99	5.01
0.101	0.078	347.56	5.01
0.102	0.124	347.04	5.01
0.099	0.168	346.72	5.01
0.098	0.213	346.45	5.01
0.099	0.288	345.76	5.01
0.01	0.338	345.81	5.25
0.101	0.388	346.07	5
0.103	0.421	346.35	5
0.1	0.463	346.83	5.01
0.1	0.527	347.36	5.01
0.098	0.598	347.99	5
0.099	0.658	348.35	5
0.1	0.716	348.95	5.01
0.099	0.77	349.73	5.01
0.102	0.82	350.43	5.01
0.1	0.874	351.28	5.01
0.098	0.938	352.19	5.01
0.1	1	352.9	5

System: methanol + ethyl acetate + 1-ethyl-3-methylimidazolium diethyl phosphate; phases: Gas, Liquid
Fixed: Pressure, kPa = 101.3
Property: Mole fraction of ethyl acetate (Gas); method: Chromatography
Mole fraction of 1-ethyl-3-methylimidazolium diethyl phosphate	Solvent: Mole fraction of ethyl acetate	Mole fraction of ethyl acetate	uncertainty
0.031	0	0	
0.029	0.043	0.108	0.023
0.029	0.084	0.167	0.017
0.032	0.126	0.209	0.022
0.03	0.178	0.282	0.02
0.031	0.236	0.352	0.018
0.029	0.303	0.385	0.017
0.028	0.357	0.424	0.012
0.031	0.415	0.481	0.026
0.03	0.477	0.536	0.025
0.032	0.548	0.578	0.024
0.029	0.61	0.609	0.024
0.029	0.672	0.639	0.027
0.031	0.741	0.698	0.026
0.03	0.789	0.743	0.023
0.033	0.82	0.762	0.024
0.032	0.861	0.807	0.025
0.031	0.909	0.843	0.02
0.03	0.947	0.916	0.023
0.031	1	1	
0.05	0	0	
0.051	0.05	0.125	0.024
0.049	0.094	0.202	0.019
0.052	0.15	0.279	0.019
0.05	0.211	0.373	0.017
0.051	0.289	0.437	0.018
0.049	0.336	0.53	0.02
0.05	0.389	0.572	0.013
0.048	0.44	0.6	0.015
0.05	0.489	0.642	0.016
0.051	0.539	0.678	0.014
0.051	0.585	0.709	0.015
0.052	0.633	0.737	0.015
0.049	0.682	0.769	0.014
0.049	0.743	0.807	0.013
0.051	0.801	0.845	0.013
0.05	0.851	0.882	0.012
0.052	0.902	0.919	0.012
0.048	0.947	0.958	0.013
0.049	1	1	
0.1	0	0	
0.101	0.035	0.125	0.028
0.101	0.078	0.202	0.02
0.102	0.124	0.279	0.02
0.099	0.168	0.373	0.021
0.098	0.213	0.437	0.018
0.099	0.288	0.53	0.016
0.01	0.338	0.572	0.038
0.101	0.388	0.6	0.014
0.103	0.421	0.642	0.017
0.1	0.463	0.673	0.014
0.1	0.527	0.723	0.013
0.098	0.598	0.756	0.012
0.099	0.658	0.785	0.013
0.1	0.716	0.832	0.012
0.099	0.77	0.851	0.012
0.102	0.82	0.882	0.012
0.1	0.874	0.915	0.012
0.098	0.938	0.955	0.012
0.1	1	1	

System: methanol + ethyl acetate + 1-butyl-3-methylimidazolium dibutyl phosphate; phases: Liquid, Gas
Fixed: Pressure, kPa = 100
Property: Boiling temperature at pressure P, K (Liquid); method: Ebulliometric method (Recirculating still)
Mole fraction of 1-butyl-3-methylimidazolium dibutyl phosphate	Solvent: Mole fraction of ethyl acetate	Boiling temperature at pressure P, K	uncertainty
0.05	0	340.35	5.01
0.051	0.062	338.98	5.01
0.049	0.11	338.34	5.01
0.052	0.166	337.92	5.01
0.05	0.205	337.65	5.02
0.051	0.246	337.65	5.02
0.049	0.283	337.54	5
0.05	0.351	337.65	5
0.048	0.406	337.92	5.03
0.05	0.46	338.61	5.03
0.051	0.517	338.9	5.03
0.052	0.572	339.61	5.03
0.049	0.637	340.84	5.03
0.048	0.698	341.95	5.03
0.051	0.76	343.33	5.04
0.049	0.809	344.42	5.02
0.049	0.802	345.61	5.02
0.051	0.9	347.04	5.02
0.05	0.95	348.9	5.02
0.052	1	351.1	5
0.1	0	344.6	5.01
0.101	0.046	342.92	5.02
0.101	0.08	342.16	5.01
0.102	0.122	341.88	5.01
0.099	0.155	341.92	5.01
0.098	0.204	342.45	5.01
0.099	0.265	343.01	5.01
0.01	0.315	343.39	5.03
0.101	0.385	344.25	5.01
0.102	0.456	345.01	5.01
0.1	0.54	345.77	5.01
0.1	0.607	346.53	5.01
0.098	0.646	347.1	5.02
0.099	0.691	347.63	5.01
0.101	0.745	348.09	5.01
0.099	0.799	348.62	5.01
0.102	0.847	349.33	5.01
0.1	0.9	349.99	5.01
0.098	0.95	350.52	5.01
0.1	1	351.3	5
0.151	0	348.41	5.01
0.152	0.035	347.21	5.02
0.15	0.07	346	5.02
0.151	0.116	345	5.01
0.149	0.155	344.5	5.01
0.149	0.211	343.99	5
0.148	0.265	343.84	5
0.15	0.321	344.34	5
0.151	0.371	344.9	5
0.149	0.438	345.65	5
0.151	0.502	346.26	5
0.148	0.552	346.75	5
0.149	0.607	347.41	5
0.151	0.668	348.22	5
0.152	0.718	348.76	5
0.15	0.77	349.27	5
0.15	0.828	350.03	5
0.152	0.884	350.78	5.01
0.149	0.938	351.73	5.01
0.15	1	352.8	5

System: methanol + ethyl acetate + 1-butyl-3-methylimidazolium dibutyl phosphate; phases: Gas, Liquid
Fixed: Pressure, kPa = 101.3
Property: Mole fraction of ethyl acetate (Gas); method: Chromatography
Mole fraction of 1-butyl-3-methylimidazolium dibutyl phosphate	Solvent: Mole fraction of ethyl acetate	Mole fraction of ethyl acetate	uncertainty
0.05	0	0	
0.051	0.062	0.137	0.022
0.049	0.11	0.21	0.017
0.052	0.166	0.279	0.014
0.05	0.205	0.313	0.014
0.051	0.246	0.341	0.014
0.049	0.283	0.371	0.013
0.05	0.351	0.416	0.013
0.048	0.406	0.458	0.016
0.05	0.46	0.5	0.016
0.051	0.517	0.528	0.017
0.052	0.572	0.558	0.018
0.049	0.637	0.597	0.018
0.048	0.698	0.645	0.019
0.051	0.76	0.701	0.026
0.049	0.809	0.757	0.017
0.049	0.802	0.799	0.016
0.051	0.9	0.857	0.016
0.05	0.95	0.924	0.018
0.052	1	1	
0.1	0	0	
0.101	0.046	0.12	0.027
0.101	0.08	0.193	0.019
0.102	0.122	0.249	0.017
0.099	0.155	0.313	0.018
0.098	0.204	0.363	0.015
0.099	0.265	0.43	0.016
0.01	0.315	0.486	0.016
0.101	0.385	0.556	0.016
0.102	0.456	0.618	0.015
0.1	0.54	0.681	0.014
0.1	0.607	0.726	0.015
0.098	0.646	0.744	0.016
0.099	0.691	0.773	0.015
0.101	0.745	0.815	0.013
0.099	0.799	0.849	0.013
0.102	0.847	0.877	0.012
0.1	0.9	0.919	0.013
0.098	0.95	0.955	0.013
0.1	1	1	
0.151	0	0	
0.152	0.035	0.115	0.03
0.15	0.07	0.196	0.02
0.151	0.116	0.256	0.019
0.149	0.155	0.329	0.019
0.149	0.211	0.405	0.017
0.148	0.265	0.472	0.017
0.15	0.321	0.539	0.016
0.151	0.371	0.592	0.015
0.149	0.438	0.648	0.014
0.151	0.502	0.692	0.013
0.148	0.552	0.72	0.013
0.149	0.607	0.756	0.012
0.151	0.668	0.796	0.012
0.152	0.718	0.826	0.012
0.15	0.77	0.854	0.012
0.15	0.828	0.888	0.012
0.152	0.884	0.933	0.012
0.149	0.938	0.97	0.011
0.15	1	1	

System: methanol + 1-ethyl-3-methylimidazolium diethyl phosphate; phases: Liquid, Gas
Fixed: Pressure, kPa = 101.3
Property: Boiling temperature at pressure P, K (Liquid); method: Ebulliometric method (Recirculating still)
Mole fraction of 1-ethyl-3-methylimidazolium diethyl phosphate	Boiling temperature at pressure P, K	uncertainty
0.031	341.6	5.51
0.05	346	5.08
0.1	348.6	5.03

System: methanol + 1-butyl-3-methylimidazolium dibutyl phosphate; phases: Liquid, Gas
Fixed: Pressure, kPa = 100
Property: Boiling temperature at pressure P, K (Liquid); method: Ebulliometric method (Recirculating still)
Mole fraction of 1-butyl-3-methylimidazolium dibutyl phosphate	Boiling temperature at pressure P, K	uncertainty
0.05	340.35	5.07
0.1	344.6	5.07
0.151	348.41	5.06

System: ethyl acetate + 1-butyl-3-methylimidazolium dibutyl phosphate; phases: Liquid, Gas
Fixed: Pressure, kPa = 100
Property: Boiling temperature at pressure P, K (Liquid); method: Ebulliometric method (Recirculating still)
Mole fraction of 1-butyl-3-methylimidazolium dibutyl phosphate	Boiling temperature at pressure P, K	uncertainty
0.052	351.1	5
0.1	351.3	5.01
0.15	352.8	5.01

System: ethyl acetate + 1-ethyl-3-methylimidazolium diethyl phosphate; phases: Liquid, Gas
Fixed: Pressure, kPa = 101.3
Property: Boiling temperature at pressure P, K (Liquid); method: Ebulliometric method (Recirculating still)
Mole fraction of 1-ethyl-3-methylimidazolium diethyl phosphate	Boiling temperature at pressure P, K	uncertainty
0.031	351.3	5.01
0.049	351.8	5.01
0.1	352.9	5.01
