Measured thermophysical data. Refractive Indices and Molar Refractivities of Molten Rare-Earth Trichlorides and Their Mixtures with Alkali Chlorides
Source: J. Chem. Eng. Data, 2017, 10.1021/acs.jced.6b00362
Compound 1: sodium chloride, ClNa, InChI=1S/ClH.Na/h1H;/q;+1/p-1, purity 99.9%
Compound 2: potassium chloride, ClK, InChI=1S/ClH.K/h1H;/q;+1/p-1, purity 99.8%
Compound 3: cesium chloride, ClCs, InChI=1S/ClH.Cs/h1H;/q;+1/p-1, purity 99.5%
Compound 4: cerium trichloride, CeCl3, InChI=1S/Ce.3ClH/h;3*1H/q+3;;;/p-3, purity 99.99%
Compound 5: neodymium(III) chloride, Cl3Nd, InChI=1S/3ClH.Nd/h3*1H;/q;;;+3/p-3, purity 99.99%
Compound 6: samarium chloride, Cl3Sm, InChI=1S/3ClH.Sm/h3*1H;/q;;;+3/p-3, purity 99.99%
Compound 7: gadolinium(III) chloride, Cl3Gd, InChI=1S/3ClH.Gd/h3*1H;/q;;;+3/p-3, purity 99.99%

System: sodium chloride; phases: Liquid
Fixed: Pressure, kPa = 101
Fixed: Wavelength, nm = 632.8
Property: Refractive index (other wavelength) (Liquid); method: ellipsometry
Temperature, K	Refractive index (other wavelength)	uncertainty
1083	1.41	0.02
1093	1.408	0.02
1103	1.407	0.02
1113	1.406	0.02
1123	1.405	0.02
1133	1.404	0.02
1153	1.402	0.02
1173	1.399	0.02

System: potassium chloride; phases: Liquid
Fixed: Pressure, kPa = 101
Fixed: Wavelength, nm = 632.8
Property: Refractive index (other wavelength) (Liquid); method: ellipsometry
Temperature, K	Refractive index (other wavelength)	uncertainty
1073	1.393	0.001
1093	1.39	0.001
1103	1.388	0.001
1113	1.386	0.001
1123	1.385	0.001
1133	1.383	0.001
1153	1.38	0.001
1173	1.377	0.001
1193	1.374	0.001

System: cesium chloride; phases: Liquid
Fixed: Pressure, kPa = 101
Fixed: Wavelength, nm = 632.8
Property: Refractive index (other wavelength) (Liquid); method: ellipsometry
Temperature, K	Refractive index (other wavelength)	uncertainty
1023	1.439	0.001
1033	1.438	0.001
1053	1.434	0.001
1073	1.43	0.001
1093	1.426	0.001
1113	1.423	0.001
1133	1.419	0.001
1153	1.415	0.001
1173	1.411	0.001

System: cerium trichloride; phases: Crystal, Liquid, Air at 1 atmosphere
Property: Normal melting temperature, K (Crystal); method: DTA
Normal melting temperature, K	uncertainty
1095	4

System: cerium trichloride; phases: Liquid
Fixed: Pressure, kPa = 101
Fixed: Wavelength, nm = 632.8
Property: Refractive index (other wavelength) (Liquid); method: ellipsometry
Temperature, K	Refractive index (other wavelength)	uncertainty
1103	1.697	0.001
1133	1.691	0.001
1153	1.688	0.001
1173	1.685	0.001
1193	1.681	0.001
1213	1.678	0.001
1233	1.674	0.001

System: neodymium(III) chloride; phases: Crystal, Liquid, Air at 1 atmosphere
Property: Normal melting temperature, K (Crystal); method: DTA
Normal melting temperature, K	uncertainty
1033	4

System: neodymium(III) chloride; phases: Liquid
Fixed: Pressure, kPa = 101
Fixed: Wavelength, nm = 632.8
Property: Refractive index (other wavelength) (Liquid); method: ellipsometry
Temperature, K	Refractive index (other wavelength)	uncertainty
1053	1.704	0.001
1073	1.701	0.001
1093	1.698	0.001
1113	1.695	0.001
1133	1.692	0.001
1153	1.689	0.001
1173	1.686	0.001
1193	1.683	0.001
1213	1.68	0.001

System: samarium chloride; phases: Crystal, Liquid, Air at 1 atmosphere
Property: Normal melting temperature, K (Crystal); method: DTA
Normal melting temperature, K	uncertainty
951	4

System: samarium chloride; phases: Liquid
Fixed: Pressure, kPa = 101
Fixed: Wavelength, nm = 632.8
Property: Refractive index (other wavelength) (Liquid); method: ellipsometry
Temperature, K	Refractive index (other wavelength)	uncertainty
973	1.712	0.001
1003	1.705	0.001
1023	1.701	0.001
1073	1.691	0.001
1103	1.684	0.001
1123	1.68	0.001
1153	1.674	0.001
1173	1.672	0.001

System: gadolinium(III) chloride; phases: Crystal, Liquid, Air at 1 atmosphere
Property: Normal melting temperature, K (Crystal); method: DTA
Normal melting temperature, K	uncertainty
875	4

System: gadolinium(III) chloride; phases: Liquid
Fixed: Pressure, kPa = 101.325
Property: Refractive index (Na D-line) (Liquid); method: ellipsometry
Temperature, K	Refractive index (Na D-line)	uncertainty
923	1.7	0.002
973	1.685	0.001
1023	1.68	0.001
1073	1.675	0.001
1123	1.664	0.001
1173	1.662	0.001

System: gadolinium(III) chloride; phases: Liquid
Fixed: Pressure, kPa = 101
Fixed: Wavelength, nm = 632.8
Property: Refractive index (other wavelength) (Liquid); method: ellipsometry
Temperature, K	Refractive index (other wavelength)	uncertainty
923	1.7	0.002
973	1.685	0.001
1023	1.68	0.001
1073	1.675	0.001
1123	1.664	0.001
1173	1.662	0.001

System: potassium chloride + sodium chloride; phases: Liquid
Fixed: Mole fraction of sodium chloride = 0.5
Fixed: Pressure, kPa = 101
Fixed: Wavelength, nm = 632.8
Property: Refractive index (other wavelength) (Liquid); method: ellipsometry
Temperature, K	Refractive index (other wavelength)	uncertainty
953	1.42	0.001
973	1.417	0.001
993	1.414	0.001
1013	1.411	0.001
1033	1.408	0.001
1053	1.405	0.001
1073	1.402	0.001
1093	1.399	0.001
1103	1.397	0.001
1113	1.396	0.001
1123	1.394	0.001
1133	1.393	0.001
1153	1.39	0.001
1173	1.387	0.001

System: sodium chloride + cerium trichloride; phases: Liquid
Fixed: Pressure, kPa = 101
Fixed: Wavelength, nm = 632.8
Property: Refractive index (other wavelength) (Liquid); method: ellipsometry
Temperature, K	Mole fraction of cerium trichloride	Refractive index (other wavelength)	uncertainty
1073	0.25	1.515	0.002
1103	0.25	1.51	0.002
1123	0.25	1.507	0.002
1153	0.25	1.502	0.002
1173	0.25	1.5	0.003
1073	0.5	1.595	0.002
1103	0.5	1.59	0.002
1123	0.5	1.587	0.002
1153	0.5	1.582	0.002
1173	0.5	1.58	0.002
1193	0.5	1.578	0.002
1073	0.75	1.656	0.002
1103	0.75	1.651	0.002
1123	0.75	1.647	0.002
1153	0.75	1.642	0.002
1173	0.75	1.639	0.002
1193	0.75	1.636	0.002
1223	0.75	1.631	0.002
1083	0	1.41	0.002
1093	0	1.408	0.002
1103	0	1.407	0.002
1113	0	1.406	0.002
1123	0	1.405	0.002
1133	0	1.404	0.002
1153	0	1.402	0.002
1173	0	1.399	0.002
1103	1	1.697	0.002
1133	1	1.691	0.002
1153	1	1.688	0.002
1173	1	1.685	0.002
1193	1	1.681	0.002
1213	1	1.678	0.002
1233	1	1.674	0.002

System: potassium chloride + sodium chloride + cerium trichloride; phases: Liquid
Fixed: Solvent: Mole fraction of sodium chloride = 0.5
Fixed: Pressure, kPa = 100
Fixed: Wavelength, nm = 632.8
Property: Refractive index (other wavelength) (Liquid); method: ellipsometry
Temperature, K	Mole fraction of cerium trichloride	Refractive index (other wavelength)	uncertainty
1043	0.25	1.502	0.001
1073	0.25	1.497	0.001
1103	0.25	1.492	0.001
1123	0.25	1.489	0.001
1153	0.25	1.484	0.001
1173	0.25	1.481	0.001
1073	0.5	1.586	0.001
1103	0.5	1.581	0.001
1123	0.5	1.578	0.001
1153	0.5	1.573	0.001
1173	0.5	1.57	0.001
1193	0.5	1.567	0.001
1073	0.75	1.644	0.001
1103	0.75	1.639	0.001
1123	0.75	1.636	0.001
1153	0.75	1.631	0.001
1173	0.75	1.627	0.001
1193	0.75	1.623	0.001
1223	0.75	1.618	0.001

System: potassium chloride + cerium trichloride; phases: Liquid
Fixed: Pressure, kPa = 100
Fixed: Wavelength, nm = 632.8
Property: Refractive index (other wavelength) (Liquid); method: ellipsometry
Temperature, K	Mole fraction of cerium trichloride	Refractive index (other wavelength)	uncertainty
1073	0.25	1.478	0.001
1103	0.25	1.475	0.001
1123	0.25	1.471	0.001
1153	0.25	1.466	0.001
1173	0.25	1.463	0.001
1193	0.25	1.46	0.002
1073	0.5	1.56	0.002
1103	0.5	1.554	0.001
1123	0.5	1.552	0.001
1153	0.5	1.548	0.001
1173	0.5	1.544	0.001
1203	0.5	1.54	0.001
1073	0.75	1.591	0.001
1103	0.75	1.586	0.001
1123	0.75	1.583	0.001
1153	0.75	1.582	0.001
1173	0.75	1.575	0.004
1073	0	1.393	0.001
1093	0	1.39	0.001
1103	0	1.388	0.001
1113	0	1.386	0.001
1123	0	1.385	0.001
1133	0	1.383	0.001
1153	0	1.38	0.001
1173	0	1.377	0.001
1193	0	1.374	0.001
1103	1	1.697	0.001
1133	1	1.691	0.001
1153	1	1.688	0.001
1173	1	1.685	0.001
1193	1	1.681	0.001
1213	1	1.678	0.001
1233	1	1.674	0.001

System: cesium chloride + cerium trichloride; phases: Liquid
Fixed: Pressure, kPa = 100
Fixed: Wavelength, nm = 632.8
Property: Refractive index (other wavelength) (Liquid); method: ellipsometry
Temperature, K	Mole fraction of cerium trichloride	Refractive index (other wavelength)	uncertainty
1073	0.25	1.495	0.001
1103	0.25	1.49	0.001
1123	0.25	1.487	0.001
1153	0.25	1.482	0.001
1173	0.25	1.479	0.002
1073	0.5	1.553	0.002
1103	0.5	1.549	0.001
1123	0.5	1.545	0.001
1153	0.5	1.54	0.001
1173	0.5	1.537	0.001
1203	0.5	1.532	0.001
1213	0.5	1.53	0.001
1073	0.75	1.627	0.001
1103	0.75	1.623	0.001
1123	0.75	1.619	0.001
1153	0.75	1.614	0.001
1173	0.75	1.61	0.001
1223	0.75	1.601	0.001
1023	0	1.439	0.001
1033	0	1.438	0.001
1053	0	1.434	0.001
1073	0	1.43	0.001
1093	0	1.426	0.001
1113	0	1.423	0.001
1133	0	1.419	0.001
1153	0	1.415	0.001
1173	0	1.411	0.001
1103	1	1.697	0.001
1133	1	1.691	0.001
1153	1	1.688	0.001
1173	1	1.685	0.001
1193	1	1.681	0.001
1213	1	1.678	0.001
1233	1	1.674	0.001

System: sodium chloride + samarium chloride; phases: Liquid
Fixed: Pressure, kPa = 100
Fixed: Wavelength, nm = 632.8
Property: Refractive index (other wavelength) (Liquid); method: ellipsometry
Temperature, K	Mole fraction of samarium chloride	Refractive index (other wavelength)	uncertainty
973	0.25	1.536	0.001
1003	0.25	1.53	0.001
1023	0.25	1.526	0.001
1073	0.25	1.518	0.001
1103	0.25	1.513	0.001
1123	0.25	1.51	0.001
1173	0.25	1.503	0.001
1193	0.25	1.499	0.004
973	0.5	1.613	0.001
1003	0.5	1.609	0.002
1023	0.5	1.602	0.002
1073	0.5	1.583	0.002
1103	0.5	1.582	0.001
1123	0.5	1.58	0.001
1173	0.5	1.569	0.002
973	0.75	1.672	0.001
1003	0.75	1.665	0.001
1023	0.75	1.662	0.001
1073	0.75	1.653	0.001
1103	0.75	1.648	0.002
1123	0.75	1.64	0.001
1173	0.75	1.629	0.002
1083	0	1.41	0.001
1093	0	1.408	0.001
1103	0	1.407	0.001
1113	0	1.406	0.001
1123	0	1.405	0.001
1133	0	1.404	0.001
1153	0	1.402	0.001
1173	0	1.399	0.001
973	1	1.712	0.001
1003	1	1.705	0.001
1023	1	1.701	0.001
1073	1	1.691	0.001
1103	1	1.684	0.001
1123	1	1.68	0.001
1153	1	1.674	0.001
1173	1	1.672	0.001

System: potassium chloride + samarium chloride; phases: Liquid
Fixed: Pressure, kPa = 100
Fixed: Wavelength, nm = 632.8
Property: Refractive index (other wavelength) (Liquid); method: ellipsometry
Temperature, K	Mole fraction of samarium chloride	Refractive index (other wavelength)	uncertainty
1073	0.25	1.478	0.001
1103	0.25	1.47	0.002
1123	0.25	1.466	0.001
1173	0.25	1.458	0.001
1203	0.25	1.45	0.002
973	0.5	1.588	0.001
1003	0.5	1.582	0.001
1023	0.5	1.577	0.002
1073	0.5	1.56	0.002
1103	0.5	1.551	0.002
1123	0.5	1.54	0.002
1173	0.5	1.525	0.002
1203	0.5	1.52	0.001
973	0.75	1.66	0.001
1003	0.75	1.652	0.001
1023	0.75	1.651	0.002
1073	0.75	1.63	0.002
1103	0.75	1.623	0.002
1123	0.75	1.618	0.001
1173	0.75	1.605	0.001
1203	0.75	1.601	0.001
1073	0	1.393	0.001
1093	0	1.39	0.001
1103	0	1.388	0.001
1113	0	1.386	0.001
1123	0	1.385	0.001
1133	0	1.383	0.001
1153	0	1.38	0.001
1173	0	1.377	0.001
1193	0	1.374	0.001
973	1	1.712	0.001
1003	1	1.705	0.001
1023	1	1.701	0.001
1073	1	1.691	0.001
1103	1	1.684	0.001
1123	1	1.68	0.001
1153	1	1.674	0.001
1173	1	1.672	0.001

System: cesium chloride + samarium chloride; phases: Liquid
Fixed: Pressure, kPa = 100
Fixed: Wavelength, nm = 6328
Property: Refractive index (other wavelength) (Liquid); method: ellipsometry
Temperature, K	Mole fraction of samarium chloride	Refractive index (other wavelength)	uncertainty
1023	0.15	1.468	0.001
1073	0.15	1.464	0.001
1103	0.15	1.458	0.002
1123	0.15	1.448	0.002
1173	0.15	1.44	0.01
973	0.5	1.564	0.001
1003	0.5	1.558	0.001
1023	0.5	1.557	0.001
1073	0.5	1.55	0.01
1103	0.5	1.543	0.001
1123	0.5	1.54	0.01
1173	0.5	1.527	0.001
1203	0.5	1.523	0.001
973	0.75	1.675	0.003
1003	0.75	1.668	0.002
1023	0.75	1.662	0.001
1073	0.75	1.654	0.001
1103	0.75	1.651	0.002
1123	0.75	1.642	0.001
1173	0.75	1.64	0.01
1203	0.75	1.635	0.001
1023	0	1.439	0.001
1033	0	1.438	0.001
1053	0	1.434	0.001
1073	0	1.43	0.01
1093	0	1.426	0.001
1113	0	1.423	0.001
1133	0	1.419	0.001
1153	0	1.415	0.001
1173	0	1.411	0.001
973	1	1.712	0.001
1003	1	1.705	0.001
1023	1	1.701	0.001
1073	1	1.691	0.001
1103	1	1.684	0.001
1123	1	1.68	0.01
1153	1	1.674	0.001
1173	1	1.672	0.001

System: sodium chloride + gadolinium(III) chloride; phases: Liquid
Fixed: Pressure, kPa = 100
Fixed: Wavelength, nm = 632.8
Property: Refractive index (other wavelength) (Liquid); method: ellipsometry
Temperature, K	Mole fraction of gadolinium(III) chloride	Refractive index (other wavelength)	uncertainty
923	0.25	1.525	0.001
973	0.25	1.518	0.001
1023	0.25	1.512	0.001
1073	0.25	1.505	0.001
1123	0.25	1.496	0.001
1173	0.25	1.488	0.002
923	0.5	1.586	0.001
973	0.5	1.58	0.001
1023	0.5	1.57	0.001
1073	0.5	1.562	0.001
1123	0.5	1.55	0.001
1173	0.5	1.544	0.001
923	0.75	1.643	0.001
973	0.75	1.64	0.001
1023	0.75	1.638	0.001
1073	0.75	1.627	0.001
1123	0.75	1.62	0.001
1173	0.75	1.616	0.002
1083	0	1.41	0.001
1093	0	1.408	0.001
1103	0	1.407	0.001
1113	0	1.406	0.001
1123	0	1.405	0.001
1133	0	1.404	0.001
1153	0	1.402	0.001
1173	0	1.399	0.001
923	1	1.7	0.002
973	1	1.685	0.001
1023	1	1.68	0.001
1073	1	1.675	0.001
1123	1	1.664	0.001
1173	1	1.662	0.001

System: potassium chloride + gadolinium(III) chloride; phases: Liquid
Fixed: Pressure, kPa = 100
Fixed: Wavelength, nm = 632.8
Property: Refractive index (other wavelength) (Liquid); method: ellipsometry
Temperature, K	Mole fraction of gadolinium(III) chloride	Refractive index (other wavelength)	uncertainty
1023	0.25	1.48	0.001
1073	0.25	1.473	0.001
1123	0.25	1.465	0.001
1173	0.25	1.457	0.001
923	0.5	1.557	0.001
973	0.5	1.551	0.001
1023	0.5	1.546	0.001
1073	0.5	1.54	0.001
1123	0.5	1.534	0.001
1173	0.5	1.529	0.001
923	0.75	1.665	0.001
973	0.75	1.65	0.002
1023	0.75	1.635	0.002
1073	0.75	1.62	0.002
1123	0.75	1.606	0.002
1173	0.75	1.591	0.001
1073	0	1.393	0.001
1093	0	1.39	0.001
1103	0	1.388	0.001
1113	0	1.386	0.001
1123	0	1.385	0.001
1133	0	1.383	0.001
1153	0	1.38	0.001
1173	0	1.377	0.001
1193	0	1.374	0.001
923	1	1.7	0.002
973	1	1.685	0.001
1023	1	1.68	0.001
1073	1	1.675	0.001
1123	1	1.664	0.001
1173	1	1.662	0.001

System: cesium chloride + gadolinium(III) chloride; phases: Liquid
Fixed: Pressure, kPa = 100
Fixed: Wavelength, nm = 632.8
Property: Refractive index (other wavelength) (Liquid); method: ellipsometry
Temperature, K	Mole fraction of gadolinium(III) chloride	Refractive index (other wavelength)	uncertainty
1073	0.15	1.46	0.002
1103	0.15	1.453	0.002
1123	0.15	1.448	0.002
1173	0.15	1.437	0.001
923	0.5	1.568	0.001
973	0.5	1.56	0.001
1023	0.5	1.552	0.001
1073	0.5	1.543	0.001
1103	0.5	1.538	0.001
1123	0.5	1.535	0.001
1173	0.5	1.526	0.001
923	0.75	1.629	0.001
973	0.75	1.621	0.001
1023	0.75	1.613	0.001
1073	0.75	1.606	0.001
1103	0.75	1.603	0.001
1123	0.75	1.601	0.001
1173	0.75	1.594	0.001
1023	0	1.439	0.001
1033	0	1.438	0.001
1053	0	1.434	0.001
1073	0	1.43	0.001
1093	0	1.426	0.001
1113	0	1.423	0.001
1133	0	1.419	0.001
1153	0	1.415	0.001
1173	0	1.411	0.001
923	1	1.7	0.002
973	1	1.685	0.001
1023	1	1.68	0.001
1073	1	1.675	0.001
1123	1	1.664	0.001
1173	1	1.662	0.001
