Measured thermophysical data. Experimental Vapor-Liquid Equilibria and Thermodynamic Modeling of the Methanol + n-Heptane and 1-Butanol + Aniline Binary Systems
Source: J. Chem. Eng. Data, 2018, 10.1021/acs.jced.7b00766
Compound 1: heptane, C7H16, InChI=1S/C7H16/c1-3-5-7-6-4-2/h3-7H2,1-2H3
Compound 2: butan-1-ol, C4H10O, InChI=1S/C4H10O/c1-2-3-4-5/h5H,2-4H2,1H3
Compound 3: aniline, C6H7N, InChI=1S/C6H7N/c7-6-4-2-1-3-5-6/h1-5H,7H2
Compound 4: methanol, CH4O, InChI=1S/CH4O/c1-2/h2H,1H3

System: heptane; phases: Liquid, Gas
Property: Vapor or sublimation pressure, kPa (Liquid); method: Ebulliometric method (Recirculating still)
Temperature, K	Vapor or sublimation pressure, kPa	uncertainty
365.65	85	1

System: butan-1-ol; phases: Liquid, Gas
Property: Vapor or sublimation pressure, kPa (Liquid); method: Ebulliometric method (Recirculating still)
Temperature, K	Vapor or sublimation pressure, kPa	uncertainty
385.75	85	1

System: aniline; phases: Liquid, Gas
Property: Vapor or sublimation pressure, kPa (Liquid); method: Ebulliometric method (Recirculating still)
Temperature, K	Vapor or sublimation pressure, kPa	uncertainty
450.25	85	1

System: methanol; phases: Liquid, Gas
Property: Vapor or sublimation pressure, kPa (Liquid); method: Ebulliometric method (Recirculating still)
Temperature, K	Vapor or sublimation pressure, kPa	uncertainty
333.15	85	1

System: methanol + heptane; phases: Liquid, Gas
Fixed: Pressure, kPa = 85
Property: Boiling temperature at pressure P, K (Liquid); method: Ebulliometric method (Recirculating still)
Mole fraction of methanol	Boiling temperature at pressure P, K	uncertainty
0	365.65	0.51
0.247	331.55	0.51
0.349	330.85	0.51
0.399	329.95	0.51
0.501	329.65	0.51
0.574	329.55	0.51
0.629	329.25	0.51
0.672	329.25	0.51
0.707	328.95	0.51
0.735	328.25	0.51
0.749	327.55	0.51
0.758	328.45	0.51
0.774	327.45	0.51
0.778	327.45	0.51
0.802	327.35	0.51
0.83	327.45	0.51
0.861	327.55	0.51
0.894	327.65	0.51
0.911	327.75	0.51
0.929	327.85	0.51
0.958	328.65	0.51
1	333.15	0.51

System: methanol + heptane; phases: Gas, Liquid
Fixed: Pressure, kPa = 85
Property: Mole fraction of methanol (Gas); method: Chromatography
Mole fraction of methanol	Mole fraction of methanol	uncertainty
0	0	
0.247	0.737	0.075
0.349	0.738	0.03
0.399	0.74	0.03
0.501	0.743	0.03
0.574	0.747	0.03
0.629	0.749	0.03
0.672	0.75	0.03
0.707	0.767	0.031
0.735	0.775	0.031
0.749	0.775	0.031
0.758	0.775	0.031
0.774	0.777	0.03
0.778	0.779	0.03
0.802	0.781	0.03
0.83	0.783	0.03
0.861	0.786	0.031
0.894	0.795	0.032
0.911	0.8	0.049
0.929	0.818	0.055
0.958	0.824	0.033
1	1	

System: butan-1-ol + aniline; phases: Liquid, Gas
Fixed: Pressure, kPa = 85
Property: Boiling temperature at pressure P, K (Liquid); method: Ebulliometric method (Recirculating still)
Mole fraction of butan-1-ol	Boiling temperature at pressure P, K	uncertainty
0	450.25	0.51
0.01	447.25	2.22
0.022	444.65	4.77
0.043	439.85	4.66
0.052	437.75	4.45
0.087	430.65	5.01
0.153	422.85	3.45
0.216	416	2.68
0.288	410.95	1.82
0.342	407.85	1.86
0.415	404.25	1.51
0.461	402	1.39
0.508	399.95	1.32
0.594	397	1.1
0.649	395	1.11
0.731	392.65	0.96
0.785	390.95	0.96
0.883	388.65	0.88
0.982	386.25	0.67
0.991	386	0.55
1	385.75	0.51

System: butan-1-ol + aniline; phases: Gas, Liquid
Fixed: Pressure, kPa = 85
Property: Mole fraction of butan-1-ol (Gas); method: Chromatography
Mole fraction of butan-1-ol	Mole fraction of butan-1-ol	uncertainty
0	0	
0.01	0.087	0.059
0.022	0.161	0.112
0.043	0.281	0.096
0.052	0.33	0.09
0.087	0.479	0.109
0.153	0.617	0.063
0.216	0.715	0.047
0.288	0.779	0.036
0.342	0.814	0.037
0.415	0.851	0.033
0.461	0.872	0.032
0.508	0.891	0.032
0.594	0.916	0.031
0.649	0.932	0.031
0.731	0.95	0.031
0.785	0.963	0.031
0.883	0.98	0.02
0.982	0.997	0.003
0.991	0.998	0.002
1	1	
