Measured thermophysical data. Solubility and Solution Thermodynamics of Flufenamic Acid Polymorphs in Two Binary Solvents
Source: J. Chem. Eng. Data, 2019, 10.1021/acs.jced.9b00278
Compound 1: 2-[[3-(trifluoromethyl)phenyl]amino]benzoic acid, C14H10F3NO2, InChI=1S/C14H10F3NO2/c15-14(16,17)9-4-3-5-10(8-9)18-12-7-2-1-6-11(12)13(19)20/h1-8,18H,(H,19,20), purity 99.7%
Compound 2: acetonitrile, C2H3N, InChI=1S/C2H3N/c1-2-3/h1H3, purity 99.5%
Compound 3: propan-2-ol, C3H8O, InChI=1S/C3H8O/c1-3(2)4/h3-4H,1-2H3, purity 99.5%
Compound 4: water, H2O, InChI=1S/H2O/h1H2, purity 99.8%

System: 2-[[3-(trifluoromethyl)phenyl]amino]benzoic acid; phases: Crystal 1, Liquid, Air at 1 atmosphere
Property: Triple point temperature, K (Crystal 1); method: DSC
Triple point temperature, K	uncertainty
410.95	2.1

System: 2-[[3-(trifluoromethyl)phenyl]amino]benzoic acid; phases: Metastable crystal, Liquid, Air at 1 atmosphere
Property: Triple point temperature, K (Metastable crystal); method: DSC
Triple point temperature, K	uncertainty
409.15	2.1

System: 2-[[3-(trifluoromethyl)phenyl]amino]benzoic acid + acetonitrile + water; phases: Liquid, Crystal 1
Fixed: Pressure, kPa = 101.3
Property: Mole fraction of 2-[[3-(trifluoromethyl)phenyl]amino]benzoic acid (Liquid); method: gravimetric
Temperature, K	Solvent: Mole fraction of acetonitrile	Mole fraction of 2-[[3-(trifluoromethyl)phenyl]amino]benzoic acid	uncertainty
321.15	1	0.03225	0.00645
321.15	0.899	0.04533	0.00911
321.15	0.7999	0.04902	0.00981
321.15	0.7	0.04612	0.00925
321.15	0.6002	0.03625	0.00734
321.15	0.5003	0.02408	0.00496
321.15	0.4	0.01257	0.00269
321.15	0.2976	0.00488	0.001153
321.15	0.2002	0.000342	0.0002601
321.15	0.1011	2.44e-05	2.44e-05
323.15	1	0.03511	0.00702
323.15	0.9001	0.0496	0.00997
323.15	0.8001	0.05535	0.01107
323.15	0.6997	0.05096	0.01022
323.15	0.6	0.03945	0.00798
323.15	0.4925	0.02583	0.00532
323.15	0.3999	0.01457	0.0031
323.15	0.3001	0.00573	0.001341
323.15	0.2001	0.0008127	0.0003406
323.15	0.1001	3.778e-05	3.778e-05
333.15	1	0.05506	0.01101
333.15	0.8998	0.07348	0.01474
333.15	0.8001	0.07738	0.01548
333.15	0.7	0.07539	0.0151
333.15	0.5997	0.06329	0.01278
333.15	0.4999	0.04112	0.00836
333.15	0.2005	0.00113	0.001123
333.15	0.1002	5.727e-05	5.718e-05
333.15	0	9.303e-06	1.871e-06

System: 2-[[3-(trifluoromethyl)phenyl]amino]benzoic acid + acetonitrile + water; phases: Liquid, Metastable crystal
Fixed: Pressure, kPa = 101.3
Property: Mole fraction of 2-[[3-(trifluoromethyl)phenyl]amino]benzoic acid (Liquid); method: gravimetric
Temperature, K	Solvent: Mole fraction of acetonitrile	Mole fraction of 2-[[3-(trifluoromethyl)phenyl]amino]benzoic acid	uncertainty
283.15	1	0.005471	0.001095
283.15	0.8997	0.01122	0.00227
283.15	0.8002	0.01241	0.00248
283.15	0.6998	0.0101	0.00204
283.15	0.5996	0.006983	0.001426
283.15	0.4997	0.004396	0.000899
283.15	0.3995	0.003222	0.000667
283.15	0.3001	0.0009929	0.0002521
283.15	0.2	0.0001227	5.42e-05
283.15	0.1001	2.676e-05	2.676e-05
293.15	1	0.00867	0.001735
293.15	0.8984	0.01636	0.0033
293.15	0.7998	0.01743	0.00349
293.15	0.6998	0.01445	0.00291
293.15	0.5998	0.01056	0.00215
293.15	0.4999	0.00642	0.001325
293.15	0.4	0.00407	0.000853
293.15	0.3	0.00134	0.000331
293.15	0.1995	0.0001743	7.52e-05
293.15	0.1004	1.094e-05	1.094e-05
303.15	1	0.01346	0.00269
303.15	0.8996	0.02279	0.0046
303.15	0.7992	0.02595	0.00519
303.15	0.6995	0.02273	0.00457
303.15	0.5997	0.0162	0.0033
303.15	0.492	0.0095	0.001977
303.15	0.4	0.0054	0.001148
303.15	0.3004	0.00206	0.000485
303.15	0.2003	0.0002949	0.0001183
303.15	0.1009	1.985e-05	1.985e-05
313.15	1	0.02191	0.00438
313.15	0.8995	0.0346	0.00697
313.15	0.8	0.03781	0.00756
313.15	0.7001	0.03533	0.00709
313.15	0.6	0.02637	0.00537
313.15	0.4996	0.01546	0.00321
313.15	0.3999	0.00884	0.001866
313.15	0.3003	0.0036	0.000834
313.15	0.2	0.0004453	0.0002008
313.15	0.1001	4.769e-06	4.769e-06

System: 2-[[3-(trifluoromethyl)phenyl]amino]benzoic acid + propan-2-ol + water; phases: Liquid, Metastable crystal
Fixed: Pressure, kPa = 101.3
Property: Mole fraction of 2-[[3-(trifluoromethyl)phenyl]amino]benzoic acid (Liquid); method: gravimetric
Temperature, K	Solvent: Mole fraction of propan-2-ol	Mole fraction of 2-[[3-(trifluoromethyl)phenyl]amino]benzoic acid	uncertainty
278.15	1	0.03719	0.00744
278.15	0.9004	0.03252	0.00652
278.15	0.7995	0.02943	0.00591
278.15	0.6994	0.02257	0.00456
278.15	0.6002	0.01674	0.0034
278.15	0.5001	0.01132	0.00232
278.15	0.3998	0.00645	0.001355
278.15	0.2997	0.00305	0.000671
278.15	0.1999	0.0008616	0.0002789
293.15	1	0.07015	0.01403
293.15	0.8999	0.05493	0.01105
293.15	0.8005	0.04782	0.0096
293.15	0.7001	0.03856	0.00775
293.15	0.6	0.03235	0.00652
293.15	0.4998	0.02268	0.00465
293.15	0.3998	0.01229	0.0026
293.15	0.2998	0.00592	0.0013
293.15	0.1999	0.00158	0.00049
313.15	1	0.129	0.0258
313.15	0.9	0.1174	0.0235
313.15	0.7993	0.1048	0.021
313.15	0.6998	0.08815	0.01772
313.15	0.5999	0.06958	0.01405
313.15	0.4997	0.04911	0.01001
313.15	0.4	0.03079	0.00639
313.15	0.2999	0.0151	0.00329
313.15	0.2001	0.00466	0.001401

System: 2-[[3-(trifluoromethyl)phenyl]amino]benzoic acid + acetonitrile; phases: Liquid, Crystal 1
Fixed: Pressure, kPa = 101.3
Property: Mole fraction of 2-[[3-(trifluoromethyl)phenyl]amino]benzoic acid (Liquid); method: gravimetric
Temperature, K	Mole fraction of 2-[[3-(trifluoromethyl)phenyl]amino]benzoic acid	uncertainty
321.15	0.03225	0.00645
323.15	0.03511	0.00702
333.15	0.05506	0.01101

System: 2-[[3-(trifluoromethyl)phenyl]amino]benzoic acid + acetonitrile; phases: Liquid, Metastable crystal
Fixed: Pressure, kPa = 101.3
Property: Mole fraction of 2-[[3-(trifluoromethyl)phenyl]amino]benzoic acid (Liquid); method: gravimetric
Temperature, K	Mole fraction of 2-[[3-(trifluoromethyl)phenyl]amino]benzoic acid	uncertainty
283.15	0.005471	0.001095
293.15	0.00867	0.001735
303.15	0.01346	0.00269
313.15	0.02191	0.00438

System: 2-[[3-(trifluoromethyl)phenyl]amino]benzoic acid + water; phases: Liquid, Crystal 1
Property: Mole fraction of 2-[[3-(trifluoromethyl)phenyl]amino]benzoic acid (Liquid); method: gravimetric
Temperature, K	Pressure, kPa	Mole fraction of 2-[[3-(trifluoromethyl)phenyl]amino]benzoic acid	uncertainty
333.15	101.3	9.303e-06	1.861e-06

System: 2-[[3-(trifluoromethyl)phenyl]amino]benzoic acid + propan-2-ol; phases: Liquid, Metastable crystal
Fixed: Pressure, kPa = 101.3
Property: Mole fraction of 2-[[3-(trifluoromethyl)phenyl]amino]benzoic acid (Liquid); method: gravimetric
Temperature, K	Mole fraction of 2-[[3-(trifluoromethyl)phenyl]amino]benzoic acid	uncertainty
278.15	0.03719	0.00744
293.15	0.07015	0.01403
313.15	0.129	0.0258
