Measured thermophysical data. Solubility Determination for Carbamazepine and Saccharin in Methanol/Water Mixed Solvent: Basic Data for Design of Cocrystal Production by Antisolvent Crystallization
Source: J. Chem. Eng. Data, 2018, 10.1021/acs.jced.7b00920
Compound 1: carbamazepine, C15H12N2O, InChI=1S/C15H12N2O/c16-15(18)17-13-7-3-1-5-11(13)9-10-12-6-2-4-8-14(12)17/h1-10H,(H2,16,18), purity 97%
Compound 2: 1,2-benzoisothiazolin-3-one 1,1-dioxide, C7H5NO3S, InChI=1S/C7H5NO3S/c9-7-5-3-1-2-4-6(5)12(10,11)8-7/h1-4H,(H,8,9), purity 98%
Compound 3: methanol, CH4O, InChI=1S/CH4O/c1-2/h2H,1H3, purity 99.8%
Compound 4: water, H2O, InChI=1S/H2O/h1H2, purity 99.9%

System: 1,2-benzoisothiazolin-3-one 1,1-dioxide + carbamazepine + methanol; phases: Liquid, Crystal
Property: Mass fraction of 1,2-benzoisothiazolin-3-one 1,1-dioxide (Liquid); method: Chromatography
Mass fraction of methanol	Pressure, kPa	Temperature, K	Mass fraction of 1,2-benzoisothiazolin-3-one 1,1-dioxide	uncertainty
0.8916	101	303.15	0.0059	0.0004

System: 1,2-benzoisothiazolin-3-one 1,1-dioxide + carbamazepine + methanol; phases: Liquid, Crystal
Property: Mass fraction of 1,2-benzoisothiazolin-3-one 1,1-dioxide (Liquid); method: Chromatography
Mass fraction of methanol	Pressure, kPa	Temperature, K	Mass fraction of 1,2-benzoisothiazolin-3-one 1,1-dioxide	uncertainty
0.9246	101	303.15	0.0647	0.0039

System: carbamazepine + methanol + water; phases: Liquid, Crystal
Fixed: Pressure, kPa = 101
Fixed: Temperature, K = 303.15
Property: Mass fraction of carbamazepine (Liquid); method: Chromatography
Mass fraction of methanol	Mass fraction of carbamazepine	uncertainty
0.8205	0.0881	0.0065
0.745	0.0685	0.0065
0.6654	0.0495	0.0068
0.5811	0.0312	0.0063
0.4913	0.018	0.0059

System: carbamazepine + methanol + water; phases: Liquid, Crystal of intercomponent compound 2
Fixed: Pressure, kPa = 101
Fixed: Temperature, K = 303.15
Property: Mass fraction of carbamazepine (Liquid); method: Chromatography
Mass fraction of methanol	Mass fraction of carbamazepine	uncertainty
0.3989	0.0067	0.0014
0.3003	0.0025	0.00071
0.2001	0.00093	0.00018
0.1002	0.000384	5e-05

System: 1,2-benzoisothiazolin-3-one 1,1-dioxide + methanol + water; phases: Liquid, Crystal
Fixed: Pressure, kPa = 101
Fixed: Temperature, K = 303.15
Property: Mass fraction of 1,2-benzoisothiazolin-3-one 1,1-dioxide (Liquid); method: Chromatography
Mass fraction of methanol	Mass fraction of 1,2-benzoisothiazolin-3-one 1,1-dioxide	uncertainty
0.8536	0.0517	0.0034
0.7666	0.0418	0.0032
0.677	0.0329	0.0032
0.5852	0.0243	0.0032
0.4913	0.0171	0.0029
0.3955	0.0114	0.0018
0.2978	0.00687	0.00084
0.1989	0.0054	0.0004
0.0997	0.00422	0.00027

System: 1,2-benzoisothiazolin-3-one 1,1-dioxide + carbamazepine + water; phases: Liquid, Crystal of intercomponent compound 2
Fixed: Pressure, kPa = 101
Fixed: Temperature, K = 303.15
Property: Mass fraction of 1,2-benzoisothiazolin-3-one 1,1-dioxide (Liquid); method: Chromatography
Mass fraction of carbamazepine	Mass fraction of 1,2-benzoisothiazolin-3-one 1,1-dioxide	uncertainty
0.000169	0	
0.000177	0.00171	0.00171

System: 1,2-benzoisothiazolin-3-one 1,1-dioxide + carbamazepine + water; phases: Liquid, Crystal of intercomponent compound 1
Fixed: Pressure, kPa = 101
Fixed: Temperature, K = 303.15
Property: Mass fraction of 1,2-benzoisothiazolin-3-one 1,1-dioxide (Liquid); method: Chromatography
Mass fraction of carbamazepine	Mass fraction of 1,2-benzoisothiazolin-3-one 1,1-dioxide	uncertainty
0.000177	0.00171	0.00014
9.8e-05	0.00246	0.00017
5.79e-05	0.00353	0.00023

System: 1,2-benzoisothiazolin-3-one 1,1-dioxide + carbamazepine + water; phases: Liquid, Crystal
Fixed: Pressure, kPa = 101
Fixed: Temperature, K = 303.15
Property: Mass fraction of 1,2-benzoisothiazolin-3-one 1,1-dioxide (Liquid); method: Chromatography
Mass fraction of carbamazepine	Mass fraction of 1,2-benzoisothiazolin-3-one 1,1-dioxide	uncertainty
5.79e-05	0.00353	0.00021
0	0.00354	0.00021

System: carbamazepine + water; phases: Liquid, Crystal of intercomponent compound 2
Property: Mass fraction of carbamazepine (Liquid); method: Chromatography
Pressure, kPa	Temperature, K	Mass fraction of carbamazepine	uncertainty
101	303.15	0.000169	1.4e-05

System: 1,2-benzoisothiazolin-3-one 1,1-dioxide + water; phases: Liquid, Crystal
Property: Mass fraction of 1,2-benzoisothiazolin-3-one 1,1-dioxide (Liquid); method: Chromatography
Pressure, kPa	Temperature, K	Mass fraction of 1,2-benzoisothiazolin-3-one 1,1-dioxide	uncertainty
101	303.15	0.00354	0.00028
