Measured thermophysical data. Measurements of PvT Properties, Vapor Pressures, Saturated Densities, and Critical Parameters for cis-1-Chloro-2,3,3,3-tetrafluoropropene (R1224yd(Z))
Source: J. Chem. Eng. Data, 2019, 10.1021/acs.jced.9b00374
Compound 1: (Z)-1-chloro-2,3,3,3-tetrafluoropropene, C3HClF4, InChI=1S/C3HClF4/c4-1-2(5)3(6,7)8/h1H/b2-1-, purity 99.25%

System: (Z)-1-chloro-2,3,3,3-tetrafluoropropene; phases: Liquid, Gas
Property: Critical temperature, K (Liquid); method: Visual observation in an unstirred cell
Critical temperature, K	uncertainty
428.69	0.11

System: (Z)-1-chloro-2,3,3,3-tetrafluoropropene; phases: Liquid, Gas
Property: Critical density, kg/m3 (Liquid); method: using visual observation in a pVT apparatus
Critical density, kg/m3	uncertainty
535	12

System: (Z)-1-chloro-2,3,3,3-tetrafluoropropene; phases: Gas
Property: Mass density, kg/m3 (Gas); method: ISOCHOR
Temperature, K	Pressure, kPa	Mass density, kg/m3	uncertainty
330	361	21.8	0.1
340	375.4	21.8	0.1
350	389.3	21.8	0.1
360	402.9	21.7	0.1
370	416.2	21.7	0.1
380	429.3	21.7	0.1
380	429.3	21.7	0.1
390	442.2	21.7	0.1
400	454.9	21.7	0.1
410	467.2	21.7	0.1
420	479.3	21.7	0.1
360	789.7	47.9	0.1
370	824.6	47.9	0.1
380	858.2	47.8	0.1
390	891.1	47.8	0.1
400	923.5	47.8	0.1
410	955.2	47.8	0.1
370	928	55.4	0.1
380	967.9	55.4	0.1
390	1006.7	55.4	0.1
400	1044.8	55.3	0.1
410	1082	55.3	0.1
420	1118.5	55.2	0.1
390.015	1575.9	103.5	0.2
395	1618.7	103.5	0.2
400	1660.8	103.5	0.2
405	1702.3	103.4	0.2
410.016	1743.3	103.4	0.2
415	1783.4	103.3	0.2
420	1823.2	103.3	0.2

System: (Z)-1-chloro-2,3,3,3-tetrafluoropropene; phases: Liquid
Property: Mass density, kg/m3 (Liquid); method: ISOCHOR
Temperature, K	Pressure, kPa	Mass density, kg/m3	uncertainty
403	2423.7	970.7	1.5
405	2844.1	970.6	1.5
410	3910.7	970.4	1.5
413.037	4564.4	970.2	1.5
378	2453.1	1107.5	1.7
380	3108.5	1107.4	1.7
382	3765.9	1107.3	1.7
385	4754.3	1107.1	1.7
388	5744.7	1106.9	1.7
390	6406.8	1106.8	1.7
354	1980.9	1197.8	1.8
356	2846.5	1197.6	1.8
358	3709.9	1197.5	1.8
360	4575.4	1197.3	1.8
362	5442.7	1197.1	1.8
364	6309.3	1197	1.8

System: (Z)-1-chloro-2,3,3,3-tetrafluoropropene; phases: Liquid, Gas
Property: Mass density, kg/m3 (Liquid); method: ISOCHOR
Temperature, K	Mass density, kg/m3	uncertainty
428.69	541.7	1.1
427.089	685.5	0.8
425.294	734.3	0.7
415.835	867.9	0.6
408.745	930	0.6

System: (Z)-1-chloro-2,3,3,3-tetrafluoropropene; phases: Gas, Liquid
Property: Mass density, kg/m3 (Gas); method: ISOCHOR
Temperature, K	Mass density, kg/m3	uncertainty
424.261	297	0.8
427.532	387.5	0.8
428.216	415.1	1.2
428.671	490.3	1.9
428.69	525.2	2.5

System: (Z)-1-chloro-2,3,3,3-tetrafluoropropene; phases: Liquid, Gas
Property: Vapor or sublimation pressure, kPa (Liquid); method: ISOPVT
Temperature, K	Vapor or sublimation pressure, kPa	uncertainty
310	220.4	1.3
315	258.3	1.3
320	301	1.3
325	348.9	1.3
330	402.3	1.4
335	462	1.4
340	527.6	1.4
345	600.4	1.4
350	680.2	1.5
360	863.5	1.6
370	1081.9	1.7
380	1338.9	1.9
390	1639.5	2.1
400	1988.8	2.3
410	2393	2.6
