Measured thermophysical data. Solid Liquid Equilibria Studies in the KVO3-KNO3-H2O System in the Temperature Range 293.15-323.15 K
Source: J. Chem. Eng. Data, 2017, 10.1021/acs.jced.7b00507
Compound 1: potassium vanadate, KO3V, InChI=1S/K.3O.V/q+1;;;-1;, purity 98%
Compound 2: water, H2O, InChI=1S/H2O/h1H2, purity 99.9%
Compound 3: potassium nitrate, KNO3, InChI=1S/K.NO3/c;2-1(3)4/q+1;-1, purity 99%

System: potassium vanadate + water; phases: Liquid, Crystal
Fixed: Pressure, kPa = 100
Property: Solid-liquid equilibrium temperature, K (Liquid); method: spectroscopy
Molality, mol/kg of potassium vanadate	Solid-liquid equilibrium temperature, K	uncertainty
0.6199	293.15	1.04
0.8756	303.15	1.22
1.222	313.15	0.99
1.908	323.15	1.18

System: potassium vanadate + water; phases: Liquid
Fixed: Pressure, kPa = 100
Property: Mass density, kg/m3 (Liquid); method: Pycnometric method
Temperature, K	Molality, mol/kg of potassium vanadate	Mass density, kg/m3	uncertainty
293.15	0.6199	1060.4	10.6
303.15	0.8756	1081.6	11.3
313.15	1.222	1111	11.3
323.15	1.908	1156	12.2

System: potassium nitrate + water; phases: Liquid, Crystal
Fixed: Pressure, kPa = 100
Property: Molality, mol/kg of potassium nitrate (Liquid); method: spectroscopy
Temperature, K	Molality, mol/kg of potassium nitrate	uncertainty
293.15	3.129	0.125
303.15	4.532	0.182
313.15	6.615	0.265
323.15	8.465	0.339

System: potassium nitrate + water; phases: Liquid
Fixed: Pressure, kPa = 100
Property: Mass density, kg/m3 (Liquid); method: Pycnometric method
Temperature, K	Molality, mol/kg of potassium nitrate	Mass density, kg/m3	uncertainty
293.15	3.129	1167	11.8
303.15	4.532	1217.1	12.2
313.15	6.615	1269.4	12.7
323.15	8.465	1321	14

System: potassium vanadate + potassium nitrate + water; phases: Liquid, Crystal
Fixed: Pressure, kPa = 100
Property: Molality, mol/kg of potassium nitrate (Liquid); method: spectroscopy
Temperature, K	Molality, mol/kg of potassium vanadate	Molality, mol/kg of potassium nitrate	uncertainty
293.15	0.6199	0	1
293.15	0.5147	0.0978	0.0194
293.15	0.4449	0.1613	0.0207
293.15	0.3607	0.2661	0.0252
293.15	0.308	0.3821	0.0425
293.15	0.1812	0.8292	0.0497
293.15	0.1142	1.414	0.098
293.15	0.0752	2.806	0.156
293.15	0.0739	3.121	0.177
303.15	0.8756	0	1
303.15	0.7633	0.1053	0.0286
303.15	0.5927	0.2615	0.0363
303.15	0.5056	0.3757	0.0364
303.15	0.3957	0.6645	0.0676
303.15	0.2408	1.383	0.074
303.15	0.1821	1.724	0.108
303.15	0.1501	2.411	0.126
303.15	0.1264	2.754	0.166
303.15	0.1049	3.509	0.198
303.15	0.098	3.737	0.179
303.15	0.0873	4.115	0.236
303.15	0.0781	4.555	0.263
313.15	1.222	0	1
313.15	0.726	0.6655	0.0612
313.15	0.5361	1.199	0.084
313.15	0.3793	1.782	0.096
313.15	0.2843	2.28	0.137
313.15	0.1801	3.586	0.177
313.15	0.1529	4.324	0.22
313.15	0.1265	4.82	0.23
313.15	0.1104	5.536	0.285
313.15	0.0829	6.598	0.289
323.15	1.908	0	1
323.15	1.095	1.287	0.099
323.15	0.6786	2.418	0.141
323.15	0.2104	4.597	0.241
323.15	0.1472	5.758	0.271
323.15	0.1156	6.971	0.351
323.15	0.1069	7.731	0.369
323.15	0.0866	8.41	0.356

System: potassium vanadate + potassium nitrate + water; phases: Liquid, Crystal
Fixed: Pressure, kPa = 100
Property: Molality, mol/kg of potassium nitrate (Liquid); method: spectroscopy
Temperature, K	Molality, mol/kg of potassium vanadate	Molality, mol/kg of potassium nitrate	uncertainty
293.15	0.0739	3.121	0.125
293.15	0.0382	3.124	0.125
293.15	0.0244	3.119	0.125
293.15	0	3.129	0.125
303.15	0.0781	4.555	0.184
303.15	0.0434	4.525	0.181
303.15	0	4.532	0.182
313.15	0.0829	6.598	0.265
313.15	0.0433	6.61	0.265
313.15	0	6.615	0.265
323.15	0.0866	8.41	0.337
323.15	0.0563	8.422	0.337
323.15	0.0373	8.447	0.338
323.15	0	8.465	0.339

System: potassium vanadate + potassium nitrate + water; phases: Liquid
Fixed: Pressure, kPa = 100
Property: Mass density, kg/m3 (Liquid); method: Pycnometric method
Temperature, K	Molality, mol/kg of potassium vanadate	Molality, mol/kg of potassium nitrate	Mass density, kg/m3	uncertainty
293.15	0.6199	0	1060.4	11
293.15	0.5147	0.0978	1054	10.8
293.15	0.4449	0.1613	1050.1	10.7
293.15	0.3607	0.2661	1048	10.6
293.15	0.308	0.3821	1047.7	10.6
293.15	0.1812	0.8292	1062.6	10.8
293.15	0.1142	1.414	1084.9	11.1
293.15	0.0752	2.806	1143.6	14.4
293.15	0.0739	3.121	1167.9	15.1
293.15	0.0382	3.124	1167.6	15.1
293.15	0.0244	3.119	1167.1	15.3
293.15	0	3.129	1167	13.2
303.15	0.8756	0	1081.6	11
303.15	0.7633	0.1053	1080.2	10.9
303.15	0.5927	0.2615	1077.5	10.9
303.15	0.5056	0.3757	1077.4	10.9
303.15	0.3957	0.6645	1083.8	10.9
303.15	0.2408	1.383	1100.1	11.2
303.15	0.1821	1.724	1108.7	11.5
303.15	0.1501	2.411	1134.9	13.8
303.15	0.1264	2.754	1157.8	12.5
303.15	0.1049	3.509	1181.2	13.1
303.15	0.098	3.737	1200.7	15.2
303.15	0.0873	4.115	1217.4	13
303.15	0.0781	4.555	1222.6	12.5
303.15	0.0434	4.525	1219.5	12.4
303.15	0	4.532	1217.1	14.3
313.15	1.222	0	1111	11.4
313.15	0.726	0.6655	1100.1	11.3
313.15	0.5361	1.199	1103.9	11.5
313.15	0.3793	1.782	1117.1	11.6
313.15	0.2843	2.28	1132.8	11.9
313.15	0.1801	3.586	1179.7	13
313.15	0.1529	4.324	1205.8	14.3
313.15	0.1265	4.82	1228.6	14.8
313.15	0.1104	5.536	1251.5	26.5
313.15	0.0829	6.598	1272.7	13.9
313.15	0.0433	6.61	1271.8	13.9
313.15	0	6.615	1269.4	14
323.15	1.908	0	1156	12.2
323.15	1.095	1.287	1140.6	12.3
323.15	0.6786	2.418	1162.4	12.1
323.15	0.2104	4.597	1217.8	13.5
323.15	0.1472	5.758	1252.7	14.2
323.15	0.1156	6.971	1287.4	14
323.15	0.1069	7.731	1307.4	15
323.15	0.0866	8.41	1329.8	17.7
323.15	0.0563	8.422	1328.6	18.1
323.15	0.0373	8.447	1325.9	19.5
323.15	0	8.465	1321	17.5
