Measured thermophysical data. Influence of Imidazolium Ionic Liquids on the Interactions of Human Hemoglobin with DyCl3, ErCl3, and YbCl3 in Aqueous Citric Acid at T = (298.15, 303.15, and 308.15) K and 0.1 MPa
Source: J. Chem. Eng. Data, 2017, 10.1021/acs.jced.6b00695
Compound 1: citric acid, C6H8O7, InChI=1S/C6H8O7/c7-3(8)1-6(13,5(11)12)2-4(9)10/h13H,1-2H2,(H,7,8)(H,9,10)(H,11,12), purity 99%
Compound 2: water, H2O, InChI=1S/H2O/h1H2, purity 99.9%
Compound 3: dysprosium(III) chloride, Cl3Dy, InChI=1S/3ClH.Dy/h3*1H;/q;;;+3/p-3, purity 98%
Compound 4: erbium trichloride, Cl3Er, InChI=1S/3ClH.Er/h3*1H;/q;;;+3/p-3, purity 98%
Compound 5: ytterbium trichloride, Cl3Yb, InChI=1S/3ClH.Yb/h3*1H;/q;;;+3/p-3, purity 98%
Compound 6: D-sucrose, C12H22O11, InChI=1S/C12H22O11/c13-1-4-6(16)8(18)9(19)11(21-4)23-12(3-15)10(20)7(17)5(2-14)22-12/h4-11,13-20H,1-3H2/t4-,5-,6-,7-,8+,9-,10+,11-,12+/m1/s1, purity 98%
Compound 7: 1-ethyl-3-methylimidazolium chloride, C6H11ClN2, InChI=1S/C6H11N2.ClH/c1-3-8-5-4-7(2)6-8;/h4-6H,3H2,1-2H3;1H/q+1;/p-1, purity 98%
Compound 8: 1-butyl-3-methylimidazolium chloride, C8H15ClN2, InChI=1S/C8H15N2.ClH/c1-3-4-5-10-7-6-9(2)8-10;/h6-8H,3-5H2,1-2H3;1H/q+1;/p-1, purity 98%
Compound 9: 1-hexyl-3-methylimidazolium chloride, C10H19ClN2, InChI=1S/C10H19N2.ClH/c1-3-4-5-6-7-12-9-8-11(2)10-12;/h8-10H,3-7H2,1-2H3;1H/q+1;/p-1, purity 98%

System: citric acid + water + dysprosium(III) chloride; phases: Liquid
Fixed: Pressure, kPa = 100
Fixed: Solvent: Molality, mol/kg of citric acid = 0.005
Property: Mass density, kg/m3 (Liquid); method: Vibrating tube method
Temperature, K	Molality, mol/kg of dysprosium(III) chloride	Mass density, kg/m3	uncertainty
298.15	0	997.455	0.313
298.15	0.002	997.939	0.313
298.15	0.004	998.436	0.313
298.15	0.006	998.941	0.313
298.15	0.008	999.445	0.313
298.15	0.01	999.948	0.313
298.15	0.012	1000.433	0.313
303.15	0	996.059	0.313
303.15	0.002	996.539	0.313
303.15	0.004	997.029	0.313
303.15	0.006	997.522	0.313
303.15	0.008	998.013	0.313
303.15	0.01	998.501	0.313
303.15	0.012	998.981	0.313
308.15	0	994.427	0.312
308.15	0.002	994.897	0.312
308.15	0.004	995.378	0.312
308.15	0.006	995.869	0.312
308.15	0.008	996.358	0.313
308.15	0.01	996.831	0.313
308.15	0.012	997.311	0.313

System: citric acid + water + dysprosium(III) chloride; phases: Liquid
Fixed: Pressure, kPa = 100
Fixed: Solvent: Molality, mol/kg of citric acid = 0.005
Property: Speed of sound, m/s (Liquid); method: Sing-around technique in a fixed-path interferometer
Temperature, K	Molality, mol/kg of dysprosium(III) chloride	Speed of sound, m/s	uncertainty
298.15	0	1494.6	1.34
298.15	0.002	1494.63	1.34
298.15	0.004	1494.66	1.34
298.15	0.006	1494.69	1.34
298.15	0.008	1494.73	1.34
298.15	0.01	1494.77	1.34
298.15	0.012	1494.83	1.34
303.15	0	1504.71	1.34
303.15	0.002	1504.73	1.34
303.15	0.004	1504.74	1.34
303.15	0.006	1504.76	1.34
303.15	0.008	1504.77	1.34
303.15	0.01	1504.79	1.34
303.15	0.012	1504.8	1.34
308.15	0	1516.25	1.34
308.15	0.002	1516.26	1.34
308.15	0.004	1516.29	1.34
308.15	0.006	1516.31	1.34
308.15	0.008	1516.33	1.34
308.15	0.01	1516.36	1.34
308.15	0.012	1516.38	1.34

System: citric acid + water + dysprosium(III) chloride; phases: Liquid
Fixed: Pressure, kPa = 100
Fixed: Solvent: Molality, mol/kg of citric acid = 0.005
Property: Viscosity, Pa*s (Liquid); method: Capillary tube (Ostwald; Ubbelohde) method
Temperature, K	Molality, mol/kg of dysprosium(III) chloride	Viscosity, Pa*s	uncertainty
298.15	0	0.0009011	8.3e-06
298.15	0.002	0.000906	8.4e-06
298.15	0.004	0.0009127	8.4e-06
298.15	0.006	0.0009198	8.4e-06
298.15	0.008	0.0009273	8.5e-06
298.15	0.01	0.0009343	8.5e-06
298.15	0.012	0.0009449	8.6e-06
303.15	0	0.0008009	7.8e-06
303.15	0.002	0.0008026	7.8e-06
303.15	0.004	0.000806	7.8e-06
303.15	0.006	0.0008081	7.8e-06
303.15	0.008	0.000811	7.8e-06
303.15	0.01	0.000814	7.8e-06
303.15	0.012	0.0008168	7.8e-06
308.15	0	0.0007225	7.3e-06
308.15	0.002	0.0007245	7.3e-06
308.15	0.004	0.000726	7.3e-06
308.15	0.006	0.0007274	7.3e-06
308.15	0.008	0.0007292	7.3e-06
308.15	0.01	0.0007309	7.4e-06
308.15	0.012	0.0007327	7.4e-06

System: citric acid + water + dysprosium(III) chloride; phases: Liquid, Air at 1 atmosphere
Fixed: Solvent: Molality, mol/kg of citric acid = 0.005
Property: Surface tension liquid-gas, N/m (Liquid); method: Capillary rise
Temperature, K	Molality, mol/kg of dysprosium(III) chloride	Surface tension liquid-gas, N/m	uncertainty
298.15	0	0.0716	0.00078
298.15	0.002	0.07204	0.00078
298.15	0.004	0.07208	0.00078
298.15	0.006	0.07211	0.00078
298.15	0.008	0.07215	0.00078
298.15	0.01	0.07218	0.00078
298.15	0.012	0.07222	0.00078
303.15	0	0.07084	0.00078
303.15	0.002	0.07127	0.00078
303.15	0.004	0.07131	0.00078
303.15	0.006	0.07134	0.00078
303.15	0.008	0.07138	0.00078
303.15	0.01	0.07141	0.00078
303.15	0.012	0.07144	0.00078
308.15	0	0.07006	0.00078
308.15	0.002	0.07048	0.00078
308.15	0.004	0.07052	0.00078
308.15	0.006	0.07055	0.00078
308.15	0.008	0.07059	0.00078
308.15	0.01	0.07062	0.00078
308.15	0.012	0.07065	0.00078

System: citric acid + water + dysprosium(III) chloride; phases: Liquid
Fixed: Solvent: Molality, mol/kg of citric acid = 0.005
Fixed: Pressure, kPa = 100
Property: Electrical conductivity, S/m (Liquid); method: Alternating current cell with electrodes
Temperature, K	Molality, mol/kg of dysprosium(III) chloride	Electrical conductivity, S/m	uncertainty
298.15	0	4.5	1.2
298.15	0.002	16.1	1.2
298.15	0.004	16.4	1.2
298.15	0.006	17	1.2
298.15	0.008	21.3	1.2
298.15	0.01	21.9	1.2
298.15	0.012	23.1	1.2
303.15	0	4.8	1.2
303.15	0.002	26.5	1.2
303.15	0.004	26.6	1.2
303.15	0.006	29.3	1.2
303.15	0.008	31.2	1.2
303.15	0.01	31.6	1.2
303.15	0.012	34.3	1.2
308.15	0	5	1.2
308.15	0.002	35.4	1.2
308.15	0.004	35.5	1.2
308.15	0.006	39.5	1.2
308.15	0.008	39.7	1.2
308.15	0.01	40.2	1.2
308.15	0.012	43.9	1.2

System: citric acid + water + erbium trichloride; phases: Liquid
Fixed: Pressure, kPa = 100
Fixed: Solvent: Molality, mol/kg of citric acid = 0.005
Property: Mass density, kg/m3 (Liquid); method: Vibrating tube method
Temperature, K	Molality, mol/kg of erbium trichloride	Mass density, kg/m3	uncertainty
298.15	0	997.455	0.313
298.15	0.002	997.947	0.313
298.15	0.004	998.453	0.313
298.15	0.006	998.968	0.313
298.15	0.008	999.481	0.313
298.15	0.01	999.993	0.313
298.15	0.012	1000.487	0.313
303.15	0	996.059	0.313
303.15	0.002	996.548	0.313
303.15	0.004	997.045	0.313
303.15	0.006	997.549	0.313
303.15	0.008	998.049	0.313
303.15	0.01	998.545	0.313
303.15	0.012	999.031	0.313
308.15	0	994.427	0.312
308.15	0.002	994.903	0.312
308.15	0.004	995.401	0.312
308.15	0.006	995.901	0.312
308.15	0.008	996.398	0.313
308.15	0.01	996.878	0.313
308.15	0.012	997.358	0.313

System: citric acid + water + erbium trichloride; phases: Liquid
Fixed: Pressure, kPa = 100
Fixed: Solvent: Molality, mol/kg of citric acid = 0.005
Property: Speed of sound, m/s (Liquid); method: Sing-around technique in a fixed-path interferometer
Temperature, K	Molality, mol/kg of erbium trichloride	Speed of sound, m/s	uncertainty
298.15	0	1494.6	1.34
298.15	0.002	1494.62	1.34
298.15	0.004	1494.64	1.34
298.15	0.006	1494.68	1.34
298.15	0.008	1494.72	1.34
298.15	0.01	1494.76	1.34
298.15	0.012	1494.81	1.34
303.15	0	1504.71	1.34
303.15	0.002	1504.72	1.34
303.15	0.004	1504.73	1.34
303.15	0.006	1504.75	1.34
303.15	0.008	1504.76	1.34
303.15	0.01	1504.78	1.34
303.15	0.012	1504.79	1.34
308.15	0	1516.25	1.34
308.15	0.002	1516.25	1.34
308.15	0.004	1516.28	1.34
308.15	0.006	1516.3	1.34
308.15	0.008	1516.32	1.34
308.15	0.01	1516.35	1.34
308.15	0.012	1516.37	1.34

System: citric acid + water + erbium trichloride; phases: Liquid
Fixed: Pressure, kPa = 100
Fixed: Solvent: Molality, mol/kg of citric acid = 0.005
Property: Viscosity, Pa*s (Liquid); method: Capillary tube (Ostwald; Ubbelohde) method
Temperature, K	Molality, mol/kg of erbium trichloride	Viscosity, Pa*s	uncertainty
298.15	0	0.0009011	8.3e-06
298.15	0.002	0.0009147	8.4e-06
298.15	0.004	0.0009244	8.5e-06
298.15	0.006	0.0009317	8.5e-06
298.15	0.008	0.0009389	8.6e-06
298.15	0.01	0.0009478	8.6e-06
298.15	0.012	0.0009544	8.7e-06
303.15	0	0.0008009	7.8e-06
303.15	0.002	0.0008051	7.8e-06
303.15	0.004	0.0008086	7.8e-06
303.15	0.006	0.0008116	7.8e-06
303.15	0.008	0.0008147	7.8e-06
303.15	0.01	0.0008178	7.9e-06
303.15	0.012	0.0008225	7.9e-06
308.15	0	0.0007225	7.3e-06
308.15	0.002	0.0007259	7.3e-06
308.15	0.004	0.0007276	7.3e-06
308.15	0.006	0.0007289	7.3e-06
308.15	0.008	0.0007307	7.4e-06
308.15	0.01	0.0007322	7.4e-06
308.15	0.012	0.0007336	7.4e-06

System: citric acid + water + erbium trichloride; phases: Liquid, Air at 1 atmosphere
Fixed: Solvent: Molality, mol/kg of citric acid = 0.005
Property: Surface tension liquid-gas, N/m (Liquid); method: Capillary rise
Temperature, K	Molality, mol/kg of erbium trichloride	Surface tension liquid-gas, N/m	uncertainty
298.15	0	0.0716	0.00078
298.15	0.002	0.07245	0.00078
298.15	0.004	0.07249	0.00078
298.15	0.006	0.07252	0.00078
298.15	0.008	0.07256	0.00078
298.15	0.01	0.0726	0.00078
298.15	0.012	0.07263	0.00078
303.15	0	0.07084	0.00078
303.15	0.002	0.07167	0.00078
303.15	0.004	0.07171	0.00078
303.15	0.006	0.07174	0.00078
303.15	0.008	0.07178	0.00078
303.15	0.01	0.07181	0.00078
303.15	0.012	0.07185	0.00078
308.15	0	0.07006	0.00078
308.15	0.002	0.07088	0.00078
308.15	0.004	0.07091	0.00078
308.15	0.006	0.07095	0.00078
308.15	0.008	0.07098	0.00078
308.15	0.01	0.07102	0.00078
308.15	0.012	0.07105	0.00078

System: citric acid + water + erbium trichloride; phases: Liquid
Fixed: Solvent: Molality, mol/kg of citric acid = 0.005
Fixed: Pressure, kPa = 100
Property: Electrical conductivity, S/m (Liquid); method: Alternating current cell with electrodes
Temperature, K	Molality, mol/kg of erbium trichloride	Electrical conductivity, S/m	uncertainty
298.15	0	4.5	1.2
298.15	0.002	14.5	1.2
298.15	0.004	14.8	1.2
298.15	0.006	15	1.2
298.15	0.008	19.4	1.2
298.15	0.01	20.1	1.2
298.15	0.012	21.1	1.2
303.15	0	4.8	1.2
303.15	0.002	24.8	1.2
303.15	0.004	24.9	1.2
303.15	0.006	27.2	1.2
303.15	0.008	29.2	1.2
303.15	0.01	29.6	1.2
303.15	0.012	31.9	1.2
308.15	0	5	1.2
308.15	0.002	33.3	1.2
308.15	0.004	33.8	1.2
308.15	0.006	36.8	1.2
308.15	0.008	37.3	1.2
308.15	0.01	37.8	1.2
308.15	0.012	41.2	1.2

System: citric acid + water + ytterbium trichloride; phases: Liquid
Fixed: Pressure, kPa = 100
Fixed: Solvent: Molality, mol/kg of citric acid = 0.005
Property: Mass density, kg/m3 (Liquid); method: Vibrating tube method
Temperature, K	Molality, mol/kg of ytterbium trichloride	Mass density, kg/m3	uncertainty
298.15	0	997.455	0.313
298.15	0.002	997.958	0.313
298.15	0.004	998.474	0.313
298.15	0.006	999	0.313
298.15	0.008	999.525	0.313
298.15	0.01	1000.048	0.313
298.15	0.012	1000.553	0.313
303.15	0	996.059	0.313
303.15	0.002	996.558	0.313
303.15	0.004	997.066	0.313
303.15	0.006	997.579	0.313
303.15	0.008	998.091	0.313
303.15	0.01	998.598	0.313
303.15	0.012	999.099	0.313
308.15	0	994.427	0.312
308.15	0.002	994.914	0.312
308.15	0.004	995.421	0.312
308.15	0.006	995.929	0.313
308.15	0.008	996.436	0.313
308.15	0.01	996.934	0.313
308.15	0.012	997.428	0.313

System: citric acid + water + ytterbium trichloride; phases: Liquid
Fixed: Pressure, kPa = 100
Fixed: Solvent: Molality, mol/kg of citric acid = 0.005
Property: Speed of sound, m/s (Liquid); method: Sing-around technique in a fixed-path interferometer
Temperature, K	Molality, mol/kg of ytterbium trichloride	Speed of sound, m/s	uncertainty
298.15	0	1494.6	1.34
298.15	0.002	1494.61	1.34
298.15	0.004	1494.63	1.34
298.15	0.006	1494.67	1.34
298.15	0.008	1494.71	1.34
298.15	0.01	1494.75	1.34
298.15	0.012	1494.81	1.34
303.15	0	1504.71	1.34
303.15	0.002	1504.71	1.34
303.15	0.004	1504.73	1.34
303.15	0.006	1504.74	1.34
303.15	0.008	1504.76	1.34
303.15	0.01	1504.77	1.34
303.15	0.012	1504.79	1.34
308.15	0	1516.25	1.34
308.15	0.002	1516.25	1.34
308.15	0.004	1516.26	1.34
308.15	0.006	1516.29	1.34
308.15	0.008	1516.31	1.34
308.15	0.01	1516.33	1.34
308.15	0.012	1516.36	1.34

System: citric acid + water + ytterbium trichloride; phases: Liquid
Fixed: Pressure, kPa = 100
Fixed: Solvent: Molality, mol/kg of citric acid = 0.005
Property: Viscosity, Pa*s (Liquid); method: Capillary tube (Ostwald; Ubbelohde) method
Temperature, K	Molality, mol/kg of ytterbium trichloride	Viscosity, Pa*s	uncertainty
298.15	0	0.0009011	8.3e-06
298.15	0.002	0.0009255	8.5e-06
298.15	0.004	0.0009342	8.5e-06
298.15	0.006	0.0009417	8.6e-06
298.15	0.008	0.0009484	8.6e-06
298.15	0.01	0.0009571	8.7e-06
298.15	0.012	0.0009677	8.7e-06
303.15	0	0.0008009	7.8e-06
303.15	0.002	0.0008082	7.8e-06
303.15	0.004	0.0008127	7.8e-06
303.15	0.006	0.0008164	7.8e-06
303.15	0.008	0.0008204	7.9e-06
303.15	0.01	0.0008238	7.9e-06
303.15	0.012	0.0008288	7.9e-06
308.15	0	0.0007225	7.3e-06
308.15	0.002	0.0007289	7.3e-06
308.15	0.004	0.0007309	7.4e-06
308.15	0.006	0.0007328	7.4e-06
308.15	0.008	0.0007344	7.4e-06
308.15	0.01	0.0007365	7.4e-06
308.15	0.012	0.0007385	7.4e-06

System: citric acid + water + ytterbium trichloride; phases: Liquid, Air at 1 atmosphere
Fixed: Solvent: Molality, mol/kg of citric acid = 0.005
Property: Surface tension liquid-gas, N/m (Liquid); method: Capillary rise
Temperature, K	Molality, mol/kg of ytterbium trichloride	Surface tension liquid-gas, N/m	uncertainty
298.15	0	0.0716	0.00078
298.15	0.002	0.07286	0.00079
298.15	0.004	0.0729	0.00079
298.15	0.006	0.07294	0.00079
298.15	0.008	0.07298	0.00079
298.15	0.01	0.07302	0.00079
298.15	0.012	0.07305	0.00079
303.15	0	0.07084	0.00078
303.15	0.002	0.07208	0.00078
303.15	0.004	0.07211	0.00078
303.15	0.006	0.07215	0.00078
303.15	0.008	0.07219	0.00078
303.15	0.01	0.07222	0.00078
303.15	0.012	0.07226	0.00078
308.15	0	0.07006	0.00078
308.15	0.002	0.07128	0.00078
308.15	0.004	0.07131	0.00078
308.15	0.006	0.07135	0.00078
308.15	0.008	0.07138	0.00078
308.15	0.01	0.07142	0.00078
308.15	0.012	0.07146	0.00078

System: citric acid + water + ytterbium trichloride; phases: Liquid
Fixed: Solvent: Molality, mol/kg of citric acid = 0.005
Fixed: Pressure, kPa = 100
Property: Electrical conductivity, S/m (Liquid); method: Alternating current cell with electrodes
Temperature, K	Molality, mol/kg of ytterbium trichloride	Electrical conductivity, S/m	uncertainty
298.15	0	4.5	1.2
298.15	0.002	12.6	1.2
298.15	0.004	12.7	1.2
298.15	0.006	12.9	1.2
298.15	0.008	17.9	1.2
298.15	0.01	18	1.2
298.15	0.012	18.7	1.2
303.15	0	4.8	1.2
303.15	0.002	23	1.2
303.15	0.004	23.4	1.2
303.15	0.006	24.7	1.2
303.15	0.008	27.5	1.2
303.15	0.01	27.8	1.2
303.15	0.012	29.8	1.2
308.15	0	5	1.2
308.15	0.002	31.8	1.2
308.15	0.004	32.1	1.2
308.15	0.006	34.2	1.2
308.15	0.008	35.6	1.2
308.15	0.01	36.8	1.2
308.15	0.012	39.2	1.2

System: D-sucrose + water; phases: Liquid
Fixed: Molality, mol/kg of D-sucrose = 1.27
Fixed: Pressure, kPa = 100
Property: Mass density, kg/m3 (Liquid); method: Vibrating tube method
Temperature, K	Mass density, kg/m3	uncertainty
298.15	1127.287	0.251
303.15	1125.288	0.25
308.15	1123.113	0.248

System: D-sucrose + water; phases: Liquid
Fixed: Molality, mol/kg of D-sucrose = 1.27
Fixed: Pressure, kPa = 100
Property: Speed of sound, m/s (Liquid); method: Sing-around technique in a fixed-path interferometer
Temperature, K	Speed of sound, m/s	uncertainty
298.15	1607.76	1.11
303.15	1615.43	1.11
308.15	1621.81	1.11

System: D-sucrose + water; phases: Liquid
Fixed: Molality, mol/kg of D-sucrose = 1.27
Fixed: Pressure, kPa = 100
Property: Viscosity, Pa*s (Liquid); method: Capillary tube (Ostwald; Ubbelohde) method
Temperature, K	Viscosity, Pa*s	uncertainty
298.15	0.0027268	1.79e-05
303.15	0.002386	1.58e-05
308.15	0.0020853	1.39e-05

System: D-sucrose + water; phases: Liquid, Air at 1 atmosphere
Fixed: Molality, mol/kg of D-sucrose = 1.27
Property: Surface tension liquid-gas, N/m (Liquid); method: Capillary rise
Temperature, K	Surface tension liquid-gas, N/m	uncertainty
298.15	0.04279	0.0007
303.15	0.04213	0.0007
308.15	0.04087	0.0007

System: citric acid + water + 1-ethyl-3-methylimidazolium chloride; phases: Liquid
Fixed: Pressure, kPa = 100
Fixed: Temperature, K = 298.15
Fixed: Solvent: Molality, mol/kg of citric acid = 0.005
Property: Mass density, kg/m3 (Liquid); method: Vibrating tube method
Molality, mol/kg of 1-ethyl-3-methylimidazolium chloride	Mass density, kg/m3	uncertainty
0	997.455	0.313
0.001	997.475	0.313

System: citric acid + water + 1-butyl-3-methylimidazolium chloride; phases: Liquid
Property: Mass density, kg/m3 (Liquid); method: Vibrating tube method
Molality, mol/kg of 1-butyl-3-methylimidazolium chloride	Temperature, K	Pressure, kPa	Solvent: Molality, mol/kg of citric acid	Mass density, kg/m3	uncertainty
0.001	298.15	100	0.005	997.466	0.313

System: citric acid + water + 1-hexyl-3-methylimidazolium chloride; phases: Liquid
Property: Mass density, kg/m3 (Liquid); method: Vibrating tube method
Molality, mol/kg of 1-hexyl-3-methylimidazolium chloride	Temperature, K	Pressure, kPa	Solvent: Molality, mol/kg of citric acid	Mass density, kg/m3	uncertainty
0.001	298.15	100	0.005	997.466	0.313

System: water + dysprosium(III) chloride + 1-hexyl-3-methylimidazolium chloride; phases: Liquid
Property: Mass density, kg/m3 (Liquid); method: Vibrating tube method
Molality, mol/kg of 1-hexyl-3-methylimidazolium chloride	Temperature, K	Pressure, kPa	Solvent: Molality, mol/kg of dysprosium(III) chloride	Mass density, kg/m3	uncertainty
0.001	298.15	100	0.005	998.15	0.52

System: water + dysprosium(III) chloride + 1-ethyl-3-methylimidazolium chloride; phases: Liquid
Fixed: Pressure, kPa = 100
Fixed: Temperature, K = 298.15
Fixed: Solvent: Molality, mol/kg of dysprosium(III) chloride = 0.005
Property: Mass density, kg/m3 (Liquid); method: Vibrating tube method
Molality, mol/kg of 1-ethyl-3-methylimidazolium chloride	Mass density, kg/m3	uncertainty
0	998.006	0.52
0.001	998.109	0.52

System: water + dysprosium(III) chloride + 1-butyl-3-methylimidazolium chloride; phases: Liquid
Property: Mass density, kg/m3 (Liquid); method: Vibrating tube method
Molality, mol/kg of 1-butyl-3-methylimidazolium chloride	Temperature, K	Pressure, kPa	Solvent: Molality, mol/kg of dysprosium(III) chloride	Mass density, kg/m3	uncertainty
0.001	298.15	100	0.005	998.089	0.52

System: water + erbium trichloride + 1-ethyl-3-methylimidazolium chloride; phases: Liquid
Fixed: Pressure, kPa = 100
Fixed: Temperature, K = 298.15
Fixed: Solvent: Molality, mol/kg of erbium trichloride = 0.005
Property: Mass density, kg/m3 (Liquid); method: Vibrating tube method
Molality, mol/kg of 1-ethyl-3-methylimidazolium chloride	Mass density, kg/m3	uncertainty
0	998.051	0.52
0.001	998.121	0.52

System: water + erbium trichloride + 1-butyl-3-methylimidazolium chloride; phases: Liquid
Property: Mass density, kg/m3 (Liquid); method: Vibrating tube method
Molality, mol/kg of 1-butyl-3-methylimidazolium chloride	Temperature, K	Pressure, kPa	Solvent: Molality, mol/kg of erbium trichloride	Mass density, kg/m3	uncertainty
0.001	298.15	100	0.005	997.556	0.519

System: water + erbium trichloride + 1-hexyl-3-methylimidazolium chloride; phases: Liquid
Property: Mass density, kg/m3 (Liquid); method: Vibrating tube method
Molality, mol/kg of 1-hexyl-3-methylimidazolium chloride	Temperature, K	Pressure, kPa	Solvent: Molality, mol/kg of erbium trichloride	Mass density, kg/m3	uncertainty
0.001	298.15	100	0.005	998.179	0.52

System: water + ytterbium trichloride + 1-ethyl-3-methylimidazolium chloride; phases: Liquid
Fixed: Pressure, kPa = 100
Fixed: Temperature, K = 298.15
Fixed: Solvent: Molality, mol/kg of ytterbium trichloride = 0.005
Property: Mass density, kg/m3 (Liquid); method: Vibrating tube method
Molality, mol/kg of 1-ethyl-3-methylimidazolium chloride	Mass density, kg/m3	uncertainty
0	998.121	0.52
0.001	998.256	0.52

System: water + ytterbium trichloride + 1-butyl-3-methylimidazolium chloride; phases: Liquid
Property: Mass density, kg/m3 (Liquid); method: Vibrating tube method
Molality, mol/kg of 1-butyl-3-methylimidazolium chloride	Temperature, K	Pressure, kPa	Solvent: Molality, mol/kg of ytterbium trichloride	Mass density, kg/m3	uncertainty
0.001	298.15	100	0.005	998.177	0.52

System: water + ytterbium trichloride + 1-hexyl-3-methylimidazolium chloride; phases: Liquid
Property: Mass density, kg/m3 (Liquid); method: Vibrating tube method
Molality, mol/kg of 1-hexyl-3-methylimidazolium chloride	Temperature, K	Pressure, kPa	Solvent: Molality, mol/kg of ytterbium trichloride	Mass density, kg/m3	uncertainty
0.001	298.15	100	0.005	998.499	0.52

System: citric acid + water; phases: Liquid
Fixed: Pressure, kPa = 100
Fixed: Molality, mol/kg of citric acid = 0.005
Property: Mass density, kg/m3 (Liquid); method: Vibrating tube method
Temperature, K	Mass density, kg/m3	uncertainty
298.15	997.455	0.05
303.15	996.059	0.045
308.15	994.427	0.051

System: citric acid + water; phases: Liquid
Fixed: Pressure, kPa = 100
Fixed: Molality, mol/kg of citric acid = 0.005
Property: Speed of sound, m/s (Liquid); method: Sing-around technique in a fixed-path interferometer
Temperature, K	Speed of sound, m/s	uncertainty
298.15	1494.6	0.86
303.15	1504.71	0.86
308.15	1516.25	0.87

System: citric acid + water; phases: Liquid
Fixed: Pressure, kPa = 100
Fixed: Molality, mol/kg of citric acid = 0.005
Property: Viscosity, Pa*s (Liquid); method: Capillary tube (Ostwald; Ubbelohde) method
Temperature, K	Viscosity, Pa*s	uncertainty
298.15	0.0009011	6.9e-06
303.15	0.0008009	6.6e-06
308.15	0.0007225	6.3e-06

System: citric acid + water; phases: Liquid, Air at 1 atmosphere
Fixed: Molality, mol/kg of citric acid = 0.005
Property: Surface tension liquid-gas, N/m (Liquid); method: Capillary rise
Temperature, K	Surface tension liquid-gas, N/m	uncertainty
298.15	0.0716	0.00069
303.15	0.07084	0.00069
308.15	0.07006	0.00069

System: citric acid + water; phases: Liquid
Fixed: Molality, mol/kg of citric acid = 0.005
Fixed: Pressure, kPa = 100
Property: Electrical conductivity, S/m (Liquid); method: Alternating current cell with electrodes
Temperature, K	Electrical conductivity, S/m	uncertainty
298.15	4.5	1.2
303.15	4.8	1.2
308.15	5	1.2

System: water + dysprosium(III) chloride; phases: Liquid
Property: Mass density, kg/m3 (Liquid); method: Vibrating tube method
Pressure, kPa	Temperature, K	Molality, mol/kg of dysprosium(III) chloride	Mass density, kg/m3	uncertainty
100	298.15	0.005	998.006	0.05

System: water + erbium trichloride; phases: Liquid
Property: Mass density, kg/m3 (Liquid); method: Vibrating tube method
Pressure, kPa	Temperature, K	Molality, mol/kg of erbium trichloride	Mass density, kg/m3	uncertainty
100	298.15	0.005	998.051	0.05

System: water + ytterbium trichloride; phases: Liquid
Property: Mass density, kg/m3 (Liquid); method: Vibrating tube method
Pressure, kPa	Temperature, K	Molality, mol/kg of ytterbium trichloride	Mass density, kg/m3	uncertainty
100	298.15	0.005	998.121	0.05
