Measured thermophysical data. Volumetric Properties of the D2EHPA-o-Xylene-Neodymium (Samarium, Europium, Gadolinium, Terbium, Dysprosium) Di(2-ethylhexyl)phosphate Systems at 298.15 K
Source: J. Chem. Eng. Data, 2018, 10.1021/acs.jced.8b00487
Compound 1: neodymium(III) bis(2-ethylhexyl) phosphate, C48H102NdO12P3, InChI=1S/3C16H35O4P.Nd/c3*1-5-9-11-15(7-3)13-19-21(17,18)20-14-16(8-4)12-10-6-2;/h3*15-16H,5-14H2,1-4H3,(H,17,18);/q;;;+3/p-3, purity 99%
Compound 2: samarium(III) bis(2-ethylhexyl) phosphate, C48H102O12P3Sm, InChI=1S/3C16H35O4P.Sm/c3*1-5-9-11-15(7-3)13-19-21(17,18)20-14-16(8-4)12-10-6-2;/h3*15-16H,5-14H2,1-4H3,(H,17,18);/q;;;+3/p-3, purity 99%
Compound 3: europium(III) bis(2-ethylhexyl) phosphate, C48H102EuO12P3, InChI=1S/3C16H35O4P.Eu/c3*1-5-9-11-15(7-3)13-19-21(17,18)20-14-16(8-4)12-10-6-2;/h3*15-16H,5-14H2,1-4H3,(H,17,18);/q;;;+3/p-3, purity 99%
Compound 4: gadolinium(III) bis(2-ethylhexyl) phosphate, C48H102GdO12P3, InChI=1S/3C16H35O4P.Gd/c3*1-5-9-11-15(7-3)13-19-21(17,18)20-14-16(8-4)12-10-6-2;/h3*15-16H,5-14H2,1-4H3,(H,17,18);/q;;;+3/p-3, purity 99%
Compound 5: terbium(III) bis(2-ethylhexyl) phosphate, C48H102O12P3Tb, InChI=1S/3C16H35O4P.Tb/c3*1-5-9-11-15(7-3)13-19-21(17,18)20-14-16(8-4)12-10-6-2;/h3*15-16H,5-14H2,1-4H3,(H,17,18);/q;;;+3/p-3, purity 99%
Compound 6: dysprosium(III) bis(2-ethylhexyl) phosphate, C48H102DyO12P3, InChI=1S/3C16H35O4P.Dy/c3*1-5-9-11-15(7-3)13-19-21(17,18)20-14-16(8-4)12-10-6-2;/h3*15-16H,5-14H2,1-4H3,(H,17,18);/q;;;+3/p-3, purity 99%
Compound 7: 1,2-dimethylbenzene, C8H10, InChI=1S/C8H10/c1-7-5-3-4-6-8(7)2/h3-6H,1-2H3, purity 99.8%
Compound 8: bis(2-ethylhexyl) hydrogen phosphate, C16H35O4P, InChI=1S/C16H35O4P/c1-5-9-11-15(7-3)13-19-21(17,18)20-14-16(8-4)12-10-6-2/h15-16H,5-14H2,1-4H3,(H,17,18), purity 97.9%

System: 1,2-dimethylbenzene; phases: Liquid
Property: Mass density, kg/m3 (Liquid); method: Vibrating tube method
Temperature, K	Pressure, kPa	Mass density, kg/m3	uncertainty
298.15	101.325	875.6	0.5

System: bis(2-ethylhexyl) hydrogen phosphate; phases: Liquid
Property: Mass density, kg/m3 (Liquid); method: Vibrating tube method
Temperature, K	Pressure, kPa	Mass density, kg/m3	uncertainty
298.15	101.325	969.1	0.6

System: bis(2-ethylhexyl) hydrogen phosphate; phases: Liquid
Fixed: Temperature, K = 298.15
Fixed: Pressure, kPa = 101
Property: Mass density, kg/m3 (Liquid); method: Vibrating tube method
Mass density, kg/m3	uncertainty
971	2
970.5	2

System: bis(2-ethylhexyl) hydrogen phosphate + neodymium(III) bis(2-ethylhexyl) phosphate; phases: Liquid
Fixed: Temperature, K = 298.15
Fixed: Pressure, kPa = 101
Property: Mass density, kg/m3 (Liquid); method: Vibrating tube method
Mole fraction of neodymium(III) bis(2-ethylhexyl) phosphate	Mass density, kg/m3	uncertainty
0	971	2
0.01187	976.8	2
0.02653	983.6	2.5
0.04214	990.4	2
0.05317	994.9	2
0.0837	1006.6	2
0	970.5	2
0.01427	977.3	2.1
0.03921	988.6	2
0.02822	983.8	2
0.04708	992.1	2
0.0729	1002.3	2
0.04446	991	2
0.07322	1002.5	2
0	969.1	2
0.01364	975.7	2
0.0402	987.6	2
0.02626	981.7	2.5
0.04955	991.6	2
0.07707	1002.6	2

System: bis(2-ethylhexyl) hydrogen phosphate + samarium(III) bis(2-ethylhexyl) phosphate; phases: Liquid
Fixed: Temperature, K = 298.15
Fixed: Pressure, kPa = 101
Property: Mass density, kg/m3 (Liquid); method: Vibrating tube method
Mole fraction of samarium(III) bis(2-ethylhexyl) phosphate	Mass density, kg/m3	uncertainty
0	971	2
0.00583	974	2
0.01616	978.9	2
0.03185	986.2	2
0.05017	993.9	2
0.06022	998.2	2
0	970.5	2
0.01288	976.9	2
0.02646	983.1	2
0.03372	986.4	2
0.05958	997.2	2
0.07053	1001.8	2

System: bis(2-ethylhexyl) hydrogen phosphate + europium(III) bis(2-ethylhexyl) phosphate; phases: Liquid
Fixed: Temperature, K = 298.15
Fixed: Pressure, kPa = 101
Property: Mass density, kg/m3 (Liquid); method: Vibrating tube method
Mole fraction of europium(III) bis(2-ethylhexyl) phosphate	Mass density, kg/m3	uncertainty
0	970.5	2
0.01457	977.5	2
0.04158	989.9	2
0.03221	985.6	2
0.05518	995.6	2
0.07111	1001.7	2

System: bis(2-ethylhexyl) hydrogen phosphate + gadolinium(III) bis(2-ethylhexyl) phosphate; phases: Liquid
Fixed: Temperature, K = 298.15
Fixed: Pressure, kPa = 101
Property: Mass density, kg/m3 (Liquid); method: Vibrating tube method
Mole fraction of gadolinium(III) bis(2-ethylhexyl) phosphate	Mass density, kg/m3	uncertainty
0	970.5	2
0.01568	978.4	2
0.0349	987.4	2
0.04335	991.2	2
0.05925	997.8	2

System: bis(2-ethylhexyl) hydrogen phosphate + terbium(III) bis(2-ethylhexyl) phosphate; phases: Liquid
Fixed: Temperature, K = 298.15
Fixed: Pressure, kPa = 101
Property: Mass density, kg/m3 (Liquid); method: Vibrating tube method
Mole fraction of terbium(III) bis(2-ethylhexyl) phosphate	Mass density, kg/m3	uncertainty
0	970.5	2
0.00621	973.7	2
0.0103	975.8	2
0.01167	976.6	2
0.01875	980	2
0.02771	984.4	2
0.04671	993.3	2

System: bis(2-ethylhexyl) hydrogen phosphate + dysprosium(III) bis(2-ethylhexyl) phosphate; phases: Liquid
Fixed: Temperature, K = 298.15
Fixed: Pressure, kPa = 101
Property: Mass density, kg/m3 (Liquid); method: Vibrating tube method
Mole fraction of dysprosium(III) bis(2-ethylhexyl) phosphate	Mass density, kg/m3	uncertainty
0	971	2
0.0039	973.1	2
0.00883	975.7	2
0.02055	981.6	2
0.03494	988.7	2
0.04879	995.1	2

System: bis(2-ethylhexyl) hydrogen phosphate + 1,2-dimethylbenzene + neodymium(III) bis(2-ethylhexyl) phosphate; phases: Liquid
Fixed: Temperature, K = 298.15
Fixed: Pressure, kPa = 101
Property: Mass density, kg/m3 (Liquid); method: Vibrating tube method
Mole fraction of 1,2-dimethylbenzene	Mole fraction of neodymium(III) bis(2-ethylhexyl) phosphate	Mass density, kg/m3	uncertainty
0.97603	0	882	4
0.97581	0.00023	886.5	5.6
0.92752	0	892.9	4
0.92722	0.00029	897.9	5.3
0.92713	0.00042	900.2	5.2
0.73128	0	924.4	4
0.7311	0.00032	928.2	5
0.73067	0.00085	934.2	4.6
0.73043	0.00122	938.3	4.5
0.73002	0.00176	943.7	4.5
0.50024	0	946.2	4
0.49988	0.00084	953	4.3
0.49905	0.00249	965.1	4.2
0.49821	0.00402	975.2	4.2

System: bis(2-ethylhexyl) hydrogen phosphate + 1,2-dimethylbenzene + gadolinium(III) bis(2-ethylhexyl) phosphate; phases: Liquid
Fixed: Temperature, K = 298.15
Fixed: Pressure, kPa = 101
Property: Mass density, kg/m3 (Liquid); method: Vibrating tube method
Mole fraction of 1,2-dimethylbenzene	Mole fraction of gadolinium(III) bis(2-ethylhexyl) phosphate	Mass density, kg/m3	uncertainty
0.94065	0	890	4
0.93899	0.00176	893.4	4
0.93706	0.00379	897.2	4
0.8195	0	912.4	4
0.81773	0.00211	915.5	4
0.81585	0.00439	918.9	4
0.81148	0.00975	926.3	4
0.51983	0	944.7	4
0.51762	0.00419	948.5	4
0.51561	0.0079	951.8	4
0.51231	0.01424	957	4
0.50339	0.03146	970.1	4

System: bis(2-ethylhexyl) hydrogen phosphate + 1,2-dimethylbenzene + europium(III) bis(2-ethylhexyl) phosphate; phases: Liquid
Fixed: Temperature, K = 298.15
Fixed: Pressure, kPa = 101
Property: Mass density, kg/m3 (Liquid); method: Vibrating tube method
Mole fraction of 1,2-dimethylbenzene	Mole fraction of europium(III) bis(2-ethylhexyl) phosphate	Mass density, kg/m3	uncertainty
0.97603	0	882	4
0.97381	0.00226	886.5	4
0.92747	0	893.2	4
0.92559	0.00203	896.6	4
0.92363	0.00413	900.1	4
0.92241	0.00546	902.4	4
0.92059	0.00742	905.6	4
0.91806	0.01015	910.1	4
0.82036	0	912.2	4
0.81812	0.00267	916	4
0.81294	0.00904	924.5	4
0.80881	0.01409	931	4
0.73128	0	924.4	4
0.72942	0.00252	927.7	4
0.72712	0.00575	931.5	4
0.72351	0.01066	937	4
0.50024	0	946.1	4
0.49891	0.00266	948.5	4
0.49671	0.00699	952.1	4
0.4942	0.01215	956	4
0.49264	0.01526	958.4	4
0.49055	0.01932	961.5	4

System: bis(2-ethylhexyl) hydrogen phosphate + 1,2-dimethylbenzene + terbium(III) bis(2-ethylhexyl) phosphate; phases: Liquid
Fixed: Temperature, K = 298.15
Fixed: Pressure, kPa = 101
Property: Mass density, kg/m3 (Liquid); method: Vibrating tube method
Mole fraction of 1,2-dimethylbenzene	Mole fraction of terbium(III) bis(2-ethylhexyl) phosphate	Mass density, kg/m3	uncertainty
0.97589	0	882	4
0.97475	0.00116	884.7	4
0.94065	0	890.3	4
0.93889	0.00187	893.9	4
0.9373	0.00355	897.2	4
0.8195	0	912.6	4
0.81755	0.00246	916.3	4
0.81588	0.00449	919.3	4
0.80891	0.01296	930.9	4
0.52008	0	944.6	4
0.5179	0.00409	948.3	4
0.51673	0.00632	950.3	4
0.51216	0.01523	957.9	4

System: bis(2-ethylhexyl) hydrogen phosphate + 1,2-dimethylbenzene + samarium(III) bis(2-ethylhexyl) phosphate; phases: Liquid
Fixed: Temperature, K = 298.15
Fixed: Pressure, kPa = 101
Property: Mass density, kg/m3 (Liquid); method: Vibrating tube method
Mole fraction of 1,2-dimethylbenzene	Mole fraction of samarium(III) bis(2-ethylhexyl) phosphate	Mass density, kg/m3	uncertainty
0.97602	0	881.8	4
0.97544	0.00059	883.1	4
0.92752	0	892.9	4
0.92528	0.00242	897.3	4
0.92387	0.00393	900	4
0.92261	0.00529	902.3	4
0.91982	0.0083	906.7	4
0.82034	0	912.4	4
0.81421	0.00747	922.8	4
0.80621	0.01722	935.2	4
0.50024	0	946.2	4
0.49506	0.01035	954.9	4
0.49251	0.01544	958.9	4
0.48811	0.02425	965.5	4

System: bis(2-ethylhexyl) hydrogen phosphate + 1,2-dimethylbenzene + dysprosium(III) bis(2-ethylhexyl) phosphate; phases: Liquid
Fixed: Temperature, K = 298.15
Fixed: Pressure, kPa = 101
Property: Mass density, kg/m3 (Liquid); method: Vibrating tube method
Mole fraction of 1,2-dimethylbenzene	Mole fraction of dysprosium(III) bis(2-ethylhexyl) phosphate	Mass density, kg/m3	uncertainty
0.97603	0	881.9	4
0.9752	0.00083	883.7	4
0.97465	0.00139	884.9	4
0.94061	0	890.1	4
0.93886	0.00189	893.8	4
0.93715	0.00369	897.3	4
0.9358	0.00515	900	4
0.81974	0	912.5	4
0.81763	0.00252	916.4	4
0.81588	0.00469	919.6	4
0.81221	0.00917	925.8	4
0.52008	0	944.6	4
0.51752	0.00481	949.3	4
0.51622	0.00737	951.5	4
0.5109	0.01773	960.4	4
0.50535	0.02835	969.1	4

System: bis(2-ethylhexyl) hydrogen phosphate + 1,2-dimethylbenzene; phases: Liquid
Fixed: Temperature, K = 298.15
Fixed: Pressure, kPa = 101
Property: Mass density, kg/m3 (Liquid); method: Vibrating tube method
Mole fraction of 1,2-dimethylbenzene	Mass density, kg/m3	uncertainty
0.97603	882	4
0.92752	892.9	4
0.73128	924.4	4
0.50024	946.2	4
0.94065	890	4
0.8195	912.4	4
0.51983	944.7	4
0.92747	893.2	4
0.82036	912.2	4
0.50024	946.1	4
0.97589	882	4
0.94065	890.3	4
0.8195	912.6	4
0.52008	944.6	4
0.97602	881.8	4
0.82034	912.4	4
0.97603	881.9	4
0.94061	890.1	4
0.81974	912.5	4
