Measured thermophysical data. Solubilities of Adipic Acid in Cyclohexanol + Cyclohexanone Mixtures and Cyclohexanone + Cyclohexane Mixtures
Source: J. Chem. Eng. Data, 2016, 10.1021/acs.jced.5b00880
Compound 1: 1,6-hexanedioic acid, C6H10O4, InChI=1S/C6H10O4/c7-5(8)3-1-2-4-6(9)10/h1-4H2,(H,7,8)(H,9,10), purity 99.5%
Compound 2: cyclohexanol, C6H12O, InChI=1S/C6H12O/c7-6-4-2-1-3-5-6/h6-7H,1-5H2, purity 98%
Compound 3: cyclohexanone, C6H10O, InChI=1S/C6H10O/c7-6-4-2-1-3-5-6/h1-5H2, purity 99.5%
Compound 4: cyclohexane, C6H12, InChI=1S/C6H12/c1-2-4-6-5-3-1/h1-6H2, purity 99.5%
Compound 5: water, H2O, InChI=1S/H2O/h1H2, purity 99.8%

System: 1,6-hexanedioic acid; phases: Crystal, Liquid, Air at 1 atmosphere
Property: Normal melting temperature, K (Crystal); method: DTA
Normal melting temperature, K	uncertainty
425.5	1.1

System: cyclohexanol + cyclohexanone + 1,6-hexanedioic acid; phases: Liquid, Crystal
Fixed: Pressure, kPa = 100
Property: Mole fraction of 1,6-hexanedioic acid (Liquid); method: Titration method
Temperature, K	Solvent: Mass fraction of cyclohexanone	Mole fraction of 1,6-hexanedioic acid	uncertainty
303	0	0.02276	0.00456
313	0	0.03601	0.00721
323	0	0.05862	0.01174
333	0	0.08728	0.01747
343	0	0.11372	0.02275
353	0	0.14988	0.02999
303	0.4	0.04254	0.00852
313	0.4	0.06521	0.01305
323	0.4	0.097	0.01941
333	0.4	0.12688	0.02539
343	0.4	0.16311	0.03263
353	0.4	0.19436	0.03888
303	0.8	0.02861	0.00577
313	0.8	0.04433	0.00894
323	0.8	0.06304	0.01272
333	0.8	0.08924	0.01796
343	0.8	0.12101	0.02433
353	0.8	0.15117	0.03031
303	0.2	0.04003	0.00802
313	0.2	0.06023	0.01206
323	0.2	0.08425	0.01686
333	0.2	0.11242	0.0225
343	0.2	0.14548	0.02911
353	0.2	0.18012	0.03603
303	0.6	0.03499	0.00702
313	0.6	0.05356	0.01074
323	0.6	0.07802	0.01565
333	0.6	0.10537	0.02111
343	0.6	0.13804	0.02765
353	0.6	0.17054	0.03414
303	1	0.01803	0.00361
313	1	0.02555	0.00511
323	1	0.03747	0.0075
333	1	0.05722	0.01145
343	1	0.07728	0.01547
353	1	0.12025	0.02407

System: cyclohexanone + cyclohexane + 1,6-hexanedioic acid; phases: Liquid, Crystal
Fixed: Pressure, kPa = 100
Property: Mole fraction of 1,6-hexanedioic acid (Liquid); method: titration and IR spectroscopy
Temperature, K	Solvent: Mass fraction of cyclohexanone	Mole fraction of 1,6-hexanedioic acid	uncertainty
313	0.1	0.0002	5e-05
323	0.1	0.00034	8e-05
333	0.1	0.00045	0.0001
343	0.1	0.00055	0.00013
353	0.1	0.00079	0.00021
305.6	0.5	0.00301	0.00086
313	0.5	0.00482	0.00118
323	0.5	0.00694	0.00168
333	0.5	0.01084	0.00286
342.5	0.5	0.01541	0.00398
348	0.5	0.02115	0.00553
353	0.5	0.02762	0.0072
358	0.5	0.03781	0.009
363	0.5	0.04954	0.01244
313	0.2	0.00054	0.00013
323	0.2	0.00086	0.00021
333	0.2	0.00129	0.0003
343	0.2	0.00175	0.00042
353	0.2	0.00317	0.00077
303	0.3	0.00108	0.00023
313	0.3	0.00152	0.00034
323	0.3	0.00226	0.00052
333	0.3	0.003	0.00072
343	0.3	0.0044	0.00115
348	0.3	0.00623	0.00178
353	0.3	0.00808	0.00218
358	0.3	0.01174	0.00376
305.2	0.4	0.00167	0.00046
313	0.4	0.00226	0.0006
323	0.4	0.00364	0.00092
334	0.4	0.00586	0.0015
343	0.4	0.00994	0.00241
348	0.4	0.01326	0.00321
353.7	0.4	0.01983	0.00462
358	0.4	0.02803	0.00643
303	0.6	0.00428	0.00139
313.5	0.6	0.0069	0.00165
323	0.6	0.00997	0.00244
333	0.6	0.01789	0.00435
343	0.6	0.02668	0.00644
348	0.6	0.03693	0.00852
354	0.6	0.05103	0.0117
358	0.6	0.06046	0.01367
363	0.6	0.07454	0.01628
368	0.6	0.09125	0.01854
303.4	0.8	0.01055	0.0028
313	0.8	0.01553	0.00433
323	0.8	0.02387	0.00625
333	0.8	0.03421	0.0088
343	0.8	0.05339	0.01335
348	0.8	0.06639	0.01657
353	0.8	0.08039	0.01937
357.5	0.8	0.09631	0.02287
363	0.8	0.11368	0.02642
368	0.8	0.12949	0.02944
373	0.8	0.15296	0.03375
378.5	0.8	0.19714	0.0435
303	0.9	0.015	0.00371
313	0.9	0.02245	0.00525
323	0.9	0.03153	0.00731
333	0.9	0.04762	0.01141
343	0.9	0.06931	0.01532
347.5	0.9	0.08447	0.01852
352	0.9	0.10112	0.02296
357.3	0.9	0.12205	0.02676
363	0.9	0.14167	0.0321
368.6	0.9	0.1607	0.03657
373	0.9	0.18552	0.04245
378.5	0.9	0.23528	0.0514
303	0.7	0.00733	0.00196
313	0.7	0.00987	0.00271
323	0.7	0.01474	0.00415
333	0.7	0.0246	0.006
343	0.7	0.03597	0.00913
348	0.7	0.04457	0.01086
353	0.7	0.05932	0.01368
358	0.7	0.07309	0.01658
363	0.7	0.08564	0.01901
368	0.7	0.1001	0.02159
373	0.7	0.12635	0.02765
303.5	1	0.01869	0.00374
313	1	0.02556	0.00512
323	1	0.03754	0.00752
333	1	0.05741	0.01149
338	1	0.06668	0.01334
343	1	0.07751	0.01551
348	1	0.09436	0.01889
353.3	1	0.12168	0.02435
356.5	1	0.1331	0.02664
361	1	0.15497	0.03101
366	1	0.17896	0.03581
371	1	0.21421	0.04287
376	1	0.25346	0.05071
381	1	0.28502	0.05703
386	1	0.3331	0.06666
388.8	1	0.36548	0.07314

System: cyclohexanol + 1,6-hexanedioic acid; phases: Liquid, Crystal
Fixed: Pressure, kPa = 100
Property: Mole fraction of 1,6-hexanedioic acid (Liquid); method: titration and IR spectroscopy
Temperature, K	Mole fraction of 1,6-hexanedioic acid	uncertainty
304.2	0.02279	0.0014
313	0.03603	0.0022
323	0.05878	0.00357
333.3	0.08765	0.00529
343	0.11418	0.00689
353	0.15095	0.0091
358.2	0.17577	0.0106
363	0.19943	0.01203
367.2	0.22851	0.0138
373	0.27176	0.01641
377.8	0.32425	0.0196
383	0.38553	0.02328
388	0.45335	0.02735

System: cyclohexanone + 1,6-hexanedioic acid; phases: Liquid, Crystal
Fixed: Pressure, kPa = 100
Property: Mole fraction of 1,6-hexanedioic acid (Liquid); method: titration and IR spectroscopy
Temperature, K	Mole fraction of 1,6-hexanedioic acid	uncertainty
303.5	0.01869	0.00113
313	0.02556	0.00155
323	0.03754	0.00228
333	0.05741	0.00347
338	0.06668	0.00402
343	0.07751	0.00469
348	0.09436	0.00573
353.3	0.12168	0.00736
356.5	0.1331	0.00804
361	0.15497	0.00935
366	0.17896	0.01081
371	0.21421	0.01295
376	0.25346	0.01528
381	0.28502	0.01719
386	0.3331	0.0201
388.8	0.36548	0.02206

System: 1,6-hexanedioic acid + water; phases: Liquid, Crystal
Fixed: Pressure, kPa = 100
Property: Mole fraction of 1,6-hexanedioic acid (Liquid); method: Titration method
Temperature, K	Mole fraction of 1,6-hexanedioic acid	uncertainty
303.5	0.00412	0.00083
313.5	0.00776	0.00155
323.6	0.01289	0.00258
333.5	0.02508	0.00503
343.5	0.04449	0.00891
348.5	0.05891	0.01181
353.5	0.08225	0.01648
357.5	0.1013	0.02028
