Measured thermophysical data. Calorimetric Properties and Solubility in Five Pure Organic Solvents of N-Methyl-d-Glucamine (Meglumine)
Source: J. Chem. Eng. Data, 2016, 10.1021/acs.jced.5b00816
Compound 1: (2R,3R,4R,5S)-6-(methylamino)hexane-1,2,3,4,5-pentaol, C7H17NO5, InChI=1S/C7H17NO5/c1-8-2-4(10)6(12)7(13)5(11)3-9/h4-13H,2-3H2,1H3/t4-,5+,6+,7+/m0/s1, purity 99%
Compound 2: methanol, CH4O, InChI=1S/CH4O/c1-2/h2H,1H3, purity 99.9%
Compound 3: ethanol, C2H6O, InChI=1S/C2H6O/c1-2-3/h3H,2H2,1H3, purity 99.7%
Compound 4: propan-1-ol, C3H8O, InChI=1S/C3H8O/c1-2-3-4/h4H,2-3H2,1H3, purity 99.9%
Compound 5: propan-2-ol, C3H8O, InChI=1S/C3H8O/c1-3(2)4/h3-4H,1-2H3, purity 99.8%
Compound 6: acetonitrile, C2H3N, InChI=1S/C2H3N/c1-2-3/h1H3, purity 99.9%

System: (2R,3R,4R,5S)-6-(methylamino)hexane-1,2,3,4,5-pentaol; phases: Crystal, Liquid, Air at 1 atmosphere
Property: Molar enthalpy of transition or fusion, kJ/mol (Crystal); method: DSC:UFactor:16
Molar enthalpy of transition or fusion, kJ/mol	uncertainty
51.3	17.1

System: (2R,3R,4R,5S)-6-(methylamino)hexane-1,2,3,4,5-pentaol; phases: Crystal, Liquid
Property: Solid-liquid equilibrium temperature, K (Crystal); method: DTA
Pressure, kPa	Solid-liquid equilibrium temperature, K	uncertainty
101	400.9	0.3

System: (2R,3R,4R,5S)-6-(methylamino)hexane-1,2,3,4,5-pentaol; phases: Crystal
Fixed: Pressure, kPa = 101.325
Property: Molar heat capacity at constant pressure, J/K/mol (Crystal); method: SDSC:UFactor:16
Temperature, K	Molar heat capacity at constant pressure, J/K/mol	uncertainty
290	322	80
295	327	81
300	333	83
305	338	84
310	343	85
315	348	86
320	353	88
325	358	89
330	362	90
335	367	91
340	372	92
345	377	93
350	382	95
355	387	96
360	392	97
365	396	98
370	401	99
375	406	101
380	411	102

System: (2R,3R,4R,5S)-6-(methylamino)hexane-1,2,3,4,5-pentaol; phases: Metastable liquid
Fixed: Pressure, kPa = 101.325
Property: Molar heat capacity at constant pressure, J/K/mol (Metastable liquid); method: SDSC:UFactor:16
Temperature, K	Molar heat capacity at constant pressure, J/K/mol	uncertainty
380	662	164
385	664	165
390	666	165
395	668	166
400	670	166
405	671	166
410	672	167
415	673	167
420	673	167
425	674	167
430	676	168
435	678	168
440	678	168

System: methanol + (2R,3R,4R,5S)-6-(methylamino)hexane-1,2,3,4,5-pentaol; phases: Liquid, Crystal
Fixed: Pressure, kPa = 100
Property: Mole fraction of (2R,3R,4R,5S)-6-(methylamino)hexane-1,2,3,4,5-pentaol (Liquid); method: gravimetric
Temperature, K	Mole fraction of (2R,3R,4R,5S)-6-(methylamino)hexane-1,2,3,4,5-pentaol	uncertainty
283.15	0.0019	0.00015
293.15	0.00275	0.00022
303.15	0.00443	0.00035
313.15	0.00721	0.00058
323.15	0.0122	0.00098

System: ethanol + (2R,3R,4R,5S)-6-(methylamino)hexane-1,2,3,4,5-pentaol; phases: Liquid, Crystal
Fixed: Pressure, kPa = 100
Property: Mole fraction of (2R,3R,4R,5S)-6-(methylamino)hexane-1,2,3,4,5-pentaol (Liquid); method: gravimetric
Temperature, K	Mole fraction of (2R,3R,4R,5S)-6-(methylamino)hexane-1,2,3,4,5-pentaol	uncertainty
283.15	0.00041	3e-05
293.15	0.00071	6e-05
303.15	0.00109	9e-05
313.15	0.00184	0.00015
323.15	0.00349	0.00028

System: propan-1-ol + (2R,3R,4R,5S)-6-(methylamino)hexane-1,2,3,4,5-pentaol; phases: Liquid, Crystal
Fixed: Pressure, kPa = 100
Property: Mole fraction of (2R,3R,4R,5S)-6-(methylamino)hexane-1,2,3,4,5-pentaol (Liquid); method: gravimetric
Temperature, K	Mole fraction of (2R,3R,4R,5S)-6-(methylamino)hexane-1,2,3,4,5-pentaol	uncertainty
283.15	0.00023	2e-05
293.15	0.00043	3e-05
303.15	0.00065	5e-05
313.15	0.00113	9e-05
323.15	0.00212	0.00017

System: propan-2-ol + (2R,3R,4R,5S)-6-(methylamino)hexane-1,2,3,4,5-pentaol; phases: Liquid, Crystal
Fixed: Pressure, kPa = 100
Property: Mole fraction of (2R,3R,4R,5S)-6-(methylamino)hexane-1,2,3,4,5-pentaol (Liquid); method: gravimetric
Temperature, K	Mole fraction of (2R,3R,4R,5S)-6-(methylamino)hexane-1,2,3,4,5-pentaol	uncertainty
283.15	0.00016	1e-05
293.15	0.00026	2e-05
303.15	0.00058	5e-05
313.15	0.00101	8e-05
323.15	0.00196	0.00016

System: acetonitrile + (2R,3R,4R,5S)-6-(methylamino)hexane-1,2,3,4,5-pentaol; phases: Liquid, Crystal
Fixed: Pressure, kPa = 100
Property: Mole fraction of (2R,3R,4R,5S)-6-(methylamino)hexane-1,2,3,4,5-pentaol (Liquid); method: gravimetric
Temperature, K	Mole fraction of (2R,3R,4R,5S)-6-(methylamino)hexane-1,2,3,4,5-pentaol	uncertainty
283.15	2e-05	1e-05
303.15	5e-05	1e-05
313.15	7e-05	1e-05
323.15	0.00016	1e-05
