Measured thermophysical data. Measurement and Correlation of the Solubility of Dienogest in Twelve Pure and Water + Methanol Binary Solvents at Temperatures from 273.15 to 318.15 K
Source: J. Chem. Eng. Data, 2019, 10.1021/acs.jced.9b00696
Compound 1: dienogest, C20H25NO2, InChI=1S/C20H25NO2/c1-19-8-6-16-15-5-3-14(22)12-13(15)2-4-17(16)18(19)7-9-20(19,23)10-11-21/h12,17-18,23H,2-10H2,1H3/t17-,18+,19+,20-/m1/s1, purity 99%
Compound 2: 2-methoxy-2-methylpropane, C5H12O, InChI=1S/C5H12O/c1-5(2,3)6-4/h1-4H3, purity 99.5%
Compound 3: propan-1-ol, C3H8O, InChI=1S/C3H8O/c1-2-3-4/h4H,2-3H2,1H3, purity 99.5%
Compound 4: tetrahydrofuran, C4H8O, InChI=1S/C4H8O/c1-2-4-5-3-1/h1-4H2, purity 99.5%
Compound 5: ethanol, C2H6O, InChI=1S/C2H6O/c1-2-3/h3H,2H2,1H3, purity 99.5%
Compound 6: ethyl acetate, C4H8O2, InChI=1S/C4H8O2/c1-3-6-4(2)5/h3H2,1-2H3, purity 99.5%
Compound 7: propan-2-ol, C3H8O, InChI=1S/C3H8O/c1-3(2)4/h3-4H,1-2H3, purity 99.5%
Compound 8: acetone, C3H6O, InChI=1S/C3H6O/c1-3(2)4/h1-2H3, purity 99.5%
Compound 9: acetonitrile, C2H3N, InChI=1S/C2H3N/c1-2-3/h1H3, purity 99.5%
Compound 10: dimethylformamide, C3H7NO, InChI=1S/C3H7NO/c1-4(2)3-5/h3H,1-2H3, purity 99.5%
Compound 11: methanol, CH4O, InChI=1S/CH4O/c1-2/h2H,1H3, purity 99.5%
Compound 12: water, H2O, InChI=1S/H2O/h1H2, purity 99.8%

System: dienogest; phases: Crystal, Liquid, Air at 1 atmosphere
Property: Triple point temperature, K (Crystal); method: DSC
Triple point temperature, K	uncertainty
485.01	0.81

System: dienogest; phases: Crystal, Liquid, Air at 1 atmosphere
Property: Molar enthalpy of transition or fusion, kJ/mol (Crystal); method: DSC
Molar enthalpy of transition or fusion, kJ/mol	uncertainty
30.25	1.35

System: dienogest + 2-methoxy-2-methylpropane; phases: Liquid, Crystal
Fixed: Pressure, kPa = 100
Property: Mole fraction of dienogest (Liquid); method: Chromatography
Temperature, K	Mole fraction of dienogest	uncertainty
273.15	0.000258	0.000155
278.15	0.000281	0.000169
283.15	0.000302	0.000181
288.15	0.000327	0.000196
293.15	0.000355	0.000213
298.15	0.000384	0.00023
303.15	0.000416	0.00025
308.15	0.00045	0.00027
313.15	0.000489	0.000293
318.15	0.000531	0.000319

System: dienogest + propan-1-ol; phases: Liquid, Crystal
Fixed: Pressure, kPa = 100
Property: Mole fraction of dienogest (Liquid); method: Chromatography
Temperature, K	Mole fraction of dienogest	uncertainty
273.15	0.00136	0.00082
278.15	0.00161	0.00097
283.15	0.00187	0.00112
288.15	0.00219	0.00131
293.15	0.00256	0.00154
298.15	0.00298	0.00179
303.15	0.00345	0.00207
308.15	0.00399	0.00239
313.15	0.00462	0.00277
318.15	0.00532	0.00319

System: dienogest + tetrahydrofuran; phases: Liquid, Crystal
Fixed: Pressure, kPa = 100
Property: Mole fraction of dienogest (Liquid); method: Chromatography
Temperature, K	Mole fraction of dienogest	uncertainty
273.15	0.0106	0.0064
278.15	0.0115	0.0069
283.15	0.0125	0.0075
288.15	0.0138	0.0083
293.15	0.0148	0.0089
298.15	0.0158	0.0095
303.15	0.0172	0.0103
308.15	0.0182	0.0109
313.15	0.0192	0.0115
318.15	0.0201	0.0121

System: dienogest + ethanol; phases: Liquid, Crystal
Fixed: Pressure, kPa = 100
Property: Mole fraction of dienogest (Liquid); method: Chromatography
Temperature, K	Mole fraction of dienogest	uncertainty
273.15	0.000981	0.000589
278.15	0.00122	0.00073
283.15	0.00152	0.00091
288.15	0.00189	0.00113
293.15	0.00233	0.0014
298.15	0.00287	0.00172
303.15	0.00353	0.00212
308.15	0.00434	0.0026
313.15	0.00524	0.00314
318.15	0.00637	0.00382

System: dienogest + ethyl acetate; phases: Liquid, Crystal
Fixed: Pressure, kPa = 100
Property: Mole fraction of dienogest (Liquid); method: Chromatography
Temperature, K	Mole fraction of dienogest	uncertainty
273.15	0.00145	0.00087
278.15	0.00167	0.001
283.15	0.00192	0.00115
288.15	0.00215	0.00129
293.15	0.00242	0.00145
298.15	0.00273	0.00164
303.15	0.00304	0.00182
308.15	0.00338	0.00203
313.15	0.00374	0.00224
318.15	0.00414	0.00248

System: dienogest + propan-2-ol; phases: Liquid, Crystal
Fixed: Pressure, kPa = 100
Property: Mole fraction of dienogest (Liquid); method: Chromatography
Temperature, K	Mole fraction of dienogest	uncertainty
273.15	0.0007328	0.0004397
278.15	0.000899	0.000539
283.15	0.0011	0.00066
288.15	0.00131	0.00079
293.15	0.00158	0.00095
298.15	0.00192	0.00115
303.15	0.00227	0.00136
308.15	0.00273	0.00164
313.15	0.00323	0.00194
318.15	0.00378	0.00227

System: dienogest + acetone; phases: Liquid, Crystal
Fixed: Pressure, kPa = 100
Property: Mole fraction of dienogest (Liquid); method: Chromatography
Temperature, K	Mole fraction of dienogest	uncertainty
273.15	0.00464	0.00278
278.15	0.00495	0.00297
283.15	0.00536	0.00322
288.15	0.00576	0.00346
293.15	0.00616	0.0037
298.15	0.00667	0.004
303.15	0.00717	0.0043
308.15	0.00777	0.00466
313.15	0.00828	0.00497
318.15	0.00899	0.00539

System: dienogest + acetonitrile; phases: Liquid, Crystal
Fixed: Pressure, kPa = 100
Property: Mole fraction of dienogest (Liquid); method: Chromatography
Temperature, K	Mole fraction of dienogest	uncertainty
273.15	0.00125	0.00075
278.15	0.00149	0.00089
283.15	0.00172	0.00103
288.15	0.00202	0.00121
293.15	0.00232	0.00139
298.15	0.00273	0.00164
303.15	0.00313	0.00188
308.15	0.00363	0.00218
313.15	0.00414	0.00248
318.15	0.00475	0.00285

System: dienogest + dimethylformamide; phases: Liquid, Crystal
Fixed: Pressure, kPa = 100
Property: Mole fraction of dienogest (Liquid); method: Chromatography
Temperature, K	Mole fraction of dienogest	uncertainty
273.15	0.0262	0.0157
278.15	0.0275	0.0165
283.15	0.0293	0.0176
288.15	0.0303	0.0182
293.15	0.0318	0.0191
298.15	0.0333	0.02
303.15	0.0343	0.0206
308.15	0.0354	0.0212
313.15	0.0364	0.0218
318.15	0.0374	0.0224

System: dienogest + methanol; phases: Liquid, Crystal
Fixed: Pressure, kPa = 100
Property: Mole fraction of dienogest (Liquid); method: Chromatography
Temperature, K	Mole fraction of dienogest	uncertainty
273.15	0.00182	0.00109
278.15	0.00209	0.00125
283.15	0.00235	0.00141
288.15	0.00269	0.00161
293.15	0.00303	0.00182
298.15	0.00344	0.00206
303.15	0.00384	0.0023
308.15	0.00434	0.0026
313.15	0.00493	0.00296
318.15	0.00553	0.00332

System: dienogest + water; phases: Liquid, Crystal
Fixed: Pressure, kPa = 100
Property: Mole fraction of dienogest (Liquid); method: Chromatography
Temperature, K	Mole fraction of dienogest	uncertainty
273.15	5.99e-06	3.59e-06
278.15	6.47e-06	3.88e-06
283.15	6.99e-06	4.19e-06
288.15	7.58e-06	4.55e-06
293.15	8.19e-06	4.91e-06
298.15	8.88e-06	5.33e-06
303.15	9.62e-06	5.77e-06
308.15	1.04e-05	6.2e-06
313.15	1.13e-05	6.8e-06
318.15	1.23e-05	7.4e-06

System: dienogest + methanol + water; phases: Liquid, Crystal
Fixed: Pressure, kPa = 100
Property: Mole fraction of dienogest (Liquid); method: Chromatography
Temperature, K	Solvent: Mass fraction of methanol	Mole fraction of dienogest	uncertainty
273.15	0.1	1.37e-05	8.3e-06
278.15	0.1	1.72e-05	1.04e-05
283.15	0.1	2.15e-05	1.3e-05
288.15	0.1	2.77e-05	1.67e-05
293.15	0.1	3.49e-05	2.11e-05
298.15	0.1	4.27e-05	2.59e-05
303.15	0.1	5.53e-05	3.35e-05
308.15	0.1	6.95e-05	4.22e-05
313.15	0.1	8.53e-05	5.18e-05
318.15	0.1	0.000107	6.5e-05
273.15	0.2	2.16e-05	1.71e-05
278.15	0.2	2.84e-05	2.2e-05
283.15	0.2	3.71e-05	2.81e-05
288.15	0.2	4.84e-05	3.59e-05
293.15	0.2	6.26e-05	4.55e-05
298.15	0.2	8.1e-05	5.78e-05
303.15	0.2	0.000105	7.3e-05
308.15	0.2	0.000134	9.2e-05
313.15	0.2	0.00017	0.000116
318.15	0.2	0.000217	0.000145
273.15	0.3	0.000125	8e-05
278.15	0.3	0.000156	9.9e-05
283.15	0.3	0.000193	0.000122
288.15	0.3	0.000239	0.000152
293.15	0.3	0.000292	0.000185
298.15	0.3	0.000356	0.000225
303.15	0.3	0.000432	0.000273
308.15	0.3	0.000521	0.000329
313.15	0.3	0.000627	0.000395
318.15	0.3	0.000751	0.000471
273.15	0.4	0.000198	0.000128
278.15	0.4	0.000249	0.00016
283.15	0.4	0.000301	0.000192
288.15	0.4	0.000374	0.000236
293.15	0.4	0.00046	0.000289
298.15	0.4	0.000562	0.000351
303.15	0.4	0.000679	0.000422
308.15	0.4	0.000814	0.000504
313.15	0.4	0.000967	0.000596
318.15	0.4	0.00114	0.0007
273.15	0.5	0.000364	0.000238
278.15	0.5	0.000438	0.000282
283.15	0.5	0.000519	0.000331
288.15	0.5	0.000603	0.000382
293.15	0.5	0.000716	0.000449
298.15	0.5	0.000844	0.000524
303.15	0.5	0.000985	0.000607
308.15	0.5	0.00114	0.0007
313.15	0.5	0.00131	0.0008
318.15	0.5	0.00147	0.00089
273.15	0.6	0.000573	0.000355
278.15	0.6	0.000663	0.000408
283.15	0.6	0.000755	0.000462
288.15	0.6	0.000862	0.000526
293.15	0.6	0.000981	0.000597
298.15	0.6	0.0011	0.00067
303.15	0.6	0.00123	0.00074
308.15	0.6	0.0014	0.00085
313.15	0.6	0.00155	0.00094
318.15	0.6	0.00171	0.00103
273.15	0.7	0.000798	0.000482
278.15	0.7	0.000884	0.000534
283.15	0.7	0.00098	0.000592
288.15	0.7	0.00108	0.00065
293.15	0.7	0.0012	0.00072
298.15	0.7	0.00134	0.00081
303.15	0.7	0.00149	0.0009
308.15	0.7	0.00165	0.00099
313.15	0.7	0.00184	0.00111
318.15	0.7	0.00205	0.00123
273.15	0.8	0.000922	0.000555
278.15	0.8	0.00105	0.00063
283.15	0.8	0.00119	0.00072
288.15	0.8	0.00135	0.00081
293.15	0.8	0.0015	0.0009
298.15	0.8	0.00167	0.001
303.15	0.8	0.00182	0.00109
308.15	0.8	0.00199	0.0012
313.15	0.8	0.00216	0.0013
318.15	0.8	0.00234	0.0014
273.15	0.9	0.00126	0.00076
278.15	0.9	0.00142	0.00085
283.15	0.9	0.00157	0.00094
288.15	0.9	0.00171	0.00103
293.15	0.9	0.00189	0.00114
298.15	0.9	0.00202	0.00122
303.15	0.9	0.00218	0.00131
308.15	0.9	0.0023	0.00139
313.15	0.9	0.00243	0.00146
318.15	0.9	0.00254	0.00153
273.15	0	5.99e-06	3.59e-06
278.15	0	6.47e-06	3.88e-06
283.15	0	6.99e-06	4.19e-06
288.15	0	7.58e-06	4.55e-06
293.15	0	8.19e-06	4.91e-06
298.15	0	8.88e-06	5.33e-06
303.15	0	9.62e-06	5.77e-06
308.15	0	1.04e-05	6.2e-06
313.15	0	1.13e-05	6.8e-06
318.15	0	1.23e-05	7.4e-06
273.15	1	0.00182	0.00109
278.15	1	0.00209	0.00125
283.15	1	0.00235	0.00141
288.15	1	0.00269	0.00161
293.15	1	0.00303	0.00182
298.15	1	0.00344	0.00206
303.15	1	0.00384	0.0023
308.15	1	0.00434	0.0026
313.15	1	0.00493	0.00296
318.15	1	0.00553	0.00332
