Measured thermophysical data. Correlation Studies of Cyclohexanone/(C5-C10) Alkan-1-ol Binary Mixtures: PC-SAFT Model and Free Volume Theory
Source: J. Chem. Eng. Data, 2018, 10.1021/acs.jced.8b00201
Compound 1: cyclohexanone, C6H10O, InChI=1S/C6H10O/c7-6-4-2-1-3-5-6/h1-5H2, purity 99%
Compound 2: pentan-1-ol, C5H12O, InChI=1S/C5H12O/c1-2-3-4-5-6/h6H,2-5H2,1H3, purity 99.5%
Compound 3: hexan-1-ol, C6H14O, InChI=1S/C6H14O/c1-2-3-4-5-6-7/h7H,2-6H2,1H3, purity 99.5%
Compound 4: heptan-1-ol, C7H16O, InChI=1S/C7H16O/c1-2-3-4-5-6-7-8/h8H,2-7H2,1H3, purity 99.5%
Compound 5: octan-1-ol, C8H18O, InChI=1S/C8H18O/c1-2-3-4-5-6-7-8-9/h9H,2-8H2,1H3, purity 99.6%
Compound 6: nonan-1-ol, C9H20O, InChI=1S/C9H20O/c1-2-3-4-5-6-7-8-9-10/h10H,2-9H2,1H3, purity 99.7%
Compound 7: decan-1-ol, C10H22O, InChI=1S/C10H22O/c1-2-3-4-5-6-7-8-9-10-11/h11H,2-10H2,1H3, purity 99.5%

System: cyclohexanone; phases: Liquid
Fixed: Pressure, kPa = 100
Property: Mass density, kg/m3 (Liquid); method: Vibrating tube method
Temperature, K	Mass density, kg/m3	uncertainty
293.15	948.8	20
298.15	943.1	20
303.15	938.2	20
308.15	933.5	20
313.15	928.8	20
318.15	924.4	20
323.15	920.7	20

System: cyclohexanone; phases: Liquid
Fixed: Pressure, kPa = 100
Property: Viscosity, Pa*s (Liquid); method: Concentric cylinders viscometry
Temperature, K	Viscosity, Pa*s	uncertainty
293.15	0.0023	0.00012
298.15	0.00209	0.00011
303.15	0.00191	0.0001
308.15	0.00175	9e-05
313.15	0.0016	8e-05
318.15	0.00146	7e-05
323.15	0.00134	7e-05

System: pentan-1-ol; phases: Liquid
Fixed: Pressure, kPa = 100
Property: Mass density, kg/m3 (Liquid); method: Vibrating tube method
Temperature, K	Mass density, kg/m3	uncertainty
293.15	814.5	20
298.15	810.8	20
303.15	807.1	20
308.15	803.3	20
313.15	799.6	20
318.15	795.8	20
323.15	792	20

System: pentan-1-ol; phases: Liquid
Fixed: Pressure, kPa = 100
Property: Viscosity, Pa*s (Liquid); method: Concentric cylinders viscometry
Temperature, K	Viscosity, Pa*s	uncertainty
293.15	0.00403	0.0002
298.15	0.00349	0.00018
303.15	0.00304	0.00015
308.15	0.00265	0.00013
313.15	0.00232	0.00012
318.15	0.00205	0.0001
323.15	0.00181	9e-05

System: hexan-1-ol; phases: Liquid
Fixed: Pressure, kPa = 100
Property: Mass density, kg/m3 (Liquid); method: Vibrating tube method
Temperature, K	Mass density, kg/m3	uncertainty
293.15	818.7	20
298.15	815.1	20
303.15	811.5	20
308.15	807.9	20
313.15	804.2	20
318.15	800.6	20
323.15	796.8	20

System: hexan-1-ol; phases: Liquid
Fixed: Pressure, kPa = 100
Property: Viscosity, Pa*s (Liquid); method: Concentric cylinders viscometry
Temperature, K	Viscosity, Pa*s	uncertainty
293.15	0.00537	0.00027
298.15	0.00458	0.00023
303.15	0.00394	0.0002
308.15	0.0034	0.00017
313.15	0.00295	0.00015
318.15	0.00258	0.00013
323.15	0.00226	0.00011

System: heptan-1-ol; phases: Liquid
Fixed: Pressure, kPa = 100
Property: Mass density, kg/m3 (Liquid); method: Vibrating tube method
Temperature, K	Mass density, kg/m3	uncertainty
293.15	822.2	20
298.15	818.7	20
303.15	815.2	20
308.15	811.6	20
313.15	808	20
318.15	804.4	20
323.15	800.7	20

System: heptan-1-ol; phases: Liquid
Fixed: Pressure, kPa = 100
Property: Viscosity, Pa*s (Liquid); method: Concentric cylinders viscometry
Temperature, K	Viscosity, Pa*s	uncertainty
293.15	0.00703	0.00035
298.15	0.00592	0.0003
303.15	0.00503	0.00025
308.15	0.0043	0.00022
313.15	0.00371	0.00019
318.15	0.00321	0.00016
323.15	0.00279	0.00014

System: octan-1-ol; phases: Liquid
Fixed: Pressure, kPa = 100
Property: Mass density, kg/m3 (Liquid); method: Vibrating tube method
Temperature, K	Mass density, kg/m3	uncertainty
293.15	824.9	20
298.15	821.4	20
303.15	817.9	20
308.15	814.4	20
313.15	810.9	20
318.15	807.3	20
323.15	803.7	20

System: octan-1-ol; phases: Liquid
Fixed: Pressure, kPa = 100
Property: Viscosity, Pa*s (Liquid); method: Concentric cylinders viscometry
Temperature, K	Viscosity, Pa*s	uncertainty
293.15	0.00913	0.00046
298.15	0.00762	0.00038
303.15	0.00641	0.00032
308.15	0.00543	0.00027
313.15	0.00463	0.00023
318.15	0.00398	0.0002
323.15	0.0034	0.00017

System: nonan-1-ol; phases: Liquid
Fixed: Pressure, kPa = 100
Property: Mass density, kg/m3 (Liquid); method: Vibrating tube method
Temperature, K	Mass density, kg/m3	uncertainty
293.15	827.5	20
298.15	824	20
303.15	820.5	20
308.15	817.1	20
313.15	813.6	20
318.15	810.1	20
323.15	806.5	20

System: nonan-1-ol; phases: Liquid
Fixed: Pressure, kPa = 100
Property: Viscosity, Pa*s (Liquid); method: Concentric cylinders viscometry
Temperature, K	Viscosity, Pa*s	uncertainty
293.15	0.01141	0.00057
298.15	0.00943	0.00047
303.15	0.00786	0.00039
308.15	0.00661	0.00033
313.15	0.0056	0.00028
318.15	0.00478	0.00024
323.15	0.0041	0.00021

System: decan-1-ol; phases: Liquid
Fixed: Pressure, kPa = 100
Property: Mass density, kg/m3 (Liquid); method: Vibrating tube method
Temperature, K	Mass density, kg/m3	uncertainty
293.15	829.5	20
298.15	826.1	20
303.15	822.7	20
308.15	819.3	20
313.15	815.8	20
318.15	812.4	20
323.15	808.9	20

System: decan-1-ol; phases: Liquid
Fixed: Pressure, kPa = 100
Property: Viscosity, Pa*s (Liquid); method: Concentric cylinders viscometry
Temperature, K	Viscosity, Pa*s	uncertainty
293.15	0.01442	0.00072
298.15	0.0118	0.00059
303.15	0.00976	0.00049
308.15	0.00814	0.00041
313.15	0.00684	0.00034
318.15	0.0058	0.00029
323.15	0.00496	0.00025

System: cyclohexanone + pentan-1-ol; phases: Liquid
Fixed: Pressure, kPa = 100
Property: Mass density, kg/m3 (Liquid); method: Vibrating tube method
Temperature, K	Mole fraction of cyclohexanone	Mass density, kg/m3	uncertainty
293.15	0	814.5	20
293.15	0.0803	825.1	20
293.15	0.1609	835.7	20
293.15	0.2403	846.2	20
293.15	0.3473	860.4	20
293.15	0.4404	872.7	20
293.15	0.5619	889	20
293.15	0.6501	900.9	20
293.15	0.747	914	20
293.15	0.8494	928	20
293.15	0.9404	940.5	20
293.15	1	948.8	20
298.15	0	810.8	20
298.15	0.0803	821.1	20
298.15	0.1609	831.6	20
298.15	0.2403	841.9	20
298.15	0.3473	855.8	20
298.15	0.4404	868	20
298.15	0.5619	884.1	20
298.15	0.6501	895.8	20
298.15	0.747	908.8	20
298.15	0.8494	922.6	20
298.15	0.9404	934.9	20
298.15	1	943.1	20
303.15	0	807.1	20
303.15	0.0803	817.3	20
303.15	0.1609	827.6	20
303.15	0.2403	837.8	20
303.15	0.3473	851.6	20
303.15	0.4404	863.7	20
303.15	0.5619	879.6	20
303.15	0.6501	891.2	20
303.15	0.747	904.1	20
303.15	0.8494	917.8	20
303.15	0.9404	930.1	20
303.15	1	938.2	20
308.15	0	803.3	20
308.15	0.0803	813.4	20
308.15	0.1609	823.6	20
308.15	0.2403	833.7	20
308.15	0.3473	847.4	20
308.15	0.4404	859.5	20
308.15	0.5619	875.3	20
308.15	0.6501	886.8	20
308.15	0.747	899.6	20
308.15	0.8494	913.2	20
308.15	0.9404	925.5	20
308.15	1	933.5	20
313.15	0	799.6	20
313.15	0.0803	809.6	20
313.15	0.1609	819.7	20
313.15	0.2403	829.8	20
313.15	0.3473	843.4	20
313.15	0.4404	855.3	20
313.15	0.5619	871	20
313.15	0.6501	882.4	20
313.15	0.747	895.1	20
313.15	0.8494	908.7	20
313.15	0.9404	920.8	20
313.15	1	928.8	20
318.15	0	795.8	20
318.15	0.0803	805.7	20
318.15	0.1609	815.7	20
318.15	0.2403	825.6	20
318.15	0.3473	839.1	20
318.15	0.4404	851	20
318.15	0.5619	866.6	20
318.15	0.6501	878.1	20
318.15	0.747	890.7	20
318.15	0.8494	904.3	20
318.15	0.9404	916.4	20
318.15	1	924.4	20
323.15	0	792	20
323.15	0.0803	801.9	20
323.15	0.1609	811.9	20
323.15	0.2403	821.8	20
323.15	0.3473	835.3	20
323.15	0.4404	847.1	20
323.15	0.5619	862.8	20
323.15	0.6501	874.2	20
323.15	0.747	886.9	20
323.15	0.8494	900.5	20
323.15	0.9404	912.7	20
323.15	1	920.7	20

System: cyclohexanone + pentan-1-ol; phases: Liquid
Fixed: Pressure, kPa = 100
Property: Viscosity, Pa*s (Liquid); method: Concentric cylinders viscometry
Temperature, K	Mole fraction of cyclohexanone	Viscosity, Pa*s	uncertainty
293.15	0	0.00403	0.0002
293.15	0.0803	0.00357	0.00018
293.15	0.1609	0.00316	0.00016
293.15	0.2403	0.0028	0.0002
293.15	0.3473	0.00241	0.00012
293.15	0.4404	0.00217	0.00011
293.15	0.5619	0.00196	0.0001
293.15	0.6501	0.00188	9e-05
293.15	0.747	0.00187	9e-05
293.15	0.8494	0.00198	0.0001
293.15	0.9404	0.00212	0.00011
293.15	1	0.0023	0.00012
298.15	0	0.00349	0.00018
298.15	0.0803	0.0031	0.00016
298.15	0.1609	0.00277	0.00014
298.15	0.2403	0.00249	0.00013
298.15	0.3473	0.00215	0.00011
298.15	0.4404	0.00196	0.0001
298.15	0.5619	0.0018	9e-05
298.15	0.6501	0.00174	9e-05
298.15	0.747	0.00174	9e-05
298.15	0.8494	0.00183	9e-05
298.15	0.9404	0.00197	0.0001
298.15	1	0.00209	0.00011
303.15	0	0.00304	0.00015
303.15	0.0803	0.00271	0.00014
303.15	0.1609	0.00244	0.00012
303.15	0.2403	0.0022	0.00011
303.15	0.3473	0.00194	0.0001
303.15	0.4404	0.00177	9e-05
303.15	0.5619	0.00163	8e-05
303.15	0.6501	0.00158	8e-05
303.15	0.747	0.00158	8e-05
303.15	0.8494	0.00167	8e-05
303.15	0.9404	0.00178	9e-05
303.15	1	0.00191	0.0001
308.15	0	0.00265	0.00013
308.15	0.0803	0.00238	0.00012
308.15	0.1609	0.00214	0.00011
308.15	0.2403	0.00195	0.0001
308.15	0.3473	0.00173	9e-05
308.15	0.4404	0.0016	0.0001
308.15	0.5619	0.00149	8e-05
308.15	0.6501	0.00146	7e-05
308.15	0.747	0.00146	7e-05
308.15	0.8494	0.00154	8e-05
308.15	0.9404	0.00164	8e-05
308.15	1	0.00175	9e-05
313.15	0	0.00232	0.00012
313.15	0.0803	0.00208	0.0001
313.15	0.1609	0.0019	0.0001
313.15	0.2403	0.00173	9e-05
313.15	0.3473	0.00154	8e-05
313.15	0.4404	0.00143	7e-05
313.15	0.5619	0.00134	7e-05
313.15	0.6501	0.00132	7e-05
313.15	0.747	0.00133	7e-05
313.15	0.8494	0.0014	7e-05
313.15	0.9404	0.0015	8e-05
313.15	1	0.0016	8e-05
318.15	0	0.00205	0.0001
318.15	0.0803	0.00184	9e-05
318.15	0.1609	0.00168	8e-05
318.15	0.2403	0.00153	8e-05
318.15	0.3473	0.00138	7e-05
318.15	0.4404	0.00129	7e-05
318.15	0.5619	0.00121	6e-05
318.15	0.6501	0.00119	6e-05
318.15	0.747	0.00121	6e-05
318.15	0.8494	0.00128	6e-05
318.15	0.9404	0.00137	7e-05
318.15	1	0.00146	7e-05
323.15	0	0.00181	9e-05
323.15	0.0803	0.00165	8e-05
323.15	0.1609	0.00152	8e-05
323.15	0.2403	0.0014	7e-05
323.15	0.3473	0.00127	6e-05
323.15	0.4404	0.00119	6e-05
323.15	0.5619	0.00121	6e-05
323.15	0.6501	0.001107	5.6e-05
323.15	0.747	0.00113	6e-05
323.15	0.8494	0.00119	6e-05
323.15	0.9404	0.00127	6e-05
323.15	1	0.00134	7e-05

System: cyclohexanone + hexan-1-ol; phases: Liquid
Fixed: Pressure, kPa = 100
Property: Mass density, kg/m3 (Liquid); method: Vibrating tube method
Temperature, K	Mole fraction of cyclohexanone	Mass density, kg/m3	uncertainty
293.15	0	818.7	20
293.15	0.0818	827.6	20
293.15	0.1594	836.2	20
293.15	0.2401	845.5	20
293.15	0.3467	858.2	20
293.15	0.4439	870.2	20
293.15	0.564	885.7	20
293.15	0.6501	897.3	20
293.15	0.7381	909.5	20
293.15	0.8512	925.9	20
293.15	0.9426	939.8	20
293.15	1	948.8	20
298.15	0	815.1	20
298.15	0.0818	823.8	20
298.15	0.1594	832.2	20
298.15	0.2401	841.3	20
298.15	0.3467	853.7	20
298.15	0.4439	865.5	20
298.15	0.564	880.7	20
298.15	0.6501	892.1	20
298.15	0.7381	904.2	20
298.15	0.8512	920.5	20
298.15	0.9426	934.7	20
298.15	1	943.1	20
303.15	0	811.5	20
303.15	0.0818	820	20
303.15	0.1594	828.3	20
303.15	0.2401	837.2	20
303.15	0.3467	849.5	20
303.15	0.4439	861.1	20
303.15	0.564	876.2	20
303.15	0.6501	887.5	20
303.15	0.7381	899.5	20
303.15	0.8512	915.6	20
303.15	0.9426	929.8	20
303.15	1	938.2	20
308.15	0	807.9	20
308.15	0.0818	816.3	20
308.15	0.1594	824.4	20
308.15	0.2401	833.2	20
308.15	0.3467	845.3	20
308.15	0.4439	856.8	20
308.15	0.564	871.8	20
308.15	0.6501	883	20
308.15	0.7381	894.9	20
308.15	0.8512	911	20
308.15	0.9426	925.1	20
308.15	1	933.5	20
313.15	0	804.2	20
313.15	0.0818	812.4	20
313.15	0.1594	820.5	20
313.15	0.2401	829.2	20
313.15	0.3467	841.1	20
313.15	0.4439	852.5	20
313.15	0.564	867.3	20
313.15	0.6501	878.5	20
313.15	0.7381	890.3	20
313.15	0.8512	906.3	20
313.15	0.9426	920.4	20
313.15	1	928.8	20
318.15	0	800.6	20
318.15	0.0818	808.7	20
318.15	0.1594	816.7	20
318.15	0.2401	825.3	20
318.15	0.3467	837.1	20
318.15	0.4439	848.4	20
318.15	0.564	863.1	20
318.15	0.6501	874.2	20
318.15	0.7381	886	20
318.15	0.8512	901.9	20
318.15	0.9426	916	20
318.15	1	924.4	20
323.15	0	796.8	20
323.15	0.0818	804.9	20
323.15	0.1594	812.8	20
323.15	0.2401	821.4	20
323.15	0.3467	833.2	20
323.15	0.4439	844.5	20
323.15	0.564	859.2	20
323.15	0.6501	870.3	20
323.15	0.7381	882.2	20
323.15	0.8512	898.1	20
323.15	0.9426	912.2	20
323.15	1	920.7	20

System: cyclohexanone + hexan-1-ol; phases: Liquid
Fixed: Pressure, kPa = 100
Property: Viscosity, Pa*s (Liquid); method: Concentric cylinders viscometry
Temperature, K	Mole fraction of cyclohexanone	Viscosity, Pa*s	uncertainty
293.15	0	0.00537	0.00027
293.15	0.0818	0.00466	0.00023
293.15	0.1594	0.00406	0.0002
293.15	0.2401	0.00355	0.00018
293.15	0.3467	0.00297	0.00015
293.15	0.4439	0.00255	0.00013
293.15	0.564	0.00218	0.00011
293.15	0.6501	0.00202	0.0001
293.15	0.7381	0.00197	0.0001
293.15	0.8512	0.002	0.0001
293.15	0.9426	0.00213	0.00011
293.15	1	0.0023	0.00012
298.15	0	0.00458	0.00023
298.15	0.0818	0.00403	0.0002
298.15	0.1594	0.00354	0.00018
298.15	0.2401	0.00312	0.00016
298.15	0.3467	0.00263	0.00013
298.15	0.4439	0.0023	0.00012
298.15	0.564	0.00198	0.0001
298.15	0.6501	0.00186	9e-05
298.15	0.7381	0.00181	9e-05
298.15	0.8512	0.00184	9e-05
298.15	0.9426	0.00195	0.0001
298.15	1	0.00209	0.00011
303.15	0	0.00394	0.0002
303.15	0.0818	0.00347	0.00017
303.15	0.1594	0.00307	0.00015
303.15	0.2401	0.00272	0.00014
303.15	0.3467	0.00233	0.00012
303.15	0.4439	0.00205	0.0001
303.15	0.564	0.0018	9e-05
303.15	0.6501	0.00171	9e-05
303.15	0.7381	0.00167	8e-05
303.15	0.8512	0.0017	9e-05
303.15	0.9426	0.00179	9e-05
303.15	1	0.00191	0.0001
308.15	0	0.0034	0.00017
308.15	0.0818	0.00304	0.00015
308.15	0.1594	0.00271	0.00014
308.15	0.2401	0.00241	0.00012
308.15	0.3467	0.00209	0.00011
308.15	0.4439	0.00187	9e-05
308.15	0.564	0.00167	8e-05
308.15	0.6501	0.00159	8e-05
308.15	0.7381	0.00155	8e-05
308.15	0.8512	0.00158	8e-05
308.15	0.9426	0.00164	8e-05
308.15	1	0.00175	9e-05
313.15	0	0.00295	0.00015
313.15	0.0818	0.00266	0.00013
313.15	0.1594	0.00239	0.00012
313.15	0.2401	0.00214	0.00011
313.15	0.3467	0.00186	9e-05
313.15	0.4439	0.00168	8e-05
313.15	0.564	0.00151	8e-05
313.15	0.6501	0.00145	7e-05
313.15	0.7381	0.00142	7e-05
313.15	0.8512	0.00145	7e-05
313.15	0.9426	0.00151	8e-05
313.15	1	0.0016	8e-05
318.15	0	0.00258	0.00013
318.15	0.0818	0.00233	0.00012
318.15	0.1594	0.0021	0.0001
318.15	0.2401	0.0019	0.0001
318.15	0.3467	0.00168	8e-05
318.15	0.4439	0.00152	8e-05
318.15	0.564	0.00138	7e-05
318.15	0.6501	0.00133	7e-05
318.15	0.7381	0.00131	7e-05
318.15	0.8512	0.00133	7e-05
318.15	0.9426	0.00139	7e-05
318.15	1	0.00146	7e-05
323.15	0	0.00226	0.00011
323.15	0.0818	0.00205	0.0001
323.15	0.1594	0.00186	9e-05
323.15	0.2401	0.0017	9e-05
323.15	0.3467	0.00151	8e-05
323.15	0.4439	0.00139	7e-05
323.15	0.564	0.00128	6e-05
323.15	0.6501	0.00123	6e-05
323.15	0.7381	0.00122	6e-05
323.15	0.8512	0.00123	6e-05
323.15	0.9426	0.00127	6e-05
323.15	1	0.00134	7e-05

System: cyclohexanone + heptan-1-ol; phases: Liquid
Fixed: Pressure, kPa = 100
Property: Mass density, kg/m3 (Liquid); method: Vibrating tube method
Temperature, K	Mole fraction of cyclohexanone	Mass density, kg/m3	uncertainty
293.15	0	822.2	20
293.15	0.0809	829.7	20
293.15	0.1601	837.3	20
293.15	0.2406	845.4	20
293.15	0.3511	857.4	20
293.15	0.4227	865.6	20
293.15	0.5754	884.4	20
293.15	0.6492	894.2	20
293.15	0.7422	907.3	20
293.15	0.8513	923.9	20
293.15	0.9385	938.2	20
293.15	1	948.8	20
298.15	0	818.7	20
298.15	0.0809	826	20
298.15	0.1601	833.5	20
298.15	0.2406	841.4	20
298.15	0.3511	853.1	20
298.15	0.4227	861.2	20
298.15	0.5754	879.6	20
298.15	0.6492	889.3	20
298.15	0.7422	902.2	20
298.15	0.8513	918.5	20
298.15	0.9385	932.6	20
298.15	1	943.1	20
303.15	0	815.2	20
303.15	0.0809	822.3	20
303.15	0.1601	829.7	20
303.15	0.2406	837.5	20
303.15	0.3511	849	20
303.15	0.4227	857	20
303.15	0.5754	875.2	20
303.15	0.6492	884.8	20
303.15	0.7422	897.6	20
303.15	0.8513	913.8	20
303.15	0.9385	927.7	20
303.15	1	938.2	20
308.15	0	811.6	20
308.15	0.0809	818.7	20
308.15	0.1601	825.9	20
308.15	0.2406	833.6	20
308.15	0.3511	845	20
308.15	0.4227	852.8	20
308.15	0.5754	870.9	20
308.15	0.6492	880.4	20
308.15	0.7422	893.1	20
308.15	0.8513	909.2	20
308.15	0.9385	923.1	20
308.15	1	933.5	20
313.15	0	808	20
313.15	0.0809	814.9	20
313.15	0.1601	822.1	20
313.15	0.2406	829.7	20
313.15	0.3511	840.9	20
313.15	0.4227	848.7	20
313.15	0.5754	866.6	20
313.15	0.6492	876	20
313.15	0.7422	888.6	20
313.15	0.8513	904.5	20
313.15	0.9385	918.4	20
313.15	1	928.8	20
318.15	0	804.4	20
318.15	0.0809	811.2	20
318.15	0.1601	818.3	20
318.15	0.2406	825.8	20
318.15	0.3511	836.9	20
318.15	0.4227	844.6	20
318.15	0.5754	862.3	20
318.15	0.6492	871.7	20
318.15	0.7422	884.2	20
318.15	0.8513	900.2	20
318.15	0.9385	914.1	20
318.15	1	924.4	20
323.15	0	800.7	20
323.15	0.0809	807.5	20
323.15	0.1601	814.5	20
323.15	0.2406	821.9	20
323.15	0.3511	833	20
323.15	0.4227	840.7	20
323.15	0.5754	858.4	20
323.15	0.6492	867.7	20
323.15	0.7422	880.3	20
323.15	0.8513	896.4	20
323.15	0.9385	910.2	20
323.15	1	920.7	20

System: cyclohexanone + heptan-1-ol; phases: Liquid
Fixed: Pressure, kPa = 100
Property: Viscosity, Pa*s (Liquid); method: Concentric cylinders viscometry
Temperature, K	Mole fraction of cyclohexanone	Viscosity, Pa*s	uncertainty
293.15	0	0.00703	0.00035
293.15	0.0809	0.00606	0.00031
293.15	0.1601	0.00523	0.00026
293.15	0.2406	0.00449	0.00023
293.15	0.3511	0.00368	0.00019
293.15	0.4227	0.00327	0.00016
293.15	0.5754	0.00271	0.00014
293.15	0.6492	0.00259	0.00013
293.15	0.7422	0.00246	0.00012
293.15	0.8513	0.00238	0.00012
293.15	0.9385	0.00235	0.00012
293.15	1	0.0023	0.00012
298.15	0	0.00592	0.0003
298.15	0.0809	0.00515	0.00026
298.15	0.1601	0.00446	0.00022
298.15	0.2406	0.00389	0.0002
298.15	0.3511	0.00322	0.00016
298.15	0.4227	0.00283	0.00014
298.15	0.5754	0.00239	0.00012
298.15	0.6492	0.00229	0.00012
298.15	0.7422	0.00219	0.00011
298.15	0.8513	0.00212	0.00011
298.15	0.9385	0.00209	0.00011
298.15	1	0.00209	0.00011
303.15	0	0.00503	0.00025
303.15	0.0809	0.00441	0.00022
303.15	0.1601	0.00386	0.00019
303.15	0.2406	0.00337	0.00017
303.15	0.3511	0.00282	0.00014
303.15	0.4227	0.00251	0.00013
303.15	0.5754	0.00211	0.00011
303.15	0.6492	0.00204	0.0001
303.15	0.7422	0.00197	0.0001
303.15	0.8513	0.00194	0.0001
303.15	0.9385	0.00193	0.0001
303.15	1	0.00191	0.0001
308.15	0	0.0043	0.00022
308.15	0.0809	0.00378	0.00019
308.15	0.1601	0.00332	0.00017
308.15	0.2406	0.00293	0.00015
308.15	0.3511	0.00249	0.00013
308.15	0.4227	0.00226	0.00011
308.15	0.5754	0.00193	0.0001
308.15	0.6492	0.00185	9e-05
308.15	0.7422	0.00178	9e-05
308.15	0.8513	0.00175	9e-05
308.15	0.9385	0.00176	9e-05
308.15	1	0.00175	9e-05
313.15	0	0.00371	0.00019
313.15	0.0809	0.00324	0.00016
313.15	0.1601	0.00286	0.00014
313.15	0.2406	0.00254	0.00013
313.15	0.3511	0.00219	0.00011
313.15	0.4227	0.00203	0.0001
313.15	0.5754	0.00177	9e-05
313.15	0.6492	0.00172	9e-05
313.15	0.7422	0.00165	8e-05
313.15	0.8513	0.00162	8e-05
313.15	0.9385	0.0016	8e-05
313.15	1	0.0016	8e-05
318.15	0	0.00321	0.00016
318.15	0.0809	0.00283	0.00014
318.15	0.1601	0.0025	0.00013
318.15	0.2406	0.00223	0.00011
318.15	0.3511	0.00195	0.0001
318.15	0.4227	0.00182	9e-05
318.15	0.5754	0.00161	8e-05
318.15	0.6492	0.00157	8e-05
318.15	0.7422	0.00151	8e-05
318.15	0.8513	0.00149	8e-05
318.15	0.9385	0.00147	7e-05
318.15	1	0.00146	7e-05
323.15	0	0.00279	0.00014
323.15	0.0809	0.00249	0.00013
323.15	0.1601	0.00223	0.00011
323.15	0.2406	0.00201	0.0001
323.15	0.3511	0.00177	9e-05
323.15	0.4227	0.00164	8e-05
323.15	0.5754	0.00145	7e-05
323.15	0.6492	0.0014	7e-05
323.15	0.7422	0.00135	7e-05
323.15	0.8513	0.00133	7e-05
323.15	0.9385	0.00133	7e-05
323.15	1	0.00134	7e-05

System: cyclohexanone + octan-1-ol; phases: Liquid
Fixed: Pressure, kPa = 100
Property: Mass density, kg/m3 (Liquid); method: Vibrating tube method
Temperature, K	Mole fraction of cyclohexanone	Mass density, kg/m3	uncertainty
293.15	0	824.9	20
293.15	0.0803	831.3	20
293.15	0.1519	837.4	20
293.15	0.2388	845.2	20
293.15	0.3427	855.4	20
293.15	0.4378	865.6	20
293.15	0.5606	880	20
293.15	0.6498	891.6	20
293.15	0.7407	904.5	20
293.15	0.8422	920.4	20
293.15	0.9377	937.4	20
293.15	1	948.8	20
298.15	0	821.4	20
298.15	0.0803	827.7	20
298.15	0.1519	833.6	20
298.15	0.2388	841.3	20
298.15	0.3427	851.2	20
298.15	0.4378	861.2	20
298.15	0.5606	875.4	20
298.15	0.6498	886.8	20
298.15	0.7407	899.5	20
298.15	0.8422	915.1	20
298.15	0.9377	931.4	20
298.15	1	943.1	20
303.15	0	817.9	20
303.15	0.0803	824.1	20
303.15	0.1519	829.8	20
303.15	0.2388	837.4	20
303.15	0.3427	847.2	20
303.15	0.4378	857	20
303.15	0.5606	871.1	20
303.15	0.6498	882.3	20
303.15	0.7407	894.9	20
303.15	0.8422	910.4	20
303.15	0.9377	926.6	20
303.15	1	938.2	20
308.15	0	814.4	20
308.15	0.0803	820.5	20
308.15	0.1519	826.1	20
308.15	0.2388	833.6	20
308.15	0.3427	843.2	20
308.15	0.4378	852.9	20
308.15	0.5606	866.8	20
308.15	0.6498	877.9	20
308.15	0.7407	890.4	20
308.15	0.8422	905.9	20
308.15	0.9377	922	20
308.15	1	933.5	20
313.15	0	810.9	20
313.15	0.0803	816.8	20
313.15	0.1519	822.4	20
313.15	0.2388	829.7	20
313.15	0.3427	839.2	20
313.15	0.4378	848.8	20
313.15	0.5606	862.5	20
313.15	0.6498	873.6	20
313.15	0.7407	886	20
313.15	0.8422	901.3	20
313.15	0.9377	917.3	20
313.15	1	928.8	20
318.15	0	807.3	20
318.15	0.0803	813.1	20
318.15	0.1519	818.6	20
318.15	0.2388	825.8	20
318.15	0.3427	835.2	20
318.15	0.4378	844.7	20
318.15	0.5606	858.4	20
318.15	0.6498	869.3	20
318.15	0.7407	881.6	20
318.15	0.8422	896.9	20
318.15	0.9377	912.9	20
318.15	1	924.4	20
323.15	0	803.7	20
323.15	0.0803	809.5	20
323.15	0.1519	814.9	20
323.15	0.2388	822.1	20
323.15	0.3427	831.5	20
323.15	0.4378	841	20
323.15	0.5606	854.6	20
323.15	0.6498	865.5	20
323.15	0.7407	877.9	20
323.15	0.8422	893.2	20
323.15	0.9377	909.2	20
323.15	1	920.7	20

System: cyclohexanone + octan-1-ol; phases: Liquid
Fixed: Pressure, kPa = 100
Property: Viscosity, Pa*s (Liquid); method: Concentric cylinders viscometry
Temperature, K	Mole fraction of cyclohexanone	Viscosity, Pa*s	uncertainty
293.15	0	0.00913	0.00046
293.15	0.0803	0.00776	0.00039
293.15	0.1519	0.00662	0.00033
293.15	0.2388	0.00558	0.00028
293.15	0.3427	0.00448	0.00023
293.15	0.4378	0.00372	0.00019
293.15	0.5606	0.00297	0.00015
293.15	0.6498	0.00257	0.00013
293.15	0.7407	0.00233	0.00012
293.15	0.8422	0.00228	0.00012
293.15	0.9377	0.00225	0.00011
293.15	1	0.0023	0.00012
298.15	0	0.00762	0.00038
298.15	0.0803	0.00652	0.00033
298.15	0.1519	0.00565	0.00028
298.15	0.2388	0.0048	0.00024
298.15	0.3427	0.00391	0.0002
298.15	0.4378	0.00329	0.00017
298.15	0.5606	0.00266	0.00013
298.15	0.6498	0.00232	0.00012
298.15	0.7407	0.00213	0.00011
298.15	0.8422	0.00207	0.0001
298.15	0.9377	0.00204	0.0001
298.15	1	0.00209	0.00011
303.15	0	0.00641	0.00032
303.15	0.0803	0.00554	0.00028
303.15	0.1519	0.00487	0.00025
303.15	0.2388	0.00417	0.00021
303.15	0.3427	0.00344	0.00017
303.15	0.4378	0.00294	0.00015
303.15	0.5606	0.00242	0.00012
303.15	0.6498	0.00216	0.00011
303.15	0.7407	0.00197	0.0001
303.15	0.8422	0.0019	0.0001
303.15	0.9377	0.00187	9e-05
303.15	1	0.00191	0.0001
308.15	0	0.00543	0.00027
308.15	0.0803	0.00473	0.00024
308.15	0.1519	0.00416	0.00021
308.15	0.2388	0.00361	0.00018
308.15	0.3427	0.00303	0.00015
308.15	0.4378	0.0026	0.00013
308.15	0.5606	0.00215	0.00011
308.15	0.6498	0.00194	0.0001
308.15	0.7407	0.00179	9e-05
308.15	0.8422	0.00174	9e-05
308.15	0.9377	0.00172	9e-05
308.15	1	0.00175	9e-05
313.15	0	0.00463	0.00023
313.15	0.0803	0.00407	0.0002
313.15	0.1519	0.0036	0.0002
313.15	0.2388	0.00312	0.00016
313.15	0.3427	0.00263	0.00013
313.15	0.4378	0.0023	0.0001
313.15	0.5606	0.00195	0.0001
313.15	0.6498	0.00175	9e-05
313.15	0.7407	0.00164	8e-05
313.15	0.8422	0.0016	8e-05
313.15	0.9377	0.00157	8e-05
313.15	1	0.0016	8e-05
318.15	0	0.00398	0.0002
318.15	0.0803	0.00351	0.00018
318.15	0.1519	0.00311	0.00016
318.15	0.2388	0.00273	0.00014
318.15	0.3427	0.00232	0.00012
318.15	0.4378	0.00204	0.0001
318.15	0.5606	0.00175	9e-05
318.15	0.6498	0.0016	8e-05
318.15	0.7407	0.0015	8e-05
318.15	0.8422	0.00146	7e-05
318.15	0.9377	0.00144	7e-05
318.15	1	0.00146	7e-05
323.15	0	0.0034	0.00017
323.15	0.0803	0.00303	0.00015
323.15	0.1519	0.00273	0.00014
323.15	0.2388	0.00242	0.00012
323.15	0.3427	0.00209	0.00011
323.15	0.4378	0.00185	9e-05
323.15	0.5606	0.0016	8e-05
323.15	0.6498	0.00146	7e-05
323.15	0.7407	0.00137	7e-05
323.15	0.8422	0.00134	7e-05
323.15	0.9377	0.00132	7e-05
323.15	1	0.00134	7e-05

System: cyclohexanone + nonan-1-ol; phases: Liquid
Fixed: Pressure, kPa = 100
Property: Mass density, kg/m3 (Liquid); method: Vibrating tube method
Temperature, K	Mole fraction of cyclohexanone	Mass density, kg/m3	uncertainty
293.15	0	827.5	20
293.15	0.0813	833.2	20
293.15	0.1582	839	20
293.15	0.2378	845.5	20
293.15	0.3573	856.3	20
293.15	0.4381	864.3	20
293.15	0.5589	877.9	20
293.15	0.6488	889.3	20
293.15	0.724	899.9	20
293.15	0.8481	919.6	20
293.15	0.9411	936.8	20
293.15	1	948.8	20
298.15	0	824	20
298.15	0.0813	829.6	20
298.15	0.1582	835.2	20
298.15	0.2378	841.5	20
298.15	0.3573	852.1	20
298.15	0.4381	860	20
298.15	0.5589	873.3	20
298.15	0.6488	884.6	20
298.15	0.724	895	20
298.15	0.8481	914.4	20
298.15	0.9411	931.2	20
298.15	1	943.1	20
303.15	0	820.5	20
303.15	0.0813	825.9	20
303.15	0.1582	831.5	20
303.15	0.2378	837.7	20
303.15	0.3573	848.1	20
303.15	0.4381	855.9	20
303.15	0.5589	869.1	20
303.15	0.6488	880.2	20
303.15	0.724	890.5	20
303.15	0.8481	909.6	20
303.15	0.9411	926.3	20
303.15	1	938.2	20
308.15	0	817.1	20
308.15	0.0813	822.4	20
308.15	0.1582	827.9	20
308.15	0.2378	834	20
308.15	0.3573	844.3	20
308.15	0.4381	852	20
308.15	0.5589	865	20
308.15	0.6488	876	20
308.15	0.724	886.2	20
308.15	0.8481	905.2	20
308.15	0.9411	921.7	20
308.15	1	933.5	20
313.15	0	813.6	20
313.15	0.0813	818.9	20
313.15	0.1582	824.2	20
313.15	0.2378	830.2	20
313.15	0.3573	840.3	20
313.15	0.4381	847.9	20
313.15	0.5589	860.8	20
313.15	0.6488	871.6	20
313.15	0.724	881.8	20
313.15	0.8481	900.6	20
313.15	0.9411	917.1	20
313.15	1	928.8	20
318.15	0	810.1	20
318.15	0.0813	815.3	20
318.15	0.1582	820.5	20
318.15	0.2378	826.4	20
318.15	0.3573	836.4	20
318.15	0.4381	844	20
318.15	0.5589	856.7	20
318.15	0.6488	867.4	20
318.15	0.724	877.5	20
318.15	0.8481	896.3	20
318.15	0.9411	912.8	20
318.15	1	924.4	20
323.15	0	806.5	20
323.15	0.0813	811.6	20
323.15	0.1582	816.8	20
323.15	0.2378	822.7	20
323.15	0.3573	832.6	20
323.15	0.4381	840.1	20
323.15	0.5589	852.8	20
323.15	0.6488	863.6	20
323.15	0.724	873.7	20
323.15	0.8481	892.5	20
323.15	0.9411	908.9	20
323.15	1	920.7	20

System: cyclohexanone + nonan-1-ol; phases: Liquid
Fixed: Pressure, kPa = 100
Property: Viscosity, Pa*s (Liquid); method: Concentric cylinders viscometry
Temperature, K	Mole fraction of cyclohexanone	Viscosity, Pa*s	uncertainty
293.15	0	0.01141	0.00057
293.15	0.0813	0.00978	0.00049
293.15	0.1582	0.00831	0.00042
293.15	0.2378	0.00698	0.00035
293.15	0.3573	0.00542	0.00027
293.15	0.4381	0.00461	0.00023
293.15	0.5589	0.00369	0.00019
293.15	0.6488	0.0032	0.00016
293.15	0.724	0.00296	0.00015
293.15	0.8481	0.00255	0.00013
293.15	0.9411	0.00233	0.00012
293.15	1	0.0023	0.00012
298.15	0	0.00943	0.00047
298.15	0.0813	0.00815	0.00041
298.15	0.1582	0.00694	0.00035
298.15	0.2378	0.00592	0.0003
298.15	0.3573	0.00468	0.00024
298.15	0.4381	0.00401	0.0002
298.15	0.5589	0.00321	0.00016
298.15	0.6488	0.0028	0.00014
298.15	0.724	0.00259	0.00013
298.15	0.8481	0.00224	0.00011
298.15	0.9411	0.00211	0.00011
298.15	1	0.00209	0.00011
303.15	0	0.00786	0.00039
303.15	0.0813	0.00678	0.00034
303.15	0.1582	0.00587	0.0003
303.15	0.2378	0.00503	0.00025
303.15	0.3573	0.00403	0.0002
303.15	0.4381	0.00349	0.00018
303.15	0.5589	0.00287	0.00014
303.15	0.6488	0.00253	0.00013
303.15	0.724	0.00237	0.00012
303.15	0.8481	0.00208	0.00011
303.15	0.9411	0.00195	0.0001
303.15	1	0.00191	0.0001
308.15	0	0.00661	0.00033
308.15	0.0813	0.00573	0.00029
308.15	0.1582	0.00496	0.00025
308.15	0.2378	0.00431	0.00022
308.15	0.3573	0.00351	0.00018
308.15	0.4381	0.00308	0.00016
308.15	0.5589	0.00257	0.00013
308.15	0.6488	0.0023	0.00012
308.15	0.724	0.00216	0.00011
308.15	0.8481	0.00193	0.0001
308.15	0.9411	0.00179	9e-05
308.15	1	0.00175	9e-05
313.15	0	0.0056	0.00028
313.15	0.0813	0.00485	0.00024
313.15	0.1582	0.0042	0.00021
313.15	0.2378	0.00368	0.00019
313.15	0.3573	0.00304	0.00015
313.15	0.4381	0.00271	0.00014
313.15	0.5589	0.00233	0.00012
313.15	0.6488	0.00213	0.00011
313.15	0.724	0.00202	0.0001
313.15	0.8481	0.00181	9e-05
313.15	0.9411	0.00167	8e-05
313.15	1	0.0016	8e-05
318.15	0	0.00478	0.00024
318.15	0.0813	0.00418	0.00021
318.15	0.1582	0.00367	0.00018
318.15	0.2378	0.00322	0.00016
318.15	0.3573	0.00266	0.00013
318.15	0.4381	0.00237	0.00012
318.15	0.5589	0.00203	0.0001
318.15	0.6488	0.00185	9e-05
318.15	0.724	0.00177	9e-05
318.15	0.8481	0.00159	8e-05
318.15	0.9411	0.0015	8e-05
318.15	1	0.00146	7e-05
323.15	0	0.0041	0.00021
323.15	0.0813	0.00361	0.00018
323.15	0.1582	0.0032	0.00016
323.15	0.2378	0.00284	0.00014
323.15	0.3573	0.0024	0.0001
323.15	0.4381	0.00217	0.00011
323.15	0.5589	0.0019	0.0001
323.15	0.6488	0.00175	9e-05
323.15	0.724	0.00167	8e-05
323.15	0.8481	0.00149	8e-05
323.15	0.9411	0.0014	7e-05
323.15	1	0.00134	7e-05

System: cyclohexanone + decan-1-ol; phases: Liquid
Fixed: Pressure, kPa = 100
Property: Mass density, kg/m3 (Liquid); method: Vibrating tube method
Temperature, K	Mole fraction of cyclohexanone	Mass density, kg/m3	uncertainty
293.15	0	829.5	20
293.15	0.0807	834.5	20
293.15	0.1613	840	20
293.15	0.2387	845.6	20
293.15	0.3519	855.1	20
293.15	0.4407	863.4	20
293.15	0.5568	875.9	20
293.15	0.6517	887.7	20
293.15	0.7412	900.4	20
293.15	0.8518	918.6	20
293.15	0.9441	936.5	20
293.15	1	948.8	20
298.15	0	826.1	20
298.15	0.0807	830.9	20
298.15	0.1613	836.4	20
298.15	0.2387	841.8	20
298.15	0.3519	851	20
298.15	0.4407	859.2	20
298.15	0.5568	871.4	20
298.15	0.6517	883	20
298.15	0.7412	895.4	20
298.15	0.8518	913.3	20
298.15	0.9441	930.9	20
298.15	1	943.1	20
303.15	0	822.7	20
303.15	0.0807	827.4	20
303.15	0.1613	832.6	20
303.15	0.2387	838.1	20
303.15	0.3519	847.2	20
303.15	0.4407	855.2	20
303.15	0.5568	867.3	20
303.15	0.6517	878.7	20
303.15	0.7412	891	20
303.15	0.8518	908.7	20
303.15	0.9441	926.1	20
303.15	1	938.2	20
308.15	0	819.3	20
308.15	0.0807	823.9	20
308.15	0.1613	829.1	20
308.15	0.2387	834.5	20
308.15	0.3519	843.4	20
308.15	0.4407	851.4	20
308.15	0.5568	863.3	20
308.15	0.6517	874.6	20
308.15	0.7412	886.7	20
308.15	0.8518	904.2	20
308.15	0.9441	921.5	20
308.15	1	933.5	20
313.15	0	815.8	20
313.15	0.0807	820.4	20
313.15	0.1613	825.5	20
313.15	0.2387	830.8	20
313.15	0.3519	839.6	20
313.15	0.4407	847.4	20
313.15	0.5568	859.2	20
313.15	0.6517	870.3	20
313.15	0.7412	882.4	20
313.15	0.8518	899.7	20
313.15	0.9441	916.9	20
313.15	1	928.8	20
318.15	0	812.4	20
318.15	0.0807	816.9	20
318.15	0.1613	821.9	20
318.15	0.2387	827.2	20
318.15	0.3519	835.9	20
318.15	0.4407	843.6	20
318.15	0.5568	855.3	20
318.15	0.6517	866.3	20
318.15	0.7412	878.3	20
318.15	0.8518	895.5	20
318.15	0.9441	912.6	20
318.15	1	924.4	20
323.15	0	808.9	20
323.15	0.0807	813.3	20
323.15	0.1613	818.3	20
323.15	0.2387	823.5	20
323.15	0.3519	832.1	20
323.15	0.4407	839.8	20
323.15	0.5568	851.4	20
323.15	0.6517	862.5	20
323.15	0.7412	874.4	20
323.15	0.8518	891.7	20
323.15	0.9441	908.8	20
323.15	1	920.7	20

System: cyclohexanone + decan-1-ol; phases: Liquid
Fixed: Pressure, kPa = 100
Property: Viscosity, Pa*s (Liquid); method: Concentric cylinders viscometry
Temperature, K	Mole fraction of cyclohexanone	Viscosity, Pa*s	uncertainty
293.15	0	0.01442	0.00072
293.15	0.0807	0.01223	0.00062
293.15	0.1613	0.01039	0.00052
293.15	0.2387	0.00873	0.00044
293.15	0.3519	0.00664	0.00034
293.15	0.4407	0.00535	0.00027
293.15	0.5568	0.00394	0.0002
293.15	0.6517	0.00308	0.00016
293.15	0.7412	0.00254	0.00013
293.15	0.8518	0.00222	0.00011
293.15	0.9441	0.00217	0.00011
293.15	1	0.0023	0.00012
298.15	0	0.0118	0.00059
298.15	0.0807	0.01	0.0005
298.15	0.1613	0.00843	0.00042
298.15	0.2387	0.00718	0.00036
298.15	0.3519	0.00567	0.00029
298.15	0.4407	0.00469	0.00024
298.15	0.5568	0.00356	0.00018
298.15	0.6517	0.00287	0.00015
298.15	0.7412	0.00243	0.00012
298.15	0.8518	0.00213	0.00011
298.15	0.9441	0.00208	0.00011
298.15	1	0.00209	0.00011
303.15	0	0.00976	0.00049
303.15	0.0807	0.00839	0.00042
303.15	0.1613	0.00721	0.00036
303.15	0.2387	0.00619	0.00031
303.15	0.3519	0.00487	0.00025
303.15	0.4407	0.00404	0.0002
303.15	0.5568	0.00316	0.00016
303.15	0.6517	0.0026	0.00013
303.15	0.7412	0.00223	0.00011
303.15	0.8518	0.00197	0.0001
303.15	0.9441	0.00189	0.0001
303.15	1	0.00191	0.0001
308.15	0	0.00814	0.00041
308.15	0.0807	0.00709	0.00036
308.15	0.1613	0.00614	0.00031
308.15	0.2387	0.00538	0.00027
308.15	0.3519	0.00437	0.00022
308.15	0.4407	0.00369	0.00019
308.15	0.5568	0.00294	0.00015
308.15	0.6517	0.00245	0.00012
308.15	0.7412	0.00211	0.00011
308.15	0.8518	0.00184	9e-05
308.15	0.9441	0.00173	9e-05
308.15	1	0.00175	9e-05
313.15	0	0.00684	0.00034
313.15	0.0807	0.00599	0.0003
313.15	0.1613	0.00526	0.00026
313.15	0.2387	0.0046	0.00023
313.15	0.3519	0.00375	0.00019
313.15	0.4407	0.00317	0.00016
313.15	0.5568	0.0026	0.00013
313.15	0.6517	0.00221	0.00011
313.15	0.7412	0.00192	0.0001
313.15	0.8518	0.0017	9e-05
313.15	0.9441	0.00157	8e-05
313.15	1	0.0016	8e-05
318.15	0	0.0058	0.00029
318.15	0.0807	0.00508	0.00026
318.15	0.1613	0.00445	0.00022
318.15	0.2387	0.00386	0.00019
318.15	0.3519	0.00315	0.00016
318.15	0.4407	0.00269	0.00014
318.15	0.5568	0.00219	0.00011
318.15	0.6517	0.00188	0.0001
318.15	0.7412	0.00167	8e-05
318.15	0.8518	0.00151	8e-05
318.15	0.9441	0.00144	7e-05
318.15	1	0.00146	7e-05
323.15	0	0.00496	0.00025
323.15	0.0807	0.00441	0.00022
323.15	0.1613	0.00388	0.0002
323.15	0.2387	0.00343	0.00017
323.15	0.3519	0.00284	0.00014
323.15	0.4407	0.00246	0.00012
323.15	0.5568	0.00205	0.0001
323.15	0.6517	0.00178	9e-05
323.15	0.7412	0.00157	8e-05
323.15	0.8518	0.00142	7e-05
323.15	0.9441	0.00135	7e-05
323.15	1	0.00134	7e-05
