Measured thermophysical data. Density Characteristics of the CO2-CH4 Binary System: Experimental Data at 313-353 K and 3-18 MPa and Modeling from the PC-SAFT EoS
Source: J. Chem. Eng. Data, 2018, 10.1021/acs.jced.8b00433
Compound 1: carbon dioxide, CO2, InChI=1S/CO2/c2-1-3, purity 99.999%
Compound 2: methane, CH4, InChI=1S/CH4/h1H4, purity 99.999%

System: carbon dioxide + methane; phases: Gas
Property: Mass density, kg/m3 (Gas); method: Buoyancy - hydrostatic balance with magnetic suspension - one sinker
Mole fraction of carbon dioxide	Temperature, K	Pressure, kPa	Mass density, kg/m3	uncertainty
0.0998	313.17	3002	22.748	0.178
0.0998	313.13	4001	30.822	0.211
0.0998	313.19	5002	39.114	0.254
0.0998	313.19	6000	47.652	0.318
0.0998	313.21	6999	56.348	0.368
0.0998	313.21	8000	65.323	0.429
0.0998	313.2	9001	74.487	0.491
0.0998	313.13	10003	83.788	0.556
0.0998	313.14	11000	93.126	0.637
0.0998	313.11	12001	102.596	0.705
0.0998	313.17	15002	130.663	0.912
0.0998	313.17	18004	157.443	1.127
0.0998	333.1	5000	36.091	0.241
0.0998	333.15	6001	43.781	0.283
0.0998	333.13	7000	51.598	0.333
0.0998	333.19	8000	59.549	0.387
0.0998	333.19	8999	67.601	0.438
0.0998	333.18	9999	75.751	0.492
0.0998	333.16	11003	83.984	0.55
0.0998	333.15	11999	92.187	0.603
0.0998	333.12	14999	116.773	0.772
0.0998	333.14	18001	140.51	0.952
0.0998	353.02	2999	19.722	0.157
0.0998	353.23	6000	40.53	0.258
0.0998	353.14	9003	62.172	0.401
0.0998	353.24	11994	84.225	0.551
0.0998	353.15	14995	106.161	0.703
0.0998	353.22	17999	127.527	0.848
0.2017	313.2	3998	35.711	0.214
0.2017	313.21	5000	45.475	0.273
0.2017	313.22	5999	55.518	0.335
0.2017	313.23	7005	65.96	0.4
0.2017	313.22	8000	76.608	0.468
0.2017	313.18	9004	87.631	0.554
0.2017	313.24	10003	98.786	0.63
0.2017	313.14	11001	110.189	0.709
0.2017	313.22	11998	121.576	0.787
0.2017	313.18	14996	155.927	1.082
0.2017	313.09	17999	188.702	1.315
0.2017	333.12	4003	33.068	0.203
0.2017	333.14	4996	41.851	0.256
0.2017	333.13	5996	50.919	0.304
0.2017	333.22	6999	60.167	0.36
0.2017	333.2	8002	69.464	0.418
0.2017	333.08	8999	79.049	0.492
0.2017	333.06	10002	88.824	0.554
0.2017	333.11	11001	98.605	0.603
0.2017	333.16	12001	108.442	0.666
0.2017	333.15	14994	138.03	0.883
0.2017	333.07	17998	166.841	1.103
0.2017	353.18	4002	30.584	0.188
0.2017	353.26	6007	46.942	0.279
0.2017	353.27	9000	72.326	0.433
0.2017	353.28	12001	98.585	0.597
0.2017	353.08	14998	125.022	0.766
0.2017	353.37	17994	150.552	0.929
0.3997	313.14	3998	45.694	0.248
0.3997	313.1	4996	58.587	0.308
0.3997	313.15	5996	72.099	0.38
0.3997	313.16	6996	86.285	0.474
0.3997	313.27	8000	101.088	0.578
0.3997	313.19	8998	116.64	0.673
0.3997	313.19	9995	132.712	0.775
0.3997	313.13	11005	149.559	0.909
0.3997	313.19	11992	166.169	1.022
0.3997	313.11	14997	217.543	1.441
0.3997	313.21	17997	264.841	1.804
0.3997	333.17	4004	41.983	0.226
0.3997	333.08	5002	53.475	0.278
0.3997	333.2	6008	65.434	0.341
0.3997	333.12	6995	77.606	0.406
0.3997	333.22	7995	90.268	0.491
0.3997	333.08	9003	103.555	0.566
0.3997	333.12	9995	116.802	0.643
0.3997	333.14	11002	130.586	0.747
0.3997	333.07	11999	144.496	0.832
0.3997	333.13	14996	186.621	1.127
0.3997	333.16	18001	227.522	1.426
0.3997	353.18	4004	38.873	0.204
0.3997	353.13	6004	60.111	0.324
0.3997	353.17	9004	93.855	0.494
0.3997	353.11	12000	129.551	0.714
0.3997	353.13	14997	165.894	0.956
0.3997	353.12	18000	201.731	1.174
0.6015	313.13	4002	56.419	0.281
0.6015	313.17	5002	73.052	0.366
0.6015	313.13	6004	90.955	0.46
0.6015	313.1	7006	110.298	0.586
0.6015	313.14	7995	130.852	0.734
0.6015	313.17	8998	153.28	0.936
0.6015	313.11	10000	177.419	1.147
0.6015	313.14	11001	202.91	1.388
0.6015	313.18	11998	229.134	1.645
0.6015	313.21	14995	308.146	2.391
0.6015	313.16	18004	375.856	2.77
0.6015	333.12	4001	51.39	0.272
0.6015	333.08	4997	65.944	0.315
0.6015	333.11	6004	81.338	0.404
0.6015	333.16	7002	97.409	0.505
0.6015	333.14	7998	114.282	0.598
0.6015	333.15	8994	131.934	0.699
0.6015	333.19	10001	150.602	0.836
0.6015	333.14	10995	169.869	0.986
0.6015	333.13	12000	189.959	1.151
0.6015	333.15	14999	251.317	1.661
0.6015	333.12	18006	310.346	2.062
0.6015	353.16	3001	35.135	0.185
0.6015	353.12	6004	74.991	0.368
0.6015	353.05	9004	119.448	0.616
0.6015	353.03	10001	135.164	0.69
0.6015	353.09	11999	167.978	0.886
0.6015	353.14	14999	219.076	1.26
0.6015	353.09	17992	269.799	1.62
0.7985	313.15	4004	68.752	0.315
0.7985	313.16	5003	90.396	0.448
0.7985	313.1	5996	114.567	0.595
0.7985	313.1	7003	142.512	0.806
0.7985	313.11	7997	174.464	1.077
0.7985	313.2	9003	212.239	1.476
0.7985	313.13	9996	256.481	2.094
0.7985	313.19	10993	305.994	2.796
0.7985	313.22	12000	357.778	3.415
0.7985	313.14	15004	485.573	4.039
0.7985	313.17	18005	560.943	4.044
0.7985	333.07	4003	62.105	0.282
0.7985	333.17	5002	80.565	0.365
0.7985	333.2	5991	100.196	0.475
0.7985	333.22	7005	121.973	0.605
0.7985	333.2	7994	145.123	0.756
0.7985	333.18	9007	170.905	0.937
0.7985	333.19	9999	198.595	1.179
0.7985	333.19	11002	228.687	1.467
0.7985	333.18	12003	260.729	1.751
0.7985	333.14	14998	360.976	2.673
0.7985	333.16	18000	447.149	3.21
0.7985	353.18	3996	56.892	0.267
0.7985	353.15	6003	90.263	0.422
0.7985	353.22	8998	147.521	0.754
0.7985	353.18	11994	214.517	1.207
0.7985	353.16	15004	288.885	1.77
0.7985	353.11	18006	362.285	2.38
0.8988	313.1	4001	75.134	0.342
0.8988	313.13	5003	100.174	0.505
0.8988	313.17	5997	128.664	0.754
0.8988	313.22	6997	163.201	0.99
0.8988	313.12	7992	206.745	1.536
0.8988	313.18	8998	265.242	2.504
0.8988	313.21	9999	344.181	4.157
0.8988	313.2	10990	432.06	5.582
0.8988	313.15	11997	506.067	5.72
0.8988	313.12	14996	624.636	4.99
0.8988	313.21	17995	683.03	5.135
0.8988	333.17	4007	67.864	0.298
0.8988	333.13	5006	88.521	0.403
0.8988	333.24	6001	110.997	0.536
0.8988	333.19	7001	136.146	0.707
0.8988	333.17	7997	164.576	0.89
0.8988	333.19	8996	196.344	1.274
0.8988	333.21	9996	232.812	1.65
0.8988	333.13	10993	274.201	2.174
0.8988	333.14	11997	319.541	2.763
0.8988	333.08	15000	456.324	4.002
0.8988	333.21	18000	552.634	4.369
0.8988	353.13	4000	61.9	0.266
0.8988	353.12	5997	99.468	0.471
0.8988	353.1	8995	165.756	0.909
0.8988	353.08	12003	250.219	1.614
0.8988	353.15	14999	346.055	2.429
0.8988	353.1	17997	437.7	3.193
