Measured thermophysical data. Experimental Determination and Thermodynamic Modeling of Solid-Liquid Equilibria in the Quaternary System NaCl-KCl-SrCl2-H2O at 288.15 K
Source: J. Chem. Eng. Data, 2018, 10.1021/acs.jced.8b00510
Compound 1: sodium chloride, ClNa, InChI=1S/ClH.Na/h1H;/q;+1/p-1, purity 99.5%
Compound 2: potassium chloride, ClK, InChI=1S/ClH.K/h1H;/q;+1/p-1, purity 99.5%
Compound 3: strontium chloride, Cl2Sr, InChI=1S/2ClH.Sr/h2*1H;/q;;+2/p-2, purity 99.5%
Compound 4: water, H2O, InChI=1S/H2O/h1H2, purity 99.9%

System: potassium chloride + strontium chloride + water; phases: Liquid, Crystal
Fixed: Temperature, K = 288.15
Fixed: Pressure, kPa = 101.3
Property: Mass fraction of strontium chloride (Liquid); method: multiple techniques
Mass fraction of potassium chloride	Mass fraction of strontium chloride	uncertainty
0.2478	0	
0.2005	0.0682	0.0112
0.1652	0.1223	0.0113
0.1436	0.1607	0.0114
0.1105	0.2226	0.0114
0.092	0.2571	0.0117
0.0738	0.3024	0.0119

System: potassium chloride + strontium chloride + water; phases: Liquid, Crystal of intercomponent compound 1
Fixed: Temperature, K = 288.15
Fixed: Pressure, kPa = 101.3
Property: Mass fraction of strontium chloride (Liquid); method: multiple techniques
Mass fraction of potassium chloride	Mass fraction of strontium chloride	uncertainty
0.0738	0.3024	0.0109
0.0539	0.3152	0.0109
0.0223	0.3277	0.0109

System: potassium chloride + strontium chloride + water; phases: Liquid
Property: Refractive index (Na D-line) (Liquid); method: Standard Abbe refractometry
Mass fraction of potassium chloride	Mass fraction of strontium chloride	Temperature, K	Pressure, kPa	Refractive index (Na D-line)	uncertainty
0.0738	0.3024	288.15	101.3	1.4076	0.0004

System: sodium chloride + strontium chloride + water; phases: Liquid, Crystal
Property: Mass fraction of strontium chloride (Liquid); method: multiple techniques
Mass fraction of sodium chloride	Temperature, K	Pressure, kPa	Mass fraction of strontium chloride	uncertainty
0.0942	288.15	101.3	0.2494	0.0108

System: sodium chloride + strontium chloride + water; phases: Liquid, Crystal of intercomponent compound 1
Property: Mass fraction of strontium chloride (Liquid); method: multiple techniques
Mass fraction of sodium chloride	Temperature, K	Pressure, kPa	Mass fraction of strontium chloride	uncertainty
0.0942	288.15	101.3	0.2494	0.0108

System: sodium chloride + strontium chloride + water; phases: Liquid
Property: Refractive index (Na D-line) (Liquid); method: Standard Abbe refractometry
Mass fraction of sodium chloride	Mass fraction of strontium chloride	Temperature, K	Pressure, kPa	Refractive index (Na D-line)	uncertainty
0.0942	0.2494	288.15	101.3	1.4052	0.0004

System: sodium chloride + potassium chloride + water; phases: Liquid, Crystal
Property: Mass fraction of potassium chloride (Liquid); method: multiple techniques
Mass fraction of sodium chloride	Temperature, K	Pressure, kPa	Mass fraction of potassium chloride	uncertainty
0.212	288.15	101.3	0.0932	0.002

System: sodium chloride + potassium chloride + water; phases: Liquid, Crystal
Property: Mass fraction of potassium chloride (Liquid); method: multiple techniques
Mass fraction of sodium chloride	Temperature, K	Pressure, kPa	Mass fraction of potassium chloride	uncertainty
0.212	288.15	101.3	0.0932	0.002

System: sodium chloride + potassium chloride + water; phases: Liquid
Property: Refractive index (Na D-line) (Liquid); method: Standard Abbe refractometry
Mass fraction of sodium chloride	Mass fraction of potassium chloride	Temperature, K	Pressure, kPa	Refractive index (Na D-line)	uncertainty
0.212	0.0932	288.15	101.3	1.3822	0.0004

System: potassium chloride + water; phases: Liquid, Crystal
Property: Mass fraction of potassium chloride (Liquid); method: multiple techniques
Temperature, K	Pressure, kPa	Mass fraction of potassium chloride	uncertainty
288.15	101.3	0.2478	
