Measured thermophysical data. Solubility Investigations in the (NH4)2C2O4-NH4VO3-H2O System from 313.15 to 363.15 K
Source: J. Chem. Eng. Data, 2017, 10.1021/acs.jced.7b00362
Compound 1: ammonium oxalate, C2H8N2O4, InChI=1S/C2H2O4.2H3N/c3-1(4)2(5)6;;/h(H,3,4)(H,5,6);2*1H3, purity 99.5%
Compound 2: ammonium vanadate, H4NO3V, InChI=1S/H3N.3O.V/h1H3;;;;/q;;;-1;/p+1, purity 99.5%
Compound 3: water, H2O, InChI=1S/H2O/h1H2, purity 99.9%

System: ammonium oxalate + water + ammonium vanadate; phases: Liquid
Fixed: Pressure, kPa = 100.7
Property: Mass density, kg/m3 (Liquid); method: Pycnometric method
Temperature, K	Molality, mol/kg of ammonium oxalate	Molality, mol/kg of ammonium vanadate	Mass density, kg/m3	uncertainty
313.15	0	0.0948	1002.3	4.1
313.15	0.016	0.0688	1002.4	4.1
313.15	0.0994	0.0398	1005.8	4.1
313.15	0.1469	0.0347	1007.6	4.1
313.15	0.1715	0.0297	1008.5	4.1
313.15	0.2207	0.0198	1010.4	4.1
313.15	0.2931	0.0148	1013.2	4.1
313.15	0.3632	0.0148	1015.9	4.1
313.15	0.432	0.0137	1018.6	4.1
313.15	0.509	0.0137	1021.6	4.1
313.15	0.532	0.0117	1022.5	4.1
313.15	0.556	0.0098	1023.5	4.1
313.15	0.5816	0	1024.7	4.4
323.15	0	0.1497	1002.2	4.1
323.15	0.0399	0.1036	1003.7	4.1
323.15	0.1044	0.0606	1006.1	4.1
323.15	0.2079	0.0267	1010	4.1
323.15	0.2765	0.0158	1012.7	4.1
323.15	0.3593	0.0148	1015.8	4.1
323.15	0.4782	0.0137	1020.4	4.1
323.15	0.7808	0	1032.3	4.1
333.15	0	0.2116	1001.8	4.1
333.15	0.0866	0.0955	1004.9	4.1
333.15	0.1943	0.0525	1008.7	4.1
333.15	0.2699	0.0405	1011.4	4.1
333.15	0.3519	0.0256	1014.3	4.1
333.15	0.4934	0.0255	1019.5	4.1
333.15	0.662	0.0146	1025.7	4.1
333.15	0.8126	0.0107	1031.3	4.1
333.15	1.0053	0	1038.5	12
343.15	0	0.2637	1001.2	4.1
343.15	0.0499	0.2134	1002.8	4.1
343.15	0.0737	0.1784	1003.6	4.1
343.15	0.0986	0.1454	1004.4	4.1
343.15	0.1718	0.1073	1006.8	4.1
343.15	0.2211	0.0783	1008.4	4.1
343.15	0.3418	0.0484	1012.4	4.1
343.15	0.4866	0.0442	1017.2	4.1
343.15	0.6292	0.0401	1021.9	4.1
343.15	0.7875	0.038	1027.3	4.1
343.15	0.9113	0.0378	1031.5	4.1
343.15	1.0275	0.0155	1035.5	7.3
343.15	1.0964	0.0135	1037.9	6.2
343.15	1.2112	0	1041.9	4.2
353.15	0	0.3754	1001.6	4.1
353.15	0.0439	0.332	1003	4.1
353.15	0.0886	0.2907	1004.4	4.1
353.15	0.1441	0.2296	1006.1	4.1
353.15	0.2604	0.1228	1009.8	4.1
353.15	0.4227	0.0709	1015	4.1
353.15	0.6226	0.0656	1021.5	4.1
353.15	0.8419	0.0593	1028.7	4.1
353.15	1.2039	0.0413	1040.7	4.4
353.15	1.4288	0	1048.4	5.9
363.15	0	0.453	1002.1	4.6
363.15	0.0439	0.4325	1003.4	4.6
363.15	0.1292	0.3698	1005.9	4.1
363.15	0.1391	0.323	1006.1	4.1
363.15	0.286	0.1989	1010.4	4.1
363.15	0.4676	0.1211	1015.8	4.1
363.15	0.677	0.0959	1022.1	4.1
363.15	0.8915	0.0865	1028.6	4.1
363.15	1.2551	0.0798	1039.8	4.1
363.15	1.6796	0	1053.2	11.7

System: ammonium oxalate + water + ammonium vanadate; phases: Liquid, Crystal
Fixed: Pressure, kPa = 100.7
Property: Molality, mol/kg of ammonium vanadate (Liquid); method: titration
Temperature, K	Molality, mol/kg of ammonium oxalate	Molality, mol/kg of ammonium vanadate	uncertainty
313.15	0	0.0948	0.0229
313.15	0.016	0.0688	0.0212
313.15	0.0994	0.0398	0.0207
313.15	0.1469	0.0347	0.0202
313.15	0.1715	0.0297	0.0204
313.15	0.2207	0.0198	0.0201
313.15	0.2931	0.0148	0.02
313.15	0.3632	0.0148	0.02
313.15	0.432	0.0137	0.02
313.15	0.509	0.0137	0.02
313.15	0.532	0.0117	0.0201
313.15	0.556	0.0098	0.0201
323.15	0	0.1497	0.0315
323.15	0.0399	0.1036	0.0263
323.15	0.1044	0.0606	0.0218
323.15	0.2079	0.0267	0.0207
323.15	0.2765	0.0158	0.0201
323.15	0.3593	0.0148	0.02
323.15	0.4782	0.0137	0.02
323.15	0.7808	0	0.02
333.15	0	0.2116	0.0329
333.15	0.0866	0.0955	0.0257
333.15	0.1943	0.0525	0.0209
333.15	0.2699	0.0405	0.0203
333.15	0.3519	0.0256	0.02
333.15	0.4934	0.0255	0.02
333.15	0.662	0.0146	0.02
333.15	0.8126	0.0107	0.02
343.15	0	0.2637	0.0346
343.15	0.0499	0.2134	0.0277
343.15	0.0737	0.1784	0.0286
343.15	0.0986	0.1454	0.0263
343.15	0.1718	0.1073	0.0226
343.15	0.2211	0.0783	0.0211
343.15	0.3418	0.0484	0.0202
343.15	0.4866	0.0442	0.02
343.15	0.6292	0.0401	0.02
343.15	0.7875	0.038	0.02
343.15	0.9113	0.0378	0.0201
343.15	1.0275	0.0155	0.0202
343.15	1.0964	0.0135	0.02
353.15	0	0.3754	0.0248
353.15	0.0439	0.332	0.0278
353.15	0.0886	0.2907	0.029
353.15	0.1441	0.2296	0.0278
353.15	0.2604	0.1228	0.0228
353.15	0.4227	0.0709	0.0202
353.15	0.6226	0.0656	0.02
353.15	0.8419	0.0593	0.02
353.15	1.2039	0.0413	0.02
363.15	0	0.453	0.0221
363.15	0.0439	0.4325	0.024
363.15	0.1292	0.3698	0.0281
363.15	0.1391	0.323	0.0277
363.15	0.286	0.1989	0.0235
363.15	0.4676	0.1211	0.0207
363.15	0.677	0.0959	0.0201
363.15	0.8915	0.0865	0.02
363.15	1.2551	0.0798	0.02

System: ammonium oxalate + water + ammonium vanadate; phases: Liquid, Crystal of intercomponent compound 1
Fixed: Pressure, kPa = 100.7
Property: Molality, mol/kg of ammonium vanadate (Liquid); method: titration
Temperature, K	Molality, mol/kg of ammonium oxalate	Molality, mol/kg of ammonium vanadate	uncertainty
313.15	0.5816	0	0.02
323.15	0.7808	0	0.02
333.15	1.0053	0	0.02
343.15	1.2112	0	0.02
353.15	1.4288	0	0.02
363.15	1.6796	0	0.02

System: water + ammonium vanadate; phases: Liquid
Fixed: Pressure, kPa = 100.7
Property: Mass density, kg/m3 (Liquid); method: Pycnometric method
Temperature, K	Molality, mol/kg of ammonium vanadate	Mass density, kg/m3	uncertainty
313.15	0.0948	1002.3	4.1
323.15	0.1497	1002.2	4.1
333.15	0.2116	1001.8	4
343.15	0.2637	1001.2	4
353.15	0.3754	1001.6	4
363.15	0.453	1002.1	4

System: water + ammonium vanadate; phases: Liquid, Crystal
Fixed: Pressure, kPa = 100.7
Property: Molality, mol/kg of ammonium vanadate (Liquid); method: titration
Temperature, K	Molality, mol/kg of ammonium vanadate	uncertainty
313.15	0.0948	0.02
323.15	0.1497	0.02
333.15	0.2116	0.02
343.15	0.2637	0.0201
353.15	0.3754	0.0201
363.15	0.453	0.0201

System: ammonium oxalate + water; phases: Liquid
Fixed: Pressure, kPa = 100.7
Property: Mass density, kg/m3 (Liquid); method: Pycnometric method
Temperature, K	Molality, mol/kg of ammonium oxalate	Mass density, kg/m3	uncertainty
313.15	0.5816	1024.7	4
323.15	0.7808	1032.3	4.2
333.15	1.0053	1038.5	5.1
343.15	1.2112	1041.9	6.8
353.15	1.4288	1048.4	4.2
363.15	1.6796	1053.2	4

System: ammonium oxalate + water; phases: Liquid, Crystal of intercomponent compound 1
Fixed: Pressure, kPa = 100.7
Property: Molality, mol/kg of ammonium oxalate (Liquid); method: titration
Temperature, K	Molality, mol/kg of ammonium oxalate	uncertainty
313.15	0.5816	0.0204
323.15	0.7808	0.0205
333.15	1.0053	0.0206
343.15	1.2112	0.0206
353.15	1.4288	0.0208
363.15	1.6796	0.0209
