Measured thermophysical data. Novel Aqueous Two-Phase System Consisting of 1,4-Bis(2-hydroxypropyl)-piperazine, Na2SO4, and H2O: Temperature-Dependent Equilibrium Data and Physical Properties
Source: J. Chem. Eng. Data, 2017, 10.1021/acs.jced.7b00276
Compound 1: water, H2O, InChI=1S/H2O/h1H2, purity 99.8%
Compound 2: sodium sulfate, Na2O4S, InChI=1S/2Na.H2O4S/c;;1-5(2,3)4/h;;(H2,1,2,3,4)/q2*+1;/p-2, purity 99%
Compound 3: 1,1'-(piperazine-1,4-diyl)bis(propan-2-ol), C10H22N2O2, InChI=1S/C10H22N2O2/c1-9(13)7-11-3-5-12(6-4-11)8-10(2)14/h9-10,13-14H,3-8H2,1-2H3

System: 1,1'-(piperazine-1,4-diyl)bis(propan-2-ol) + sodium sulfate + water; phases: Liquid mixture 1, Liquid mixture 2
Fixed: Pressure, kPa = 100
Property: Mass fraction of sodium sulfate (Liquid mixture 1); method: Titration method
Temperature, K	Mass fraction of 1,1'-(piperazine-1,4-diyl)bis(propan-2-ol)	Mass fraction of sodium sulfate	uncertainty
303.15	0.0137	0.2686	0.0288
303.15	0.0151	0.263	0.0273
303.15	0.01691	0.2572	0.0263
303.15	0.01871	0.2505	0.0247
303.15	0.0205	0.2428	0.0219
303.15	0.0229	0.2426	0.0218
303.15	0.0269	0.2344	0.0226
303.15	0.0328	0.2203	0.0188
303.15	0.0367	0.2176	0.0201
303.15	0.0425	0.2099	0.0183
303.15	0.0469	0.2038	0.0163
303.15	0.0552	0.1945	0.0166
303.15	0.0615	0.1888	0.015
303.15	0.0683	0.1818	0.0148
303.15	0.0679	0.1794	0.0146
303.15	0.0898	0.1614	0.0138
303.15	0.099	0.1541	0.0138
303.15	0.1115	0.1455	0.013
303.15	0.1207	0.1389	0.0128
303.15	0.1282	0.1333	0.0128
303.15	0.1429	0.1236	0.0124
303.15	0.1617	0.1119	0.012
303.15	0.1702	0.1073	0.012
303.15	0.1789	0.1023	0.0119
303.15	0.1883	0.0965	0.0118
303.15	0.1952	0.0928	0.0118
303.15	0.2026	0.0888	0.0116
303.15	0.209	0.0855	0.0116
303.15	0.2204	0.0793	0.0114
303.15	0.2299	0.0748	0.0114
303.15	0.2367	0.0714	0.0113
303.15	0.243	0.0682	0.0112
303.15	0.2488	0.0658	0.0112
303.15	0.2555	0.0627	0.011
303.15	0.2612	0.0602	0.011
303.15	0.2704	0.0565	0.0109
303.15	0.2751	0.0543	0.0108
303.15	0.2813	0.052	0.0108
303.15	0.2886	0.0496	0.0107
303.15	0.2954	0.0467	0.0107
303.15	0.301	0.0449	0.0107
303.15	0.3053	0.0433	0.0106
303.15	0.3113	0.0417	0.0105
303.15	0.316	0.0403	0.0105
303.15	0.3205	0.0388	0.0105
303.15	0.3245	0.0376	0.0105
303.15	0.3303	0.036	0.0104
303.15	0.336	0.0343	0.0104
303.15	0.3449	0.0323	0.0104
303.15	0.3507	0.0304	0.0104
303.15	0.3562	0.0292	0.0104
303.15	0.3618	0.0275	0.0103
303.15	0.3689	0.0261	0.0102
303.15	0.3777	0.0242	0.0102
303.15	0.3849	0.0232	0.0102
308.15	0.0058	0.3033	0.0273
308.15	0.007	0.2961	0.029
308.15	0.0075	0.2926	0.03
308.15	0.0083	0.2886	0.0322
308.15	0.0095	0.2836	0.0334
308.15	0.0154	0.2615	0.0271
308.15	0.0169	0.2569	0.0321
308.15	0.0189	0.2515	0.03
308.15	0.022	0.2442	0.0252
308.15	0.025	0.2377	0.0241
308.15	0.09	0.1604	0.0131
308.15	0.1115	0.1465	0.0127
308.15	0.1343	0.1314	0.0125
308.15	0.1524	0.1198	0.0122
308.15	0.1787	0.1044	0.012
308.15	0.2712	0.0581	0.0109
308.15	0.2799	0.0547	0.0109
308.15	0.2917	0.0501	0.0107
308.15	0.3021	0.0466	0.0106
308.15	0.3098	0.0439	0.0106
308.15	0.35288	0.0315	0.0104
308.15	0.364	0.0289	0.0103
308.15	0.3743	0.0266	0.0103
308.15	0.3825	0.0247	0.0102
308.15	0.3902	0.0232	0.0101
308.15	0.4364	0.017	0.0101
308.15	0.4385	0.0164	0.0101
308.15	0.447	0.0153	0.0101
308.15	0.4566	0.0141	0.0101
308.15	0.4625	0.0131	0.0101
308.15	0.0097	0.2832	0.034
308.15	0.0106	0.2763	0.0342
308.15	0.0115	0.2744	0.0341
308.15	0.0128	0.2701	0.0313
308.15	0.0139	0.2643	0.0295
308.15	0.03	0.2275	0.0207
308.15	0.0378	0.2135	0.0176
308.15	0.0476	0.202	0.0171
308.15	0.062	0.1877	0.015
308.15	0.0687	0.1763	0.0149
308.15	0.1943	0.0956	0.0118
308.15	0.2141	0.0849	0.0115
308.15	0.2237	0.0798	0.0115
308.15	0.2371	0.0733	0.0112
308.15	0.2594	0.0632	0.0111
308.15	0.317	0.0417	0.0105
308.15	0.3252	0.0392	0.0105
308.15	0.3316	0.0373	0.0105
308.15	0.3346	0.0363	0.0105
308.15	0.3448	0.0337	0.0103
308.15	0.3974	0.0222	0.0101
308.15	0.408	0.0212	0.0101
308.15	0.4124	0.0202	0.0101
308.15	0.4173	0.0192	0.0101
308.15	0.4268	0.0179	0.0101
308.15	0.4687	0.0125	0.0101
308.15	0.4719	0.0119	0.0101
308.15	0.4775	0.0112	0.0101
313.15	0.0058	0.3005	0.029
313.15	0.0071	0.2952	0.0351
313.15	0.0084	0.2882	0.0415
313.15	0.0101	0.2781	0.0398
313.15	0.0122	0.2693	0.0397
313.15	0.0152	0.2632	0.0239
313.15	0.0191	0.25	0.0283
313.15	0.0238	0.2438	0.0203
313.15	0.0302	0.2304	0.0183
313.15	0.042	0.2173	0.0174
313.15	0.0687	0.1777	0.0148
313.15	0.1154	0.1423	0.0129
313.15	0.1395	0.1265	0.0124
313.15	0.1599	0.1147	0.0119
313.15	0.1837	0.1017	0.0117
313.15	0.2008	0.0926	0.0116
313.15	0.2146	0.0851	0.0116
313.15	0.2275	0.0786	0.0114
313.15	0.2419	0.0717	0.0112
313.15	0.2536	0.0665	0.0111
313.15	0.2687	0.0601	0.011
313.15	0.2761	0.0571	0.0109
313.15	0.2858	0.0531	0.0108
313.15	0.2951	0.0498	0.0107
313.15	0.3043	0.0466	0.0107
313.15	0.3131	0.0439	0.0106
313.15	0.3175	0.0421	0.0105
313.15	0.3264	0.0397	0.0105
313.15	0.3321	0.0381	0.0105
313.15	0.3383	0.0362	0.0104
313.15	0.3458	0.034	0.0104
313.15	0.3582	0.0308	0.0103
313.15	0.3671	0.0287	0.0103
313.15	0.3768	0.0267	0.0103
313.15	0.3821	0.0256	0.0102
313.15	0.3897	0.024	0.0102
313.15	0.3934	0.0232	0.0102
313.15	0.3963	0.0227	0.0101
313.15	0.4062	0.0205	0.0101
313.15	0.4182	0.02	0.0101
313.15	0.4315	0.0181	0.0101
313.15	0.4449	0.0169	0.0101
313.15	0.4578	0.0159	0.0102
313.15	0.4589	0.0154	0.0101
313.15	0.4687	0.0144	0.0103
313.15	0.4702	0.0139	0.0103
313.15	0.4669	0.0131	0.0102
313.15	0.4679	0.0126	0.0103
313.15	0.4722	0.012	0.0103
313.15	0.4732	0.0116	0.0103
313.15	0.4763	0.0111	0.0103
313.15	0.4775	0.0107	0.0102
313.15	0.4817	0.0102	0.0102
313.15	0.4837	0.0098	0.0098
318.15	0.0081	0.3179	0.0371
318.15	0.0084	0.3086	0.0368
318.15	0.0091	0.2887	0.0369
318.15	0.0101	0.2711	0.0391
318.15	0.0122	0.2645	0.0325
318.15	0.0155	0.2597	0.0286
318.15	0.0204	0.2447	0.0241
318.15	0.0284	0.2275	0.0245
318.15	0.039	0.2095	0.0194
318.15	0.0524	0.1907	0.0163
318.15	0.073	0.1712	0.0133
318.15	0.0944	0.1596	0.0127
318.15	0.1344	0.133	0.0126
318.15	0.1592	0.1169	0.0124
318.15	0.1737	0.1082	0.0118
318.15	0.2099	0.0889	0.0116
318.15	0.2227	0.0823	0.0115
318.15	0.2382	0.0745	0.0114
318.15	0.2475	0.07	0.0112
318.15	0.2558	0.066	0.0111
318.15	0.2647	0.0624	0.011
318.15	0.279	0.0564	0.0109
318.15	0.292	0.0516	0.0107
318.15	0.2993	0.0485	0.0107
318.15	0.308	0.0458	0.0106
318.15	0.3161	0.0431	0.0105
318.15	0.3242	0.0408	0.0105
318.15	0.3306	0.0389	0.0105
318.15	0.3376	0.0368	0.0105
318.15	0.3433	0.0353	0.0104
318.15	0.3508	0.033	0.0104
318.15	0.3577	0.0316	0.0104
318.15	0.3618	0.0303	0.0103
318.15	0.3667	0.0292	0.0103
318.15	0.3728	0.0278	0.0103
318.15	0.379	0.0265	0.0103
318.15	0.3854	0.025	0.0102
318.15	0.3922	0.0236	0.0102
318.15	0.3956	0.023	0.0101
318.15	0.4034	0.022	0.0101
318.15	0.4112	0.0211	0.0101
318.15	0.4206	0.0204	0.0101
318.15	0.4301	0.0192	0.0101
318.15	0.4396	0.0171	0.0101
318.15	0.4497	0.0156	0.0101
318.15	0.4573	0.0148	0.0101
318.15	0.4645	0.0139	0.0101
318.15	0.4713	0.0129	0.0101
318.15	0.4768	0.0121	0.0101
318.15	0.4844	0.0113	0.0101
318.15	0.4882	0.0105	0.01
318.15	0.4969	0.0098	0.0098
318.15	0.5054	0.0091	0.0091
323.15	0.0076	0.2927	0.0316
323.15	0.0088	0.2848	0.0336
323.15	0.011	0.2724	0.0336
323.15	0.0132	0.2647	0.029
323.15	0.0172	0.2517	0.0267
323.15	0.0221	0.2378	0.0278
323.15	0.0272	0.228	0.0226
323.15	0.0346	0.2129	0.0187
323.15	0.0415	0.2044	0.0182
323.15	0.056	0.1874	0.0155
323.15	0.071	0.173	0.0138
323.15	0.0963	0.154	0.013
323.15	0.1264	0.134	0.0124
323.15	0.1612	0.1135	0.012
323.15	0.1778	0.1044	0.0118
323.15	0.198	0.0935	0.0115
323.15	0.2272	0.0798	0.0113
323.15	0.2385	0.0743	0.0112
323.15	0.2602	0.0648	0.011
323.15	0.2765	0.0584	0.0108
323.15	0.2857	0.0543	0.0108
323.15	0.2995	0.0496	0.0106
323.15	0.3131	0.0453	0.0105
323.15	0.3196	0.0426	0.0106
323.15	0.3298	0.0402	0.0105
323.15	0.3372	0.0378	0.0104
323.15	0.342	0.0358	0.0104
323.15	0.3549	0.0335	0.0103
323.15	0.3664	0.0306	0.0104
323.15	0.3725	0.029	0.0103
323.15	0.3768	0.0272	0.0103
323.15	0.3876	0.0259	0.0102
323.15	0.3932	0.0247	0.0102
323.15	0.4024	0.0231	0.0102
323.15	0.4071	0.0222	0.0101
323.15	0.408	0.0217	0.0101
323.15	0.4221	0.0203	0.0101
323.15	0.4363	0.0185	0.0102
323.15	0.4414	0.0171	0.0102
323.15	0.4524	0.0147	0.0101
323.15	0.4629	0.0146	0.0101
323.15	0.4694	0.0136	0.0101
323.15	0.4716	0.0131	0.0101
323.15	0.4754	0.0125	0.0101
323.15	0.4803	0.0116	0.0101
323.15	0.4833	0.0111	0.0101
323.15	0.484	0.0107	0.0101
323.15	0.4909	0.0101	0.0101
323.15	0.4945	0.0098	0.0098
323.15	0.4978	0.0094	0.0094

System: 1,1'-(piperazine-1,4-diyl)bis(propan-2-ol) + sodium sulfate + water; phases: Liquid mixture 2, Liquid mixture 1
Fixed: Pressure, kPa = 100
Property: Mass fraction of 1,1'-(piperazine-1,4-diyl)bis(propan-2-ol) (Liquid mixture 2); method: Titration method
Property: Mass fraction of sodium sulfate (Liquid mixture 1); method: Titration method
Property: Mass fraction of 1,1'-(piperazine-1,4-diyl)bis(propan-2-ol) (Liquid mixture 1); method: Titration method
Temperature, K	Mass fraction of sodium sulfate	Mass fraction of 1,1'-(piperazine-1,4-diyl)bis(propan-2-ol)	uncertainty	Mass fraction of sodium sulfate	uncertainty	Mass fraction of 1,1'-(piperazine-1,4-diyl)bis(propan-2-ol)	uncertainty
303.15	0.2703	0.0169	0.0105	0.0194	0.0121	0.3681	
308.15	0.2421	0.0299	0.0104	0.0349	0.0101	0.3524	
313.15	0.29026	0.0128	0.0102	0.0159	0.0105	0.4578	
318.15	0.2404	0.0274	0.0109	0.0373	0.0103	0.3827	
313.15	0.2675	0.0174	0.0107	0.028	0.0102	0.4182	
313.15	0.2403	0.0319	0.0111	0.0332	0.0102	0.3744	
313.15	0.2235	0.0379	0.0118	0.0435	0.0105	0.3422	
313.15	0.1948	0.0593	0.0132	0.0549	0.0104	0.2974	
318.15	0.2969	0.0106	0.0101	0.0201	0.0101	0.4785	
318.15	0.2781	0.0134	0.0105	0.023	0.0102	0.4476	
318.15	0.2205	0.0389	0.0135	0.0427	0.0108	0.3561	
323.15	0.1981	0.0665	0.0208	0.0597	0.0122	0.3194	
303.15	0.2508	0.0228	0.0106	0.0289	0.0107	0.3542	
318.15	0.2079	0.0576	0.018	0.0598	0.0114	0.3228	
323.15	0.2906	0.0096	0.0096	0.0114	0.0102	0.5044	
323.15	0.273	0.0169	0.0106	0.0207	0.0101	0.4598	
323.15	0.2431	0.026	0.0106	0.0263	0.0102	0.4121	
323.15	0.2147	0.0364	0.0131	0.0405	0.0106	0.3474	
303.15	0.2401	0.0272	0.0114	0.0325	0.0106	0.3337	
308.15	0.2122	0.0332	0.0101	0.0361	0.0101	0.3187	
303.15	0.2245	0.037	0.0129	0.0433	0.0113	0.31	
303.15	0.1918	0.0654	0.0134	0.0564	0.0115	0.2861	
308.15	0.3045	0.0119	0.0101	0.0263	0.0101	0.4364	
308.15	0.2933	0.0137	0.0101	0.0282	0.0101	0.4173	
308.15	0.2625	0.0185	0.0105	0.0329	0.0101	0.3775	

System: 1,1'-(piperazine-1,4-diyl)bis(propan-2-ol) + sodium sulfate + water; phases: Liquid
Fixed: Pressure, kPa = 100
Property: Mass density, kg/m3 (Liquid); method: Pycnometric method
Temperature, K	Mass fraction of 1,1'-(piperazine-1,4-diyl)bis(propan-2-ol)	Mass fraction of sodium sulfate	Mass density, kg/m3	uncertainty
303.15	0.3681	0.0194	1058.4	1.8
303.15	0.3542	0.0289	1059	1.8
303.15	0.3337	0.0325	1061.1	2.2
303.15	0.31	0.0433	1064.9	1.4
303.15	0.2861	0.0564	1068.5	1.9
303.15	0.0169	0.2703	1269.6	11.7
303.15	0.0228	0.2508	1252.1	38.8
303.15	0.0272	0.2401	1238	38.8
303.15	0.037	0.2245	1201.8	44.6
303.15	0.0654	0.1918	1199.2	14.9
308.15	0.4364	0.0263	1056.3	2.2
308.15	0.4173	0.0282	1056.6	5.9
308.15	0.3775	0.0329	1061.6	9.1
308.15	0.3524	0.0349	1065.5	1.6
308.15	0.3187	0.0361	1067.1	2.5
308.15	0.0119	0.3045	1277.2	87.9
308.15	0.0137	0.2933	1267.1	422.4
308.15	0.0185	0.2625	1245.6	370.2
308.15	0.0299	0.2421	1217.8	37.6
308.15	0.0332	0.2122	1212.9	29.4
313.15	0.4578	0.0159	1051	3.1
313.15	0.4182	0.028	1052.6	2.2
313.15	0.3744	0.0332	1054.5	7.2
313.15	0.3422	0.0435	1055.1	6.4
313.15	0.2974	0.0549	1065.6	7.5
313.15	0.0128	0.29026	1268.6	90.9
313.15	0.0174	0.2675	1256.4	43
313.15	0.0319	0.2403	1223.4	14.6
313.15	0.0379	0.2235	1209.3	8.1
313.15	0.0593	0.1948	1180.9	11.1
318.15	0.4785	0.0201	1047	0.6
318.15	0.4476	0.023	1048	0.6
318.15	0.3827	0.0373	1051.6	1.7
318.15	0.3561	0.0427	1055.7	4.3
318.15	0.3228	0.0598	1062	1.8
318.15	0.0106	0.2969	1281	134.5
318.15	0.0134	0.2781	1261	34
318.15	0.0274	0.2404	1217.5	14.9
318.15	0.0389	0.2205	1197.3	15.2
318.15	0.0576	0.2079	1174.3	10.3
323.15	0.5044	0.0114	1041.8	1.8
323.15	0.4598	0.0207	1044.1	2
323.15	0.4121	0.0263	1045.9	1.9
323.15	0.3474	0.0405	1053	2.7
323.15	0.3194	0.0597	1059.4	2.7
323.15	0.0096	0.2906	1270.1	14.4
323.15	0.0169	0.273	1249	12.3
323.15	0.026	0.2431	1221	87.8
323.15	0.0364	0.2147	1201	9.5
323.15	0.0665	0.1981	1168.5	9.5

System: 1,1'-(piperazine-1,4-diyl)bis(propan-2-ol) + sodium sulfate + water; phases: Liquid
Fixed: Pressure, kPa = 100
Property: Refractive index (Na D-line) (Liquid); method: Standard Abbe refractometry
Temperature, K	Mass fraction of 1,1'-(piperazine-1,4-diyl)bis(propan-2-ol)	Mass fraction of sodium sulfate	Refractive index (Na D-line)	uncertainty
303.15	0.3681	0.0194	1.4101	0.0019
303.15	0.3542	0.0289	1.407	0.0019
303.15	0.3337	0.0325	1.4039	0.0021
303.15	0.31	0.0433	1.3992	0.0018
303.15	0.2861	0.0564	1.395	0.0018
303.15	0.0169	0.2703	1.3731	0.008
303.15	0.0228	0.2508	1.3729	0.0071
303.15	0.0272	0.2401	1.372	0.0071
303.15	0.037	0.2245	1.3718	0.0011
303.15	0.0654	0.1918	1.3717	0.0031
308.15	0.4364	0.0263	1.4201	0.0086
308.15	0.4173	0.0282	1.414	0.0026
308.15	0.3775	0.0329	1.4079	0.0033
308.15	0.3524	0.0349	1.4022	0.0023
308.15	0.3187	0.0361	1.3975	0.0021
308.15	0.0119	0.3045	1.376	0.0534
308.15	0.0137	0.2933	1.3749	0.066
308.15	0.0185	0.2625	1.3709	0.0233
308.15	0.0299	0.2421	1.3702	0.0008
308.15	0.0332	0.2122	1.369	0.0016
313.15	0.4578	0.0159	1.4199	0.027
313.15	0.4182	0.028	1.4139	0.003
313.15	0.3744	0.0332	1.4062	0.0029
313.15	0.3422	0.0435	1.402	0.0078
313.15	0.2974	0.0549	1.3968	0.0012
313.15	0.0128	0.29026	1.3749	0.0138
313.15	0.0174	0.2675	1.372	0.0015
313.15	0.0319	0.2403	1.3705	0.0014
313.15	0.0379	0.2235	1.37	0.0035
313.15	0.0593	0.1948	1.3696	0.0026
318.15	0.4785	0.0201	1.4244	0.0053
318.15	0.4476	0.023	1.419	0.0053
318.15	0.3827	0.0373	1.4083	0.0173
318.15	0.3561	0.0427	1.403	0.0019
318.15	0.3228	0.0598	1.3961	0.002
318.15	0.0106	0.2969	1.3745	0.012
318.15	0.0134	0.2781	1.3728	0.0042
318.15	0.0274	0.2404	1.3695	0.0018
318.15	0.0389	0.2205	1.368	0.0006
318.15	0.0576	0.2079	1.3678	0.0014
323.15	0.5044	0.0114	1.4236	0.0043
323.15	0.4598	0.0207	1.4185	0.0034
323.15	0.4121	0.0263	1.412	0.0015
323.15	0.3474	0.0405	1.4003	0.0031
323.15	0.3194	0.0597	1.3979	0.0031
323.15	0.0096	0.2906	1.3738	0.0053
323.15	0.0169	0.273	1.3703	0.0059
323.15	0.026	0.2431	1.3686	0.0044
323.15	0.0364	0.2147	1.3678	0.0005
323.15	0.0665	0.1981	1.3674	0.0005

System: 1,1'-(piperazine-1,4-diyl)bis(propan-2-ol) + sodium sulfate + water; phases: Liquid
Fixed: Pressure, kPa = 100
Property: Viscosity, Pa*s (Liquid); method: Capillary tube (Ostwald; Ubbelohde) method
Temperature, K	Mass fraction of 1,1'-(piperazine-1,4-diyl)bis(propan-2-ol)	Mass fraction of sodium sulfate	Viscosity, Pa*s	uncertainty
303.15	0.3681	0.0194	0.0081	0.00071
303.15	0.3542	0.0289	0.0076	0.00071
303.15	0.3337	0.0325	0.00649	0.00098
303.15	0.31	0.0433	0.00568	0.00064
303.15	0.2861	0.0564	0.00433	0.00057
303.15	0.0169	0.2703	0.00241	0.00051
303.15	0.0228	0.2508	0.00239	0.00035
303.15	0.0272	0.2401	0.00234	0.00035
303.15	0.037	0.2245	0.00217	0.00032
303.15	0.0654	0.1918	0.00213	0.00032
308.15	0.4364	0.0263	0.00919	0.00109
308.15	0.4173	0.0282	0.0087	0.00053
308.15	0.3775	0.0329	0.00637	0.00062
308.15	0.3524	0.0349	0.0054	0.0004
308.15	0.3187	0.0361	0.00432	0.0006
308.15	0.0119	0.3045	0.00233	0.00146
308.15	0.0137	0.2933	0.00221	0.00741
308.15	0.0185	0.2625	0.00199	0.00212
308.15	0.0299	0.2421	0.00193	7e-05
308.15	0.0332	0.2122	0.00187	8e-05
313.15	0.4578	0.0159	0.00844	0.00448
313.15	0.4182	0.028	0.00665	0.00072
313.15	0.3744	0.0332	0.0049	0.00073
313.15	0.3422	0.0435	0.0043	0.00183
313.15	0.2974	0.0549	0.00347	0.00043
313.15	0.0128	0.29026	0.00196	0.0011
313.15	0.0174	0.2675	0.00181	0.00076
313.15	0.0319	0.2403	0.00174	0.0001
313.15	0.0379	0.2235	0.00165	0.00017
313.15	0.0593	0.1948	0.00161	0.00023
318.15	0.4785	0.0201	0.00798	0.00042
318.15	0.4476	0.023	0.00641	0.00042
318.15	0.3827	0.0373	0.00422	0.00447
318.15	0.3561	0.0427	0.00348	0.00032
318.15	0.3228	0.0598	0.00294	0.00052
318.15	0.0106	0.2969	0.00185	0.00064
318.15	0.0134	0.2781	0.00171	0.00016
318.15	0.0274	0.2404	0.0015	0.0001
318.15	0.0389	0.2205	0.00146	7e-05
318.15	0.0576	0.2079	0.00145	7e-05
323.15	0.5044	0.0114	0.00663	0.00105
323.15	0.4598	0.0207	0.00567	0.00049
323.15	0.4121	0.0263	0.00435	0.00058
323.15	0.3474	0.0405	0.0031	0.00027
323.15	0.3194	0.0597	0.00274	0.00027
323.15	0.0096	0.2906	0.00169	0.00046
323.15	0.0169	0.273	0.0015	0.00083
323.15	0.026	0.2431	0.00139	0.00146
323.15	0.0364	0.2147	0.00136	6e-05
323.15	0.0665	0.1981	0.00133	6e-05

System: 1,1'-(piperazine-1,4-diyl)bis(propan-2-ol) + sodium sulfate + water; phases: Liquid, Air at 1 atmosphere
Property: Surface tension liquid-gas, N/m (Liquid); method: Maximal bubble pressure
Temperature, K	Mass fraction of 1,1'-(piperazine-1,4-diyl)bis(propan-2-ol)	Mass fraction of sodium sulfate	Surface tension liquid-gas, N/m	uncertainty
303.15	0.3681	0.0194	0.047	0.0012
303.15	0.3542	0.0289	0.048	0.0012
303.15	0.3337	0.0325	0.0485	0.0008
303.15	0.31	0.0433	0.0489	0.0008
303.15	0.2861	0.0564	0.0492	0.0007
303.15	0.0169	0.2703	0.0499	0.0008
303.15	0.0228	0.2508	0.0498	0.0067
303.15	0.0272	0.2401	0.049	0.0067
303.15	0.037	0.2245	0.0487	0.0009
303.15	0.0654	0.1918	0.0486	0.0007
308.15	0.4364	0.0263	0.0451	0.0008
308.15	0.4173	0.0282	0.0454	0.0008
308.15	0.3775	0.0329	0.0462	0.0009
308.15	0.3524	0.0349	0.0466	0.0012
308.15	0.3187	0.0361	0.0468	0.0008
308.15	0.0119	0.3045	0.0477	0.1138
308.15	0.0137	0.2933	0.0475	0.0169
308.15	0.0185	0.2625	0.0472	0.0283
308.15	0.0299	0.2421	0.047	0.0012
308.15	0.0332	0.2122	0.0468	0.0007
313.15	0.4578	0.0159	0.0436	0.0097
313.15	0.4182	0.028	0.0441	0.0008
313.15	0.3744	0.0332	0.0448	0.001
313.15	0.3422	0.0435	0.0451	0.0014
313.15	0.2974	0.0549	0.0454	0.0007
313.15	0.0128	0.29026	0.0475	0.0211
313.15	0.0174	0.2675	0.0466	0.0043
313.15	0.0319	0.2403	0.0464	0.0021
313.15	0.0379	0.2235	0.0461	0.0014
313.15	0.0593	0.1948	0.0458	0.0007
318.15	0.4785	0.0201	0.0419	0.0027
318.15	0.4476	0.023	0.0422	0.0027
318.15	0.3827	0.0373	0.0429	0.0038
318.15	0.3561	0.0427	0.0437	0.0011
318.15	0.3228	0.0598	0.044	0.001
318.15	0.0106	0.2969	0.0448	0.0251
318.15	0.0134	0.2781	0.0445	0.0007
318.15	0.0274	0.2404	0.0442	0.0022
318.15	0.0389	0.2205	0.0442	0.0007
318.15	0.0576	0.2079	0.0441	0.0007
323.15	0.5044	0.0114	0.0416	0.0013
323.15	0.4598	0.0207	0.0425	0.0035
323.15	0.4121	0.0263	0.043	0.0014
323.15	0.3474	0.0405	0.0434	0.0007
323.15	0.3194	0.0597	0.0436	0.0007
323.15	0.0096	0.2906	0.0437	0.0008
323.15	0.0169	0.273	0.0432	0.0054
323.15	0.026	0.2431	0.043	0.0062
323.15	0.0364	0.2147	0.0426	0.0007
323.15	0.0665	0.1981	0.0421	0.0007
