Measured thermophysical data. Liquid-Liquid Equilibrium for the Ternary Systems (Methyl Isobutyl Ketone + Quinoline or Isoquinoline + Water) at 298.15, 318.15, and 338.15 K
Source: J. Chem. Eng. Data, 2018, 10.1021/acs.jced.8b00096
Compound 1: 4-methylpentan-2-one, C6H12O, InChI=1S/C6H12O/c1-5(2)4-6(3)7/h5H,4H2,1-3H3, purity 99%
Compound 2: quinoline, C9H7N, InChI=1S/C9H7N/c1-2-6-9-8(4-1)5-3-7-10-9/h1-7H, purity 99.5%
Compound 3: isoquinoline, C9H7N, InChI=1S/C9H7N/c1-2-4-9-7-10-6-5-8(9)3-1/h1-7H, purity 99.5%
Compound 4: water, H2O, InChI=1S/H2O/h1H2, purity 99.8%

System: 4-methylpentan-2-one + quinoline + water; phases: Liquid mixture 1, Liquid mixture 2
Fixed: Pressure, kPa = 100
Property: Mass fraction of quinoline (Liquid mixture 1); method: Chromatography
Property: Mass fraction of quinoline (Liquid mixture 2); method: Chromatography
Property: Mass fraction of 4-methylpentan-2-one (Liquid mixture 2); method: Chromatography
Temperature, K	Mass fraction of 4-methylpentan-2-one	Mass fraction of quinoline	uncertainty	Mass fraction of quinoline	uncertainty	Mass fraction of 4-methylpentan-2-one	uncertainty
298.15	0.0158	0.0004	0.0004	0.0463	0.0127	0.9205	
318.15	0.0142	0.0008	0.0008	0.0951	0.013	0.8552	
318.15	0.0139	0.0015	0.0015	0.1413	0.013	0.7986	
318.15	0.0137	0.0021	0.0021	0.1914	0.0133	0.7456	
318.15	0.0136	0.0027	0.0027	0.2407	0.0131	0.6938	
318.15	0.0132	0.0033	0.0033	0.2841	0.0129	0.6435	
318.15	0.013	0.0038	0.0038	0.3305	0.0128	0.5903	
318.15	0.0127	0.0044	0.0044	0.374	0.013	0.5362	
338.15	0.0135	0.0003	0.0003	0.0352	0.0125	0.9222	
338.15	0.0134	0.0011	0.0011	0.0973	0.0127	0.8503	
338.15	0.0133	0.0019	0.0019	0.1669	0.0126	0.7698	
298.15	0.0157	0.0009	0.0009	0.0917	0.0128	0.8703	
338.15	0.0131	0.0026	0.0026	0.2168	0.0126	0.7083	
338.15	0.0128	0.0033	0.0033	0.2601	0.0128	0.6582	
338.15	0.0125	0.0041	0.0041	0.3058	0.0128	0.6045	
338.15	0.0122	0.0047	0.0047	0.3453	0.0128	0.5585	
338.15	0.0118	0.0053	0.0053	0.372	0.0127	0.5259	
298.15	0.0156	0.0013	0.0013	0.1224	0.0132	0.8338	
298.15	0.0155	0.002	0.002	0.1816	0.0134	0.7735	
298.15	0.0152	0.0025	0.0025	0.2297	0.0131	0.7232	
298.15	0.0151	0.003	0.003	0.2801	0.0133	0.6657	
298.15	0.0148	0.0036	0.0036	0.3201	0.0137	0.6268	
298.15	0.0145	0.0042	0.0042	0.3726	0.0136	0.5724	
318.15	0.0144	0.0003	0.0003	0.0353	0.0123	0.9151	
298.15	0.0163	0		0		0.9763	
318.15	0.0152	0		0		0.9725	
338.15	0.0137	0		0		0.9666	

System: 4-methylpentan-2-one + isoquinoline + water; phases: Liquid mixture 1, Liquid mixture 2
Fixed: Pressure, kPa = 100
Property: Mass fraction of isoquinoline (Liquid mixture 1); method: Chromatography
Property: Mass fraction of isoquinoline (Liquid mixture 2); method: Chromatography
Property: Mass fraction of 4-methylpentan-2-one (Liquid mixture 2); method: Chromatography
Temperature, K	Mass fraction of 4-methylpentan-2-one	Mass fraction of isoquinoline	uncertainty	Mass fraction of isoquinoline	uncertainty	Mass fraction of 4-methylpentan-2-one	uncertainty
298.15	0.0158	0.0004	0.0004	0.0452	0.0127	0.9205	
318.15	0.0143	0.0007	0.0007	0.0675	0.0124	0.8788	
318.15	0.0142	0.0014	0.0014	0.132	0.0129	0.8021	
318.15	0.014	0.0019	0.0019	0.1724	0.0128	0.761	
318.15	0.0137	0.0026	0.0026	0.2297	0.013	0.6931	
318.15	0.0134	0.0032	0.0032	0.2711	0.0134	0.6526	
318.15	0.0131	0.0038	0.0038	0.3103	0.0134	0.6097	
318.15	0.0128	0.0045	0.0045	0.3597	0.0138	0.5601	
338.15	0.0136	0.0004	0.0004	0.0452	0.0122	0.8982	
338.15	0.0134	0.0012	0.0012	0.1064	0.0126	0.8313	
338.15	0.0132	0.0017	0.0017	0.1471	0.0124	0.7778	
298.15	0.0157	0.001	0.001	0.0961	0.0129	0.8653	
338.15	0.0131	0.0024	0.0024	0.1993	0.0127	0.7173	
338.15	0.0129	0.003	0.003	0.2406	0.0132	0.6672	
338.15	0.0125	0.0039	0.0039	0.3029	0.0134	0.6045	
338.15	0.0123	0.0047	0.0047	0.3473	0.0128	0.5545	
338.15	0.0121	0.0051	0.0051	0.3685	0.0122	0.5259	
298.15	0.0156	0.0015	0.0015	0.1403	0.0127	0.8138	
298.15	0.0155	0.0019	0.0019	0.1751	0.0132	0.7735	
298.15	0.0152	0.0026	0.0026	0.2343	0.0132	0.7132	
298.15	0.0151	0.0031	0.0031	0.2752	0.0134	0.6657	
298.15	0.0147	0.0037	0.0037	0.3214	0.0135	0.6218	
298.15	0.0145	0.0043	0.0043	0.3646	0.013	0.5724	
318.15	0.0144	0.0003	0.0003	0.036	0.0118	0.9197	
298.15	0.0163	0		0		0.9763	
318.15	0.0152	0		0		0.9725	
338.15	0.0137	0		0		0.9666	

System: 4-methylpentan-2-one + water; phases: Liquid mixture 1, Liquid mixture 2
Fixed: Pressure, kPa = 100
Property: Mass fraction of water (Liquid mixture 1); method: Chromatography
Temperature, K	Mass fraction of water	uncertainty
298.15	0.0237	0.0096
318.15	0.0275	0.0096
338.15	0.0334	0.0096

System: 4-methylpentan-2-one + water; phases: Liquid mixture 2, Liquid mixture 1
Fixed: Pressure, kPa = 100
Property: Mass fraction of 4-methylpentan-2-one (Liquid mixture 2); method: Chromatography
Temperature, K	Mass fraction of 4-methylpentan-2-one	uncertainty
298.15	0.0162	0.0096
318.15	0.0152	0.0096
338.15	0.0137	0.0096
