Measured thermophysical data. pvT Properties of 2,3,3,3-Tetrafluoroprop-1-ene (HFO-1234yf) in the Gaseous Phase
Source: J. Chem. Eng. Data, 2017, 10.1021/acs.jced.7b00427
Compound 1: 2,3,3,3-tetrafluoro-1-propene, C3H2F4, InChI=1S/C3H2F4/c1-2(4)3(5,6)7/h1H2, purity 99.9%

System: 2,3,3,3-tetrafluoro-1-propene; phases: Gas
Property: Mass density, kg/m3 (Gas); method: Buoyancy - hydrostatic balance with magnetic suspension - one sinker
Temperature, K	Pressure, kPa	Mass density, kg/m3	uncertainty
252.643	124	7.097	0.083
252.642	110	6.265	0.084
252.642	70	3.88	0.084
262.082	169	9.424	0.085
262.076	157	8.696	0.084
262.078	136	7.456	0.08
262.076	113	6.19	0.079
262.067	81	4.341	0.082
270.191	256	14.125	0.083
270.182	232	12.71	0.082
270.181	172	9.215	0.081
270.181	132	6.952	0.078
270.178	105	5.505	0.075
279.672	352	19.153	0.082
279.664	302	16.231	0.082
279.662	261	13.822	0.082
279.65	219	11.398	0.079
279.651	168	8.6	0.076
279.651	118	5.957	0.073
279.64	75	3.732	0.072
289.175	502	27.513	0.089
289.172	433	23.141	0.086
289.183	344	17.869	0.081
289.172	279	14.228	0.077
289.181	223	11.205	0.075
289.182	186	9.245	0.073
289.191	143	7.017	0.071
289.19	84	4.052	0.071
298.633	647	35.336	0.094
298.633	599	32.147	0.087
298.632	419	21.272	0.084
298.633	363	18.154	0.077
298.631	312	15.415	0.075
298.633	249	12.098	0.073
298.64	204	9.779	0.07
298.644	134	6.319	0.069
308.142	741	39.419	0.089
308.143	608	31.08	0.087
308.143	551	27.714	0.082
308.144	517	25.797	0.079
308.132	460	22.624	0.076
308.131	367	17.655	0.074
308.128	282	13.311	0.072
308.125	242	11.284	0.069
308.126	188	8.693	0.067
308.119	125	5.711	0.067
317.633	892	46.934	0.086
317.633	613	30.022	0.084
317.632	514	24.547	0.076
317.631	418	19.56	0.072
317.644	351	16.204	0.068
317.645	202	9.037	0.065
317.656	166	7.365	0.065
317.657	116	5.083	0.063
327.252	1152	61.545	0.092
327.252	825	40.447	0.087
327.251	597	27.809	0.077
327.252	522	23.936	0.072
327.263	463	20.996	0.069
327.263	372	16.57	0.067
327.26	299	13.167	0.065
327.266	235	10.227	0.064
327.274	153	6.549	0.062
327.271	97	4.113	0.061
336.668	1683	100.038	0.12
336.665	1254	64.685	0.104
336.667	873	41.236	0.084
336.666	693	31.586	0.068
336.674	667	30.331	0.071
336.672	618	27.852	0.07
336.671	501	22.051	0.068
336.671	424	18.45	0.065
336.668	321	13.728	0.064
336.676	237	10.013	0.061
336.667	110	4.549	0.06
345.744	1910	112.152	0.126
345.741	1557	81.658	0.111
345.746	1229	59.662	0.089
345.752	886	40.193	0.079
345.752	739	32.609	0.07
345.754	517	21.914	0.065
345.761	305	12.598	0.061
345.76	145	5.863	0.059
