Measured thermophysical data. Measurement and Correlation of the Physicochemical Properties of Novel Aqueous Bis(3-aminopropyl)amine and Its Blend with N-Methyldiethanolamine for CO2 Capture
Source: J. Chem. Eng. Data, 2016, 10.1021/acs.jced.5b00922
Compound 1: bis(3-aminopropyl)amine, C6H17N3, InChI=1S/C6H17N3/c7-3-1-5-9-6-2-4-8/h9H,1-8H2, purity 98%
Compound 2: N-methyldiethanolamine, C5H13NO2, InChI=1S/C5H13NO2/c1-6(2-4-7)3-5-8/h7-8H,2-5H2,1H3, purity 98%
Compound 3: nitrous oxide, N2O, InChI=1S/N2O/c1-2-3, purity 99%
Compound 4: water, H2O, InChI=1S/H2O/h1H2, purity 99.9%

System: bis(3-aminopropyl)amine; phases: Liquid
Fixed: Pressure, kPa = 101.325
Property: Mass density, kg/m3 (Liquid); method: Pycnometric method
Temperature, K	Mass density, kg/m3	uncertainty
298	927.36	4.19
303	923.34	4.19
308	919.32	4.2
313	915.28	4.2
318	911.18	4.2
323	906.97	4.2

System: bis(3-aminopropyl)amine; phases: Liquid
Fixed: Pressure, kPa = 101.325
Property: Viscosity, Pa*s (Liquid); method: Capillary tube (Ostwald; Ubbelohde) method
Temperature, K	Viscosity, Pa*s	uncertainty
298	0.00851	0.00015
303	0.00704	0.00014
308	0.00592	0.00013
313	0.00505	0.00013
318	0.00462	0.00012
323	0.00399	0.00012

System: N-methyldiethanolamine; phases: Liquid
Fixed: Pressure, kPa = 100
Property: Mass density, kg/m3 (Liquid); method: Pycnometric method
Temperature, K	Mass density, kg/m3	uncertainty
298	1036.7	4.8
323	1018.5	4.9
308	1029.4	4.8

System: N-methyldiethanolamine; phases: Liquid
Fixed: Pressure, kPa = 100
Property: Viscosity, Pa*s (Liquid); method: Capillary tube (Ostwald; Ubbelohde) method
Temperature, K	Viscosity, Pa*s	uncertainty
298	0.0776	0.001928
308	0.04433	0.00118
323	0.0223	0.000779

System: N-methyldiethanolamine + water; phases: Liquid
Fixed: Pressure, kPa = 100
Property: Mass density, kg/m3 (Liquid); method: Pycnometric method
Mass fraction of N-methyldiethanolamine	Temperature, K	Mass density, kg/m3	uncertainty
0.1	298	1005.7	4.7
0.1	308	1001.9	4.7
0.1	323	995.9	4.7
0.2	308	1010.9	4.7
0.2	298	1015	4.7
0.2	323	1003.4	4.7
0.3	308	1020.2	4.7
0.3	298	1024.6	4.7
0.3	323	1012	4.7
1	298	1036.7	4.8
1	323	1018.5	4.9
1	308	1029.4	4.8

System: N-methyldiethanolamine + water; phases: Liquid
Fixed: Pressure, kPa = 100
Property: Viscosity, Pa*s (Liquid); method: Capillary tube (Ostwald; Ubbelohde) method
Mass fraction of N-methyldiethanolamine	Temperature, K	Viscosity, Pa*s	uncertainty
1	298	0.0776	0.001928
1	308	0.04433	0.00118
1	323	0.0223	0.000779
0.1	298	0.001295	0.000103
0.1	308	0.001007	0.000103
0.1	323	0.000748	0.000102
0.2	298	0.001925	0.000107
0.2	308	0.001468	0.000104
0.2	323	0.001033	0.000103
0.3	298	0.003031	0.000111
0.3	308	0.002251	0.000107
0.3	323	0.001491	0.000106

System: N-methyldiethanolamine + water; phases: Liquid
Fixed: Molality, mol/kg of N-methyldiethanolamine = 4.416
Fixed: Pressure, kPa = 100
Property: Mass density, kg/m3 (Liquid); method: Pycnometric method
Temperature, K	Mass density, kg/m3	uncertainty
298	1036.91	4.51
303	1034.27	4.44
308	1030.94	4.45
313	1027.61	4.45
318	1024.05	4.45
323	1020.68	4.51

System: N-methyldiethanolamine + water; phases: Liquid
Fixed: Molality, mol/kg of N-methyldiethanolamine = 4.416
Fixed: Pressure, kPa = 100
Property: Viscosity, Pa*s (Liquid); method: Capillary tube (Ostwald; Ubbelohde) method
Temperature, K	Viscosity, Pa*s	uncertainty
298	0.003851	9.1e-05
303	0.00322	9.1e-05
308	0.0027	8.6e-05
313	0.002215	8e-05
318	0.00189	7.5e-05
323	0.00162	7e-05

System: N-methyldiethanolamine + water; phases: Liquid
Fixed: Molality, mol/kg of N-methyldiethanolamine = 4.416
Fixed: Pressure, kPa = 100
Property: Binary diffusion coefficient, m2/s (Liquid); method: absorption column
Temperature, K	Binary diffusion coefficient, m2/s	uncertainty
298	8.2e-10	0.02
303	9.5e-10	0.02
308	1.09e-09	0.02
313	1.24e-09	0.02
318	1.37e-09	0.02
323	1.54e-09	0.02

System: bis(3-aminopropyl)amine + water; phases: Liquid
Fixed: Pressure, kPa = 100
Property: Mass density, kg/m3 (Liquid); method: Pycnometric method
Temperature, K	Molality, mol/kg of bis(3-aminopropyl)amine	Mass density, kg/m3	uncertainty
298	0.102	997.56	4.18
298	0.313	997.47	4.18
298	0.537	997.32	4.18
298	0.773	997.12	4.18
298	1.024	996.9	4.18
298	1.291	996.71	4.18
303	0.102	996.21	4.18
303	0.313	996.12	4.18
303	0.537	995.98	4.18
303	0.773	995.83	4.18
303	1.024	995.67	4.18
303	1.291	995.53	4.18
308	0.102	994.48	4.19
308	0.313	994.37	4.19
308	0.537	994.17	4.19
308	0.773	994	4.19
308	1.024	993.82	4.19
308	1.291	993.64	4.19
313	0.102	992.55	4.19
313	0.313	992.43	4.19
313	0.537	992.27	4.19
313	0.773	992.1	4.19
313	1.024	991.92	4.19
313	1.291	991.73	4.19
318	0.102	990.18	4.19
318	0.313	989.94	4.19
318	0.537	989.71	4.19
318	0.773	989.48	4.2
318	1.024	989.3	4.2
318	1.291	989.09	4.2
323	0.102	987.58	4.2
323	0.313	987.36	4.2
323	0.537	987.13	4.2
323	0.773	986.93	4.2
323	1.024	986.74	4.2
323	1.291	986.55	4.2

System: bis(3-aminopropyl)amine + water; phases: Liquid
Fixed: Pressure, kPa = 100
Property: Viscosity, Pa*s (Liquid); method: Capillary tube (Ostwald; Ubbelohde) method
Temperature, K	Molality, mol/kg of bis(3-aminopropyl)amine	Viscosity, Pa*s	uncertainty
298	0.102	0.00095	2e-05
298	0.313	0.00107	2e-05
298	0.537	0.00123	2e-05
298	0.773	0.00141	2e-05
298	1.024	0.00157	3e-05
298	1.291	0.00174	3e-05
303	0.102	0.00084	2e-05
303	0.313	0.00095	2e-05
303	0.537	0.00109	2e-05
303	0.773	0.00124	2e-05
303	1.024	0.00139	2e-05
303	1.291	0.00155	3e-05
308	0.102	0.00076	2e-05
308	0.313	0.00085	2e-05
308	0.537	0.00098	2e-05
308	0.773	0.0011	2e-05
308	1.024	0.00124	2e-05
308	1.291	0.00138	2e-05
313	0.102	0.00069	2e-05
313	0.313	0.00077	2e-05
313	0.537	0.00088	2e-05
313	0.773	0.00099	2e-05
313	1.024	0.00111	2e-05
313	1.291	0.00123	2e-05
318	0.102	0.00061	2e-05
318	0.313	0.00069	2e-05
318	0.537	0.0008	2e-05
318	0.773	0.0009	2e-05
318	1.024	0.001	2e-05
318	1.291	0.00111	2e-05
323	0.102	0.00055	2e-05
323	0.313	0.00063	2e-05
323	0.537	0.00073	2e-05
323	0.773	0.00081	2e-05
323	1.024	0.0009	2e-05
323	1.291	0.00098	2e-05

System: bis(3-aminopropyl)amine + N-methyldiethanolamine + water; phases: Liquid
Fixed: Pressure, kPa = 100
Property: Mass density, kg/m3 (Liquid); method: Pycnometric method
Temperature, K	Molality, mol/kg of bis(3-aminopropyl)amine	Molality, mol/kg of N-methyldiethanolamine	Mass density, kg/m3	uncertainty
298	0	4.416	1036.91	4.44
298	0.148	4.294	1034.21	4.44
298	0.447	4.025	1031.94	4.45
298	0.751	3.753	1029.81	4.45
298	1.058	3.478	1027.4	4.44
298	1.371	3.199	1024.98	4.44
298	1.688	2.915	1022.67	4.43
303	0	4.416	1034.27	4.44
303	0.148	4.294	1031.54	4.44
303	0.447	4.025	1029.05	4.52
303	0.751	3.753	1026.64	4.45
303	1.058	3.478	1024.71	4.49
303	1.371	3.199	1022.78	4.48
303	1.688	2.915	1020.45	4.44
308	0	4.416	1030.94	4.45
308	0.148	4.294	1028.71	4.45
308	0.447	4.025	1025.64	4.62
308	0.751	3.753	1023.62	4.44
308	1.058	3.478	1021.6	4.45
308	1.371	3.199	1019.58	4.45
308	1.688	2.915	1017.56	4.45
313	0	4.416	1027.61	4.45
313	0.148	4.294	1025.06	4.45
313	0.447	4.025	1022.81	4.53
313	0.751	3.753	1020.71	4.45
313	1.058	3.478	1018.61	4.5
313	1.371	3.199	1016.51	4.47
313	1.688	2.915	1014.26	4.45
318	0	4.416	1024.05	4.45
318	0.148	4.294	1021.52	4.45
318	0.447	4.025	1019.54	4.47
318	0.751	3.753	1017.34	4.45
318	1.058	3.478	1015.14	4.5
318	1.371	3.199	1012.94	4.55
318	1.688	2.915	1010.74	4.46
323	0	4.416	1020.68	4.45
323	0.148	4.294	1018.53	4.45
323	0.447	4.025	1016.34	4.49
323	0.751	3.753	1013.8	4.46
323	1.058	3.478	1011.26	4.46
323	1.371	3.199	1008.72	4.47
323	1.688	2.915	1006.18	4.47

System: bis(3-aminopropyl)amine + N-methyldiethanolamine + water; phases: Liquid
Fixed: Pressure, kPa = 100
Property: Viscosity, Pa*s (Liquid); method: Capillary tube (Ostwald; Ubbelohde) method
Temperature, K	Molality, mol/kg of bis(3-aminopropyl)amine	Molality, mol/kg of N-methyldiethanolamine	Viscosity, Pa*s	uncertainty
298	0	4.416	0.003851	9.6e-05
298	0.148	4.294	0.00421	0.000104
298	0.447	4.025	0.00454	0.00011
298	0.751	3.753	0.00486	0.000115
298	1.058	3.478	0.00518	0.000124
298	1.371	3.199	0.0055	0.000131
298	1.688	2.915	0.00582	0.000139
303	0	4.416	0.00322	9.1e-05
303	0.148	4.294	0.003468	9.7e-05
303	0.447	4.025	0.003763	0.000348
303	0.751	3.753	0.00398	0.000105
303	1.058	3.478	0.004207	0.000451
303	1.371	3.199	0.004434	0.000524
303	1.688	2.915	0.004661	0.000118
308	0	4.416	0.0027	8.6e-05
308	0.148	4.294	0.002903	8.9e-05
308	0.447	4.025	0.00314	0.00019
308	0.751	3.753	0.00335	9.3e-05
308	1.058	3.478	0.003561	0.000109
308	1.371	3.199	0.003771	0.000102
308	1.688	2.915	0.003982	9.9e-05
313	0	4.416	0.002215	8e-05
313	0.148	4.294	0.002368	8.2e-05
313	0.447	4.025	0.00261	0.00031
313	0.751	3.753	0.00277	8.5e-05
313	1.058	3.478	0.002949	0.000324
313	1.371	3.199	0.003128	0.000326
313	1.688	2.915	0.003307	9e-05
318	0	4.416	0.00189	7.5e-05
318	0.148	4.294	0.00204	7.5e-05
318	0.447	4.025	0.0022	0.000152
318	0.751	3.753	0.00239	7.8e-05
318	1.058	3.478	0.00257	9.7e-05
318	1.371	3.199	0.002731	8.6e-05
318	1.688	2.915	0.002892	8.1e-05
323	0	4.416	0.00162	7.4e-05
323	0.148	4.294	0.001773	7.4e-05
323	0.447	4.025	0.00194	0.000115
323	0.751	3.753	0.00206	7.7e-05
323	1.058	3.478	0.0022	8.2e-05
323	1.371	3.199	0.002354	7.9e-05
323	1.688	2.915	0.002508	8e-05

System: bis(3-aminopropyl)amine + water + nitrous oxide; phases: Liquid
Fixed: Pressure, kPa = 100
Fixed: Mole fraction of nitrous oxide = 0
Property: Binary diffusion coefficient, m2/s (Liquid); method: absorption column
Temperature, K	Solvent: Molality, mol/kg of bis(3-aminopropyl)amine	Binary diffusion coefficient, m2/s	uncertainty
298	0.102	1.48e-09	0.04
298	0.313	1.31e-09	0.04
298	0.537	1.14e-09	0.04
298	0.773	9.9e-10	0.04
298	1.024	8.4e-10	0.05
298	1.291	6.8e-10	0.05
303	0.102	1.74e-09	0.05
303	0.313	1.57e-09	0.05
303	0.537	1.41e-09	0.05
303	0.773	1.26e-09	0.04
303	1.024	1.12e-09	0.05
303	1.291	9.6e-10	0.05
308	0.102	2.2e-09	0.05
308	0.313	1.91e-09	0.05
308	0.537	1.72e-09	0.05
308	0.773	1.54e-09	0.05
308	1.024	1.4e-09	0.05
308	1.291	1.25e-09	0.05
313	0.102	2.44e-09	0.05
313	0.313	2.26e-09	0.05
313	0.537	2.05e-09	0.05
313	0.773	1.86e-09	0.05
313	1.024	1.7e-09	0.05
313	1.291	1.54e-09	0.05
318	0.102	2.76e-09	0.04
318	0.313	2.51e-09	0.04
318	0.537	2.32e-09	0.04
318	0.773	2.14e-09	0.04
318	1.024	2e-09	0.04
318	1.291	1.84e-09	0.04
323	0.102	2.95e-09	0.04
323	0.313	2.72e-09	0.04
323	0.537	2.48e-09	0.04
323	0.773	2.35e-09	0.04
323	1.024	2.2e-09	0.04
323	1.291	2.05e-09	0.04

System: bis(3-aminopropyl)amine + water + nitrous oxide; phases: Liquid, Gas
Fixed: Pressure, kPa = 100
Property: Molality, mol/kg of nitrous oxide (Liquid); method: phase equilibration
Temperature, K	Solvent: Molality, mol/kg of bis(3-aminopropyl)amine	Molality, mol/kg of nitrous oxide	uncertainty
298	0.102	0.025	0.0003
298	0.313	0.024	0.0003
298	0.537	0.0231	0.0003
298	0.773	0.0224	0.0003
298	1.024	0.0218	0.0003
298	1.291	0.0213	0.0003
303	0.102	0.0226	0.0003
303	0.313	0.0218	0.0003
303	0.537	0.0212	0.0003
303	0.773	0.0207	0.0003
303	1.024	0.0202	0.0003
303	1.291	0.0197	0.0003
308	0.102	0.0211	0.0003
308	0.313	0.0203	0.0003
308	0.537	0.0197	0.0003
308	0.773	0.0193	0.0003
308	1.024	0.0188	0.0003
308	1.291	0.0183	0.0003
313	0.102	0.0192	0.0003
313	0.313	0.0186	0.0003
313	0.537	0.0181	0.0003
313	0.773	0.0177	0.0003
313	1.024	0.0173	0.0003
313	1.291	0.0168	0.0003
318	0.102	0.0176	0.0003
318	0.313	0.0171	0.0003
318	0.537	0.0167	0.0003
318	0.773	0.0163	0.0003
318	1.024	0.0159	0.0003
318	1.291	0.0155	0.0003
323	0.102	0.0162	0.0003
323	0.313	0.0158	0.0003
323	0.537	0.0154	0.0003
323	0.773	0.015	0.0003
323	1.024	0.0148	0.0003
323	1.291	0.0144	0.0003

System: N-methyldiethanolamine + water + nitrous oxide; phases: Liquid
Fixed: Solvent: Molality, mol/kg of N-methyldiethanolamine = 4.416
Fixed: Pressure, kPa = 100
Fixed: Mole fraction of nitrous oxide = 0
Property: Binary diffusion coefficient, m2/s (Liquid); method: absorption column
Temperature, K	Binary diffusion coefficient, m2/s	uncertainty
298	8.2e-10	0.02
303	9.5e-10	0.02
308	1.09e-09	0.02
313	1.24e-09	0.02
318	1.37e-09	0.02
323	1.54e-09	0.03

System: N-methyldiethanolamine + water + nitrous oxide; phases: Liquid, Gas
Fixed: Solvent: Molality, mol/kg of N-methyldiethanolamine = 4.416
Fixed: Pressure, kPa = 100
Property: Molality, mol/kg of nitrous oxide (Liquid); method: phase equilibration
Temperature, K	Molality, mol/kg of nitrous oxide	uncertainty
298	0.0194	0.0002
303	0.0184	0.0002
308	0.0173	0.0002
313	0.0161	0.0002
318	0.015	0.0002
323	0.0139	0.0002

System: bis(3-aminopropyl)amine + nitrous oxide; phases: Liquid, Gas
Fixed: Pressure, kPa = 100
Property: Molality, mol/kg of nitrous oxide (Liquid); method: phase equilibration
Temperature, K	Molality, mol/kg of nitrous oxide	uncertainty
298	0.0493	0.0009
303	0.0466	0.0009
308	0.0442	0.0008
313	0.0419	0.0008
318	0.0396	0.0008
323	0.0376	0.0008
