Measured thermophysical data. Phase Equilibrium Measurements and Thermodynamic Modeling of the Systems (CO2 + Ethyl Levulinate) and (CO2 + Levulinic Acid)
Source: J. Chem. Eng. Data, 2019, 10.1021/acs.jced.8b01023
Compound 1: ethanol, C2H6O, InChI=1S/C2H6O/c1-2-3/h3H,2H2,1H3, purity 99.8%
Compound 2: carbon dioxide, CO2, InChI=1S/CO2/c2-1-3, purity 99.9%
Compound 3: ethyl levulinate, C7H12O3, InChI=1S/C7H12O3/c1-3-10-7(9)5-4-6(2)8/h3-5H2,1-2H3, purity 98%
Compound 4: 4-oxopentanoic acid, C5H8O3, InChI=1S/C5H8O3/c1-4(6)2-3-5(7)8/h2-3H2,1H3,(H,7,8), purity 99%

System: carbon dioxide + ethanol; phases: Liquid, Gas
Property: Vapor or sublimation pressure, kPa (Liquid); method: Closed cell (Static) method
Temperature, K	Mole fraction of carbon dioxide	Vapor or sublimation pressure, kPa	uncertainty
313.15	0.3988	6320	410
313.15	0.5748	7340	430
313.15	0.6624	7620	430
313.15	0.79	7880	430
323.15	0.3988	7220	420
323.15	0.5748	8570	420
323.15	0.6624	9040	430
323.15	0.79	9310	420
333.15	0.3988	8150	420
333.15	0.5748	9780	430
333.15	0.6624	10400	420
333.15	0.79	10630	420
343.15	0.79	11910	420

System: carbon dioxide + ethyl levulinate; phases: Liquid, Gas
Property: Vapor or sublimation pressure, kPa (Liquid); method: Closed cell (Static) method
Temperature, K	Mole fraction of carbon dioxide	Vapor or sublimation pressure, kPa	uncertainty
303.15	0.4002	2600	410
303.15	0.5502	3800	420
303.15	0.6987	5260	420
303.15	0.8167	5980	430
303.15	0.9023	6220	430
303.15	0.9385	6650	440
303.15	0.9597	6560	430
303.15	0.9751	6560	430
313.15	0.4002	3160	410
313.15	0.5502	4580	420
313.15	0.6987	6130	430
313.15	0.8167	7310	430
313.15	0.9023	7700	430
313.15	0.9385	8120	440
313.15	0.9597	8020	430
313.15	0.9751	8140	440
323.15	0.4002	3660	420
323.15	0.5502	5470	430
323.15	0.6987	7430	440
323.15	0.8167	8910	440
323.15	0.9023	9340	440
323.15	0.9385	9840	450
323.15	0.9597	9830	440
323.15	0.9751	9670	450
333.15	0.4002	4220	430
333.15	0.5502	6390	440
333.15	0.6987	8610	450
333.15	0.8167	10400	450
333.15	0.9023	11040	450
333.15	0.9385	11530	460
343.15	0.4002	4740	440
343.15	0.5502	7320	450
343.15	0.6987	9980	460
343.15	0.8167	11970	460
343.15	0.9023	12870	460
343.15	0.9385	13310	450
353.15	0.4002	5390	450
353.15	0.5502	8310	460
353.15	0.6987	11180	470
353.15	0.8167	13710	470
353.15	0.9023	14840	460
353.15	0.9385	15030	440

System: carbon dioxide + ethyl levulinate; phases: Gas, Liquid
Property: Vapor or sublimation pressure, kPa (Gas); method: Closed cell (Static) method
Temperature, K	Mole fraction of carbon dioxide	Vapor or sublimation pressure, kPa	uncertainty
333.15	0.9597	11610	430
333.15	0.9751	11200	430
343.15	0.9597	13130	430
343.15	0.9751	12770	430
353.15	0.9597	14750	430
353.15	0.9751	14170	430

System: carbon dioxide + 4-oxopentanoic acid; phases: Liquid, Gas
Property: Vapor or sublimation pressure, kPa (Liquid); method: Closed cell (Static) method
Temperature, K	Mole fraction of carbon dioxide	Vapor or sublimation pressure, kPa	uncertainty
303.15	0.4083	5120	420
303.15	0.5165	5920	440
303.15	0.5438	6260	450
303.15	0.5893	6750	490
303.15	0.6169	7800	710
303.15	0.6491	9300	1010
303.15	0.6806	13250	1510
303.15	0.7233	19660	1630
313.15	0.4083	5930	430
313.15	0.5165	7520	470
313.15	0.5438	8010	500
313.15	0.5893	9160	700
313.15	0.6169	11830	950
313.15	0.6491	13800	1040
313.15	0.6806	17270	1530
313.15	0.7023	21690	1800
313.15	0.7233	24580	1520
323.15	0.4083	6960	480
323.15	0.5165	9510	520
323.15	0.5438	10280	670
323.15	0.5893	12830	880
323.15	0.6169	15690	1010
323.15	0.6491	17960	980
323.15	0.6806	20840	1350
323.15	0.7023	24740	1920
333.15	0.4083	8310	550
333.15	0.5165	12070	590
333.15	0.5438	13180	750
333.15	0.5893	16060	960
333.15	0.6169	19390	1070
333.15	0.6491	21650	1010
333.15	0.6806	24740	1060
343.15	0.4083	9900	610
343.15	0.5165	14610	650
343.15	0.5438	15900	830
343.15	0.5893	19340	1020
343.15	0.6169	22620	1170
343.15	0.6491	25690	980
343.15	0.6806	27940	880
353.15	0.4083	11510	680
353.15	0.5165	17130	710
353.15	0.5438	18620	880
353.15	0.5893	22330	1030
353.15	0.6491	27990	1060

System: carbon dioxide + 4-oxopentanoic acid; phases: Gas, Liquid
Property: Vapor or sublimation pressure, kPa (Gas); method: Closed cell (Static) method
Temperature, K	Mole fraction of carbon dioxide	Vapor or sublimation pressure, kPa	uncertainty
303.15	0.98	17620	470
303.15	0.993	10150	510
313.15	0.98	20080	480
313.15	0.993	13240	490
323.15	0.98	22700	480
323.15	0.993	15660	470
333.15	0.98	25270	470
333.15	0.993	18150	470
343.15	0.98	27410	460
343.15	0.993	20600	470
353.15	0.98	29660	470
