Measured thermophysical data. Solid-Liquid Equilibria for (NaNO3 + NaCl + H2O) and (NaNO3 + Na2CO3 + H2O) Systems at 313.15 K
Source: J. Chem. Eng. Data, 2019, 10.1021/acs.jced.8b00415
Compound 1: sodium nitrate, NNaO3, InChI=1S/NO3.Na/c2-1(3)4;/q-1;+1, purity 99%
Compound 2: sodium chloride, ClNa, InChI=1S/ClH.Na/h1H;/q;+1/p-1, purity 99.5%
Compound 3: water, H2O, InChI=1S/H2O/h1H2, purity 99.5%
Compound 4: sodium carbonate, CNa2O3, InChI=1S/CH2O3.2Na/c2-1(3)4;;/h(H2,2,3,4);;/q;2*+1/p-2, purity 99.8%

System: sodium nitrate + sodium chloride + water; phases: Liquid, Crystal
Fixed: Temperature, K = 313.15
Fixed: Pressure, kPa = 88.35
Property: Mass fraction of sodium chloride (Liquid); method: Titration method
Mass fraction of sodium nitrate	Mass fraction of sodium chloride	uncertainty
0.5161	0	
0.4928	0.0126	0.0102
0.4718	0.0245	0.0104
0.4584	0.0381	0.0106
0.4427	0.0495	0.0106
0.4298	0.0636	0.0107
0.414	0.0778	0.0109
0.4116	0.0881	0.0108
0.3868	0.1085	0.0105

System: sodium nitrate + sodium chloride + water; phases: Liquid, Crystal
Fixed: Temperature, K = 313.15
Fixed: Pressure, kPa = 88.35
Property: Mass fraction of sodium chloride (Liquid); method: Titration method
Mass fraction of sodium nitrate	Mass fraction of sodium chloride	uncertainty
0.3868	0.1085	0.0102
0.3764	0.113	0.0103
0.3621	0.1222	0.0101
0.3416	0.1282	0.0101
0.3233	0.135	0.0101
0.2936	0.1446	0.0101
0.2643	0.1513	0.0101
0.2399	0.1614	0.0102
0.2157	0.1725	0.0102
0.1887	0.1836	0.0101
0.1606	0.1889	0.0101
0.1323	0.2013	0.0103
0.0972	0.2254	0.0102
0.0666	0.2364	0.0101
0.0342	0.2509	0.0102
0	0.2688	0.01

System: sodium nitrate + sodium chloride + water; phases: Liquid
Fixed: Temperature, K = 313.15
Fixed: Pressure, kPa = 88.35
Property: Mass density, kg/m3 (Liquid); method: Pycnometric method
Mass fraction of sodium nitrate	Mass fraction of sodium chloride	Mass density, kg/m3	uncertainty
0.5161	0	1411.9	10
0.4928	0.0126	1414	16.6
0.4718	0.0245	1410	10.2
0.4584	0.0381	1408.2	10.6
0.4427	0.0495	1404.8	10.5
0.4298	0.0636	1400.5	10.6
0.414	0.0778	1398.5	11.5
0.4116	0.0881	1392.3	11.5
0.3867	0.109	1391.3	11.6
0.3868	0.108	1392.3	13.5
0.3764	0.113	1384.8	13.9
0.3621	0.1222	1372.3	15.2
0.3416	0.1282	1362.6	10.2
0.3233	0.135	1350.6	11.7
0.2936	0.1446	1336.4	10.2
0.2643	0.1513	1323	11.7
0.2399	0.1614	1309.2	10.9
0.2157	0.1725	1295.5	11
0.1887	0.1836	1281.4	10.4
0.1606	0.1889	1268.2	10.2
0.1323	0.2013	1255	10.2
0.0972	0.2254	1238.9	10.5
0.0666	0.2364	1222.7	10.5
0.0342	0.2509	1208.7	10.7
0	0.2688	1193	10.1

System: sodium nitrate + sodium chloride + water; phases: Liquid
Fixed: Temperature, K = 313.15
Fixed: Pressure, kPa = 88.35
Property: Viscosity, Pa*s (Liquid); method: Capillary tube (Ostwald; Ubbelohde) method
Mass fraction of sodium nitrate	Mass fraction of sodium chloride	Viscosity, Pa*s	uncertainty
0.5161	0	0.0021839	1.88e-05
0.4928	0.0126	0.002199	2.48e-05
0.4718	0.0245	0.0022315	4.03e-05
0.4584	0.0381	0.0022325	7.38e-05
0.4427	0.0495	0.0022636	4.22e-05
0.4298	0.0636	0.0022734	5.96e-05
0.414	0.0778	0.0023214	2.53e-05
0.4116	0.0881	0.0023236	2.53e-05
0.3867	0.109	0.0023825	2.56e-05
0.3868	0.108	0.0023876	3.64e-05
0.3764	0.113	0.0023931	0.0005156
0.3621	0.1222	0.0022224	0.0002276
0.3416	0.1282	0.0021406	4.58e-05
0.3233	0.135	0.002046	9.03e-05
0.2936	0.1446	0.0020107	5.12e-05
0.2643	0.1513	0.0019073	6.05e-05
0.2399	0.1614	0.0017951	2.82e-05
0.2157	0.1725	0.0017035	8.79e-05
0.1887	0.1836	0.0016737	0.0001164
0.1606	0.1889	0.0015719	3.44e-05
0.1323	0.2013	0.001511	1.7e-05
0.0972	0.2254	0.001409	4.43e-05
0.0666	0.2364	0.0013629	4.42e-05
0.0342	0.2509	0.0012896	9.92e-05
0	0.2688	0.0012369	1.02e-05

System: sodium carbonate + sodium nitrate + water; phases: Liquid, Crystal
Fixed: Temperature, K = 313.15
Fixed: Pressure, kPa = 88.35
Property: Mass fraction of sodium carbonate (Liquid); method: Titration method
Mass fraction of sodium nitrate	Mass fraction of sodium carbonate	uncertainty
0.5161	0	
0.496	0.0244	0.0107
0.4405	0.0737	0.0106
0.4243	0.0889	0.0107
0.4227	0.0905	0.0107

System: sodium carbonate + sodium nitrate + water; phases: Liquid, Crystal of intercomponent compound 1
Fixed: Temperature, K = 313.15
Fixed: Pressure, kPa = 88.35
Property: Mass fraction of sodium carbonate (Liquid); method: Titration method
Mass fraction of sodium nitrate	Mass fraction of sodium carbonate	uncertainty
0.4227	0.0905	0.01
0.4045	0.0914	0.01
0.3911	0.0962	0.0102
0.3621	0.1138	0.0103
0.3393	0.1253	0.0104
0.3289	0.1373	0.011
0.2722	0.1582	0.0102
0.2292	0.1826	0.0103
0.1927	0.206	0.0103
0.1464	0.2311	0.0103
0.1002	0.2611	0.0103
0.0502	0.2934	0.0104
0	0.3282	0.01

System: sodium carbonate + sodium nitrate + water; phases: Liquid
Fixed: Temperature, K = 313.15
Fixed: Pressure, kPa = 88.35
Property: Mass density, kg/m3 (Liquid); method: Pycnometric method
Mass fraction of sodium nitrate	Mass fraction of sodium carbonate	Mass density, kg/m3	uncertainty
0.5161	0	1411.9	10.2
0.496	0.0244	1420.5	12.4
0.4405	0.0737	1435.1	11.3
0.4243	0.0889	1435.9	11.3
0.4227	0.0905	1434.1	10.4
0.4045	0.0914	1428.8	11.8
0.3911	0.0962	1425.8	17.4
0.3621	0.1138	1409.1	12.1
0.3393	0.1253	1402.4	12.1
0.3289	0.1373	1394.8	12.5
0.2722	0.1582	1386.8	10
0.2292	0.1826	1380.4	20
0.1927	0.206	1370.4	16.3
0.1464	0.2311	1363.5	10
0.1002	0.2611	1356.6	10.1
0.0502	0.2934	1355.3	12.7
0	0.3282	1355.8	10.1

System: sodium carbonate + sodium nitrate + water; phases: Liquid
Fixed: Temperature, K = 313.15
Fixed: Pressure, kPa = 88.35
Property: Viscosity, Pa*s (Liquid); method: Capillary tube (Ostwald; Ubbelohde) method
Mass fraction of sodium nitrate	Mass fraction of sodium carbonate	Viscosity, Pa*s	uncertainty
0.5161	0	0.0021839	2.51e-05
0.496	0.0244	0.0024819	9.13e-05
0.4405	0.0737	0.0033742	0.0001616
0.4243	0.0889	0.0035463	0.0001618
0.4227	0.0905	0.003565	0.000162
0.4045	0.0914	0.0035023	0.0002135
0.3911	0.0962	0.0035524	3.38e-05
0.3621	0.1138	0.0036567	7.26e-05
0.3393	0.1253	0.0037085	7.28e-05
0.3289	0.1373	0.0037767	5.65e-05
0.2722	0.1582	0.0039387	6e-05
0.2292	0.1826	0.0040211	0.0009252
0.1927	0.206	0.0043339	0.0008286
0.1464	0.2311	0.0050941	0.0005503
0.1002	0.2611	0.0055955	6.17e-05
0.0502	0.2934	0.0065902	0.0016335
0	0.3282	0.0079678	6.02e-05

System: sodium carbonate + sodium nitrate + water; phases: Liquid
Fixed: Temperature, K = 313.15
Fixed: Pressure, kPa = 88.35
Property: Refractive index (Na D-line) (Liquid); method: Standard Abbe refractometry
Mass fraction of sodium nitrate	Mass fraction of sodium carbonate	Refractive index (Na D-line)	uncertainty
0.5161	0	1.3888	0.0005
0.496	0.0244	1.3911	0.0014
0.4405	0.0737	1.3945	0.0009
0.4243	0.0889	1.3958	0.0009
0.4227	0.0905	1.396	0.001
0.4045	0.0914	1.3961	0.001
0.3911	0.0962	1.396	0.001
0.3621	0.1138	1.3951	0.0008
0.3393	0.1253	1.3946	0.0008
0.3289	0.1373	1.3939	0.0009
0.2722	0.1582	1.3938	0.0007
0.2292	0.1826	1.3933	0.0062
0.1927	0.206	1.3945	0.003
0.1464	0.2311	1.3947	0.0019
0.1002	0.2611	1.3958	0.0004
0.0502	0.2934	1.3966	0.0013
0	0.3282	1.3977	0.0004

System: sodium nitrate + water; phases: Liquid, Crystal
Property: Mass fraction of sodium nitrate (Liquid); method: Titration method
Temperature, K	Pressure, kPa	Mass fraction of sodium nitrate	uncertainty
313.15	88.35	0.5161	

System: sodium nitrate + water; phases: Liquid
Property: Mass density, kg/m3 (Liquid); method: Pycnometric method
Mass fraction of sodium nitrate	Temperature, K	Pressure, kPa	Mass density, kg/m3	uncertainty
0.5161	313.15	88.35	1411.9	10

System: sodium nitrate + water; phases: Liquid
Property: Viscosity, Pa*s (Liquid); method: Capillary tube (Ostwald; Ubbelohde) method
Mass fraction of sodium nitrate	Temperature, K	Pressure, kPa	Viscosity, Pa*s	uncertainty
0.5161	313.15	88.35	0.0021839	1.88e-05

System: sodium nitrate + water; phases: Liquid
Property: Refractive index (Na D-line) (Liquid); method: Standard Abbe refractometry
Mass fraction of sodium nitrate	Temperature, K	Pressure, kPa	Refractive index (Na D-line)	uncertainty
0.5161	313.15	88.35	1.3888	0.0005

System: sodium chloride + water; phases: Liquid, Crystal
Fixed: Pressure, kPa = 88.35
Property: Mass fraction of sodium chloride (Liquid); method: Titration method
Temperature, K	Mass fraction of sodium chloride	uncertainty
313.15	0.2688	0.01
273.15	0.263	0.01

System: sodium chloride + water; phases: Liquid
Property: Mass density, kg/m3 (Liquid); method: Pycnometric method
Mass fraction of sodium chloride	Temperature, K	Pressure, kPa	Mass density, kg/m3	uncertainty
0.2688	313.15	88.35	1193	10.1

System: sodium chloride + water; phases: Liquid
Property: Viscosity, Pa*s (Liquid); method: Capillary tube (Ostwald; Ubbelohde) method
Mass fraction of sodium chloride	Temperature, K	Pressure, kPa	Viscosity, Pa*s	uncertainty
0.2688	313.15	88.35	0.0012369	1.02e-05

System: sodium carbonate + water; phases: Liquid, Crystal of intercomponent compound 2
Fixed: Pressure, kPa = 88.35
Property: Mass fraction of sodium carbonate (Liquid); method: Titration method
Temperature, K	Mass fraction of sodium carbonate	uncertainty
288.15	0.141	0.004
293.15	0.181	0.004
298.15	0.2278	0.0041

System: sodium carbonate + water; phases: Liquid
Fixed: Pressure, kPa = 88.35
Property: Mass density, kg/m3 (Liquid); method: Pycnometric method
Mass fraction of sodium carbonate	Temperature, K	Mass density, kg/m3	uncertainty
0.141	288.15	1151.5	10
0.181	293.15	1194.1	10.4
0.2278	298.15	1241.6	10
0.3282	313.15	1355.8	10

System: sodium carbonate + water; phases: Liquid
Property: Viscosity, Pa*s (Liquid); method: Capillary tube (Ostwald; Ubbelohde) method
Mass fraction of sodium carbonate	Temperature, K	Pressure, kPa	Viscosity, Pa*s	uncertainty
0.3282	313.15	88.35	0.0079678	6.02e-05

System: sodium carbonate + water; phases: Liquid
Property: Refractive index (Na D-line) (Liquid); method: Standard Abbe refractometry
Mass fraction of sodium carbonate	Temperature, K	Pressure, kPa	Refractive index (Na D-line)	uncertainty
0.3282	313.15	88.35	1.3977	0.0004

System: sodium carbonate + water; phases: Liquid, Crystal of intercomponent compound 1
Property: Mass fraction of sodium carbonate (Liquid); method: Titration method
Temperature, K	Pressure, kPa	Mass fraction of sodium carbonate	uncertainty
313.15	88.35	0.3282	0.0041
