Measured thermophysical data. Speed of Sound Measurements of 2-Methoxy-2-methylpropane in the Temperature Range of 293.15 and 673.15 K and for Pressures up to 10 MPa
Source: J. Chem. Eng. Data, 2016, 10.1021/acs.jced.6b00202
Compound 1: 2-methoxy-2-methylpropane, C5H12O, InChI=1S/C5H12O/c1-5(2,3)6-4/h1-4H3, purity 99%

System: 2-methoxy-2-methylpropane; phases: Liquid, Gas
Property: Speed of sound, m/s (Liquid); method: Brillouin Light Scattering
Temperature, K	Speed of sound, m/s	uncertainty
303.19	1024.7	10.3
308.16	988.6	10
313.08	960.4	9.7
318.19	942.7	9.5
323.07	912.4	9.2
328.21	904.7	9.1
333.13	876.8	8.8
338.07	855.1	8.6
343.12	826.3	8.3
348.24	797.5	8
353.11	781.5	7.9
358.22	748.6	7.6
363.16	727.1	7.3
368.17	707.1	7.1
373.05	698.9	7.1
378.05	668.3	6.8
383.08	646.4	6.5
388.11	627.5	6.4
393.16	609.1	6.2
398.11	580.1	5.9
403.24	558	5.7
408.23	537.6	5.5
413.2	515.8	5.3
418.24	494.4	5.1
423.15	476	4.9
428.24	453.8	4.7
433.05	430.3	4.4
438.19	405.8	4.2
443.09	387.3	4
448.23	360.3	3.8
453.1	339.5	3.6
458.19	313.6	3.3
463.23	287.1	3.1
468.18	265	2.9
473.17	236.5	2.6
478.08	206.1	2.3
483.2	177.7	2.1
488.11	142.8	1.9
493.06	103.7	1.6

System: 2-methoxy-2-methylpropane; phases: Liquid
Property: Speed of sound, m/s (Liquid); method: Brillouin light scattering
Temperature, K	Pressure, kPa	Speed of sound, m/s	uncertainty
303.13	1000	1023.2	10.3
303.15	2500	1035.3	10.4
303.2	4000	1045.4	10.5
303.2	5500	1058.1	10.8
303.11	7000	1078.5	10.9
303.15	8500	1086.9	11
303.12	10000	1093.4	11
308.23	1000	1003.3	10.1
308.06	2500	1018.4	10.3
308.12	4000	1025.3	10.3
308.13	5500	1037.2	10.5
308.24	7000	1052.5	10.7
308.13	8500	1064.6	10.8
308.11	10000	1080	10.9
313.09	1000	975	9.8
313.1	2500	990.3	10
313.15	4000	1007	10.2
313.2	5500	1018.3	10.3
313.13	7000	1034.7	10.5
313.24	8500	1049	10.6
313.17	10000	1051.6	10.6
318.07	1000	959.3	9.7
318.23	2500	971.4	9.8
318.22	4000	985.3	9.9
318.24	5500	996.7	10.1
318.18	7000	1012.5	10.3
318.06	8500	1020.1	10.4
318.25	10000	1040	10.6
323.15	1000	932.5	9.4
323.18	2500	947.7	9.6
323.25	4000	964.9	9.8
323.21	5500	982.2	10
323.14	7000	987.9	10
323.12	8500	1006.1	10.2
323.07	10000	1016.8	10.3
328.08	1000	917	9.3
328.11	2500	926.2	9.3
328.16	4000	942.5	9.5
328.14	5500	963.3	9.8
328.06	7000	971.9	9.8
328.13	8500	984.6	10
358.15	1000	779.2	8
358.19	2500	802.1	8.2
358.19	4000	816.3	8.3
358.09	5500	835.6	8.6
358.08	7000	852.1	8.7
358.14	8500	866.9	8.9
358.18	10000	883.2	9.1
363.06	1000	761.1	7.7
363.09	2500	775.4	7.9
363.23	4000	796.3	8.1
363.09	5500	811.7	8.4
363.14	7000	833.6	8.6
363.18	8500	844.2	8.7
363.24	10000	863.5	8.9
368.15	1000	734.3	7.5
368.25	2500	754.9	7.7
368.16	4000	777	7.9
368.06	5500	796.6	8.3
368.13	7000	813	8.4
368.21	8500	831.5	8.5
368.08	10000	844.9	8.6
373.07	1000	713.9	7.3
373.17	2500	733.6	7.5
373.16	4000	753.8	7.7
373.12	5500	770.2	8
373.24	7000	791.5	8.3
373.11	8500	811.5	8.4
373.07	10000	828.1	8.5
378.22	1000	691.3	7.1
378.13	2500	711.8	7.3
378.06	4000	732.9	7.5
378.07	5500	751.9	7.9
378.07	7000	770.5	8.1
378.13	8500	791.5	8.2
378.25	10000	804	8.3
383.07	1000	666.2	6.9
383.12	2500	690.6	7.1
383.08	4000	713	7.3
383.18	5500	731.2	7.7
383.13	7000	753.8	7.9
383.15	8500	769.5	8
413.08	4000	585.4	6.1
413.16	5500	612.9	6.8
413.24	7000	638.1	7
413.14	8500	661.5	7.1
413.06	10000	682.3	7.2
418.19	2500	535.7	5.7
418.07	4000	565.2	5.9
418.23	5500	588.6	6.6
418.07	7000	617.5	6.8
418.11	8500	639.1	6.9
418.08	10000	661.5	7.2
423.06	2500	511.7	5.5
423.06	4000	541.9	5.8
423.19	5500	571.4	6.5
423.05	7000	595.1	6.7
423.11	8500	624.1	6.9
423.12	10000	647.8	6.9
428.11	2500	485.7	5.3
428.18	4000	520.9	5.6
428.14	5500	549.7	6.3
428.15	7000	575.1	6.6
428.19	8500	605.5	6.7
428.2	10000	625.5	6.8
433.05	2500	463.5	5.1
433.18	4000	498.5	5.4
433.22	5500	530.9	6.3
433.05	7000	560.1	6.4
433.22	8500	586.5	6.5
433.08	10000	610.8	6.6
438.11	2500	443	5
438.24	4000	477.2	5.2
438.14	5500	507.9	6.2
438.13	7000	540.4	6.4
438.16	8500	569	6.4
438.13	10000	590.9	6.5
443.18	2500	418.1	4.7
443.06	4000	454.3	5
443.08	5500	487.7	6.1
443.23	7000	519.9	6.2
443.14	8500	548.7	6.3
443.12	10000	575	6.5
328.19	10000	991.7	10
333.08	1000	893.5	9
333.08	2500	904.6	9.1
333.12	4000	920.6	9.3
333.2	5500	941.5	9.6
333.21	7000	949.1	9.7
333.22	8500	967.6	9.9
333.18	10000	978.4	9.9
338.09	1000	867.8	8.8
338.23	2500	884.4	8.9
338.22	4000	898.7	9.1
338.16	5500	922.2	9.4
338.11	7000	931.3	9.4
338.11	8500	941	9.6
338.17	10000	954.4	9.8
343.2	1000	845.4	8.6
343.22	2500	868.6	8.8
343.19	4000	883.2	8.9
343.19	5500	892.8	9.1
343.15	7000	911.8	9.4
343.18	8500	926.4	9.5
343.24	10000	941	9.5
348.22	1000	829.7	8.4
348.22	2500	844.7	8.5
348.16	4000	858.5	8.7
348.1	5500	874.9	9
348.12	7000	890.7	9.1
348.16	8500	907.4	9.2
348.17	10000	915.3	9.3
353.25	1000	800	8.2
353.2	2500	825.4	8.4
353.22	4000	841.4	8.5
353.05	5500	858.5	8.8
353.1	7000	868.9	8.9
353.23	8500	889.4	9.1
353.11	10000	903.3	9.2
383.21	10000	789.5	8.2
388.22	1000	646.4	6.7
388.24	2500	670.7	6.9
388.2	4000	690	7.1
388.09	5500	711.4	7.5
388.16	7000	730.1	7.7
388.25	8500	751.1	7.9
388.24	10000	768.1	8
393.13	1000	619	6.4
393.16	2500	643.2	6.7
393.13	4000	669.1	6.9
393.11	5500	691.8	7.4
393.22	7000	714.5	7.6
393.13	8500	736.3	7.7
393.22	10000	753.4	7.8
398.11	1000	594.9	6.2
398.18	2500	624.4	6.5
398.18	4000	647.1	6.7
398.1	5500	671.4	7.2
398.25	7000	692.8	7.4
398.2	8500	715.9	7.6
398.24	10000	733.5	7.7
403.12	1000	574.7	6
403.11	2500	602.6	6.3
403.12	4000	627.2	6.5
403.14	5500	649.2	7
403.07	7000	672.1	7.3
403.16	8500	697.5	7.4
403.14	10000	716.1	7.5
408.23	2500	576.4	6
408.16	4000	605.6	6.3
408.19	5500	631.8	7
408.09	7000	657.5	7.1
408.21	8500	679.5	7.2
408.24	10000	697.8	7.3
413.19	2500	557.9	5.9
448.06	2500	394.3	4.6
448.16	4000	435.5	4.9
448.07	5500	467.5	5.9
448.22	7000	500.2	6.1
448.23	8500	529.7	6.2
448.23	10000	557.1	6.4
453.2	2500	372.4	4.4
453.18	4000	411.5	4.7
453.07	5500	448.8	6
453.24	7000	483.8	6.1
453.21	8500	515.2	6.2
453.18	10000	544	6.2
458.18	2500	350.8	4.2
458.06	4000	389.5	4.5
458.24	5500	426.1	5.9
458.08	7000	464.6	6.1
458.22	8500	497.9	6
458.12	10000	524.8	6.1
463.13	2500	326.7	4.1
463.23	4000	368.2	4.4
463.16	5500	409.6	5.9
463.25	7000	445.2	5.9
463.14	8500	480.9	5.9
463.1	10000	507.9	5.9
468.19	4000	347.2	4.3
468.22	5500	389.7	5.9
468.06	7000	427.3	5.8
468.15	8500	459.5	5.8
468.1	10000	491.9	6.2
473.07	4000	324.5	4.1
473.22	5500	366	5.9
473.15	7000	408.5	5.9
473.12	8500	443.1	5.9
473.11	10000	479	6.2

System: 2-methoxy-2-methylpropane; phases: Gas, Liquid
Property: Speed of sound, m/s (Gas); method: Brillouin light scattering
Temperature, K	Speed of sound, m/s	uncertainty
378.1	171.6	2
388.2	170.9	2
398.07	170	2
408.22	167.8	2
418.16	164.7	1.9
428.21	161.2	1.9
438.17	155.3	1.8
448.13	148.4	1.8
458.29	139.8	1.7
463.17	135.7	1.7
468.26	130.6	1.6
473.15	124.5	1.6
478.08	119	1.6
483.29	111.8	1.5
488.15	104.9	1.5
493.15	96.9	1.4
