Measured thermophysical data. Physical Properties of Model and Real Systems Composed of Essential Oils and Hydroalcoholic Solvents at 298.2 K and Atmospheric Pressure
Source: J. Chem. Eng. Data, 2019, 10.1021/acs.jced.8b00939
Compound 1: [1R-(1R*,4E,9S*)]-4,11,11-trimethyl-8-methylene-bicyclo[7.2.0]-4-undecene, C15H24, InChI=1S/C15H24/c1-11-6-5-7-12(2)13-10-15(3,4)14(13)9-8-11/h6,13-14H,2,5,7-10H2,1,3-4H3/b11-6+/t13-,14-/m1/s1, purity 98.87%
Compound 2: (R)-1-methyl-4-(1-methylethenyl)cyclohexene, C10H16, InChI=1S/C10H16/c1-8(2)10-6-4-9(3)5-7-10/h4,10H,1,5-7H2,2-3H3/t10-/m0/s1
Compound 3: 2-hydroxy-5-allylanisole, C10H12O2, InChI=1S/C10H12O2/c1-3-4-8-5-6-9(11)10(7-8)12-2/h3,5-7,11H,1,4H2,2H3
Compound 4: methyleugenol, C11H14O2, InChI=1S/C11H14O2/c1-4-5-9-6-7-10(12-2)11(8-9)13-3/h4,6-8H,1,5H2,2-3H3
Compound 5: linalool acetate, C12H20O2, InChI=1S/C12H20O2/c1-6-12(5,14-11(4)13)9-7-8-10(2)3/h6,8H,1,7,9H2,2-5H3
Compound 6: 3,7-dimethyl-1,6-octadien-3-ol, C10H18O, InChI=1S/C10H18O/c1-5-10(4,11)8-6-7-9(2)3/h5,7,11H,1,6,8H2,2-4H3
Compound 7: ethanol, C2H6O, InChI=1S/C2H6O/c1-2-3/h3H,2H2,1H3
Compound 8: water, H2O, InChI=1S/H2O/h1H2, purity 99.9%
Compound 9: (E,E,E)-2,6,6,9-tetramethyl-1,4,8-cycloundecatriene, C15H24, InChI=1S/C15H24/c1-13-7-5-8-14(2)10-12-15(3,4)11-6-9-13/h6-7,10-11H,5,8-9,12H2,1-4H3/b11-6+,13-7+,14-10+, purity 98.87%

System: (R)-1-methyl-4-(1-methylethenyl)cyclohexene; phases: Liquid
Property: Mass density, kg/m3 (Liquid); method: Vibrating tube method
Temperature, K	Pressure, kPa	Mass density, kg/m3	uncertainty
298.15	100	839.1	1.7

System: (R)-1-methyl-4-(1-methylethenyl)cyclohexene; phases: Liquid
Property: Viscosity, Pa*s (Liquid); method: Falling or rolling sphere viscometry
Temperature, K	Pressure, kPa	Viscosity, Pa*s	uncertainty
298.15	100	0.00087	1e-05

System: 2-hydroxy-5-allylanisole; phases: Liquid
Property: Mass density, kg/m3 (Liquid); method: Vibrating tube method
Temperature, K	Pressure, kPa	Mass density, kg/m3	uncertainty
298.15	100	1062	2

System: 2-hydroxy-5-allylanisole; phases: Liquid
Property: Viscosity, Pa*s (Liquid); method: Falling or rolling sphere viscometry
Temperature, K	Pressure, kPa	Viscosity, Pa*s	uncertainty
298.15	100	0.00698	8e-05

System: methyleugenol; phases: Liquid
Property: Mass density, kg/m3 (Liquid); method: Vibrating tube method
Temperature, K	Pressure, kPa	Mass density, kg/m3	uncertainty
298.15	100	1031	2

System: methyleugenol; phases: Liquid
Property: Viscosity, Pa*s (Liquid); method: Falling or rolling sphere viscometry
Temperature, K	Pressure, kPa	Viscosity, Pa*s	uncertainty
298.15	100	0.00423	4e-05

System: linalool acetate; phases: Liquid
Property: Mass density, kg/m3 (Liquid); method: Vibrating tube method
Temperature, K	Pressure, kPa	Mass density, kg/m3	uncertainty
298.15	100	898.6	1.8

System: linalool acetate; phases: Liquid
Property: Viscosity, Pa*s (Liquid); method: Falling or rolling sphere viscometry
Temperature, K	Pressure, kPa	Viscosity, Pa*s	uncertainty
298.15	100	0.0023	3e-05

System: 3,7-dimethyl-1,6-octadien-3-ol; phases: Liquid
Property: Mass density, kg/m3 (Liquid); method: Vibrating tube method
Temperature, K	Pressure, kPa	Mass density, kg/m3	uncertainty
298.15	100	857.3	1.7

System: 3,7-dimethyl-1,6-octadien-3-ol; phases: Liquid
Property: Viscosity, Pa*s (Liquid); method: Falling or rolling sphere viscometry
Temperature, K	Pressure, kPa	Viscosity, Pa*s	uncertainty
298.15	100	0.00435	5e-05

System: ethanol; phases: Liquid
Property: Mass density, kg/m3 (Liquid); method: Vibrating tube method
Temperature, K	Pressure, kPa	Mass density, kg/m3	uncertainty
298.15	100	785.1	1.6

System: ethanol; phases: Liquid
Property: Viscosity, Pa*s (Liquid); method: Falling or rolling sphere viscometry
Temperature, K	Pressure, kPa	Viscosity, Pa*s	uncertainty
298.15	100	0.00113	1e-05

System: water; phases: Liquid
Property: Mass density, kg/m3 (Liquid); method: Vibrating tube method
Temperature, K	Pressure, kPa	Mass density, kg/m3	uncertainty
298.15	100	997	2

System: water; phases: Liquid
Property: Viscosity, Pa*s (Liquid); method: Falling or rolling sphere viscometry
Temperature, K	Pressure, kPa	Viscosity, Pa*s	uncertainty
298.15	100	0.00089	1e-05

System: [1R-(1R*,4E,9S*)]-4,11,11-trimethyl-8-methylene-bicyclo[7.2.0]-4-undecene + (E,E,E)-2,6,6,9-tetramethyl-1,4,8-cycloundecatriene; phases: Liquid
Property: Mass density, kg/m3 (Liquid); method: Vibrating tube method
Mole fraction of (E,E,E)-2,6,6,9-tetramethyl-1,4,8-cycloundecatriene	Temperature, K	Pressure, kPa	Mass density, kg/m3	uncertainty
0.0843	298.2	100	897.1	1.8

System: [1R-(1R*,4E,9S*)]-4,11,11-trimethyl-8-methylene-bicyclo[7.2.0]-4-undecene + (E,E,E)-2,6,6,9-tetramethyl-1,4,8-cycloundecatriene; phases: Liquid
Property: Viscosity, Pa*s (Liquid); method: Falling or rolling sphere viscometry
Mole fraction of (E,E,E)-2,6,6,9-tetramethyl-1,4,8-cycloundecatriene	Temperature, K	Pressure, kPa	Viscosity, Pa*s	uncertainty
0.0843	298.2	100	0.00587	7e-05

System: ethanol + water; phases: Liquid
Fixed: Temperature, K = 298.2
Fixed: Pressure, kPa = 100
Property: Mass density, kg/m3 (Liquid); method: Vibrating tube method
Mass fraction of water	Mass density, kg/m3	uncertainty
0.061	802.5	1.9
0.124	819.5	2
0.172	833.4	3.1
0.233	848.2	3.3
0.276	857.9	2.6
0.34	861.8	9
0.41	887.3	17.6
0.5	908.8	4.9
0.62	935.2	9

System: ethanol + water; phases: Liquid
Fixed: Temperature, K = 298.2
Fixed: Pressure, kPa = 100
Property: Viscosity, Pa*s (Liquid); method: Falling or rolling sphere viscometry
Mass fraction of water	Viscosity, Pa*s	uncertainty
0.061	0.00131	2e-05
0.124	0.00146	2e-05
0.172	0.00164	4e-05
0.233	0.0018	3e-05
0.276	0.00187	2e-05
0.34	0.0019	0.0001
0.41	0.00219	0.00015
0.5	0.00231	3e-05
0.62	0.00234	2e-05
