Measured thermophysical data. Density and Excess Molar Volumes of 1-Butanol + Methanol + Electrolyte Systems in the Temperature Range (293.15 308.15) K
Source: J. Chem. Eng. Data, 2016, 10.1021/acs.jced.5b00366
Compound 1: methanol, CH4O, InChI=1S/CH4O/c1-2/h2H,1H3
Compound 2: butan-1-ol, C4H10O, InChI=1S/C4H10O/c1-2-3-4-5/h5H,2-4H2,1H3
Compound 3: sodium chloride, ClNa, InChI=1S/ClH.Na/h1H;/q;+1/p-1
Compound 4: potassium chloride, ClK, InChI=1S/ClH.K/h1H;/q;+1/p-1
Compound 5: cadmium iodide (CdI2), CdI2, InChI=1S/Cd.2HI/h;2*1H/q+2;;/p-2

System: methanol; phases: Liquid
Fixed: Pressure, kPa = 102
Property: Mass density, kg/m3 (Liquid); method: Vibrating tube method
Temperature, K	Mass density, kg/m3	uncertainty
293.15	791.34	3.2
298.15	786.68	3.2
303.15	781.96	3.2
308.15	777.21	3.2

System: butan-1-ol; phases: Liquid
Fixed: Pressure, kPa = 102
Property: Mass density, kg/m3 (Liquid); method: Vibrating tube method
Temperature, K	Mass density, kg/m3	uncertainty
293.15	809.84	3.25
298.15	806.03	3.25
303.15	802.19	3.25
308.15	798.38	3.25

System: methanol + butan-1-ol; phases: Liquid
Fixed: Pressure, kPa = 102
Property: Mass density, kg/m3 (Liquid); method: Vibrating tube method
Mole fraction of butan-1-ol	Temperature, K	Mass density, kg/m3	uncertainty
0	293.15	791.34	3.2
0.05	293.15	793	3.27
0.1	293.15	794.55	3.28
0.15	293.15	795.82	3.29
0.2	293.15	797.09	3.61
0.25	293.15	798.29	3.24
0.3	293.15	799.4	3.2
0.4	293.15	801.48	3.29
0.5	293.15	803.28	3.23
0.6	293.15	804.87	3.23
0.7	293.15	806.38	3.23
0.8	293.15	807.62	3.25
0.9	293.15	808.83	3.25
1	293.15	809.84	3.25
0	298.15	786.68	3.2
0.05	298.15	788.48	3.28
0.1	298.15	790.15	3.26
0.15	298.15	791.52	3.25
0.2	298.15	792.81	3.24
0.25	298.15	794.06	3.24
0.3	298.15	795.23	3.24
0.4	298.15	797.4	3.2
0.5	298.15	799.27	3.23
0.6	298.15	800.94	3.23
0.7	298.15	802.48	3.23
0.8	298.15	803.77	3.24
0.9	298.15	804.99	3.25
1	298.15	806.03	3.25
0	303.15	781.96	3.2
0.05	303.15	783.92	3.29
0.1	303.15	785.69	3.27
0.15	303.15	787.15	3.25
0.2	303.15	788.52	3.25
0.25	303.15	789.82	3.24
0.3	303.15	791.01	3.24
0.4	303.15	793.26	3.24
0.5	303.15	795.21	3.23
0.6	303.15	796.94	3.23
0.7	303.15	798.57	3.23
0.8	303.15	799.91	3.24
0.9	303.15	801.12	3.25
1	303.15	802.19	3.25
0	308.15	777.21	3.2
0.05	308.15	779.32	3.3
0.1	308.15	781.19	3.21
0.15	308.15	782.74	3.22
0.2	308.15	784.19	3.27
0.25	308.15	785.52	3.25
0.3	308.15	786.78	3.24
0.4	308.15	789.13	3.23
0.5	308.15	791.18	3.23
0.6	308.15	792.99	3.23
0.7	308.15	794.64	3.24
0.8	308.15	796.04	3.23
0.9	308.15	797.29	3.25
1	308.15	798.38	3.25

System: methanol + butan-1-ol + cadmium iodide (CdI2); phases: Liquid
Fixed: Pressure, kPa = 102
Property: Mass density, kg/m3 (Liquid); method: Vibrating tube method
Temperature, K	Solvent: Mole fraction of butan-1-ol	Molality, mol/kg of cadmium iodide (CdI2)	Mass density, kg/m3	uncertainty
293.15	0	0.004	792.58	3.25
293.15	0.05	0.004	794.14	3.31
293.15	0.1	0.004	795.58	3.3
293.15	0.15	0.004	796.99	3.3
293.15	0.2	0.004	798.22	3.31
293.15	0.25	0.004	799.47	3.29
293.15	0.3	0.004	800.74	3.3
293.15	0.4	0.004	802.8	3.3
293.15	0.5	0.004	804.8	3.3
293.15	0.6	0.004	806.27	3.29
293.15	0.7	0.004	807.66	3.28
293.15	0.8	0.004	809.22	3.26
293.15	0.9	0.004	810.31	3.26
293.15	1	0.004	811.57	3.24
293.15	0	0.005	792.87	3.25
293.15	0.05	0.005	794.35	3.26
293.15	0.1	0.005	795.83	3.3
293.15	0.15	0.005	797.14	3.31
293.15	0.2	0.005	798.37	3.31
293.15	0.25	0.005	799.69	5.31
293.15	0.3	0.005	800.89	3.31
293.15	0.4	0.005	803.08	3.28
293.15	0.5	0.005	805.04	3.81
293.15	0.6	0.005	806.51	3.95
293.15	0.7	0.005	807.94	3.27
293.15	0.8	0.005	809.4	3.3
293.15	0.9	0.005	810.49	4.44
293.15	1	0.005	811.75	3.24
293.15	0	0.006	793.02	3.26
293.15	0.05	0.006	794.57	4.94
293.15	0.1	0.006	796.09	3.3
293.15	0.15	0.006	797.4	3.3
293.15	0.2	0.006	798.61	3.3
293.15	0.25	0.006	799.98	3.3
293.15	0.3	0.006	801.15	3.3
293.15	0.4	0.006	803.33	3.28
293.15	0.5	0.006	805.2	3.3
293.15	0.6	0.006	806.65	3.99
293.15	0.7	0.006	808.11	3.28
293.15	0.8	0.006	809.53	3.29
293.15	0.9	0.006	810.63	4.61
293.15	1	0.006	811.98	3.25
293.15	0	0.008	793.63	3.26
293.15	0.05	0.008	795.21	3.31
293.15	0.1	0.008	796.65	3.3
293.15	0.15	0.008	798.11	3.3
293.15	0.2	0.008	799.54	3.29
293.15	0.25	0.008	800.53	3.28
293.15	0.3	0.008	801.92	3.28
293.15	0.4	0.008	803.86	3.28
293.15	0.5	0.008	805.89	3.27
293.15	0.6	0.008	807.58	3.26
293.15	0.7	0.008	808.92	3.26
293.15	0.8	0.008	810.16	3.25
293.15	0.9	0.008	811.4	3.2
293.15	1	0.008	812.48	3.24
293.15	0	0.01	794.17	3.26
293.15	0.05	0.01	795.87	3.31
293.15	0.1	0.01	797.11	3.29
293.15	0.15	0.01	798.44	3.3
293.15	0.2	0.01	799.87	3.3
293.15	0.25	0.01	801.18	3.28
293.15	0.3	0.01	802.43	3.28
293.15	0.4	0.01	804.4	3.3
293.15	0.5	0.01	806.63	3.27
293.15	0.6	0.01	808.33	3.26
293.15	0.7	0.01	809.51	3.26
293.15	0.8	0.01	810.89	3.25
293.15	0.9	0.01	812.17	3.24
293.15	1	0.01	813.03	3.24
293.15	0	0.02	797.09	3.25
293.15	0.05	0.02	798.55	3.3
293.15	0.1	0.02	799.87	3.29
293.15	0.15	0.02	801.08	3.29
293.15	0.2	0.02	802.42	3.28
293.15	0.25	0.02	803.45	3.28
293.15	0.3	0.02	804.79	3.28
293.15	0.4	0.02	807.08	3.27
293.15	0.5	0.02	808.79	3.26
293.15	0.6	0.02	810.32	3.26
293.15	0.7	0.02	811.94	3.26
293.15	0.8	0.02	812.95	3.25
293.15	0.9	0.02	813.93	3.25
293.15	1	0.02	815.24	3.24
293.15	0	0.05	805.07	3.24
293.15	0.05	0.05	806.88	3.29
293.15	0.1	0.05	807.8	3.27
293.15	0.15	0.05	808.77	3.28
293.15	0.2	0.05	809.9	3.29
293.15	0.25	0.05	811.45	3.29
293.15	0.3	0.05	812.37	3.28
293.15	0.4	0.05	814.58	3.27
293.15	0.5	0.05	816.13	3.26
293.15	0.6	0.05	817.79	3.26
293.15	0.7	0.05	819.24	3.26
293.15	0.8	0.05	820.56	3.26
293.15	0.9	0.05	821.67	3.25
293.15	1	0.05	822.26	3.25
293.15	0	0.08	811.5	3.24
293.15	0.05	0.08	813.63	3.31
293.15	0.1	0.08	815	3.3
293.15	0.15	0.08	816.66	3.3
293.15	0.2	0.08	817.82	3.29
293.15	0.25	0.08	819.29	3.29
293.15	0.3	0.08	820.41	3.27
293.15	0.4	0.08	822.29	3.27
293.15	0.5	0.08	823.9	3.27
293.15	0.6	0.08	825.54	3.26
293.15	0.7	0.08	826.81	3.26
293.15	0.8	0.08	828.03	3.25
293.15	0.9	0.08	829.16	3.25
293.15	1	0.08	830.17	3.25
298.15	0	0.004	787.92	3.26
298.15	0.05	0.004	789.53	3.32
298.15	0.1	0.004	791.09	3.31
298.15	0.15	0.004	792.54	3.31
298.15	0.2	0.004	793.9	3.31
298.15	0.25	0.004	795.16	3.31
298.15	0.3	0.004	796.53	3.3
298.15	0.4	0.004	798.65	3.29
298.15	0.5	0.004	800.65	3.3
298.15	0.6	0.004	802.28	3.3
298.15	0.7	0.004	803.76	3.3
298.15	0.8	0.004	805.12	3.3
298.15	0.9	0.004	806.29	3.3
298.15	1	0.004	807.62	3.27
298.15	0	0.005	788.22	3.26
298.15	0.05	0.005	789.74	3.28
298.15	0.1	0.005	791.35	3.31
298.15	0.15	0.005	792.7	3.31
298.15	0.2	0.005	794.08	3.31
298.15	0.25	0.005	795.42	4.65
298.15	0.3	0.005	796.73	3.31
298.15	0.4	0.005	798.9	3.29
298.15	0.5	0.005	800.91	3.29
298.15	0.6	0.005	802.51	3.32
298.15	0.7	0.005	804.04	3.3
298.15	0.8	0.005	805.4	3.3
298.15	0.9	0.005	806.69	3.66
298.15	1	0.005	807.92	3.27
298.15	0	0.006	788.45	3.27
298.15	0.05	0.006	790.03	5.75
298.15	0.1	0.006	791.62	3.33
298.15	0.15	0.006	793.03	3.31
298.15	0.2	0.006	794.47	3.3
298.15	0.25	0.006	795.8	3.9
298.15	0.3	0.006	797.05	3.3
298.15	0.4	0.006	799.17	3.29
298.15	0.5	0.006	801.17	3.31
298.15	0.6	0.006	802.85	3.46
298.15	0.7	0.006	804.21	3.29
298.15	0.8	0.006	805.66	3.28
298.15	0.9	0.006	806.95	3.46
298.15	1	0.006	808.19	3.28
298.15	0	0.008	789.1	3.3
298.15	0.05	0.008	790.65	3.31
298.15	0.1	0.008	792.12	3.31
298.15	0.15	0.008	793.72	3.31
298.15	0.2	0.008	795.16	3.29
298.15	0.25	0.008	796.38	3.28
298.15	0.3	0.008	797.66	3.28
298.15	0.4	0.008	799.81	3.28
298.15	0.5	0.008	801.87	3.27
298.15	0.6	0.008	803.64	3.26
298.15	0.7	0.008	805.12	3.26
298.15	0.8	0.008	806.5	3.25
298.15	0.9	0.008	807.77	3.25
298.15	1	0.008	808.94	3.24
298.15	0	0.01	789.72	3.26
298.15	0.05	0.01	791.35	3.32
298.15	0.1	0.01	792.9	3.3
298.15	0.15	0.01	794.23	3.29
298.15	0.2	0.01	795.47	3.29
298.15	0.25	0.01	796.84	3.29
298.15	0.3	0.01	798.17	3.28
298.15	0.4	0.01	800.33	3.28
298.15	0.5	0.01	802.61	3.27
298.15	0.6	0.01	804.32	3.25
298.15	0.7	0.01	805.6	3.26
298.15	0.8	0.01	806.98	3.25
298.15	0.9	0.01	808.34	3.25
298.15	1	0.01	809.67	3.24
298.15	0	0.02	792.37	3.25
298.15	0.05	0.02	793.98	3.31
298.15	0.1	0.02	795.32	3.3
298.15	0.15	0.02	796.75	3.29
298.15	0.2	0.02	798.07	3.28
298.15	0.25	0.02	799.27	3.29
298.15	0.3	0.02	800.56	3.28
298.15	0.4	0.02	802.99	3.27
298.15	0.5	0.02	804.75	3.26
298.15	0.6	0.02	806.31	3.26
298.15	0.7	0.02	807.9	3.26
298.15	0.8	0.02	809.05	3.25
298.15	0.9	0.02	810.29	3.25
298.15	1	0.02	811.39	3.25
298.15	0	0.05	800.28	3.24
298.15	0.05	0.05	802.19	3.3
298.15	0.1	0.05	803.22	3.27
298.15	0.15	0.05	804.27	3.28
298.15	0.2	0.05	805.49	3.29
298.15	0.25	0.05	806.97	3.29
298.15	0.3	0.05	808.1	3.28
298.15	0.4	0.05	810.37	3.27
298.15	0.5	0.05	812.04	3.26
298.15	0.6	0.05	813.74	3.26
298.15	0.7	0.05	815.29	3.26
298.15	0.8	0.05	816.63	3.26
298.15	0.9	0.05	817.81	3.26
298.15	1	0.05	819.27	3.25
298.15	0	0.08	806.75	3.24
298.15	0.05	0.08	808.39	3.32
298.15	0.1	0.08	810.44	3.32
298.15	0.15	0.08	812.06	3.3
298.15	0.2	0.08	813.39	3.3
298.15	0.25	0.08	815	3.3
298.15	0.3	0.08	816.1	3.28
298.15	0.4	0.08	818.03	3.27
298.15	0.5	0.08	819.8	3.27
298.15	0.6	0.08	821.66	3.26
298.15	0.7	0.08	822.85	3.26
298.15	0.8	0.08	824.09	3.25
298.15	0.9	0.08	825.16	3.25
298.15	1	0.08	826.26	3.24
303.15	0	0.004	783.18	3.26
303.15	0.05	0.004	784.9	3.33
303.15	0.1	0.004	786.55	3.31
303.15	0.15	0.004	788.07	3.31
303.15	0.2	0.004	789.5	3.31
303.15	0.25	0.004	790.83	3.29
303.15	0.3	0.004	792.04	3.31
303.15	0.4	0.004	794.33	3.32
303.15	0.5	0.004	796.35	3.3
303.15	0.6	0.004	798.1	3.32
303.15	0.7	0.004	799.67	3.32
303.15	0.8	0.004	800.98	3.32
303.15	0.9	0.004	802.24	3.31
303.15	1	0.004	803.74	3.3
303.15	0	0.005	783.49	3.26
303.15	0.05	0.005	785.11	4.13
303.15	0.1	0.005	786.78	3.31
303.15	0.15	0.005	788.2	3.31
303.15	0.2	0.005	789.7	3.31
303.15	0.25	0.005	791.15	3.69
303.15	0.3	0.005	792.46	3.3
303.15	0.4	0.005	794.66	3.32
303.15	0.5	0.005	796.91	4
303.15	0.6	0.005	798.55	6.09
303.15	0.7	0.005	800.04	3.32
303.15	0.8	0.005	801.31	3.31
303.15	0.9	0.005	802.62	3.43
303.15	1	0.005	804.06	3.3
303.15	0	0.006	783.71	3.25
303.15	0.05	0.006	785.49	7.78
303.15	0.1	0.006	787.06	3.31
303.15	0.15	0.006	788.58	3.3
303.15	0.2	0.006	790.03	3.31
303.15	0.25	0.006	791.37	6.01
303.15	0.3	0.006	792.84	3.29
303.15	0.4	0.006	794.99	3.31
303.15	0.5	0.006	797.19	3.72
303.15	0.6	0.006	798.83	4.61
303.15	0.7	0.006	800.42	3.33
303.15	0.8	0.006	801.74	3.31
303.15	0.9	0.006	803.04	3.29
303.15	1	0.006	804.49	3.29
303.15	0	0.008	784.31	3.26
303.15	0.05	0.008	786.01	3.32
303.15	0.1	0.008	787.57	3.31
303.15	0.15	0.008	789.14	3.3
303.15	0.2	0.008	790.59	3.3
303.15	0.25	0.008	791.9	3.29
303.15	0.3	0.008	793.42	3.29
303.15	0.4	0.008	795.83	3.28
303.15	0.5	0.008	797.75	3.27
303.15	0.6	0.008	799.67	3.26
303.15	0.7	0.008	801.24	3.26
303.15	0.8	0.008	802.66	3.25
303.15	0.9	0.008	803.88	3.25
303.15	1	0.008	805.19	3.24
303.15	0	0.01	784.72	3.26
303.15	0.05	0.01	786.9	3.32
303.15	0.1	0.01	788.01	3.29
303.15	0.15	0.01	789.55	3.3
303.15	0.2	0.01	791.06	3.3
303.15	0.25	0.01	792.5	3.29
303.15	0.3	0.01	793.89	3.28
303.15	0.4	0.01	796.39	3.28
303.15	0.5	0.01	798.52	3.27
303.15	0.6	0.01	800.3	3.26
303.15	0.7	0.01	802.1	3.26
303.15	0.8	0.01	803.36	3.25
303.15	0.9	0.01	804.44	3.24
303.15	1	0.01	805.87	3.23
303.15	0	0.02	787.65	3.25
303.15	0.05	0.02	789.33	3.31
303.15	0.1	0.02	790.76	3.29
303.15	0.15	0.02	791.98	3.3
303.15	0.2	0.02	793.66	3.3
303.15	0.25	0.02	794.76	3.29
303.15	0.3	0.02	796.27	3.29
303.15	0.4	0.02	798.74	3.27
303.15	0.5	0.02	800.65	3.26
303.15	0.6	0.02	802.27	3.26
303.15	0.7	0.02	804.04	3.25
303.15	0.8	0.02	805.12	3.25
303.15	0.9	0.02	806.19	3.25
303.15	1	0.02	807.51	3.24
303.15	0	0.05	795.4	3.24
303.15	0.05	0.05	797.52	3.31
303.15	0.1	0.05	798.62	3.29
303.15	0.15	0.05	800.1	3.3
303.15	0.2	0.05	801.5	3.3
303.15	0.25	0.05	803	3.28
303.15	0.3	0.05	803.78	3.28
303.15	0.4	0.05	806.14	3.27
303.15	0.5	0.05	807.91	3.27
303.15	0.6	0.05	809.67	3.26
303.15	0.7	0.05	811.28	3.26
303.15	0.8	0.05	812.67	3.26
303.15	0.9	0.05	813.89	3.25
303.15	1	0.05	814.48	3.25
303.15	0	0.08	801.87	3.24
303.15	0.05	0.08	803.4	3.33
303.15	0.1	0.08	805.79	3.36
303.15	0.15	0.08	807.73	3.32
303.15	0.2	0.08	809.27	3.3
303.15	0.25	0.08	810.58	3.28
303.15	0.3	0.08	811.74	3.28
303.15	0.4	0.08	813.84	3.27
303.15	0.5	0.08	815.63	3.27
303.15	0.6	0.08	817.56	3.26
303.15	0.7	0.08	818.8	3.26
303.15	0.8	0.08	820.1	3.25
303.15	0.9	0.08	821.1	3.25
303.15	1	0.08	822.32	3.25
308.15	0	0.004	778.43	3.25
308.15	0.05	0.004	780.28	3.33
308.15	0.1	0.004	781.98	3.32
308.15	0.15	0.004	783.48	3.31
308.15	0.2	0.004	784.88	3.32
308.15	0.25	0.004	786.44	3.34
308.15	0.3	0.004	787.94	3.32
308.15	0.4	0.004	790.33	3.33
308.15	0.5	0.004	792.34	3.32
308.15	0.6	0.004	794.01	3.34
308.15	0.7	0.004	795.69	3.31
308.15	0.8	0.004	797.25	3.3
308.15	0.9	0.004	798.33	3.29
308.15	1	0.004	799.64	3.31
308.15	0	0.005	778.74	3.24
308.15	0.05	0.005	780.52	4.63
308.15	0.1	0.005	782.2	3.32
308.15	0.15	0.005	783.71	3.31
308.15	0.2	0.005	785.1	3.32
308.15	0.25	0.005	786.77	7.12
308.15	0.3	0.005	788.22	3.33
308.15	0.4	0.005	790.62	3.34
308.15	0.5	0.005	792.62	4.16
308.15	0.6	0.005	794.3	3.46
308.15	0.7	0.005	795.91	3.32
308.15	0.8	0.005	797.53	3.31
308.15	0.9	0.005	798.81	3.83
308.15	1	0.005	800.2	3.29
308.15	0	0.006	778.86	3.26
308.15	0.05	0.006	780.69	7.35
308.15	0.1	0.006	782.49	3.33
308.15	0.15	0.006	783.93	3.31
308.15	0.2	0.006	785.46	3.32
308.15	0.25	0.006	787.04	10.76
308.15	0.3	0.006	788.44	3.31
308.15	0.4	0.006	790.85	3.31
308.15	0.5	0.006	792.95	4.99
308.15	0.6	0.006	794.63	3.38
308.15	0.7	0.006	796.24	3.31
308.15	0.8	0.006	797.79	3.3
308.15	0.9	0.006	799.14	3.31
308.15	1	0.006	800.59	3.29
308.15	0	0.008	779.43	3.26
308.15	0.05	0.008	781.35	3.34
308.15	0.1	0.008	783.05	3.32
308.15	0.15	0.008	784.6	3.31
308.15	0.2	0.008	786.21	3.31
308.15	0.25	0.008	787.83	3.3
308.15	0.3	0.008	789.19	3.29
308.15	0.4	0.008	791.79	3.29
308.15	0.5	0.008	793.79	3.27
308.15	0.6	0.008	795.74	3.26
308.15	0.7	0.008	797.19	3.26
308.15	0.8	0.008	798.58	3.25
308.15	0.9	0.008	799.81	3.25
308.15	1	0.008	801.3	3.24
308.15	0	0.01	780.04	3.26
308.15	0.05	0.01	782.24	3.34
308.15	0.1	0.01	783.65	3.3
308.15	0.15	0.01	785.05	3.31
308.15	0.2	0.01	786.67	3.31
308.15	0.25	0.01	788.22	3.3
308.15	0.3	0.01	789.62	3.29
308.15	0.4	0.01	792.2	3.29
308.15	0.5	0.01	794.41	3.27
308.15	0.6	0.01	796.3	3.26
308.15	0.7	0.01	797.8	3.26
308.15	0.8	0.01	799.15	3.25
308.15	0.9	0.01	800.52	3.25
308.15	1	0.01	802.1	3.23
308.15	0	0.02	782.94	3.25
308.15	0.05	0.02	784.66	3.32
308.15	0.1	0.02	786.24	3.3
308.15	0.15	0.02	787.66	3.3
308.15	0.2	0.02	789.22	3.3
308.15	0.25	0.02	790.5	3.29
308.15	0.3	0.02	791.94	3.29
308.15	0.4	0.02	794.79	3.28
308.15	0.5	0.02	796.6	3.26
308.15	0.6	0.02	798.24	3.26
308.15	0.7	0.02	800.03	3.26
308.15	0.8	0.02	801.24	3.25
308.15	0.9	0.02	802.26	3.25
308.15	1	0.02	803.62	3.24
308.15	0	0.05	790.79	3.24
308.15	0.05	0.05	792.8	3.31
308.15	0.1	0.05	794.04	3.28
308.15	0.15	0.05	795.09	3.29
308.15	0.2	0.05	796.63	3.3
308.15	0.25	0.05	798.1	3.3
308.15	0.3	0.05	799.43	3.29
308.15	0.4	0.05	801.93	3.27
308.15	0.5	0.05	803.74	3.27
308.15	0.6	0.05	805.57	3.27
308.15	0.7	0.05	807.24	3.26
308.15	0.8	0.05	808.75	3.26
308.15	0.9	0.05	809.93	3.25
308.15	1	0.05	810.6	3.24
308.15	0	0.08	797.4	3.24
308.15	0.05	0.08	799.52	3.33
308.15	0.1	0.08	801.3	3.33
308.15	0.15	0.08	803.2	3.31
308.15	0.2	0.08	804.37	3.3
308.15	0.25	0.08	806.13	3.3
308.15	0.3	0.08	807.36	3.28
308.15	0.4	0.08	809.51	3.27
308.15	0.5	0.08	811.43	3.27
308.15	0.6	0.08	813.49	3.26
308.15	0.7	0.08	814.73	3.26
308.15	0.8	0.08	816.08	3.25
308.15	0.9	0.08	817.1	3.25
308.15	1	0.08	818.39	3.25

System: methanol + butan-1-ol + sodium chloride; phases: Liquid, Crystal
Fixed: Pressure, kPa = 102
Property: Mass density, kg/m3 (Liquid); method: Vibrating tube method
Solvent: Mole fraction of butan-1-ol	Temperature, K	Mass density, kg/m3	uncertainty
0	293.15	791.34	3.21
0.05	293.15	795.5	3.44
0.1	293.15	797.6	3.36
0.15	293.15	799.19	3.26
0.2	293.15	800.26	3.65
0.25	293.15	801.23	3.25
0.3	293.15	803.01	3.24
0.4	293.15	804.79	3.28
0.5	293.15	805.58	3.21
0.6	293.15	806.72	3.22
0.7	293.15	807.85	3.23
0.8	293.15	809.9	3.24
0.9	293.15	812.2	3.24
1	293.15	814.5	3.21
0	298.15	786.68	3.21
0.05	298.15	790.7	3.43
0.1	298.15	792.8	3.31
0.15	298.15	794.77	3.27
0.2	298.15	795.97	3.24
0.25	298.15	797.01	3.26
0.3	298.15	798.84	3.24
0.4	298.15	800.68	3.22
0.5	298.15	801.56	3.21
0.6	298.15	802.76	3.22
0.7	298.15	803.96	3.23
0.8	298.15	806.2	3.24
0.9	298.15	808.3	3.23
1	298.15	810	3.21
0	303.15	781.96	3.21
0.05	303.15	786.3	3.43
0.1	303.15	788	3.31
0.15	303.15	790.34	3.29
0.2	303.15	791.6	3.24
0.25	303.15	792.76	3.27
0.3	303.15	794.66	3.24
0.4	303.15	796.55	3.22
0.5	303.15	797.46	3.21
0.6	303.15	798.74	3.22
0.7	303.15	800.01	3.23
0.8	303.15	802.3	3.23
0.9	303.15	804	3.22
1	303.15	805.6	3.21
0	308.15	777.21	3.21
0.05	308.15	781.2	3.5
0.1	308.15	784.2	3.39
0.15	308.15	785.92	3.4
0.2	308.15	787.22	3.21
0.25	308.15	788.7	3.27
0.3	308.15	790.44	3.23
0.4	308.15	791.6	3.22
0.5	308.15	793.34	3.22
0.6	308.15	794.68	3.22
0.7	308.15	796.02	3.21
0.8	308.15	797.6	3.22
0.9	308.15	799.1	3.23
1	308.15	801.2	3.21

System: methanol + butan-1-ol + potassium chloride; phases: Liquid, Crystal
Fixed: Pressure, kPa = 102
Property: Mass density, kg/m3 (Liquid); method: Vibrating tube method
Solvent: Mole fraction of butan-1-ol	Temperature, K	Mass density, kg/m3	uncertainty
0.05	293.15	796.02	3.22
0.1	293.15	796.52	3.53
0.15	293.15	797.85	3.22
0.2	293.15	798.7	3.22
0.25	293.15	800.01	3.23
0.3	293.15	800.42	3.23
0.4	293.15	802.44	3.31
0.5	293.15	804.03	3.23
0.6	293.15	805.61	3.22
0.7	293.15	806.9	3.21
0.8	293.15	808.39	3.22
0.9	293.15	810.2	3.22
1	293.15	810.41	3.21
0.05	298.15	791.44	3.22
0.1	298.15	792.01	3.24
0.15	298.15	793.44	3.25
0.2	298.15	794.38	3.25
0.25	298.15	795.82	3.23
0.3	298.15	796.17	3.23
0.4	298.15	798.23	3.23
0.5	298.15	799.96	3.23
0.6	298.15	801.66	3.22
0.7	298.15	802.97	3.22
0.8	298.15	804.56	3.22
0.9	298.15	805.7	3.22
1	298.15	806.59	3.21
0.05	303.15	786.85	3.22
0.1	303.15	787.48	3.24
0.15	303.15	788.85	3.25
0.2	303.15	789.99	3.26
0.25	303.15	791.6	3.23
0.3	303.15	791.9	3.23
0.4	303.15	793.88	3.23
0.5	303.15	795.88	3.23
0.6	303.15	797.65	3.23
0.7	303.15	799.01	3.22
0.8	303.15	800.65	3.22
0.9	303.15	801.8	3.22
1	303.15	802.74	3.21
0.05	308.15	782.27	3.22
0.1	308.15	782.98	3.26
0.15	308.15	784.27	3.25
0.2	308.15	785.59	3.3
0.25	308.15	786.33	3.23
0.3	308.15	787.55	3.25
0.4	308.15	790.18	3.23
0.5	308.15	791.74	3.23
0.6	308.15	793.61	3.23
0.7	308.15	794.94	3.24
0.8	308.15	796.7	3.22
0.9	308.15	798.2	3.22
1	308.15	798.9	3.21

System: methanol + cadmium iodide (CdI2); phases: Liquid
Fixed: Pressure, kPa = 102
Property: Mass density, kg/m3 (Liquid); method: Vibrating tube method
Temperature, K	Molality, mol/kg of cadmium iodide (CdI2)	Mass density, kg/m3	uncertainty
293.15	0.004	792.58	3.25
293.15	0.005	792.87	3.24
293.15	0.006	793.02	3.25
293.15	0.008	793.63	3.25
293.15	0.01	794.17	3.26
293.15	0.02	797.09	3.25
293.15	0.05	805.07	3.24
293.15	0.08	811.5	3.23
298.15	0.004	787.92	3.26
298.15	0.005	788.22	3.26
298.15	0.006	788.45	3.26
298.15	0.008	789.1	3.3
298.15	0.01	789.72	3.25
298.15	0.02	792.37	3.25
298.15	0.05	800.28	3.24
298.15	0.08	806.75	3.23
303.15	0.004	783.18	3.25
303.15	0.005	783.49	3.25
303.15	0.006	783.71	3.24
303.15	0.008	784.31	3.25
303.15	0.01	784.72	3.25
303.15	0.02	787.65	3.25
303.15	0.05	795.4	3.24
303.15	0.08	801.87	3.23
308.15	0.004	778.43	3.24
308.15	0.005	778.74	3.24
308.15	0.006	778.86	3.26
308.15	0.008	779.43	3.25
308.15	0.01	780.04	3.26
308.15	0.02	782.94	3.25
308.15	0.05	790.79	3.24
308.15	0.08	797.4	3.23

System: butan-1-ol + cadmium iodide (CdI2); phases: Liquid
Fixed: Pressure, kPa = 102
Property: Mass density, kg/m3 (Liquid); method: Vibrating tube method
Temperature, K	Molality, mol/kg of cadmium iodide (CdI2)	Mass density, kg/m3	uncertainty
293.15	0.004	811.57	3.28
293.15	0.005	811.75	3.29
293.15	0.006	811.98	3.29
293.15	0.008	812.48	3.29
293.15	0.01	813.03	3.29
293.15	0.02	815.24	3.29
293.15	0.05	822.26	3.29
293.15	0.08	830.17	3.29
298.15	0.004	807.62	3.32
298.15	0.005	807.92	3.32
298.15	0.006	808.19	3.33
298.15	0.008	808.94	3.28
298.15	0.01	809.67	3.28
298.15	0.02	811.39	3.29
298.15	0.05	819.27	3.29
298.15	0.08	826.26	3.28
303.15	0.004	803.74	3.34
303.15	0.005	804.06	3.34
303.15	0.006	804.49	3.33
303.15	0.008	805.19	3.28
303.15	0.01	805.87	3.28
303.15	0.02	807.51	3.28
303.15	0.05	814.48	3.29
303.15	0.08	822.32	3.29
308.15	0.004	799.64	3.36
308.15	0.005	800.2	3.33
308.15	0.006	800.59	3.34
308.15	0.008	801.3	3.28
308.15	0.01	802.1	3.28
308.15	0.02	803.62	3.28
308.15	0.05	810.6	3.29
308.15	0.08	818.39	3.29

System: methanol + sodium chloride; phases: Liquid, Crystal
Fixed: Pressure, kPa = 102
Property: Mass density, kg/m3 (Liquid); method: Vibrating tube method
Temperature, K	Mass density, kg/m3	uncertainty
293.15	791.34	3.2
298.15	786.68	3.2
303.15	781.96	3.2
308.15	777.21	3.2

System: butan-1-ol + sodium chloride; phases: Liquid, Crystal
Fixed: Pressure, kPa = 102
Property: Mass density, kg/m3 (Liquid); method: Vibrating tube method
Temperature, K	Mass density, kg/m3	uncertainty
293.15	814.5	3.21
298.15	810	3.21
303.15	805.6	3.21
308.15	801.2	3.21

System: butan-1-ol + potassium chloride; phases: Liquid, Crystal
Fixed: Pressure, kPa = 102
Property: Mass density, kg/m3 (Liquid); method: Vibrating tube method
Temperature, K	Mass density, kg/m3	uncertainty
293.15	810.41	3.22
298.15	806.59	3.22
303.15	802.74	3.22
308.15	798.9	3.22
