Measured thermophysical data. Solid Liquid Phase Equilibrium of trans-Cinnamic Acid in Several Alcohols: Measurements and Thermodynamic Modeling
Source: J. Chem. Eng. Data, 2016, 10.1021/acs.jced.5b00814
Compound 1: (E)-cinnamic acid, C9H8O2, InChI=1S/C9H8O2/c10-9(11)7-6-8-4-2-1-3-5-8/h1-7H,(H,10,11)/b7-6+, purity 99%
Compound 2: methanol, CH4O, InChI=1S/CH4O/c1-2/h2H,1H3, purity 99.5%
Compound 3: ethanol, C2H6O, InChI=1S/C2H6O/c1-2-3/h3H,2H2,1H3, purity 99.5%
Compound 4: propan-1-ol, C3H8O, InChI=1S/C3H8O/c1-2-3-4/h4H,2-3H2,1H3, purity 99.5%
Compound 5: butan-1-ol, C4H10O, InChI=1S/C4H10O/c1-2-3-4-5/h5H,2-4H2,1H3, purity 99.5%
Compound 6: propan-2-ol, C3H8O, InChI=1S/C3H8O/c1-3(2)4/h3-4H,1-2H3, purity 99.5%
Compound 7: 2-methyl-1-propanol, C4H10O, InChI=1S/C4H10O/c1-4(2)3-5/h4-5H,3H2,1-2H3, purity 99.5%

System: (E)-cinnamic acid; phases: Crystal, Liquid, Air at 1 atmosphere
Property: Normal melting temperature, K (Crystal); method: DTA
Normal melting temperature, K	uncertainty
406.15	0.7

System: (E)-cinnamic acid; phases: Crystal, Liquid, Air at 1 atmosphere
Property: Molar enthalpy of transition or fusion, kJ/mol (Crystal); method: DSC
Molar enthalpy of transition or fusion, kJ/mol	uncertainty
22.21	0.85

System: methanol + (E)-cinnamic acid; phases: Liquid, Crystal
Fixed: Pressure, kPa = 100
Property: Mole fraction of (E)-cinnamic acid (Liquid); method: Titration method
Temperature, K	Mole fraction of (E)-cinnamic acid	uncertainty
283.15	0.0468	0.0019
288.15	0.053	0.0021
293.15	0.0581	0.0023
298.15	0.0642	0.0026
303.15	0.071	0.0028
308.15	0.0787	0.0032
313.15	0.0868	0.0035
318.15	0.0967	0.0039
323.15	0.1058	0.0042
328.15	0.1147	0.0046
333.15	0.1253	0.005

System: ethanol + (E)-cinnamic acid; phases: Liquid, Crystal
Fixed: Pressure, kPa = 100
Property: Mole fraction of (E)-cinnamic acid (Liquid); method: Titration method
Temperature, K	Mole fraction of (E)-cinnamic acid	uncertainty
283.15	0.0515	0.0021
288.15	0.0578	0.0023
293.15	0.0648	0.0026
298.15	0.0733	0.0029
303.15	0.0809	0.0032
308.15	0.089	0.0036
313.15	0.0986	0.004
318.15	0.1096	0.0044
323.15	0.1215	0.0049
328.15	0.1327	0.0053
333.15	0.1445	0.0058

System: propan-1-ol + (E)-cinnamic acid; phases: Liquid, Crystal
Fixed: Pressure, kPa = 100
Property: Mole fraction of (E)-cinnamic acid (Liquid); method: Titration method
Temperature, K	Mole fraction of (E)-cinnamic acid	uncertainty
283.15	0.0469	0.0019
288.15	0.053	0.0021
293.15	0.0608	0.0024
298.15	0.068	0.0027
303.15	0.0761	0.0031
308.15	0.0862	0.0035
313.15	0.0957	0.0038
318.15	0.1075	0.0043
323.15	0.1183	0.0047
328.15	0.1293	0.0052
333.15	0.1421	0.0057

System: butan-1-ol + (E)-cinnamic acid; phases: Liquid, Crystal
Fixed: Pressure, kPa = 100
Property: Mole fraction of (E)-cinnamic acid (Liquid); method: Titration method
Temperature, K	Mole fraction of (E)-cinnamic acid	uncertainty
283.15	0.0455	0.0018
288.15	0.0539	0.0022
293.15	0.0619	0.0025
298.15	0.0691	0.0028
303.15	0.0791	0.0032
308.15	0.0906	0.0036
313.15	0.1015	0.0041
318.15	0.1184	0.0048
323.15	0.1345	0.0054
328.15	0.1517	0.0061
333.15	0.1685	0.0068

System: propan-2-ol + (E)-cinnamic acid; phases: Liquid, Crystal
Fixed: Pressure, kPa = 100
Property: Mole fraction of (E)-cinnamic acid (Liquid); method: Titration method
Temperature, K	Mole fraction of (E)-cinnamic acid	uncertainty
283.15	0.0465	0.0019
288.15	0.0535	0.0021
293.15	0.0615	0.0025
298.15	0.0712	0.0029
303.15	0.0811	0.0033
308.15	0.0914	0.0037
313.15	0.1023	0.0041
318.15	0.115	0.0046
323.15	0.1286	0.0052
328.15	0.1421	0.0057
333.15	0.1586	0.0064

System: 2-methyl-1-propanol + (E)-cinnamic acid; phases: Liquid, Crystal
Fixed: Pressure, kPa = 100
Property: Mole fraction of (E)-cinnamic acid (Liquid); method: Titration method
Temperature, K	Mole fraction of (E)-cinnamic acid	uncertainty
283.35	0.0325	0.0013
288.15	0.0391	0.0016
293.65	0.0476	0.0019
298.15	0.0551	0.0022
303.15	0.0644	0.0026
308.15	0.0758	0.003
314.15	0.092	0.0037
318.35	0.1072	0.0043
323.85	0.1248	0.005
329.15	0.1456	0.0058
335.35	0.1684	0.0068
