Measured thermophysical data. Influence of a-Olefin Concentration and Length on the High-Pressure Phase Behavior of (a-Olefin + n-Hexane + LLDPE) Systems
Source: J. Chem. Eng. Data, 2019, 10.1021/acs.jced.9b00224
Compound 1: ethene, C2H4, InChI=1S/C2H4/c1-2/h1-2H2, purity 99.9%
Compound 2: eicosane, C20H42, InChI=1S/C20H42/c1-3-5-7-9-11-13-15-17-19-20-18-16-14-12-10-8-6-4-2/h3-20H2,1-2H3, purity 99.99%
Compound 3: 1-butene, C4H8, InChI=1S/C4H8/c1-3-4-2/h3H,1,4H2,2H3, purity 99.3%
Compound 4: hexane, C6H14, InChI=1S/C6H14/c1-3-5-6-4-2/h3-6H2,1-2H3, purity 99.52%

System: ethene + eicosane; phases: Liquid, Gas
Property: Vapor or sublimation pressure, kPa (Liquid); method: Closed cell (Static) method
Mass fraction of ethene	Temperature, K	Vapor or sublimation pressure, kPa	uncertainty
0.0399	348.5	2260	510
0.0399	373.4	2780	570
0.0399	398.6	3180	610
0.0697	348.1	3940	490
0.0697	373.4	4840	530
0.0697	398.6	5540	560
0.117	347.9	6220	480
0.117	373.5	7540	510
0.117	398.6	8570	540

System: ethene + 1-butene; phases: Liquid, Gas
Property: Vapor or sublimation pressure, kPa (Liquid); method: Closed cell (Static) method
Mass fraction of ethene	Temperature, K	Vapor or sublimation pressure, kPa	uncertainty
0.1003	323.5	1550	130
0.1003	332.8	1830	130
0.1003	374.6	3450	140
0.1003	384.7	3920	140
0.1668	323.7	2300	130
0.1668	332.6	2650	130
0.1668	374.6	4540	140
0.1668	384.9	5040	140
0.225	323.4	2990	130
0.225	332.4	3260	130
0.225	374.7	5370	140
0.225	384.8	5640	130

System: ethene + hexane; phases: Liquid, Gas
Property: Vapor or sublimation pressure, kPa (Liquid); method: Closed cell (Static) method
Mass fraction of ethene	Temperature, K	Vapor or sublimation pressure, kPa	uncertainty
0.038	399.8	1760	220
0.038	420.5	2160	230
0.038	440.9	2590	230
0.038	461.1	3090	230
0.0857	400.2	3310	220
0.0857	420.3	3820	230
0.0857	440.9	4300	230
0.0857	460.9	4770	230
0.11	400.1	4030	220
0.11	420.7	4590	220
0.11	440.8	5110	220
0.11	461.1	5550	220
