Measured thermophysical data. Transfer Properties of Glycylglycine from Water to Aqueous NaNO3 CNaClO4 and Na2SO4 Solutions
Source: J. Chem. Eng. Data, 2015, 10.1021/acs.jced.5b00298
Compound 1: glycylglycine, C4H8N2O3, InChI=1S/C4H8N2O3/c5-1-3(7)6-2-4(8)9/h1-2,5H2,(H,6,7)(H,8,9), purity 99%
Compound 2: sodium nitrate, NNaO3, InChI=1S/NO3.Na/c2-1(3)4;/q-1;+1, purity 99.99%
Compound 3: sodium perchlorate, ClNaO4, InChI=1S/ClHO4.Na/c2-1(3,4)5;/h(H,2,3,4,5);/q;+1/p-1, purity 99.99%
Compound 4: sodium sulfate, Na2O4S, InChI=1S/2Na.H2O4S/c;;1-5(2,3)4/h;;(H2,1,2,3,4)/q2*+1;/p-2, purity 99.99%
Compound 5: water, H2O, InChI=1S/H2O/h1H2, purity 99.8%

System: glycylglycine + sodium nitrate + water; phases: Liquid
Fixed: Pressure, kPa = 101
Fixed: Temperature, K = 298.15
Fixed: Mole fraction of glycylglycine = 0
Property: Molar enthalpy of solution, kJ/mol (Liquid); method: RD496-II microcalorimeter
Solvent: Molality, mol/kg of sodium nitrate	Molar enthalpy of solution, kJ/mol	uncertainty
0.02	11.29	0.2
0.05	11.09	0.2
0.1	10.97	0.2
0.2	10.65	0.2
0.4	9.97	0.19
0.6	9.44	0.19
0.8	8.85	0.19

System: glycylglycine + sodium nitrate + water; phases: Liquid
Fixed: Pressure, kPa = 101
Fixed: Temperature, K = 298.15
Property: Mass density, kg/m3 (Liquid); method: Vibrating tube method
Solvent: Molality, mol/kg of sodium nitrate	Molality, mol/kg of glycylglycine	Mass density, kg/m3	uncertainty
0.02	0	998.191	0.075
0.02	0.1027	1003.84	0.076
0.02	0.1514	1006.476	0.076
0.02	0.1979	1008.966	0.077
0.02	0.2556	1012.019	0.079
0.02	0.3009	1014.391	0.079
0.1001	0	1002.651	0.075
0.1001	0.1058	1008.444	0.077
0.1001	0.1605	1011.384	0.078
0.1001	0.2116	1014.097	0.079
0.1001	0.2609	1016.681	0.08
0.1001	0.3207	1019.785	0.081
0.4001	0	1019.017	0.082
0.4001	0.1045	1024.602	0.083
0.4001	0.2109	1030.162	0.086
0.4001	0.2652	1032.945	0.087
0.4001	0.3208	1035.755	0.088
0.4001	0.3738	1038.415	0.089
0.8	0	1040.022	0.09
0.8	0.1062	1045.54	0.092
0.8	0.1614	1048.352	0.093
0.8	0.2103	1050.809	0.094
0.8	0.2641	1053.482	0.095
0.8	0.3204	1056.247	0.095
1.201	0	1060.253	0.098
1.201	0.1059	1065.586	0.1
1.201	0.1549	1068.013	0.101
1.201	0.2011	1070.269	0.102
1.201	0.2503	1072.663	0.103
1.201	0.3	1075.042	0.104
1.6016	0	1079.669	0.106
1.6016	0.1048	1084.802	0.108
1.6016	0.2091	1089.784	0.11
1.6016	0.2622	1092.281	0.111
1.6016	0.3198	1094.953	0.113
1.6016	0.3736	1097.422	0.114

System: glycylglycine + sodium perchlorate + water; phases: Liquid
Fixed: Pressure, kPa = 101
Fixed: Temperature, K = 298.15
Fixed: Mole fraction of glycylglycine = 0
Property: Molar enthalpy of solution, kJ/mol (Liquid); method: RD496-II microcalorimeter
Solvent: Molality, mol/kg of sodium perchlorate	Molar enthalpy of solution, kJ/mol	uncertainty
0.02	10.95	0.2
0.05	10.82	0.2
0.1	10.65	0.2
0.2	10.33	0.19
0.4	9.35	0.19
0.6	8.75	0.19
0.8	7.88	0.19

System: glycylglycine + sodium perchlorate + water; phases: Liquid
Fixed: Pressure, kPa = 101
Fixed: Temperature, K = 298.15
Property: Mass density, kg/m3 (Liquid); method: Vibrating tube method
Solvent: Molality, mol/kg of sodium perchlorate	Molality, mol/kg of glycylglycine	Mass density, kg/m3	uncertainty
0.0201	0	998.644	0.078
0.0201	0.1069	1004.532	0.079
0.0201	0.209	1010.029	0.081
0.0201	0.2551	1012.459	0.081
0.0201	0.3101	1015.327	0.083
0.0201	0.3485	1017.32	0.083
0.1	0	1004.815	0.079
0.1	0.1053	1010.585	0.081
0.1	0.2024	1015.773	0.083
0.1	0.2507	1018.309	0.083
0.1	0.3005	1020.899	0.084
0.1	0.3486	1023.367	0.085
0.4001	0	1027.273	0.087
0.4001	0.1051	1032.883	0.089
0.4001	0.1904	1037.337	0.091
0.4001	0.2433	1040.063	0.092
0.4001	0.2935	1042.615	0.093
0.4001	0.3491	1045.403	0.093
0.8002	0	1055.678	0.098
0.8002	0.1036	1061.023	0.1
0.8002	0.191	1065.443	0.102
0.8002	0.2372	1067.74	0.103
0.8002	0.2884	1070.259	0.104
0.8002	0.3501	1073.265	0.105
1.1999	0	1083.488	0.11
1.1999	0.11	1088.954	0.112
1.1999	0.1702	1091.894	0.113
1.1999	0.2179	1094.2	0.114
1.1999	0.2894	1097.617	0.116
1.1999	0.3445	1100.22	0.117
1.6001	0	1111.935	0.122
1.6001	0.1055	1116.998	0.124
1.6001	0.1658	1119.835	0.125
1.6001	0.226	1122.617	0.127
1.6001	0.2856	1125.34	0.128
1.6001	0.3341	1127.522	0.129

System: glycylglycine + water + sodium sulfate; phases: Liquid
Fixed: Pressure, kPa = 101
Fixed: Temperature, K = 298.15
Fixed: Mole fraction of glycylglycine = 0
Property: Molar enthalpy of solution, kJ/mol (Liquid); method: RD496-II microcalorimeter
Solvent: Molality, mol/kg of sodium sulfate	Molar enthalpy of solution, kJ/mol	uncertainty
0.02	11.12	0.2
0.05	10.92	0.2
0.1	10.8	0.2
0.2	10.49	0.19
0.4	9.86	0.19
0.6	9.61	0.19
0.8	9.3	0.19

System: glycylglycine + water + sodium sulfate; phases: Liquid
Fixed: Pressure, kPa = 101
Fixed: Temperature, K = 298.15
Property: Mass density, kg/m3 (Liquid); method: Vibrating tube method
Solvent: Molality, mol/kg of sodium sulfate	Molality, mol/kg of glycylglycine	Mass density, kg/m3	uncertainty
0.0201	0	999.638	0.087
0.0201	0.1074	1005.526	0.088
0.0201	0.2024	1010.619	0.09
0.0201	0.2536	1013.316	0.09
0.0201	0.3016	1015.815	0.091
0.0201	0.3594	1018.79	0.092
0.1001	0	1009.692	0.089
0.1001	0.1047	1015.31	0.091
0.1001	0.2045	1020.536	0.092
0.1001	0.2569	1023.239	0.093
0.1001	0.3101	1025.955	0.094
0.1001	0.3624	1028.597	0.094
0.4002	0	1045.749	0.102
0.4002	0.1029	1050.921	0.103
0.4002	0.2058	1055.973	0.104
0.4002	0.2572	1058.454	0.105
0.4002	0.312	1061.066	0.106
0.4002	0.3642	1063.53	0.106
0.8001	0	1090.934	0.118
0.8001	0.1059	1095.83	0.12
0.8001	0.2055	1100.33	0.121
0.8001	0.2648	1102.967	0.123
0.8001	0.3051	1104.718	0.123
0.8001	0.3607	1107.142	0.124
1.0002	0	1112.491	0.126
1.0002	0.1049	1117.154	0.128
1.0002	0.2029	1121.399	0.13
1.0002	0.2493	1123.372	0.13
1.0002	0.2941	1125.255	0.131
1.0002	0.3529	1127.704	0.132
1.2	0	1133.412	0.135
1.2	0.1051	1137.873	0.136
1.2	0.2008	1141.826	0.138
1.2	0.2547	1144.005	0.139
1.2	0.3093	1146.183	0.14
1.2	0.3589	1148.137	0.141

System: sodium nitrate + water; phases: Liquid
Fixed: Pressure, kPa = 101
Fixed: Temperature, K = 298.15
Property: Mass density, kg/m3 (Liquid); method: Vibrating tube method
Molality, mol/kg of sodium nitrate	Mass density, kg/m3	uncertainty
0.02	998.191	0.075
0.1001	1002.651	0.075
0.4001	1019.017	0.082
0.8	1040.022	0.09
1.201	1060.253	0.098
1.6016	1079.669	0.106

System: sodium perchlorate + water; phases: Liquid
Fixed: Pressure, kPa = 101
Fixed: Temperature, K = 298.15
Property: Mass density, kg/m3 (Liquid); method: Vibrating tube method
Molality, mol/kg of sodium perchlorate	Mass density, kg/m3	uncertainty
0.0201	998.644	0.078
0.1	1004.815	0.079
0.4001	1027.273	0.087
0.8002	1055.678	0.098
1.1999	1083.488	0.11
1.6001	1111.935	0.122

System: water + sodium sulfate; phases: Liquid
Fixed: Pressure, kPa = 101
Fixed: Temperature, K = 298.15
Property: Mass density, kg/m3 (Liquid); method: Vibrating tube method
Molality, mol/kg of sodium sulfate	Mass density, kg/m3	uncertainty
0.0201	999.638	0.087
0.1001	1009.692	0.089
0.4002	1045.749	0.102
0.8001	1090.934	0.118
1.0002	1112.491	0.126
1.2	1133.412	0.135
