Measured thermophysical data. Density and Viscosity of Partially Carbonated Aqueous Tertiary Alkanolamine Solutions at Temperatures between (298.15 and 353.15) K
Source: J. Chem. Eng. Data, 2015, 10.1021/acs.jced.5b00282
Compound 1: 2-aminoethan-1-ol, C2H7NO, InChI=1S/C2H7NO/c3-1-2-4/h4H,1-3H2, purity 99%
Compound 2: 2-(N,N-dimethylamino)ethanol, C4H11NO, InChI=1S/C4H11NO/c1-5(2)3-4-6/h6H,3-4H2,1-2H3, purity 99%
Compound 3: (diethylamino)ethanol, C6H15NO, InChI=1S/C6H15NO/c1-3-7(4-2)5-6-8/h8H,3-6H2,1-2H3, purity 99%
Compound 4: carbon dioxide, CO2, InChI=1S/CO2/c2-1-3, purity 99.99%
Compound 5: water, H2O, InChI=1S/H2O/h1H2, purity 99.8%

System: 2-(N,N-dimethylamino)ethanol; phases: Liquid
Fixed: Pressure, kPa = 101.325
Property: Mass density, kg/m3 (Liquid); method: Vibrating tube method
Temperature, K	Mass density, kg/m3	uncertainty
298.15	883.83	0.23
303.15	879.57	0.23
313.15	870.95	0.23
323.15	862.2	0.23
333.15	853.29	0.23
343.15	844.2	0.24
353.15	834.93	0.24

System: (diethylamino)ethanol; phases: Liquid
Fixed: Pressure, kPa = 101.325
Property: Mass density, kg/m3 (Liquid); method: Vibrating tube method
Temperature, K	Mass density, kg/m3	uncertainty
298.15	880.37	0.23
303.15	875.75	0.23
313.15	866.41	0.23
323.15	856.95	0.23
333.15	847.38	0.23
343.15	837.74	0.24
353.15	828.02	0.24

System: carbon dioxide + 2-aminoethan-1-ol + water; phases: Liquid
Fixed: Pressure, kPa = 101
Fixed: Solvent: Mass fraction of 2-aminoethan-1-ol = 0.3
Property: Mass density, kg/m3 (Liquid); method: Vibrating tube method
Temperature, K	Molality, mol/kg of carbon dioxide	Mass density, kg/m3	uncertainty
298.15	0	1010.44	4.54
298.15	0.69	1041.76	4.57
298.15	1.23	1066.68	4.37
298.15	1.87	1093.32	4.27
298.15	2.41	1117.07	4.4
299.15	0	1010.01	4.54
299.15	0.69	1041.33	4.56
299.15	1.23	1066.14	4.36
299.15	1.87	1092.89	4.27
299.15	2.41	1116.59	4.39
301.15	0	1009.11	4.54
301.15	0.69	1040.44	4.56
301.15	1.23	1065.14	4.36
301.15	1.87	1091.99	4.28
301.15	2.41	1115.64	4.38
303.15	0	1008.2	4.54
303.15	0.69	1039.54	4.54
303.15	1.23	1064.06	4.36
303.15	1.87	1091.07	4.29
303.15	2.41	1114.68	4.37
313.15	0	1003.32	4.58
313.15	0.69	1034.74	4.52
313.15	1.23	1058.86	4.36
313.15	1.87	1086.19	4.31
313.15	2.41	1109.69	4.34
323.15	0	997.9	4.6
323.15	0.69	1029.53	4.51
323.15	1.23	1053.28	4.36
323.15	1.87	1081.03	4.33
323.15	2.41	1104.41	4.33
333.15	0	992.21	4.63
333.15	0.69	1023.93	4.52
333.15	1.23	1047.69	4.37
333.15	1.87	1075.51	4.33
343.15	0	985.83	4.67
343.15	0.69	1017.95	4.56
343.15	1.23	1041.82	4.38
343.15	1.87	1069.66	4.34
353.15	0	979.22	4.67
353.15	0.69	1011.44	4.58
353.15	1.23	1035.47	4.41
353.15	1.87	1063.49	4.38

System: carbon dioxide + 2-aminoethan-1-ol + water; phases: Liquid
Fixed: Pressure, kPa = 101
Fixed: Solvent: Mass fraction of 2-aminoethan-1-ol = 0.3
Property: Viscosity, Pa*s (Liquid); method: Capillary tube (Ostwald; Ubbelohde) method
Temperature, K	Molality, mol/kg of carbon dioxide	Viscosity, Pa*s	uncertainty
298.15	0	0.00254	6e-05
298.15	0.69	0.00279	7e-05
298.15	1.23	0.00297	8e-05
298.15	1.87	0.00329	9e-05
298.15	2.41	0.00372	0.00011
303.15	0	0.00219	5e-05
303.15	0.69	0.00242	6e-05
303.15	1.23	0.00254	6e-05
303.15	1.87	0.00282	8e-05
303.15	2.41	0.00325	0.00011
313.15	0	0.00168	4e-05
313.15	0.69	0.00187	5e-05
313.15	1.23	0.00195	5e-05
313.15	1.87	0.00217	7e-05
313.15	2.41	0.00252	9e-05
323.15	0	0.00133	3e-05
323.15	0.69	0.00149	4e-05
323.15	1.23	0.00156	4e-05
323.15	1.87	0.00173	5e-05
323.15	2.41	0.00201	7e-05
333.15	0	0.00107	3e-05
333.15	0.69	0.00121	3e-05
333.15	1.23	0.00127	3e-05
333.15	1.87	0.00141	4e-05
343.15	0	0.00089	2e-05
343.15	0.69	0.00101	3e-05
343.15	1.23	0.00106	3e-05
353.15	0	0.00076	2e-05
353.15	0.69	0.00086	2e-05
353.15	1.23	0.00089	2e-05

System: 2-(N,N-dimethylamino)ethanol + carbon dioxide + water; phases: Liquid
Fixed: Pressure, kPa = 101
Property: Mass density, kg/m3 (Liquid); method: Vibrating tube method
Solvent: Mass fraction of 2-(N,N-dimethylamino)ethanol	Temperature, K	Molality, mol/kg of carbon dioxide	Mass density, kg/m3	uncertainty
0.15	298.15	0	992.33	0.12
0.15	298.15	0.79	1026.83	0.13
0.15	298.15	1.38	1052.93	0.14
0.15	303.15	0	990.35	0.13
0.15	303.15	0.79	1026.25	0.13
0.15	303.15	1.38	1050.61	0.13
0.15	313.15	0	985.86	0.13
0.15	313.15	0.79	1021.07	0.13
0.15	313.15	1.38	1046.01	0.13
0.15	323.15	0	980.82	0.13
0.15	323.15	0.79	1015.39	0.13
0.15	333.15	0	975.14	0.13
0.15	333.15	0.79	1009.3	0.13
0.15	343.15	0	968.93	0.13
0.15	343.15	0.79	1002.83	0.13
0.15	353.15	0	962.24	0.13
0.3	298.15	0	988	0.13
0.3	298.15	0.88	1026.8	0.13
0.3	298.15	1.45	1051.32	0.14
0.3	299.15	0	987.42	0.13
0.3	299.15	0.88	1026.17	0.13
0.3	299.15	1.45	1050.68	0.14
0.3	301.15	0	986.26	0.13
0.3	301.15	0.88	1024.9	0.13
0.3	301.15	1.45	1049.4	0.13
0.3	303.15	0	985.08	0.13
0.3	303.15	0.88	1023.62	0.13
0.3	303.15	1.45	1048.1	0.13
0.3	313.15	0	978.92	0.13
0.3	313.15	0.88	1016.97	0.13
0.3	313.15	1.45	1041.39	0.13
0.3	323.15	0	972.34	0.13
0.3	323.15	0.88	1010	0.13
0.3	323.15	1.45	1034.4	0.13
0.3	333.15	0	965.36	0.13
0.3	333.15	0.88	1002.73	0.13
0.3	333.15	1.45	1027.18	0.13
0.3	343.15	0	957.98	0.13
0.3	343.15	0.88	995.21	0.13
0.3	353.15	0	950.22	0.13
0.45	298.15	0	980.4	0.13
0.45	298.15	0.45	999.85	0.13
0.45	298.15	0.76	1013.95	0.13
0.45	298.15	1.16	1030.42	0.13
0.45	298.15	1.67	1054.79	0.14
0.45	298.15	2.22	1077.04	0.14
0.45	298.15	2.42	1086.03	0.15
0.45	303.15	0	976.75	0.13
0.45	303.15	0.45	996.08	0.13
0.45	303.15	0.76	1010.13	0.13
0.45	303.15	1.16	1026.6	0.13
0.45	303.15	1.67	1050.96	0.14
0.45	303.15	2.22	1073.27	0.14
0.45	303.15	2.42	1082.32	0.14
0.45	313.15	0	969.32	0.13
0.45	313.15	0.45	988.4	0.13
0.45	313.15	0.76	1002.39	0.13
0.45	313.15	1.16	1018.81	0.13
0.45	313.15	1.67	1043.2	0.13
0.45	313.15	2.22	1065.67	0.14
0.45	313.15	2.42	1074.82	0.14
0.45	323.15	0	961.69	0.13
0.45	323.15	0.45	980.51	0.13
0.45	323.15	0.76	994.47	0.13
0.45	323.15	1.16	1010.89	0.13
0.45	323.15	1.67	1035.36	0.13
0.45	323.15	2.22	1058.01	0.14
0.45	323.15	2.42	1067.24	0.14
0.45	333.15	0	953.66	0.13
0.45	333.15	0.45	972.39	0.13
0.45	333.15	0.76	986.38	0.13
0.45	333.15	1.16	1002.83	0.13
0.45	333.15	1.67	1027.4	0.13
0.45	333.15	2.22	1050.25	0.14
0.45	343.15	0	945.33	0.13
0.45	343.15	0.45	964.04	0.13
0.45	343.15	0.76	978.08	0.13
0.45	343.15	1.16	994.59	0.13
0.45	353.15	0	936.72	0.13
0.45	353.15	0.45	955.38	0.13
0.45	353.15	0.76	969.55	0.13
0.45	353.15	1.16	986.13	0.13

System: 2-(N,N-dimethylamino)ethanol + carbon dioxide + water; phases: Liquid
Fixed: Pressure, kPa = 101
Property: Viscosity, Pa*s (Liquid); method: Capillary tube (Ostwald; Ubbelohde) method
Solvent: Mass fraction of 2-(N,N-dimethylamino)ethanol	Temperature, K	Molality, mol/kg of carbon dioxide	Viscosity, Pa*s	uncertainty
0.15	303.15	0	0.00145	6e-05
0.15	303.15	0.79	0.00146	6e-05
0.15	303.15	1.4	0.00147	6e-05
0.15	313.15	0	0.00114	5e-05
0.15	313.15	0.79	0.00116	5e-05
0.15	313.15	1.4	0.00118	5e-05
0.15	323.15	0	0.00091	4e-05
0.15	323.15	0.79	0.00094	4e-05
0.15	333.15	0	0.00074	3e-05
0.15	333.15	0.79	0.00078	3e-05
0.15	343.15	0	0.00062	3e-05
0.15	353.15	0	0.00053	2e-05
0.3	303.15	0	0.00295	0.00012
0.3	303.15	0.88	0.00303	0.00012
0.3	303.15	1.45	0.0032	0.00013
0.3	313.15	0	0.00208	8e-05
0.3	313.15	0.88	0.00223	9e-05
0.3	313.15	1.45	0.00239	0.0001
0.3	323.15	0	0.00156	6e-05
0.3	323.15	0.88	0.00169	7e-05
0.3	323.15	1.45	0.00185	7e-05
0.3	333.15	0	0.00122	5e-05
0.3	333.15	0.88	0.00134	5e-05
0.3	333.15	1.45	0.00138	6e-05
0.3	343.15	0	0.00098	4e-05
0.3	343.15	0.88	0.00108	4e-05
0.3	353.15	0	0.00084	3e-05
0.45	303.15	0	0.00519	0.00021
0.45	303.15	0.4	0.0058	0.00023
0.45	303.15	0.76	0.0061	0.00025
0.45	303.15	1.16	0.00662	0.00027
0.45	303.15	1.72	0.00729	0.00029
0.45	303.15	2.02	0.00772	0.00031
0.45	303.15	2.42	0.00843	0.00034
0.45	313.15	0	0.00352	0.00014
0.45	313.15	0.4	0.00395	0.00016
0.45	313.15	0.76	0.00417	0.00017
0.45	313.15	1.16	0.00455	0.00018
0.45	313.15	1.72	0.00501	0.0002
0.45	313.15	2.02	0.00532	0.00021
0.45	313.15	2.42	0.00585	0.00024
0.45	323.15	0	0.00251	0.0001
0.45	323.15	0.4	0.00284	0.00011
0.45	323.15	0.76	0.00298	0.00012
0.45	323.15	1.16	0.00327	0.00013
0.45	323.15	1.72	0.00362	0.00015
0.45	323.15	2.02	0.00385	0.00016
0.45	323.15	2.42	0.00428	0.00017
0.45	333.15	0	0.00186	8e-05
0.45	333.15	0.4	0.00212	9e-05
0.45	333.15	0.76	0.00223	9e-05
0.45	333.15	1.16	0.00244	0.0001
0.45	333.15	1.72	0.00271	0.00011
0.45	333.15	2.02	0.0029	0.00012
0.45	333.15	2.42	0.00322	0.00013
0.45	343.15	0	0.00143	6e-05
0.45	343.15	0.4	0.00163	7e-05
0.45	343.15	0.76	0.00173	7e-05
0.45	343.15	1.16	0.0019	8e-05
0.45	353.15	0	0.00116	5e-05
0.45	353.15	0.4	0.0013	5e-05
0.45	353.15	0.76	0.00137	6e-05
0.45	353.15	1.16	0.00151	6e-05

System: (diethylamino)ethanol + carbon dioxide + water; phases: Liquid
Fixed: Pressure, kPa = 101
Property: Mass density, kg/m3 (Liquid); method: Vibrating tube method
Solvent: Mass fraction of (diethylamino)ethanol	Temperature, K	Molality, mol/kg of carbon dioxide	Mass density, kg/m3	uncertainty
0.15	298.15	0	993.03	0.13
0.15	298.15	0.67	1022.76	0.13
0.15	298.15	1.06	1039.68	0.13
0.15	303.15	0	990.95	0.13
0.15	303.15	0.67	1020.37	0.13
0.15	303.15	1.06	1037.67	0.13
0.15	313.15	0	986.24	0.13
0.15	313.15	0.67	1015.08	0.13
0.15	313.15	1.06	1033.21	0.13
0.15	323.15	0	980.89	0.13
0.15	323.15	0.67	1009.2	0.13
0.15	323.15	1.06	1028.22	0.13
0.15	333.15	0	974.93	0.13
0.15	333.15	0.67	1002.83	0.13
0.15	333.15	1.06	1022.72	0.13
0.15	343.15	0	968.49	0.13
0.15	343.15	0.67	996.07	0.12
0.15	353.15	0	961.55	0.13
0.15	353.15	0.67	988.95	0.13
0.3	298.15	0	986.96	0.13
0.3	298.15	0.67	1017.82	0.13
0.3	298.15	1.25	1044.5	0.14
0.3	298.15	1.56	1060.58	0.14
0.3	298.15	2.1	1078.48	0.14
0.3	303.15	0	983.79	0.13
0.3	303.15	0.67	1014.3	0.13
0.3	303.15	1.25	1040.94	0.14
0.3	303.15	1.56	1057.33	0.14
0.3	303.15	2.1	1075.17	0.14
0.3	313.15	0	977.15	0.13
0.3	313.15	0.67	1006.96	0.13
0.3	313.15	1.25	1033.52	0.13
0.3	313.15	1.56	1050.52	0.14
0.3	313.15	2.1	1068.53	0.14
0.3	323.15	0	970.11	0.13
0.3	323.15	0.67	999.24	0.13
0.3	323.15	1.25	1025.8	0.13
0.3	323.15	1.56	1043.49	0.14
0.3	333.15	0	962.69	0.13
0.3	333.15	0.67	991.46	0.13
0.3	333.15	1.25	1017.93	0.13
0.3	333.15	1.56	1036.07	0.14
0.3	343.15	0	954.88	0.13
0.3	343.15	0.67	983.4	0.13
0.3	343.15	1.25	1010.13	0.13
0.3	353.15	0	946.71	0.13
0.3	353.15	0.67	975.13	0.13
0.45	298.15	0	975.72	0.13
0.45	298.15	1	1018.21	0.13
0.45	298.15	1.27	1030.69	0.13
0.45	298.15	1.61	1045.17	0.14
0.45	298.15	1.84	1055.4	0.14
0.45	298.15	2.23	1071.85	0.14
0.45	298.15	2.61	1087.27	0.15
0.45	298.15	3.11	1110.62	0.15
0.45	303.15	0	971.87	0.13
0.45	303.15	1	1013.94	0.13
0.45	303.15	1.27	1026.33	0.13
0.45	303.15	1.61	1040.83	0.14
0.45	303.15	1.84	1051.07	0.14
0.45	303.15	2.23	1067.68	0.14
0.45	303.15	2.61	1083.45	0.15
0.45	303.15	3.11	1107.31	0.15
0.45	313.15	0	963.92	0.13
0.45	313.15	1	1005.31	0.13
0.45	313.15	1.27	1017.64	0.13
0.45	313.15	1.61	1032.14	0.13
0.45	313.15	1.84	1042.46	0.14
0.45	313.15	2.23	1059.34	0.14
0.45	313.15	2.61	1075.74	0.14
0.45	323.15	0	955.68	0.13
0.45	323.15	1	996.58	0.13
0.45	323.15	1.27	1008.89	0.13
0.45	323.15	1.61	1023.46	0.13
0.45	323.15	1.84	1033.86	0.14
0.45	323.15	2.23	1051.05	0.14
0.45	323.15	2.61	1068	0.14
0.45	333.15	0	947.12	0.13
0.45	333.15	1	987.74	0.13
0.45	333.15	1.27	1000.09	0.13
0.45	333.15	1.61	1014.75	0.13
0.45	333.15	1.84	1025.26	0.13
0.45	333.15	2.23	1042.75	0.14
0.45	343.15	0	938.27	0.14
0.45	343.15	1	978.76	0.13
0.45	343.15	1.27	991.17	0.13
0.45	343.15	1.61	1005.97	0.13
0.45	343.15	1.84	1016.59	0.13
0.45	353.15	0	929.11	0.14
0.45	353.15	1	969.6	0.13

System: (diethylamino)ethanol + carbon dioxide + water; phases: Liquid
Fixed: Pressure, kPa = 101
Property: Viscosity, Pa*s (Liquid); method: Capillary tube (Ostwald; Ubbelohde) method
Solvent: Mass fraction of (diethylamino)ethanol	Temperature, K	Molality, mol/kg of carbon dioxide	Viscosity, Pa*s	uncertainty
0.15	303.15	0	0.00153	3e-05
0.15	303.15	0.67	0.00158	3e-05
0.15	303.15	1.05	0.00161	3e-05
0.15	313.15	0	0.00118	3e-05
0.15	313.15	0.67	0.00123	3e-05
0.15	313.15	1.05	0.00126	3e-05
0.15	323.15	0	0.00093	2e-05
0.15	323.15	0.67	0.00099	2e-05
0.15	333.15	0	0.00076	2e-05
0.15	333.15	0.67	0.00081	2e-05
0.15	343.15	0	0.00063	1e-05
0.15	343.15	0.67	0.00068	2e-05
0.15	353.15	0	0.00054	1e-05
0.15	353.15	0.67	0.00058	1e-05
0.3	353.15	0	0.0008	2e-05
0.3	303.15	0	0.0029	6e-05
0.3	303.15	0.69	0.00341	7e-05
0.3	303.15	1.31	0.0037	8e-05
0.3	303.15	1.66	0.00378	8e-05
0.3	303.15	2.07	0.00383	8e-05
0.3	313.15	0	0.00207	4e-05
0.3	313.15	0.69	0.00242	5e-05
0.3	313.15	1.31	0.00266	6e-05
0.3	313.15	1.66	0.00276	6e-05
0.3	313.15	2.07	0.00281	6e-05
0.3	323.15	0	0.00155	3e-05
0.3	323.15	0.69	0.00181	4e-05
0.3	323.15	1.31	0.00199	4e-05
0.3	323.15	1.66	0.0021	4e-05
0.3	333.15	0	0.0012	3e-05
0.3	333.15	0.69	0.00141	3e-05
0.3	333.15	1.31	0.00155	3e-05
0.3	333.15	1.66	0.00165	3e-05
0.3	343.15	0	0.00096	2e-05
0.3	343.15	0.69	0.00113	2e-05
0.3	343.15	1.31	0.00124	3e-05
0.3	343.15	1.66	0.00133	3e-05
0.45	353.15	0	0.00114	2e-05
0.45	303.15	0	0.00523	0.00011
0.45	303.15	0.81	0.00711	0.00015
0.45	303.15	1.15	0.00784	0.00016
0.45	303.15	1.54	0.00879	0.00018
0.45	303.15	1.65	0.00914	0.00019
0.45	303.15	2.15	0.01032	0.00021
0.45	303.15	2.34	0.01091	0.00022
0.45	303.15	3.07	0.0118	0.00024
0.45	313.15	0	0.0035	7e-05
0.45	313.15	0.81	0.00473	0.0001
0.45	313.15	1.15	0.00522	0.00011
0.45	313.15	1.54	0.00578	0.00012
0.45	313.15	1.65	0.00601	0.00012
0.45	313.15	2.15	0.00679	0.00014
0.45	313.15	2.34	0.00718	0.00015
0.45	323.15	0	0.00251	5e-05
0.45	323.15	0.81	0.00333	7e-05
0.45	323.15	1.15	0.00367	8e-05
0.45	323.15	1.54	0.00405	8e-05
0.45	323.15	1.65	0.00418	9e-05
0.45	323.15	2.15	0.00476	0.0001
0.45	323.15	2.34	0.005	0.0001
0.45	333.15	0	0.00185	4e-05
0.45	333.15	0.81	0.00248	5e-05
0.45	333.15	1.15	0.00272	6e-05
0.45	333.15	1.54	0.003	6e-05
0.45	333.15	1.65	0.00306	6e-05
0.45	333.15	2.15	0.0035	7e-05
0.45	343.15	0	0.00143	3e-05
0.45	343.15	0.81	0.00192	4e-05
0.45	343.15	1.15	0.00209	4e-05
0.45	343.15	1.54	0.00231	5e-05

System: 2-aminoethan-1-ol + water; phases: Liquid
Fixed: Pressure, kPa = 101
Fixed: Mass fraction of 2-aminoethan-1-ol = 0.3
Property: Mass density, kg/m3 (Liquid); method: Vibrating tube method
Temperature, K	Mass density, kg/m3	uncertainty
298.15	1010.44	4.54
299.15	1010.01	4.54
301.15	1009.11	4.54
303.15	1008.2	4.54
313.15	1003.32	4.58
323.15	997.9	4.6
333.15	992.21	4.63
343.15	985.83	4.67
353.15	979.22	4.67

System: 2-aminoethan-1-ol + water; phases: Liquid
Fixed: Pressure, kPa = 101
Fixed: Mass fraction of 2-aminoethan-1-ol = 0.3
Property: Viscosity, Pa*s (Liquid); method: Capillary tube (Ostwald; Ubbelohde) method
Temperature, K	Viscosity, Pa*s	uncertainty
298.15	0.00254	6e-05
303.15	0.00219	5e-05
313.15	0.00168	4e-05
323.15	0.00133	3e-05
333.15	0.00107	3e-05
343.15	0.00089	2e-05
353.15	0.00076	2e-05

System: 2-(N,N-dimethylamino)ethanol + water; phases: Liquid
Fixed: Pressure, kPa = 101
Property: Mass density, kg/m3 (Liquid); method: Vibrating tube method
Mass fraction of 2-(N,N-dimethylamino)ethanol	Temperature, K	Mass density, kg/m3	uncertainty
0.15	298.15	992.33	0.12
0.15	303.15	990.35	0.13
0.15	313.15	985.86	0.13
0.15	323.15	980.82	0.13
0.15	333.15	975.14	0.13
0.15	343.15	968.93	0.13
0.15	353.15	962.24	0.13
0.3	298.15	988	0.13
0.3	299.15	987.42	0.13
0.3	301.15	986.26	0.13
0.3	303.15	985.08	0.13
0.3	313.15	978.92	0.13
0.3	323.15	972.34	0.13
0.3	333.15	965.36	0.13
0.3	343.15	957.98	0.13
0.3	353.15	950.22	0.13
0.45	298.15	980.4	0.13
0.45	303.15	976.75	0.13
0.45	313.15	969.32	0.13
0.45	323.15	961.69	0.13
0.45	333.15	953.66	0.13
0.45	343.15	945.33	0.13
0.45	353.15	936.72	0.13

System: 2-(N,N-dimethylamino)ethanol + water; phases: Liquid
Fixed: Pressure, kPa = 101
Property: Viscosity, Pa*s (Liquid); method: Capillary tube (Ostwald; Ubbelohde) method
Mass fraction of 2-(N,N-dimethylamino)ethanol	Temperature, K	Viscosity, Pa*s	uncertainty
0.15	303.15	0.00145	6e-05
0.15	313.15	0.00114	5e-05
0.15	323.15	0.00091	4e-05
0.15	333.15	0.00074	3e-05
0.15	343.15	0.00062	3e-05
0.15	353.15	0.00053	2e-05
0.3	303.15	0.00295	0.00012
0.3	313.15	0.00208	8e-05
0.3	323.15	0.00156	6e-05
0.3	333.15	0.00122	5e-05
0.3	343.15	0.00098	4e-05
0.3	353.15	0.00084	3e-05
0.45	303.15	0.00519	0.00021
0.45	313.15	0.00352	0.00014
0.45	323.15	0.00251	0.0001
0.45	333.15	0.00186	8e-05
0.45	343.15	0.00143	6e-05
0.45	353.15	0.00116	5e-05

System: (diethylamino)ethanol + water; phases: Liquid
Fixed: Pressure, kPa = 101
Property: Mass density, kg/m3 (Liquid); method: Vibrating tube method
Mass fraction of (diethylamino)ethanol	Temperature, K	Mass density, kg/m3	uncertainty
0.15	298.15	993.03	0.13
0.15	303.15	990.95	0.13
0.15	313.15	986.24	0.13
0.15	323.15	980.89	0.13
0.15	333.15	974.93	0.13
0.15	343.15	968.49	0.13
0.15	353.15	961.55	0.13
0.3	298.15	986.96	0.13
0.3	303.15	983.79	0.13
0.3	313.15	977.15	0.13
0.3	323.15	970.11	0.13
0.3	333.15	962.69	0.13
0.3	343.15	954.88	0.13
0.3	353.15	946.71	0.13
0.45	298.15	975.72	0.13
0.45	303.15	971.87	0.13
0.45	313.15	963.92	0.13
0.45	323.15	955.68	0.13
0.45	333.15	947.12	0.13
0.45	343.15	938.27	0.14
0.45	353.15	929.11	0.14

System: (diethylamino)ethanol + water; phases: Liquid
Fixed: Pressure, kPa = 101
Property: Viscosity, Pa*s (Liquid); method: Capillary tube (Ostwald; Ubbelohde) method
Mass fraction of (diethylamino)ethanol	Temperature, K	Viscosity, Pa*s	uncertainty
0.15	303.15	0.00153	3e-05
0.15	313.15	0.00118	3e-05
0.15	323.15	0.00093	2e-05
0.15	333.15	0.00076	2e-05
0.15	343.15	0.00063	1e-05
0.15	353.15	0.00054	1e-05
0.3	353.15	0.0008	2e-05
0.3	303.15	0.0029	6e-05
0.3	313.15	0.00207	4e-05
0.3	323.15	0.00155	3e-05
0.3	333.15	0.0012	3e-05
0.3	343.15	0.00096	2e-05
0.45	353.15	0.00114	2e-05
0.45	303.15	0.00523	0.00011
0.45	313.15	0.0035	7e-05
0.45	323.15	0.00251	5e-05
0.45	333.15	0.00185	4e-05
0.45	343.15	0.00143	3e-05
