Measured thermophysical data. Thermophysical Properties of Dicationic Ionic Liquids under the Influence of Amino Acid
Source: J. Chem. Eng. Data, 2019, 10.1021/acs.jced.8b00349
Compound 1: 1,3-bis[3-methylimidazolium-1-yl]propane dibromide, C11H18Br2N4, InChI=1S/C11H18N4.2BrH/c1-12-6-8-14(10-12)4-3-5-15-9-7-13(2)11-15;;/h6-11H,3-5H2,1-2H3;2*1H/q+2;;/p-2
Compound 2: 1,1'-(butane-1,4-diyl)bis(3-methyl-1H-imidazol-3-ium) dibromide, C12H20Br2N4, InChI=1S/C12H20N4.2BrH/c1-13-7-9-15(11-13)5-3-4-6-16-10-8-14(2)12-16;;/h7-12H,3-6H2,1-2H3;2*1H/q+2;;/p-2
Compound 3: 1,1'-(pentane-1,5-diyl)bis(3-methyl-1H-imidazol-3-ium) dibromide, C13H22Br2N4, InChI=1S/C13H22N4.2BrH/c1-14-8-10-16(12-14)6-4-3-5-7-17-11-9-15(2)13-17;;/h8-13H,3-7H2,1-2H3;2*1H/q+2;;/p-2
Compound 4: 2-aminoacetic acid, C2H5NO2, InChI=1S/C2H5NO2/c3-1-2(4)5/h1,3H2,(H,4,5), purity 98%
Compound 5: water, H2O, InChI=1S/H2O/h1H2, purity 99.9%

System: water; phases: Liquid
Fixed: Pressure, kPa = 101
Property: Mass density, kg/m3 (Liquid); method: Vibrating tube method
Temperature, K	Mass density, kg/m3	uncertainty
293.15	998.203	0.106
298.15	997.043	0.106
303.15	995.645	0.106
308.15	994.029	0.107
313.15	992.212	0.107

System: water; phases: Liquid
Fixed: Pressure, kPa = 101
Fixed: Frequency, MHz = 3
Property: Speed of sound, m/s (Liquid); method: Single path-length method
Temperature, K	Speed of sound, m/s	uncertainty
293.15	1482.34	1.02
298.15	1496.69	1.02
303.15	1509.13	1.01
308.15	1519.81	1.01
313.15	1529.18	1.01

System: water; phases: Liquid
Fixed: Pressure, kPa = 101
Property: Viscosity, Pa*s (Liquid); method: Falling or rolling sphere viscometry
Temperature, K	Viscosity, Pa*s	uncertainty
293.15	0.001005	2.1e-05
298.15	0.000894	2.1e-05
303.15	0.000801	2.1e-05
308.15	0.000723	2.1e-05
313.15	0.000656	2.1e-05

System: 1,3-bis[3-methylimidazolium-1-yl]propane dibromide + water; phases: Liquid
Fixed: Pressure, kPa = 101
Property: Mass density, kg/m3 (Liquid); method: Vibrating tube method
Temperature, K	Molality, mol/kg of 1,3-bis[3-methylimidazolium-1-yl]propane dibromide	Mass density, kg/m3	uncertainty
293.15	0	998.203	0.109
293.15	0.034234	1002.806	0.109
293.15	0.049982	1004.855	0.109
293.15	0.061312	1006.298	0.11
293.15	0.071188	1007.555	0.11
293.15	0.080487	1008.716	0.11
293.15	0.088995	1009.757	0.11
293.15	0.094917	1010.484	0.11
298.15	0	997.043	0.109
298.15	0.034234	1001.614	0.109
298.15	0.049982	1003.649	0.109
298.15	0.061312	1005.097	0.11
298.15	0.071188	1006.338	0.11
298.15	0.080487	1007.487	0.11
298.15	0.088995	1008.532	0.11
298.15	0.094917	1009.244	0.11
303.15	0	995.645	0.11
303.15	0.034234	1000.193	0.11
303.15	0.049982	1002.217	0.11
303.15	0.061312	1003.658	0.11
303.15	0.071188	1004.895	0.11
303.15	0.080487	1006.037	0.11
303.15	0.088995	1007.063	0.11
303.15	0.094917	1007.781	0.11
308.15	0	994.029	0.11
308.15	0.034234	998.558	0.11
308.15	0.049982	1000.574	0.11
308.15	0.061312	1002.006	0.11
308.15	0.071188	1003.233	0.11
308.15	0.080487	1004.378	0.11
308.15	0.088995	1005.394	0.111
308.15	0.094917	1006.107	0.11
313.15	0	992.212	0.111
313.15	0.034234	996.725	0.111
313.15	0.049982	998.73	0.11
313.15	0.061312	1000.154	0.11
313.15	0.071188	1001.377	0.11
313.15	0.080487	1002.512	0.11
313.15	0.088995	1003.528	0.111
313.15	0.094917	1004.237	0.111

System: 1,3-bis[3-methylimidazolium-1-yl]propane dibromide + water; phases: Liquid
Fixed: Pressure, kPa = 101
Fixed: Frequency, MHz = 3
Property: Speed of sound, m/s (Liquid); method: Single path-length method
Temperature, K	Molality, mol/kg of 1,3-bis[3-methylimidazolium-1-yl]propane dibromide	Speed of sound, m/s	uncertainty
293.15	0	1482.34	1.02
293.15	0.034234	1486.29	1.02
293.15	0.049982	1488.13	1.02
293.15	0.061312	1489.29	1.02
293.15	0.071188	1490.28	1.02
293.15	0.080487	1491.35	1.02
293.15	0.088995	1492.21	1.03
293.15	0.094917	1492.76	1.03
298.15	0	1496.69	1.02
298.15	0.034234	1499.91	1.02
298.15	0.049982	1501.58	1.02
298.15	0.061312	1502.61	1.02
298.15	0.071188	1503.54	1.02
298.15	0.080487	1504.56	1.02
298.15	0.088995	1505.41	1.02
298.15	0.094917	1505.84	1.02
303.15	0	1509.13	1.01
303.15	0.034234	1512.35	1.02
303.15	0.049982	1513.89	1.02
303.15	0.061312	1514.88	1.02
303.15	0.071188	1515.79	1.02
303.15	0.080487	1516.57	1.02
303.15	0.088995	1517.47	1.02
303.15	0.094917	1517.96	1.02
308.15	0	1519.81	1.01
308.15	0.034234	1521.83	1.01
308.15	0.049982	1523.18	1.02
308.15	0.061312	1524.01	1.02
308.15	0.071188	1524.85	1.02
308.15	0.080487	1525.66	1.02
308.15	0.088995	1526.36	1.02
308.15	0.094917	1526.77	1.02
313.15	0	1529.18	1.01
313.15	0.034234	1531.56	1.01
313.15	0.049982	1532.74	1.02
313.15	0.061312	1533.47	1.02
313.15	0.071188	1534.11	1.02
313.15	0.080487	1534.76	1.02
313.15	0.088995	1535.53	1.02
313.15	0.094917	1535.81	1.02

System: 1,3-bis[3-methylimidazolium-1-yl]propane dibromide + water; phases: Liquid
Fixed: Pressure, kPa = 101
Property: Viscosity, Pa*s (Liquid); method: Falling or rolling sphere viscometry
Temperature, K	Molality, mol/kg of 1,3-bis[3-methylimidazolium-1-yl]propane dibromide	Viscosity, Pa*s	uncertainty
293.15	0	0.001005	2.1e-05
293.15	0.034234	0.001019	2.1e-05
293.15	0.049982	0.001025	2.1e-05
293.15	0.061312	0.001029	2.1e-05
293.15	0.071188	0.001033	2.1e-05
293.15	0.080487	0.001037	2.1e-05
293.15	0.088995	0.00104	2.1e-05
293.15	0.094917	0.001042	2.1e-05
298.15	0	0.000894	2.1e-05
298.15	0.034234	0.000906	2.1e-05
298.15	0.049982	0.000912	2.1e-05
298.15	0.061312	0.000917	2.1e-05
298.15	0.071188	0.000921	2.1e-05
298.15	0.080487	0.000924	2.1e-05
298.15	0.088995	0.000927	2.1e-05
298.15	0.094917	0.000929	2.1e-05
303.15	0	0.000801	2.1e-05
303.15	0.034234	0.000814	2.1e-05
303.15	0.049982	0.00082	2.1e-05
303.15	0.061312	0.000824	2.1e-05
303.15	0.071188	0.000828	2.1e-05
303.15	0.080487	0.000831	2.1e-05
303.15	0.088995	0.000835	2.1e-05
303.15	0.094917	0.000838	2.1e-05
308.15	0	0.000723	2.1e-05
308.15	0.034234	0.000737	2.1e-05
308.15	0.049982	0.000743	2.1e-05
308.15	0.061312	0.000747	2.1e-05
308.15	0.071188	0.000751	2.1e-05
308.15	0.080487	0.000755	2.1e-05
308.15	0.088995	0.000758	2.1e-05
308.15	0.094917	0.00076	2.1e-05
313.15	0	0.000656	2.1e-05
313.15	0.034234	0.000675	2.1e-05
313.15	0.049982	0.000679	2.1e-05
313.15	0.061312	0.000683	2.1e-05
313.15	0.071188	0.000689	2.1e-05
313.15	0.080487	0.000686	2.1e-05
313.15	0.088995	0.000689	2.1e-05
313.15	0.094917	0.000691	2.1e-05

System: 1,1'-(butane-1,4-diyl)bis(3-methyl-1H-imidazol-3-ium) dibromide + water; phases: Liquid
Fixed: Pressure, kPa = 101
Property: Mass density, kg/m3 (Liquid); method: Vibrating tube method
Temperature, K	Molality, mol/kg of 1,1'-(butane-1,4-diyl)bis(3-methyl-1H-imidazol-3-ium) dibromide	Mass density, kg/m3	uncertainty
293.15	0	998.203	0.109
293.15	0.04944	1004.657	0.109
293.15	0.067106	1006.895	0.11
293.15	0.079117	1008.403	0.11
293.15	0.092701	1010.062	0.11
293.15	0.102136	1011.22	0.111
298.15	0	997.043	0.109
298.15	0.04944	1003.451	0.109
298.15	0.067106	1005.676	0.11
298.15	0.079117	1007.176	0.11
298.15	0.092701	1008.823	0.11
298.15	0.102136	1009.971	0.11
303.15	0	995.645	0.11
303.15	0.04944	1002.008	0.11
303.15	0.067106	1004.216	0.11
303.15	0.079117	1005.705	0.11
303.15	0.092701	1007.35	0.111
303.15	0.102136	1008.49	0.111
308.15	0	994.029	0.11
308.15	0.04944	1000.353	0.11
308.15	0.067106	1002.541	0.11
308.15	0.079117	1004.031	0.111
308.15	0.092701	1005.667	0.111
308.15	0.102136	1006.798	0.111
313.15	0	992.212	0.11
313.15	0.04944	998.497	0.11
313.15	0.067106	1000.679	0.11
313.15	0.079117	1002.15	0.111
313.15	0.092701	1003.787	0.111
313.15	0.102136	1004.913	0.111

System: 1,1'-(butane-1,4-diyl)bis(3-methyl-1H-imidazol-3-ium) dibromide + water; phases: Liquid
Fixed: Pressure, kPa = 101
Fixed: Frequency, MHz = 3
Property: Speed of sound, m/s (Liquid); method: Single path-length method
Temperature, K	Molality, mol/kg of 1,1'-(butane-1,4-diyl)bis(3-methyl-1H-imidazol-3-ium) dibromide	Speed of sound, m/s	uncertainty
293.15	0	1482.34	1.02
293.15	0.04944	1489.79	1.02
293.15	0.067106	1492.04	1.02
293.15	0.079117	1493.51	1.02
293.15	0.092701	1495.09	1.03
293.15	0.102136	1496.15	1.03
298.15	0	1496.69	1.02
298.15	0.04944	1503.2	1.02
298.15	0.067106	1505.18	1.02
298.15	0.079117	1506.56	1.02
298.15	0.092701	1508.02	1.02
298.15	0.102136	1509.04	1.03
303.15	0	1509.13	1.01
303.15	0.04944	1515.43	1.02
303.15	0.067106	1517.11	1.02
303.15	0.079117	1518.48	1.02
303.15	0.092701	1519.82	1.02
303.15	0.102136	1520.74	1.02
308.15	0	1519.81	1.01
308.15	0.04944	1524.65	1.02
308.15	0.067106	1526.34	1.02
308.15	0.079117	1527.34	1.02
308.15	0.092701	1528.88	1.02
308.15	0.102136	1529.51	1.02
313.15	0	1529.18	1.01
313.15	0.04944	1534.14	1.02
313.15	0.067106	1535.46	1.02
313.15	0.079117	1536.52	1.02
313.15	0.092701	1537.79	1.02
313.15	0.102136	1538.53	1.02

System: 1,1'-(butane-1,4-diyl)bis(3-methyl-1H-imidazol-3-ium) dibromide + water; phases: Liquid
Fixed: Pressure, kPa = 101
Property: Viscosity, Pa*s (Liquid); method: Falling or rolling sphere viscometry
Temperature, K	Molality, mol/kg of 1,1'-(butane-1,4-diyl)bis(3-methyl-1H-imidazol-3-ium) dibromide	Viscosity, Pa*s	uncertainty
293.15	0	0.001005	2.1e-05
293.15	0.04944	0.001026	2.1e-05
293.15	0.067106	0.001034	2.1e-05
293.15	0.079117	0.001039	2.1e-05
293.15	0.092701	0.001044	2.1e-05
293.15	0.102136	0.001049	2.1e-05
298.15	0	0.000894	2.1e-05
298.15	0.04944	0.000914	2.1e-05
298.15	0.067106	0.000921	2.1e-05
298.15	0.079117	0.000926	2.1e-05
298.15	0.092701	0.000931	2.1e-05
298.15	0.102136	0.000935	2.1e-05
303.15	0	0.000801	2.1e-05
303.15	0.04944	0.000821	2.1e-05
303.15	0.067106	0.000828	2.1e-05
303.15	0.079117	0.000833	2.1e-05
303.15	0.092701	0.000839	2.1e-05
303.15	0.102136	0.000842	2.1e-05
308.15	0	0.000723	2.1e-05
308.15	0.04944	0.000744	2.1e-05
308.15	0.067106	0.000751	2.1e-05
308.15	0.079117	0.000756	2.1e-05
308.15	0.092701	0.000762	2.1e-05
308.15	0.102136	0.000765	2.1e-05
313.15	0	0.000656	2.1e-05
313.15	0.04944	0.000677	2.1e-05
313.15	0.067106	0.000683	2.1e-05
313.15	0.079117	0.000688	2.1e-05
313.15	0.092701	0.000692	2.1e-05
313.15	0.102136	0.000696	2.1e-05

System: 1,1'-(pentane-1,5-diyl)bis(3-methyl-1H-imidazol-3-ium) dibromide + water; phases: Liquid
Fixed: Pressure, kPa = 101
Property: Mass density, kg/m3 (Liquid); method: Vibrating tube method
Temperature, K	Molality, mol/kg of 1,1'-(pentane-1,5-diyl)bis(3-methyl-1H-imidazol-3-ium) dibromide	Mass density, kg/m3	uncertainty
293.15	0	998.203	0.108
293.15	0.033408	1002.346	0.109
293.15	0.046145	1003.887	0.109
293.15	0.056461	1005.111	0.109
293.15	0.067169	1006.381	0.109
293.15	0.0777	1007.584	0.11
293.15	0.088571	1008.848	0.11
293.15	0.09671	1009.748	0.11
298.15	0	997.043	0.109
298.15	0.033408	1001.165	0.109
298.15	0.046145	1002.702	0.109
298.15	0.056461	1003.913	0.109
298.15	0.067169	1005.173	0.109
298.15	0.0777	1006.381	0.11
298.15	0.088571	1007.621	0.11
298.15	0.09671	1008.512	0.11
303.15	0	995.645	0.109
303.15	0.033408	999.742	0.109
303.15	0.046145	1001.267	0.109
303.15	0.056461	1002.472	0.109
303.15	0.067169	1003.729	0.11
303.15	0.0777	1004.93	0.11
303.15	0.088571	1006.162	0.11
303.15	0.09671	1007.048	0.11
308.15	0	994.029	0.11
308.15	0.033408	998.108	0.11
308.15	0.046145	999.627	0.109
308.15	0.056461	1000.825	0.11
308.15	0.067169	1002.073	0.11
308.15	0.0777	1003.267	0.11
308.15	0.088571	1004.502	0.11
308.15	0.09671	1005.384	0.11
313.15	0	992.212	0.11
313.15	0.033408	996.275	0.11
313.15	0.046145	997.783	0.11
313.15	0.056461	998.981	0.11
313.15	0.067169	1000.221	0.11
313.15	0.0777	1001.41	0.11
313.15	0.088571	1002.642	0.11
313.15	0.09671	1003.533	0.11

System: 1,1'-(pentane-1,5-diyl)bis(3-methyl-1H-imidazol-3-ium) dibromide + water; phases: Liquid
Fixed: Pressure, kPa = 101
Fixed: Frequency, MHz = 3
Property: Speed of sound, m/s (Liquid); method: Single path-length method
Temperature, K	Molality, mol/kg of 1,1'-(pentane-1,5-diyl)bis(3-methyl-1H-imidazol-3-ium) dibromide	Speed of sound, m/s	uncertainty
293.15	0	1482.34	1.02
293.15	0.033408	1488.33	1.02
293.15	0.046145	1490.29	1.02
293.15	0.056461	1491.61	1.02
293.15	0.067169	1493.35	1.02
293.15	0.0777	1494.77	1.02
293.15	0.088571	1496.36	1.03
293.15	0.09671	1497.33	1.03
298.15	0	1496.69	1.02
298.15	0.033408	1501.92	1.02
298.15	0.046145	1503.69	1.02
298.15	0.056461	1505.02	1.02
298.15	0.067169	1506.46	1.02
298.15	0.0777	1507.8	1.02
298.15	0.088571	1509.22	1.02
298.15	0.09671	1510.21	1.03
303.15	0	1509.13	1.02
303.15	0.033408	1514.37	1.02
303.15	0.046145	1515.88	1.02
303.15	0.056461	1517.12	1.02
303.15	0.067169	1518.45	1.02
303.15	0.0777	1519.77	1.02
303.15	0.088571	1520.88	1.02
303.15	0.09671	1521.85	1.02
308.15	0	1519.81	1.01
308.15	0.033408	1523.67	1.01
308.15	0.046145	1525.12	1.02
308.15	0.056461	1526.36	1.02
308.15	0.067169	1527.42	1.02
308.15	0.0777	1528.66	1.02
308.15	0.088571	1529.86	1.02
308.15	0.09671	1530.71	1.02
313.15	0	1529.18	1.01
313.15	0.033408	1533.24	1.01
313.15	0.046145	1534.34	1.02
313.15	0.056461	1535.36	1.02
313.15	0.067169	1536.48	1.02
313.15	0.0777	1537.54	1.02
313.15	0.088571	1538.64	1.02
313.15	0.09671	1539.43	1.02

System: 1,1'-(pentane-1,5-diyl)bis(3-methyl-1H-imidazol-3-ium) dibromide + water; phases: Liquid
Fixed: Pressure, kPa = 101
Property: Viscosity, Pa*s (Liquid); method: Falling or rolling sphere viscometry
Temperature, K	Molality, mol/kg of 1,1'-(pentane-1,5-diyl)bis(3-methyl-1H-imidazol-3-ium) dibromide	Viscosity, Pa*s	uncertainty
293.15	0	0.001005	2.1e-05
293.15	0.033408	0.001021	2.1e-05
293.15	0.046145	0.001027	2.1e-05
293.15	0.056461	0.001032	2.1e-05
293.15	0.067169	0.001037	2.1e-05
293.15	0.0777	0.001042	2.1e-05
293.15	0.088571	0.001047	2.1e-05
293.15	0.09671	0.00105	2.1e-05
298.15	0	0.000894	2.1e-05
298.15	0.033408	0.000908	2.1e-05
298.15	0.046145	0.000914	2.1e-05
298.15	0.056461	0.000918	2.1e-05
298.15	0.067169	0.000924	2.1e-05
298.15	0.0777	0.000928	2.1e-05
298.15	0.088571	0.000933	2.1e-05
298.15	0.09671	0.000936	2.1e-05
303.15	0	0.000801	2.1e-05
303.15	0.033408	0.000815	2.1e-05
303.15	0.046145	0.000821	2.1e-05
303.15	0.056461	0.000825	2.1e-05
303.15	0.067169	0.00083	2.1e-05
303.15	0.0777	0.000835	2.1e-05
303.15	0.088571	0.000839	2.1e-05
303.15	0.09671	0.000843	2.1e-05
308.15	0	0.000723	2.1e-05
308.15	0.033408	0.000737	2.1e-05
308.15	0.046145	0.000741	2.1e-05
308.15	0.056461	0.000747	2.1e-05
308.15	0.067169	0.000752	2.1e-05
308.15	0.0777	0.000757	2.1e-05
308.15	0.088571	0.000762	2.1e-05
308.15	0.09671	0.000766	2.1e-05
313.15	0	0.000656	2.1e-05
313.15	0.033408	0.00067	2.1e-05
313.15	0.046145	0.000676	2.1e-05
313.15	0.056461	0.000681	2.1e-05
313.15	0.067169	0.000685	2.1e-05
313.15	0.0777	0.000689	2.1e-05
313.15	0.088571	0.000694	2.1e-05
313.15	0.09671	0.000697	2.1e-05

System: 1,3-bis[3-methylimidazolium-1-yl]propane dibromide + 2-aminoacetic acid + water; phases: Liquid
Fixed: Pressure, kPa = 101
Fixed: Solvent: Molality, mol/kg of 2-aminoacetic acid = 0.06
Property: Mass density, kg/m3 (Liquid); method: Vibrating tube method
Temperature, K	Molality, mol/kg of 1,3-bis[3-methylimidazolium-1-yl]propane dibromide	Mass density, kg/m3	uncertainty
293.15	0	1000.193	0.404
293.15	0.043505	1005.951	0.411
293.15	0.055227	1007.404	0.412
293.15	0.065452	1008.689	0.414
293.15	0.07502	1009.844	0.415
293.15	0.085732	1011.115	0.416
293.15	0.097399	1012.5	0.418
293.15	0.109221	1013.861	0.42
298.15	0	999.024	0.404
298.15	0.043505	1004.704	0.409
298.15	0.055227	1006.151	0.411
298.15	0.065452	1007.429	0.412
298.15	0.07502	1008.556	0.414
298.15	0.085732	1009.8	0.415
298.15	0.097399	1011.168	0.416
298.15	0.109221	1012.521	0.418
303.15	0	997.613	0.403
303.15	0.043505	1003.207	0.408
303.15	0.055227	1004.66	0.409
303.15	0.065452	1005.896	0.411
303.15	0.07502	1007.038	0.412
303.15	0.085732	1008.254	0.413
303.15	0.097399	1009.604	0.415
303.15	0.109221	1010.907	0.416
308.15	0	995.985	0.403
308.15	0.043505	1001.5	0.406
308.15	0.055227	1002.946	0.407
308.15	0.065452	1004.147	0.409
308.15	0.07502	1005.255	0.41
308.15	0.085732	1006.472	0.411
308.15	0.097399	1007.785	0.413
308.15	0.109221	1009.09	0.414
313.15	0	994.125	0.402
313.15	0.043505	999.566	0.404
313.15	0.055227	1000.973	0.405
313.15	0.065452	1002.181	0.407
313.15	0.07502	1003.26	0.408
313.15	0.085732	1004.514	0.409
313.15	0.097399	1005.783	0.411
313.15	0.109221	1007.09	0.412

System: 1,3-bis[3-methylimidazolium-1-yl]propane dibromide + 2-aminoacetic acid + water; phases: Liquid
Fixed: Pressure, kPa = 101
Fixed: Solvent: Molality, mol/kg of 2-aminoacetic acid = 0.06
Fixed: Frequency, MHz = 3
Property: Speed of sound, m/s (Liquid); method: Single path-length method
Temperature, K	Molality, mol/kg of 1,3-bis[3-methylimidazolium-1-yl]propane dibromide	Speed of sound, m/s	uncertainty
293.15	0	1485.8	1.7
293.15	0.043505	1490.87	1.7
293.15	0.055227	1492.24	1.7
293.15	0.065452	1493.31	1.7
293.15	0.07502	1494.19	1.7
293.15	0.085732	1495.38	1.7
293.15	0.097399	1496.51	1.7
293.15	0.109221	1497.85	1.7
298.15	0	1499.6	1.7
298.15	0.043505	1504.74	1.7
298.15	0.055227	1505.87	1.7
298.15	0.065452	1506.76	1.7
298.15	0.07502	1507.79	1.7
298.15	0.085732	1508.77	1.7
298.15	0.097399	1509.98	1.7
298.15	0.109221	1511.14	1.7
303.15	0	1511.82	1.7
303.15	0.043505	1515.66	1.7
303.15	0.055227	1516.68	1.7
303.15	0.065452	1517.73	1.7
303.15	0.07502	1518.53	1.7
303.15	0.085732	1519.53	1.7
303.15	0.097399	1520.56	1.7
303.15	0.109221	1521.76	1.7
308.15	0	1522.38	1.7
308.15	0.043505	1526.85	1.7
308.15	0.055227	1527.82	1.7
308.15	0.065452	1528.86	1.7
308.15	0.07502	1529.63	1.7
308.15	0.085732	1530.75	1.7
308.15	0.097399	1531.59	1.7
308.15	0.109221	1532.62	1.7
313.15	0	1531.37	1.7
313.15	0.043505	1534.85	1.7
313.15	0.055227	1535.83	1.7
313.15	0.065452	1536.73	1.7
313.15	0.07502	1537.43	1.7
313.15	0.085732	1538.26	1.7
313.15	0.097399	1539.13	1.7
313.15	0.109221	1539.99	1.7

System: 1,3-bis[3-methylimidazolium-1-yl]propane dibromide + 2-aminoacetic acid + water; phases: Liquid
Fixed: Pressure, kPa = 101
Fixed: Solvent: Molality, mol/kg of 2-aminoacetic acid = 0.06
Property: Viscosity, Pa*s (Liquid); method: Falling or rolling sphere viscometry
Temperature, K	Molality, mol/kg of 1,3-bis[3-methylimidazolium-1-yl]propane dibromide	Viscosity, Pa*s	uncertainty
293.15	0	0.001012	2.2e-05
293.15	0.043505	0.001032	2.2e-05
293.15	0.055227	0.001036	2.2e-05
293.15	0.065452	0.001041	2.3e-05
293.15	0.07502	0.001046	2.3e-05
293.15	0.085732	0.00105	2.3e-05
293.15	0.097399	0.001056	2.3e-05
293.15	0.109221	0.001061	2.3e-05
298.15	0	0.000908	2.2e-05
298.15	0.043505	0.000924	2.2e-05
298.15	0.055227	0.000929	2.2e-05
298.15	0.065452	0.000933	2.2e-05
298.15	0.07502	0.000937	2.2e-05
298.15	0.085732	0.000941	2.2e-05
298.15	0.097399	0.000945	2.2e-05
298.15	0.109221	0.000949	2.2e-05
303.15	0	0.000811	2.2e-05
303.15	0.043505	0.000827	2.2e-05
303.15	0.055227	0.000833	2.2e-05
303.15	0.065452	0.000836	2.2e-05
303.15	0.07502	0.00084	2.2e-05
303.15	0.085732	0.000844	2.2e-05
303.15	0.097399	0.000848	2.2e-05
303.15	0.109221	0.000852	2.2e-05
308.15	0	0.000733	2.1e-05
308.15	0.043505	0.00075	2.1e-05
308.15	0.055227	0.000755	2.1e-05
308.15	0.065452	0.000759	2.1e-05
308.15	0.07502	0.000762	2.1e-05
308.15	0.085732	0.000766	2.1e-05
308.15	0.097399	0.00077	2.1e-05
308.15	0.109221	0.000774	2.1e-05
313.15	0	0.000666	2.1e-05
313.15	0.043505	0.000681	2.1e-05
313.15	0.055227	0.000686	2.1e-05
313.15	0.065452	0.00069	2.1e-05
313.15	0.07502	0.000694	2.1e-05
313.15	0.085732	0.000698	2.1e-05
313.15	0.097399	0.000703	2.1e-05
313.15	0.109221	0.000707	2.1e-05

System: 1,1'-(butane-1,4-diyl)bis(3-methyl-1H-imidazol-3-ium) dibromide + 2-aminoacetic acid + water; phases: Liquid
Fixed: Pressure, kPa = 101
Fixed: Solvent: Molality, mol/kg of 2-aminoacetic acid = 0.06
Property: Mass density, kg/m3 (Liquid); method: Vibrating tube method
Temperature, K	Molality, mol/kg of 1,1'-(butane-1,4-diyl)bis(3-methyl-1H-imidazol-3-ium) dibromide	Mass density, kg/m3	uncertainty
293.15	0	1000.193	0.404
293.15	0.019697	1002.737	0.407
293.15	0.031683	1004.261	0.409
293.15	0.042218	1005.585	0.41
293.15	0.053029	1006.931	0.412
293.15	0.063585	1008.228	0.413
293.15	0.07377	1009.47	0.415
293.15	0.085802	1010.917	0.416
293.15	0.095933	1012.123	0.418
298.15	0	999.024	0.404
298.15	0.019697	1001.559	0.406
298.15	0.031683	1003.078	0.407
298.15	0.042218	1004.396	0.409
298.15	0.053029	1005.736	0.41
298.15	0.063585	1007.028	0.412
298.15	0.07377	1008.264	0.413
298.15	0.085802	1009.712	0.415
298.15	0.095933	1010.915	0.416
303.15	0	997.613	0.403
303.15	0.019697	1000.141	0.404
303.15	0.031683	1001.657	0.406
303.15	0.042218	1002.969	0.407
303.15	0.053029	1004.311	0.409
303.15	0.063585	1005.598	0.41
303.15	0.07377	1006.83	0.412
303.15	0.085802	1008.268	0.413
303.15	0.095933	1009.46	0.415
308.15	0	995.985	0.403
308.15	0.019697	998.508	0.404
308.15	0.031683	1000.016	0.404
308.15	0.042218	1001.332	0.406
308.15	0.053029	1002.667	0.407
308.15	0.063585	1003.946	0.409
308.15	0.07377	1005.185	0.41
308.15	0.085802	1006.621	0.412
308.15	0.095933	1007.807	0.413
313.15	0	994.125	0.402
313.15	0.019697	996.641	0.403
313.15	0.031683	998.144	0.404
313.15	0.042218	999.456	0.404
313.15	0.053029	1000.785	0.405
313.15	0.063585	1002.066	0.406
313.15	0.07377	1003.305	0.408
313.15	0.085802	1004.735	0.409
313.15	0.095933	1005.925	0.411

System: 1,1'-(butane-1,4-diyl)bis(3-methyl-1H-imidazol-3-ium) dibromide + 2-aminoacetic acid + water; phases: Liquid
Fixed: Pressure, kPa = 101
Fixed: Solvent: Molality, mol/kg of 2-aminoacetic acid = 0.06
Fixed: Frequency, MHz = 3
Property: Speed of sound, m/s (Liquid); method: Single path-length method
Temperature, K	Molality, mol/kg of 1,1'-(butane-1,4-diyl)bis(3-methyl-1H-imidazol-3-ium) dibromide	Speed of sound, m/s	uncertainty
293.15	0	1485.8	1.7
293.15	0.019697	1489.55	1.7
293.15	0.031683	1491.67	1.7
293.15	0.042218	1492.24	1.7
293.15	0.053029	1494.78	1.7
293.15	0.063585	1495.32	1.7
293.15	0.07377	1496.81	1.7
293.15	0.085802	1497.09	1.7
293.15	0.095933	1498.26	1.7
298.15	0	1499.6	1.7
298.15	0.019697	1503.1	1.7
298.15	0.031683	1504.85	1.7
298.15	0.042218	1505.21	1.7
298.15	0.053029	1507.63	1.7
298.15	0.063585	1508.88	1.7
298.15	0.07377	1509.05	1.7
298.15	0.085802	1510.36	1.7
298.15	0.095933	1510.31	1.7
303.15	0	1511.82	1.7
303.15	0.019697	1513.84	1.7
303.15	0.031683	1515.38	1.7
303.15	0.042218	1516.67	1.7
303.15	0.053029	1517.79	1.7
303.15	0.063585	1518.86	1.7
303.15	0.07377	1519.92	1.7
303.15	0.085802	1520.99	1.7
303.15	0.095933	1521.89	1.7
308.15	0	1522.38	1.7
308.15	0.019697	1525.21	1.7
308.15	0.031683	1526.38	1.7
308.15	0.042218	1527.37	1.7
308.15	0.053029	1528.32	1.7
308.15	0.063585	1529.32	1.7
308.15	0.07377	1530.15	1.7
308.15	0.085802	1531.26	1.7
308.15	0.095933	1532.22	1.7
313.15	0	1531.37	1.7
313.15	0.019697	1533.22	1.7
313.15	0.031683	1534.32	1.7
313.15	0.042218	1534.01	1.7
313.15	0.053029	1535.75	1.7
313.15	0.063585	1536.45	1.7
313.15	0.07377	1537.05	1.7
313.15	0.085802	1538.01	1.7
313.15	0.095933	1538.43	1.7

System: 1,1'-(butane-1,4-diyl)bis(3-methyl-1H-imidazol-3-ium) dibromide + 2-aminoacetic acid + water; phases: Liquid
Fixed: Pressure, kPa = 101
Fixed: Solvent: Molality, mol/kg of 2-aminoacetic acid = 0.06
Property: Viscosity, Pa*s (Liquid); method: Falling or rolling sphere viscometry
Temperature, K	Molality, mol/kg of 1,1'-(butane-1,4-diyl)bis(3-methyl-1H-imidazol-3-ium) dibromide	Viscosity, Pa*s	uncertainty
293.15	0	0.001012	2.2e-05
293.15	0.019697	0.001021	2.2e-05
293.15	0.031683	0.001026	2.2e-05
293.15	0.042218	0.001032	2.2e-05
293.15	0.053029	0.001037	2.2e-05
293.15	0.063585	0.001042	2.3e-05
293.15	0.07377	0.001047	2.3e-05
293.15	0.085802	0.001053	2.3e-05
293.15	0.095933	0.001058	2.3e-05
298.15	0	0.000908	2.2e-05
298.15	0.019697	0.000916	2.2e-05
298.15	0.031683	0.000921	2.2e-05
298.15	0.042218	0.000925	2.2e-05
298.15	0.053029	0.000929	2.2e-05
298.15	0.063585	0.000934	2.2e-05
298.15	0.07377	0.000938	2.2e-05
298.15	0.085802	0.000943	2.2e-05
298.15	0.095933	0.000947	2.2e-05
303.15	0	0.000811	2.2e-05
303.15	0.019697	0.000819	2.2e-05
303.15	0.031683	0.000824	2.2e-05
303.15	0.042218	0.000827	2.2e-05
303.15	0.053029	0.000832	2.2e-05
303.15	0.063585	0.000836	2.2e-05
303.15	0.07377	0.00084	2.2e-05
303.15	0.085802	0.000845	2.2e-05
303.15	0.095933	0.000849	2.2e-05
308.15	0	0.000733	2.1e-05
308.15	0.019697	0.000741	2.1e-05
308.15	0.031683	0.000746	2.1e-05
308.15	0.042218	0.00075	2.1e-05
308.15	0.053029	0.000754	2.1e-05
308.15	0.063585	0.000758	2.1e-05
308.15	0.07377	0.000762	2.1e-05
308.15	0.085802	0.000767	2.1e-05
308.15	0.095933	0.000771	2.1e-05
313.15	0	0.000666	2.1e-05
313.15	0.019697	0.000673	2.1e-05
313.15	0.031683	0.000678	2.1e-05
313.15	0.042218	0.000682	2.1e-05
313.15	0.053029	0.000687	2.1e-05
313.15	0.063585	0.000691	2.1e-05
313.15	0.07377	0.000695	2.1e-05
313.15	0.085802	0.0007	2.1e-05
313.15	0.095933	0.000704	2.1e-05

System: 1,1'-(pentane-1,5-diyl)bis(3-methyl-1H-imidazol-3-ium) dibromide + 2-aminoacetic acid + water; phases: Liquid
Fixed: Pressure, kPa = 101
Fixed: Solvent: Molality, mol/kg of 2-aminoacetic acid = 0.06
Property: Mass density, kg/m3 (Liquid); method: Vibrating tube method
Temperature, K	Molality, mol/kg of 1,1'-(pentane-1,5-diyl)bis(3-methyl-1H-imidazol-3-ium) dibromide	Mass density, kg/m3	uncertainty
293.15	0	1000.193	0.404
293.15	0.027913	1003.646	0.408
293.15	0.04	1005.092	0.409
293.15	0.05269	1006.584	0.411
293.15	0.06506	1008.018	0.413
293.15	0.075	1009.15	0.414
293.15	0.089265	1010.762	0.416
293.15	0.10174	1012.106	0.417
298.15	0	999.024	0.404
298.15	0.027913	1002.449	0.407
298.15	0.04	1003.89	0.408
298.15	0.05269	1005.372	0.41
298.15	0.06506	1006.804	0.411
298.15	0.075	1007.923	0.413
298.15	0.089265	1009.511	0.414
298.15	0.10174	1010.835	0.416
303.15	0	997.613	0.403
303.15	0.027913	1001.022	0.405
303.15	0.04	1002.452	0.407
303.15	0.05269	1003.925	0.408
303.15	0.06506	1005.339	0.41
303.15	0.075	1006.443	0.411
303.15	0.089265	1008.019	0.413
303.15	0.10174	1009.337	0.414
308.15	0	995.985	0.403
308.15	0.027913	999.378	0.404
308.15	0.04	1000.806	0.405
308.15	0.05269	1002.266	0.407
308.15	0.06506	1003.683	0.408
308.15	0.075	1004.771	0.409
308.15	0.089265	1006.339	0.411
308.15	0.10174	1007.656	0.413
313.15	0	994.125	0.402
313.15	0.027913	997.496	0.403
313.15	0.04	998.911	0.404
313.15	0.05269	1000.371	0.404
313.15	0.06506	1001.768	0.406
313.15	0.075	1002.856	0.407
313.15	0.089265	1004.411	0.409
313.15	0.10174	1005.722	0.41

System: 1,1'-(pentane-1,5-diyl)bis(3-methyl-1H-imidazol-3-ium) dibromide + 2-aminoacetic acid + water; phases: Liquid
Fixed: Pressure, kPa = 101
Fixed: Solvent: Molality, mol/kg of 2-aminoacetic acid = 0.06
Fixed: Frequency, MHz = 3
Property: Speed of sound, m/s (Liquid); method: Single path-length method
Temperature, K	Molality, mol/kg of 1,1'-(pentane-1,5-diyl)bis(3-methyl-1H-imidazol-3-ium) dibromide	Speed of sound, m/s	uncertainty
293.15	0	1485.8	1.7
293.15	0.027913	1491.44	1.7
293.15	0.04	1493.24	1.7
293.15	0.05269	1494.89	1.7
293.15	0.06506	1496.64	1.7
293.15	0.075	1498.04	1.7
293.15	0.089265	1499.58	1.7
293.15	0.10174	1501.18	1.7
298.15	0	1499.6	1.7
298.15	0.027913	1505.22	1.7
298.15	0.04	1506.83	1.7
298.15	0.05269	1508.29	1.7
298.15	0.06506	1509.98	1.7
298.15	0.075	1511.05	1.7
298.15	0.089265	1512.52	1.7
298.15	0.10174	1513.83	1.7
303.15	0	1511.82	1.7
303.15	0.027913	1515.06	1.7
303.15	0.04	1517.46	1.7
303.15	0.05269	1519	1.7
303.15	0.06506	1520.29	1.7
303.15	0.075	1521.39	1.7
303.15	0.089265	1522.71	1.7
303.15	0.10174	1524	1.7
308.15	0	1522.38	1.7
308.15	0.027913	1527.26	1.7
308.15	0.04	1528.61	1.7
308.15	0.05269	1529.86	1.7
308.15	0.06506	1531.27	1.7
308.15	0.075	1532.11	1.7
308.15	0.089265	1533.32	1.7
308.15	0.10174	1534.6	1.7
313.15	0	1531.37	1.7
313.15	0.027913	1535.22	1.7
313.15	0.04	1536.34	1.7
313.15	0.05269	1537.63	1.7
313.15	0.06506	1538.68	1.7
313.15	0.075	1539.72	1.7
313.15	0.089265	1541.04	1.7
313.15	0.10174	1542.23	1.7

System: 1,1'-(pentane-1,5-diyl)bis(3-methyl-1H-imidazol-3-ium) dibromide + 2-aminoacetic acid + water; phases: Liquid
Fixed: Pressure, kPa = 101
Fixed: Solvent: Molality, mol/kg of 2-aminoacetic acid = 0.06
Property: Viscosity, Pa*s (Liquid); method: Falling or rolling sphere viscometry
Temperature, K	Molality, mol/kg of 1,1'-(pentane-1,5-diyl)bis(3-methyl-1H-imidazol-3-ium) dibromide	Viscosity, Pa*s	uncertainty
293.15	0	0.001012	2.2e-05
293.15	0.027913	0.001026	2.2e-05
293.15	0.04	0.001033	2.2e-05
293.15	0.05269	0.001039	2.2e-05
293.15	0.06506	0.001045	2.3e-05
293.15	0.075	0.001051	2.3e-05
293.15	0.089265	0.001058	2.3e-05
293.15	0.10174	0.001064	2.3e-05
298.15	0	0.000908	2.2e-05
298.15	0.027913	0.00092	2.2e-05
298.15	0.04	0.000925	2.2e-05
298.15	0.05269	0.000931	2.2e-05
298.15	0.06506	0.000935	2.2e-05
298.15	0.075	0.000939	2.2e-05
298.15	0.089265	0.000946	2.2e-05
298.15	0.10174	0.000951	2.2e-05
303.15	0	0.000811	2.2e-05
303.15	0.027913	0.000822	2.2e-05
303.15	0.04	0.000828	2.2e-05
303.15	0.05269	0.000833	2.2e-05
303.15	0.06506	0.000838	2.2e-05
303.15	0.075	0.000842	2.2e-05
303.15	0.089265	0.000848	2.2e-05
303.15	0.10174	0.000853	2.2e-05
308.15	0	0.000733	2.1e-05
308.15	0.027913	0.000745	2.1e-05
308.15	0.04	0.000749	2.1e-05
308.15	0.05269	0.000755	2.1e-05
308.15	0.06506	0.00076	2.1e-05
308.15	0.075	0.000764	2.1e-05
308.15	0.089265	0.00077	2.1e-05
308.15	0.10174	0.000776	2.1e-05
313.15	0	0.000666	2.1e-05
313.15	0.027913	0.000677	2.1e-05
313.15	0.04	0.000684	2.1e-05
313.15	0.05269	0.000689	2.1e-05
313.15	0.06506	0.000694	2.1e-05
313.15	0.075	0.000698	2.1e-05
313.15	0.089265	0.000704	2.1e-05
313.15	0.10174	0.000709	2.1e-05

System: 2-aminoacetic acid + water; phases: Liquid
Fixed: Pressure, kPa = 101
Fixed: Molality, mol/kg of 2-aminoacetic acid = 0.06
Property: Mass density, kg/m3 (Liquid); method: Vibrating tube method
Temperature, K	Mass density, kg/m3	uncertainty
293.15	1000.193	0.127
298.15	999.024	0.106
303.15	997.613	0.106
308.15	995.985	0.107
313.15	994.125	0.127

System: 2-aminoacetic acid + water; phases: Liquid
Fixed: Pressure, kPa = 101
Fixed: Molality, mol/kg of 2-aminoacetic acid = 0.06
Fixed: Frequency, MHz = 3
Property: Speed of sound, m/s (Liquid); method: Single path-length method
Temperature, K	Speed of sound, m/s	uncertainty
293.15	1485.8	1.05
298.15	1499.6	1.02
303.15	1511.82	1.02
308.15	1522.38	1.01
313.15	1531.37	1.05

System: 2-aminoacetic acid + water; phases: Liquid
Fixed: Pressure, kPa = 101
Fixed: Molality, mol/kg of 2-aminoacetic acid = 0.06
Property: Viscosity, Pa*s (Liquid); method: Falling or rolling sphere viscometry
Temperature, K	Viscosity, Pa*s	uncertainty
293.15	0.001012	2.1e-05
298.15	0.000908	2.1e-05
303.15	0.000811	2.1e-05
308.15	0.000733	2.1e-05
313.15	0.000666	2.1e-05
