Measured thermophysical data. Guanidinium Cation Effect on the Water Activity of Ternary (S)Aminopentanedioic Acid Sodium Salt Solutions at 298.15 and 310.15 K
Source: J. Chem. Eng. Data, 2019, 10.1021/acs.jced.8b01142
Compound 1: sodium (S)-2-amino-4-carboxybutanoate, C5H8NNaO4, InChI=1S/C5H9NO4.Na/c6-3(5(9)10)1-2-4(7)8;/h3H,1-2,6H2,(H,7,8)(H,9,10);/q;+1/p-1/t3-;/m0./s1, purity 99.2%
Compound 2: guanidine hydrochloride, CH6ClN3, InChI=1S/CH5N3.ClH/c2-1(3)4;/h(H5,2,3,4);1H
Compound 3: water, H2O, InChI=1S/H2O/h1H2, purity 99.9%

System: guanidine hydrochloride + sodium (S)-2-amino-4-carboxybutanoate + water; phases: Liquid, Gas
Property: (Relative) activity of water (Liquid); method: vapor pressure osmometry
Temperature, K	Molality, mol/kg of guanidine hydrochloride	Molality, mol/kg of sodium (S)-2-amino-4-carboxybutanoate	(Relative) activity of water	uncertainty
298.15	0.1049	0.0921	0.99364	0.002
298.15	0.1045	0.2664	0.98769	0.002
298.15	0.1041	0.4711	0.98286	0.002
298.15	0.1037	0.7002	0.97479	0.002
298.15	0.1032	0.9257	0.96553	0.002
298.15	0.1029	1.0838	0.96228	0.002
298.15	0.1033	1.4393	0.9562	0.002
310.15	0.105	0	0.99656	0.002
310.15	0.1049	0.0921	0.99404	0.002
310.15	0.1047	0.1583	0.99139	0.002
310.15	0.1045	0.2664	0.98872	0.002
310.15	0.1041	0.4711	0.98237	0.002
310.15	0.1037	0.7002	0.9762	0.002
310.15	0.1032	0.9257	0.96836	0.002
310.15	0.1029	1.0838	0.96308	0.002
310.15	0.1033	1.4393	0.95424	0.002
298.15	0.3049	0	0.99037	0.002
298.15	0.3044	0.0909	0.98882	0.002
298.15	0.3038	0.1866	0.98615	0.002
298.15	0.3031	0.3172	0.98192	0.002
298.15	0.3023	0.4646	0.97573	0.002
298.15	0.3009	0.7132	0.96794	0.002
298.15	0.2984	0.8963	0.96313	0.002
298.15	0.2977	1.2771	0.95059	0.002
298.15	0.2958	1.6273	0.94053	0.002
310.15	0.3049	0	0.99033	0.002
310.15	0.3044	0.0909	0.98738	0.002
310.15	0.3038	0.1866	0.98517	0.002
310.15	0.3031	0.3172	0.98251	0.002
310.15	0.3023	0.4646	0.97934	0.002
310.15	0.3009	0.7132	0.97178	0.002
310.15	0.2984	0.8963	0.96762	0.002
310.15	0.2977	1.2771	0.95381	0.002
310.15	0.2958	1.6273	0.94339	0.002
298.15	0.6918	0	0.97872	0.002
298.15	0.6908	0.0808	0.97712	0.002
298.15	0.6894	0.1865	0.97457	0.002
298.15	0.6877	0.3201	0.97199	0.002
298.15	0.6849	0.5385	0.96444	0.002
298.15	0.6832	0.672	0.96014	0.002
298.15	0.6809	0.8592	0.9536	0.002
298.15	0.6787	1.0246	0.94785	0.002
298.15	0.6715	1.5915	0.92909	0.002
310.15	0.6918	0	0.97798	0.002
310.15	0.6908	0.0808	0.97828	0.002
310.15	0.6894	0.1865	0.97619	0.002
310.15	0.6877	0.3201	0.96983	0.002
310.15	0.6849	0.5385	0.96289	0.002
310.15	0.6832	0.672	0.95866	0.002
310.15	0.6809	0.8592	0.95204	0.002
310.15	0.6787	1.0246	0.94749	0.002
310.15	0.6715	1.5915	0.92446	0.002

System: guanidine hydrochloride + water; phases: Liquid, Gas
Property: (Relative) activity of water (Liquid); method: vapor pressure osmometry
Temperature, K	Molality, mol/kg of guanidine hydrochloride	(Relative) activity of water	uncertainty
310.15	0.105	0.99656	0.002
298.15	0.3049	0.99037	0.002
310.15	0.3049	0.99033	0.002
298.15	0.6918	0.97872	0.002
310.15	0.6918	0.97798	0.002
