Measured thermophysical data. Excess Properties and Spectroscopic Studies for Binary System of Polyethylene Glycol 200 (1) + Dimethyl Sulfoxide (2) at T = (298.15 to 318.15) K
Source: J. Chem. Eng. Data, 2015, 10.1021/acs.jced.5b00209
Compound 1: dimethyl sulfoxide, C2H6OS, InChI=1S/C2H6OS/c1-4(2)3/h1-2H3, purity 99%

System: dimethyl sulfoxide; phases: Liquid
Fixed: Pressure, kPa = 101.325
Property: Mass density, kg/m3 (Liquid); method: Pycnometric method
Temperature, K	Mass density, kg/m3	uncertainty
298.15	1096.8	0.5
303.15	1091.4	0.5
308.15	1086.1	0.5
313.15	1081.2	0.5
318.15	1075.3	0.6

System: dimethyl sulfoxide; phases: Liquid
Fixed: Pressure, kPa = 101.325
Property: Viscosity, Pa*s (Liquid); method: Capillary tube (Ostwald; Ubbelohde) method
Temperature, K	Viscosity, Pa*s	uncertainty
298.15	0.00201	8e-05
303.15	0.00182	7e-05
308.15	0.00165	7e-05
313.15	0.00154	6e-05
318.15	0.00137	6e-05
