Measured thermophysical data. Solubilities, Densities, Refractive Indices, and pH Values of the Aqueous Ternary Systems (LiCl + LiB5O8 + H2O) and (Li2SO4 + LiB5O8 + H2O) at 288.15 K and 101 kPa
Source: J. Chem. Eng. Data, 2019, 10.1021/acs.jced.9b00118
Compound 1: lithium chloride, ClLi, InChI=1S/ClH.Li/h1H;/q;+1/p-1, purity 98%
Compound 2: lithium sulfate, Li2O4S, InChI=1S/2Li.H2O4S/c;;1-5(2,3)4/h;;(H2,1,2,3,4)/q2*+1;/p-2, purity 99%
Compound 3: lithium pentaborate, B5LiO8, InChI=1S/B5O8.Li/c6-1-8-3-11-4-9-2(7)10-5(12-3)13-4;/q-1;+1, purity 98%
Compound 4: water, H2O, InChI=1S/H2O/h1H2, purity 99.9%

System: lithium chloride + lithium pentaborate + water; phases: Liquid, Crystal of intercomponent compound 1
Fixed: Temperature, K = 288.15
Fixed: Pressure, kPa = 101
Property: Mass fraction of lithium pentaborate (Liquid); method: Titration method
Mass fraction of lithium chloride	Mass fraction of lithium pentaborate	uncertainty
0.4395	0	
0.4383	0.0051	0.0012
0.4364	0.0088	0.0012
0.433	0.0227	0.0012

System: lithium chloride + lithium pentaborate + water; phases: Liquid, Crystal of intercomponent compound 2
Fixed: Temperature, K = 288.15
Fixed: Pressure, kPa = 101
Property: Mass fraction of lithium pentaborate (Liquid); method: Titration method
Mass fraction of lithium chloride	Mass fraction of lithium pentaborate	uncertainty
0.433	0.0227	0.0024
0.3935	0.0126	0.0017
0.3334	0.0071	0.0013
0.2721	0.0072	0.0012
0.2321	0.008	0.0015
0.1144	0.0235	0.0018
0.0818	0.0344	0.007
0	0.1184	0.0012

System: lithium chloride + lithium pentaborate + water; phases: Liquid
Fixed: Temperature, K = 288.15
Fixed: Pressure, kPa = 101
Property: Mass density, kg/m3 (Liquid); method: Vibrating tube method
Mass fraction of lithium chloride	Mass fraction of lithium pentaborate	Mass density, kg/m3	uncertainty
0.4395	0	1283.2	6
0.4383	0.0051	1287.7	6.3
0.4364	0.0088	1292.2	4.8
0.433	0.0227	1301.1	6.1
0.3935	0.0126	1269.8	6.2
0.3334	0.0071	1212.1	5.9
0.2721	0.0072	1168.4	5.6
0.2321	0.008	1143.4	5.7
0.1144	0.0235	1084.2	5.1
0.0818	0.0344	1073.2	5.7
0	0.1184	1091.4	1.4

System: lithium chloride + lithium pentaborate + water; phases: Liquid
Fixed: Temperature, K = 288.15
Fixed: Pressure, kPa = 101
Property: Refractive index (Na D-line) (Liquid); method: Standard Abbe refractometry
Mass fraction of lithium chloride	Mass fraction of lithium pentaborate	Refractive index (Na D-line)	uncertainty
0.4395	0	1.432	0.002
0.4383	0.0051	1.4327	0.0021
0.4364	0.0088	1.4339	0.0015
0.433	0.0227	1.4351	0.0021
0.3935	0.0126	1.427	0.0021
0.3334	0.0071	1.4086	0.0021
0.2721	0.0072	1.3937	0.002
0.2321	0.008	1.3848	0.0019
0.1144	0.0235	1.3615	0.0019
0.0818	0.0344	1.3562	0.002
0	0.1184	1.3519	0.0007

System: lithium sulfate + lithium pentaborate + water; phases: Liquid, Crystal of intercomponent compound 1
Fixed: Temperature, K = 288.15
Fixed: Pressure, kPa = 101
Property: Mass fraction of lithium pentaborate (Liquid); method: Titration method
Mass fraction of lithium sulfate	Mass fraction of lithium pentaborate	uncertainty
0.2601	0	
0.2519	0.0134	0.0025
0.2512	0.0082	0.0071
0.249	0.021	0.0071

System: lithium sulfate + lithium pentaborate + water; phases: Liquid, Crystal of intercomponent compound 2
Fixed: Temperature, K = 288.15
Fixed: Pressure, kPa = 101
Property: Mass fraction of lithium pentaborate (Liquid); method: Titration method
Mass fraction of lithium sulfate	Mass fraction of lithium pentaborate	uncertainty
0.249	0.021	0.0012
0.1695	0.0382	0.0012
0.103	0.0565	0.0013
0.0588	0.0718	0.0013
0.0306	0.092	0.0015
0	0.1184	0.0012

System: lithium sulfate + lithium pentaborate + water; phases: Liquid
Fixed: Temperature, K = 288.15
Fixed: Pressure, kPa = 101
Property: Mass density, kg/m3 (Liquid); method: Vibrating tube method
Mass fraction of lithium sulfate	Mass fraction of lithium pentaborate	Mass density, kg/m3	uncertainty
0.2601	0	1238.2	1.4
0.2519	0.0134	1237.8	1.3
0.2512	0.0082	1238.4	1.3
0.249	0.021	1239.8	1.6
0.1695	0.0382	1181.7	1.6
0.103	0.0565	1130.5	2.3
0.0588	0.0718	1105.6	1.5
0.0306	0.092	1095.1	1.9
0	0.1184	1091.4	1.6

System: lithium sulfate + lithium pentaborate + water; phases: Liquid
Fixed: Temperature, K = 288.15
Fixed: Pressure, kPa = 101
Property: Refractive index (Na D-line) (Liquid); method: Standard Abbe refractometry
Mass fraction of lithium sulfate	Mass fraction of lithium pentaborate	Refractive index (Na D-line)	uncertainty
0.2601	0	1.3776	0.0007
0.2519	0.0134	1.3782	0.0007
0.2512	0.0082	1.3782	0.0007
0.249	0.021	1.3786	0.0007
0.1695	0.0382	1.3682	0.0007
0.103	0.0565	1.3591	0.0008
0.0588	0.0718	1.3546	0.0007
0.0306	0.092	1.3526	0.0007
0	0.1184	1.3519	0.0007

System: lithium chloride + water; phases: Liquid, Crystal of intercomponent compound 1
Property: Mass fraction of lithium chloride (Liquid); method: Titration method
Temperature, K	Pressure, kPa	Mass fraction of lithium chloride	uncertainty
288.15	101	0.4395	

System: lithium chloride + water; phases: Liquid
Property: Mass density, kg/m3 (Liquid); method: Vibrating tube method
Mass fraction of lithium chloride	Temperature, K	Pressure, kPa	Mass density, kg/m3	uncertainty
0.4395	288.15	101	1283.2	6

System: lithium chloride + water; phases: Liquid
Property: Refractive index (Na D-line) (Liquid); method: Standard Abbe refractometry
Mass fraction of lithium chloride	Temperature, K	Pressure, kPa	Refractive index (Na D-line)	uncertainty
0.4395	288.15	101	1.432	0.002

System: lithium pentaborate + water; phases: Liquid, Crystal of intercomponent compound 2
Property: Mass fraction of lithium pentaborate (Liquid); method: Titration method
Temperature, K	Pressure, kPa	Mass fraction of lithium pentaborate	uncertainty
288.15	101	0.1184	0.0012

System: lithium pentaborate + water; phases: Liquid
Property: Mass density, kg/m3 (Liquid); method: Vibrating tube method
Mass fraction of lithium pentaborate	Temperature, K	Pressure, kPa	Mass density, kg/m3	uncertainty
0.1184	288.15	101	1091.4	1.4

System: lithium pentaborate + water; phases: Liquid
Property: Refractive index (Na D-line) (Liquid); method: Standard Abbe refractometry
Mass fraction of lithium pentaborate	Temperature, K	Pressure, kPa	Refractive index (Na D-line)	uncertainty
0.1184	288.15	101	1.3519	0.0007

System: lithium sulfate + water; phases: Liquid, Crystal of intercomponent compound 1
Property: Mass fraction of lithium sulfate (Liquid); method: Titration method
Temperature, K	Pressure, kPa	Mass fraction of lithium sulfate	uncertainty
288.15	101	0.2601	

System: lithium sulfate + water; phases: Liquid
Property: Mass density, kg/m3 (Liquid); method: Vibrating tube method
Mass fraction of lithium sulfate	Temperature, K	Pressure, kPa	Mass density, kg/m3	uncertainty
0.2601	288.15	101	1238.2	1.4

System: lithium sulfate + water; phases: Liquid
Property: Refractive index (Na D-line) (Liquid); method: Standard Abbe refractometry
Mass fraction of lithium sulfate	Temperature, K	Pressure, kPa	Refractive index (Na D-line)	uncertainty
0.2601	288.15	101	1.3776	0.0007
