Measured thermophysical data. Effects of Aliphatic Alcohols on Solubility, Physicochemical Properties, and Morphology of Calcium Sulfate Dihydrate (Gypsum) in Aqueous Sodium Chloride Solution at 35 deg.C
Source: J. Chem. Eng. Data, 2019, 10.1021/acs.jced.8b00723
Compound 1: methanol, CH4O, InChI=1S/CH4O/c1-2/h2H,1H3, purity 99.9%
Compound 2: ethanol, C2H6O, InChI=1S/C2H6O/c1-2-3/h3H,2H2,1H3, purity 99.5%
Compound 3: propan-2-ol, C3H8O, InChI=1S/C3H8O/c1-3(2)4/h3-4H,1-2H3, purity 99.5%
Compound 4: calcium sulfate, CaO4S, InChI=1S/Ca.H2O4S/c;1-5(2,3)4/h;(H2,1,2,3,4)/q+2;/p-2, purity 98%
Compound 5: water, H2O, InChI=1S/H2O/h1H2, purity 99.9%

System: calcium sulfate + water + methanol; phases: Liquid, Crystal of intercomponent compound 1
Fixed: Temperature, K = 308.15
Fixed: Pressure, kPa = 100
Property: Molality, mol/kg of calcium sulfate (Liquid); method: chemical analysis
Mass ratio of solute to solvent of methanol	Molality, mol/kg of calcium sulfate	uncertainty
0.05	0.004	0.004
0.1	0.0075	0.004
0.15	0.0025	0.0043

System: calcium sulfate + water + methanol; phases: Liquid
Fixed: Temperature, K = 308.15
Fixed: Pressure, kPa = 100
Property: Mass density, kg/m3 (Liquid); method: Vibrating tube method
Mass ratio of solute to solvent of methanol	Molality, mol/kg of calcium sulfate	Mass density, kg/m3	uncertainty
0.05	0.004	988.6	10
0.1	0.0075	980.6	10.1
0.15	0.0025	971	10.3

System: calcium sulfate + water + methanol; phases: Liquid
Fixed: Temperature, K = 308.15
Fixed: Pressure, kPa = 100
Property: Speed of sound, m/s (Liquid); method: Single path-length method
Mass ratio of solute to solvent of methanol	Molality, mol/kg of calcium sulfate	Speed of sound, m/s	uncertainty
0.05	0.004	1533.2	5.2
0.1	0.0075	1543.5	5.5
0.15	0.0025	1566.7	7.1

System: calcium sulfate + water + ethanol; phases: Liquid, Crystal of intercomponent compound 1
Fixed: Temperature, K = 308.15
Fixed: Pressure, kPa = 100
Property: Molality, mol/kg of calcium sulfate (Liquid); method: chemical analysis
Mass ratio of solute to solvent of ethanol	Molality, mol/kg of calcium sulfate	uncertainty
0.05	0.0025	0.004
0.1	0.0063	0.004
0.15	0.0038	0.0041

System: calcium sulfate + water + ethanol; phases: Liquid
Fixed: Temperature, K = 308.15
Fixed: Pressure, kPa = 100
Property: Mass density, kg/m3 (Liquid); method: Vibrating tube method
Mass ratio of solute to solvent of ethanol	Molality, mol/kg of calcium sulfate	Mass density, kg/m3	uncertainty
0.05	0.0025	990.6	10
0.1	0.0063	982.8	10.2
0.15	0.0038	971.7	10.5

System: calcium sulfate + water + ethanol; phases: Liquid
Fixed: Temperature, K = 308.15
Fixed: Pressure, kPa = 100
Property: Speed of sound, m/s (Liquid); method: Single path-length method
Mass ratio of solute to solvent of ethanol	Molality, mol/kg of calcium sulfate	Speed of sound, m/s	uncertainty
0.05	0.0025	1542.9	5.3
0.1	0.0063	1559.2	8
0.15	0.0038	1590.4	10.6

System: calcium sulfate + water + propan-2-ol; phases: Liquid, Crystal of intercomponent compound 1
Fixed: Temperature, K = 308.15
Fixed: Pressure, kPa = 100
Property: Molality, mol/kg of calcium sulfate (Liquid); method: chemical analysis
Mass ratio of solute to solvent of propan-2-ol	Molality, mol/kg of calcium sulfate	uncertainty
0.05	0.0097	0.004
0.075	0.0067	0.004
0.1	0.0058	0.004

System: calcium sulfate + water + propan-2-ol; phases: Liquid
Fixed: Temperature, K = 308.15
Fixed: Pressure, kPa = 100
Property: Mass density, kg/m3 (Liquid); method: Vibrating tube method
Mass ratio of solute to solvent of propan-2-ol	Molality, mol/kg of calcium sulfate	Mass density, kg/m3	uncertainty
0.05	0.0097	993.1	10
0.075	0.0067	991.8	10.1
0.1	0.0058	987.6	10.1

System: calcium sulfate + water + propan-2-ol; phases: Liquid
Fixed: Temperature, K = 308.15
Fixed: Pressure, kPa = 100
Property: Speed of sound, m/s (Liquid); method: Single path-length method
Mass ratio of solute to solvent of propan-2-ol	Molality, mol/kg of calcium sulfate	Speed of sound, m/s	uncertainty
0.05	0.0097	1551.7	5.8
0.075	0.0067	1566.2	5.2
0.1	0.0058	1569.7	5.3

System: methanol + water; phases: Liquid
Fixed: Pressure, kPa = 100
Fixed: Temperature, K = 308.15
Property: Mass density, kg/m3 (Liquid); method: Vibrating tube method
Mass ratio of solute to solvent of methanol	Mass density, kg/m3	uncertainty
0.05	988.6	10
0.1	980.6	10
0.15	971	10

System: methanol + water; phases: Liquid
Fixed: Pressure, kPa = 100
Fixed: Temperature, K = 308.15
Property: Speed of sound, m/s (Liquid); method: Single path-length method
Mass ratio of solute to solvent of methanol	Speed of sound, m/s	uncertainty
0.05	1533.2	0.5
0.1	1543.5	0.5
0.15	1566.7	0.5

System: ethanol + water; phases: Liquid
Fixed: Pressure, kPa = 100
Fixed: Temperature, K = 308.15
Property: Mass density, kg/m3 (Liquid); method: Vibrating tube method
Mass ratio of solute to solvent of ethanol	Mass density, kg/m3	uncertainty
0.05	990.6	10
0.1	982.8	10
0.15	971.7	10

System: ethanol + water; phases: Liquid
Fixed: Pressure, kPa = 100
Fixed: Temperature, K = 308.15
Property: Speed of sound, m/s (Liquid); method: Single path-length method
Mass ratio of solute to solvent of ethanol	Speed of sound, m/s	uncertainty
0.05	1542.9	0.6
0.1	1559.2	0.6
0.15	1590.4	0.6

System: propan-2-ol + water; phases: Liquid
Fixed: Pressure, kPa = 100
Fixed: Temperature, K = 308.15
Property: Mass density, kg/m3 (Liquid); method: Vibrating tube method
Mass ratio of solute to solvent of propan-2-ol	Mass density, kg/m3	uncertainty
0.05	993.1	10
0.075	991.8	10
0.1	987.6	10

System: propan-2-ol + water; phases: Liquid
Fixed: Pressure, kPa = 100
Fixed: Temperature, K = 308.15
Property: Speed of sound, m/s (Liquid); method: Single path-length method
Mass ratio of solute to solvent of propan-2-ol	Speed of sound, m/s	uncertainty
0.05	1551.7	0.6
0.075	1566.2	0.6
0.1	1569.7	0.6
