Measured thermophysical data. Thermodynamic and spectral studies of molecular interactions in binary liquid mixtures of 1-butoxy-2- propanol with 1-alcohols
Source: J. Chem. Eng. Data, 2015, 10.1021/acs.jced.5b00031
Compound 1: 1-butoxy-2-propanol, C7H16O2, InChI=1S/C7H16O2/c1-3-4-5-9-6-7(2)8/h7-8H,3-6H2,1-2H3, purity 99%
Compound 2: hexan-1-ol, C6H14O, InChI=1S/C6H14O/c1-2-3-4-5-6-7/h7H,2-6H2,1H3, purity 99%
Compound 3: octan-1-ol, C8H18O, InChI=1S/C8H18O/c1-2-3-4-5-6-7-8-9/h9H,2-8H2,1H3, purity 99%
Compound 4: decan-1-ol, C10H22O, InChI=1S/C10H22O/c1-2-3-4-5-6-7-8-9-10-11/h11H,2-10H2,1H3, purity 99%

System: 1-butoxy-2-propanol; phases: Liquid
Fixed: Pressure, kPa = 101
Property: Speed of sound, m/s (Liquid); method: Sing-around technique in a fixed-path interferometer
Temperature, K	Speed of sound, m/s	uncertainty
293.15	1278.98	0.82
298.15	1260.9	0.82
303.15	1242.94	0.81
308.15	1224.91	0.81
313.15	1207.02	0.8

System: 1-butoxy-2-propanol; phases: Liquid
Fixed: Pressure, kPa = 101
Property: Mass density, kg/m3 (Liquid); method: Vibrating tube method
Temperature, K	Mass density, kg/m3	uncertainty
293.15	879.031	0.147
298.15	874.632	0.148
303.15	870.204	0.149
308.15	865.737	0.15
313.15	861.241	0.15

System: hexan-1-ol; phases: Liquid
Fixed: Pressure, kPa = 101
Property: Speed of sound, m/s (Liquid); method: Sing-around technique in a fixed-path interferometer
Temperature, K	Speed of sound, m/s	uncertainty
293.15	1320.38	0.84
298.15	1303.54	0.83
303.15	1286.68	0.83
308.15	1270	0.82
313.15	1253.54	0.82

System: hexan-1-ol; phases: Liquid
Fixed: Pressure, kPa = 101
Property: Mass density, kg/m3 (Liquid); method: Vibrating tube method
Temperature, K	Mass density, kg/m3	uncertainty
293.15	819.239	0.159
298.15	815.652	0.16
303.15	812.043	0.161
308.15	808.402	0.161
313.15	804.743	0.162

System: octan-1-ol; phases: Liquid
Fixed: Pressure, kPa = 101
Property: Speed of sound, m/s (Liquid); method: Sing-around technique in a fixed-path interferometer
Temperature, K	Speed of sound, m/s	uncertainty
293.15	1364.08	0.72
298.15	1347.32	0.71
303.15	1330.99	0.7
308.15	1314.28	0.7
313.15	1297.72	0.69

System: octan-1-ol; phases: Liquid
Fixed: Pressure, kPa = 101
Property: Mass density, kg/m3 (Liquid); method: Vibrating tube method
Temperature, K	Mass density, kg/m3	uncertainty
293.15	825.337	0.139
298.15	821.877	0.14
303.15	818.4	0.141
308.15	814.903	0.141
313.15	811.385	0.142

System: decan-1-ol; phases: Liquid
Fixed: Pressure, kPa = 101
Property: Speed of sound, m/s (Liquid); method: Sing-around technique in a fixed-path interferometer
Temperature, K	Speed of sound, m/s	uncertainty
293.15	1396.65	0.86
298.15	1379.43	0.85
303.15	1362.4	0.85
308.15	1345.62	0.84
313.15	1329.07	0.84

System: decan-1-ol; phases: Liquid
Fixed: Pressure, kPa = 101
Property: Mass density, kg/m3 (Liquid); method: Vibrating tube method
Temperature, K	Mass density, kg/m3	uncertainty
293.15	829.898	0.157
298.15	826.489	0.157
303.15	823.069	0.158
308.15	819.635	0.159
313.15	816.188	0.16

System: hexan-1-ol + 1-butoxy-2-propanol; phases: Liquid
Fixed: Pressure, kPa = 101
Property: Mass density, kg/m3 (Liquid); method: Vibrating tube method
Temperature, K	Mole fraction of 1-butoxy-2-propanol	Mass density, kg/m3	uncertainty
293.15	0	819.239	0.159
293.15	0.0518	823.008	0.158
293.15	0.1036	826.694	0.158
293.15	0.1519	830.079	0.157
293.15	0.2018	833.5	0.157
293.15	0.2517	836.866	0.156
293.15	0.305	840.35	0.156
293.15	0.4039	846.625	0.155
293.15	0.505	852.782	0.155
293.15	0.6125	859.007	0.152
293.15	0.7004	863.833	0.151
293.15	0.8053	869.405	0.149
293.15	0.8563	871.983	0.148
293.15	0.8999	874.142	0.148
293.15	0.9525	876.729	0.147
293.15	1	879.031	0.147
298.15	0	815.652	0.16
298.15	0.0518	819.382	0.159
298.15	0.1036	823.015	0.158
298.15	0.1519	826.359	0.158
298.15	0.2018	829.737	0.157
298.15	0.2517	833.058	0.157
298.15	0.305	836.501	0.157
298.15	0.4039	842.692	0.156
298.15	0.505	848.766	0.156
298.15	0.6125	854.908	0.153
298.15	0.7004	859.669	0.151
298.15	0.8053	865.156	0.15
298.15	0.8563	867.697	0.149
298.15	0.8999	869.839	0.149
298.15	0.9525	872.379	0.148
298.15	1	874.632	0.148
303.15	0	812.043	0.161
303.15	0.0518	815.74	0.16
303.15	0.1036	819.322	0.159
303.15	0.1519	822.624	0.159
303.15	0.2018	825.955	0.158
303.15	0.2517	829.228	0.158
303.15	0.305	832.626	0.157
303.15	0.4039	838.734	0.157
303.15	0.505	844.723	0.156
303.15	0.6125	850.781	0.154
303.15	0.7004	855.462	0.152
303.15	0.8053	860.881	0.151
303.15	0.8563	863.38	0.15
303.15	0.8999	865.487	0.15
303.15	0.9525	867.998	0.149
303.15	1	870.204	0.149
308.15	0	808.402	0.161
308.15	0.0518	812.058	0.161
308.15	0.1036	815.594	0.16
308.15	0.1519	818.853	0.159
308.15	0.2018	822.136	0.159
308.15	0.2517	825.367	0.159
308.15	0.305	828.711	0.158
308.15	0.4039	834.746	0.158
308.15	0.505	840.644	0.157
308.15	0.6125	846.611	0.155
308.15	0.7004	851.232	0.153
308.15	0.8053	856.563	0.152
308.15	0.8563	859.027	0.151
308.15	0.8999	861.108	0.151
308.15	0.9525	863.577	0.15
308.15	1	865.737	0.15
313.15	0	804.743	0.162
313.15	0.0518	808.363	0.162
313.15	0.1036	811.85	0.161
313.15	0.1519	815.06	0.16
313.15	0.2018	818.301	0.16
313.15	0.2517	821.486	0.159
313.15	0.305	824.784	0.159
313.15	0.4039	830.729	0.159
313.15	0.505	836.543	0.158
313.15	0.6125	842.419	0.156
313.15	0.7004	846.971	0.154
313.15	0.8053	852.22	0.153
313.15	0.8563	854.652	0.152
313.15	0.8999	856.68	0.151
313.15	0.9525	859.128	0.151
313.15	1	861.241	0.15

System: hexan-1-ol + 1-butoxy-2-propanol; phases: Liquid
Fixed: Pressure, kPa = 101
Property: Speed of sound, m/s (Liquid); method: Sing-around technique in a fixed-path interferometer
Temperature, K	Mole fraction of 1-butoxy-2-propanol	Speed of sound, m/s	uncertainty
293.15	0	1320.38	0.84
293.15	0.0518	1317.97	0.84
293.15	0.1036	1315.65	0.83
293.15	0.1519	1313.51	0.83
293.15	0.2018	1311.34	0.83
293.15	0.2517	1309.19	0.83
293.15	0.305	1306.98	0.83
293.15	0.4039	1302.79	0.83
293.15	0.505	1298.62	0.83
293.15	0.6125	1294.21	0.83
293.15	0.7004	1290.65	0.83
293.15	0.8053	1286.58	0.83
293.15	0.8563	1284.55	0.83
293.15	0.8999	1282.81	0.82
293.15	0.9525	1280.78	0.82
293.15	1	1278.98	0.82
298.15	0	1303.54	0.83
298.15	0.0518	1301.11	0.83
298.15	0.1036	1298.74	0.83
298.15	0.1519	1296.57	0.83
298.15	0.2018	1294.34	0.83
298.15	0.2517	1292.14	0.83
298.15	0.305	1289.82	0.83
298.15	0.4039	1285.51	0.83
298.15	0.505	1281.22	0.82
298.15	0.6125	1276.66	0.82
298.15	0.7004	1272.98	0.82
298.15	0.8053	1268.79	0.82
298.15	0.8563	1266.71	0.82
298.15	0.8999	1264.89	0.82
298.15	0.9525	1262.79	0.82
298.15	1	1260.9	0.82
303.15	0	1286.68	0.83
303.15	0.0518	1284.24	0.82
303.15	0.1036	1281.82	0.82
303.15	0.1519	1279.59	0.82
303.15	0.2018	1277.32	0.82
303.15	0.2517	1275.04	0.82
303.15	0.305	1272.66	0.82
303.15	0.4039	1268.24	0.82
303.15	0.505	1263.83	0.82
303.15	0.6125	1259.17	0.82
303.15	0.7004	1255.38	0.82
303.15	0.8053	1251.06	0.81
303.15	0.8563	1248.93	0.81
303.15	0.8999	1247.08	0.81
303.15	0.9525	1244.9	0.8
303.15	1	1242.94	0.81
308.15	0	1270	0.82
308.15	0.0518	1267.53	0.82
308.15	0.1036	1265.03	0.82
308.15	0.1519	1262.76	0.82
308.15	0.2018	1260.41	0.82
308.15	0.2517	1258.04	0.82
308.15	0.305	1255.59	0.82
308.15	0.4039	1251.04	0.81
308.15	0.505	1246.48	0.81
308.15	0.6125	1241.66	0.81
308.15	0.7004	1237.77	0.81
308.15	0.8053	1233.31	0.81
308.15	0.8563	1231.12	0.81
308.15	0.8999	1229.23	0.81
308.15	0.9525	1226.96	0.81
308.15	1	1224.91	0.81
313.15	0	1253.54	0.82
313.15	0.0518	1251.02	0.81
313.15	0.1036	1248.46	0.81
313.15	0.1519	1246.13	0.81
313.15	0.2018	1243.69	0.81
313.15	0.2517	1241.25	0.81
313.15	0.305	1238.7	0.81
313.15	0.4039	1233.99	0.81
313.15	0.505	1229.28	0.81
313.15	0.6125	1224.33	0.81
313.15	0.7004	1220.31	0.81
313.15	0.8053	1215.7	0.8
313.15	0.8563	1213.44	0.8
313.15	0.8999	1211.5	0.8
313.15	0.9525	1209.17	0.8
313.15	1	1207.02	0.8

System: octan-1-ol + 1-butoxy-2-propanol; phases: Liquid
Fixed: Pressure, kPa = 101
Property: Mass density, kg/m3 (Liquid); method: Vibrating tube method
Temperature, K	Mole fraction of 1-butoxy-2-propanol	Mass density, kg/m3	uncertainty
293.15	0	825.337	0.139
293.15	0.0529	828.126	0.139
293.15	0.1119	831.221	0.139
293.15	0.1505	833.282	0.139
293.15	0.2023	835.989	0.139
293.15	0.2537	838.7	0.14
293.15	0.3044	841.355	0.14
293.15	0.3997	846.378	0.141
293.15	0.4991	851.646	0.143
293.15	0.6003	857.051	0.143
293.15	0.7046	862.686	0.143
293.15	0.8011	867.95	0.144
293.15	0.8455	870.382	0.144
293.15	0.9049	873.676	0.145
293.15	0.9507	876.245	0.146
293.15	1	879.031	0.147
298.15	0	821.877	0.14
298.15	0.0529	824.628	0.14
298.15	0.1119	827.672	0.14
298.15	0.1505	829.699	0.14
298.15	0.2023	832.362	0.14
298.15	0.2537	835.025	0.14
298.15	0.3044	837.633	0.141
298.15	0.3997	842.569	0.142
298.15	0.4991	847.747	0.143
298.15	0.6003	853.058	0.144
298.15	0.7046	858.589	0.144
298.15	0.8011	863.764	0.145
298.15	0.8455	866.154	0.145
298.15	0.9049	869.381	0.146
298.15	0.9507	871.903	0.147
298.15	1	874.632	0.148
303.15	0	818.4	0.141
303.15	0.0529	821.112	0.141
303.15	0.1119	824.102	0.141
303.15	0.1505	826.099	0.141
303.15	0.2023	828.71	0.14
303.15	0.2537	831.327	0.141
303.15	0.3044	833.892	0.142
303.15	0.3997	838.739	0.143
303.15	0.4991	843.823	0.144
303.15	0.6003	849.037	0.144
303.15	0.7046	854.468	0.145
303.15	0.8011	859.542	0.146
303.15	0.8455	861.888	0.146
303.15	0.9049	865.059	0.147
303.15	0.9507	867.531	0.148
303.15	1	870.204	0.149
308.15	0	814.903	0.141
308.15	0.0529	817.574	0.141
308.15	0.1119	820.51	0.141
308.15	0.1505	822.463	0.142
308.15	0.2023	825.035	0.142
308.15	0.2537	827.61	0.142
308.15	0.3044	830.125	0.143
308.15	0.3997	834.878	0.144
308.15	0.4991	839.868	0.145
308.15	0.6003	844.985	0.145
308.15	0.7046	850.315	0.146
308.15	0.8011	855.293	0.147
308.15	0.8455	857.584	0.147
308.15	0.9049	860.7	0.148
308.15	0.9507	863.123	0.149
308.15	1	865.737	0.15
313.15	0	811.385	0.142
313.15	0.0529	814.012	0.142
313.15	0.1119	816.895	0.142
313.15	0.1505	818.817	0.142
313.15	0.2023	821.337	0.143
313.15	0.2537	823.864	0.143
313.15	0.3044	826.335	0.143
313.15	0.3997	831	0.144
313.15	0.4991	835.893	0.146
313.15	0.6003	840.911	0.146
313.15	0.7046	846.134	0.147
313.15	0.8011	851.009	0.147
313.15	0.8455	853.261	0.148
313.15	0.9049	856.315	0.149
313.15	0.9507	858.689	0.15
313.15	1	861.241	0.15

System: octan-1-ol + 1-butoxy-2-propanol; phases: Liquid
Fixed: Pressure, kPa = 101
Property: Speed of sound, m/s (Liquid); method: Sing-around technique in a fixed-path interferometer
Temperature, K	Mole fraction of 1-butoxy-2-propanol	Speed of sound, m/s	uncertainty
293.15	0	1364.08	0.72
293.15	0.0529	1359.61	0.72
293.15	0.1119	1354.59	0.72
293.15	0.1505	1351.25	0.72
293.15	0.2023	1346.83	0.73
293.15	0.2537	1342.45	0.73
293.15	0.3044	1338.16	0.74
293.15	0.3997	1330.08	0.75
293.15	0.4991	1321.69	0.76
293.15	0.6003	1313.12	0.77
293.15	0.7046	1304.28	0.78
293.15	0.8011	1296.04	0.79
293.15	0.8455	1292.24	0.8
293.15	0.9049	1287.14	0.81
293.15	0.9507	1283.21	0.82
293.15	1	1278.98	0.82
298.15	0	1347.32	0.71
298.15	0.0529	1342.77	0.71
298.15	0.1119	1337.68	0.72
298.15	0.1505	1334.37	0.72
298.15	0.2023	1329.92	0.72
298.15	0.2537	1325.5	0.7
298.15	0.3044	1321.15	0.73
298.15	0.3997	1312.91	0.74
298.15	0.4991	1304.33	0.75
298.15	0.6003	1295.56	0.76
298.15	0.7046	1286.54	0.78
298.15	0.8011	1278.19	0.79
298.15	0.8455	1274.31	0.79
298.15	0.9049	1269.16	0.8
298.15	0.9507	1265.18	0.81
298.15	1	1260.9	0.82
303.15	0	1330.99	0.7
303.15	0.0529	1326.37	0.71
303.15	0.1119	1321.17	0.71
303.15	0.1505	1317.79	0.71
303.15	0.2023	1313.24	0.72
303.15	0.2537	1308.73	0.72
303.15	0.3044	1304.28	0.73
303.15	0.3997	1295.88	0.73
303.15	0.4991	1287.14	0.75
303.15	0.6003	1278.21	0.76
303.15	0.7046	1269.02	0.77
303.15	0.8011	1260.53	0.78
303.15	0.8455	1256.59	0.79
303.15	0.9049	1251.36	0.8
303.15	0.9507	1247.31	0.8
303.15	1	1242.94	0.81
308.15	0	1314.28	0.7
308.15	0.0529	1308.65	0.7
308.15	0.1119	1303.42	0.7
308.15	0.1505	1300.02	0.71
308.15	0.2023	1295.45	0.71
308.15	0.2537	1290.91	0.71
308.15	0.3044	1286.44	0.72
308.15	0.3997	1278.01	0.73
308.15	0.4991	1269.23	0.74
308.15	0.6003	1260.27	0.75
308.15	0.7046	1251.07	0.76
308.15	0.8011	1242.55	0.78
308.15	0.8455	1238.6	0.78
308.15	0.9049	1233.37	0.79
308.15	0.9507	1229.31	0.8
308.15	1	1224.91	0.81
313.15	0	1297.72	0.69
313.15	0.0529	1293.05	0.69
313.15	0.1119	1287.75	0.7
313.15	0.1505	1284.23	0.7
313.15	0.2023	1279.55	0.7
313.15	0.2537	1274.88	0.71
313.15	0.3044	1270.28	0.71
313.15	0.3997	1261.67	0.72
313.15	0.4991	1252.68	0.73
313.15	0.6003	1243.54	0.75
313.15	0.7046	1234.12	0.76
313.15	0.8011	1225.38	0.77
313.15	0.8455	1221.34	0.78
313.15	0.9049	1215.9	0.8
313.15	0.9507	1211.66	0.79
313.15	1	1207.02	0.8

System: decan-1-ol + 1-butoxy-2-propanol; phases: Liquid
Fixed: Pressure, kPa = 101
Property: Mass density, kg/m3 (Liquid); method: Vibrating tube method
Temperature, K	Mole fraction of 1-butoxy-2-propanol	Mass density, kg/m3	uncertainty
293.15	0	829.898	0.157
293.15	0.0501	831.883	0.156
293.15	0.1066	834.139	0.156
293.15	0.1507	835.913	0.156
293.15	0.253	840.195	0.155
293.15	0.3119	842.719	0.155
293.15	0.3516	844.462	0.154
293.15	0.4159	847.357	0.154
293.15	0.5018	851.375	0.154
293.15	0.6016	856.262	0.153
293.15	0.7014	861.444	0.151
293.15	0.8012	866.957	0.15
293.15	0.8541	869.997	0.149
293.15	0.9003	872.764	0.148
293.15	0.9507	875.842	0.147
293.15	1	879.031	0.147
298.15	0	826.489	0.157
298.15	0.0501	828.442	0.157
298.15	0.1066	830.661	0.157
298.15	0.1507	832.399	0.156
298.15	0.253	836.598	0.156
298.15	0.3119	839.079	0.155
298.15	0.3516	840.791	0.155
298.15	0.4159	843.619	0.155
298.15	0.5018	847.552	0.155
298.15	0.6016	852.349	0.153
298.15	0.7014	857.425	0.152
298.15	0.8012	862.821	0.15
298.15	0.8541	865.805	0.15
298.15	0.9003	868.514	0.149
298.15	0.9507	871.538	0.148
298.15	1	874.632	0.148
303.15	0	823.069	0.158
303.15	0.0501	824.99	0.158
303.15	0.1066	827.171	0.157
303.15	0.1507	828.871	0.157
303.15	0.253	832.987	0.156
303.15	0.3119	835.422	0.156
303.15	0.3516	837.092	0.156
303.15	0.4159	839.865	0.156
303.15	0.5018	843.715	0.156
303.15	0.6016	848.411	0.154
303.15	0.7014	853.382	0.153
303.15	0.8012	858.662	0.151
303.15	0.8541	861.591	0.15
303.15	0.9003	864.233	0.15
303.15	0.9507	867.195	0.149
303.15	1	870.204	0.149
308.15	0	819.635	0.159
308.15	0.0501	821.526	0.158
308.15	0.1066	823.665	0.158
308.15	0.1507	825.325	0.158
308.15	0.253	829.359	0.157
308.15	0.3119	831.733	0.157
308.15	0.3516	833.37	0.157
308.15	0.4159	836.084	0.156
308.15	0.5018	839.85	0.156
308.15	0.6016	844.447	0.155
308.15	0.7014	849.31	0.153
308.15	0.8012	854.473	0.152
308.15	0.8541	857.336	0.151
308.15	0.9003	859.925	0.151
308.15	0.9507	862.813	0.15
308.15	1	865.737	0.15
313.15	0	816.188	0.16
313.15	0.0501	818.053	0.159
313.15	0.1066	820.143	0.159
313.15	0.1507	821.774	0.159
313.15	0.253	825.713	0.158
313.15	0.3119	828.039	0.158
313.15	0.3516	829.639	0.157
313.15	0.4159	832.294	0.157
313.15	0.5018	835.972	0.157
313.15	0.6016	840.464	0.156
313.15	0.7014	845.217	0.154
313.15	0.8012	850.26	0.153
313.15	0.8541	853.057	0.152
313.15	0.9003	855.586	0.152
313.15	0.9507	858.408	0.151
313.15	1	861.241	0.15

System: decan-1-ol + 1-butoxy-2-propanol; phases: Liquid
Fixed: Pressure, kPa = 101
Property: Speed of sound, m/s (Liquid); method: Sing-around technique in a fixed-path interferometer
Temperature, K	Mole fraction of 1-butoxy-2-propanol	Speed of sound, m/s	uncertainty
293.15	0	1396.65	0.86
293.15	0.0501	1391.49	0.86
293.15	0.1066	1385.62	0.86
293.15	0.1507	1380.88	0.85
293.15	0.253	1370.03	0.85
293.15	0.3119	1363.47	0.85
293.15	0.3516	1358.78	0.85
293.15	0.4159	1351.35	0.85
293.15	0.5018	1341.42	0.84
293.15	0.6016	1329.78	0.84
293.15	0.7014	1317.66	0.84
293.15	0.8012	1304.99	0.83
293.15	0.8541	1298.27	0.83
293.15	0.9003	1292.3	0.83
293.15	0.9507	1285.67	0.83
293.15	1	1278.98	0.82
298.15	0	1379.43	0.85
298.15	0.0501	1374.26	0.85
298.15	0.1066	1368.38	0.85
298.15	0.1507	1363.74	0.85
298.15	0.253	1352.7	0.85
298.15	0.3119	1346.23	0.84
298.15	0.3516	1341.82	0.84
298.15	0.4159	1334.54	0.84
298.15	0.5018	1324.54	0.84
298.15	0.6016	1312.58	0.83
298.15	0.7014	1300.23	0.83
298.15	0.8012	1287.51	0.83
298.15	0.8541	1280.58	0.82
298.15	0.9003	1274.42	0.82
298.15	0.9507	1267.65	0.82
298.15	1	1260.9	0.82
303.15	0	1362.4	0.85
303.15	0.0501	1357.19	0.85
303.15	0.1066	1351.25	0.85
303.15	0.1507	1346.56	0.84
303.15	0.253	1335.39	0.84
303.15	0.3119	1328.87	0.84
303.15	0.3516	1324.41	0.84
303.15	0.4159	1317.06	0.84
303.15	0.5018	1306.98	0.83
303.15	0.6016	1294.93	0.83
303.15	0.7014	1282.49	0.83
303.15	0.8012	1269.69	0.82
303.15	0.8541	1262.73	0.82
303.15	0.9003	1256.54	0.82
303.15	0.9507	1249.73	0.81
303.15	1	1242.94	0.81
308.15	0	1345.62	0.84
308.15	0.0501	1340.35	0.84
308.15	0.1066	1334.32	0.84
308.15	0.1507	1329.56	0.84
308.15	0.253	1318.25	0.84
308.15	0.3119	1311.64	0.83
308.15	0.3516	1307.13	0.83
308.15	0.4159	1299.7	0.83
308.15	0.5018	1289.5	0.83
308.15	0.6016	1277.33	0.82
308.15	0.7014	1264.78	0.82
308.15	0.8012	1251.87	0.82
308.15	0.8541	1244.85	0.81
308.15	0.9003	1238.61	0.81
308.15	0.9507	1231.76	0.81
308.15	1	1224.91	0.81
313.15	0	1329.07	0.84
313.15	0.0501	1324.3	0.84
313.15	0.1066	1318.3	0.83
313.15	0.1507	1313.4	0.83
313.15	0.253	1302.1	0.83
313.15	0.3119	1295.29	0.83
313.15	0.3516	1290.47	0.83
313.15	0.4159	1282.75	0.83
313.15	0.5018	1272.51	0.82
313.15	0.6016	1260.33	0.82
313.15	0.7014	1247.68	0.81
313.15	0.8012	1234.63	0.81
313.15	0.8541	1227.69	0.81
313.15	0.9003	1221.41	0.81
313.15	0.9507	1214.41	0.8
313.15	1	1207.02	0.8
