Measured thermophysical data. Experimental Measurement and Modeling of Vapor Liquid Equilibrium for the Ternary System Water + Acetonitrile + Ethylene Glycol
Source: J. Chem. Eng. Data, 2017, 10.1021/acs.jced.7b00178
Compound 1: acetonitrile, C2H3N, InChI=1S/C2H3N/c1-2-3/h1H3, purity 99.8%
Compound 2: 1,2-ethanediol, C2H6O2, InChI=1S/C2H6O2/c3-1-2-4/h3-4H,1-2H2, purity 99%
Compound 3: water, H2O, InChI=1S/H2O/h1H2, purity 99.8%

System: acetonitrile + 1,2-ethanediol + water; phases: Liquid, Gas
Fixed: Pressure, kPa = 101.3
Property: Mass fraction of 1,2-ethanediol (Liquid); method: Chromatography
Property: Mole fraction of water (Gas); method: Chromatography
Property: Mole fraction of acetonitrile (Gas); method: Chromatography
Temperature, K	Solvent: Mole fraction of acetonitrile	Mass fraction of 1,2-ethanediol	uncertainty	Mole fraction of water	uncertainty	Mole fraction of acetonitrile	uncertainty
384.65	0.1	0.798	0.006	0.579	0.009	0.405	
375.03	0.101	0.701	0.006	0.547	0.01	0.445	
368.8	0.101	0.6	0.007	0.52	0.01	0.476	
364.52	0.101	0.5	0.007	0.506	0.011	0.491	
361.47	0.101	0.401	0.007	0.49	0.011	0.508	
359.18	0.0996	0.3	0.006	0.483	0.011	0.516	
357.27	0.101	0.2	0.006	0.47	0.01	0.529	
355.9	0.0992	0.101	0.006	0.466	0.01	0.534	
379.61	0.2	0.799	0.006	0.411	0.009	0.573	
369.26	0.2	0.699	0.006	0.393	0.009	0.599	
363.34	0.2	0.6	0.007	0.384	0.008	0.611	
359.54	0.201	0.501	0.007	0.379	0.008	0.619	
357.17	0.199	0.399	0.007	0.387	0.008	0.612	
355.24	0.201	0.301	0.006	0.387	0.008	0.613	
353.56	0.201	0.199	0.006	0.383	0.008	0.617	
352.57	0.201	0.101	0.006	0.389	0.008	0.61	
374.47	0.399	0.799	0.006	0.237	0.005	0.748	
365.5	0.399	0.7	0.006	0.239	0.005	0.754	
360.58	0.401	0.602	0.007	0.256	0.006	0.74	
357.33	0.399	0.5	0.007	0.282	0.006	0.716	
355.11	0.401	0.4	0.007	0.293	0.006	0.706	
353.5	0.401	0.299	0.006	0.317	0.007	0.682	
352.29	0.4	0.2	0.006	0.329	0.007	0.67	
351.31	0.4	0.1	0.006	0.345	0.008	0.655	
373	0.601	0.8	0.006	0.144	0.003	0.842	
364.93	0.601	0.701	0.006	0.16	0.004	0.832	
360.47	0.6	0.599	0.007	0.178	0.004	0.817	
357.67	0.599	0.499	0.007	0.2	0.004	0.797	
355.61	0.599	0.399	0.007	0.225	0.005	0.773	
353.93	0.6	0.299	0.006	0.248	0.005	0.75	
352.47	0.6	0.2	0.006	0.276	0.006	0.723	
351.14	0.599	0.1	0.006	0.304	0.007	0.696	
372.54	0.8	0.799	0.006	0.0628	0.0014	0.921	
365.28	0.8	0.699	0.006	0.0799	0.0017	0.91	
361.58	0.799	0.599	0.007	0.0959	0.0021	0.898	
359.09	0.8	0.5	0.007	0.115	0.003	0.88	
357.1	0.8	0.399	0.007	0.139	0.003	0.856	
355.35	0.799	0.301	0.006	0.166	0.004	0.831	
353.62	0.801	0.2	0.006	0.193	0.004	0.805	
351.76	0.799	0.099	0.006	0.229	0.005	0.771	
373.13	0.95	0.801	0.006	0.0154	0.0003	0.969	
366.48	0.95	0.7	0.006	0.0192	0.0004	0.969	
363.21	0.95	0.601	0.007	0.0246	0.0005	0.967	
361.03	0.95	0.5	0.007	0.032	0.0007	0.961	
359.43	0.95	0.4	0.007	0.0405	0.0009	0.953	
357.93	0.95	0.302	0.006	0.0522	0.0011	0.943	
356.41	0.951	0.201	0.006	0.0687	0.0015	0.927	
354.78	0.951	0.1	0.006	0.0864	0.0019	0.911	
