Measured thermophysical data. Isobaric Vapor-Liquid Equilibrium for Two Binary Systems of 3,3-Dimethyloxetane + Methyl Cyclohexane and 3-Chloro-2,2-dimethyl-1-propanol + Methyl Cyclohexane at 101.3 kPa
Source: J. Chem. Eng. Data, 2019, 10.1021/acs.jced.8b00966
Compound 1: methylcyclohexane, C7H14, InChI=1S/C7H14/c1-7-5-3-2-4-6-7/h7H,2-6H2,1H3, purity 99.85%
Compound 2: 3,3-dimethyloxetane, C5H10O, InChI=1S/C5H10O/c1-5(2)3-6-4-5/h3-4H2,1-2H3
Compound 3: 3-chloro-2,2-dimethyl-1-propanol, C5H11ClO, InChI=1S/C5H11ClO/c1-5(2,3-6)4-7/h7H,3-4H2,1-2H3

System: methylcyclohexane; phases: Liquid, Gas
Property: Vapor or sublimation pressure, kPa (Liquid); method: Ebulliometric method (Recirculating still)
Temperature, K	Vapor or sublimation pressure, kPa	uncertainty
373.35	101.3	3

System: 3,3-dimethyloxetane; phases: Liquid, Gas
Property: Vapor or sublimation pressure, kPa (Liquid); method: Ebulliometric method (Recirculating still)
Temperature, K	Vapor or sublimation pressure, kPa	uncertainty
352.8	101.3	3

System: 3-chloro-2,2-dimethyl-1-propanol; phases: Liquid, Gas
Property: Vapor or sublimation pressure, kPa (Liquid); method: Ebulliometric method (Recirculating still)
Temperature, K	Vapor or sublimation pressure, kPa	uncertainty
439.15	101.3	3

System: 3,3-dimethyloxetane + methylcyclohexane; phases: Liquid, Gas
Fixed: Pressure, kPa = 101.3
Property: Boiling temperature at pressure P, K (Liquid); method: Ebulliometric method (Recirculating still)
Mole fraction of 3,3-dimethyloxetane	Boiling temperature at pressure P, K	uncertainty
0	373.35	0.61
0.005	372.65	0.65
0.011	372.25	0.72
0.0244	371.75	0.69
0.0249	371.35	0.69
0.0416	370.55	0.65
0.0782	369.25	0.66
0.1167	367.35	0.65
0.157	366	0.64
0.2205	364.05	0.63
0.238	363.6	0.63
0.3222	361.55	0.62
0.3673	360.55	0.62
0.4165	359.55	0.61
0.479	358.7	0.61
0.6556	356.05	0.61
0.801	354.45	0.61
0.8899	353.55	0.61
1	352.8	0.61

System: 3,3-dimethyloxetane + methylcyclohexane; phases: Gas, Liquid
Fixed: Pressure, kPa = 101.3
Property: Mole fraction of 3,3-dimethyloxetane (Gas); method: Chromatography
Mole fraction of 3,3-dimethyloxetane	Mole fraction of 3,3-dimethyloxetane	uncertainty
0	0	
0.005	0.0203	0.0129
0.011	0.0386	0.0168
0.0244	0.0644	0.0157
0.0249	0.0771	0.0155
0.0416	0.112	0.012
0.0782	0.1704	0.0136
0.1167	0.2637	0.0133
0.157	0.3234	0.0104
0.2205	0.4039	0.0104
0.238	0.429	0.0111
0.3222	0.5089	0.0092
0.3673	0.5468	0.0089
0.4165	0.5913	0.0083
0.479	0.6293	0.0081
0.6556	0.761	0.0076
0.801	0.8519	0.0074
0.8899	0.9212	0.0075
1	1	

System: 3-chloro-2,2-dimethyl-1-propanol + methylcyclohexane; phases: Liquid, Gas
Fixed: Pressure, kPa = 101.3
Property: Boiling temperature at pressure P, K (Liquid); method: Ebulliometric method (Recirculating still)
Mole fraction of 3-chloro-2,2-dimethyl-1-propanol	Boiling temperature at pressure P, K	uncertainty
0	373.35	0.61
0.0734	375.45	0.62
0.1654	376.45	0.61
0.2804	377.85	0.61
0.4618	380.75	0.62
0.5857	384.05	0.64
0.6776	388.1	0.72
0.7906	396.95	0.8
0.8314	401.75	0.92
0.8583	404.8	1.13
0.8968	411.95	1.39
0.9093	415.85	2.03
0.9162	418.25	2.17
0.9563	425.65	1.62
1	439.15	0.61

System: 3-chloro-2,2-dimethyl-1-propanol + methylcyclohexane; phases: Gas, Liquid
Fixed: Pressure, kPa = 101.3
Property: Mole fraction of 3-chloro-2,2-dimethyl-1-propanol (Gas); method: Chromatography
Mole fraction of 3-chloro-2,2-dimethyl-1-propanol	Mole fraction of 3-chloro-2,2-dimethyl-1-propanol	uncertainty
0	0	
0.0734	0.018	0.0061
0.1654	0.0324	0.006
0.2804	0.0421	0.006
0.4618	0.06	0.0061
0.5857	0.082	0.0062
0.6776	0.1139	0.0068
0.7906	0.1824	0.0077
0.8314	0.2353	0.0101
0.8583	0.2708	0.0141
0.8968	0.37	0.0181
0.9093	0.4173	0.0315
0.9162	0.473	0.049
0.9563	0.6219	0.0386
1	1	
