Measured thermophysical data. Surface Activity, Adsorption, and Micellization Parameters of Ammonium Surfactants Containing a Hydroxyethyl and Hydroxyisopropyl Head Group
Source: J. Chem. Eng. Data, 2017, 10.1021/acs.jced.7b00347
Compound 1: N-(2-hydroxyethyl)-N-(2-hydroxypropyl)octan-1-aminium chloride, C13H30ClNO2, InChI=1S/C13H29NO2.ClH/c1-3-4-5-6-7-8-9-14(10-11-15)12-13(2)16;/h13,15-16H,3-12H2,1-2H3;1H
Compound 2: N-(2-hydroxyethyl)-N-(2-hydroxypropyl)nonan-1-aminium chloride, C14H32ClNO2, InChI=1S/C14H31NO2.ClH/c1-3-4-5-6-7-8-9-10-15(11-12-16)13-14(2)17;/h14,16-17H,3-13H2,1-2H3;1H
Compound 3: N-(2-hydroxyethyl)-N-(2-hydroxypropyl)dodecan-1-aminium chloride, C17H38ClNO2, InChI=1S/C17H37NO2.ClH/c1-3-4-5-6-7-8-9-10-11-12-13-18(14-15-19)16-17(2)20;/h17,19-20H,3-16H2,1-2H3;1H
Compound 4: N-(2-hydroxyethyl)-N-(2-hydroxypropyl)hexadecan-1-aminium chloride, C21H46ClNO2, InChI=1S/C21H45NO2.ClH/c1-3-4-5-6-7-8-9-10-11-12-13-14-15-16-17-22(18-19-23)20-21(2)24;/h21,23-24H,3-20H2,1-2H3;1H
Compound 5: water, H2O, InChI=1S/H2O/h1H2, purity 99.8%

System: N-(2-hydroxyethyl)-N-(2-hydroxypropyl)octan-1-aminium chloride + water; phases: Liquid, Air at 1 atmosphere
Property: Surface tension liquid-gas, N/m (Liquid); method: Ring tensiometer
Temperature, K	Molality, mol/kg of N-(2-hydroxyethyl)-N-(2-hydroxypropyl)octan-1-aminium chloride	Surface tension liquid-gas, N/m	uncertainty
293.15	1.8668e-05	0.06299	0.00081
293.15	3.73342e-05	0.05687	0.00074
293.15	9.3336e-05	0.04751	0.00063
293.15	0.00018668	0.04052	0.00055
293.15	0.00028001	0.03628	0.0005
293.15	0.00037339	0.03331	0.00047
293.15	0.00044355	0.03133	0.00045
293.15	0.00093338	0.03074	0.00045
293.15	0.0018669	0.03015	0.00044
293.15	0.0028001	0.02989	0.00044
293.15	0.0037335	0.03	0.00044
298.15	1.8668e-05	0.05801	0.00075
298.15	3.73342e-05	0.05203	0.00068
298.15	9.3336e-05	0.04352	0.00059
298.15	0.00018668	0.03681	0.00051
298.15	0.00028001	0.03344	0.00047
298.15	0.00040883	0.03057	0.00044
298.15	0.00093338	0.0299	0.00044
298.15	0.0018669	0.02943	0.00043
298.15	0.0028001	0.029	0.00043
298.15	0.0037335	0.02891	0.00043
303.15	1.8668e-05	0.05353	0.0007
303.15	3.73342e-05	0.04758	0.00063
303.15	9.3336e-05	0.04008	0.00054
303.15	0.00018668	0.03417	0.00048
303.15	0.00028001	0.03117	0.00045
303.15	0.00034724	0.02947	0.00043
303.15	0.00044801	0.02931	0.00043
303.15	0.00093338	0.02879	0.00043
303.15	0.0018669	0.02854	0.00042
303.15	0.0028001	0.02822	0.00042
303.15	0.0037335	0.02802	0.00042
308.15	1.8668e-05	0.05125	0.00067
308.15	3.73342e-05	0.04575	0.00061
308.15	9.3336e-05	0.03842	0.00053
308.15	0.00018668	0.03293	0.00047
308.15	0.00029495	0.02972	0.00044
308.15	0.0003472	0.02863	0.00043
308.15	0.00038081	0.02846	0.00042
308.15	0.00093338	0.02795	0.00042
308.15	0.0018669	0.02778	0.00042
308.15	0.0028001	0.02744	0.00041
308.15	0.0037335	0.02736	0.00041

System: N-(2-hydroxyethyl)-N-(2-hydroxypropyl)octan-1-aminium chloride + water; phases: Liquid
Fixed: Pressure, kPa = 100
Property: Electrical conductivity, S/m (Liquid); method: Alternating current cell with electrodes
Temperature, K	Molality, mol/kg of N-(2-hydroxyethyl)-N-(2-hydroxypropyl)octan-1-aminium chloride	Electrical conductivity, S/m	uncertainty
293.15	1.87e-05	0.00057	3.2e-05
293.15	3.99e-05	0.000652	3.6e-05
293.15	6.12e-05	0.000733	4e-05
293.15	8.25e-05	0.000815	4.5e-05
293.15	0.0001038	0.000896	5e-05
293.15	0.0001251	0.000978	5.5e-05
293.15	0.0001464	0.001059	6e-05
293.15	0.0001676	0.001141	6.5e-05
293.15	0.0001889	0.001222	7e-05
293.15	0.0002102	0.001304	7.6e-05
293.15	0.0002315	0.001385	8.1e-05
293.15	0.0002528	0.001467	8.6e-05
293.15	0.000274	0.001548	9.2e-05
293.15	0.0002953	0.00163	9.7e-05
293.15	0.0003166	0.001711	0.000102
293.15	0.0003379	0.001793	0.000108
293.15	0.0003592	0.001874	0.000113
293.15	0.0003805	0.001956	0.000119
293.15	0.0004017	0.002037	0.000124
293.15	0.000423	0.002119	0.000129
293.15	0.0004443	0.0022	0.000135
293.15	0.0004687	0.002261	0.000139
293.15	0.0004932	0.002327	0.000143
293.15	0.0005177	0.002393	0.000148
293.15	0.0005421	0.002458	0.000149
293.15	0.0005666	0.002524	0.000152
293.15	0.000591	0.00259	0.000155
293.15	0.0006155	0.002656	0.000157
293.15	0.0006399	0.002721	0.00016
293.15	0.0006644	0.002787	0.000163
293.15	0.0006888	0.002853	0.000167
293.15	0.0007133	0.002919	0.000169
293.15	0.0007378	0.002985	0.000172
293.15	0.0007622	0.00305	0.000175
293.15	0.0007867	0.003116	0.000178
293.15	0.0008111	0.003182	0.000181
293.15	0.0008356	0.003248	0.000184
293.15	0.00086	0.003313	0.000187
293.15	0.0008845	0.003379	0.00019
293.15	0.0009089	0.003445	0.000193
293.15	0.0009334	0.00352	0.000198
298.15	1.87e-05	0.00071	4e-05
298.15	3.79e-05	0.000793	4.4e-05
298.15	5.71e-05	0.000877	4.9e-05
298.15	7.64e-05	0.00096	5.5e-05
298.15	9.56e-05	0.001044	5.9e-05
298.15	0.0001148	0.001127	6.6e-05
298.15	0.000134	0.001211	6.7e-05
298.15	0.0001533	0.001294	7.2e-05
298.15	0.0001725	0.001378	9.7e-05
298.15	0.0001917	0.001461	0.00039
298.15	0.0002109	0.001544	9.4e-05
298.15	0.0002302	0.001628	0.000447
298.15	0.0002494	0.001711	9.7e-05
298.15	0.0002686	0.001795	0.000103
298.15	0.0002879	0.001878	0.000106
298.15	0.0003071	0.001962	0.000116
298.15	0.0003263	0.002045	0.000684
298.15	0.0003455	0.002129	0.000142
298.15	0.0003648	0.002212	0.000124
298.15	0.000384	0.002295	0.000179
298.15	0.0004032	0.00238	0.000811
298.15	0.0004364	0.002489	0.000137
298.15	0.0004695	0.0026	0.000213
298.15	0.0005026	0.002712	0.000302
298.15	0.0005358	0.002824	0.000155
298.15	0.0005689	0.002935	0.000162
298.15	0.000602	0.003047	0.000168
298.15	0.0006352	0.003159	0.000174
298.15	0.0006683	0.00327	0.00018
298.15	0.0007014	0.003382	0.000186
298.15	0.0007346	0.003494	0.000193
298.15	0.0007677	0.003605	0.000199
298.15	0.0008009	0.003717	0.000205
298.15	0.000834	0.003829	0.000211
298.15	0.0008671	0.00394	0.000217
298.15	0.0009003	0.004052	0.000223
298.15	0.0009334	0.00417	0.00023
303.15	1.87e-05	0.00091	5.1e-05
303.15	3.73e-05	0.001006	5.6e-05
303.15	5.6e-05	0.001102	6.1e-05
303.15	7.47e-05	0.001198	6.6e-05
303.15	9.33e-05	0.001294	8.2e-05
303.15	0.000112	0.00139	8e-05
303.15	0.0001307	0.001486	8.3e-05
303.15	0.0001493	0.001582	8.8e-05
303.15	0.000168	0.001678	9.3e-05
303.15	0.0001867	0.001774	9.8e-05
303.15	0.0002053	0.001869	0.000294
303.15	0.000224	0.001965	0.000108
303.15	0.0002427	0.002061	0.000116
303.15	0.0002614	0.002157	0.000122
303.15	0.00028	0.002253	0.000148
303.15	0.0002987	0.002349	0.000327
303.15	0.0003174	0.002445	0.000141
303.15	0.000336	0.002541	0.00014
303.15	0.0003547	0.002637	0.000173
303.15	0.0003734	0.002733	0.000151
303.15	0.000392	0.00283	0.00017
303.15	0.0004166	0.002924	0.001633
303.15	0.0004412	0.003019	0.000171
303.15	0.0004658	0.003114	0.000172
303.15	0.0004905	0.003209	0.000176
303.15	0.0005151	0.003304	0.000211
303.15	0.0005397	0.003399	0.000187
303.15	0.0005643	0.003494	0.000192
303.15	0.0005889	0.003589	0.000198
303.15	0.0006135	0.003684	0.000203
303.15	0.0006381	0.003779	0.000208
303.15	0.0006627	0.003874	0.000213
303.15	0.0006873	0.003969	0.000219
303.15	0.0007119	0.004064	0.000224
303.15	0.0007365	0.004159	0.000229
303.15	0.0007611	0.004254	0.000235
303.15	0.0007857	0.004349	0.00024
303.15	0.0008104	0.004444	0.000245
303.15	0.000835	0.004539	0.000251
303.15	0.0008596	0.004634	0.000256
303.15	0.0008842	0.004729	0.000261
303.15	0.0009088	0.004824	0.000266
303.15	0.0009334	0.00492	0.000272
308.15	1.87e-05	0.00111	6.2e-05
308.15	4.28e-05	0.00126	7.1e-05
308.15	6.7e-05	0.00141	8e-05
308.15	9.11e-05	0.00156	9e-05
308.15	0.0001152	0.00171	9.9e-05
308.15	0.0001394	0.00186	0.000109
308.15	0.0001635	0.00201	0.000119
308.15	0.0001877	0.002159	0.000129
308.15	0.0002118	0.002309	0.000139
308.15	0.000236	0.002459	0.000149
308.15	0.0002601	0.002609	0.000159
308.15	0.0002842	0.002759	0.000169
308.15	0.0003084	0.002909	0.000179
308.15	0.0003325	0.003059	0.000189
308.15	0.0003567	0.003209	0.000199
308.15	0.0003808	0.00336	0.000209
308.15	0.0004099	0.003481	0.000217
308.15	0.000439	0.003604	0.000226
308.15	0.0004681	0.003727	0.000234
308.15	0.0004972	0.00385	0.000242
308.15	0.0005262	0.003973	0.000249
308.15	0.0005553	0.004096	0.000255
308.15	0.0005844	0.004219	0.00026
308.15	0.0006135	0.004342	0.000265
308.15	0.0006426	0.004465	0.000271
308.15	0.0006716	0.004588	0.000276
308.15	0.0007007	0.004711	0.000283
308.15	0.0007298	0.004834	0.000288
308.15	0.0007589	0.004957	0.000295
308.15	0.000788	0.00508	0.0003
308.15	0.0008171	0.005203	0.000307
308.15	0.0008461	0.005326	0.000312
308.15	0.0008752	0.005449	0.000317
308.15	0.0009043	0.005572	0.000324
308.15	0.0009334	0.0057	0.000331

System: N-(2-hydroxyethyl)-N-(2-hydroxypropyl)nonan-1-aminium chloride + water; phases: Liquid, Air at 1 atmosphere
Property: Surface tension liquid-gas, N/m (Liquid); method: Ring tensiometer
Temperature, K	Molality, mol/kg of N-(2-hydroxyethyl)-N-(2-hydroxypropyl)nonan-1-aminium chloride	Surface tension liquid-gas, N/m	uncertainty
293.15	1.7738e-05	0.06116	0.00079
293.15	3.54779e-05	0.05459	0.00071
293.15	8.8696e-05	0.04605	0.00061
293.15	0.00017738	0.03904	0.00053
293.15	0.00026608	0.03547	0.00049
293.15	0.00035478	0.03314	0.00047
293.15	0.00042573	0.03139	0.00045
293.15	0.00088697	0.03048	0.00044
293.15	0.0017739	0.02973	0.00044
293.15	0.0026609	0.02956	0.00043
293.15	0.0035475	0.02948	0.00043
298.15	1.7738e-05	0.05605	0.00073
298.15	3.54779e-05	0.04971	0.00066
298.15	8.8696e-05	0.04162	0.00056
298.15	0.00017738	0.03573	0.00049
298.15	0.00026608	0.03244	0.00046
298.15	0.00036188	0.03045	0.00044
298.15	0.00088697	0.02941	0.00043
298.15	0.0017739	0.0289	0.00043
298.15	0.0026609	0.02856	0.00042
298.15	0.0035475	0.02841	0.00042
303.15	1.7738e-05	0.05135	0.00068
303.15	3.54779e-05	0.04622	0.00062
303.15	8.8696e-05	0.03879	0.00053
303.15	0.00017738	0.03347	0.00047
303.15	0.00026608	0.03023	0.00044
303.15	0.00032286	0.02948	0.00043
303.15	0.00035478	0.02941	0.00043
303.15	0.00088697	0.02848	0.00042
303.15	0.0017739	0.02801	0.00042
303.15	0.0026609	0.02782	0.00042
303.15	0.0035475	0.02765	0.00042
308.15	8.8694e-06	0.05223	0.00069
308.15	1.7738e-05	0.04719	0.00063
308.15	3.54779e-05	0.04229	0.00057
308.15	8.8696e-05	0.03588	0.0005
308.15	0.00017738	0.03089	0.00045
308.15	0.00024834	0.02873	0.00043
308.15	0.00027317	0.02857	0.00042
308.15	0.00035478	0.02844	0.00042
308.15	0.00088697	0.02773	0.00042
308.15	0.0017739	0.02741	0.00041
308.15	0.0026609	0.02723	0.00041

System: N-(2-hydroxyethyl)-N-(2-hydroxypropyl)nonan-1-aminium chloride + water; phases: Liquid
Fixed: Pressure, kPa = 100
Property: Electrical conductivity, S/m (Liquid); method: Alternating current cell with electrodes
Temperature, K	Molality, mol/kg of N-(2-hydroxyethyl)-N-(2-hydroxypropyl)nonan-1-aminium chloride	Electrical conductivity, S/m	uncertainty
293.15	1.77e-05	0.00044	2.5e-05
293.15	3.66e-05	0.000507	2.8e-05
293.15	5.55e-05	0.000574	3.2e-05
293.15	7.43e-05	0.000641	3.5e-05
293.15	9.32e-05	0.000709	4e-05
293.15	0.0001121	0.000776	4.4e-05
293.15	0.0001309	0.000843	4.8e-05
293.15	0.0001498	0.00091	5.2e-05
293.15	0.0001687	0.000977	5.7e-05
293.15	0.0001875	0.001044	6.1e-05
293.15	0.0002064	0.001112	6.5e-05
293.15	0.0002253	0.001179	7e-05
293.15	0.0002441	0.001246	7.4e-05
293.15	0.000263	0.001313	7.9e-05
293.15	0.0002819	0.00138	8.3e-05
293.15	0.0003008	0.001447	8.7e-05
293.15	0.0003196	0.001515	9.2e-05
293.15	0.0003385	0.001582	9.6e-05
293.15	0.0003574	0.001649	0.000101
293.15	0.0003762	0.001716	0.000105
293.15	0.0003951	0.001783	0.00011
293.15	0.000414	0.00185	0.000114
293.15	0.0004328	0.00192	0.000119
293.15	0.0004555	0.001969	0.000122
293.15	0.0004782	0.002019	0.000126
293.15	0.0005009	0.002068	0.000129
293.15	0.0005236	0.002118	0.000131
293.15	0.0005464	0.002167	0.000132
293.15	0.0005691	0.002217	0.000134
293.15	0.0005918	0.002266	0.000135
293.15	0.0006145	0.002316	0.000137
293.15	0.0006372	0.002365	0.000139
293.15	0.0006599	0.002415	0.000141
293.15	0.0006826	0.002464	0.000143
293.15	0.0007053	0.002514	0.000145
293.15	0.000728	0.002563	0.000147
293.15	0.0007507	0.002613	0.000149
293.15	0.0007734	0.002662	0.000151
293.15	0.0007961	0.002712	0.000153
293.15	0.0008188	0.002761	0.000155
293.15	0.0008415	0.002811	0.000157
293.15	0.0008642	0.00286	0.00016
293.15	0.0008869	0.00291	0.000163
298.15	1.77e-05	0.00054	3e-05
298.15	4.07e-05	0.000642	3.7e-05
298.15	6.36e-05	0.000745	4.1e-05
298.15	8.66e-05	0.000848	7.7e-05
298.15	0.0001095	0.00095	5.7e-05
298.15	0.0001324	0.001053	6e-05
298.15	0.0001554	0.001155	6.6e-05
298.15	0.0001783	0.001258	0.000118
298.15	0.0002013	0.00136	9.1e-05
298.15	0.0002242	0.001463	9.3e-05
298.15	0.0002472	0.001565	9.6e-05
298.15	0.0002701	0.001668	9.2e-05
298.15	0.000293	0.001771	0.000394
298.15	0.000316	0.001873	0.000104
298.15	0.0003389	0.001976	0.000208
298.15	0.0003619	0.00208	0.000302
298.15	0.0003881	0.00215	0.000131
298.15	0.0004144	0.002222	0.000142
298.15	0.0004406	0.002294	0.000128
298.15	0.0004669	0.002366	0.000138
298.15	0.0004931	0.002438	0.000134
298.15	0.0005194	0.00251	0.000139
298.15	0.0005456	0.002582	0.000142
298.15	0.0005719	0.002654	0.000183
298.15	0.0005981	0.002726	0.00015
298.15	0.0006244	0.002798	0.000154
298.15	0.0006507	0.00287	0.000158
298.15	0.0006769	0.002942	0.000162
298.15	0.0007032	0.003014	0.000166
298.15	0.0007294	0.003086	0.00017
298.15	0.0007557	0.003158	0.000174
298.15	0.0007819	0.003229	0.000178
298.15	0.0008082	0.003301	0.000182
298.15	0.0008344	0.003373	0.000186
298.15	0.0008607	0.003445	0.00019
298.15	0.0008869	0.00352	0.000194
303.15	1.77e-05	0.00064	3.5e-05
303.15	3.66e-05	0.000736	4.1e-05
303.15	5.54e-05	0.000832	4.6e-05
303.15	7.43e-05	0.000928	5.3e-05
303.15	9.31e-05	0.001024	8.2e-05
303.15	0.000112	0.00112	7e-05
303.15	0.0001308	0.001217	0.000101
303.15	0.0001497	0.001313	7.3e-05
303.15	0.0001685	0.001409	9.1e-05
303.15	0.0001874	0.001505	8.3e-05
303.15	0.0002062	0.001601	0.000207
303.15	0.0002251	0.001697	9.4e-05
303.15	0.0002439	0.001793	0.000101
303.15	0.0002628	0.001889	0.000104
303.15	0.0002816	0.001986	0.000131
303.15	0.0003004	0.002082	0.000123
303.15	0.0003193	0.00218	0.00012
303.15	0.0003451	0.00227	0.000172
303.15	0.0003709	0.002361	0.000132
303.15	0.0003967	0.002451	0.000135
303.15	0.0004225	0.002542	0.000218
303.15	0.0004483	0.002633	0.000193
303.15	0.0004741	0.002724	0.000168
303.15	0.0004999	0.002815	0.000156
303.15	0.0005257	0.002905	0.00016
303.15	0.0005515	0.002996	0.000165
303.15	0.0005773	0.003087	0.00017
303.15	0.0006031	0.003178	0.000175
303.15	0.0006289	0.003269	0.00018
303.15	0.0006547	0.00336	0.000185
303.15	0.0006805	0.00345	0.00019
303.15	0.0007063	0.003541	0.000195
303.15	0.0007321	0.003632	0.0002
303.15	0.0007579	0.003723	0.000205
303.15	0.0007837	0.003814	0.00021
303.15	0.0008095	0.003905	0.000215
303.15	0.0008353	0.003995	0.00022
303.15	0.0008611	0.004086	0.000225
303.15	0.0008869	0.00418	0.00023
308.15	1.77e-05	0.00074	4.1e-05
308.15	3.42e-05	0.000841	4.7e-05
308.15	5.07e-05	0.000941	5.3e-05
308.15	6.72e-05	0.001042	6e-05
308.15	8.36e-05	0.001142	6.6e-05
308.15	0.0001001	0.001243	7.2e-05
308.15	0.0001166	0.001344	7.9e-05
308.15	0.000133	0.001444	8.6e-05
308.15	0.0001495	0.001545	9.2e-05
308.15	0.000166	0.001646	9.9e-05
308.15	0.0001825	0.001746	0.000106
308.15	0.0001989	0.001847	0.000112
308.15	0.0002154	0.001948	0.000119
308.15	0.0002319	0.002048	0.000126
308.15	0.0002483	0.00215	0.000133
308.15	0.0002803	0.00229	0.000142
308.15	0.0003122	0.002431	0.000152
308.15	0.0003441	0.002571	0.000161
308.15	0.0003761	0.002712	0.000171
308.15	0.000408	0.002852	0.00018
308.15	0.0004399	0.002993	0.00019
308.15	0.0004718	0.003133	0.000199
308.15	0.0005038	0.003274	0.000209
308.15	0.0005357	0.003414	0.000216
308.15	0.0005676	0.003555	0.000222
308.15	0.0005996	0.003695	0.000228
308.15	0.0006315	0.003836	0.000234
308.15	0.0006634	0.003976	0.000242
308.15	0.0006954	0.004117	0.000248
308.15	0.0007273	0.004257	0.000254
308.15	0.0007592	0.004398	0.000262
308.15	0.0007911	0.004538	0.000268
308.15	0.0008231	0.004679	0.000275
308.15	0.000855	0.004819	0.000283
308.15	0.0008869	0.00496	0.000291

System: N-(2-hydroxyethyl)-N-(2-hydroxypropyl)dodecan-1-aminium chloride + water; phases: Liquid, Air at 1 atmosphere
Property: Surface tension liquid-gas, N/m (Liquid); method: Ring tensiometer
Temperature, K	Molality, mol/kg of N-(2-hydroxyethyl)-N-(2-hydroxypropyl)dodecan-1-aminium chloride	Surface tension liquid-gas, N/m	uncertainty
293.15	1.54346e-05	0.05921	0.00077
293.15	3.08677e-05	0.05272	0.00069
293.15	3.85868e-05	0.05031	0.00066
293.15	7.717e-05	0.04402	0.00059
293.15	0.00015435	0.03772	0.00052
293.15	0.00023151	0.03411	0.00048
293.15	0.00030868	0.03152	0.00045
293.15	0.00035189	0.03047	0.00044
293.15	0.00077171	0.03003	0.00044
293.15	0.0015435	0.02953	0.00043
293.15	0.0023151	0.02953	0.00043
298.15	1.54346e-05	0.05403	0.00071
298.15	3.08677e-05	0.04802	0.00064
298.15	3.85868e-05	0.04591	0.00061
298.15	7.717e-05	0.04	0.00054
298.15	0.00015435	0.03451	0.00048
298.15	0.00023151	0.03142	0.00045
298.15	0.00029325	0.02991	0.00044
298.15	0.00077171	0.02914	0.00043
298.15	0.0015435	0.02862	0.00043
298.15	0.0023151	0.02822	0.00042
298.15	0.0030869	0.02801	0.00042
303.15	1.08039e-05	0.05251	0.00069
303.15	1.54346e-05	0.04991	0.00066
303.15	3.08677e-05	0.04482	0.0006
303.15	3.85868e-05	0.04283	0.00058
303.15	7.717e-05	0.038	0.00052
303.15	0.00015435	0.03262	0.00046
303.15	0.00023151	0.02991	0.00044
303.15	0.00027967	0.02896	0.00043
303.15	0.00077171	0.02821	0.00042
303.15	0.0015435	0.02764	0.00042
303.15	0.0023151	0.02764	0.00042
303.15	0.0030869	0.02764	0.00042
308.15	8.9523e-06	0.05044	0.00067
308.15	1.54346e-05	0.04651	0.00062
308.15	3.08677e-05	0.04189	0.00057
308.15	3.85868e-05	0.04038	0.00055
308.15	7.717e-05	0.03557	0.00049
308.15	0.00015435	0.03104	0.00045
308.15	0.00026238	0.02774	0.00042
308.15	0.00030868	0.02774	0.00042
308.15	0.00077171	0.02755	0.00042
308.15	0.0015435	0.02708	0.00041
308.15	0.0023151	0.02679	0.00041
308.15	0.0030869	0.02679	0.00041

System: N-(2-hydroxyethyl)-N-(2-hydroxypropyl)dodecan-1-aminium chloride + water; phases: Liquid
Fixed: Pressure, kPa = 100
Property: Electrical conductivity, S/m (Liquid); method: Alternating current cell with electrodes
Temperature, K	Molality, mol/kg of N-(2-hydroxyethyl)-N-(2-hydroxypropyl)dodecan-1-aminium chloride	Electrical conductivity, S/m	uncertainty
293.15	1.54e-05	0.00031	1.8e-05
293.15	3.95e-05	0.00039	2.1e-05
293.15	6.35e-05	0.00047	2.6e-05
293.15	8.75e-05	0.000551	3.1e-05
293.15	0.0001116	0.000631	3.6e-05
293.15	0.0001356	0.000711	4.1e-05
293.15	0.0001596	0.000791	4.6e-05
293.15	0.0001837	0.000872	5.1e-05
293.15	0.0002077	0.000952	5.7e-05
293.15	0.0002317	0.001032	6.2e-05
293.15	0.0002558	0.001113	6.7e-05
293.15	0.0002798	0.001193	7.3e-05
293.15	0.0003038	0.001273	7.8e-05
293.15	0.0003279	0.001353	8.3e-05
293.15	0.0003519	0.001435	8.9e-05
293.15	0.0003819	0.001484	9.2e-05
293.15	0.0004119	0.001534	9.6e-05
293.15	0.0004419	0.001585	9.9e-05
293.15	0.0004719	0.001635	0.000102
293.15	0.0005018	0.001685	0.000106
293.15	0.0005318	0.001736	0.000108
293.15	0.0005618	0.001786	0.000108
293.15	0.0005918	0.001837	0.00011
293.15	0.0006218	0.001887	0.000111
293.15	0.0006518	0.001937	0.000114
293.15	0.0006818	0.001988	0.000115
293.15	0.0007118	0.002038	0.000116
293.15	0.0007417	0.002088	0.000119
293.15	0.0007717	0.002142	0.000121
298.15	1.54e-05	0.00041	2.3e-05
298.15	3.51e-05	0.000488	2.7e-05
298.15	5.47e-05	0.000565	3.2e-05
298.15	7.43e-05	0.000643	3.8e-05
298.15	9.39e-05	0.000721	4e-05
298.15	0.0001136	0.000798	4.4e-05
298.15	0.0001332	0.000876	4.9e-05
298.15	0.0001528	0.000954	7e-05
298.15	0.0001724	0.001032	6.5e-05
298.15	0.000192	0.001109	7.2e-05
298.15	0.0002117	0.001187	6.6e-05
298.15	0.0002313	0.001265	7.1e-05
298.15	0.0002509	0.001342	7.4e-05
298.15	0.0002705	0.00142	7.8e-05
298.15	0.0002902	0.0015	0.000231
298.15	0.0003155	0.001556	0.0003
298.15	0.0003409	0.001614	9.1e-05
298.15	0.0003662	0.001672	0.000108
298.15	0.0003915	0.00173	9.6e-05
298.15	0.0004169	0.001788	0.000103
298.15	0.0004422	0.001845	0.000171
298.15	0.0004676	0.001903	0.000109
298.15	0.0004929	0.001961	0.000126
298.15	0.0005183	0.002019	0.000111
298.15	0.0005436	0.002077	0.000114
298.15	0.000569	0.002134	0.000117
298.15	0.0005943	0.002192	0.000121
298.15	0.0006197	0.00225	0.000124
298.15	0.000645	0.002308	0.000127
298.15	0.0006703	0.002365	0.00013
298.15	0.0006957	0.002423	0.000133
298.15	0.000721	0.002481	0.000137
298.15	0.0007464	0.002539	0.00014
298.15	0.0007717	0.0026	0.000143
303.15	1.54e-05	0.00051	2.8e-05
303.15	3.44e-05	0.000593	3.3e-05
303.15	5.34e-05	0.000676	3.7e-05
303.15	7.23e-05	0.000759	4.2e-05
303.15	9.13e-05	0.000841	4.6e-05
303.15	0.0001102	0.000924	7.1e-05
303.15	0.0001292	0.001007	5.9e-05
303.15	0.0001482	0.00109	7.6e-05
303.15	0.0001671	0.001173	8.2e-05
303.15	0.0001861	0.001256	0.000224
303.15	0.0002051	0.001339	7.4e-05
303.15	0.000224	0.001421	7.9e-05
303.15	0.000243	0.001504	8.3e-05
303.15	0.0002619	0.001587	0.000184
303.15	0.0002809	0.00167	0.0001
303.15	0.0003067	0.001739	0.000102
303.15	0.0003326	0.001809	0.000109
303.15	0.0003584	0.001879	0.000104
303.15	0.0003842	0.001948	0.000109
303.15	0.0004101	0.002018	0.000151
303.15	0.0004359	0.002088	0.000117
303.15	0.0004617	0.002158	0.000194
303.15	0.0004876	0.002227	0.000127
303.15	0.0005134	0.002297	0.000298
303.15	0.0005392	0.002367	0.000133
303.15	0.0005651	0.002437	0.000144
303.15	0.0005909	0.002506	0.000165
303.15	0.0006167	0.002576	0.000144
303.15	0.0006426	0.002646	0.000147
303.15	0.0006684	0.002716	0.000365
303.15	0.0006942	0.002785	0.000153
303.15	0.0007201	0.002855	0.000159
303.15	0.0007459	0.002925	0.000241
303.15	0.0007717	0.002996	0.000165
308.15	1.54e-05	0.00061	3.4e-05
308.15	3.51e-05	0.000702	3.9e-05
308.15	5.47e-05	0.000794	4.5e-05
308.15	7.43e-05	0.000886	5.1e-05
308.15	9.39e-05	0.000978	5.7e-05
308.15	0.0001136	0.00107	6.3e-05
308.15	0.0001332	0.001162	6.9e-05
308.15	0.0001528	0.001254	7.5e-05
308.15	0.0001724	0.001346	8.1e-05
308.15	0.000192	0.001438	8.7e-05
308.15	0.0002117	0.00153	9.4e-05
308.15	0.0002313	0.001622	0.0001
308.15	0.0002509	0.001714	0.000106
308.15	0.0002705	0.001806	0.000112
308.15	0.0002902	0.0019	0.000118
308.15	0.0003169	0.001984	0.000124
308.15	0.0003437	0.002068	0.00013
308.15	0.0003704	0.002153	0.000135
308.15	0.0003972	0.002237	0.000141
308.15	0.0004239	0.002322	0.000147
308.15	0.0004507	0.002406	0.000153
308.15	0.0004774	0.002491	0.000158
308.15	0.0005042	0.002575	0.000164
308.15	0.0005309	0.00266	0.000168
308.15	0.0005577	0.002745	0.000171
308.15	0.0005845	0.002829	0.000175
308.15	0.0006112	0.002914	0.000177
308.15	0.000638	0.002998	0.000182
308.15	0.0006647	0.003083	0.000186
308.15	0.0006915	0.003167	0.000189
308.15	0.0007182	0.003252	0.000193
308.15	0.000745	0.003336	0.000196
308.15	0.0007717	0.003423	0.000201

System: N-(2-hydroxyethyl)-N-(2-hydroxypropyl)hexadecan-1-aminium chloride + water; phases: Liquid, Air at 1 atmosphere
Property: Surface tension liquid-gas, N/m (Liquid); method: Ring tensiometer
Temperature, K	Molality, mol/kg of N-(2-hydroxyethyl)-N-(2-hydroxypropyl)hexadecan-1-aminium chloride	Surface tension liquid-gas, N/m	uncertainty
293.15	1.05245e-05	0.05982	0.00078
293.15	1.57874e-05	0.05669	0.00074
293.15	2.63116e-05	0.05201	0.00068
293.15	5.2626e-05	0.04556	0.00061
293.15	0.00010525	0.03923	0.00054
293.15	0.00015788	0.03588	0.0005
293.15	0.00021048	0.03488	0.00049
293.15	0.00026312	0.03406	0.00048
293.15	0.00052622	0.03243	0.00046
293.15	0.0010525	0.03143	0.00045
293.15	0.0015786	0.03107	0.00045
298.15	7.89327e-06	0.05632	0.00073
298.15	1.05245e-05	0.05411	0.00071
298.15	1.57874e-05	0.05072	0.00067
298.15	2.63116e-05	0.04633	0.00062
298.15	5.2626e-05	0.04082	0.00055
298.15	0.00010525	0.03511	0.00049
298.15	0.00014998	0.03252	0.00046
298.15	0.00021048	0.03191	0.00046
298.15	0.00026312	0.03141	0.00045
298.15	0.00052622	0.0308	0.00045
298.15	0.0010525	0.03003	0.00044
298.15	0.0015786	0.02971	0.00044
303.15	6.57787e-06	0.05223	0.00069
303.15	7.89327e-06	0.05081	0.00067
303.15	1.05245e-05	0.04855	0.00064
303.15	1.57874e-05	0.04589	0.00061
303.15	2.63116e-05	0.04223	0.00057
303.15	5.2626e-05	0.03706	0.00051
303.15	0.00010525	0.03207	0.00046
303.15	0.00013155	0.03101	0.00045
303.15	0.00015788	0.03051	0.00044
303.15	0.00021048	0.03045	0.00044
303.15	0.00026312	0.03043	0.00044
303.15	0.00052622	0.02989	0.00044
303.15	0.0010525	0.02916	0.00043
303.15	0.0015786	0.02881	0.00043
308.15	4.60439e-06	0.05201	0.00068
308.15	7.89327e-06	0.04813	0.00064
308.15	1.05245e-05	0.046	0.00061
308.15	1.57874e-05	0.04323	0.00058
308.15	2.63116e-05	0.03978	0.00054
308.15	5.2626e-05	0.03506	0.00049
308.15	0.00012104	0.02971	0.00044
308.15	0.00015788	0.02944	0.00043
308.15	0.00021048	0.02916	0.00043
308.15	0.00026312	0.02902	0.00043
308.15	0.00052622	0.02871	0.00043
308.15	0.0010525	0.02826	0.00042
308.15	0.0015786	0.02807	0.00042

System: N-(2-hydroxyethyl)-N-(2-hydroxypropyl)hexadecan-1-aminium chloride + water; phases: Liquid
Fixed: Pressure, kPa = 100
Property: Electrical conductivity, S/m (Liquid); method: Alternating current cell with electrodes
Temperature, K	Molality, mol/kg of N-(2-hydroxyethyl)-N-(2-hydroxypropyl)hexadecan-1-aminium chloride	Electrical conductivity, S/m	uncertainty
293.15	0.0001263	0.000446	2.5e-05
293.15	0.0001316	0.000471	2.6e-05
293.15	0.0001368	0.000496	2.8e-05
293.15	0.0001421	0.000522	2.9e-05
293.15	0.0001473	0.000548	3.1e-05
293.15	0.0001526	0.000573	3.2e-05
293.15	0.0001579	0.000595	3.4e-05
293.15	0.000171	0.00061	3.5e-05
293.15	0.0001842	0.000621	3.5e-05
293.15	0.0001973	0.000633	3.6e-05
293.15	0.0002105	0.000644	3.7e-05
293.15	0.0002236	0.000655	3.7e-05
293.15	0.0002368	0.000667	3.8e-05
293.15	0.00025	0.000678	3.9e-05
293.15	0.0002631	0.000689	4e-05
293.15	0.0002763	0.000701	4e-05
293.15	0.0002894	0.000712	4.1e-05
293.15	0.0003026	0.000723	4.2e-05
293.15	0.0003157	0.000737	4.3e-05
298.15	9.47e-05	0.000409	2.3e-05
298.15	0.0001016	0.000433	2.4e-05
298.15	0.0001085	0.000458	2.5e-05
298.15	0.0001154	0.000482	2.7e-05
298.15	0.0001223	0.000507	2.8e-05
298.15	0.0001293	0.000531	2.9e-05
298.15	0.0001362	0.000556	3.1e-05
298.15	0.0001431	0.000581	3.2e-05
298.15	0.00015	0.000606	3.3e-05
298.15	0.0001618	0.000621	3.4e-05
298.15	0.0001737	0.000637	3.5e-05
298.15	0.0001855	0.000653	3.6e-05
298.15	0.0001973	0.000669	3.7e-05
298.15	0.0002092	0.000684	3.8e-05
298.15	0.000221	0.0007	3.9e-05
298.15	0.0002329	0.000716	3.9e-05
298.15	0.0002447	0.000732	4e-05
298.15	0.0002565	0.000748	4.1e-05
298.15	0.0002684	0.000764	4.2e-05
298.15	0.0002802	0.00078	4.3e-05
298.15	0.0002921	0.000796	4.4e-05
298.15	0.0003039	0.000811	4.5e-05
298.15	0.0003157	0.000829	4.6e-05
303.15	9.47e-05	0.000467	2.6e-05
303.15	9.9e-05	0.000486	2.7e-05
303.15	0.0001033	0.000505	2.8e-05
303.15	0.0001075	0.000524	2.9e-05
303.15	0.0001118	0.000544	3e-05
303.15	0.0001161	0.000563	3.1e-05
303.15	0.0001204	0.000582	3.2e-05
303.15	0.0001247	0.000601	3.3e-05
303.15	0.0001289	0.000621	3.4e-05
303.15	0.0001423	0.000643	3.5e-05
303.15	0.0001556	0.000666	3.7e-05
303.15	0.000169	0.000689	3.8e-05
303.15	0.0001823	0.000712	3.9e-05
303.15	0.0001956	0.000735	4e-05
303.15	0.000209	0.000757	4.2e-05
303.15	0.0002223	0.00078	4.3e-05
303.15	0.0002357	0.000803	4.4e-05
303.15	0.000249	0.000826	4.5e-05
303.15	0.0002624	0.000849	4.7e-05
303.15	0.0002757	0.000872	4.8e-05
303.15	0.0002891	0.000895	4.9e-05
303.15	0.0003024	0.000918	5.1e-05
303.15	0.0003157	0.000944	5.2e-05
308.15	7.37e-05	0.000445	2.4e-05
308.15	8.04e-05	0.000472	2.6e-05
308.15	8.72e-05	0.0005	2.8e-05
308.15	9.4e-05	0.000528	2.9e-05
308.15	0.0001007	0.000556	3.1e-05
308.15	0.0001075	0.000583	3.2e-05
308.15	0.0001143	0.000611	3.4e-05
308.15	0.000121	0.00064	3.6e-05
308.15	0.00013	0.000659	3.7e-05
308.15	0.0001389	0.000679	3.8e-05
308.15	0.0001479	0.000699	4e-05
308.15	0.0001568	0.000719	4.1e-05
308.15	0.0001658	0.000739	4.2e-05
308.15	0.0001747	0.000759	4.3e-05
308.15	0.0001837	0.000778	4.5e-05
308.15	0.0001926	0.000798	4.6e-05
308.15	0.0002015	0.000818	4.7e-05
308.15	0.0002105	0.000839	4.8e-05
308.15	0.0002194	0.000858	5e-05
308.15	0.0002284	0.000878	5.1e-05
308.15	0.0002373	0.000898	5.2e-05
308.15	0.0002463	0.000917	5.4e-05
308.15	0.0002552	0.000937	5.5e-05
308.15	0.0002642	0.000957	5.6e-05
308.15	0.0002731	0.000977	5.7e-05
308.15	0.0002821	0.000997	5.9e-05
308.15	0.000291	0.001017	6e-05
