Measured thermophysical data. Thermodynamic Interactions Study of Some Ethylene Glycols in Aqueous Aniline Solutions at Different Temperatures: An Acoustical and Volumetric Approach
Source: J. Chem. Eng. Data, 2018, 10.1021/acs.jced.8b00058
Compound 1: 1,2-ethanediol, C2H6O2, InChI=1S/C2H6O2/c3-1-2-4/h3-4H,1-2H2, purity 99%
Compound 2: diethylene glycol, C4H10O3, InChI=1S/C4H10O3/c5-1-3-7-4-2-6/h5-6H,1-4H2, purity 98.5%
Compound 3: triethylene glycol, C6H14O4, InChI=1S/C6H14O4/c7-1-3-9-5-6-10-4-2-8/h7-8H,1-6H2, purity 98%
Compound 4: aniline, C6H7N, InChI=1S/C6H7N/c7-6-4-2-1-3-5-6/h1-5H,7H2, purity 98%
Compound 5: water, H2O, InChI=1S/H2O/h1H2, purity 99.9%

System: water; phases: Liquid
Fixed: Pressure, kPa = 100
Property: Mass density, kg/m3 (Liquid); method: Vibrating tube method
Temperature, K	Mass density, kg/m3	uncertainty
293.15	998.211	1.001
298.15	997.047	1.001
303.15	995.656	1.001
308.15	994.039	1.001

System: water; phases: Liquid
Fixed: Pressure, kPa = 100
Fixed: Frequency, MHz = 3
Property: Speed of sound, m/s (Liquid); method: Single path-length method
Temperature, K	Speed of sound, m/s	uncertainty
293.15	1481.14	2.03
298.15	1495.85	2.02
303.15	1508.84	2.02
308.15	1519.14	2.02

System: 1,2-ethanediol + aniline + water; phases: Liquid
Fixed: Pressure, kPa = 100
Property: Mass density, kg/m3 (Liquid); method: Vibrating tube method
Molality, mol/kg of 1,2-ethanediol	Solvent: Molality, mol/kg of aniline	Temperature, K	Mass density, kg/m3	uncertainty
0	0	293.15	998.211	1.024
0.09889	0	293.15	999.059	1.024
0.19894	0	293.15	999.884	1.024
0.29967	0	293.15	1000.683	1.025
0.39481	0	293.15	1001.405	1.025
0.50155	0	293.15	1002.197	1.025
0	0	298.15	997.047	1.024
0.09889	0	298.15	997.877	1.024
0.19894	0	298.15	998.688	1.024
0.29967	0	298.15	999.473	1.024
0.39481	0	298.15	1000.184	1.025
0.50155	0	298.15	1000.961	1.025
0	0	303.15	995.656	1.025
0.09889	0	303.15	996.471	1.025
0.19894	0	303.15	997.262	1.025
0.29967	0	303.15	998.033	1.025
0.39481	0	303.15	998.733	1.025
0.50155	0	303.15	999.48	1.025
0	0	308.15	994.039	1.025
0.09889	0	308.15	994.84	1.025
0.19894	0	308.15	995.613	1.025
0.29967	0	308.15	996.362	1.025
0.39481	0	308.15	997.038	1.025
0.50155	0	308.15	997.764	1.025
0	0.1	293.15	998.568	1.024
0.09818	0.1	293.15	999.387	1.024
0.20167	0.1	293.15	1000.239	1.024
0.29937	0.1	293.15	1001.021	1.025
0.40149	0.1	293.15	1001.832	1.025
0.50322	0.1	293.15	1002.627	1.025
0	0.1	298.15	997.421	1.024
0.09818	0.1	298.15	998.226	1.024
0.20167	0.1	298.15	999.06	1.024
0.29937	0.1	298.15	999.836	1.024
0.40149	0.1	298.15	1000.627	1.025
0.50322	0.1	298.15	1001.408	1.025
0	0.1	303.15	995.983	1.025
0.09818	0.1	303.15	996.771	1.025
0.20167	0.1	303.15	997.58	1.025
0.29937	0.1	303.15	998.33	1.025
0.40149	0.1	303.15	999.086	1.025
0.50322	0.1	303.15	999.832	1.025
0	0.1	308.15	994.351	1.025
0.09818	0.1	308.15	995.13	1.025
0.20167	0.1	308.15	995.924	1.025
0.29937	0.1	308.15	996.656	1.025
0.40149	0.1	308.15	997.39	1.025
0.50322	0.1	308.15	998.13	1.025
0	0.2	293.15	998.972	1.024
0.10369	0.2	293.15	999.831	1.024
0.20535	0.2	293.15	1000.659	1.025
0.30972	0.2	293.15	1001.5	1.025
0.41005	0.2	293.15	1002.293	1.025
0.51061	0.2	293.15	1003.08	1.025
0	0.2	298.15	997.813	1.024
0.10369	0.2	298.15	998.661	1.024
0.20535	0.2	298.15	999.474	1.024
0.30972	0.2	298.15	1000.296	1.025
0.41005	0.2	298.15	1001.075	1.025
0.51061	0.2	298.15	1001.848	1.025
0	0.2	303.15	996.326	1.025
0.10369	0.2	303.15	997.157	1.025
0.20535	0.2	303.15	997.957	1.025
0.30972	0.2	303.15	998.76	1.025
0.41005	0.2	303.15	999.519	1.025
0.51061	0.2	303.15	1000.271	1.025
0	0.2	308.15	994.684	1.025
0.10369	0.2	308.15	995.499	1.025
0.20535	0.2	308.15	996.282	1.025
0.30972	0.2	308.15	997.062	1.025
0.41005	0.2	308.15	997.8	1.025
0.51061	0.2	308.15	998.539	1.025
0	0.3	293.15	999.363	1.024
0.09856	0.3	293.15	1000.176	1.024
0.19958	0.3	293.15	1000.998	1.025
0.30015	0.3	293.15	1001.806	1.025
0.38959	0.3	293.15	1002.511	1.025
0.49995	0.3	293.15	1003.374	1.025
0	0.3	298.15	998.208	1.024
0.09856	0.3	298.15	998.987	1.024
0.19958	0.3	298.15	999.823	1.024
0.30015	0.3	298.15	1000.588	1.025
0.38959	0.3	298.15	1001.281	1.025
0.49995	0.3	298.15	1002.159	1.025
0	0.3	303.15	996.705	1.025
0.09856	0.3	303.15	997.483	1.025
0.19958	0.3	303.15	998.267	1.025
0.30015	0.3	303.15	999.03	1.025
0.38959	0.3	303.15	999.701	1.025
0.49995	0.3	303.15	1000.523	1.025
0	0.3	308.15	995.035	1.025
0.09856	0.3	308.15	995.774	1.025
0.19958	0.3	308.15	996.532	1.025
0.30015	0.3	308.15	997.286	1.025
0.38959	0.3	308.15	997.957	1.025
0.49995	0.3	308.15	998.785	1.025
0	0.4	293.15	999.783	1.024
0.10015	0.4	293.15	1000.603	1.025
0.19986	0.4	293.15	1001.408	1.025
0.30054	0.4	293.15	1002.205	1.025
0.39985	0.4	293.15	1002.985	1.025
0.50125	0.4	293.15	1003.766	1.025
0	0.4	298.15	998.592	1.024
0.10015	0.4	298.15	999.41	1.024
0.19986	0.4	298.15	1000.213	1.025
0.30054	0.4	298.15	1001.01	1.025
0.39985	0.4	298.15	1001.788	1.025
0.50125	0.4	298.15	1002.566	1.025
0	0.4	303.15	997.079	1.025
0.10015	0.4	303.15	997.866	1.025
0.19986	0.4	303.15	998.638	1.025
0.30054	0.4	303.15	999.402	1.025
0.39985	0.4	303.15	1000.142	1.025
0.50125	0.4	303.15	1000.889	1.025
0	0.4	308.15	995.385	1.025
0.10015	0.4	308.15	996.155	1.025
0.19986	0.4	308.15	996.909	1.025
0.30054	0.4	308.15	997.652	1.025
0.39985	0.4	308.15	998.381	1.025
0.50125	0.4	308.15	999.111	1.025

System: 1,2-ethanediol + aniline + water; phases: Liquid
Fixed: Pressure, kPa = 100
Fixed: Frequency, MHz = 3
Property: Speed of sound, m/s (Liquid); method: Single path-length method
Molality, mol/kg of 1,2-ethanediol	Solvent: Molality, mol/kg of aniline	Temperature, K	Speed of sound, m/s	uncertainty
0	0	293.15	1481.14	2.27
0.09889	0	293.15	1485.54	2.27
0.19894	0	293.15	1488.34	2.27
0.29967	0	293.15	1491.19	2.27
0.39481	0	293.15	1493.86	2.27
0.50155	0	293.15	1496.84	2.27
0	0	298.15	1495.85	2.27
0.09889	0	298.15	1498.92	2.27
0.19894	0	298.15	1501.72	2.27
0.29967	0	298.15	1504.29	2.27
0.39481	0	298.15	1506.64	2.27
0.50155	0	298.15	1509.09	2.27
0	0	303.15	1508.84	2.27
0.09889	0	303.15	1511.12	2.27
0.19894	0	303.15	1513.75	2.26
0.29967	0	303.15	1516.15	2.26
0.39481	0	303.15	1518.69	2.26
0.50155	0	303.15	1521.22	2.26
0	0	308.15	1519.14	2.26
0.09889	0	308.15	1521.84	2.26
0.19894	0	308.15	1524.03	2.26
0.29967	0	308.15	1526.18	2.26
0.39481	0	308.15	1528.28	2.26
0.50155	0	308.15	1530.34	2.26
0	0.1	293.15	1483.27	2.27
0.09818	0.1	293.15	1485.88	2.27
0.20167	0.1	293.15	1488.62	2.27
0.29937	0.1	293.15	1491.22	2.27
0.40149	0.1	293.15	1493.93	2.27
0.50322	0.1	293.15	1496.63	2.27
0	0.1	298.15	1497.15	2.27
0.09818	0.1	298.15	1499.61	2.27
0.20167	0.1	298.15	1502.2	2.27
0.29937	0.1	298.15	1504.65	2.27
0.40149	0.1	298.15	1507.21	2.27
0.50322	0.1	298.15	1509.76	2.27
0	0.1	303.15	1509.55	2.27
0.09818	0.1	303.15	1511.88	2.26
0.20167	0.1	303.15	1514.35	2.26
0.29937	0.1	303.15	1516.67	2.26
0.40149	0.1	303.15	1519.1	2.26
0.50322	0.1	303.15	1521.52	2.26
0	0.1	308.15	1520.53	2.26
0.09818	0.1	308.15	1522.29	2.26
0.20167	0.1	308.15	1524.58	2.26
0.29937	0.1	308.15	1526.74	2.26
0.40149	0.1	308.15	1529	2.26
0.50322	0.1	308.15	1531.25	2.26
0	0.2	293.15	1485.05	2.27
0.10369	0.2	293.15	1487.8	2.27
0.20535	0.2	293.15	1490.5	2.27
0.30972	0.2	293.15	1493.27	2.27
0.41005	0.2	293.15	1495.94	2.27
0.51061	0.2	293.15	1498.61	2.27
0	0.2	298.15	1498.68	2.27
0.10369	0.2	298.15	1501.32	2.27
0.20535	0.2	298.15	1503.91	2.27
0.30972	0.2	298.15	1506.56	2.27
0.41005	0.2	298.15	1509.12	2.27
0.51061	0.2	298.15	1511.68	2.27
0	0.2	303.15	1510.83	2.26
0.10369	0.2	303.15	1513.3	2.26
0.20535	0.2	303.15	1515.71	2.26
0.30972	0.2	303.15	1518.19	2.26
0.41005	0.2	303.15	1520.58	2.26
0.51061	0.2	303.15	1522.97	2.26
0	0.2	308.15	1520.53	2.26
0.10369	0.2	308.15	1522.73	2.26
0.20535	0.2	308.15	1525.05	2.26
0.30972	0.2	308.15	1527.24	2.26
0.41005	0.2	308.15	1529.53	2.26
0.51061	0.2	308.15	1531.81	2.26
0	0.3	293.15	1486.85	2.27
0.09856	0.3	293.15	1489.47	2.27
0.19958	0.3	293.15	1492.15	2.27
0.30015	0.3	293.15	1494.82	2.27
0.38959	0.3	293.15	1497.19	2.27
0.49995	0.3	293.15	1500.12	2.27
0	0.3	298.15	1500.04	2.27
0.09856	0.3	298.15	1502.54	2.27
0.19958	0.3	298.15	1505.11	2.27
0.30015	0.3	298.15	1507.66	2.27
0.38959	0.3	298.15	1509.93	2.27
0.49995	0.3	298.15	1512.73	2.27
0	0.3	303.15	1512.11	2.26
0.09856	0.3	303.15	1514.45	2.26
0.19958	0.3	303.15	1516.86	2.26
0.30015	0.3	303.15	1519.25	2.26
0.38959	0.3	303.15	1521.37	2.26
0.49995	0.3	303.15	1524	2.26
0	0.3	308.15	1521.91	2.26
0.09856	0.3	308.15	1524.3	2.26
0.19958	0.3	308.15	1526.65	2.26
0.30015	0.3	308.15	1529.06	2.26
0.38959	0.3	308.15	1531.38	2.26
0.49995	0.3	308.15	1533.7	2.26
0	0.4	293.15	1488.61	2.27
0.10015	0.4	293.15	1491.27	2.27
0.19986	0.4	293.15	1493.92	2.27
0.30054	0.4	293.15	1496.59	2.27
0.39985	0.4	293.15	1499.23	2.27
0.50125	0.4	293.15	1501.92	2.27
0	0.4	298.15	1501.98	2.27
0.10015	0.4	298.15	1504.43	2.27
0.19986	0.4	298.15	1506.88	2.27
0.30054	0.4	298.15	1509.34	2.27
0.39985	0.4	298.15	1511.77	2.27
0.50125	0.4	298.15	1514.26	2.27
0	0.4	303.15	1513.45	2.26
0.10015	0.4	303.15	1515.83	2.26
0.19986	0.4	303.15	1518.2	2.26
0.30054	0.4	303.15	1520.6	2.26
0.39985	0.4	303.15	1522.96	2.26
0.50125	0.4	303.15	1525.37	2.26
0	0.4	308.15	1523.57	2.26
0.10015	0.4	308.15	1525.78	2.26
0.19986	0.4	308.15	1527.99	2.26
0.30054	0.4	308.15	1530.21	2.26
0.39985	0.4	308.15	1532.41	2.26
0.50125	0.4	308.15	1534.65	2.26

System: diethylene glycol + aniline + water; phases: Liquid
Fixed: Pressure, kPa = 100
Property: Mass density, kg/m3 (Liquid); method: Vibrating tube method
Molality, mol/kg of diethylene glycol	Solvent: Molality, mol/kg of aniline	Temperature, K	Mass density, kg/m3	uncertainty
0	0	293.15	998.211	1.041
0.09849	0	293.15	999.647	1.041
0.19736	0	293.15	1001.031	1.041
0.29505	0	293.15	1002.356	1.042
0.41013	0	293.15	1003.859	1.042
0.50063	0	293.15	1004.993	1.043
0	0	298.15	997.047	1.041
0.09849	0	298.15	998.458	1.041
0.19736	0	298.15	999.78	1.041
0.29505	0	298.15	1001.026	1.042
0.41013	0	298.15	1002.49	1.042
0.50063	0	298.15	1003.585	1.042
0	0	303.15	995.656	1.041
0.09849	0	303.15	997.071	1.041
0.19736	0	303.15	998.395	1.041
0.29505	0	303.15	999.643	1.041
0.41013	0	303.15	1001.051	1.042
0.50063	0	303.15	1002.146	1.042
0	0	308.15	994.039	1.041
0.09849	0	308.15	995.44	1.041
0.19736	0	308.15	996.778	1.041
0.29505	0	308.15	998.046	1.041
0.41013	0	308.15	999.471	1.041
0.50063	0	308.15	1000.531	1.042
0	0.1	293.15	998.57	1.04
0.09555	0.1	293.15	999.94	1.04
0.20045	0.1	293.15	1001.41	1.04
0.29954	0.1	293.15	1002.77	1.04
0.4018	0.1	293.15	1004.14	1.04
0.49777	0.1	293.15	1005.4	1.04
0	0.1	298.15	997.42	1.04
0.09555	0.1	298.15	998.78	1.04
0.20045	0.1	298.15	1000.24	1.04
0.29954	0.1	298.15	1001.6	1.04
0.4018	0.1	298.15	1002.91	1.04
0.49777	0.1	298.15	1004.13	1.04
0	0.1	303.15	995.98	1.04
0.09555	0.1	303.15	997.33	1.04
0.20045	0.1	303.15	998.78	1.04
0.29954	0.1	303.15	1000.12	1.04
0.4018	0.1	303.15	1001.38	1.04
0.49777	0.1	303.15	1002.6	1.04
0	0.1	308.15	994.35	1.04
0.09555	0.1	308.15	995.67	1.04
0.20045	0.1	308.15	997.09	1.04
0.29954	0.1	308.15	998.36	1.04
0.4018	0.1	308.15	999.64	1.04
0.49777	0.1	308.15	1000.85	1.04
0	0.2	293.15	998.97	1.04
0.09854	0.2	293.15	1000.37	1.04
0.19939	0.2	293.15	1001.78	1.04
0.29736	0.2	293.15	1003.11	1.04
0.39857	0.2	293.15	1004.47	1.04
0.50117	0.2	293.15	1005.81	1.04
0	0.2	298.15	997.81	1.04
0.09854	0.2	298.15	999.2	1.04
0.19939	0.2	298.15	1000.6	1.04
0.29736	0.2	298.15	1001.92	1.04
0.39857	0.2	298.15	1003.26	1.04
0.50117	0.2	298.15	1004.58	1.04
0	0.2	303.15	996.33	1.04
0.09854	0.2	303.15	997.71	1.04
0.19939	0.2	303.15	999.09	1.04
0.29736	0.2	303.15	1000.39	1.04
0.39857	0.2	303.15	1001.72	1.04
0.50117	0.2	303.15	1003.03	1.04
0	0.2	308.15	994.68	1.04
0.09854	0.2	308.15	996.04	1.04
0.19939	0.2	308.15	997.39	1.04
0.29736	0.2	308.15	998.68	1.04
0.39857	0.2	308.15	999.97	1.04
0.50117	0.2	308.15	1001.26	1.04
0	0.3	293.15	999.36	1.04
0.09899	0.3	293.15	1000.75	1.04
0.19995	0.3	293.15	1002.14	1.04
0.28986	0.3	293.15	1003.35	1.04
0.39954	0.3	293.15	1004.85	1.04
0.49776	0.3	293.15	1006.12	1.04
0	0.3	298.15	998.21	1.04
0.09899	0.3	298.15	999.59	1.04
0.19995	0.3	298.15	1000.97	1.04
0.28986	0.3	298.15	1002.18	1.04
0.39954	0.3	298.15	1003.63	1.04
0.49776	0.3	298.15	1004.89	1.04
0	0.3	303.15	996.71	1.04
0.09899	0.3	303.15	998.08	1.04
0.19995	0.3	303.15	999.45	1.04
0.28986	0.3	303.15	1000.64	1.04
0.39954	0.3	303.15	1002.06	1.04
0.49776	0.3	303.15	1003.32	1.04
0	0.3	308.15	995.04	1.04
0.09899	0.3	308.15	996.38	1.04
0.19995	0.3	308.15	997.73	1.04
0.28986	0.3	308.15	998.91	1.04
0.39954	0.3	308.15	1000.31	1.04
0.49776	0.3	308.15	1001.57	1.04
0	0.4	293.15	999.78	1.04
0.10021	0.4	293.15	1001.19	1.04
0.19984	0.4	293.15	1002.56	1.04
0.28956	0.4	293.15	1003.76	1.04
0.40028	0.4	293.15	1005.23	1.04
0.49768	0.4	293.15	1006.49	1.04
0	0.4	298.15	998.59	1.04
0.10021	0.4	298.15	999.99	1.04
0.19984	0.4	298.15	1001.35	1.04
0.28956	0.4	298.15	1002.55	1.04
0.40028	0.4	298.15	1004	1.04
0.49768	0.4	298.15	1005.24	1.04
0	0.4	303.15	997.08	1.04
0.10021	0.4	303.15	998.46	1.04
0.19984	0.4	303.15	999.81	1.04
0.28956	0.4	303.15	1001	1.04
0.40028	0.4	303.15	1002.43	1.04
0.49768	0.4	303.15	1003.66	1.04
0	0.4	308.15	995.39	1.04
0.10021	0.4	308.15	996.74	1.04
0.19984	0.4	308.15	998.06	1.04
0.28956	0.4	308.15	999.22	1.04
0.40028	0.4	308.15	1000.64	1.04
0.49768	0.4	308.15	1001.9	1.04

System: diethylene glycol + aniline + water; phases: Liquid
Fixed: Pressure, kPa = 100
Fixed: Frequency, MHz = 3
Property: Speed of sound, m/s (Liquid); method: Single path-length method
Molality, mol/kg of diethylene glycol	Solvent: Molality, mol/kg of aniline	Temperature, K	Speed of sound, m/s	uncertainty
0	0	293.15	1481.14	2.35
0.09849	0	293.15	1487.65	2.35
0.19736	0	293.15	1493.09	2.35
0.29505	0	293.15	1498.14	2.35
0.41013	0	293.15	1504.13	2.35
0.50063	0	293.15	1508.33	2.35
0	0	298.15	1495.85	2.35
0.09849	0	298.15	1501.24	2.35
0.19736	0	298.15	1506.01	2.35
0.29505	0	298.15	1510.78	2.35
0.41013	0	298.15	1516.15	2.35
0.50063	0	298.15	1520.34	2.35
0	0	303.15	1508.84	2.35
0.09849	0	303.15	1513.09	2.35
0.19736	0	303.15	1517.58	2.34
0.29505	0	303.15	1521.95	2.34
0.41013	0	303.15	1526.88	2.34
0.50063	0	303.15	1530.64	2.34
0	0	308.15	1519.14	2.34
0.09849	0	308.15	1523.52	2.34
0.19736	0	308.15	1527.52	2.34
0.29505	0	308.15	1531.47	2.34
0.41013	0	308.15	1536.11	2.34
0.50063	0	308.15	1539.59	2.34
0	0.1	293.15	1483.27	2.35
0.09555	0.1	293.15	1487.17	2.35
0.20045	0.1	293.15	1491.45	2.35
0.29954	0.1	293.15	1495.5	2.35
0.4018	0.1	293.15	1499.67	2.35
0.49777	0.1	293.15	1503.59	2.35
0	0.1	298.15	1497.15	2.35
0.09555	0.1	298.15	1501.1	2.35
0.20045	0.1	298.15	1505.44	2.35
0.29954	0.1	298.15	1509.53	2.35
0.4018	0.1	298.15	1513.76	2.35
0.49777	0.1	298.15	1517.73	2.35
0	0.1	303.15	1509.55	2.35
0.09555	0.1	303.15	1513.47	2.35
0.20045	0.1	303.15	1517.77	2.35
0.29954	0.1	303.15	1521.83	2.35
0.4018	0.1	303.15	1526.02	2.35
0.49777	0.1	303.15	1529.96	2.35
0	0.1	308.15	1520.53	2.34
0.09555	0.1	308.15	1524.41	2.34
0.20045	0.1	308.15	1528.67	2.34
0.29954	0.1	308.15	1532.7	2.34
0.4018	0.1	308.15	1536.85	2.34
0.49777	0.1	308.15	1540.75	2.34
0	0.2	293.15	1485.05	2.35
0.09854	0.2	293.15	1489.07	2.35
0.19939	0.2	293.15	1493.19	2.35
0.29736	0.2	293.15	1497.18	2.35
0.39857	0.2	293.15	1501.31	2.35
0.50117	0.2	293.15	1505.5	2.35
0	0.2	298.15	1498.68	2.35
0.09854	0.2	298.15	1502.73	2.35
0.19939	0.2	298.15	1506.87	2.35
0.29736	0.2	298.15	1510.89	2.35
0.39857	0.2	298.15	1515.04	2.35
0.50117	0.2	298.15	1519.26	2.35
0	0.2	303.15	1510.83	2.35
0.09854	0.2	303.15	1514.87	2.35
0.19939	0.2	303.15	1519	2.35
0.29736	0.2	303.15	1523.02	2.35
0.39857	0.2	303.15	1527.17	2.35
0.50117	0.2	303.15	1531.37	2.35
0	0.2	308.15	1521.91	2.35
0.09854	0.2	308.15	1525.9	2.34
0.19939	0.2	308.15	1529.99	2.34
0.29736	0.2	308.15	1533.96	2.34
0.39857	0.2	308.15	1538.06	2.34
0.50117	0.2	308.15	1542.22	2.34
0	0.3	293.15	1486.85	2.35
0.09899	0.3	293.15	1490.93	2.35
0.19995	0.3	293.15	1495.1	2.35
0.28986	0.3	293.15	1498.81	2.35
0.39954	0.3	293.15	1503.33	2.35
0.49776	0.3	293.15	1507.39	2.35
0	0.3	298.15	1500.04	2.35
0.09899	0.3	298.15	1504.12	2.35
0.19995	0.3	298.15	1508.28	2.35
0.28986	0.3	298.15	1511.98	2.35
0.39954	0.3	298.15	1516.5	2.35
0.49776	0.3	298.15	1520.54	2.35
0	0.3	303.15	1512.11	2.35
0.09899	0.3	303.15	1516.13	2.35
0.19995	0.3	303.15	1520.23	2.35
0.28986	0.3	303.15	1523.88	2.35
0.39954	0.3	303.15	1528.33	2.35
0.49776	0.3	303.15	1532.32	2.35
0	0.3	308.15	1523.3	2.35
0.09899	0.3	308.15	1527.33	2.35
0.19995	0.3	308.15	1531.44	2.35
0.28986	0.3	308.15	1535.1	2.35
0.39954	0.3	308.15	1539.56	2.35
0.49776	0.3	308.15	1543.56	2.35
0	0.4	293.15	1488.61	2.35
0.10021	0.4	293.15	1492.74	2.35
0.19984	0.4	293.15	1496.85	2.35
0.28956	0.4	293.15	1500.55	2.35
0.40028	0.4	293.15	1505.12	2.35
0.49768	0.4	293.15	1509.13	2.35
0	0.4	298.15	1501.98	2.35
0.10021	0.4	298.15	1506.12	2.35
0.19984	0.4	298.15	1510.24	2.35
0.28956	0.4	298.15	1513.95	2.35
0.40028	0.4	298.15	1518.53	2.35
0.49768	0.4	298.15	1522.56	2.35
0	0.4	303.15	1513.45	2.35
0.10021	0.4	303.15	1517.55	2.35
0.19984	0.4	303.15	1521.63	2.35
0.28956	0.4	303.15	1525.31	2.35
0.40028	0.4	303.15	1529.84	2.35
0.49768	0.4	303.15	1533.83	2.35
0	0.4	308.15	1524.68	2.35
0.10021	0.4	308.15	1528.81	2.35
0.19984	0.4	308.15	1532.92	2.35
0.28956	0.4	308.15	1536.62	2.35
0.40028	0.4	308.15	1541.19	2.35
0.49768	0.4	308.15	1545.21	2.35

System: triethylene glycol + aniline + water; phases: Liquid
Fixed: Pressure, kPa = 100
Property: Mass density, kg/m3 (Liquid); method: Vibrating tube method
Molality, mol/kg of triethylene glycol	Solvent: Molality, mol/kg of aniline	Temperature, K	Mass density, kg/m3	uncertainty
0	0	293.15	998.211	1.066
0.0965	0	293.15	1000.308	1.066
0.2002	0	293.15	1002.462	1.067
0.29205	0	293.15	1004.291	1.067
0.39856	0	293.15	1006.356	1.068
0.49879	0	293.15	1008.223	1.069
0	0	298.15	997.047	1.065
0.0965	0	298.15	999.126	1.066
0.2002	0	298.15	1001.272	1.066
0.29205	0	298.15	1003.106	1.067
0.39856	0	298.15	1005.14	1.068
0.49879	0	298.15	1006.991	1.068
0	0	303.15	995.656	1.065
0.0965	0	303.15	997.728	1.066
0.2002	0	303.15	999.858	1.066
0.29205	0	303.15	1001.668	1.066
0.39856	0	303.15	1003.693	1.067
0.49879	0	303.15	1005.54	1.068
0	0	308.15	994.039	1.065
0.0965	0	308.15	996.095	1.066
0.2002	0	308.15	998.216	1.066
0.29205	0	308.15	1000.013	1.066
0.39856	0	308.15	1002.025	1.067
0.49879	0	308.15	1003.851	1.067
0	0.1	293.15	998.57	1.07
0.09952	0.1	293.15	1000.69	1.07
0.19868	0.1	293.15	1002.75	1.07
0.29971	0.1	293.15	1004.79	1.07
0.39761	0.1	293.15	1006.71	1.07
0.49866	0.1	293.15	1008.64	1.07
0	0.1	298.15	997.42	1.07
0.09952	0.1	298.15	999.55	1.07
0.19868	0.1	298.15	1001.61	1.07
0.29971	0.1	298.15	1003.66	1.07
0.39761	0.1	298.15	1005.6	1.07
0.49866	0.1	298.15	1007.54	1.07
0	0.1	303.15	995.98	1.07
0.09952	0.1	303.15	998.13	1.07
0.19868	0.1	303.15	1000.2	1.07
0.29971	0.1	303.15	1002.26	1.07
0.39761	0.1	303.15	1004.2	1.07
0.49866	0.1	303.15	1006.15	1.07
0	0.1	308.15	994.35	1.07
0.09952	0.1	308.15	996.49	1.07
0.19868	0.1	308.15	998.54	1.07
0.29971	0.1	308.15	1000.57	1.07
0.39761	0.1	308.15	1002.49	1.07
0.49866	0.1	308.15	1004.43	1.07
0	0.2	293.15	998.97	1.07
0.09981	0.2	293.15	1001.1	1.07
0.19966	0.2	293.15	1003.16	1.07
0.30015	0.2	293.15	1005.19	1.07
0.39605	0.2	293.15	1007.07	1.07
0.49317	0.2	293.15	1008.93	1.07
0	0.2	298.15	997.81	1.07
0.09981	0.2	298.15	999.94	1.07
0.19966	0.2	298.15	1002.01	1.07
0.30015	0.2	298.15	1004.03	1.07
0.39605	0.2	298.15	1005.91	1.07
0.49317	0.2	298.15	1007.76	1.07
0	0.2	303.15	996.33	1.07
0.09981	0.2	303.15	998.46	1.07
0.19966	0.2	303.15	1000.55	1.07
0.30015	0.2	303.15	1002.58	1.07
0.39605	0.2	303.15	1004.47	1.07
0.49317	0.2	303.15	1006.34	1.07
0	0.2	308.15	994.68	1.07
0.09981	0.2	308.15	996.83	1.07
0.19966	0.2	308.15	998.9	1.07
0.30015	0.2	308.15	1000.93	1.07
0.39605	0.2	308.15	1002.82	1.07
0.49317	0.2	308.15	1004.7	1.07
0	0.3	293.15	999.36	1.07
0.10132	0.3	293.15	1001.51	1.07
0.19928	0.3	293.15	1003.53	1.07
0.30015	0.3	293.15	1005.56	1.07
0.39854	0.3	293.15	1007.48	1.07
0.48965	0.3	293.15	1009.22	1.07
0	0.3	298.15	998.21	1.07
0.10132	0.3	298.15	1000.33	1.07
0.19928	0.3	298.15	1002.36	1.07
0.30015	0.3	298.15	1004.39	1.07
0.39854	0.3	298.15	1006.27	1.07
0.48965	0.3	298.15	1008.05	1.07
0	0.3	303.15	996.71	1.07
0.10132	0.3	303.15	998.84	1.07
0.19928	0.3	303.15	1000.86	1.07
0.30015	0.3	303.15	1002.89	1.07
0.39854	0.3	303.15	1004.82	1.07
0.48965	0.3	303.15	1006.58	1.07
0	0.3	308.15	995.04	1.07
0.10132	0.3	308.15	997.18	1.07
0.19928	0.3	308.15	999.19	1.07
0.30015	0.3	308.15	1001.22	1.07
0.39854	0.3	308.15	1003.14	1.07
0.48965	0.3	308.15	1004.93	1.07
0	0.4	293.15	999.78	1.07
0.09984	0.4	293.15	1001.89	1.07
0.20045	0.4	293.15	1003.96	1.07
0.29956	0.4	293.15	1005.94	1.07
0.40124	0.4	293.15	1007.92	1.07
0.49985	0.4	293.15	1009.78	1.07
0	0.4	298.15	998.59	1.07
0.09984	0.4	298.15	1000.7	1.07
0.20045	0.4	298.15	1002.77	1.07
0.29956	0.4	298.15	1004.76	1.07
0.40124	0.4	298.15	1006.7	1.07
0.49985	0.4	298.15	1008.66	1.07
0	0.4	303.15	997.08	1.07
0.09984	0.4	303.15	999.19	1.07
0.20045	0.4	303.15	1001.25	1.07
0.29956	0.4	303.15	1003.26	1.07
0.40124	0.4	303.15	1005.24	1.07
0.49985	0.4	303.15	1007.12	1.07
0	0.4	308.15	995.39	1.07
0.09984	0.4	308.15	997.5	1.07
0.20045	0.4	308.15	999.56	1.07
0.29956	0.4	308.15	1001.54	1.07
0.40124	0.4	308.15	1003.54	1.07
0.49985	0.4	308.15	1005.5	1.07

System: triethylene glycol + aniline + water; phases: Liquid
Fixed: Pressure, kPa = 100
Fixed: Frequency, MHz = 3
Property: Speed of sound, m/s (Liquid); method: Single path-length method
Molality, mol/kg of triethylene glycol	Solvent: Molality, mol/kg of aniline	Temperature, K	Speed of sound, m/s	uncertainty
0	0	293.15	1481.14	2.44
0.0965	0	293.15	1489.87	2.44
0.2002	0	293.15	1498.03	2.44
0.29205	0	293.15	1504.81	2.44
0.39856	0	293.15	1513.14	2.44
0.49879	0	293.15	1520.51	2.44
0	0	298.15	1495.85	2.44
0.0965	0	298.15	1503.48	2.44
0.2002	0	298.15	1511.04	2.44
0.29205	0	298.15	1517.62	2.44
0.39856	0	298.15	1525.38	2.43
0.49879	0	298.15	1532.21	2.43
0	0	303.15	1508.84	2.44
0.0965	0	303.15	1514.85	2.43
0.2002	0	303.15	1521.76	2.43
0.29205	0	303.15	1528.02	2.43
0.39856	0	303.15	1535.06	2.43
0.49879	0	303.15	1541.68	2.43
0	0	308.15	1519.14	2.43
0.0965	0	308.15	1525.09	2.43
0.2002	0	308.15	1531.28	2.43
0.29205	0	308.15	1536.87	2.43
0.39856	0	308.15	1543.31	2.43
0.49879	0	308.15	1549.44	2.43
0	0.1	293.15	1483.27	2.44
0.09952	0.1	293.15	1489.29	2.44
0.19868	0.1	293.15	1495.3	2.44
0.29971	0.1	293.15	1501.42	2.44
0.39761	0.1	293.15	1507.34	2.44
0.49866	0.1	293.15	1513.46	2.43
0	0.1	298.15	1497.15	2.44
0.09952	0.1	298.15	1503.15	2.44
0.19868	0.1	298.15	1509.13	2.44
0.29971	0.1	298.15	1515.22	2.44
0.39761	0.1	298.15	1521.12	2.44
0.49866	0.1	298.15	1527.21	2.44
0	0.1	303.15	1509.55	2.44
0.09952	0.1	303.15	1515.58	2.44
0.19868	0.1	303.15	1521.6	2.44
0.29971	0.1	303.15	1527.72	2.44
0.39761	0.1	303.15	1533.66	2.44
0.49866	0.1	303.15	1539.79	2.44
0	0.1	308.15	1520.53	2.43
0.09952	0.1	308.15	1526.54	2.43
0.19868	0.1	308.15	1532.54	2.43
0.29971	0.1	308.15	1538.64	2.43
0.39761	0.1	308.15	1544.56	2.43
0.49866	0.1	308.15	1550.66	2.43
0	0.2	293.15	1485.05	2.44
0.09981	0.2	293.15	1491.07	2.44
0.19966	0.2	293.15	1497.09	2.44
0.30015	0.2	293.15	1503.14	2.44
0.39605	0.2	293.15	1508.93	2.44
0.49317	0.2	293.15	1514.78	2.44
0	0.2	298.15	1498.68	2.44
0.09981	0.2	298.15	1504.72	2.44
0.19966	0.2	298.15	1510.76	2.44
0.30015	0.2	298.15	1516.85	2.44
0.39605	0.2	298.15	1522.65	2.44
0.49317	0.2	298.15	1528.53	2.44
0	0.2	303.15	1510.83	2.44
0.09981	0.2	303.15	1516.84	2.44
0.19966	0.2	303.15	1522.86	2.44
0.30015	0.2	303.15	1528.91	2.44
0.39605	0.2	303.15	1534.69	2.44
0.49317	0.2	303.15	1540.54	2.44
0	0.2	308.15	1521.91	2.43
0.09981	0.2	308.15	1527.95	2.43
0.19966	0.2	308.15	1533.99	2.43
0.30015	0.2	308.15	1540.08	2.43
0.39605	0.2	308.15	1545.88	2.43
0.49317	0.2	308.15	1551.76	2.43
0	0.3	293.15	1486.85	2.44
0.09981	0.3	293.15	1492.93	2.44
0.19966	0.3	293.15	1498.8	2.44
0.30015	0.3	293.15	1504.85	2.44
0.39605	0.3	293.15	1510.75	2.44
0.49317	0.3	293.15	1516.22	2.44
0	0.3	298.15	1500.04	2.44
0.09981	0.3	298.15	1506.22	2.44
0.19966	0.3	298.15	1512.2	2.44
0.30015	0.3	298.15	1518.36	2.44
0.39605	0.3	298.15	1524.37	2.44
0.49317	0.3	298.15	1529.93	2.44
0	0.3	303.15	1512.11	2.44
0.09981	0.3	303.15	1518.28	2.44
0.19966	0.3	303.15	1524.24	2.44
0.30015	0.3	303.15	1530.38	2.44
0.39605	0.3	303.15	1536.38	2.44
0.49317	0.3	303.15	1541.92	2.44
0	0.3	308.15	1523.3	2.43
0.09981	0.3	308.15	1529.45	2.43
0.19966	0.3	308.15	1535.4	2.43
0.30015	0.3	308.15	1541.53	2.43
0.39605	0.3	308.15	1547.5	2.43
0.49317	0.3	308.15	1553.04	2.43
0	0.4	293.15	1488.61	2.44
0.09984	0.4	293.15	1494.61	2.44
0.20045	0.4	293.15	1500.66	2.44
0.29956	0.4	293.15	1506.62	2.44
0.40124	0.4	293.15	1512.74	2.44
0.49985	0.4	293.15	1518.66	2.44
0	0.4	298.15	1501.98	2.44
0.09984	0.4	298.15	1508.06	2.44
0.20045	0.4	298.15	1514.19	2.44
0.29956	0.4	298.15	1520.23	2.44
0.40124	0.4	298.15	1526.42	2.44
0.49985	0.4	298.15	1532.43	2.44
0	0.4	303.15	1513.45	2.44
0.09984	0.4	303.15	1519.55	2.43
0.20045	0.4	303.15	1525.7	2.43
0.29956	0.4	303.15	1531.76	2.43
0.40124	0.4	303.15	1537.98	2.43
0.49985	0.4	303.15	1544.01	2.43
0	0.4	308.15	1524.68	2.43
0.09984	0.4	308.15	1530.72	2.43
0.20045	0.4	308.15	1536.81	2.43
0.29956	0.4	308.15	1542.8	2.43
0.40124	0.4	308.15	1548.95	2.43
0.49985	0.4	308.15	1554.92	2.43

System: 1,2-ethanediol + water; phases: Liquid
Fixed: Pressure, kPa = 100
Property: Mass density, kg/m3 (Liquid); method: Vibrating tube method
Molality, mol/kg of 1,2-ethanediol	Temperature, K	Mass density, kg/m3	uncertainty
0.09889	293.15	999.059	1.001
0.19894	293.15	999.884	1.001
0.29967	293.15	1000.683	1.001
0.39481	293.15	1001.405	1.001
0.50155	293.15	1002.197	1.001
0.09889	298.15	997.877	1.001
0.19894	298.15	998.688	1.001
0.29967	298.15	999.473	1.001
0.39481	298.15	1000.184	1.001
0.50155	298.15	1000.961	1.001
0.09889	303.15	996.471	1.001
0.19894	303.15	997.262	1.001
0.29967	303.15	998.033	1.001
0.39481	303.15	998.733	1.001
0.50155	303.15	999.48	1.001
0.09889	308.15	994.84	1.001
0.19894	308.15	995.613	1.001
0.29967	308.15	996.362	1.001
0.39481	308.15	997.038	1.001
0.50155	308.15	997.764	1.001

System: 1,2-ethanediol + water; phases: Liquid
Fixed: Pressure, kPa = 100
Fixed: Frequency, MHz = 3
Property: Speed of sound, m/s (Liquid); method: Single path-length method
Molality, mol/kg of 1,2-ethanediol	Temperature, K	Speed of sound, m/s	uncertainty
0.09889	293.15	1485.54	2.02
0.19894	293.15	1488.34	2.02
0.29967	293.15	1491.19	2.02
0.39481	293.15	1493.86	2.02
0.50155	293.15	1496.84	2.02
0.09889	298.15	1498.92	2.02
0.19894	298.15	1501.72	2.02
0.29967	298.15	1504.29	2.02
0.39481	298.15	1506.64	2.02
0.50155	298.15	1509.09	2.02
0.09889	303.15	1511.12	2.02
0.19894	303.15	1513.75	2.02
0.29967	303.15	1516.15	2.02
0.39481	303.15	1518.69	2.02
0.50155	303.15	1521.22	2.02
0.09889	308.15	1521.84	2.02
0.19894	308.15	1524.03	2.02
0.29967	308.15	1526.18	2.02
0.39481	308.15	1528.28	2.02
0.50155	308.15	1530.34	2.01

System: aniline + water; phases: Liquid
Fixed: Pressure, kPa = 100
Property: Mass density, kg/m3 (Liquid); method: Vibrating tube method
Molality, mol/kg of aniline	Temperature, K	Mass density, kg/m3	uncertainty
0.1	293.15	998.568	1.001
0.1	298.15	997.421	1.001
0.1	303.15	995.983	1.001
0.1	308.15	994.351	1.001
0.2	293.15	998.972	1.001
0.2	298.15	997.813	1.001
0.2	303.15	996.326	1.001
0.2	308.15	994.684	1.001
0.3	293.15	999.363	1.001
0.3	298.15	998.208	1.001
0.3	303.15	996.705	1.001
0.3	308.15	995.035	1.001
0.4	293.15	999.783	1.001
0.4	298.15	998.592	1.001
0.4	303.15	997.079	1.001
0.4	308.15	995.385	1.001
0.1	293.15	998.57	1
0.1	298.15	997.42	1
0.1	303.15	995.98	1
0.1	308.15	994.35	1
0.2	293.15	998.97	1
0.2	298.15	997.81	1
0.2	303.15	996.33	1
0.2	308.15	994.68	1
0.3	293.15	999.36	1
0.3	298.15	998.21	1
0.3	303.15	996.71	1
0.3	308.15	995.04	1
0.4	293.15	999.78	1
0.4	298.15	998.59	1
0.4	303.15	997.08	1
0.4	308.15	995.39	1

System: aniline + water; phases: Liquid
Fixed: Pressure, kPa = 100
Fixed: Frequency, MHz = 3
Property: Speed of sound, m/s (Liquid); method: Single path-length method
Molality, mol/kg of aniline	Temperature, K	Speed of sound, m/s	uncertainty
0.1	293.15	1483.27	2.03
0.1	298.15	1497.15	2.02
0.1	303.15	1509.55	2.02
0.1	308.15	1520.53	2.02
0.2	293.15	1485.05	2.03
0.2	298.15	1498.68	2.02
0.2	303.15	1510.83	2.02
0.2	308.15	1520.53	2.02
0.3	293.15	1486.85	2.03
0.3	298.15	1500.04	2.02
0.3	303.15	1512.11	2.02
0.3	308.15	1521.91	2.02
0.4	293.15	1488.61	2.03
0.4	298.15	1501.98	2.02
0.4	303.15	1513.45	2.02
0.4	308.15	1523.57	2.02
0.2	308.15	1521.91	2.02
0.3	308.15	1523.3	2.02
0.4	308.15	1524.68	2.02

System: diethylene glycol + water; phases: Liquid
Fixed: Pressure, kPa = 100
Property: Mass density, kg/m3 (Liquid); method: Vibrating tube method
Molality, mol/kg of diethylene glycol	Temperature, K	Mass density, kg/m3	uncertainty
0.09849	293.15	999.647	1.001
0.19736	293.15	1001.031	1.001
0.29505	293.15	1002.356	1.001
0.41013	293.15	1003.859	1.001
0.50063	293.15	1004.993	1.001
0.09849	298.15	998.458	1.001
0.19736	298.15	999.78	1.001
0.29505	298.15	1001.026	1.001
0.41013	298.15	1002.49	1.001
0.50063	298.15	1003.585	1.001
0.09849	303.15	997.071	1.001
0.19736	303.15	998.395	1.001
0.29505	303.15	999.643	1.001
0.41013	303.15	1001.051	1.001
0.50063	303.15	1002.146	1.001
0.09849	308.15	995.44	1.001
0.19736	308.15	996.778	1.001
0.29505	308.15	998.046	1.001
0.41013	308.15	999.471	1.001
0.50063	308.15	1000.531	1.001

System: diethylene glycol + water; phases: Liquid
Fixed: Pressure, kPa = 100
Fixed: Frequency, MHz = 3
Property: Speed of sound, m/s (Liquid); method: Single path-length method
Molality, mol/kg of diethylene glycol	Temperature, K	Speed of sound, m/s	uncertainty
0.09849	293.15	1487.65	2.02
0.19736	293.15	1493.09	2.02
0.29505	293.15	1498.14	2.02
0.41013	293.15	1504.13	2.02
0.50063	293.15	1508.33	2.02
0.09849	298.15	1501.24	2.02
0.19736	298.15	1506.01	2.02
0.29505	298.15	1510.78	2.02
0.41013	298.15	1516.15	2.02
0.50063	298.15	1520.34	2.02
0.09849	303.15	1513.09	2.02
0.19736	303.15	1517.58	2.02
0.29505	303.15	1521.95	2.02
0.41013	303.15	1526.88	2.02
0.50063	303.15	1530.64	2.02
0.09849	308.15	1523.52	2.02
0.19736	308.15	1527.52	2.02
0.29505	308.15	1531.47	2.02
0.41013	308.15	1536.11	2.02
0.50063	308.15	1539.59	2.02

System: triethylene glycol + water; phases: Liquid
Fixed: Pressure, kPa = 100
Property: Mass density, kg/m3 (Liquid); method: Vibrating tube method
Molality, mol/kg of triethylene glycol	Temperature, K	Mass density, kg/m3	uncertainty
0.0965	293.15	1000.308	1.001
0.2002	293.15	1002.462	1.001
0.29205	293.15	1004.291	1.001
0.39856	293.15	1006.356	1.001
0.49879	293.15	1008.223	1.001
0.0965	298.15	999.126	1.001
0.2002	298.15	1001.272	1.001
0.29205	298.15	1003.106	1.001
0.39856	298.15	1005.14	1.001
0.49879	298.15	1006.991	1.001
0.0965	303.15	997.728	1.001
0.2002	303.15	999.858	1.001
0.29205	303.15	1001.668	1.001
0.39856	303.15	1003.693	1.001
0.49879	303.15	1005.54	1.001
0.0965	308.15	996.095	1.001
0.2002	308.15	998.216	1.001
0.29205	308.15	1000.013	1.001
0.39856	308.15	1002.025	1.001
0.49879	308.15	1003.851	1.001

System: triethylene glycol + water; phases: Liquid
Fixed: Pressure, kPa = 100
Fixed: Frequency, MHz = 3
Property: Speed of sound, m/s (Liquid); method: Single path-length method
Molality, mol/kg of triethylene glycol	Temperature, K	Speed of sound, m/s	uncertainty
0.0965	293.15	1489.87	2.02
0.2002	293.15	1498.03	2.03
0.29205	293.15	1504.81	2.03
0.39856	293.15	1513.14	2.03
0.49879	293.15	1520.51	2.03
0.0965	298.15	1503.48	2.02
0.2002	298.15	1511.04	2.02
0.29205	298.15	1517.62	2.02
0.39856	298.15	1525.38	2.03
0.49879	298.15	1532.21	2.03
0.0965	303.15	1514.85	2.02
0.2002	303.15	1521.76	2.02
0.29205	303.15	1528.02	2.02
0.39856	303.15	1535.06	2.02
0.49879	303.15	1541.68	2.02
0.0965	308.15	1525.09	2.02
0.2002	308.15	1531.28	2.02
0.29205	308.15	1536.87	2.02
0.39856	308.15	1543.31	2.02
0.49879	308.15	1549.44	2.02
