Measured thermophysical data. Solubility and Dissolution Thermodynamics for 1,3,5- Trichlorobenzene in Organic Solvents
Source: J. Chem. Eng. Data, 2016, 10.1021/acs.jced.5b00607
Compound 1: 1,3,5-trichlorobenzene, C6H3Cl3, InChI=1S/C6H3Cl3/c7-4-1-5(8)3-6(9)2-4/h1-3H, purity 99.7%
Compound 2: propan-1-ol, C3H8O, InChI=1S/C3H8O/c1-2-3-4/h4H,2-3H2,1H3, purity 99.4%
Compound 3: propan-2-ol, C3H8O, InChI=1S/C3H8O/c1-3(2)4/h3-4H,1-2H3, purity 99.6%
Compound 4: butan-1-ol, C4H10O, InChI=1S/C4H10O/c1-2-3-4-5/h5H,2-4H2,1H3, purity 99.7%
Compound 5: 2-methyl-1-propanol, C4H10O, InChI=1S/C4H10O/c1-4(2)3-5/h4-5H,3H2,1-2H3, purity 99.6%
Compound 6: cyclohexane, C6H12, InChI=1S/C6H12/c1-2-4-6-5-3-1/h1-6H2, purity 99.5%
Compound 7: toluene, C7H8, InChI=1S/C7H8/c1-7-5-3-2-4-6-7/h2-6H,1H3, purity 99.5%
Compound 8: ethyl acetate, C4H8O2, InChI=1S/C4H8O2/c1-3-6-4(2)5/h3H2,1-2H3, purity 99.7%
Compound 9: acetone, C3H6O, InChI=1S/C3H6O/c1-3(2)4/h1-2H3, purity 99.6%

System: propan-1-ol + 1,3,5-trichlorobenzene; phases: Liquid, Crystal
Fixed: Pressure, kPa = 100
Property: Mole fraction of 1,3,5-trichlorobenzene (Liquid); method: Chromatography
Temperature, K	Mole fraction of 1,3,5-trichlorobenzene	uncertainty
273.15	0.02106	0.00842
275.65	0.02376	0.0095
278.15	0.02732	0.01093
280.65	0.03129	0.01252
283.15	0.03588	0.01435
285.65	0.04059	0.01624
288.15	0.04658	0.01863
290.65	0.05322	0.02129
293.15	0.05979	0.02392
295.65	0.06767	0.02707
298.15	0.07641	0.03056
300.65	0.08535	0.03414
303.15	0.09729	0.03892
305.65	0.1086	0.04344
308.15	0.1216	0.04864
310.65	0.1379	0.05516
313.15	0.1576	0.06304

System: propan-2-ol + 1,3,5-trichlorobenzene; phases: Liquid, Crystal
Fixed: Pressure, kPa = 100
Property: Mole fraction of 1,3,5-trichlorobenzene (Liquid); method: Chromatography
Temperature, K	Mole fraction of 1,3,5-trichlorobenzene	uncertainty
273.15	0.01438	0.00575
275.65	0.01669	0.00668
278.15	0.01949	0.0078
280.65	0.02247	0.00899
283.15	0.02561	0.01024
285.65	0.0297	0.01188
288.15	0.03392	0.01357
290.65	0.03845	0.01538
293.15	0.0441	0.01764
295.65	0.05091	0.02036
298.15	0.05797	0.02319
300.65	0.06486	0.02594
303.15	0.07401	0.0296
305.65	0.08487	0.03395
308.15	0.09685	0.03874
310.65	0.1097	0.04388
313.15	0.1265	0.0506

System: butan-1-ol + 1,3,5-trichlorobenzene; phases: Liquid, Crystal
Fixed: Pressure, kPa = 100
Property: Mole fraction of 1,3,5-trichlorobenzene (Liquid); method: Chromatography
Temperature, K	Mole fraction of 1,3,5-trichlorobenzene	uncertainty
273.15	0.036	0.0144
275.65	0.04065	0.01626
278.15	0.04671	0.01868
280.65	0.05292	0.02117
283.15	0.05916	0.02366
285.65	0.06795	0.02718
288.15	0.07673	0.03069
290.65	0.08524	0.0341
293.15	0.09694	0.03878
295.65	0.1067	0.04268
298.15	0.1221	0.04884
300.65	0.1355	0.0542
303.15	0.1499	0.05996
305.65	0.1655	0.0662
308.15	0.1855	0.0742
310.65	0.2072	0.08288
313.15	0.2334	0.09336

System: 2-methyl-1-propanol + 1,3,5-trichlorobenzene; phases: Liquid, Crystal
Fixed: Pressure, kPa = 100
Property: Mole fraction of 1,3,5-trichlorobenzene (Liquid); method: Chromatography
Temperature, K	Mole fraction of 1,3,5-trichlorobenzene	uncertainty
273.15	0.02462	0.00985
275.65	0.02803	0.01121
278.15	0.03214	0.01286
280.65	0.03674	0.0147
283.15	0.04203	0.01681
285.65	0.04782	0.01913
288.15	0.05448	0.02179
290.65	0.06157	0.02463
293.15	0.07079	0.02832
295.65	0.08045	0.03218
298.15	0.09098	0.03639
300.65	0.1023	0.04092
303.15	0.117	0.0468
305.65	0.1306	0.05224
308.15	0.1471	0.05884
310.65	0.1664	0.06656
313.15	0.1906	0.07624

System: 1,3,5-trichlorobenzene + cyclohexane; phases: Liquid, Crystal
Fixed: Pressure, kPa = 100
Property: Mole fraction of 1,3,5-trichlorobenzene (Liquid); method: Chromatography
Temperature, K	Mole fraction of 1,3,5-trichlorobenzene	uncertainty
280.65	0.1309	0.0524
283.15	0.1469	0.0588
285.65	0.1652	0.0661
288.15	0.1856	0.0742
290.65	0.2073	0.0829
293.15	0.2305	0.0922
295.65	0.255	0.102
298.15	0.286	0.1144
300.65	0.3181	0.1272
303.15	0.3502	0.1401
305.65	0.3905	0.1562
308.15	0.4341	0.1736
310.65	0.4807	0.1923
313.15	0.5285	0.2114

System: 1,3,5-trichlorobenzene + toluene; phases: Liquid, Crystal
Fixed: Pressure, kPa = 100
Property: Mole fraction of 1,3,5-trichlorobenzene (Liquid); method: Chromatography
Temperature, K	Mole fraction of 1,3,5-trichlorobenzene	uncertainty
273.15	0.1687	0.0675
275.65	0.1845	0.0738
278.15	0.1992	0.0797
280.65	0.2184	0.0874
283.15	0.2399	0.096
285.65	0.2601	0.104
288.15	0.2866	0.1146
290.65	0.3107	0.1243
293.15	0.3372	0.1349
295.65	0.3683	0.1473
298.15	0.3993	0.1597
300.65	0.4272	0.1709
303.15	0.4627	0.1851
305.65	0.5001	0.2
308.15	0.5386	0.2154
310.65	0.5749	0.23
313.15	0.6187	0.2475

System: 1,3,5-trichlorobenzene + ethyl acetate; phases: Liquid, Crystal
Fixed: Pressure, kPa = 100
Property: Mole fraction of 1,3,5-trichlorobenzene (Liquid); method: Chromatography
Temperature, K	Mole fraction of 1,3,5-trichlorobenzene	uncertainty
273.15	0.09284	0.03714
275.65	0.1015	0.0406
278.15	0.1125	0.045
280.65	0.1234	0.04936
283.15	0.137	0.0548
285.65	0.1508	0.06032
288.15	0.1641	0.06564
290.65	0.1795	0.0718
293.15	0.1948	0.07792
295.65	0.2128	0.08512
298.15	0.2338	0.09352
300.65	0.2527	0.10108
303.15	0.2741	0.10964
305.65	0.2978	0.11912
308.15	0.3249	0.12996
310.65	0.3519	0.14076
313.15	0.3798	0.15192

System: acetone + 1,3,5-trichlorobenzene; phases: Liquid, Crystal
Fixed: Pressure, kPa = 100
Property: Mole fraction of 1,3,5-trichlorobenzene (Liquid); method: Chromatography
Temperature, K	Mole fraction of 1,3,5-trichlorobenzene	uncertainty
273.15	0.04189	0.01676
275.65	0.0472	0.01888
278.15	0.05241	0.02096
280.65	0.0581	0.02324
283.15	0.06435	0.02574
285.65	0.07183	0.02873
288.15	0.07905	0.03162
290.65	0.0876	0.03504
293.15	0.0963	0.03852
295.65	0.1062	0.04248
298.15	0.1159	0.04636
300.65	0.1288	0.05152
303.15	0.1403	0.05612
305.65	0.1537	0.06148
308.15	0.1714	0.06856
310.65	0.1919	0.07676
313.15	0.2131	0.08524
