Measured thermophysical data. Thermodynamic Study of the NaCl-CuCl2-H2O Ternary System at 298.15 K by the Electromotive Force Method
Source: J. Chem. Eng. Data, 2019, 10.1021/acs.jced.8b00598
Compound 1: sodium chloride, ClNa, InChI=1S/ClH.Na/h1H;/q;+1/p-1, purity 99.8%
Compound 2: copper chloride, Cl2Cu, InChI=1S/2ClH.Cu/h2*1H;/q;;+2/p-2, purity 99%
Compound 3: water, H2O, InChI=1S/H2O/h1H2, purity 99.9%

System: sodium chloride + copper chloride + water; phases: Liquid
Fixed: Temperature, K = 298.15
Fixed: Pressure, kPa = 94.77
Property: Mean ionic activity coefficient of sodium chloride (Liquid); method: Calculated from EMF cell potential
Molality, mol/kg of sodium chloride	Molality, mol/kg of copper chloride	Mean ionic activity coefficient of sodium chloride	uncertainty
0.01	0	0.8665	0.0536
0.008	0.0007	0.8333	0.0537
0.0059	0.0014	0.8052	0.0538
0.0039	0.002	0.7886	0.0538
0.0021	0.0027	0.7719	0.054
0.05	0	0.8413	0.0536
0.04	0.0033	0.805	0.0538
0.0299	0.0066	0.7727	0.0539
0.02	0.01	0.7452	0.054
0.01	0.0133	0.7332	0.0541
0.1	0	0.8107	0.0537
0.08	0.0067	0.7797	0.0539
0.06	0.0133	0.7463	0.054
0.04	0.02	0.7108	0.0541
0.0201	0.0267	0.6931	0.0542
0.1998	0	0.7893	0.0538
0.1599	0.0133	0.7444	0.054
0.12	0.0267	0.7171	0.0541
0.08	0.04	0.6814	0.0543
0.04	0.0533	0.6527	0.0544
0.2999	0	0.7661	0.0539
0.2402	0.02	0.7138	0.0541
0.1799	0.04	0.6831	0.0542
0.1201	0.06	0.6486	0.0544
0.0601	0.08	0.6212	0.0545
0.4	0	0.7403	0.054
0.3199	0.0267	0.6918	0.0542
0.2401	0.0533	0.6493	0.0544
0.16	0.08	0.6152	0.0545
0.08	0.1067	0.5969	0.0546
0.5001	0	0.719	0.0541
0.4001	0.0333	0.6705	0.0543
0.2999	0.0668	0.6311	0.0545
0.2	0.1	0.5916	0.0546
0.1	0.1333	0.5607	0.0548
0.6001	0	0.6993	0.0542
0.4801	0.04	0.6444	0.0544
0.3598	0.08	0.5985	0.0546
0.24	0.12	0.5608	0.0548
0.1198	0.1599	0.525	0.0549
0.7	0	0.6698	0.0543
0.5601	0.0467	0.6196	0.0545
0.4199	0.0933	0.573	0.0547
0.2799	0.14	0.5309	0.0549
0.1401	0.1867	0.494	0.0551
0.7991	0	0.6479	0.0544
0.6399	0.0533	0.5918	0.0546
0.48	0.1066	0.5437	0.0548
0.3195	0.1599	0.5004	0.055
0.1598	0.2132	0.4619	0.0552
0.9001	0	0.6276	0.0545
0.7199	0.06	0.5716	0.0547
0.5396	0.1199	0.5203	0.0549
0.3599	0.1799	0.4753	0.0551
0.1799	0.2398	0.4348	0.0553
0.9998	0	0.6092	0.0546
0.7999	0.0667	0.5502	0.0548
0.6002	0.1333	0.5005	0.055
0.3998	0.2	0.454	0.0552
0.2	0.2666	0.4126	0.0554

System: sodium chloride + water; phases: Liquid
Fixed: Temperature, K = 298.15
Fixed: Pressure, kPa = 94.77
Property: Mean ionic activity coefficient of sodium chloride (Liquid); method: Calculated from EMF cell potential
Molality, mol/kg of sodium chloride	Mean ionic activity coefficient of sodium chloride	uncertainty
0.01	0.8665	0.0535
0.05	0.8413	0.0536
0.1	0.8107	0.0537
0.1998	0.7893	0.0538
0.2999	0.7661	0.0539
0.4	0.7403	0.054
0.5001	0.719	0.0541
0.6001	0.6993	0.0542
0.7	0.6698	0.0543
0.7991	0.6479	0.0544
0.9001	0.6276	0.0545
0.9998	0.6092	0.0546
