Measured thermophysical data. Phase equilibrium in the System KH2PO4 + KCl + H3PO4 at 298.15 K and 308.15 K
Source: J. Chem. Eng. Data, 2017, 10.1021/acs.jced.7b00554
Compound 1: monopotassium phosphate, H2KO4P, InChI=1S/K.H3O4P/c;1-5(2,3)4/h;(H3,1,2,3,4)/q+1;/p-1, purity 99.3%
Compound 2: potassium chloride, ClK, InChI=1S/ClH.K/h1H;/q;+1/p-1, purity 99.2%
Compound 3: water, H2O, InChI=1S/H2O/h1H2, purity 99.8%
Compound 4: phosphoric acid, H3O4P, InChI=1S/H3O4P/c1-5(2,3)4/h(H3,1,2,3,4), purity 99.3%

System: water + phosphoric acid + monopotassium phosphate; phases: Liquid, Crystal
Fixed: Pressure, kPa = 100
Property: Mass fraction of monopotassium phosphate (Liquid); method: gravimetric analysis
Temperature, K	Solvent: Mass fraction of phosphoric acid	Mass fraction of monopotassium phosphate	uncertainty
298.15	0	0.1985	0.0082
298.15	0.1	0.2231	0.0093
298.15	0.2	0.2503	0.0105
298.15	0.3	0.2789	0.0118
298.15	0.4	0.3049	0.0128
298.15	0.5	0.3251	0.0139
298.15	0.6	0.3511	0.0151
298.15	0.7	0.3919	0.016
298.15	0.8	0.3977	0.016
308.15	0	0.2296	0.0094
308.15	0.1	0.261	0.0107
308.15	0.2	0.2847	0.0117
308.15	0.3	0.3058	0.0126
308.15	0.4	0.3271	0.0137
308.15	0.5	0.3532	0.0149
308.15	0.6	0.3725	0.0157
308.15	0.7	0.4089	0.0165
308.15	0.8	0.4106	0.0165

System: water + phosphoric acid + potassium chloride; phases: Liquid, Crystal
Fixed: Pressure, kPa = 100
Property: Mass fraction of potassium chloride (Liquid); method: gravimetric analysis
Temperature, K	Solvent: Mass fraction of phosphoric acid	Mass fraction of potassium chloride	uncertainty
298.15	0	0.2645	0.0054
298.15	0.1	0.2318	0.005
298.15	0.2	0.2008	0.0048
298.15	0.3	0.1751	0.0046
298.15	0.4	0.1518	0.0049
298.15	0.5	0.1277	0.0043
298.15	0.6	0.1178	0.0025
298.15	0.7	0.1163	0.0024
298.15	0.8	0.1145	0.0023
308.15	0	0.2784	0.0057
308.15	0.1	0.2503	0.0053
308.15	0.2	0.2254	0.0053
308.15	0.3	0.1871	0.0054
308.15	0.4	0.1644	0.0051
308.15	0.5	0.1391	0.005
308.15	0.6	0.1239	0.0029
308.15	0.7	0.1237	0.0025
308.15	0.8	0.1218	0.0025

System: water + monopotassium phosphate; phases: Liquid, Crystal
Fixed: Pressure, kPa = 100
Property: Mass fraction of monopotassium phosphate (Liquid); method: gravimetric analysis
Temperature, K	Mass fraction of monopotassium phosphate	uncertainty
298.15	0.1985	0.0082
308.15	0.2296	0.0094

System: water + potassium chloride; phases: Liquid, Crystal
Fixed: Pressure, kPa = 100
Property: Mass fraction of potassium chloride (Liquid); method: gravimetric analysis
Temperature, K	Mass fraction of potassium chloride	uncertainty
298.15	0.2645	0.0054
308.15	0.2784	0.0057
