Measured thermophysical data. High Pressure Phase Behavior of the Homologous Series CO2 + 1-Alcohols
Source: J. Chem. Eng. Data, 2018, 10.1021/acs.jced.7b01000
Compound 1: carbon dioxide, CO2, InChI=1S/CO2/c2-1-3
Compound 2: dodecan-1-ol, C12H26O, InChI=1S/C12H26O/c1-2-3-4-5-6-7-8-9-10-11-12-13/h13H,2-12H2,1H3
Compound 3: 1-tetradecanol, C14H30O, InChI=1S/C14H30O/c1-2-3-4-5-6-7-8-9-10-11-12-13-14-15/h15H,2-14H2,1H3
Compound 4: 1-hexadecanol, C16H34O, InChI=1S/C16H34O/c1-2-3-4-5-6-7-8-9-10-11-12-13-14-15-16-17/h17H,2-16H2,1H3

System: carbon dioxide + dodecan-1-ol; phases: Liquid, Gas
Property: Vapor or sublimation pressure, kPa (Liquid); method: Closed cell (Static) method
Mass fraction of dodecan-1-ol	Temperature, K	Vapor or sublimation pressure, kPa	uncertainty
0.725	308	8600	800
0.725	318	10000	500
0.725	328	11400	400
0.725	338	12600	400
0.725	348	13700	400
0.725	358	14700	400
0.681	307.9	14000	800
0.681	318	12500	800
0.681	328	13000	500
0.681	338.3	14000	500
0.681	348.2	15200	400
0.681	358.3	16300	400
0.617	317.8	21200	1200
0.617	328.4	18300	800
0.617	338.2	18000	600
0.617	348.4	18400	500
0.617	358	19000	500
0.585	318.5	27000	1600
0.585	327.6	22200	1200
0.585	332.8	21600	1000
0.585	340.9	20900	900
0.585	346.7	20800	800
0.585	353	21200	700

System: carbon dioxide + dodecan-1-ol; phases: Gas, Liquid
Property: Vapor or sublimation pressure, kPa (Gas); method: Closed cell (Static) method
Mass fraction of dodecan-1-ol	Temperature, K	Vapor or sublimation pressure, kPa	uncertainty
0.232	338.4	27300	400
0.232	343.3	26300	400
0.232	348.3	25900	300
0.232	353.6	25600	300
0.232	358.2	25600	600
0.16	333.4	26700	400
0.16	338.3	25600	400
0.16	343.4	25000	300
0.16	348.1	24700	300
0.16	353.3	24600	300
0.16	358.1	24700	300
0.114	327.8	24500	500
0.114	333	23500	400
0.114	338.3	23100	400
0.114	343.2	22900	300
0.114	348.2	22900	300
0.114	353.1	23100	300
0.114	358.2	23400	300
0.085	313.2	24500	400
0.085	318.1	22500	400
0.085	328.3	20200	400
0.085	333.3	20300	400
0.085	338.2	20600	400
0.085	348.2	21100	300
0.085	358	22000	300

System: carbon dioxide + 1-tetradecanol; phases: Liquid, Gas
Property: Vapor or sublimation pressure, kPa (Liquid); method: Closed cell (Static) method
Mass fraction of 1-tetradecanol	Temperature, K	Vapor or sublimation pressure, kPa	uncertainty
0.687	318.4	17730	1620
0.687	323.6	16700	1080
0.687	328.4	16250	880
0.687	333.5	15940	840
0.687	338.2	16310	750
0.687	343.4	16600	680
0.687	353.3	17600	590
0.652	317.9	26710	1440
0.652	323.1	22700	1170
0.652	333.4	20490	790
0.652	338.1	20040	640
0.652	343.3	20030	630
0.652	348.3	20170	390
0.652	353.3	20360	520
0.64	318.3	26390	420
0.64	323.3	23140	1230
0.64	333	19960	730
0.64	338.1	19110	630
0.64	343.5	19560	580
0.64	348.1	19800	520
0.64	353.3	20080	420
0.619	323.5	27700	1730
0.619	333	23180	820
0.619	338.2	22120	720
0.619	343.4	21860	600
0.619	347.6	21720	530
0.619	353.5	21460	510
0.575	332.9	26830	780
0.575	338.1	25080	710
0.575	343.2	24230	580
0.575	348.5	23630	530
0.575	353.7	23490	510

System: carbon dioxide + 1-tetradecanol; phases: Gas, Liquid
Property: Vapor or sublimation pressure, kPa (Gas); method: Closed cell (Static) method
Mass fraction of 1-tetradecanol	Temperature, K	Vapor or sublimation pressure, kPa	uncertainty
0.0758	314.3	28420	780
0.0758	323.5	23760	540
0.0758	333.2	22850	430
0.0758	342.8	23190	400
0.0758	353.5	24100	390
0.0483	313.5	16460	500
0.0483	323.2	17730	390
0.0483	333	18340	360
0.0483	343.1	19330	350
0.0483	353.4	20340	350
0.0388	313.3	14350	370
0.0388	323.4	15390	360
0.0388	331.9	16570	350
0.0388	343	18050	350
0.0388	353.1	19470	340
0.0276	313.2	11790	350
0.0276	323.2	13580	340
0.0276	333	14880	340
0.0276	342.9	16200	340
0.0276	353.1	17670	340

System: carbon dioxide + 1-hexadecanol; phases: Liquid, Gas
Property: Vapor or sublimation pressure, kPa (Liquid); method: Closed cell (Static) method
Mass fraction of 1-hexadecanol	Temperature, K	Vapor or sublimation pressure, kPa	uncertainty
0.803	329.4	10420	380
0.803	337.7	11380	370
0.803	348.1	12430	360
0.803	358.1	13390	350
0.746	329.2	13200	470
0.746	338.7	13980	430
0.746	349	14830	420
0.746	358.7	15360	380
0.686	329.1	18350	710
0.686	334.1	17900	620
0.686	338.9	17870	540
0.686	343.5	17900	570
0.686	346.4	18040	480
0.686	352.7	18270	490
0.686	358.7	18130	460
0.633	325.9	26110	940
0.633	329.5	24390	950
0.633	334.4	22520	780
0.633	338.8	21790	650
0.633	348.5	21070	590
0.633	358.5	21150	540
0.581	343.3	25760	710
0.581	348.7	24830	710
0.581	353.4	24350	600
0.581	358	24210	590

System: carbon dioxide + 1-hexadecanol; phases: Gas, Liquid
Property: Vapor or sublimation pressure, kPa (Gas); method: Closed cell (Static) method
Mass fraction of 1-hexadecanol	Temperature, K	Vapor or sublimation pressure, kPa	uncertainty
0.0576	323.5	24890	520
0.0576	333.2	23320	420
0.0576	343	23200	410
0.0576	353.1	23350	340
0.0475	323.3	21470	400
0.0475	338.2	21110	370
0.0475	353	22630	350
0.0392	323.1	20660	380
0.0392	332.9	19960	350
0.0392	342.6	20430	330
0.0392	353.3	20950	340
0.0304	322.9	17110	410
0.0304	333.1	18780	340
0.0304	343.4	19830	330
0.0304	353.5	20370	330
