Measured thermophysical data. Thermodynamic Properties of Trimethylene Urethane (1,3-Oxazinan-2-one)
Source: J. Chem. Eng. Data, 2018, 10.1021/acs.jced.8b00643
Compound 1: carbon dioxide, CO2, InChI=1S/CO2/c2-1-3
Compound 2: nitrogen, N2, InChI=1S/N2/c1-2
Compound 3: water, H2O, InChI=1S/H2O/h1H2
Compound 4: oxygen, O2, InChI=1S/O2/c1-2
Compound 5: tetrahydro-1,3-oxazin-2-one, C4H7NO2, InChI=1S/C4H7NO2/c6-4-5-2-1-3-7-4/h1-3H2,(H,5,6)

System: tetrahydro-1,3-oxazin-2-one; phases: Crystal, Liquid, Air at 1 atmosphere
Property: Triple point temperature, K (Crystal); method: DSC
Triple point temperature, K	uncertainty
355.3	0.9

System: tetrahydro-1,3-oxazin-2-one; phases: Crystal, Liquid, Air at 1 atmosphere
Property: Molar enthalpy of transition or fusion, kJ/mol (Crystal); method: DSC
Molar enthalpy of transition or fusion, kJ/mol	uncertainty
15.3	1.1

System: tetrahydro-1,3-oxazin-2-one; phases: Crystal
Property: Mass density, kg/m3 (Crystal); method: Pycnometric method
Temperature, K	Pressure, kPa	Mass density, kg/m3	uncertainty
293	101.325	1490	20

System: tetrahydro-1,3-oxazin-2-one; phases: Crystal, Gas
Property: Vapor or sublimation pressure, kPa (Crystal); method: Transpiration method
Temperature, K	Vapor or sublimation pressure, kPa	uncertainty
327.7	0.00023	2e-05
332.7	0.00039	3e-05
337.7	0.00061	5e-05
342.7	0.001	7e-05
345.7	0.00134	0.0001
348.6	0.00167	0.00012
352.6	0.0024	0.00017

System: tetrahydro-1,3-oxazin-2-one; phases: Liquid, Gas
Property: Vapor or sublimation pressure, kPa (Liquid); method: Transpiration method
Temperature, K	Vapor or sublimation pressure, kPa	uncertainty
358	0.00409	0.00027
361.3	0.00517	0.00036
365.3	0.00677	0.00046
368	0.00807	0.00055
370.2	0.0095	0.00063
372.8	0.01116	0.00073
377.4	0.01498	0.00098
380.3	0.01771	0.00115
382.2	0.02005	0.0013
385.1	0.02395	0.00153

Reaction: -1 tetrahydro-1,3-oxazin-2-one + 4 carbon dioxide + .5 nitrogen + 3.5 water + -4.75 oxygen
Property: Specific internal energy of reaction at constant volume, J/g
-20910.2
