Measured thermophysical data. Solubility and Thermodynamic Analysis of Tenoxicam in  Different Pure Solvents at Different Temperatures
Source: J. Chem. Eng. Data, 2015, 10.1021/acs.jced.5b00382
Compound 1: ethanol, C2H6O, InChI=1S/C2H6O/c1-2-3/h3H,2H2,1H3, purity 99.9%
Compound 2: 4-hydroxy-2-methyl-N-(pyridin-2-yl)-2H-thieno[2,3-e][1,2]thiazine-3-carboxamide 1,1-dioxide, C13H11N3O4S2, InChI=1S/C13H11N3O4S2/c1-16-10(13(18)15-9-4-2-3-6-14-9)11(17)12-8(5-7-21-12)22(16,19)20/h2-7,17H,1H3,(H,14,15,18), purity 99%
Compound 3: 1,2-ethanediol, C2H6O2, InChI=1S/C2H6O2/c3-1-2-4/h3-4H,1-2H2, purity 99%
Compound 4: ethyl acetate, C4H8O2, InChI=1S/C4H8O2/c1-3-6-4(2)5/h3H2,1-2H3, purity 99.8%
Compound 5: 1,2-propanediol, C3H8O2, InChI=1S/C3H8O2/c1-3(5)2-4/h3-5H,2H2,1H3, purity 99.5%
Compound 6: propan-2-ol, C3H8O, InChI=1S/C3H8O/c1-3(2)4/h3-4H,1-2H3, purity 99.7%
Compound 7: butan-1-ol, C4H10O, InChI=1S/C4H10O/c1-2-3-4-5/h5H,2-4H2,1H3, purity 99%
Compound 8: butan-2-ol, C4H10O, InChI=1S/C4H10O/c1-3-4(2)5/h4-5H,3H2,1-2H3, purity 99%
Compound 9: 3,6-dioxa-1-octanol, C6H14O3, InChI=1S/C6H14O3/c1-2-8-5-6-9-4-3-7/h7H,2-6H2,1H3, purity 99.9%
Compound 10: water, H2O, InChI=1S/H2O/h1H2, purity 100%

System: ethanol + 4-hydroxy-2-methyl-N-(pyridin-2-yl)-2H-thieno[2,3-e][1,2]thiazine-3-carboxamide 1,1-dioxide; phases: Liquid, Crystal
Fixed: Pressure, kPa = 100
Property: Mole fraction of 4-hydroxy-2-methyl-N-(pyridin-2-yl)-2H-thieno[2,3-e][1,2]thiazine-3-carboxamide 1,1-dioxide (Liquid); method: Beer's Law
Temperature, K	Mole fraction of 4-hydroxy-2-methyl-N-(pyridin-2-yl)-2H-thieno[2,3-e][1,2]thiazine-3-carboxamide 1,1-dioxide	uncertainty
298.15	3.71e-05	8e-07
303.15	4.11e-05	9e-07
308.15	4.56e-05	1e-06
313.15	4.98e-05	1.1e-06
323.15	5.84e-05	1.3e-06

System: 1,2-ethanediol + 4-hydroxy-2-methyl-N-(pyridin-2-yl)-2H-thieno[2,3-e][1,2]thiazine-3-carboxamide 1,1-dioxide; phases: Liquid, Crystal
Fixed: Pressure, kPa = 100
Property: Mole fraction of 4-hydroxy-2-methyl-N-(pyridin-2-yl)-2H-thieno[2,3-e][1,2]thiazine-3-carboxamide 1,1-dioxide (Liquid); method: Beer's Law
Temperature, K	Mole fraction of 4-hydroxy-2-methyl-N-(pyridin-2-yl)-2H-thieno[2,3-e][1,2]thiazine-3-carboxamide 1,1-dioxide	uncertainty
298.15	0.000213	5e-06
303.15	0.000246	6e-06
308.15	0.000283	6e-06
313.15	0.000324	7e-06
323.15	0.000441	1e-05

System: ethyl acetate + 4-hydroxy-2-methyl-N-(pyridin-2-yl)-2H-thieno[2,3-e][1,2]thiazine-3-carboxamide 1,1-dioxide; phases: Liquid, Crystal
Fixed: Pressure, kPa = 100
Property: Mole fraction of 4-hydroxy-2-methyl-N-(pyridin-2-yl)-2H-thieno[2,3-e][1,2]thiazine-3-carboxamide 1,1-dioxide (Liquid); method: Beer's Law
Temperature, K	Mole fraction of 4-hydroxy-2-methyl-N-(pyridin-2-yl)-2H-thieno[2,3-e][1,2]thiazine-3-carboxamide 1,1-dioxide	uncertainty
298.15	0.000679	1.5e-05
303.15	0.000746	1.7e-05
308.15	0.000825	1.9e-05
313.15	0.000908	2e-05
323.15	0.00106	2.4e-05

System: 1,2-propanediol + 4-hydroxy-2-methyl-N-(pyridin-2-yl)-2H-thieno[2,3-e][1,2]thiazine-3-carboxamide 1,1-dioxide; phases: Liquid, Crystal
Fixed: Pressure, kPa = 100
Property: Mole fraction of 4-hydroxy-2-methyl-N-(pyridin-2-yl)-2H-thieno[2,3-e][1,2]thiazine-3-carboxamide 1,1-dioxide (Liquid); method: Beer's Law
Temperature, K	Mole fraction of 4-hydroxy-2-methyl-N-(pyridin-2-yl)-2H-thieno[2,3-e][1,2]thiazine-3-carboxamide 1,1-dioxide	uncertainty
298.15	0.000194	5e-06
303.15	0.000235	5e-06
308.15	0.000275	6e-06
313.15	0.000327	8e-06
323.15	0.000437	1e-05

System: propan-2-ol + 4-hydroxy-2-methyl-N-(pyridin-2-yl)-2H-thieno[2,3-e][1,2]thiazine-3-carboxamide 1,1-dioxide; phases: Liquid, Crystal
Fixed: Pressure, kPa = 100
Property: Mole fraction of 4-hydroxy-2-methyl-N-(pyridin-2-yl)-2H-thieno[2,3-e][1,2]thiazine-3-carboxamide 1,1-dioxide (Liquid); method: Beer's Law
Temperature, K	Mole fraction of 4-hydroxy-2-methyl-N-(pyridin-2-yl)-2H-thieno[2,3-e][1,2]thiazine-3-carboxamide 1,1-dioxide	uncertainty
298.15	6.27e-05	1.7e-06
303.15	8.91e-05	2.3e-06
308.15	0.000125	3.1e-06
313.15	0.000164	4.1e-06
323.15	0.000267	6.3e-06

System: butan-1-ol + 4-hydroxy-2-methyl-N-(pyridin-2-yl)-2H-thieno[2,3-e][1,2]thiazine-3-carboxamide 1,1-dioxide; phases: Liquid, Crystal
Fixed: Pressure, kPa = 100
Property: Mole fraction of 4-hydroxy-2-methyl-N-(pyridin-2-yl)-2H-thieno[2,3-e][1,2]thiazine-3-carboxamide 1,1-dioxide (Liquid); method: Beer's Law
Temperature, K	Mole fraction of 4-hydroxy-2-methyl-N-(pyridin-2-yl)-2H-thieno[2,3-e][1,2]thiazine-3-carboxamide 1,1-dioxide	uncertainty
298.15	8.13e-05	2e-06
303.15	0.000105	2.5e-06
308.15	0.000134	3.2e-06
313.15	0.000163	3.9e-06
323.15	0.000239	5.5e-06

System: butan-2-ol + 4-hydroxy-2-methyl-N-(pyridin-2-yl)-2H-thieno[2,3-e][1,2]thiazine-3-carboxamide 1,1-dioxide; phases: Liquid, Crystal
Fixed: Pressure, kPa = 100
Property: Mole fraction of 4-hydroxy-2-methyl-N-(pyridin-2-yl)-2H-thieno[2,3-e][1,2]thiazine-3-carboxamide 1,1-dioxide (Liquid); method: Beer's Law
Temperature, K	Mole fraction of 4-hydroxy-2-methyl-N-(pyridin-2-yl)-2H-thieno[2,3-e][1,2]thiazine-3-carboxamide 1,1-dioxide	uncertainty
298.15	6.15e-05	1.7e-06
303.15	8.79e-05	2.3e-06
308.15	0.000123	3.1e-06
313.15	0.000163	4.1e-06
323.15	0.000272	6.4e-06

System: 3,6-dioxa-1-octanol + 4-hydroxy-2-methyl-N-(pyridin-2-yl)-2H-thieno[2,3-e][1,2]thiazine-3-carboxamide 1,1-dioxide; phases: Liquid, Crystal
Fixed: Pressure, kPa = 100
Property: Mole fraction of 4-hydroxy-2-methyl-N-(pyridin-2-yl)-2H-thieno[2,3-e][1,2]thiazine-3-carboxamide 1,1-dioxide (Liquid); method: Beer's Law
Temperature, K	Mole fraction of 4-hydroxy-2-methyl-N-(pyridin-2-yl)-2H-thieno[2,3-e][1,2]thiazine-3-carboxamide 1,1-dioxide	uncertainty
298.15	0.00183	4e-05
303.15	0.00202	5e-05
308.15	0.00222	5e-05
313.15	0.00241	5e-05
323.15	0.00286	6e-05

System: water + 4-hydroxy-2-methyl-N-(pyridin-2-yl)-2H-thieno[2,3-e][1,2]thiazine-3-carboxamide 1,1-dioxide; phases: Liquid, Crystal
Fixed: Pressure, kPa = 100
Property: Mole fraction of 4-hydroxy-2-methyl-N-(pyridin-2-yl)-2H-thieno[2,3-e][1,2]thiazine-3-carboxamide 1,1-dioxide (Liquid); method: Beer's Law
Temperature, K	Mole fraction of 4-hydroxy-2-methyl-N-(pyridin-2-yl)-2H-thieno[2,3-e][1,2]thiazine-3-carboxamide 1,1-dioxide	uncertainty
298.15	4.11e-06	1e-07
303.15	5.07e-06	1.2e-07
308.15	6.46e-06	1.6e-07
313.15	8.33e-06	2.1e-07
323.15	1.38e-05	3.2e-07
