Measured thermophysical data. Vapor Pressure Measurement for the Ternary System of Water, Lithium Bromide, and 1-Ethyl-3-methylimidazolium Acetate
Source: J. Chem. Eng. Data, 2018, 10.1021/acs.jced.7b00951
Compound 1: 1-ethyl-3-methylimidazolium acetate, C8H14N2O2, InChI=1S/C6H11N2.C2H4O2/c1-3-8-5-4-7(2)6-8;1-2(3)4/h4-6H,3H2,1-2H3;1H3,(H,3,4)/q+1;/p-1, purity 98%
Compound 2: lithium bromide, BrLi, InChI=1S/BrH.Li/h1H;/q;+1/p-1, purity 99.9%
Compound 3: water, H2O, InChI=1S/H2O/h1H2, purity 99.9%
Compound 4: sodium chloride, ClNa, InChI=1S/ClH.Na/h1H;/q;+1/p-1, purity 99.8%

System: water; phases: Liquid, Gas
Property: Vapor or sublimation pressure, kPa (Liquid); method: Ebulliometric method (Recirculating still)
Temperature, K	Vapor or sublimation pressure, kPa	uncertainty
303.04	4.313	1.059
321.72	11.529	1.061
335.07	21.808	1.066
343.55	31.638	1.074
349.97	41.55	1.084
354.9	50.748	1.098
360.41	63.299	1.108
363.35	70.649	1.125
367.52	82.591	1.136
369.91	90.163	1.157
373.02	100.907	1.163

System: lithium bromide + 1-ethyl-3-methylimidazolium acetate + water; phases: Liquid, Gas
Fixed: Solvent: Mass ratio of component to other component of binary solvent of lithium bromide = 3
Property: Vapor or sublimation pressure, kPa (Liquid); method: Ebulliometric method (Recirculating still)
Mass fraction of water	Temperature, K	Vapor or sublimation pressure, kPa	uncertainty
0.8	303.94	4.699	1.061
0.8	325.12	13.049	1.063
0.8	334.77	20.069	1.073
0.8	349.64	37.469	1.088
0.8	356.07	48.457	1.112
0.8	361.38	59.512	1.134
0.8	365.11	68.72	1.16
0.8	368.05	76.742	1.179
0.8	371.67	87.695	1.202
0.8	373.59	94.014	1.226
0.8	375.53	100.896	1.242
0.7	305.12	5.347	1.061
0.7	329.44	15.937	1.065
0.7	341.98	26.102	1.075
0.7	350.07	35.703	1.089
0.7	356.55	45.723	1.106
0.7	362.65	57.411	1.126
0.7	366.4	65.985	1.152
0.7	370.66	77.17	1.17
0.7	373.75	86.178	1.191
0.7	375.49	91.758	1.226
0.7	378.09	100.786	1.244
0.6	307.38	4.571	1.061
0.6	337.8	18.492	1.071
0.6	345.23	25.228	1.078
0.6	354.45	36.576	1.087
0.6	360.53	46.383	1.112
0.6	365.71	56.32	1.127
0.6	369.73	65.372	1.146
0.6	374.19	76.977	1.166
0.6	377.56	86.836	1.171
0.6	379.88	94.2	1.28
0.6	381.68	100.471	1.281
0.5	324.73	6.977	1.062
0.5	344.5	17.064	1.066
0.5	356.47	27.619	1.076
0.5	362.65	35.344	1.089
0.5	369.55	46.038	1.104
0.5	375.03	56.501	1.123
0.5	378.74	64.661	1.142
0.5	383.19	75.918	1.167
0.5	386.68	85.881	1.193
0.5	388.97	93.06	1.21
0.5	391.31	100.771	1.228
0.4	332.16	6.056	1.061
0.4	355.89	16.814	1.066
0.4	370.78	29.67	1.077
0.4	376.19	36.673	1.09
0.4	381.54	44.638	1.101
0.4	387.16	54.43	1.117
0.4	391.86	64.148	1.138
0.4	396.59	75.48	1.16
0.4	400.14	84.753	1.18
0.4	402.6	91.9	1.204
0.4	405.41	100.79	1.222

System: sodium chloride + water; phases: Liquid, Gas
Fixed: Mass fraction of sodium chloride = 0.25
Property: Vapor or sublimation pressure, kPa (Liquid); method: Ebulliometric method (Recirculating still)
Temperature, K	Vapor or sublimation pressure, kPa	uncertainty
310.26	4.966	1.061
335.06	16.933	1.066
347.43	28.955	1.079
354.88	39.585	1.096
361.97	52.275	1.113
365.96	60.928	1.133
370.02	70.602	1.153
374	81.5	1.176
376.56	89.31	1.202
379.92	100.401	1.219
