Measured thermophysical data. Density and Speed of Sound of Binary Mixtures of Ionic Liquid 1-Ethyl-3-methylimidazolium Tetrafluoroborate, N,N-Dimethylformamide, and N,N-Dimethylacetamide at Temperature Range of 293.15 343.15 K: Measurement and PC-SAFT Modeling
Source: J. Chem. Eng. Data, 2017, 10.1021/acs.jced.6b00496
Compound 1: 1-ethyl-3-methylimidazolium tetrafluoroborate, C6H11BF4N2, InChI=1S/C6H11N2.BF4/c1-3-8-5-4-7(2)6-8;2-1(3,4)5/h4-6H,3H2,1-2H3;/q+1;-1, purity 98%
Compound 2: dimethylformamide, C3H7NO, InChI=1S/C3H7NO/c1-4(2)3-5/h3H,1-2H3, purity 99.8%
Compound 3: N,N-dimethylethanamide, C4H9NO, InChI=1S/C4H9NO/c1-4(6)5(2)3/h1-3H3, purity 99%

System: 1-ethyl-3-methylimidazolium tetrafluoroborate; phases: Liquid
Fixed: Pressure, kPa = 101.325
Property: Mass density, kg/m3 (Liquid); method: Vibrating tube method
Temperature, K	Mass density, kg/m3	uncertainty
293.15	1285.949	5.318
298.15	1282.136	5.301
303.15	1278.337	5.284
308.15	1274.554	5.267
313.15	1270.782	5.251
318.15	1267.032	5.234
323.15	1263.295	5.218
328.15	1259.578	5.201
333.15	1255.881	5.185
338.15	1252.203	5.169
343.15	1248.54	5.152

System: 1-ethyl-3-methylimidazolium tetrafluoroborate; phases: Liquid
Fixed: Pressure, kPa = 101.325
Property: Speed of sound, m/s (Liquid); method: Sing-around technique in a fixed-path interferometer
Temperature, K	Speed of sound, m/s	uncertainty
293.15	1640.4	3.7
298.15	1628.4	3.7
303.15	1616	3.7
308.15	1604.9	3.7
313.15	1593.4	3.7
318.15	1582	3.7
323.15	1570.6	3.7
328.15	1559.4	3.7
333.15	1548.2	3.7
338.15	1537.2	3.7
343.15	1526.2	3.7

System: dimethylformamide; phases: Liquid
Fixed: Pressure, kPa = 101.325
Property: Mass density, kg/m3 (Liquid); method: Vibrating tube method
Temperature, K	Mass density, kg/m3	uncertainty
293.15	948.743	3.795
298.15	943.978	3.776
303.15	939.201	3.757
308.15	934.417	3.738
313.15	929.62	3.719
318.15	924.812	3.7
323.15	919.993	3.681
328.15	915.159	3.661
333.15	910.312	3.642
338.15	905.445	3.622
343.15	900.565	3.603

System: dimethylformamide; phases: Liquid
Fixed: Pressure, kPa = 101.325
Property: Speed of sound, m/s (Liquid); method: Sing-around technique in a fixed-path interferometer
Temperature, K	Speed of sound, m/s	uncertainty
293.15	1477.1	3.1
298.15	1457.6	3.1
303.15	1438	3.1
308.15	1418.7	3.1
313.15	1399.3	3.1
318.15	1380	3.1
323.15	1360.9	3.1
328.15	1341.7	3.1
333.15	1322.7	3.1
338.15	1303.7	3.1
343.15	1284.8	3.1

System: N,N-dimethylethanamide; phases: Liquid
Fixed: Pressure, kPa = 101.325
Property: Mass density, kg/m3 (Liquid); method: Vibrating tube method
Temperature, K	Mass density, kg/m3	uncertainty
293.15	941.341	3.771
298.15	936.729	3.753
303.15	932.112	3.734
308.15	927.492	3.716
313.15	922.863	3.697
318.15	918.23	3.679
323.15	913.586	3.66
328.15	908.932	3.642
333.15	904.268	3.623
338.15	899.595	3.605
343.15	894.909	3.586

System: N,N-dimethylethanamide; phases: Liquid
Fixed: Pressure, kPa = 101.325
Property: Speed of sound, m/s (Liquid); method: Sing-around technique in a fixed-path interferometer
Temperature, K	Speed of sound, m/s	uncertainty
293.15	1477.6	3.2
298.15	1457.4	3.2
303.15	1437.4	3.2
308.15	1417.5	3.2
313.15	1397.8	3.2
318.15	1378.2	3.2
323.15	1358.6	3.2
328.15	1339.2	3.2
333.15	1319.9	3.2
338.15	1300.8	3.2
343.15	1281.7	3.2

System: dimethylformamide + 1-ethyl-3-methylimidazolium tetrafluoroborate; phases: Liquid
Fixed: Pressure, kPa = 81.5
Property: Mass density, kg/m3 (Liquid); method: Vibrating tube method
Temperature, K	Mole fraction of 1-ethyl-3-methylimidazolium tetrafluoroborate	Mass density, kg/m3	uncertainty
293.15	0.0997	1019.179	4.078
293.15	0.2042	1075.445	4.304
293.15	0.2983	1116.819	4.472
293.15	0.4111	1157.474	4.64
293.15	0.5003	1184.763	4.756
293.15	0.585	1206.748	4.855
293.15	0.6965	1231.364	4.974
293.15	0.7833	1247.192	5.061
293.15	0.9134	1267.671	5.194
298.15	0.0997	1014.686	4.06
298.15	0.2042	1071.123	4.286
298.15	0.2983	1112.615	4.455
298.15	0.4111	1153.376	4.623
298.15	0.5003	1180.738	4.74
298.15	0.585	1202.773	4.838
298.15	0.6965	1227.438	4.958
298.15	0.7833	1243.296	5.045
298.15	0.9134	1263.822	5.178
303.15	0.0997	1010.193	4.042
303.15	0.2042	1066.805	4.269
303.15	0.2983	1108.42	4.438
303.15	0.4111	1149.294	4.607
303.15	0.5003	1176.724	4.724
303.15	0.585	1198.806	4.822
303.15	0.6965	1223.526	4.942
303.15	0.7833	1239.427	5.029
303.15	0.9134	1259.988	5.161
308.15	0.0997	1005.7	4.024
308.15	0.2042	1062.494	4.252
308.15	0.2983	1104.233	4.421
308.15	0.4111	1145.227	4.59
308.15	0.5003	1172.722	4.707
308.15	0.585	1194.857	4.806
308.15	0.6965	1219.632	4.926
308.15	0.7833	1235.572	5.012
308.15	0.9134	1256.17	5.145
313.15	0.0997	1001.204	4.006
313.15	0.2042	1058.188	4.235
313.15	0.2983	1100.053	4.404
313.15	0.4111	1141.169	4.574
313.15	0.5003	1168.733	4.691
313.15	0.585	1190.922	4.79
313.15	0.6965	1215.752	4.91
313.15	0.7833	1231.73	4.996
313.15	0.9134	1252.368	5.128
318.15	0.0997	996.709	3.988
318.15	0.2042	1053.889	4.217
318.15	0.2983	1095.882	4.387
318.15	0.4111	1137.12	4.557
318.15	0.5003	1164.758	4.675
318.15	0.585	1187.001	4.774
318.15	0.6965	1211.892	4.894
318.15	0.7833	1227.91	4.98
318.15	0.9134	1248.583	5.112
323.15	0.0997	992.209	3.97
323.15	0.2042	1049.593	4.2
323.15	0.2983	1091.719	4.371
323.15	0.4111	1133.079	4.541
323.15	0.5003	1160.794	4.659
323.15	0.585	1183.096	4.758
323.15	0.6965	1208.049	4.878
323.15	0.7833	1224.107	4.964
323.15	0.9134	1244.815	5.096
328.15	0.0997	987.708	3.952
328.15	0.2042	1045.306	4.183
328.15	0.2983	1087.565	4.354
328.15	0.4111	1129.051	4.525
328.15	0.5003	1156.845	4.643
328.15	0.585	1179.206	4.742
328.15	0.6965	1204.22	4.862
328.15	0.7833	1220.322	4.948
328.15	0.9134	1241.07	5.079
333.15	0.0997	983.204	3.934
333.15	0.2042	1041.011	4.166
333.15	0.2983	1083.419	4.337
333.15	0.4111	1125.033	4.509
333.15	0.5003	1152.909	4.627
333.15	0.585	1175.33	4.726
333.15	0.6965	1200.408	4.846
333.15	0.7833	1216.551	4.933
333.15	0.9134	1237.341	5.063
338.15	0.0997	978.699	3.916
338.15	0.2042	1036.728	4.149
338.15	0.2983	1079.28	4.321
338.15	0.4111	1121.029	4.492
338.15	0.5003	1148.986	4.611
338.15	0.585	1171.467	4.71
338.15	0.6965	1196.609	4.83
338.15	0.7833	1212.8	4.917
338.15	0.9134	1233.627	5.047
343.15	0.0997	974.184	3.898
343.15	0.2042	1032.446	4.131
343.15	0.2983	1075.149	4.304
343.15	0.4111	1117.033	4.476
343.15	0.5003	1145.073	4.595
343.15	0.585	1167.616	4.695
343.15	0.6965	1192.823	4.815
343.15	0.7833	1209.064	4.901
343.15	0.9134	1229.929	5.031
293.15	0	948.743	3.795
298.15	0	943.978	3.776
303.15	0	939.201	3.757
308.15	0	934.417	3.738
313.15	0	929.62	3.719
318.15	0	924.812	3.7
323.15	0	919.993	3.681
328.15	0	915.159	3.661
333.15	0	910.312	3.642
338.15	0	905.445	3.622
343.15	0	900.565	3.603
293.15	1	1285.949	5.317
298.15	1	1282.136	5.301
303.15	1	1278.337	5.284
308.15	1	1274.554	5.267
313.15	1	1270.782	5.25
318.15	1	1267.032	5.234
323.15	1	1263.295	5.217
328.15	1	1259.578	5.201
333.15	1	1255.881	5.184
338.15	1	1252.203	5.168
343.15	1	1248.54	5.152

System: dimethylformamide + 1-ethyl-3-methylimidazolium tetrafluoroborate; phases: Liquid
Fixed: Pressure, kPa = 81.5
Property: Speed of sound, m/s (Liquid); method: Sing-around technique in a fixed-path interferometer
Temperature, K	Mole fraction of 1-ethyl-3-methylimidazolium tetrafluoroborate	Speed of sound, m/s	uncertainty
293.15	0.0997	1524.5	3.1
293.15	0.2042	1552.3	3.1
293.15	0.2983	1571.7	3.2
293.15	0.4111	1589.3	3.2
293.15	0.5003	1600.9	3.3
293.15	0.585	1609.6	3.3
293.15	0.6965	1618.8	3.4
293.15	0.7833	1625.5	3.5
293.15	0.9134	1633.1	3.6
298.15	0.0997	1506.5	3.1
298.15	0.2042	1535.6	3.1
298.15	0.2983	1555.9	3.2
298.15	0.4111	1574.6	3.2
298.15	0.5003	1586.9	3.3
298.15	0.585	1596.1	3.3
298.15	0.6965	1605.9	3.4
298.15	0.7833	1612.9	3.5
298.15	0.9134	1620.9	3.6
303.15	0.0997	1488.6	3.1
303.15	0.2042	1519	3.1
303.15	0.2983	1540.4	3.2
303.15	0.4111	1560.1	3.2
303.15	0.5003	1573	3.3
303.15	0.585	1582.7	3.3
303.15	0.6965	1593	3.4
303.15	0.7833	1600.5	3.5
303.15	0.9134	1608.8	3.6
308.15	0.0997	1470.8	3.1
308.15	0.2042	1502.6	3.1
308.15	0.2983	1524.9	3.2
308.15	0.4111	1545.6	3.2
308.15	0.5003	1559.2	3.3
308.15	0.585	1569.4	3.3
308.15	0.6965	1580.3	3.4
308.15	0.7833	1588.2	3.5
308.15	0.9134	1596.9	3.6
313.15	0.0997	1453.1	3.1
313.15	0.2042	1486.2	3.1
313.15	0.2983	1509.6	3.2
313.15	0.4111	1531.3	3.2
313.15	0.5003	1545.6	3.3
313.15	0.585	1556.3	3.3
313.15	0.6965	1567.7	3.4
313.15	0.7833	1576	3.5
313.15	0.9134	1585	3.6
318.15	0.0997	1435.6	3.1
318.15	0.2042	1470	3.1
318.15	0.2983	1494.4	3.2
318.15	0.4111	1517.1	3.2
318.15	0.5003	1532	3.3
318.15	0.585	1543.3	3.3
318.15	0.6965	1555.3	3.4
318.15	0.7833	1563.9	3.5
318.15	0.9134	1573.3	3.6
323.15	0.0997	1418.1	3.1
323.15	0.2042	1453.8	3.1
323.15	0.2983	1479.3	3.2
323.15	0.4111	1503	3.2
323.15	0.5003	1518.6	3.3
323.15	0.585	1530.4	3.3
323.15	0.6965	1542.9	3.4
323.15	0.7833	1551.9	3.5
323.15	0.9134	1561.7	3.6
328.15	0.0997	1400.7	3.1
328.15	0.2042	1437.8	3.1
328.15	0.2983	1464.2	3.2
328.15	0.4111	1489	3.2
328.15	0.5003	1505.2	3.3
328.15	0.585	1517.6	3.3
328.15	0.6965	1530.6	3.4
328.15	0.7833	1540	3.5
328.15	0.9134	1550.1	3.6
333.15	0.0997	1383.3	3.1
333.15	0.2042	1421.8	3.1
333.15	0.2983	1449.3	3.2
333.15	0.4111	1475	3.2
333.15	0.5003	1492	3.3
333.15	0.585	1504.8	3.3
333.15	0.6965	1518.4	3.4
333.15	0.7833	1528.2	3.5
333.15	0.9134	1538.7	3.6
338.15	0.0997	1366.1	3.1
338.15	0.2042	1405.9	3.1
338.15	0.2983	1434.5	3.2
338.15	0.4111	1461.2	3.2
338.15	0.5003	1478.9	3.3
338.15	0.585	1492.2	3.3
338.15	0.6965	1506.4	3.4
338.15	0.7833	1516.5	3.5
338.15	0.9134	1527.4	3.6
343.15	0.0997	1348.9	3.1
343.15	0.2042	1390.2	3.1
343.15	0.2983	1419.8	3.2
343.15	0.4111	1447.5	3.2
343.15	0.5003	1465.8	3.3
343.15	0.585	1479.7	3.3
343.15	0.6965	1494.4	3.4
343.15	0.7833	1504.9	3.5
343.15	0.9134	1516.1	3.6
293.15	1	1640.4	3.7
298.15	1	1628.4	3.7
303.15	1	1616	3.7
308.15	1	1604.9	3.7
313.15	1	1593.4	3.7
318.15	1	1582	3.7
323.15	1	1570.6	3.7
328.15	1	1559.4	3.7
333.15	1	1548.2	3.7
338.15	1	1537.2	3.7
343.15	1	1526.2	3.7
293.15	0	1477.1	3.1
298.15	0	1457.6	3.1
303.15	0	1438	3.1
308.15	0	1418.7	3.1
313.15	0	1399.3	3.1
318.15	0	1380	3.1
323.15	0	1360.9	3.1
328.15	0	1341.7	3.1
333.15	0	1322.7	3.1
338.15	0	1303.7	3.1
343.15	0	1284.8	3.1

System: N,N-dimethylethanamide + 1-ethyl-3-methylimidazolium tetrafluoroborate; phases: Liquid
Fixed: Pressure, kPa = 81.5
Property: Mass density, kg/m3 (Liquid); method: Vibrating tube method
Temperature, K	Mole fraction of 1-ethyl-3-methylimidazolium tetrafluoroborate	Mass density, kg/m3	uncertainty
293.15	0.131	1020.021	4.09
293.15	0.198	1054.855	4.233
293.15	0.2976	1098.689	4.416
293.15	0.3868	1134.168	4.567
293.15	0.4734	1164.328	4.699
293.15	0.563	1190.972	4.819
293.15	0.7089	1230.236	5.006
293.15	0.7973	1244.593	5.084
293.15	0.8821	1257.248	5.159
298.15	0.131	1015.666	4.072
298.15	0.198	1050.627	4.216
298.15	0.2976	1094.554	4.399
298.15	0.3868	1130.11	4.551
298.15	0.4734	1160.324	4.682
298.15	0.563	1187.074	4.803
298.15	0.7089	1226.338	4.99
298.15	0.7973	1240.731	5.068
298.15	0.8821	1253.4	5.142
303.15	0.131	1011.32	4.055
303.15	0.198	1046.395	4.199
303.15	0.2976	1090.428	4.382
303.15	0.3868	1126.062	4.534
303.15	0.4734	1156.334	4.666
303.15	0.563	1183.165	4.787
303.15	0.7089	1222.464	4.973
303.15	0.7973	1236.885	5.051
303.15	0.8821	1249.547	5.125
308.15	0.131	1006.922	4.037
308.15	0.198	1042.175	4.182
308.15	0.2976	1086.313	4.366
308.15	0.3868	1122.026	4.517
308.15	0.4734	1152.366	4.649
308.15	0.563	1179.248	4.771
308.15	0.7089	1218.612	4.957
308.15	0.7973	1233.059	5.035
308.15	0.8821	1245.727	5.108
313.15	0.131	1002.63	4.02
313.15	0.198	1037.957	4.165
313.15	0.2976	1082.207	4.349
313.15	0.3868	1117.998	4.501
313.15	0.4734	1148.414	4.633
313.15	0.563	1175.337	4.754
313.15	0.7089	1214.782	4.941
313.15	0.7973	1229.252	5.019
313.15	0.8821	1241.92	5.092
318.15	0.131	998.322	4.002
318.15	0.198	1033.747	4.148
318.15	0.2976	1078.112	4.332
318.15	0.3868	1113.982	4.484
318.15	0.4734	1144.475	4.617
318.15	0.563	1171.436	4.738
318.15	0.7089	1210.931	4.924
318.15	0.7973	1225.464	5.002
318.15	0.8821	1238.13	5.076
323.15	0.131	994.081	3.985
323.15	0.198	1029.41	4.13
323.15	0.2976	1074.025	4.316
323.15	0.3868	1109.977	4.468
323.15	0.4734	1140.545	4.601
323.15	0.563	1167.54	4.722
323.15	0.7089	1207.136	4.908
323.15	0.7973	1221.694	4.986
323.15	0.8821	1234.361	5.059
328.15	0.131	990.013	3.969
328.15	0.198	1025.2	4.113
328.15	0.2976	1069.951	4.299
328.15	0.3868	1105.977	4.452
328.15	0.4734	1136.625	4.584
328.15	0.563	1163.659	4.706
328.15	0.7089	1203.377	4.892
328.15	0.7973	1217.938	4.97
328.15	0.8821	1230.609	5.043
333.15	0.131	986.018	3.953
333.15	0.198	1021.012	4.096
333.15	0.2976	1065.884	4.282
333.15	0.3868	1101.986	4.435
333.15	0.4734	1132.718	4.568
333.15	0.563	1159.798	4.69
333.15	0.7089	1199.692	4.877
333.15	0.7973	1214.193	4.954
333.15	0.8821	1226.873	5.027
338.15	0.131	982.059	3.937
338.15	0.198	1016.81	4.079
338.15	0.2976	1061.828	4.266
338.15	0.3868	1098.011	4.419
338.15	0.4734	1128.825	4.552
338.15	0.563	1155.955	4.674
338.15	0.7089	1195.92	4.861
338.15	0.7973	1210.464	4.938
338.15	0.8821	1223.162	5.011
343.15	0.131	978.076	3.921
343.15	0.198	1012.61	4.062
343.15	0.2976	1057.78	4.249
343.15	0.3868	1094.04	4.403
343.15	0.4734	1124.943	4.536
343.15	0.563	1152.06	4.657
343.15	0.7089	1192.221	4.845
343.15	0.7973	1206.749	4.922
343.15	0.8821	1219.464	4.995
293.15	0	941.341	3.771
298.15	0	936.729	3.753
303.15	0	932.112	3.734
308.15	0	927.492	3.716
313.15	0	922.863	3.697
318.15	0	918.23	3.679
323.15	0	913.586	3.66
328.15	0	908.932	3.642
333.15	0	904.268	3.623
338.15	0	899.595	3.605
343.15	0	894.909	3.586
293.15	1	1285.949	5.317
298.15	1	1282.136	5.301
303.15	1	1278.337	5.284
308.15	1	1274.554	5.267
313.15	1	1270.782	5.25
318.15	1	1267.032	5.234
323.15	1	1263.295	5.217
328.15	1	1259.578	5.201
333.15	1	1255.881	5.184
338.15	1	1252.203	5.168
343.15	1	1248.54	5.152

System: N,N-dimethylethanamide + 1-ethyl-3-methylimidazolium tetrafluoroborate; phases: Liquid
Fixed: Pressure, kPa = 81.5
Property: Speed of sound, m/s (Liquid); method: Sing-around technique in a fixed-path interferometer
Temperature, K	Mole fraction of 1-ethyl-3-methylimidazolium tetrafluoroborate	Speed of sound, m/s	uncertainty
293.15	0.131	1520.9	3.3
293.15	0.198	1544.9	3.3
293.15	0.2976	1566.5	3.3
293.15	0.3868	1581.8	3.4
293.15	0.4734	1594.3	3.4
293.15	0.563	1606.8	3.5
293.15	0.7089	1620	3.5
293.15	0.7973	1625.7	3.6
293.15	0.8821	1629.9	3.6
298.15	0.131	1502.5	3.3
298.15	0.198	1527.6	3.3
298.15	0.2976	1550.4	3.3
298.15	0.3868	1566.4	3.4
298.15	0.4734	1579.8	3.4
298.15	0.563	1592.9	3.5
298.15	0.7089	1606.9	3.5
298.15	0.7973	1613	3.6
298.15	0.8821	1617.4	3.6
303.15	0.131	1484.4	3.3
303.15	0.198	1510.4	3.3
303.15	0.2976	1534.3	3.3
303.15	0.3868	1551.3	3.4
303.15	0.4734	1565.3	3.4
303.15	0.563	1579.1	3.5
303.15	0.7089	1594.1	3.5
303.15	0.7973	1600.4	3.6
303.15	0.8821	1605.1	3.6
308.15	0.131	1466.5	3.3
308.15	0.198	1493.4	3.3
308.15	0.2976	1518.5	3.3
308.15	0.3868	1536.2	3.4
308.15	0.4734	1551.1	3.4
308.15	0.563	1565.5	3.5
308.15	0.7089	1581.4	3.5
308.15	0.7973	1588	3.6
308.15	0.8821	1592.9	3.6
313.15	0.131	1448.8	3.3
313.15	0.198	1476.5	3.3
313.15	0.2976	1502.7	3.3
313.15	0.3868	1521.4	3.4
313.15	0.4734	1536.9	3.4
313.15	0.563	1552.1	3.5
313.15	0.7089	1568.8	3.5
313.15	0.7973	1575.7	3.6
313.15	0.8821	1580.8	3.6
318.15	0.131	1431.2	3.3
318.15	0.198	1459.8	3.3
318.15	0.2976	1487.1	3.3
318.15	0.3868	1506.6	3.4
318.15	0.4734	1522.9	3.4
318.15	0.563	1538.7	3.5
318.15	0.7089	1556.3	3.5
318.15	0.7973	1563.5	3.6
318.15	0.8821	1568.9	3.6
323.15	0.131	1413.7	3.3
323.15	0.198	1443.1	3.3
323.15	0.2976	1471.6	3.3
323.15	0.3868	1491.9	3.4
323.15	0.4734	1509	3.4
323.15	0.563	1525.4	3.5
323.15	0.7089	1543.9	3.5
323.15	0.7973	1551.4	3.6
323.15	0.8821	1557	3.6
328.15	0.131	1396.4	3.3
328.15	0.198	1426.6	3.3
328.15	0.2976	1456.1	3.3
328.15	0.3868	1477.4	3.4
328.15	0.4734	1495.2	3.4
328.15	0.563	1512.2	3.5
328.15	0.7089	1531.6	3.5
328.15	0.7973	1539.4	3.6
328.15	0.8821	1545.3	3.6
333.15	0.131	1379	3.3
333.15	0.198	1410.2	3.3
333.15	0.2976	1440.9	3.3
333.15	0.3868	1462.9	3.4
333.15	0.4734	1481.5	3.4
333.15	0.563	1499.1	3.4
333.15	0.7089	1519.4	3.5
333.15	0.7973	1527.4	3.6
333.15	0.8821	1533.6	3.6
338.15	0.131	1361.9	3.3
338.15	0.198	1393.9	3.3
338.15	0.2976	1425.7	3.3
338.15	0.3868	1448.6	3.4
338.15	0.4734	1467.9	3.4
338.15	0.563	1486.1	3.4
338.15	0.7089	1507.3	3.5
338.15	0.7973	1515.6	3.6
338.15	0.8821	1528.1	3.6
343.15	0.131	1344.8	3.3
343.15	0.198	1377.7	3.3
343.15	0.2976	1410.6	3.3
343.15	0.3868	1434.4	3.4
343.15	0.4734	1454.4	3.4
343.15	0.563	1473	3.4
343.15	0.7089	1495.4	3.5
343.15	0.7973	1503.8	3.6
343.15	0.8821	1510.6	3.6
293.15	1	1640.4	3.7
298.15	1	1628.4	3.7
303.15	1	1616	3.7
308.15	1	1604.9	3.7
313.15	1	1593.4	3.7
318.15	1	1582	3.7
323.15	1	1570.6	3.7
328.15	1	1559.4	3.7
333.15	1	1548.2	3.7
338.15	1	1537.2	3.7
343.15	1	1526.2	3.7
293.15	0	1477.6	3.2
298.15	0	1457.4	3.2
303.15	0	1437.4	3.2
308.15	0	1417.5	3.2
313.15	0	1397.8	3.2
318.15	0	1378.2	3.2
323.15	0	1358.6	3.2
328.15	0	1339.2	3.2
333.15	0	1319.9	3.2
338.15	0	1300.8	3.2
343.15	0	1281.7	3.2
