Measured thermophysical data. Liquid-Liquid Equilibrium Measurements for the Extraction of Pyridine and Benzothiazole from n-Alkanes Using Deep Eutectic Solvents
Source: J. Chem. Eng. Data, 2019, 10.1021/acs.jced.9b00413
Compound 1: methyltriphenylphosphonium bromide, C19H18BrP, InChI=1S/C19H18P.BrH/c1-20(17-11-5-2-6-12-17,18-13-7-3-8-14-18)19-15-9-4-10-16-19;/h2-16H,1H3;1H/q+1;/p-1
Compound 2: 1,2-ethanediol, C2H6O2, InChI=1S/C2H6O2/c3-1-2-4/h3-4H,1-2H2
Compound 3: hexane, C6H14, InChI=1S/C6H14/c1-3-5-6-4-2/h3-6H2,1-2H3
Compound 4: heptane, C7H16, InChI=1S/C7H16/c1-3-5-7-6-4-2/h3-7H2,1-2H3

System: hexane + methyltriphenylphosphonium bromide + 1,2-ethanediol; phases: Liquid mixture 1, Liquid mixture 2
Property: Mass fraction of hexane (Liquid mixture 1); method: Chromatography
Solvent: Mole fraction of 1,2-ethanediol	Temperature, K	Pressure, kPa	Mass fraction of hexane	uncertainty
0.8	298.2	101	0.00096	0.0002

System: heptane + methyltriphenylphosphonium bromide + 1,2-ethanediol; phases: Liquid mixture 1, Liquid mixture 2
Property: Mass fraction of heptane (Liquid mixture 1); method: Chromatography
Solvent: Mole fraction of 1,2-ethanediol	Temperature, K	Pressure, kPa	Mass fraction of heptane	uncertainty
0.8	298.2	101	0.00082	0.0002
