Measured thermophysical data. Density, Surface Tension, and Viscosity of Liquid Pb-Sb Alloys
Source: J. Chem. Eng. Data, 2018, 10.1021/acs.jced.7b01049
Compound 1: lead, Pb, InChI=1S/Pb
Compound 2: antimony, Sb, InChI=1S/Sb

System: lead + antimony; phases: Liquid
Fixed: Pressure, kPa = 100
Property: Mass density, kg/m3 (Liquid); method: discharge crucible method
Mole fraction of antimony	Temperature, K	Mass density, kg/m3	uncertainty
0.1675	923	9814	589
0.1675	873	9862	592
0.1675	823	9905	594
0.1675	773	9963	598
0.1675	723	10019	601
0.1675	673	10087	605
0.1675	623	10142	609
0.1675	573	10206	612
0.4	923	8991	539
0.4	873	9042	543
0.4	823	9095	546
0.4	773	9143	549
0.4	723	9201	552
0.4	673	9263	556
0.6	923	8098	486
0.6	873	8138	488
0.6	823	8185	491
0.6	773	8244	495
0.9	1023	6856	411
0.9	973	6892	414
0.9	923	6938	416
0.9	873	6977	419

System: lead + antimony; phases: Liquid, Gas
Property: Surface tension liquid-gas, N/m (Liquid); method: discharge crucible method
Mole fraction of antimony	Temperature, K	Surface tension liquid-gas, N/m	uncertainty
0.1675	923	0.4119	0.0247
0.1675	873	0.4156	0.0249
0.1675	823	0.4191	0.0251
0.1675	773	0.4228	0.0254
0.1675	723	0.4266	0.0256
0.1675	673	0.4299	0.0258
0.1675	623	0.4337	0.026
0.1675	573	0.4371	0.0262
0.4	923	0.4002	0.024
0.4	873	0.4039	0.0242
0.4	823	0.4078	0.0245
0.4	773	0.4115	0.0247
0.4	723	0.4146	0.0249
0.4	673	0.4183	0.0251
0.6	923	0.3907	0.0234
0.6	873	0.3939	0.0236
0.6	823	0.3971	0.0238
0.6	773	0.4005	0.024
0.9	1023	0.3644	0.0219
0.9	973	0.3686	0.0221
0.9	923	0.3726	0.0224
0.9	873	0.3762	0.0226

System: lead + antimony; phases: Liquid
Fixed: Pressure, kPa = 100
Property: Viscosity, Pa*s (Liquid); method: discharge crucible
Mole fraction of antimony	Temperature, K	Viscosity, Pa*s	uncertainty
0.1675	923	0.001425	9.3e-05
0.1675	873	0.001495	9.8e-05
0.1675	823	0.001583	0.000103
0.1675	773	0.001694	0.00011
0.1675	723	0.001836	0.00012
0.1675	673	0.001999	0.00013
0.1675	623	0.002262	0.000147
0.1675	573	0.002565	0.000166
0.4	923	0.001266	8.3e-05
0.4	873	0.001358	8.9e-05
0.4	823	0.001475	9.7e-05
0.4	773	0.001573	0.000103
0.4	723	0.001721	0.000112
0.4	673	0.001873	0.000122
0.6	923	0.001211	8e-05
0.6	873	0.001333	8.8e-05
0.6	823	0.001449	9.5e-05
0.6	773	0.001561	0.000102
0.9	1023	0.001118	7.4e-05
0.9	973	0.001212	8e-05
0.9	923	0.001357	8.9e-05
0.9	873	0.001539	0.000101
