Measured thermophysical data. Volumetric, Compressibility, Viscometric, and 1H NMR Analysis on Drug-Bile Salts Interactions in Aqueous Medium: Temperature and Concentration Effect
Source: J. Chem. Eng. Data, 2019, 10.1021/acs.jced.8b00509
Compound 1: sodium cholate, C24H39NaO5, InChI=1S/C24H40O5.Na/c1-13(4-7-21(28)29)16-5-6-17-22-18(12-20(27)24(16,17)3)23(2)9-8-15(25)10-14(23)11-19(22)26;/h13-20,22,25-27H,4-12H2,1-3H3,(H,28,29);/q;+1/p-1/t13-,14+,15-,16-,17+,18+,19-,20+,22+,23+,24-;/m1./s1, purity 98%
Compound 2: sodium deoxycholate, C24H39NaO4, InChI=1S/C24H40O4.Na/c1-14(4-9-22(27)28)18-7-8-19-17-6-5-15-12-16(25)10-11-23(15,2)20(17)13-21(26)24(18,19)3;/h14-21,25-26H,4-13H2,1-3H3,(H,27,28);/q;+1/p-1/t14-,15-,16-,17+,18-,19+,20+,21+,23+,24-;/m1./s1, purity 98%
Compound 3: N,N-dimethylimidodicarbonimidic diamide hydrochloride, C4H12ClN5, InChI=1S/C4H11N5.ClH/c1-9(2)4(7)8-3(5)6;/h1-2H3,(H5,5,6,7,8);1H, purity 99%
Compound 4: water, H2O, InChI=1S/H2O/h1H2, purity 99.9%

System: water; phases: Liquid
Fixed: Pressure, kPa = 100
Property: Mass density, kg/m3 (Liquid); method: Vibrating tube method
Temperature, K	Mass density, kg/m3	uncertainty
293.15	998.21	0.2
298.15	997.04	0.2
303.15	995.64	0.2
308.15	994.02	0.2
313.15	992.2	0.2

System: water; phases: Liquid
Fixed: Pressure, kPa = 100
Fixed: Frequency, MHz = 3
Property: Speed of sound, m/s (Liquid); method: Single path-length method
Temperature, K	Speed of sound, m/s	uncertainty
293.15	1482.64	6
298.15	1496.71	6
303.15	1509.05	6
308.15	1519.71	6
313.15	1528.81	6

System: water; phases: Liquid
Fixed: Pressure, kPa = 100
Property: Viscosity, Pa*s (Liquid); method: Capillary tube (Ostwald; Ubbelohde) method
Temperature, K	Viscosity, Pa*s	uncertainty
293.15	0.001002	2.7e-05
298.15	0.00089	2.7e-05
303.15	0.000797	2.6e-05
308.15	0.000719	2.6e-05
313.15	0.000652	2.6e-05

System: sodium cholate + N,N-dimethylimidodicarbonimidic diamide hydrochloride + water; phases: Liquid
Fixed: Pressure, kPa = 100
Property: Mass density, kg/m3 (Liquid); method: Vibrating tube method
Solvent: Molality, mol/kg of N,N-dimethylimidodicarbonimidic diamide hydrochloride	Temperature, K	Molality, mol/kg of sodium cholate	Mass density, kg/m3	uncertainty
0	293.15	0	998.21	0.38
0	293.15	0.002	998.46	0.36
0	293.15	0.004	998.67	0.37
0	293.15	0.006	998.88	0.37
0	293.15	0.008	999.1	0.37
0	293.15	0.01	999.32	0.37
0	293.15	0.012	999.53	0.37
0	293.15	0.014	999.76	0.37
0	293.15	0.016	999.98	0.37
0	293.15	0.018	1000.2	0.37
0	293.15	0.02	1000.41	0.37
0	293.15	0.022	1000.63	0.37
0	293.15	0.024	1000.83	0.37
0	298.15	0	997.04	0.4
0	298.15	0.002	997.29	0.39
0	298.15	0.004	997.5	0.37
0	298.15	0.006	997.7	0.36
0	298.15	0.008	997.91	0.36
0	298.15	0.01	998.13	0.37
0	298.15	0.012	998.34	0.37
0	298.15	0.014	998.56	0.36
0	298.15	0.016	998.77	0.37
0	298.15	0.018	998.97	0.36
0	298.15	0.02	999.19	0.36
0	298.15	0.022	999.39	0.35
0	298.15	0.024	999.6	0.34
0	303.15	0	995.64	0.39
0	303.15	0.002	995.88	0.38
0	303.15	0.004	996.08	0.37
0	303.15	0.006	996.29	0.36
0	303.15	0.008	996.49	0.36
0	303.15	0.01	996.7	0.36
0	303.15	0.012	996.91	0.37
0	303.15	0.014	997.12	0.36
0	303.15	0.016	997.34	0.36
0	303.15	0.018	997.54	0.36
0	303.15	0.02	997.74	0.36
0	303.15	0.022	997.94	0.34
0	303.15	0.024	998.14	0.34
0	308.15	0	994.02	0.39
0	308.15	0.002	994.26	0.38
0	308.15	0.004	994.46	0.37
0	308.15	0.006	994.66	0.36
0	308.15	0.008	994.87	0.36
0	308.15	0.01	995.08	0.36
0	308.15	0.012	995.29	0.36
0	308.15	0.014	995.5	0.36
0	308.15	0.016	995.7	0.36
0	308.15	0.018	995.9	0.36
0	308.15	0.02	996.1	0.36
0	308.15	0.022	996.29	0.34
0	308.15	0.024	996.49	0.34
0	313.15	0	992.2	0.37
0	313.15	0.002	992.43	0.36
0	313.15	0.004	992.63	0.36
0	313.15	0.006	992.84	0.36
0	313.15	0.008	993.04	0.36
0	313.15	0.01	993.24	0.36
0	313.15	0.012	993.45	0.36
0	313.15	0.014	993.66	0.36
0	313.15	0.016	993.85	0.36
0	313.15	0.018	994.05	0.36
0	313.15	0.02	994.24	0.36
0	313.15	0.022	994.45	0.36
0	313.15	0.024	994.64	0.36
0.005	293.15	0	998.35	0.34
0.005	293.15	0.002	998.6	0.33
0.005	293.15	0.004	998.81	0.37
0.005	293.15	0.006	999.02	0.37
0.005	293.15	0.008	999.24	0.37
0.005	293.15	0.01	999.46	0.37
0.005	293.15	0.012	999.68	0.37
0.005	293.15	0.014	999.9	0.37
0.005	293.15	0.016	1000.12	0.37
0.005	293.15	0.018	1000.35	0.37
0.005	293.15	0.02	1000.55	0.37
0.005	293.15	0.022	1000.79	0.42
0.005	293.15	0.024	1000.99	0.42
0.005	298.15	0	997.2	0.41
0.005	298.15	0.002	997.45	0.4
0.005	298.15	0.004	997.64	141986790000000
0.005	298.15	0.006	997.85	22591568000000
0.005	298.15	0.008	998.05	22591568000000
0.005	298.15	0.01	998.26	1578980600000
0.005	298.15	0.012	998.47	102269360000000
0.005	298.15	0.014	998.68	32827909000000
0.005	298.15	0.016	998.89	62430462000000
0.005	298.15	0.018	999.1	7731137500000
0.005	298.15	0.02	999.32	17125866000000
0.005	298.15	0.022	999.52	0.34
0.005	298.15	0.024	999.73	0.33
0.005	303.15	0	995.72	0.41
0.005	303.15	0.002	995.96	0.39
0.005	303.15	0.004	996.16	62430462000000
0.005	303.15	0.006	996.36	74940847000000
0.005	303.15	0.008	996.57	112836380000000
0.005	303.15	0.01	996.78	35344873000000
0.005	303.15	0.012	996.98	62430462000000
0.005	303.15	0.014	997.19	39643531000000
0.005	303.15	0.016	997.41	35344873000000
0.005	303.15	0.018	997.61	35655545000000
0.005	303.15	0.02	997.81	6558842300000
0.005	303.15	0.022	998.02	0.33
0.005	303.15	0.024	998.24	0.34
0.005	308.15	0	994.19	0.4
0.005	308.15	0.002	994.43	0.39
0.005	308.15	0.004	994.63	62430462000000
0.005	308.15	0.006	994.83	74940847000000
0.005	308.15	0.008	995.03	112836380000000
0.005	308.15	0.01	995.23	22591568000000
0.005	308.15	0.012	995.45	35344873000000
0.005	308.15	0.014	995.64	28190059000000
0.005	308.15	0.016	995.86	115751420000000
0.005	308.15	0.018	996.07	55464180000000
0.005	308.15	0.02	996.28	46276276000000
0.005	308.15	0.022	996.48	0.33
0.005	308.15	0.024	996.67	0.33
0.005	313.15	0	992.38	0.32
0.005	313.15	0.002	992.62	0.32
0.005	313.15	0.004	992.82	0.36
0.005	313.15	0.006	993.01	0.36
0.005	313.15	0.008	993.21	0.36
0.005	313.15	0.01	993.41	0.36
0.005	313.15	0.012	993.61	0.36
0.005	313.15	0.014	993.81	0.36
0.005	313.15	0.016	994.01	0.36
0.005	313.15	0.018	994.22	0.36
0.005	313.15	0.02	994.42	0.36
0.005	313.15	0.022	994.63	0.42
0.005	313.15	0.024	994.83	0.42
0.01	293.15	0	998.57	0.3
0.01	293.15	0.002	998.82	0.3
0.01	293.15	0.004	999.03	0.37
0.01	293.15	0.006	999.24	0.37
0.01	293.15	0.008	999.46	0.37
0.01	293.15	0.01	999.67	0.37
0.01	293.15	0.012	999.89	0.37
0.01	293.15	0.014	1000.12	0.37
0.01	293.15	0.016	1000.33	0.37
0.01	293.15	0.018	1000.54	0.37
0.01	293.15	0.02	1000.77	0.37
0.01	293.15	0.022	1000.99	0.5
0.01	293.15	0.024	1001.2	0.5
0.01	298.15	0	997.4	0.41
0.01	298.15	0.002	997.65	0.4
0.01	298.15	0.004	997.84	141986790000000
0.01	298.15	0.006	998.04	4494021600000
0.01	298.15	0.008	998.24	4494021600000
0.01	298.15	0.01	998.45	1578980600000
0.01	298.15	0.012	998.67	102269360000000
0.01	298.15	0.014	998.88	65534830000000
0.01	298.15	0.016	999.09	62430462000000
0.01	298.15	0.018	999.31	7731137500000
0.01	298.15	0.02	999.5	35344873000000
0.01	298.15	0.022	999.72	0.34
0.01	298.15	0.024	999.94	0.33
0.01	303.15	0	995.99	0.41
0.01	303.15	0.002	996.23	0.39
0.01	303.15	0.004	996.42	62430462000000
0.01	303.15	0.006	996.62	74940847000000
0.01	303.15	0.008	996.83	112836380000000
0.01	303.15	0.01	997.04	35344873000000
0.01	303.15	0.012	997.25	62430462000000
0.01	303.15	0.014	997.46	6976938900000
0.01	303.15	0.016	997.67	35344873000000
0.01	303.15	0.018	997.88	35655545000000
0.01	303.15	0.02	998.09	6558842300000
0.01	303.15	0.022	998.3	0.33
0.01	303.15	0.024	998.5	0.33
0.01	308.15	0	994.37	0.4
0.01	308.15	0.002	994.61	0.39
0.01	308.15	0.004	994.79	62430462000000
0.01	308.15	0.006	995	74940847000000
0.01	308.15	0.008	995.21	112836380000000
0.01	308.15	0.01	995.42	22591568000000
0.01	308.15	0.012	995.62	35344873000000
0.01	308.15	0.014	995.82	60937310000000
0.01	308.15	0.016	996.03	115751420000000
0.01	308.15	0.018	996.23	55464180000000
0.01	308.15	0.02	996.44	64495283000000
0.01	308.15	0.022	996.65	0.33
0.01	308.15	0.024	996.86	0.33
0.01	313.15	0	992.54	0.3
0.01	313.15	0.002	992.77	0.3
0.01	313.15	0.004	992.96	0.36
0.01	313.15	0.006	993.17	0.36
0.01	313.15	0.008	993.37	0.36
0.01	313.15	0.01	993.57	0.36
0.01	313.15	0.012	993.77	0.36
0.01	313.15	0.014	993.97	0.36
0.01	313.15	0.016	994.17	0.36
0.01	313.15	0.018	994.39	0.36
0.01	313.15	0.02	994.58	0.36
0.01	313.15	0.022	994.78	0.47
0.01	313.15	0.024	994.98	0.48
0.05	293.15	0	999	0.37
0.05	293.15	0.002	999.25	0.36
0.05	293.15	0.004	999.45	0.37
0.05	293.15	0.006	999.66	0.36
0.05	293.15	0.008	999.87	0.37
0.05	293.15	0.01	1000.09	0.37
0.05	293.15	0.012	1000.31	0.37
0.05	293.15	0.014	1000.53	0.37
0.05	293.15	0.016	1000.75	0.37
0.05	293.15	0.018	1000.98	0.37
0.05	293.15	0.02	1001.17	0.37
0.05	293.15	0.022	1001.39	0.36
0.05	293.15	0.024	1001.62	0.37
0.05	298.15	0	997.91	0.4
0.05	298.15	0.002	998.15	0.39
0.05	298.15	0.004	998.35	0.36
0.05	298.15	0.006	998.55	0.36
0.05	298.15	0.008	998.75	0.36
0.05	298.15	0.01	998.96	0.36
0.05	298.15	0.012	999.17	0.36
0.05	298.15	0.014	999.37	0.36
0.05	298.15	0.016	999.58	0.36
0.05	298.15	0.018	999.79	0.36
0.05	298.15	0.02	999.98	0.36
0.05	298.15	0.022	1000.19	0.34
0.05	298.15	0.024	1000.4	0.35
0.05	303.15	0	996.53	0.39
0.05	303.15	0.002	996.77	0.38
0.05	303.15	0.004	996.96	0.36
0.05	303.15	0.006	997.15	0.36
0.05	303.15	0.008	997.36	0.36
0.05	303.15	0.01	997.57	0.36
0.05	303.15	0.012	997.77	0.36
0.05	303.15	0.014	997.96	0.36
0.05	303.15	0.016	998.15	0.36
0.05	303.15	0.018	998.37	0.36
0.05	303.15	0.02	998.56	0.36
0.05	303.15	0.022	998.76	0.34
0.05	303.15	0.024	998.96	0.34
0.05	308.15	0	994.92	0.39
0.05	308.15	0.002	995.15	0.37
0.05	308.15	0.004	995.34	0.36
0.05	308.15	0.006	995.53	0.36
0.05	308.15	0.008	995.74	0.36
0.05	308.15	0.01	995.94	0.36
0.05	308.15	0.012	996.14	0.36
0.05	308.15	0.014	996.32	0.36
0.05	308.15	0.016	996.53	0.36
0.05	308.15	0.018	996.72	0.36
0.05	308.15	0.02	996.92	0.36
0.05	308.15	0.022	997.12	0.34
0.05	308.15	0.024	997.33	0.34
0.05	313.15	0	993.1	0.36
0.05	313.15	0.002	993.33	0.35
0.05	313.15	0.004	993.52	0.36
0.05	313.15	0.006	993.71	0.36
0.05	313.15	0.008	993.91	0.36
0.05	313.15	0.01	994.11	0.36
0.05	313.15	0.012	994.31	0.36
0.05	313.15	0.014	994.51	0.36
0.05	313.15	0.016	994.7	0.36
0.05	313.15	0.018	994.9	0.36
0.05	313.15	0.02	995.09	0.36
0.05	313.15	0.022	995.29	0.36
0.05	313.15	0.024	995.48	0.36

System: sodium cholate + N,N-dimethylimidodicarbonimidic diamide hydrochloride + water; phases: Liquid
Fixed: Pressure, kPa = 100
Fixed: Frequency, MHz = 3
Property: Speed of sound, m/s (Liquid); method: Single path-length method
Solvent: Molality, mol/kg of N,N-dimethylimidodicarbonimidic diamide hydrochloride	Temperature, K	Molality, mol/kg of sodium cholate	Speed of sound, m/s	uncertainty
0	293.15	0	1482.64	6.15
0	293.15	0.002	1483.6	6.12
0	293.15	0.004	1484.33	6.13
0	293.15	0.006	1484.81	6.12
0	293.15	0.008	1485.35	6.12
0	293.15	0.01	1486.01	6.12
0	293.15	0.012	1486.69	6.12
0	293.15	0.014	1487.29	6.11
0	293.15	0.016	1487.84	6.11
0	293.15	0.018	1488.28	6.1
0	293.15	0.02	1488.85	6.1
0	293.15	0.022	1489.02	6.1
0	293.15	0.024	1489.57	6.1
0	298.15	0	1496.71	6.16
0	298.15	0.002	1497.54	6.14
0	298.15	0.004	1498.03	6.12
0	298.15	0.006	1498.62	6.12
0	298.15	0.008	1499.25	6.12
0	298.15	0.01	1499.88	6.12
0	298.15	0.012	1500.49	6.12
0	298.15	0.014	1501	6.11
0	298.15	0.016	1501.58	6.1
0	298.15	0.018	1501.95	6.11
0	298.15	0.02	1502.26	6.1
0	298.15	0.022	1502.83	6.09
0	298.15	0.024	1503.29	6.09
0	303.15	0	1509.05	6.15
0	303.15	0.002	1509.83	6.13
0	303.15	0.004	1510.23	6.11
0	303.15	0.006	1510.77	6.11
0	303.15	0.008	1511.32	6.11
0	303.15	0.01	1511.86	6.11
0	303.15	0.012	1512.39	6.11
0	303.15	0.014	1512.93	6.11
0	303.15	0.016	1513.39	6.11
0	303.15	0.018	1513.77	6.1
0	303.15	0.02	1514.22	6.1
0	303.15	0.022	1514.67	6.09
0	303.15	0.024	1515.13	6.09
0	308.15	0	1519.71	6.15
0	308.15	0.002	1520.46	6.13
0	308.15	0.004	1520.87	6.11
0	308.15	0.006	1521.39	6.11
0	308.15	0.008	1521.86	6.11
0	308.15	0.01	1522.37	6.11
0	308.15	0.012	1522.89	6.11
0	308.15	0.014	1523.39	6.11
0	308.15	0.016	1523.89	6.11
0	308.15	0.018	1524.38	6.11
0	308.15	0.02	1524.78	6.1
0	308.15	0.022	1525.21	6.09
0	308.15	0.024	1525.61	6.09
0	313.15	0	1528.81	6.11
0	313.15	0.002	1529.51	6.1
0	313.15	0.004	1529.85	6.11
0	313.15	0.006	1530.29	6.1
0	313.15	0.008	1530.77	6.11
0	313.15	0.01	1531.23	6.11
0	313.15	0.012	1531.71	6.11
0	313.15	0.014	1532.18	6.11
0	313.15	0.016	1532.64	6.11
0	313.15	0.018	1533.11	6.1
0	313.15	0.02	1533.51	6.1
0	313.15	0.022	1533.83	6.1
0	313.15	0.024	1534.23	6.1
0.005	293.15	0	1483.01	6.12
0.005	293.15	0.002	1483.96	6.1
0.005	293.15	0.004	1484.69	6.13
0.005	293.15	0.006	1485.21	6.12
0.005	293.15	0.008	1485.72	6.12
0.005	293.15	0.01	1486.39	6.12
0.005	293.15	0.012	1487.02	6.12
0.005	293.15	0.014	1487.63	6.11
0.005	293.15	0.016	1488.19	6.11
0.005	293.15	0.018	1488.63	6.1
0.005	293.15	0.02	1489.22	6.1
0.005	293.15	0.022	1489.32	6.11
0.005	293.15	0.024	1489.92	6.11
0.005	298.15	0	1497.05	6.19
0.005	298.15	0.002	1497.87	6.16
0.005	298.15	0.004	1498.38	490212730000000
0.005	298.15	0.006	1498.95	543655150000000
0.005	298.15	0.008	1499.6	171501580000000
0.005	298.15	0.01	1500.24	146723730000000
0.005	298.15	0.012	1500.83	85993711000000
0.005	298.15	0.014	1501.38	89208028000000
0.005	298.15	0.016	1501.96	57572061000000
0.005	298.15	0.018	1502.31	19077832000000
0.005	298.15	0.02	1502.64	164699820000000
0.005	298.15	0.022	1503.15	6.09
0.005	298.15	0.024	1503.62	6.09
0.005	303.15	0	1509.37	6.17
0.005	303.15	0.002	1510.15	6.15
0.005	303.15	0.004	1510.56	324541240000000
0.005	303.15	0.006	1511.1	169558220000000
0.005	303.15	0.008	1511.63	87937071000000
0.005	303.15	0.01	1512.18	87937071000000
0.005	303.15	0.012	1512.72	270127140000000
0.005	303.15	0.014	1513.25	46136521000000
0.005	303.15	0.016	1513.78	280329780000000
0.005	303.15	0.018	1514.09	98620082000000
0.005	303.15	0.02	1514.52	283973580000000
0.005	303.15	0.022	1514.98	6.09
0.005	303.15	0.024	1515.42	6.09
0.005	308.15	0	1520.01	6.17
0.005	308.15	0.002	1520.76	6.15
0.005	308.15	0.004	1521.16	380898700000000
0.005	308.15	0.006	1521.69	535395870000000
0.005	308.15	0.008	1522.17	453288880000000
0.005	308.15	0.01	1522.68	288589060000000
0.005	308.15	0.012	1523.18	493127780000000
0.005	308.15	0.014	1523.71	41619658000000
0.005	308.15	0.016	1524.17	455961000000000
0.005	308.15	0.018	1524.65	139698960000000
0.005	308.15	0.02	1525.08	3157961100000
0.005	308.15	0.022	1525.47	6.09
0.005	308.15	0.024	1525.9	6.09
0.005	313.15	0	1529.09	6.1
0.005	313.15	0.002	1529.78	6.09
0.005	313.15	0.004	1530.12	6.11
0.005	313.15	0.006	1530.55	6.1
0.005	313.15	0.008	1531.06	6.11
0.005	313.15	0.01	1531.54	6.11
0.005	313.15	0.012	1532.03	6.11
0.005	313.15	0.014	1532.5	6.11
0.005	313.15	0.016	1532.95	6.11
0.005	313.15	0.018	1533.4	6.1
0.005	313.15	0.02	1533.78	6.1
0.005	313.15	0.022	1534.06	6.11
0.005	313.15	0.024	1534.47	6.11
0.01	293.15	0	1483.3	6.11
0.01	293.15	0.002	1484.22	6.1
0.01	293.15	0.004	1484.95	6.13
0.01	293.15	0.006	1485.49	6.12
0.01	293.15	0.008	1486	6.12
0.01	293.15	0.01	1486.68	6.12
0.01	293.15	0.012	1487.3	6.12
0.01	293.15	0.014	1487.87	6.11
0.01	293.15	0.016	1488.48	6.11
0.01	293.15	0.018	1488.94	6.1
0.01	293.15	0.02	1489.5	6.1
0.01	293.15	0.022	1489.62	6.13
0.01	293.15	0.024	1490.19	6.13
0.01	298.15	0	1497.34	6.19
0.01	298.15	0.002	1498.15	6.16
0.01	298.15	0.004	1498.64	490212730000000
0.01	298.15	0.006	1499.23	305593470000000
0.01	298.15	0.008	1499.87	171501580000000
0.01	298.15	0.01	1500.53	146723730000000
0.01	298.15	0.012	1501.16	85993711000000
0.01	298.15	0.014	1501.67	89208028000000
0.01	298.15	0.016	1502.21	57572061000000
0.01	298.15	0.018	1502.56	54079499000000
0.01	298.15	0.02	1502.95	164699820000000
0.01	298.15	0.022	1503.39	6.09
0.01	298.15	0.024	1503.89	6.09
0.01	303.15	0	1509.68	6.17
0.01	303.15	0.002	1510.45	6.15
0.01	303.15	0.004	1510.87	324541240000000
0.01	303.15	0.006	1511.41	169558220000000
0.01	303.15	0.008	1511.93	87937071000000
0.01	303.15	0.01	1512.47	87937071000000
0.01	303.15	0.012	1513.02	270127140000000
0.01	303.15	0.014	1513.53	84610507000000
0.01	303.15	0.016	1514.08	280329780000000
0.01	303.15	0.018	1514.35	98620082000000
0.01	303.15	0.02	1514.78	283973580000000
0.01	303.15	0.022	1515.26	6.09
0.01	303.15	0.024	1515.71	6.09
0.01	308.15	0	1520.3	6.17
0.01	308.15	0.002	1521.04	6.15
0.01	308.15	0.004	1521.46	308022670000000
0.01	308.15	0.006	1521.96	535395870000000
0.01	308.15	0.008	1522.42	453288880000000
0.01	308.15	0.01	1522.92	288589060000000
0.01	308.15	0.012	1523.43	493127780000000
0.01	308.15	0.014	1523.94	41619658000000
0.01	308.15	0.016	1524.39	455961000000000
0.01	308.15	0.018	1524.87	55079547000000
0.01	308.15	0.02	1525.33	3157961100000
0.01	308.15	0.022	1525.74	6.09
0.01	308.15	0.024	1526.13	6.09
0.01	313.15	0	1529.37	6.09
0.01	313.15	0.002	1530.03	6.09
0.01	313.15	0.004	1530.42	6.11
0.01	313.15	0.006	1530.82	6.1
0.01	313.15	0.008	1531.31	6.11
0.01	313.15	0.01	1531.8	6.11
0.01	313.15	0.012	1532.28	6.11
0.01	313.15	0.014	1532.73	6.11
0.01	313.15	0.016	1533.2	6.11
0.01	313.15	0.018	1533.63	6.1
0.01	313.15	0.02	1534.09	6.1
0.01	313.15	0.022	1534.54	6.13
0.01	313.15	0.024	1534.98	6.13
0.05	293.15	0	1483.74	6.14
0.05	293.15	0.002	1484.61	6.12
0.05	293.15	0.004	1485.37	6.13
0.05	293.15	0.006	1485.94	6.12
0.05	293.15	0.008	1486.45	6.11
0.05	293.15	0.01	1487.11	6.12
0.05	293.15	0.012	1487.63	6.12
0.05	293.15	0.014	1488.27	6.11
0.05	293.15	0.016	1488.73	6.11
0.05	293.15	0.018	1489.26	6.11
0.05	293.15	0.02	1489.87	6.11
0.05	293.15	0.022	1490.06	6.1
0.05	293.15	0.024	1490.57	6.1
0.05	298.15	0	1497.71	6.16
0.05	298.15	0.002	1498.48	6.14
0.05	298.15	0.004	1499.01	6.12
0.05	298.15	0.006	1499.6	6.12
0.05	298.15	0.008	1500.21	6.12
0.05	298.15	0.01	1500.81	6.12
0.05	298.15	0.012	1501.39	6.12
0.05	298.15	0.014	1501.96	6.11
0.05	298.15	0.016	1502.54	6.11
0.05	298.15	0.018	1502.97	6.11
0.05	298.15	0.02	1503.25	6.1
0.05	298.15	0.022	1503.78	6.09
0.05	298.15	0.024	1504.26	6.09
0.05	303.15	0	1510.04	6.15
0.05	303.15	0.002	1510.79	6.14
0.05	303.15	0.004	1511.22	6.11
0.05	303.15	0.006	1511.77	6.11
0.05	303.15	0.008	1512.27	6.11
0.05	303.15	0.01	1512.81	6.11
0.05	303.15	0.012	1513.34	6.11
0.05	303.15	0.014	1513.87	6.11
0.05	303.15	0.016	1514.42	6.11
0.05	303.15	0.018	1514.72	6.11
0.05	303.15	0.02	1515.21	6.1
0.05	303.15	0.022	1515.72	6.09
0.05	303.15	0.024	1516.07	6.09
0.05	308.15	0	1520.67	6.15
0.05	308.15	0.002	1521.37	6.13
0.05	308.15	0.004	1521.82	6.11
0.05	308.15	0.006	1522.33	6.11
0.05	308.15	0.008	1522.78	6.11
0.05	308.15	0.01	1523.29	6.11
0.05	308.15	0.012	1523.75	6.11
0.05	308.15	0.014	1524.34	6.11
0.05	308.15	0.016	1524.81	6.11
0.05	308.15	0.018	1525.32	6.11
0.05	308.15	0.02	1525.76	6.1
0.05	308.15	0.022	1526.19	6.09
0.05	308.15	0.024	1526.47	6.09
0.05	313.15	0	1529.67	6.11
0.05	313.15	0.002	1530.32	6.11
0.05	313.15	0.004	1530.71	6.11
0.05	313.15	0.006	1531.25	6.1
0.05	313.15	0.008	1531.63	6.11
0.05	313.15	0.01	1532.11	6.1
0.05	313.15	0.012	1532.59	6.11
0.05	313.15	0.014	1533.02	6.1
0.05	313.15	0.016	1533.48	6.1
0.05	313.15	0.018	1533.87	6.1
0.05	313.15	0.02	1534.33	6.1
0.05	313.15	0.022	1534.72	6.1
0.05	313.15	0.024	1535.16	6.1

System: sodium cholate + N,N-dimethylimidodicarbonimidic diamide hydrochloride + water; phases: Liquid
Fixed: Pressure, kPa = 100
Property: Viscosity, Pa*s (Liquid); method: Capillary tube (Ostwald; Ubbelohde) method
Solvent: Molality, mol/kg of N,N-dimethylimidodicarbonimidic diamide hydrochloride	Temperature, K	Molality, mol/kg of sodium cholate	Viscosity, Pa*s	uncertainty
0	293.15	0	0.001002	2.7e-05
0	293.15	0.002	0.001004	2.7e-05
0	293.15	0.004	0.001007	2.7e-05
0	293.15	0.006	0.001011	2.7e-05
0	293.15	0.008	0.001016	2.8e-05
0	293.15	0.01	0.001021	2.8e-05
0	293.15	0.012	0.001025	2.8e-05
0	293.15	0.014	0.001032	2.8e-05
0	293.15	0.016	0.001037	2.8e-05
0	293.15	0.018	0.001041	2.7e-05
0	293.15	0.02	0.001044	2.7e-05
0	293.15	0.022	0.001048	2.7e-05
0	293.15	0.024	0.001051	2.7e-05
0	298.15	0	0.00089	2.7e-05
0	298.15	0.002	0.000893	2.7e-05
0	298.15	0.004	0.000896	2.7e-05
0	298.15	0.006	0.000899	2.7e-05
0	298.15	0.008	0.000903	2.7e-05
0	298.15	0.01	0.000906	2.7e-05
0	298.15	0.012	0.000911	2.7e-05
0	298.15	0.014	0.000918	2.7e-05
0	298.15	0.016	0.000922	2.7e-05
0	298.15	0.018	0.000926	2.7e-05
0	298.15	0.02	0.00093	2.7e-05
0	298.15	0.022	0.000933	2.8e-05
0	298.15	0.024	0.000936	2.8e-05
0	303.15	0	0.000797	2.7e-05
0	303.15	0.002	0.0008	2.7e-05
0	303.15	0.004	0.000803	2.7e-05
0	303.15	0.006	0.000806	2.7e-05
0	303.15	0.008	0.000809	2.7e-05
0	303.15	0.01	0.000813	2.7e-05
0	303.15	0.012	0.000817	2.7e-05
0	303.15	0.014	0.000823	2.7e-05
0	303.15	0.016	0.000827	2.7e-05
0	303.15	0.018	0.000831	2.7e-05
0	303.15	0.02	0.000835	2.7e-05
0	303.15	0.022	0.000838	2.7e-05
0	303.15	0.024	0.000841	2.7e-05
0	308.15	0	0.000719	2.7e-05
0	308.15	0.002	0.000722	2.7e-05
0	308.15	0.004	0.000725	2.7e-05
0	308.15	0.006	0.000727	2.7e-05
0	308.15	0.008	0.00073	2.7e-05
0	308.15	0.01	0.000734	2.7e-05
0	308.15	0.012	0.000737	2.7e-05
0	308.15	0.014	0.000742	2.7e-05
0	308.15	0.016	0.000747	2.7e-05
0	308.15	0.018	0.000751	2.7e-05
0	308.15	0.02	0.000755	2.7e-05
0	308.15	0.022	0.000758	2.7e-05
0	308.15	0.024	0.00076	2.7e-05
0	313.15	0	0.000652	2.7e-05
0	313.15	0.002	0.000655	2.7e-05
0	313.15	0.004	0.000658	2.7e-05
0	313.15	0.006	0.00066	2.7e-05
0	313.15	0.008	0.000663	2.7e-05
0	313.15	0.01	0.000666	2.7e-05
0	313.15	0.012	0.00067	2.7e-05
0	313.15	0.014	0.000675	2.7e-05
0	313.15	0.016	0.000679	2.7e-05
0	313.15	0.018	0.000684	2.7e-05
0	313.15	0.02	0.000686	2.7e-05
0	313.15	0.022	0.000689	2.7e-05
0	313.15	0.024	0.000691	2.7e-05
0.005	293.15	0	0.001006	2.7e-05
0.005	293.15	0.002	0.001008	2.7e-05
0.005	293.15	0.004	0.001012	2.7e-05
0.005	293.15	0.006	0.001015	2.7e-05
0.005	293.15	0.008	0.001019	2.8e-05
0.005	293.15	0.01	0.001024	2.8e-05
0.005	293.15	0.012	0.00103	2.8e-05
0.005	293.15	0.014	0.001037	2.8e-05
0.005	293.15	0.016	0.001042	2.8e-05
0.005	293.15	0.018	0.001046	2.7e-05
0.005	293.15	0.02	0.00105	2.7e-05
0.005	293.15	0.022	0.001054	2.8e-05
0.005	293.15	0.024	0.001057	2.8e-05
0.005	298.15	0	0.000891	2.7e-05
0.005	298.15	0.002	0.000894	2.7e-05
0.005	298.15	0.004	0.000898	884380940
0.005	298.15	0.006	0.0009	601606780
0.005	298.15	0.008	0.000904	1996499500
0.005	298.15	0.01	0.000909	907154700
0.005	298.15	0.012	0.000914	907154700
0.005	298.15	0.014	0.00092	652827730
0.005	298.15	0.016	0.000925	907154700
0.005	298.15	0.018	0.000928	275854490
0.005	298.15	0.02	0.000932	2161609200
0.005	298.15	0.022	0.000936	2.8e-05
0.005	298.15	0.024	0.000939	2.8e-05
0.005	303.15	0	0.000799	2.7e-05
0.005	303.15	0.002	0.000802	2.7e-05
0.005	303.15	0.004	0.000805	328321680
0.005	303.15	0.006	0.000809	165109750
0.005	303.15	0.008	0.000811	719271190
0.005	303.15	0.01	0.000816	2675916600
0.005	303.15	0.012	0.000821	368175760
0.005	303.15	0.014	0.000827	210467630
0.005	303.15	0.016	0.000831	3256647400
0.005	303.15	0.018	0.000835	846194150
0.005	303.15	0.02	0.000839	2161609200
0.005	303.15	0.022	0.000842	2.8e-05
0.005	303.15	0.024	0.000845	2.8e-05
0.005	308.15	0	0.000722	2.7e-05
0.005	308.15	0.002	0.000725	2.7e-05
0.005	308.15	0.004	0.000728	512409560
0.005	308.15	0.006	0.000731	43649703
0.005	308.15	0.008	0.000734	43649703
0.005	308.15	0.01	0.000738	1996499500
0.005	308.15	0.012	0.000742	208759450
0.005	308.15	0.014	0.000748	257098180
0.005	308.15	0.016	0.000752	3256647400
0.005	308.15	0.018	0.000756	301697060
0.005	308.15	0.02	0.00076	601606780
0.005	308.15	0.022	0.000763	2.7e-05
0.005	308.15	0.024	0.000765	2.7e-05
0.005	313.15	0	0.000655	2.7e-05
0.005	313.15	0.002	0.000658	2.7e-05
0.005	313.15	0.004	0.000661	2.7e-05
0.005	313.15	0.006	0.000664	2.7e-05
0.005	313.15	0.008	0.000666	2.7e-05
0.005	313.15	0.01	0.00067	2.7e-05
0.005	313.15	0.012	0.000674	2.7e-05
0.005	313.15	0.014	0.000679	2.7e-05
0.005	313.15	0.016	0.000684	2.7e-05
0.005	313.15	0.018	0.000687	2.7e-05
0.005	313.15	0.02	0.00069	2.7e-05
0.005	313.15	0.022	0.000693	2.7e-05
0.005	313.15	0.024	0.000696	2.7e-05
0.01	293.15	0	0.00101	2.7e-05
0.01	293.15	0.002	0.001013	2.7e-05
0.01	293.15	0.004	0.001016	2.7e-05
0.01	293.15	0.006	0.00102	2.7e-05
0.01	293.15	0.008	0.001023	2.8e-05
0.01	293.15	0.01	0.001028	2.8e-05
0.01	293.15	0.012	0.001035	2.8e-05
0.01	293.15	0.014	0.001042	2.8e-05
0.01	293.15	0.016	0.001047	2.8e-05
0.01	293.15	0.018	0.00105	2.8e-05
0.01	293.15	0.02	0.001054	2.7e-05
0.01	293.15	0.022	0.001058	2.9e-05
0.01	293.15	0.024	0.001061	2.9e-05
0.01	298.15	0	0.000893	2.7e-05
0.01	298.15	0.002	0.000896	2.7e-05
0.01	298.15	0.004	0.000899	884380940
0.01	298.15	0.006	0.000902	884380940
0.01	298.15	0.008	0.000906	1996499500
0.01	298.15	0.01	0.000911	907154700
0.01	298.15	0.012	0.000916	907154700
0.01	298.15	0.014	0.000922	652827730
0.01	298.15	0.016	0.000927	907154700
0.01	298.15	0.018	0.00093	846194150
0.01	298.15	0.02	0.000934	2161609200
0.01	298.15	0.022	0.000938	2.8e-05
0.01	298.15	0.024	0.000942	2.8e-05
0.01	303.15	0	0.000801	2.7e-05
0.01	303.15	0.002	0.000804	2.7e-05
0.01	303.15	0.004	0.000808	43649703
0.01	303.15	0.006	0.000811	165109750
0.01	303.15	0.008	0.000814	719271190
0.01	303.15	0.01	0.000819	2675916600
0.01	303.15	0.012	0.000823	368175760
0.01	303.15	0.014	0.00083	810363380
0.01	303.15	0.016	0.000834	3256647400
0.01	303.15	0.018	0.000837	846194150
0.01	303.15	0.02	0.000841	2161609200
0.01	303.15	0.022	0.000844	2.8e-05
0.01	303.15	0.024	0.000847	2.8e-05
0.01	308.15	0	0.000725	2.7e-05
0.01	308.15	0.002	0.000728	2.7e-05
0.01	308.15	0.004	0.000731	512409560
0.01	308.15	0.006	0.000734	43649703
0.01	308.15	0.008	0.000737	43649703
0.01	308.15	0.01	0.000741	1996499500
0.01	308.15	0.012	0.000745	208759450
0.01	308.15	0.014	0.000751	257098180
0.01	308.15	0.016	0.000755	3256647400
0.01	308.15	0.018	0.000759	301697060
0.01	308.15	0.02	0.000762	601606780
0.01	308.15	0.022	0.000766	2.7e-05
0.01	308.15	0.024	0.000768	2.7e-05
0.01	313.15	0	0.000657	2.7e-05
0.01	313.15	0.002	0.00066	2.7e-05
0.01	313.15	0.004	0.000663	2.7e-05
0.01	313.15	0.006	0.000666	2.7e-05
0.01	313.15	0.008	0.000668	2.7e-05
0.01	313.15	0.01	0.000672	2.7e-05
0.01	313.15	0.012	0.000676	2.7e-05
0.01	313.15	0.014	0.000682	2.7e-05
0.01	313.15	0.016	0.000686	2.7e-05
0.01	313.15	0.018	0.00069	2.7e-05
0.01	313.15	0.02	0.000694	2.7e-05
0.01	313.15	0.022	0.000696	2.7e-05
0.01	313.15	0.024	0.000699	2.7e-05
0.05	293.15	0	0.001014	2.7e-05
0.05	293.15	0.002	0.001017	2.7e-05
0.05	293.15	0.004	0.00102	2.7e-05
0.05	293.15	0.006	0.001024	2.7e-05
0.05	293.15	0.008	0.001028	2.8e-05
0.05	293.15	0.01	0.001032	2.8e-05
0.05	293.15	0.012	0.001039	2.8e-05
0.05	293.15	0.014	0.001046	2.8e-05
0.05	293.15	0.016	0.001051	2.8e-05
0.05	293.15	0.018	0.001054	2.8e-05
0.05	293.15	0.02	0.001058	2.7e-05
0.05	293.15	0.022	0.001062	2.8e-05
0.05	293.15	0.024	0.001065	2.7e-05
0.05	298.15	0	0.000895	2.7e-05
0.05	298.15	0.002	0.000898	2.7e-05
0.05	298.15	0.004	0.000902	2.7e-05
0.05	298.15	0.006	0.000905	2.7e-05
0.05	298.15	0.008	0.000909	2.7e-05
0.05	298.15	0.01	0.000914	2.7e-05
0.05	298.15	0.012	0.000918	2.7e-05
0.05	298.15	0.014	0.000925	2.7e-05
0.05	298.15	0.016	0.000929	2.7e-05
0.05	298.15	0.018	0.000933	2.7e-05
0.05	298.15	0.02	0.000936	2.7e-05
0.05	298.15	0.022	0.00094	2.8e-05
0.05	298.15	0.024	0.000944	2.8e-05
0.05	303.15	0	0.000804	2.7e-05
0.05	303.15	0.002	0.000807	2.7e-05
0.05	303.15	0.004	0.00081	2.7e-05
0.05	303.15	0.006	0.000814	2.7e-05
0.05	303.15	0.008	0.000817	2.7e-05
0.05	303.15	0.01	0.000821	2.7e-05
0.05	303.15	0.012	0.000826	2.7e-05
0.05	303.15	0.014	0.000832	2.7e-05
0.05	303.15	0.016	0.000836	2.7e-05
0.05	303.15	0.018	0.00084	2.7e-05
0.05	303.15	0.02	0.000844	2.7e-05
0.05	303.15	0.022	0.000847	2.7e-05
0.05	303.15	0.024	0.00085	2.7e-05
0.05	308.15	0	0.000728	2.7e-05
0.05	308.15	0.002	0.000731	2.7e-05
0.05	308.15	0.004	0.000735	2.7e-05
0.05	308.15	0.006	0.000738	2.7e-05
0.05	308.15	0.008	0.000741	2.7e-05
0.05	308.15	0.01	0.000745	2.7e-05
0.05	308.15	0.012	0.000749	2.7e-05
0.05	308.15	0.014	0.000755	2.7e-05
0.05	308.15	0.016	0.000759	2.7e-05
0.05	308.15	0.018	0.000763	2.7e-05
0.05	308.15	0.02	0.000766	2.7e-05
0.05	308.15	0.022	0.000769	2.7e-05
0.05	308.15	0.024	0.000772	2.7e-05
0.05	313.15	0	0.000659	2.7e-05
0.05	313.15	0.002	0.000663	2.7e-05
0.05	313.15	0.004	0.000666	2.7e-05
0.05	313.15	0.006	0.000668	2.7e-05
0.05	313.15	0.008	0.000671	2.7e-05
0.05	313.15	0.01	0.000675	2.7e-05
0.05	313.15	0.012	0.000679	2.7e-05
0.05	313.15	0.014	0.000684	2.7e-05
0.05	313.15	0.016	0.000688	2.7e-05
0.05	313.15	0.018	0.000693	2.7e-05
0.05	313.15	0.02	0.000696	2.7e-05
0.05	313.15	0.022	0.000699	2.7e-05
0.05	313.15	0.024	0.000701	2.7e-05

System: sodium deoxycholate + N,N-dimethylimidodicarbonimidic diamide hydrochloride + water; phases: Liquid
Fixed: Pressure, kPa = 100
Property: Mass density, kg/m3 (Liquid); method: Vibrating tube method
Solvent: Molality, mol/kg of N,N-dimethylimidodicarbonimidic diamide hydrochloride	Temperature, K	Molality, mol/kg of sodium deoxycholate	Mass density, kg/m3	uncertainty
0	293.15	0	998.21	0.39
0	293.15	0.001	998.38	0.36
0	293.15	0.002	998.49	0.34
0	293.15	0.003	998.58	0.36
0	293.15	0.004	998.67	0.35
0	293.15	0.005	998.75	0.34
0	293.15	0.006	998.83	0.35
0	293.15	0.007	998.92	0.35
0	293.15	0.008	999.01	0.35
0	293.15	0.009	999.11	0.35
0	293.15	0.01	999.21	0.36
0	293.15	0.011	999.32	0.36
0	293.15	0.012	999.4	0.36
0	298.15	0	997.04	0.41
0	298.15	0.001	997.22	0.4
0	298.15	0.002	997.31	0.38
0	298.15	0.003	997.39	0.37
0	298.15	0.004	997.48	0.35
0	298.15	0.005	997.56	0.35
0	298.15	0.006	997.65	0.37
0	298.15	0.007	997.73	0.38
0	298.15	0.008	997.83	0.38
0	298.15	0.009	998.01	0.36
0	298.15	0.01	998.11	0.37
0	298.15	0.011	998.2	0.36
0	298.15	0.012	998.2	0.31
0	303.15	0	995.64	0.41
0	303.15	0.001	995.81	0.4
0	303.15	0.002	995.91	0.37
0	303.15	0.003	995.98	0.36
0	303.15	0.004	996.07	0.35
0	303.15	0.005	996.14	0.34
0	303.15	0.006	996.22	0.35
0	303.15	0.007	996.3	0.35
0	303.15	0.008	996.39	0.35
0	303.15	0.009	996.48	0.35
0	303.15	0.01	996.58	0.35
0	303.15	0.011	996.66	0.34
0	303.15	0.012	996.75	0.34
0	308.15	0	994.02	0.4
0	308.15	0.001	994.18	0.39
0	308.15	0.002	994.27	0.38
0	308.15	0.003	994.35	0.36
0	308.15	0.004	994.44	0.35
0	308.15	0.005	994.52	0.35
0	308.15	0.006	994.59	0.35
0	308.15	0.007	994.68	0.35
0	308.15	0.008	994.77	0.35
0	308.15	0.009	994.84	0.35
0	308.15	0.01	994.93	0.33
0	308.15	0.011	995.02	0.33
0	308.15	0.012	995.1	0.34
0	313.15	0	992.2	0.37
0	313.15	0.001	992.3	0.36
0	313.15	0.002	992.45	0.34
0	313.15	0.003	992.53	0.35
0	313.15	0.004	992.61	0.35
0	313.15	0.005	992.69	0.34
0	313.15	0.006	992.76	0.34
0	313.15	0.007	992.84	0.34
0	313.15	0.008	992.93	0.34
0	313.15	0.009	993.01	0.34
0	313.15	0.01	993.1	0.34
0	313.15	0.011	993.2	0.35
0	313.15	0.012	993.28	0.35
0.005	293.15	0	998.35	0.34
0.005	293.15	0.001	998.53	0.31
0.005	293.15	0.002	998.63	0.31
0.005	293.15	0.003	998.73	0.36
0.005	293.15	0.004	998.81	0.35
0.005	293.15	0.005	998.9	0.34
0.005	293.15	0.006	998.97	0.35
0.005	293.15	0.007	999.06	0.35
0.005	293.15	0.008	999.14	0.35
0.005	293.15	0.009	999.23	0.35
0.005	293.15	0.01	999.32	0.4
0.005	293.15	0.011	999.41	0.4
0.005	293.15	0.012	999.49	0.39
0.005	298.15	0	997.2	0.43
0.005	298.15	0.001	997.37	0.41
0.005	298.15	0.002	997.46	0.38
0.005	298.15	0.003	997.56	0.37
0.005	298.15	0.004	997.64	0.35
0.005	298.15	0.005	997.72	0.35
0.005	298.15	0.006	997.81	0.37
0.005	298.15	0.007	997.9	0.37
0.005	298.15	0.008	997.99	0.38
0.005	298.15	0.009	998.07	0.36
0.005	298.15	0.01	998.15	0.31
0.005	298.15	0.011	998.24	0.31
0.005	298.15	0.012	998.33	0.3
0.005	303.15	0	995.72	0.42
0.005	303.15	0.001	995.88	0.4
0.005	303.15	0.002	995.98	0.37
0.005	303.15	0.003	996.06	0.36
0.005	303.15	0.004	996.13	0.35
0.005	303.15	0.005	996.22	0.34
0.005	303.15	0.006	996.29	0.35
0.005	303.15	0.007	996.38	0.35
0.005	303.15	0.008	996.46	0.35
0.005	303.15	0.009	996.54	0.35
0.005	303.15	0.01	996.62	0.32
0.005	303.15	0.011	996.71	0.33
0.005	303.15	0.012	996.8	0.33
0.005	308.15	0	994.19	0.41
0.005	308.15	0.001	994.35	0.4
0.005	308.15	0.002	994.43	0.38
0.005	308.15	0.003	994.51	0.36
0.005	308.15	0.004	994.59	0.35
0.005	308.15	0.005	994.68	0.35
0.005	308.15	0.006	994.75	0.35
0.005	308.15	0.007	994.84	0.35
0.005	308.15	0.008	994.93	0.35
0.005	308.15	0.009	995.01	0.35
0.005	308.15	0.01	995.09	0.31
0.005	308.15	0.011	995.16	0.31
0.005	308.15	0.012	995.24	0.31
0.005	313.15	0	992.38	0.31
0.005	313.15	0.001	992.52	0.3
0.005	313.15	0.002	992.59	0.31
0.005	313.15	0.003	992.68	0.35
0.005	313.15	0.004	992.76	0.35
0.005	313.15	0.005	992.84	0.34
0.005	313.15	0.006	992.92	0.34
0.005	313.15	0.007	993.01	0.34
0.005	313.15	0.008	993.1	0.34
0.005	313.15	0.009	993.18	0.34
0.005	313.15	0.01	993.25	0.4
0.005	313.15	0.011	993.32	0.4
0.005	313.15	0.012	993.41	0.4
0.01	293.15	0	998.57	0.3
0.01	293.15	0.001	998.74	0.3
0.01	293.15	0.002	998.85	0.31
0.01	293.15	0.003	998.94	0.36
0.01	293.15	0.004	999.03	0.35
0.01	293.15	0.005	999.12	0.34
0.01	293.15	0.006	999.2	0.35
0.01	293.15	0.007	999.29	0.35
0.01	293.15	0.008	999.36	0.35
0.01	293.15	0.009	999.44	0.35
0.01	293.15	0.01	999.52	0.5
0.01	293.15	0.011	999.6	0.49
0.01	293.15	0.012	999.68	0.48
0.01	298.15	0	997.4	0.43
0.01	298.15	0.001	997.57	0.41
0.01	298.15	0.002	997.66	0.38
0.01	298.15	0.003	997.74	0.37
0.01	298.15	0.004	997.84	0.35
0.01	298.15	0.005	997.92	0.35
0.01	298.15	0.006	998	0.37
0.01	298.15	0.007	998.09	0.38
0.01	298.15	0.008	998.16	0.38
0.01	298.15	0.009	998.22	0.36
0.01	298.15	0.01	998.31	0.31
0.01	298.15	0.011	998.38	0.31
0.01	298.15	0.012	998.45	0.3
0.01	303.15	0	995.99	0.42
0.01	303.15	0.001	996.14	0.4
0.01	303.15	0.002	996.23	0.37
0.01	303.15	0.003	996.32	0.36
0.01	303.15	0.004	996.4	0.35
0.01	303.15	0.005	996.47	0.34
0.01	303.15	0.006	996.55	0.35
0.01	303.15	0.007	996.62	0.35
0.01	303.15	0.008	996.7	0.35
0.01	303.15	0.009	996.78	0.35
0.01	303.15	0.01	996.85	0.32
0.01	303.15	0.011	996.93	0.33
0.01	303.15	0.012	996.98	0.33
0.01	308.15	0	994.37	0.41
0.01	308.15	0.001	994.51	0.4
0.01	308.15	0.002	994.59	0.38
0.01	308.15	0.003	994.67	0.36
0.01	308.15	0.004	994.76	0.35
0.01	308.15	0.005	994.83	0.35
0.01	308.15	0.006	994.9	0.35
0.01	308.15	0.007	994.99	0.35
0.01	308.15	0.008	995.07	0.35
0.01	308.15	0.009	995.13	0.35
0.01	308.15	0.01	995.23	0.31
0.01	308.15	0.011	995.29	0.31
0.01	308.15	0.012	995.34	0.31
0.01	313.15	0	992.54	0.3
0.01	313.15	0.001	992.67	0.3
0.01	313.15	0.002	992.75	0.3
0.01	313.15	0.003	992.83	0.35
0.01	313.15	0.004	992.91	0.35
0.01	313.15	0.005	992.99	0.34
0.01	313.15	0.006	993.05	0.34
0.01	313.15	0.007	993.14	0.34
0.01	313.15	0.008	993.21	0.34
0.01	313.15	0.009	993.29	0.34
0.01	313.15	0.01	993.35	0.45
0.01	313.15	0.011	993.43	0.45
0.01	313.15	0.012	993.48	0.43
0.05	293.15	0	999	0.38
0.05	293.15	0.001	999.17	0.35
0.05	293.15	0.002	999.27	0.34
0.05	293.15	0.003	999.35	0.36
0.05	293.15	0.004	999.44	0.34
0.05	293.15	0.005	999.53	0.34
0.05	293.15	0.006	999.61	0.34
0.05	293.15	0.007	999.69	0.34
0.05	293.15	0.008	999.77	0.34
0.05	293.15	0.009	999.85	0.34
0.05	293.15	0.01	999.93	0.34
0.05	293.15	0.011	1000.01	0.34
0.05	293.15	0.012	1000.09	0.34
0.05	298.15	0	997.91	0.41
0.05	298.15	0.001	998.07	0.41
0.05	298.15	0.002	998.16	0.38
0.05	298.15	0.003	998.24	0.36
0.05	298.15	0.004	998.34	0.35
0.05	298.15	0.005	998.42	0.35
0.05	298.15	0.006	998.5	0.35
0.05	298.15	0.007	998.58	0.35
0.05	298.15	0.008	998.66	0.35
0.05	298.15	0.009	998.74	0.35
0.05	298.15	0.01	998.81	0.32
0.05	298.15	0.011	998.89	0.32
0.05	298.15	0.012	998.96	0.32
0.05	303.15	0	996.53	0.39
0.05	303.15	0.001	996.68	0.39
0.05	303.15	0.002	996.76	0.37
0.05	303.15	0.003	996.84	0.36
0.05	303.15	0.004	996.93	0.33
0.05	303.15	0.005	997.01	0.33
0.05	303.15	0.006	997.08	0.33
0.05	303.15	0.007	997.08	0.33
0.05	303.15	0.008	997.15	0.32
0.05	303.15	0.009	997.23	0.32
0.05	303.15	0.01	997.3	0.33
0.05	303.15	0.011	997.37	0.33
0.05	303.15	0.012	997.44	0.33
0.05	308.15	0	994.92	0.39
0.05	308.15	0.001	995.05	0.38
0.05	308.15	0.002	995.13	0.36
0.05	308.15	0.003	995.22	0.35
0.05	308.15	0.004	995.29	0.34
0.05	308.15	0.005	995.36	0.34
0.05	308.15	0.006	995.44	0.34
0.05	308.15	0.007	995.52	0.34
0.05	308.15	0.008	995.59	0.34
0.05	308.15	0.009	995.66	0.34
0.05	308.15	0.01	995.73	0.32
0.05	308.15	0.011	995.8	0.32
0.05	308.15	0.012	995.86	0.32
0.05	313.15	0	993.1	0.35
0.05	313.15	0.001	993.22	0.34
0.05	313.15	0.002	993.3	0.34
0.05	313.15	0.003	993.38	0.34
0.05	313.15	0.004	993.45	0.34
0.05	313.15	0.005	993.53	0.33
0.05	313.15	0.006	993.6	0.33
0.05	313.15	0.007	993.68	0.33
0.05	313.15	0.008	993.75	0.33
0.05	313.15	0.009	993.82	0.33
0.05	313.15	0.01	993.89	0.33
0.05	313.15	0.011	993.96	0.33
0.05	313.15	0.012	994.02	0.33

System: sodium deoxycholate + N,N-dimethylimidodicarbonimidic diamide hydrochloride + water; phases: Liquid
Fixed: Pressure, kPa = 100
Fixed: Frequency, MHz = 3
Property: Speed of sound, m/s (Liquid); method: Single path-length method
Solvent: Molality, mol/kg of N,N-dimethylimidodicarbonimidic diamide hydrochloride	Temperature, K	Molality, mol/kg of sodium deoxycholate	Speed of sound, m/s	uncertainty
0	293.15	0	1482.64	6.21
0	293.15	0.001	1483.71	6.13
0	293.15	0.002	1484.14	6.11
0	293.15	0.003	1484.45	6.15
0	293.15	0.004	1484.73	6.11
0	293.15	0.005	1484.94	6.11
0	293.15	0.006	1485.18	6.1
0	293.15	0.007	1485.39	6.1
0	293.15	0.008	1485.58	6.1
0	293.15	0.009	1485.78	6.1
0	293.15	0.01	1486	6.1
0	293.15	0.011	1486.22	6.1
0	293.15	0.012	1486.42	6.1
0	298.15	0	1496.71	6.2
0	298.15	0.001	1497.37	6.18
0	298.15	0.002	1497.64	6.14
0	298.15	0.003	1497.91	6.13
0	298.15	0.004	1498.11	6.11
0	298.15	0.005	1498.35	6.11
0	298.15	0.006	1498.56	6.11
0	298.15	0.007	1498.8	6.11
0	298.15	0.008	1499.04	6.11
0	298.15	0.009	1499.28	6.11
0	298.15	0.01	1499.48	6.1
0	298.15	0.011	1499.69	6.1
0	298.15	0.012	1499.92	6.1
0	303.15	0	1509.05	6.17
0	303.15	0.001	1509.56	6.16
0	303.15	0.002	1509.76	6.14
0	303.15	0.003	1509.98	6.12
0	303.15	0.004	1510.18	6.11
0	303.15	0.005	1510.42	6.12
0	303.15	0.006	1510.67	6.11
0	303.15	0.007	1510.93	6.11
0	303.15	0.008	1511.19	6.11
0	303.15	0.009	1511.39	6.11
0	303.15	0.01	1511.62	6.1
0	303.15	0.011	1511.86	6.1
0	303.15	0.012	1511.99	6.09
0	308.15	0	1519.71	6.16
0	308.15	0.001	1520.13	6.15
0	308.15	0.002	1520.39	6.15
0	308.15	0.003	1520.6	6.13
0	308.15	0.004	1520.79	6.12
0	308.15	0.005	1521.21	6.13
0	308.15	0.006	1521.45	6.12
0	308.15	0.007	1521.65	6.13
0	308.15	0.008	1522.03	6.11
0	308.15	0.009	1522.21	6.11
0	308.15	0.01	1522.44	6.1
0	308.15	0.011	1522.21	6.09
0	308.15	0.012	1522.44	6.09
0	313.15	0	1528.81	6.11
0	313.15	0.001	1529.19	6.1
0	313.15	0.002	1529.37	6.1
0	313.15	0.003	1529.56	6.1
0	313.15	0.004	1529.75	6.1
0	313.15	0.005	1529.94	6.1
0	313.15	0.006	1530.12	6.1
0	313.15	0.007	1530.31	6.1
0	313.15	0.008	1530.49	6.1
0	313.15	0.009	1530.68	6.1
0	313.15	0.01	1530.87	6.1
0	313.15	0.011	1531.01	6.1
0	313.15	0.012	1531.19	6.1
0.005	293.15	0	1483.01	6.16
0.005	293.15	0.001	1484	6.11
0.005	293.15	0.002	1484.29	6.1
0.005	293.15	0.003	1484.61	6.15
0.005	293.15	0.004	1484.92	6.11
0.005	293.15	0.005	1485.18	6.11
0.005	293.15	0.006	1485.44	6.1
0.005	293.15	0.007	1485.66	6.1
0.005	293.15	0.008	1485.94	6.1
0.005	293.15	0.009	1486.2	6.1
0.005	293.15	0.01	1486.41	6.13
0.005	293.15	0.011	1486.62	6.13
0.005	293.15	0.012	1486.85	6.13
0.005	298.15	0	1497.05	6.24
0.005	298.15	0.001	1497.63	6.19
0.005	298.15	0.002	1497.94	6.15
0.005	298.15	0.003	1498.18	6.12
0.005	298.15	0.004	1498.38	6.11
0.005	298.15	0.005	1498.64	6.11
0.005	298.15	0.006	1498.87	6.11
0.005	298.15	0.007	1499.1	6.11
0.005	298.15	0.008	1499.38	6.11
0.005	298.15	0.009	1499.65	6.11
0.005	298.15	0.01	1499.89	6.09
0.005	298.15	0.011	1500.12	6.09
0.005	298.15	0.012	1500.29	6.09
0.005	303.15	0	1509.37	6.2
0.005	303.15	0.001	1509.89	6.17
0.005	303.15	0.002	1510.13	6.15
0.005	303.15	0.003	1510.42	6.12
0.005	303.15	0.004	1510.63	6.11
0.005	303.15	0.005	1510.86	6.11
0.005	303.15	0.006	1511.09	6.11
0.005	303.15	0.007	1511.28	6.11
0.005	303.15	0.008	1511.52	6.12
0.005	303.15	0.009	1511.74	6.11
0.005	303.15	0.01	1511.95	6.09
0.005	303.15	0.011	1512.15	6.09
0.005	303.15	0.012	1512.36	6.1
0.005	308.15	0	1520.01	6.19
0.005	308.15	0.001	1520.55	6.16
0.005	308.15	0.002	1520.78	6.16
0.005	308.15	0.003	1520.97	6.12
0.005	308.15	0.004	1521.18	6.12
0.005	308.15	0.005	1521.37	6.12
0.005	308.15	0.006	1521.58	6.12
0.005	308.15	0.007	1521.78	6.12
0.005	308.15	0.008	1522	6.1
0.005	308.15	0.009	1522.21	6.1
0.005	308.15	0.01	1522.42	6.12
0.005	308.15	0.011	1522.61	6.14
0.005	308.15	0.012	1522.8	6.14
0.005	313.15	0	1529.09	6.1
0.005	313.15	0.001	1529.57	6.09
0.005	313.15	0.002	1529.74	6.09
0.005	313.15	0.003	1529.93	6.1
0.005	313.15	0.004	1530.09	6.1
0.005	313.15	0.005	1530.28	6.1
0.005	313.15	0.006	1530.47	6.1
0.005	313.15	0.007	1530.67	6.1
0.005	313.15	0.008	1530.89	6.1
0.005	313.15	0.009	1531.05	6.1
0.005	313.15	0.01	1531.24	6.12
0.005	313.15	0.011	1531.41	6.12
0.005	313.15	0.012	1531.59	6.12
0.01	293.15	0	1483.3	6.14
0.01	293.15	0.001	1484.27	6.1
0.01	293.15	0.002	1484.51	6.1
0.01	293.15	0.003	1484.85	6.15
0.01	293.15	0.004	1485.14	6.11
0.01	293.15	0.005	1485.39	6.11
0.01	293.15	0.006	1485.66	6.1
0.01	293.15	0.007	1485.93	6.1
0.01	293.15	0.008	1486.18	6.1
0.01	293.15	0.009	1486.45	6.1
0.01	293.15	0.01	1486.72	6.15
0.01	293.15	0.011	1486.93	6.15
0.01	293.15	0.012	1487.14	6.16
0.01	298.15	0	1497.34	6.24
0.01	298.15	0.001	1497.92	6.2
0.01	298.15	0.002	1498.22	6.15
0.01	298.15	0.003	1498.42	6.12
0.01	298.15	0.004	1498.62	6.11
0.01	298.15	0.005	1498.88	6.11
0.01	298.15	0.006	1499.15	6.11
0.01	298.15	0.007	1499.38	6.11
0.01	298.15	0.008	1499.62	6.11
0.01	298.15	0.009	1499.86	6.11
0.01	298.15	0.01	1500.06	6.09
0.01	298.15	0.011	1500.28	6.09
0.01	298.15	0.012	1500.53	6.09
0.01	303.15	0	1509.68	6.2
0.01	303.15	0.001	1510.18	6.17
0.01	303.15	0.002	1510.44	6.15
0.01	303.15	0.003	1510.62	6.12
0.01	303.15	0.004	1510.82	6.11
0.01	303.15	0.005	1511.05	6.11
0.01	303.15	0.006	1511.26	6.11
0.01	303.15	0.007	1511.44	6.11
0.01	303.15	0.008	1511.68	6.12
0.01	303.15	0.009	1511.88	6.11
0.01	303.15	0.01	1512.08	6.09
0.01	303.15	0.011	1512.27	6.09
0.01	303.15	0.012	1512.49	6.1
0.01	308.15	0	1520.3	6.19
0.01	308.15	0.001	1520.78	6.16
0.01	308.15	0.002	1520.99	6.16
0.01	308.15	0.003	1521.17	6.12
0.01	308.15	0.004	1521.37	6.12
0.01	308.15	0.005	1521.53	6.12
0.01	308.15	0.006	1521.72	6.12
0.01	308.15	0.007	1521.92	6.12
0.01	308.15	0.008	1522.12	6.1
0.01	308.15	0.009	1522.34	6.1
0.01	308.15	0.01	1522.54	6.12
0.01	308.15	0.011	1522.71	6.14
0.01	308.15	0.012	1522.89	6.14
0.01	313.15	0	1529.37	6.09
0.01	313.15	0.001	1529.83	6.09
0.01	313.15	0.002	1530.01	6.09
0.01	313.15	0.003	1530.18	6.1
0.01	313.15	0.004	1530.35	6.1
0.01	313.15	0.005	1530.55	6.1
0.01	313.15	0.006	1530.75	6.1
0.01	313.15	0.007	1530.93	6.1
0.01	313.15	0.008	1531.17	6.1
0.01	313.15	0.009	1531.36	6.1
0.01	313.15	0.01	1531.55	6.14
0.01	313.15	0.011	1531.72	6.14
0.01	313.15	0.012	1531.92	6.14
0.05	293.15	0	1483.74	6.18
0.05	293.15	0.001	1484.61	6.12
0.05	293.15	0.002	1485.13	6.1
0.05	293.15	0.003	1485.31	6.13
0.05	293.15	0.004	1485.52	6.11
0.05	293.15	0.005	1485.75	6.1
0.05	293.15	0.006	1485.75	6.1
0.05	293.15	0.007	1485.96	6.1
0.05	293.15	0.008	1486.14	6.1
0.05	293.15	0.009	1486.32	6.1
0.05	293.15	0.01	1486.55	6.1
0.05	293.15	0.011	1486.74	6.1
0.05	293.15	0.012	1486.99	6.1
0.05	298.15	0	1497.71	6.2
0.05	298.15	0.001	1498.32	6.19
0.05	298.15	0.002	1498.72	6.15
0.05	298.15	0.003	1498.94	6.12
0.05	298.15	0.004	1499.19	6.11
0.05	298.15	0.005	1499.39	6.11
0.05	298.15	0.006	1499.39	6.1
0.05	298.15	0.007	1499.61	6.11
0.05	298.15	0.008	1499.84	6.11
0.05	298.15	0.009	1500.02	6.11
0.05	298.15	0.01	1500.25	6.09
0.05	298.15	0.011	1500.46	6.09
0.05	298.15	0.012	1500.69	6.1
0.05	303.15	0	1510.04	6.17
0.05	303.15	0.001	1510.55	6.16
0.05	303.15	0.002	1510.76	6.14
0.05	303.15	0.003	1510.99	6.12
0.05	303.15	0.004	1511.17	6.11
0.05	303.15	0.005	1511.41	6.11
0.05	303.15	0.006	1511.62	6.11
0.05	303.15	0.007	1511.85	6.11
0.05	303.15	0.008	1512.11	6.11
0.05	303.15	0.009	1512.28	6.11
0.05	303.15	0.01	1512.51	6.09
0.05	303.15	0.011	1512.69	6.09
0.05	303.15	0.012	1512.89	6.09
0.05	308.15	0	1520.67	6.16
0.05	308.15	0.001	1521.16	6.15
0.05	308.15	0.002	1521.34	6.13
0.05	308.15	0.003	1521.53	6.11
0.05	308.15	0.004	1521.73	6.11
0.05	308.15	0.005	1521.9	6.11
0.05	308.15	0.006	1522.09	6.11
0.05	308.15	0.007	1522.27	6.11
0.05	308.15	0.008	1522.5	6.11
0.05	308.15	0.009	1522.72	6.11
0.05	308.15	0.01	1522.89	6.09
0.05	308.15	0.011	1523.08	6.09
0.05	308.15	0.012	1523.24	6.09
0.05	313.15	0	1529.67	6.11
0.05	313.15	0.001	1530.13	6.1
0.05	313.15	0.002	1530.31	6.1
0.05	313.15	0.003	1530.47	6.11
0.05	313.15	0.004	1530.65	6.1
0.05	313.15	0.005	1530.85	6.1
0.05	313.15	0.006	1531.04	6.1
0.05	313.15	0.007	1531.21	6.1
0.05	313.15	0.008	1531.39	6.1
0.05	313.15	0.009	1531.54	6.1
0.05	313.15	0.01	1531.72	6.1
0.05	313.15	0.011	1531.92	6.1
0.05	313.15	0.012	1532.09	6.1

System: sodium deoxycholate + N,N-dimethylimidodicarbonimidic diamide hydrochloride + water; phases: Liquid
Fixed: Pressure, kPa = 100
Property: Viscosity, Pa*s (Liquid); method: Capillary tube (Ostwald; Ubbelohde) method
Solvent: Molality, mol/kg of N,N-dimethylimidodicarbonimidic diamide hydrochloride	Temperature, K	Molality, mol/kg of sodium deoxycholate	Viscosity, Pa*s	uncertainty
0	293.15	0	0.001002	2.7e-05
0	293.15	0.001	0.001003	2.7e-05
0	293.15	0.002	0.001004	2.8e-05
0	293.15	0.003	0.001006	2.8e-05
0	293.15	0.004	0.001009	2.9e-05
0	293.15	0.005	0.001014	3e-05
0	293.15	0.006	0.001027	3e-05
0	293.15	0.007	0.001036	3e-05
0	293.15	0.008	0.00104	3e-05
0	293.15	0.009	0.001045	2.8e-05
0	293.15	0.01	0.001047	2.8e-05
0	293.15	0.011	0.00105	2.8e-05
0	293.15	0.012	0.001051	2.8e-05
0	298.15	0	0.00089	2.7e-05
0	298.15	0.001	0.000892	2.7e-05
0	298.15	0.002	0.000893	2.7e-05
0	298.15	0.003	0.000894	2.8e-05
0	298.15	0.004	0.000897	2.9e-05
0	298.15	0.005	0.000902	2.9e-05
0	298.15	0.006	0.000915	3e-05
0	298.15	0.007	0.000924	2.9e-05
0	298.15	0.008	0.000928	2.9e-05
0	298.15	0.009	0.000932	2.8e-05
0	298.15	0.01	0.000934	2.8e-05
0	298.15	0.011	0.000937	2.8e-05
0	298.15	0.012	0.000938	2.8e-05
0	303.15	0	0.000797	2.7e-05
0	303.15	0.001	0.000799	2.7e-05
0	303.15	0.002	0.0008	2.7e-05
0	303.15	0.003	0.000801	2.8e-05
0	303.15	0.004	0.000804	2.9e-05
0	303.15	0.005	0.000809	2.9e-05
0	303.15	0.006	0.000822	3e-05
0	303.15	0.007	0.00083	2.9e-05
0	303.15	0.008	0.000834	2.8e-05
0	303.15	0.009	0.000839	2.8e-05
0	303.15	0.01	0.000841	2.8e-05
0	303.15	0.011	0.000843	2.8e-05
0	303.15	0.012	0.000846	2.8e-05
0	308.15	0	0.000719	2.7e-05
0	308.15	0.001	0.00072	2.7e-05
0	308.15	0.002	0.000721	2.7e-05
0	308.15	0.003	0.000722	2.8e-05
0	308.15	0.004	0.000726	2.9e-05
0	308.15	0.005	0.00073	2.9e-05
0	308.15	0.006	0.000743	2.9e-05
0	308.15	0.007	0.000752	2.9e-05
0	308.15	0.008	0.000756	2.8e-05
0	308.15	0.009	0.00076	2.7e-05
0	308.15	0.01	0.000763	2.8e-05
0	308.15	0.011	0.000764	2.8e-05
0	308.15	0.012	0.000766	2.7e-05
0	313.15	0	0.000652	2.7e-05
0	313.15	0.001	0.000654	2.7e-05
0	313.15	0.002	0.000655	2.7e-05
0	313.15	0.003	0.000657	2.8e-05
0	313.15	0.004	0.000659	2.9e-05
0	313.15	0.005	0.000664	2.9e-05
0	313.15	0.006	0.000678	2.9e-05
0	313.15	0.007	0.000686	2.9e-05
0	313.15	0.008	0.00069	2.9e-05
0	313.15	0.009	0.000694	2.7e-05
0	313.15	0.01	0.000695	2.7e-05
0	313.15	0.011	0.000699	2.7e-05
0	313.15	0.012	0.000699	2.7e-05
0.005	293.15	0	0.001006	2.7e-05
0.005	293.15	0.001	0.001008	2.7e-05
0.005	293.15	0.002	0.001009	2.7e-05
0.005	293.15	0.003	0.00101	2.8e-05
0.005	293.15	0.004	0.001013	2.9e-05
0.005	293.15	0.005	0.001015	3e-05
0.005	293.15	0.006	0.001029	3e-05
0.005	293.15	0.007	0.001038	3e-05
0.005	293.15	0.008	0.001041	3e-05
0.005	293.15	0.009	0.001046	2.8e-05
0.005	293.15	0.01	0.001048	2.8e-05
0.005	293.15	0.011	0.001051	2.8e-05
0.005	293.15	0.012	0.001052	2.8e-05
0.005	298.15	0	0.000891	2.7e-05
0.005	298.15	0.001	0.000893	2.7e-05
0.005	298.15	0.002	0.000894	2.7e-05
0.005	298.15	0.003	0.000895	2.8e-05
0.005	298.15	0.004	0.000898	2.9e-05
0.005	298.15	0.005	0.000903	2.9e-05
0.005	298.15	0.006	0.000916	3e-05
0.005	298.15	0.007	0.000925	2.9e-05
0.005	298.15	0.008	0.00093	2.9e-05
0.005	298.15	0.009	0.000934	2.8e-05
0.005	298.15	0.01	0.000935	3.2e-05
0.005	298.15	0.011	0.000938	3.1e-05
0.005	298.15	0.012	0.000939	3.1e-05
0.005	303.15	0	0.000799	2.7e-05
0.005	303.15	0.001	0.000801	2.7e-05
0.005	303.15	0.002	0.000802	2.7e-05
0.005	303.15	0.003	0.000803	2.8e-05
0.005	303.15	0.004	0.000806	2.9e-05
0.005	303.15	0.005	0.000811	2.9e-05
0.005	303.15	0.006	0.000824	3e-05
0.005	303.15	0.007	0.000832	2.9e-05
0.005	303.15	0.008	0.000836	2.9e-05
0.005	303.15	0.009	0.000841	2.8e-05
0.005	303.15	0.01	0.000843	3.1e-05
0.005	303.15	0.011	0.000846	3e-05
0.005	303.15	0.012	0.000848	2.9e-05
0.005	308.15	0	0.000722	2.7e-05
0.005	308.15	0.001	0.000724	2.7e-05
0.005	308.15	0.002	0.000725	2.7e-05
0.005	308.15	0.003	0.000726	2.8e-05
0.005	308.15	0.004	0.000728	2.9e-05
0.005	308.15	0.005	0.000733	2.9e-05
0.005	308.15	0.006	0.000746	3e-05
0.005	308.15	0.007	0.000755	2.9e-05
0.005	308.15	0.008	0.000759	2.8e-05
0.005	308.15	0.009	0.000763	2.7e-05
0.005	308.15	0.01	0.000765	3e-05
0.005	308.15	0.011	0.000767	2.9e-05
0.005	308.15	0.012	0.000769	2.9e-05
0.005	313.15	0	0.000655	2.7e-05
0.005	313.15	0.001	0.000656	2.7e-05
0.005	313.15	0.002	0.000657	2.7e-05
0.005	313.15	0.003	0.000659	2.8e-05
0.005	313.15	0.004	0.000661	2.9e-05
0.005	313.15	0.005	0.000667	2.9e-05
0.005	313.15	0.006	0.000683	2.9e-05
0.005	313.15	0.007	0.000688	2.9e-05
0.005	313.15	0.008	0.000692	2.9e-05
0.005	313.15	0.009	0.000695	2.7e-05
0.005	313.15	0.01	0.000698	2.8e-05
0.005	313.15	0.011	0.0007	2.7e-05
0.005	313.15	0.012	0.0007	2.7e-05
0.01	293.15	0	0.00101	2.7e-05
0.01	293.15	0.001	0.001012	2.7e-05
0.01	293.15	0.002	0.001013	2.7e-05
0.01	293.15	0.003	0.001015	2.8e-05
0.01	293.15	0.004	0.001017	2.9e-05
0.01	293.15	0.005	0.00102	3e-05
0.01	293.15	0.006	0.001033	3e-05
0.01	293.15	0.007	0.001042	3e-05
0.01	293.15	0.008	0.001047	3e-05
0.01	293.15	0.009	0.001051	2.8e-05
0.01	293.15	0.01	0.001053	2.9e-05
0.01	293.15	0.011	0.001055	2.9e-05
0.01	293.15	0.012	0.001057	2.8e-05
0.01	298.15	0	0.000893	2.7e-05
0.01	298.15	0.001	0.000895	2.7e-05
0.01	298.15	0.002	0.000896	2.7e-05
0.01	298.15	0.003	0.000897	2.8e-05
0.01	298.15	0.004	0.0009	2.9e-05
0.01	298.15	0.005	0.000905	2.9e-05
0.01	298.15	0.006	0.000918	3e-05
0.01	298.15	0.007	0.000927	2.9e-05
0.01	298.15	0.008	0.000931	2.9e-05
0.01	298.15	0.009	0.000935	2.8e-05
0.01	298.15	0.01	0.000937	3.2e-05
0.01	298.15	0.011	0.00094	3.1e-05
0.01	298.15	0.012	0.000941	3.1e-05
0.01	303.15	0	0.000801	2.7e-05
0.01	303.15	0.001	0.000803	2.7e-05
0.01	303.15	0.002	0.000805	2.7e-05
0.01	303.15	0.003	0.000806	2.8e-05
0.01	303.15	0.004	0.000809	2.9e-05
0.01	303.15	0.005	0.000814	2.9e-05
0.01	303.15	0.006	0.000827	3e-05
0.01	303.15	0.007	0.000835	2.9e-05
0.01	303.15	0.008	0.000839	2.9e-05
0.01	303.15	0.009	0.000843	2.8e-05
0.01	303.15	0.01	0.000846	3.1e-05
0.01	303.15	0.011	0.000848	3e-05
0.01	303.15	0.012	0.000851	2.9e-05
0.01	308.15	0	0.000725	2.7e-05
0.01	308.15	0.001	0.000727	2.7e-05
0.01	308.15	0.002	0.000728	2.7e-05
0.01	308.15	0.003	0.000729	2.8e-05
0.01	308.15	0.004	0.000731	2.9e-05
0.01	308.15	0.005	0.000736	2.9e-05
0.01	308.15	0.006	0.000749	3e-05
0.01	308.15	0.007	0.000758	2.9e-05
0.01	308.15	0.008	0.000762	2.8e-05
0.01	308.15	0.009	0.000766	2.7e-05
0.01	308.15	0.01	0.000768	3e-05
0.01	308.15	0.011	0.00077	2.9e-05
0.01	308.15	0.012	0.000772	2.9e-05
0.01	313.15	0	0.000657	2.7e-05
0.01	313.15	0.001	0.000659	2.7e-05
0.01	313.15	0.002	0.00066	2.7e-05
0.01	313.15	0.003	0.000661	2.8e-05
0.01	313.15	0.004	0.000664	2.9e-05
0.01	313.15	0.005	0.000669	2.9e-05
0.01	313.15	0.006	0.000685	2.9e-05
0.01	313.15	0.007	0.00069	2.9e-05
0.01	313.15	0.008	0.000694	2.9e-05
0.01	313.15	0.009	0.000697	2.7e-05
0.01	313.15	0.01	0.0007	2.8e-05
0.01	313.15	0.011	0.000701	2.8e-05
0.01	313.15	0.012	0.000704	2.7e-05
0.05	293.15	0	0.0010137	2.73e-05
0.05	293.15	0.001	0.0010154	2.74e-05
0.05	293.15	0.002	0.0010167	2.76e-05
0.05	293.15	0.003	0.0010183	2.8e-05
0.05	293.15	0.004	0.0010206	2.9e-05
0.05	293.15	0.005	0.001024	2.94e-05
0.05	293.15	0.006	0.0010339	2.97e-05
0.05	293.15	0.007	0.0010461	2.97e-05
0.05	293.15	0.008	0.0010508	2.96e-05
0.05	293.15	0.009	0.0010544	2.87e-05
0.05	293.15	0.01	0.0010567	2.81e-05
0.05	293.15	0.011	0.0010593	2.78e-05
0.05	293.15	0.012	0.0010608	2.76e-05
0.05	298.15	0	0.0008947	2.71e-05
0.05	298.15	0.001	0.0008968	2.71e-05
0.05	298.15	0.002	0.0008981	2.69e-05
0.05	298.15	0.003	0.0008991	2.78e-05
0.05	298.15	0.004	0.0009019	2.86e-05
0.05	298.15	0.005	0.0009072	2.9e-05
0.05	298.15	0.006	0.0009202	2.94e-05
0.05	298.15	0.007	0.0009292	2.9e-05
0.05	298.15	0.008	0.0009335	2.84e-05
0.05	298.15	0.009	0.0009371	2.75e-05
0.05	298.15	0.01	0.0009395	2.87e-05
0.05	298.15	0.011	0.0009417	2.82e-05
0.05	298.15	0.012	0.000943	2.78e-05
0.05	303.15	0	0.000804	2.67e-05
0.05	303.15	0.001	0.0008062	2.67e-05
0.05	303.15	0.002	0.0008075	2.68e-05
0.05	303.15	0.003	0.0008085	2.79e-05
0.05	303.15	0.004	0.0008115	2.86e-05
0.05	303.15	0.005	0.0008168	2.9e-05
0.05	303.15	0.006	0.0008296	2.95e-05
0.05	303.15	0.007	0.0008375	2.9e-05
0.05	303.15	0.008	0.0008416	2.84e-05
0.05	303.15	0.009	0.0008459	2.76e-05
0.05	303.15	0.01	0.0008481	2.82e-05
0.05	303.15	0.011	0.0008505	2.79e-05
0.05	303.15	0.012	0.0008532	2.76e-05
0.05	308.15	0	0.0007276	2.67e-05
0.05	308.15	0.001	0.0007298	2.67e-05
0.05	308.15	0.002	0.000731	2.68e-05
0.05	308.15	0.003	0.0007323	2.78e-05
0.05	308.15	0.004	0.0007346	2.86e-05
0.05	308.15	0.005	0.0007393	2.9e-05
0.05	308.15	0.006	0.0007523	2.94e-05
0.05	308.15	0.007	0.0007612	2.89e-05
0.05	308.15	0.008	0.0007653	2.85e-05
0.05	308.15	0.009	0.0007691	2.75e-05
0.05	308.15	0.01	0.0007713	2.78e-05
0.05	308.15	0.011	0.0007735	2.74e-05
0.05	308.15	0.012	0.0007753	2.72e-05
0.05	313.15	0	0.000659	2.67e-05
0.05	313.15	0.001	0.0006611	2.67e-05
0.05	313.15	0.002	0.000662	2.72e-05
0.05	313.15	0.003	0.0006634	2.82e-05
0.05	313.15	0.004	0.0006661	2.85e-05
0.05	313.15	0.005	0.0006709	2.89e-05
0.05	313.15	0.006	0.0006875	2.92e-05
0.05	313.15	0.007	0.0006922	2.91e-05
0.05	313.15	0.008	0.0006961	2.87e-05
0.05	313.15	0.009	0.0006996	2.73e-05
0.05	313.15	0.01	0.0007019	2.74e-05
0.05	313.15	0.011	0.0007038	2.71e-05
0.05	313.15	0.012	0.0007063	2.7e-05

System: sodium cholate + water; phases: Liquid
Fixed: Pressure, kPa = 100
Property: Mass density, kg/m3 (Liquid); method: Vibrating tube method
Temperature, K	Molality, mol/kg of sodium cholate	Mass density, kg/m3	uncertainty
293.15	0.002	998.46	0.29
293.15	0.004	998.67	0.3
293.15	0.006	998.88	0.3
293.15	0.008	999.1	0.3
293.15	0.01	999.32	0.3
293.15	0.012	999.53	0.3
293.15	0.014	999.76	0.3
293.15	0.016	999.98	0.3
293.15	0.018	1000.2	0.3
293.15	0.02	1000.41	0.29
293.15	0.022	1000.63	0.3
293.15	0.024	1000.83	0.29
298.15	0.002	997.29	0.32
298.15	0.004	997.5	0.32
298.15	0.006	997.7	0.29
298.15	0.008	997.91	0.29
298.15	0.01	998.13	0.3
298.15	0.012	998.34	0.3
298.15	0.014	998.56	0.29
298.15	0.016	998.77	0.29
298.15	0.018	998.97	0.29
298.15	0.02	999.19	0.29
298.15	0.022	999.39	0.27
298.15	0.024	999.6	0.26
303.15	0.002	995.88	0.31
303.15	0.004	996.08	0.31
303.15	0.006	996.29	0.29
303.15	0.008	996.49	0.29
303.15	0.01	996.7	0.29
303.15	0.012	996.91	0.29
303.15	0.014	997.12	0.29
303.15	0.016	997.34	0.29
303.15	0.018	997.54	0.29
303.15	0.02	997.74	0.28
303.15	0.022	997.94	0.26
303.15	0.024	998.14	0.26
308.15	0.002	994.26	0.31
308.15	0.004	994.46	0.31
308.15	0.006	994.66	0.29
308.15	0.008	994.87	0.29
308.15	0.01	995.08	0.29
308.15	0.012	995.29	0.29
308.15	0.014	995.5	0.29
308.15	0.016	995.7	0.29
308.15	0.018	995.9	0.28
308.15	0.02	996.1	0.28
308.15	0.022	996.29	0.26
308.15	0.024	996.49	0.26
313.15	0.002	992.43	0.29
313.15	0.004	992.63	0.29
313.15	0.006	992.84	0.29
313.15	0.008	993.04	0.29
313.15	0.01	993.24	0.29
313.15	0.012	993.45	0.29
313.15	0.014	993.66	0.29
313.15	0.016	993.85	0.28
313.15	0.018	994.05	0.28
313.15	0.02	994.24	0.28
313.15	0.022	994.45	0.28
313.15	0.024	994.64	0.28

System: sodium cholate + water; phases: Liquid
Fixed: Pressure, kPa = 100
Fixed: Frequency, MHz = 3
Property: Speed of sound, m/s (Liquid); method: Single path-length method
Temperature, K	Molality, mol/kg of sodium cholate	Speed of sound, m/s	uncertainty
293.15	0.002	1483.6	6.03
293.15	0.004	1484.33	6.02
293.15	0.006	1484.81	6.03
293.15	0.008	1485.35	6.03
293.15	0.01	1486.01	6.03
293.15	0.012	1486.69	6.03
293.15	0.014	1487.29	6.03
293.15	0.016	1487.84	6.03
293.15	0.018	1488.28	6.02
293.15	0.02	1488.85	6.02
293.15	0.022	1489.02	6.01
293.15	0.024	1489.57	6.01
298.15	0.002	1497.54	6.06
298.15	0.004	1498.03	6.06
298.15	0.006	1498.62	6.03
298.15	0.008	1499.25	6.03
298.15	0.01	1499.88	6.03
298.15	0.012	1500.49	6.03
298.15	0.014	1501	6.02
298.15	0.016	1501.58	6.02
298.15	0.018	1501.95	6.02
298.15	0.02	1502.26	6.02
298.15	0.022	1502.83	6
298.15	0.024	1503.29	6
303.15	0.002	1509.83	6.05
303.15	0.004	1510.23	6.05
303.15	0.006	1510.77	6.02
303.15	0.008	1511.32	6.03
303.15	0.01	1511.86	6.03
303.15	0.012	1512.39	6.02
303.15	0.014	1512.93	6.02
303.15	0.016	1513.39	6.02
303.15	0.018	1513.77	6.02
303.15	0.02	1514.22	6.02
303.15	0.022	1514.67	6.01
303.15	0.024	1515.13	6.01
308.15	0.002	1520.46	6.05
308.15	0.004	1520.87	6.05
308.15	0.006	1521.39	6.02
308.15	0.008	1521.86	6.02
308.15	0.01	1522.37	6.02
308.15	0.012	1522.89	6.02
308.15	0.014	1523.39	6.02
308.15	0.016	1523.89	6.02
308.15	0.018	1524.38	6.02
308.15	0.02	1524.78	6.02
308.15	0.022	1525.21	6
308.15	0.024	1525.61	6
313.15	0.002	1529.51	6.01
313.15	0.004	1529.85	6.02
313.15	0.006	1530.29	6.02
313.15	0.008	1530.77	6.02
313.15	0.01	1531.23	6.02
313.15	0.012	1531.71	6.02
313.15	0.014	1532.18	6.02
313.15	0.016	1532.64	6.02
313.15	0.018	1533.11	6.02
313.15	0.02	1533.51	6.01
313.15	0.022	1533.83	6.01
313.15	0.024	1534.23	6.01

System: sodium cholate + water; phases: Liquid
Fixed: Pressure, kPa = 100
Property: Viscosity, Pa*s (Liquid); method: Capillary tube (Ostwald; Ubbelohde) method
Temperature, K	Molality, mol/kg of sodium cholate	Viscosity, Pa*s	uncertainty
293.15	0.002	0.001004	2.7e-05
293.15	0.004	0.001007	2.7e-05
293.15	0.006	0.001011	2.7e-05
293.15	0.008	0.001016	2.7e-05
293.15	0.01	0.001021	2.7e-05
293.15	0.012	0.001025	2.7e-05
293.15	0.014	0.001032	2.7e-05
293.15	0.016	0.001037	2.7e-05
293.15	0.018	0.001041	2.7e-05
293.15	0.02	0.001044	2.7e-05
293.15	0.022	0.001048	2.7e-05
293.15	0.024	0.001051	2.7e-05
298.15	0.002	0.000893	2.7e-05
298.15	0.004	0.000896	2.7e-05
298.15	0.006	0.000899	2.7e-05
298.15	0.008	0.000903	2.7e-05
298.15	0.01	0.000906	2.7e-05
298.15	0.012	0.000911	2.7e-05
298.15	0.014	0.000918	2.7e-05
298.15	0.016	0.000922	2.7e-05
298.15	0.018	0.000926	2.7e-05
298.15	0.02	0.00093	2.7e-05
298.15	0.022	0.000933	2.7e-05
298.15	0.024	0.000936	2.7e-05
303.15	0.002	0.0008	2.6e-05
303.15	0.004	0.000803	2.6e-05
303.15	0.006	0.000806	2.7e-05
303.15	0.008	0.000809	2.7e-05
303.15	0.01	0.000813	2.7e-05
303.15	0.012	0.000817	2.7e-05
303.15	0.014	0.000823	2.7e-05
303.15	0.016	0.000827	2.7e-05
303.15	0.018	0.000831	2.7e-05
303.15	0.02	0.000835	2.7e-05
303.15	0.022	0.000838	2.7e-05
303.15	0.024	0.000841	2.7e-05
308.15	0.002	0.000722	2.6e-05
308.15	0.004	0.000725	2.6e-05
308.15	0.006	0.000727	2.7e-05
308.15	0.008	0.00073	2.7e-05
308.15	0.01	0.000734	2.7e-05
308.15	0.012	0.000737	2.7e-05
308.15	0.014	0.000742	2.7e-05
308.15	0.016	0.000747	2.7e-05
308.15	0.018	0.000751	2.7e-05
308.15	0.02	0.000755	2.7e-05
308.15	0.022	0.000758	2.7e-05
308.15	0.024	0.00076	2.7e-05
313.15	0.002	0.000655	2.6e-05
313.15	0.004	0.000658	2.6e-05
313.15	0.006	0.00066	2.6e-05
313.15	0.008	0.000663	2.6e-05
313.15	0.01	0.000666	2.7e-05
313.15	0.012	0.00067	2.7e-05
313.15	0.014	0.000675	2.7e-05
313.15	0.016	0.000679	2.7e-05
313.15	0.018	0.000684	2.7e-05
313.15	0.02	0.000686	2.7e-05
313.15	0.022	0.000689	2.6e-05
313.15	0.024	0.000691	2.6e-05

System: N,N-dimethylimidodicarbonimidic diamide hydrochloride + water; phases: Liquid
Fixed: Pressure, kPa = 100
Property: Mass density, kg/m3 (Liquid); method: Vibrating tube method
Molality, mol/kg of N,N-dimethylimidodicarbonimidic diamide hydrochloride	Temperature, K	Mass density, kg/m3	uncertainty
0.005	293.15	998.35	0.45
0.005	298.15	997.2	0.45
0.005	303.15	995.72	0.45
0.005	308.15	994.19	0.45
0.005	313.15	992.38	0.45
0.01	293.15	998.57	0.45
0.01	298.15	997.4	0.45
0.01	303.15	995.99	0.45
0.01	308.15	994.37	0.45
0.01	313.15	992.54	0.45
0.05	293.15	999	0.45
0.05	298.15	997.91	0.45
0.05	303.15	996.53	0.45
0.05	308.15	994.92	0.45
0.05	313.15	993.1	0.45

System: N,N-dimethylimidodicarbonimidic diamide hydrochloride + water; phases: Liquid
Fixed: Pressure, kPa = 100
Fixed: Frequency, MHz = 3
Property: Speed of sound, m/s (Liquid); method: Single path-length method
Molality, mol/kg of N,N-dimethylimidodicarbonimidic diamide hydrochloride	Temperature, K	Speed of sound, m/s	uncertainty
0.005	293.15	1483.01	6
0.005	298.15	1497.05	6.01
0.005	303.15	1509.37	6.01
0.005	308.15	1520.01	6.01
0.005	313.15	1529.09	6
0.01	293.15	1483.3	6
0.01	298.15	1497.34	6
0.01	303.15	1509.68	6
0.01	308.15	1520.3	6
0.01	313.15	1529.37	6
0.05	293.15	1483.74	6
0.05	298.15	1497.71	6
0.05	303.15	1510.04	6
0.05	308.15	1520.67	6
0.05	313.15	1529.67	6

System: N,N-dimethylimidodicarbonimidic diamide hydrochloride + water; phases: Liquid
Fixed: Pressure, kPa = 100
Property: Viscosity, Pa*s (Liquid); method: Capillary tube (Ostwald; Ubbelohde) method
Molality, mol/kg of N,N-dimethylimidodicarbonimidic diamide hydrochloride	Temperature, K	Viscosity, Pa*s	uncertainty
0.005	293.15	0.001006	2.7e-05
0.005	298.15	0.000891	2.7e-05
0.005	303.15	0.000799	2.6e-05
0.005	308.15	0.000722	2.6e-05
0.005	313.15	0.000655	2.6e-05
0.01	293.15	0.00101	2.7e-05
0.01	298.15	0.000893	2.7e-05
0.01	303.15	0.000801	2.6e-05
0.01	308.15	0.000725	2.6e-05
0.01	313.15	0.000657	2.6e-05
0.05	293.15	0.001014	2.7e-05
0.05	298.15	0.000895	2.7e-05
0.05	303.15	0.000804	2.6e-05
0.05	308.15	0.000728	2.6e-05
0.05	313.15	0.000659	2.6e-05
0.05	293.15	0.0010137	2.66e-05
0.05	298.15	0.0008947	2.65e-05
0.05	308.15	0.0007276	2.64e-05

System: sodium deoxycholate + water; phases: Liquid
Fixed: Pressure, kPa = 100
Property: Mass density, kg/m3 (Liquid); method: Vibrating tube method
Temperature, K	Molality, mol/kg of sodium deoxycholate	Mass density, kg/m3	uncertainty
293.15	0.001	998.38	0.28
293.15	0.002	998.49	0.27
293.15	0.003	998.58	0.26
293.15	0.004	998.67	0.27
293.15	0.005	998.75	0.27
293.15	0.006	998.83	0.27
293.15	0.007	998.92	0.27
293.15	0.008	999.01	0.28
293.15	0.009	999.11	0.28
293.15	0.01	999.21	0.28
293.15	0.011	999.32	0.29
293.15	0.012	999.4	0.28
298.15	0.001	997.22	0.31
298.15	0.002	997.31	0.3
298.15	0.003	997.39	0.3
298.15	0.004	997.48	0.27
298.15	0.005	997.56	0.28
298.15	0.006	997.65	0.3
298.15	0.007	997.73	0.3
298.15	0.008	997.83	0.31
298.15	0.009	998.01	0.29
298.15	0.01	998.11	0.29
298.15	0.011	998.2	0.29
298.15	0.012	998.2	0.22
303.15	0.001	995.81	0.3
303.15	0.002	995.91	0.3
303.15	0.003	995.98	0.29
303.15	0.004	996.07	0.27
303.15	0.005	996.14	0.27
303.15	0.006	996.22	0.27
303.15	0.007	996.3	0.27
303.15	0.008	996.39	0.28
303.15	0.009	996.48	0.28
303.15	0.01	996.58	0.27
303.15	0.011	996.66	0.26
303.15	0.012	996.75	0.26
308.15	0.001	994.18	0.31
308.15	0.002	994.27	0.31
308.15	0.003	994.35	0.29
308.15	0.004	994.44	0.27
308.15	0.005	994.52	0.27
308.15	0.006	994.59	0.27
308.15	0.007	994.68	0.27
308.15	0.008	994.77	0.27
308.15	0.009	994.84	0.27
308.15	0.01	994.93	0.25
308.15	0.011	995.02	0.25
308.15	0.012	995.1	0.26
313.15	0.001	992.3	0.29
313.15	0.002	992.45	0.26
313.15	0.003	992.53	0.25
313.15	0.004	992.61	0.27
313.15	0.005	992.69	0.26
313.15	0.006	992.76	0.26
313.15	0.007	992.84	0.26
313.15	0.008	992.93	0.26
313.15	0.009	993.01	0.27
313.15	0.01	993.1	0.27
313.15	0.011	993.2	0.27
313.15	0.012	993.28	0.27

System: sodium deoxycholate + water; phases: Liquid
Fixed: Pressure, kPa = 100
Fixed: Frequency, MHz = 3
Property: Speed of sound, m/s (Liquid); method: Single path-length method
Temperature, K	Molality, mol/kg of sodium deoxycholate	Speed of sound, m/s	uncertainty
293.15	0.001	1483.71	6.04
293.15	0.002	1484.14	6.02
293.15	0.003	1484.45	6.02
293.15	0.004	1484.73	6.03
293.15	0.005	1484.94	6.02
293.15	0.006	1485.18	6.02
293.15	0.007	1485.39	6.02
293.15	0.008	1485.58	6.02
293.15	0.009	1485.78	6.02
293.15	0.01	1486	6.01
293.15	0.011	1486.22	6.02
293.15	0.012	1486.42	6.02
298.15	0.001	1497.37	6.06
298.15	0.002	1497.64	6.06
298.15	0.003	1497.91	6.05
298.15	0.004	1498.11	6.03
298.15	0.005	1498.35	6.03
298.15	0.006	1498.56	6.03
298.15	0.007	1498.8	6.03
298.15	0.008	1499.04	6.02
298.15	0.009	1499.28	6.02
298.15	0.01	1499.48	6.01
298.15	0.011	1499.69	6.01
298.15	0.012	1499.92	6.01
303.15	0.001	1509.56	6.05
303.15	0.002	1509.76	6.06
303.15	0.003	1509.98	6.05
303.15	0.004	1510.18	6.03
303.15	0.005	1510.42	6.03
303.15	0.006	1510.67	6.03
303.15	0.007	1510.93	6.03
303.15	0.008	1511.19	6.03
303.15	0.009	1511.39	6.02
303.15	0.01	1511.62	6.01
303.15	0.011	1511.86	6.01
303.15	0.012	1511.99	6.01
308.15	0.001	1520.13	6.05
308.15	0.002	1520.39	6.07
308.15	0.003	1520.6	6.07
308.15	0.004	1520.79	6.03
308.15	0.005	1521.21	6.04
308.15	0.006	1521.45	6.04
308.15	0.007	1521.65	6.04
308.15	0.008	1522.03	6.02
308.15	0.009	1522.21	6.02
308.15	0.01	1522.44	6.01
308.15	0.011	1522.21	6
308.15	0.012	1522.44	6
313.15	0.001	1529.19	6.01
313.15	0.002	1529.37	6.01
313.15	0.003	1529.56	6.01
313.15	0.004	1529.75	6.01
313.15	0.005	1529.94	6.01
313.15	0.006	1530.12	6.01
313.15	0.007	1530.31	6.01
313.15	0.008	1530.49	6.01
313.15	0.009	1530.68	6.01
313.15	0.01	1530.87	6.01
313.15	0.011	1531.01	6.01
313.15	0.012	1531.19	6.01

System: sodium deoxycholate + water; phases: Liquid
Fixed: Pressure, kPa = 100
Property: Viscosity, Pa*s (Liquid); method: Capillary tube (Ostwald; Ubbelohde) method
Temperature, K	Molality, mol/kg of sodium deoxycholate	Viscosity, Pa*s	uncertainty
293.15	0.001	0.001003	2.7e-05
293.15	0.002	0.001004	2.7e-05
293.15	0.003	0.001006	3e-05
293.15	0.004	0.001009	2.9e-05
293.15	0.005	0.001014	2.9e-05
293.15	0.006	0.001027	3e-05
293.15	0.007	0.001036	3e-05
293.15	0.008	0.00104	2.9e-05
293.15	0.009	0.001045	2.8e-05
293.15	0.01	0.001047	2.8e-05
293.15	0.011	0.00105	2.7e-05
293.15	0.012	0.001051	2.7e-05
298.15	0.001	0.000892	2.7e-05
298.15	0.002	0.000893	2.7e-05
298.15	0.003	0.000894	2.7e-05
298.15	0.004	0.000897	2.8e-05
298.15	0.005	0.000902	2.9e-05
298.15	0.006	0.000915	2.9e-05
298.15	0.007	0.000924	2.9e-05
298.15	0.008	0.000928	2.8e-05
298.15	0.009	0.000932	2.7e-05
298.15	0.01	0.000934	2.8e-05
298.15	0.011	0.000937	2.8e-05
298.15	0.012	0.000938	2.7e-05
303.15	0.001	0.000799	2.6e-05
303.15	0.002	0.0008	2.6e-05
303.15	0.003	0.000801	2.8e-05
303.15	0.004	0.000804	2.8e-05
303.15	0.005	0.000809	2.9e-05
303.15	0.006	0.000822	2.9e-05
303.15	0.007	0.00083	2.9e-05
303.15	0.008	0.000834	2.8e-05
303.15	0.009	0.000839	2.7e-05
303.15	0.01	0.000841	2.8e-05
303.15	0.011	0.000843	2.8e-05
303.15	0.012	0.000846	2.7e-05
308.15	0.001	0.00072	2.6e-05
308.15	0.002	0.000721	2.6e-05
308.15	0.003	0.000722	2.8e-05
308.15	0.004	0.000726	2.8e-05
308.15	0.005	0.00073	2.9e-05
308.15	0.006	0.000743	2.9e-05
308.15	0.007	0.000752	2.9e-05
308.15	0.008	0.000756	2.8e-05
308.15	0.009	0.00076	2.7e-05
308.15	0.01	0.000763	2.8e-05
308.15	0.011	0.000764	2.7e-05
308.15	0.012	0.000766	2.7e-05
313.15	0.001	0.000654	2.7e-05
313.15	0.002	0.000655	2.7e-05
313.15	0.003	0.000657	3e-05
313.15	0.004	0.000659	2.8e-05
313.15	0.005	0.000664	2.9e-05
313.15	0.006	0.000678	2.9e-05
313.15	0.007	0.000686	2.9e-05
313.15	0.008	0.00069	2.9e-05
313.15	0.009	0.000694	2.7e-05
313.15	0.01	0.000695	2.7e-05
313.15	0.011	0.000699	2.7e-05
313.15	0.012	0.000699	2.7e-05
