Measured thermophysical data. Solubility Study of (2E)-1-(3-Pyridyl)-3-(dimethylamino)-2-propen-1-one in Different Pure Solvents and Binary Solvent Mixtures from 278.15 to 328.15 K
Source: J. Chem. Eng. Data, 2019, 10.1021/acs.jced.9b00047
Compound 1: (E)-3-(dimethylamino)-1-(pyridin-3-yl)prop-2-en-1-one, C10H12N2O, InChI=1S/C10H12N2O/c1-12(2)7-5-10(13)9-4-3-6-11-8-9/h3-8H,1-2H3/b7-5+, purity 98%
Compound 2: methanol, CH4O, InChI=1S/CH4O/c1-2/h2H,1H3, purity 99%
Compound 3: propan-1-ol, C3H8O, InChI=1S/C3H8O/c1-2-3-4/h4H,2-3H2,1H3, purity 99%
Compound 4: acetone, C3H6O, InChI=1S/C3H6O/c1-3(2)4/h1-2H3, purity 99%
Compound 5: dimethylformamide, C3H7NO, InChI=1S/C3H7NO/c1-4(2)3-5/h3H,1-2H3, purity 99%
Compound 6: 1,4-dioxane, C4H8O2, InChI=1S/C4H8O2/c1-2-6-4-3-5-1/h1-4H2, purity 99%
Compound 7: ethyl acetate, C4H8O2, InChI=1S/C4H8O2/c1-3-6-4(2)5/h3H2,1-2H3, purity 99%
Compound 8: tetrahydrofuran, C4H8O, InChI=1S/C4H8O/c1-2-4-5-3-1/h1-4H2, purity 99%
Compound 9: cyclohexane, C6H12, InChI=1S/C6H12/c1-2-4-6-5-3-1/h1-6H2, purity 99%

System: (E)-3-(dimethylamino)-1-(pyridin-3-yl)prop-2-en-1-one; phases: Crystal, Liquid, Air at 1 atmosphere
Property: Normal melting temperature, K (Crystal); method: DTA
Normal melting temperature, K	uncertainty
387.65	1.06

System: (E)-3-(dimethylamino)-1-(pyridin-3-yl)prop-2-en-1-one; phases: Crystal, Liquid, Air at 1 atmosphere
Property: Molar enthalpy of transition or fusion, kJ/mol (Crystal); method: DSC
Molar enthalpy of transition or fusion, kJ/mol	uncertainty
17.4	0.5

System: (E)-3-(dimethylamino)-1-(pyridin-3-yl)prop-2-en-1-one + methanol; phases: Liquid, Crystal
Fixed: Pressure, kPa = 100
Property: Mole fraction of (E)-3-(dimethylamino)-1-(pyridin-3-yl)prop-2-en-1-one (Liquid); method: gravimetric
Temperature, K	Mole fraction of (E)-3-(dimethylamino)-1-(pyridin-3-yl)prop-2-en-1-one	uncertainty
278.15	0.02547	0.00104
283.15	0.02779	0.00113
288.15	0.03043	0.00124
293.15	0.03404	0.0014
298.15	0.03794	0.00156
303.15	0.04266	0.00175
308.15	0.04755	0.00195
313.15	0.05326	0.00218
318.15	0.05884	0.0024
323.15	0.06483	0.00265
328.15	0.07151	0.00291

System: (E)-3-(dimethylamino)-1-(pyridin-3-yl)prop-2-en-1-one + propan-1-ol; phases: Liquid, Crystal
Fixed: Pressure, kPa = 100
Property: Mole fraction of (E)-3-(dimethylamino)-1-(pyridin-3-yl)prop-2-en-1-one (Liquid); method: gravimetric
Temperature, K	Mole fraction of (E)-3-(dimethylamino)-1-(pyridin-3-yl)prop-2-en-1-one	uncertainty
278.15	0.01846	0.00076
283.15	0.02072	0.00085
288.15	0.02335	0.00096
293.15	0.02613	0.00108
298.15	0.02977	0.00122
303.15	0.03308	0.00136
308.15	0.03712	0.00152
313.15	0.04076	0.00168
318.15	0.04651	0.00193
323.15	0.05293	0.00219
328.15	0.06043	0.00249

System: (E)-3-(dimethylamino)-1-(pyridin-3-yl)prop-2-en-1-one + dimethylformamide; phases: Liquid, Crystal
Fixed: Pressure, kPa = 100
Property: Mole fraction of (E)-3-(dimethylamino)-1-(pyridin-3-yl)prop-2-en-1-one (Liquid); method: gravimetric
Temperature, K	Mole fraction of (E)-3-(dimethylamino)-1-(pyridin-3-yl)prop-2-en-1-one	uncertainty
278.15	0.08966	0.004
283.15	0.11167	0.00494
288.15	0.14178	0.00621
293.15	0.17468	0.00749
298.15	0.20851	0.00886
303.15	0.24859	0.01051
308.15	0.29252	0.01237
313.15	0.34751	0.01467
318.15	0.40818	0.01721
323.15	0.48156	0.02058
328.15	0.58755	0.01859

System: (E)-3-(dimethylamino)-1-(pyridin-3-yl)prop-2-en-1-one + acetone; phases: Liquid, Crystal
Fixed: Pressure, kPa = 100
Property: Mole fraction of (E)-3-(dimethylamino)-1-(pyridin-3-yl)prop-2-en-1-one (Liquid); method: gravimetric
Temperature, K	Mole fraction of (E)-3-(dimethylamino)-1-(pyridin-3-yl)prop-2-en-1-one	uncertainty
278.15	0.00872	0.00035
283.15	0.00917	0.00037
288.15	0.00987	0.0004
293.15	0.01077	0.00044
298.15	0.01172	0.00048
303.15	0.0127	0.00052
308.15	0.01379	0.00056
313.15	0.01494	0.00061
318.15	0.01637	0.00067
323.15	0.01783	0.00073
328.15	0.01969	0.0008

System: (E)-3-(dimethylamino)-1-(pyridin-3-yl)prop-2-en-1-one + 1,4-dioxane; phases: Liquid, Crystal
Fixed: Pressure, kPa = 100
Property: Mole fraction of (E)-3-(dimethylamino)-1-(pyridin-3-yl)prop-2-en-1-one (Liquid); method: gravimetric
Temperature, K	Mole fraction of (E)-3-(dimethylamino)-1-(pyridin-3-yl)prop-2-en-1-one	uncertainty
288.15	0.03313	0.00134
293.15	0.03566	0.00145
298.15	0.03877	0.00158
303.15	0.04272	0.00175
308.15	0.04803	0.00198
313.15	0.05402	0.00222
318.15	0.06098	0.00252
323.15	0.0692	0.00285
328.15	0.07789	0.0032

System: (E)-3-(dimethylamino)-1-(pyridin-3-yl)prop-2-en-1-one + ethyl acetate; phases: Liquid, Crystal
Fixed: Pressure, kPa = 100
Property: Mole fraction of (E)-3-(dimethylamino)-1-(pyridin-3-yl)prop-2-en-1-one (Liquid); method: gravimetric
Temperature, K	Mole fraction of (E)-3-(dimethylamino)-1-(pyridin-3-yl)prop-2-en-1-one	uncertainty
278.15	0.01309	0.00053
283.15	0.01402	0.00057
288.15	0.01515	0.00061
293.15	0.01631	0.00066
298.15	0.01799	0.00074
303.15	0.02001	0.00082
308.15	0.02283	0.00094
313.15	0.02587	0.00107
318.15	0.02949	0.00122
323.15	0.03377	0.0014
328.15	0.03816	0.00157

System: (E)-3-(dimethylamino)-1-(pyridin-3-yl)prop-2-en-1-one + tetrahydrofuran; phases: Liquid, Crystal
Fixed: Pressure, kPa = 100
Property: Mole fraction of (E)-3-(dimethylamino)-1-(pyridin-3-yl)prop-2-en-1-one (Liquid); method: gravimetric
Temperature, K	Mole fraction of (E)-3-(dimethylamino)-1-(pyridin-3-yl)prop-2-en-1-one	uncertainty
278.15	0.02097	0.0021
283.15	0.0216	0.00216
288.15	0.02252	0.00225
293.15	0.02387	0.00239
298.15	0.02569	0.00257
303.15	0.0279	0.0028
308.15	0.03036	0.00304
313.15	0.03304	0.00331
318.15	0.03578	0.00359
323.15	0.03915	0.00393
328.15	0.04275	0.00429

System: (E)-3-(dimethylamino)-1-(pyridin-3-yl)prop-2-en-1-one + cyclohexane; phases: Liquid, Crystal
Fixed: Pressure, kPa = 100
Property: Mole fraction of (E)-3-(dimethylamino)-1-(pyridin-3-yl)prop-2-en-1-one (Liquid); method: gravimetric
Temperature, K	Mole fraction of (E)-3-(dimethylamino)-1-(pyridin-3-yl)prop-2-en-1-one	uncertainty
283.15	0.00098	4e-05
288.15	0.00114	5e-05
293.15	0.00147	7e-05
298.15	0.00183	8e-05
303.15	0.00228	0.0001
308.15	0.00284	0.00012
313.15	0.0034	0.00015
318.15	0.00408	0.00017
323.15	0.00493	0.00021
328.15	0.0061	0.00026

System: (E)-3-(dimethylamino)-1-(pyridin-3-yl)prop-2-en-1-one + 1,4-dioxane + cyclohexane; phases: Liquid, Crystal
Fixed: Pressure, kPa = 100
Property: Mole fraction of (E)-3-(dimethylamino)-1-(pyridin-3-yl)prop-2-en-1-one (Liquid); method: gravimetric
Temperature, K	Solvent: Mole fraction of 1,4-dioxane	Mole fraction of (E)-3-(dimethylamino)-1-(pyridin-3-yl)prop-2-en-1-one	uncertainty
288.15	0	0.00114	0.00011
293.15	0	0.00147	0.00015
298.15	0	0.00183	0.00018
303.15	0	0.00228	0.00023
308.15	0	0.00284	0.00028
313.15	0	0.0034	0.00034
318.15	0	0.00408	0.00041
323.15	0	0.00493	0.00049
328.15	0	0.0061	0.00061
288.15	0.1824	0.00363	0.00036
293.15	0.1824	0.0042	0.00042
298.15	0.1824	0.00528	0.00053
303.15	0.1824	0.00632	0.00063
308.15	0.1824	0.00759	0.00076
313.15	0.1824	0.0089	0.00089
318.15	0.1824	0.01155	0.00116
323.15	0.1824	0.01408	0.00141
328.15	0.1824	0.01735	0.00174
288.15	0.3514	0.00816	0.00082
293.15	0.3514	0.00948	0.00095
298.15	0.3514	0.01079	0.00108
303.15	0.3514	0.01234	0.00123
308.15	0.3514	0.01427	0.00143
313.15	0.3514	0.01657	0.00166
318.15	0.3514	0.01974	0.00198
323.15	0.3514	0.02306	0.00231
328.15	0.3514	0.02781	0.00278
288.15	0.5084	0.01516	0.00152
293.15	0.5084	0.01621	0.00162
298.15	0.5084	0.01796	0.0018
303.15	0.5084	0.01987	0.00199
308.15	0.5084	0.02272	0.00227
313.15	0.5084	0.02573	0.00257
318.15	0.5084	0.02876	0.00288
323.15	0.5084	0.03289	0.00329
328.15	0.5084	0.03953	0.00396
288.15	0.6547	0.01964	0.00196
293.15	0.6547	0.02122	0.00212
298.15	0.6547	0.02291	0.00229
303.15	0.6547	0.02401	0.0024
308.15	0.6547	0.02857	0.00286
313.15	0.6547	0.03191	0.00319
318.15	0.6547	0.03633	0.00364
323.15	0.6547	0.0423	0.00423
328.15	0.6547	0.04967	0.00497
288.15	0.7913	0.02468	0.00247
293.15	0.7913	0.02664	0.00266
298.15	0.7913	0.0284	0.00284
303.15	0.7913	0.03023	0.00302
308.15	0.7913	0.0348	0.00348
313.15	0.7913	0.03855	0.00386
318.15	0.7913	0.04418	0.00442
323.15	0.7913	0.05153	0.00516
328.15	0.7913	0.05958	0.00596
288.15	0.9192	0.02867	0.00287
293.15	0.9192	0.03115	0.00312
298.15	0.9192	0.03327	0.00333
303.15	0.9192	0.03696	0.0037
308.15	0.9192	0.04115	0.00412
313.15	0.9192	0.04607	0.00461
318.15	0.9192	0.05242	0.00525
323.15	0.9192	0.05982	0.00599
328.15	0.9192	0.06762	0.00677
288.15	1	0.03313	0.00331
293.15	1	0.03566	0.00357
298.15	1	0.03877	0.00388
303.15	1	0.04272	0.00427
308.15	1	0.04803	0.00481
313.15	1	0.05402	0.0054
318.15	1	0.06098	0.0061
323.15	1	0.0692	0.00692
328.15	1	0.07789	0.00779

System: (E)-3-(dimethylamino)-1-(pyridin-3-yl)prop-2-en-1-one + dimethylformamide + acetone; phases: Liquid, Crystal
Fixed: Pressure, kPa = 100
Property: Mole fraction of (E)-3-(dimethylamino)-1-(pyridin-3-yl)prop-2-en-1-one (Liquid); method: gravimetric
Temperature, K	Solvent: Mole fraction of dimethylformamide	Mole fraction of (E)-3-(dimethylamino)-1-(pyridin-3-yl)prop-2-en-1-one	uncertainty
278.15	0	0.00872	0.00087
283.15	0	0.00917	0.00092
288.15	0	0.00987	0.00099
293.15	0	0.01077	0.00108
298.15	0	0.01172	0.00117
303.15	0	0.0127	0.00127
308.15	0	0.01379	0.00138
313.15	0	0.01494	0.00149
318.15	0	0.01637	0.00164
323.15	0	0.01783	0.00178
328.15	0	0.01969	0.00197
278.15	0.1443	0.01042	0.00104
283.15	0.1443	0.0128	0.00128
288.15	0.1443	0.01559	0.00156
293.15	0.1443	0.01893	0.00189
298.15	0.1443	0.02261	0.00226
303.15	0.1443	0.0272	0.00272
308.15	0.1443	0.03198	0.0032
313.15	0.1443	0.03791	0.00379
318.15	0.1443	0.04474	0.00448
323.15	0.1443	0.05266	0.00527
328.15	0.1443	0.06314	0.00633
278.15	0.2906	0.02343	0.00234
283.15	0.2906	0.02824	0.00283
288.15	0.2906	0.03502	0.00351
293.15	0.2906	0.04252	0.00426
298.15	0.2906	0.05082	0.00509
303.15	0.2906	0.06059	0.00606
308.15	0.2906	0.07129	0.00714
313.15	0.2906	0.08464	0.00847
318.15	0.2906	0.09833	0.00984
323.15	0.2906	0.11564	0.01157
328.15	0.2906	0.13473	0.01349
278.15	0.4388	0.04352	0.00436
283.15	0.4388	0.05041	0.00505
288.15	0.4388	0.06207	0.00622
293.15	0.4388	0.08006	0.00802
298.15	0.4388	0.09643	0.00965
303.15	0.4388	0.11257	0.01127
308.15	0.4388	0.13451	0.01346
313.15	0.4388	0.16034	0.01605
318.15	0.4388	0.18781	0.0188
323.15	0.4388	0.22091	0.02211
328.15	0.4388	0.25459	0.02547
278.15	0.5891	0.05697	0.0057
283.15	0.5891	0.06998	0.00701
288.15	0.5891	0.0865	0.00866
293.15	0.5891	0.10324	0.01033
298.15	0.5891	0.12346	0.01236
303.15	0.5891	0.14726	0.01474
308.15	0.5891	0.17327	0.01734
313.15	0.5891	0.20444	0.02046
318.15	0.5891	0.24172	0.02419
323.15	0.5891	0.28922	0.02894
328.15	0.5891	0.33797	0.03382
278.15	0.7414	0.07429	0.00744
283.15	0.7414	0.08783	0.00879
288.15	0.7414	0.1093	0.01094
293.15	0.7414	0.13305	0.01332
298.15	0.7414	0.15932	0.01595
303.15	0.7414	0.1904	0.01906
308.15	0.7414	0.23309	0.02333
313.15	0.7414	0.2667	0.02669
318.15	0.7414	0.31365	0.03139
323.15	0.7414	0.37368	0.0374
328.15	0.7414	0.43944	0.04397
278.15	0.8959	0.08209	0.00821
283.15	0.8959	0.09483	0.00949
288.15	0.8959	0.11846	0.01186
293.15	0.8959	0.14472	0.01449
298.15	0.8959	0.17978	0.018
303.15	0.8959	0.21407	0.02142
308.15	0.8959	0.2516	0.02518
313.15	0.8959	0.29639	0.02966
318.15	0.8959	0.34226	0.03426
323.15	0.8959	0.41837	0.04188
328.15	0.8959	0.4987	0.04992
278.15	1	0.08966	0.00898
283.15	1	0.11167	0.01118
288.15	1	0.14178	0.0142
293.15	1	0.17468	0.01748
298.15	1	0.20851	0.02087
303.15	1	0.24859	0.02488
308.15	1	0.29252	0.02928
313.15	1	0.34751	0.03478
318.15	1	0.40818	0.04085
323.15	1	0.48156	0.0482
328.15	1	0.58755	0.04132

System: (E)-3-(dimethylamino)-1-(pyridin-3-yl)prop-2-en-1-one + dimethylformamide + ethyl acetate; phases: Liquid, Crystal
Fixed: Pressure, kPa = 100
Property: Mole fraction of (E)-3-(dimethylamino)-1-(pyridin-3-yl)prop-2-en-1-one (Liquid); method: gravimetric
Temperature, K	Solvent: Mole fraction of dimethylformamide	Mole fraction of (E)-3-(dimethylamino)-1-(pyridin-3-yl)prop-2-en-1-one	uncertainty
278.15	0	0.01309	0.00262
283.15	0	0.01402	0.0028
288.15	0	0.01515	0.00303
293.15	0	0.01631	0.00326
298.15	0	0.01799	0.0036
303.15	0	0.02001	0.004
308.15	0	0.02283	0.00457
313.15	0	0.02587	0.00517
318.15	0	0.02949	0.0059
323.15	0	0.03377	0.00675
328.15	0	0.03816	0.00763
278.15	0.1827	0.0157	0.00314
283.15	0.1827	0.01734	0.00347
288.15	0.1827	0.02136	0.00427
293.15	0.1827	0.02655	0.00531
298.15	0.1827	0.0334	0.00668
303.15	0.1827	0.03797	0.0076
308.15	0.1827	0.04527	0.00906
313.15	0.1827	0.05622	0.01125
318.15	0.1827	0.07009	0.01402
323.15	0.1827	0.08305	0.01662
328.15	0.1827	0.1066	0.02132
278.15	0.3519	0.02446	0.00489
283.15	0.3519	0.02993	0.00599
288.15	0.3519	0.03842	0.00769
293.15	0.3519	0.04545	0.00909
298.15	0.3519	0.05622	0.01125
303.15	0.3519	0.06626	0.01325
308.15	0.3519	0.07739	0.01548
313.15	0.3519	0.09364	0.01873
318.15	0.3519	0.10897	0.0218
323.15	0.3519	0.12741	0.02549
328.15	0.3519	0.15132	0.03028
278.15	0.509	0.04545	0.00909
283.15	0.509	0.05093	0.01019
288.15	0.509	0.05987	0.01198
293.15	0.509	0.07739	0.01548
298.15	0.509	0.09309	0.01862
303.15	0.509	0.11646	0.0233
308.15	0.509	0.13948	0.0279
313.15	0.509	0.16515	0.03304
318.15	0.509	0.19358	0.03872
323.15	0.509	0.22793	0.0456
328.15	0.509	0.27675	0.05536
278.15	0.6552	0.05888	0.01178
283.15	0.6552	0.07203	0.01441
288.15	0.6552	0.08524	0.01705
293.15	0.6552	0.10477	0.02096
298.15	0.6552	0.12504	0.02501
303.15	0.6552	0.15625	0.03126
308.15	0.6552	0.18545	0.0371
313.15	0.6552	0.21867	0.04374
318.15	0.6552	0.25792	0.05159
323.15	0.6552	0.30008	0.06003
328.15	0.6552	0.35859	0.07173
278.15	0.7917	0.074	0.01481
283.15	0.7917	0.09052	0.01811
288.15	0.7917	0.11061	0.02213
293.15	0.7917	0.13526	0.02706
298.15	0.7917	0.16081	0.03217
303.15	0.7917	0.19111	0.03823
308.15	0.7917	0.2271	0.04543
313.15	0.7917	0.26889	0.05379
318.15	0.7917	0.31519	0.06305
323.15	0.7917	0.37112	0.07424
328.15	0.7917	0.45061	0.09014
278.15	0.9194	0.0836	0.01672
283.15	0.9194	0.10039	0.02008
288.15	0.9194	0.1265	0.02531
293.15	0.9194	0.15734	0.03148
298.15	0.9194	0.1871	0.03743
303.15	0.9194	0.22471	0.04495
308.15	0.9194	0.26382	0.05277
313.15	0.9194	0.31237	0.06249
318.15	0.9194	0.36615	0.07324
323.15	0.9194	0.43112	0.08624
328.15	0.9194	0.52346	0.09534
278.15	1	0.08966	0.01794
283.15	1	0.11167	0.02234
288.15	1	0.14178	0.02836
293.15	1	0.17468	0.03494
298.15	1	0.20851	0.04171
303.15	1	0.24859	0.04973
308.15	1	0.29252	0.05852
313.15	1	0.34751	0.06952
318.15	1	0.40818	0.08165
323.15	1	0.48156	0.09633
328.15	1	0.58755	0.08253
