Measured thermophysical data. Measurement of p.rho.T Properties of 1,1,1,2,2,4,5,5,5-Nonafluoro-4-(trifluoromethyl)-3-pentanone in the Near-Critical and Supercritical Regions
Source: J. Chem. Eng. Data, 2016, 10.1021/acs.jced.6b00772
Compound 1: dodecafluoro-2-methylpentan-3-one, C6F12O, InChI=1S/C6F12O/c7-2(4(10,11)12,5(13,14)15)1(19)3(8,9)6(16,17)18

System: dodecafluoro-2-methylpentan-3-one; phases: Fluid (supercritical or subcritical phases)
Property: Mass density, kg/m3 (Fluid (supercritical or subcritical phases)); method: ISOCHOR
Temperature, K	Pressure, kPa	Mass density, kg/m3	uncertainty
403.46	831.5	107.8	38.6
413.48	873.1	107.8	10.6
423.49	913.6	107.7	5.4
433.49	953.3	107.7	1.8
443.49	991.3	107.6	1.6
453.49	1028.2	107.6	1.5
463.5	1065.3	107.5	1.4
473.5	1102	107.5	1.3
483.51	1138.4	107.4	1.2
493.51	1174.7	107.4	1.2
503.51	1210.7	107.3	1.1
513.5	1245.5	107.3	1.1
523.5	1281.4	107.2	1
433.46	1423	209.1	7.5
443.48	1517.2	209	3.3
453.5	1608.6	208.9	2.7
463.48	1697.6	208.8	1.8
473.5	1785	208.7	1.7
483.49	1870.9	208.6	1.5
493.49	1955	208.5	1.4
503.5	2038.9	208.4	1.3
513.49	2121.4	208.3	1.3
523.5	2203.4	208.2	1.2
443.47	1703.9	270.5	5.5
453.5	1836	270.4	3.2
463.49	1963.3	270.2	2.7
473.49	2087.5	270.1	2.4
483.49	2209.8	270	2.1
493.49	2329.9	269.9	1.9
503.5	2448.7	269.7	1.8
513.49	2565.8	269.6	1.7
523.49	2682.3	269.5	1.6
443.48	1862.8	384.5	7
453.49	2074	384.3	5.6
463.5	2277.3	384.1	3.9
473.5	2476.2	383.9	3.1
483.49	2672.1	383.8	2.7
493.49	2865	383.6	2.4
503.51	3055.8	383.4	2.2
513.51	3244.9	383.2	2.1
523.5	3433	383	2
443.49	1905.5	490.7	5.6
453.53	2192.7	490.4	8.1
463.51	2470.7	490.2	5.4
473.51	2746.7	490	3.8
483.52	3020.8	489.7	3.3
493.54	3292.9	489.5	2.8
503.52	3562.4	489.3	2.6
513.53	3830.9	489	2.5
523.52	4099.2	488.8	2.3
443.48	1909.2	553.6	10.9
453.49	2237.3	553.3	8.8
463.5	2561.8	553	5.7
473.5	2884.8	552.8	4.1
483.51	3208.9	552.5	3.4
493.52	3532.9	552.2	2.9
503.53	3855.8	552	2.7
513.52	4177.8	551.7	2.6
523.54	4499.9	551.5	2.5
443.5	1925.1	626.4	42.8
453.5	2302.1	626.1	8.5
463.5	2685.7	625.8	4.9
473.5	3074.2	625.5	3.7
483.5	3464.6	625.2	3.2
493.5	3858.2	624.9	3
503.51	4251.2	624.7	2.8
513.5	4646.1	624.4	2.7
523.49	5040.8	624.1	2.7
443.49	1950.5	733.6	23.3
453.49	2415.6	733.2	6.5
463.5	2908.5	732.9	4.4
473.49	3412	732.5	3.7
483.5	3924.7	732.2	3.4
493.5	4442.7	731.8	3.2
503.52	4964.5	731.5	3.1
513.5	5488.2	731.1	3.1
523.52	6015.2	730.8	3
443.5	1983.4	797.9	9.4
453.52	2543.8	797.5	4.8
463.51	3127.9	797.1	3.9
473.53	3727.6	796.7	3.6
483.52	4336.7	796.4	3.4
493.52	4954.4	796	3.4
503.53	5577.4	795.6	3.3
513.54	6204.5	795.2	3.3
523.53	6832.9	794.9	3.3
443.5	2050.5	844.7	6.5
453.5	2679.9	844.3	4
463.51	3336.1	843.9	3.6
473.52	4008.9	843.5	3.6
483.52	4691.3	843.1	3.5
493.51	5382.6	842.7	3.5
503.53	6079.9	842.3	3.5
513.52	6780.4	841.9	3.4
523.53	7485.5	841.5	3.4
443.5	2089.1	861.9	5.6
453.52	2753.3	861.5	5.8
463.52	3442	861.1	3.5
473.52	4147	860.7	3.6
483.52	4863.8	860.3	3.6
493.52	5589.2	859.9	3.5
503.53	6319.5	859.5	3.5
513.52	7055	859.1	3.5
523.54	7793.7	858.7	3.5
443.48	2368.4	932	4.1
453.48	3187.2	931.6	3.9
463.5	4032.8	931.2	3.8
473.49	4891.4	930.7	3.8
483.48	5762.4	930.3	3.8
493.5	6642.5	929.8	3.8
503.49	7526.9	929.4	3.8
513.5	8416.4	928.9	3.8
523.49	9308.2	928.5	3.7
433.49	1785.7	980.1	7.9
443.5	2696.6	979.6	4
453.51	3642.6	979.1	4
463.52	4610	978.7	4
473.51	5591.7	978.2	4
483.52	6584	977.8	3.9
493.53	7585.3	977.3	3.9
503.53	8592.1	976.8	3.9
513.53	9599.7	976.4	3.9
433.48	2354.6	1044.1	4.3
443.5	3478.7	1043.6	4.2
453.51	4628.3	1043.2	4.2
463.49	5794.1	1042.7	4.2
473.51	6974.8	1042.2	4.2
483.5	8161	1041.7	4.2
493.5	9354.4	1041.2	4.2
413.46	1666.3	1157.5	6.3
423.47	3219	1156.9	4.7
433.47	4799.8	1156.4	4.7
443.48	6401.8	1155.8	4.6
453.49	8016.6	1155.3	4.6
463.5	9636.7	1154.7	4.6
403.48	1044.1	1195.8	38.9
413.48	2784	1195.2	4.8
423.49	4554.9	1194.6	4.8
433.49	6349	1194.1	4.8
443.5	8156.2	1193.5	4.8
453.52	9972.1	1192.9	4.8
393.5	1730.8	1273.5	5.1
403.5	3917.8	1272.9	5.1
413.5	6126.2	1272.3	5.1
423.49	8348.4	1271.7	5.1
373.46	849.3	1348	5.9
383.46	3567.3	1347.4	5.4
393.47	6308	1346.8	5.4
403.46	9056.2	1346.1	5.4
353.46	597.1	1425.9	5.7
363.45	4019	1425.2	5.7
373.46	7450.4	1424.5	5.7
343.46	3695.1	1489	6
353.46	7818.2	1488.3	6
333.47	4628.4	1526.2	6.1
