Measured thermophysical data. Determination and Correlation of Solubility of Quetiapine Fumarate in Nine Pure Solvents and Two Aqueous Binary Solvents
Source: J. Chem. Eng. Data, 2017, 10.1021/acs.jced.7b00518
Compound 1: quetiapine fumarate, C46H54N6O8S2, InChI=1S/2C21H25N3O2S.C4H4O4/c2*25-14-16-26-15-13-23-9-11-24(12-10-23)21-17-5-1-3-7-19(17)27-20-8-4-2-6-18(20)22-21;5-3(6)1-2-4(7)8/h2*1-8,25H,9-16H2;1-2H,(H,5,6)(H,7,8)/b;;2-1+, purity 99%
Compound 2: methanol, CH4O, InChI=1S/CH4O/c1-2/h2H,1H3, purity 99.5%
Compound 3: ethanol, C2H6O, InChI=1S/C2H6O/c1-2-3/h3H,2H2,1H3, purity 99.5%
Compound 4: propan-2-ol, C3H8O, InChI=1S/C3H8O/c1-3(2)4/h3-4H,1-2H3, purity 99.5%
Compound 5: butan-1-ol, C4H10O, InChI=1S/C4H10O/c1-2-3-4-5/h5H,2-4H2,1H3, purity 99.5%
Compound 6: 2-methyl-1-propanol, C4H10O, InChI=1S/C4H10O/c1-4(2)3-5/h4-5H,3H2,1-2H3, purity 99.5%
Compound 7: acetone, C3H6O, InChI=1S/C3H6O/c1-3(2)4/h1-2H3, purity 99.5%
Compound 8: ethyl acetate, C4H8O2, InChI=1S/C4H8O2/c1-3-6-4(2)5/h3H2,1-2H3, purity 99.5%
Compound 9: dimethylformamide, C3H7NO, InChI=1S/C3H7NO/c1-4(2)3-5/h3H,1-2H3, purity 99.5%
Compound 10: water, H2O, InChI=1S/H2O/h1H2, purity 99.9%

System: quetiapine fumarate; phases: Crystal, Liquid, Air at 1 atmosphere
Property: Normal melting temperature, K (Crystal); method: DTA
Normal melting temperature, K	uncertainty
446.62	0.61

System: quetiapine fumarate; phases: Crystal, Liquid, Air at 1 atmosphere
Property: Molar enthalpy of transition or fusion, kJ/mol (Crystal); method: DSC
Molar enthalpy of transition or fusion, kJ/mol	uncertainty
74.39	2.04

System: quetiapine fumarate + water; phases: Liquid, Crystal
Fixed: Pressure, kPa = 100
Property: Mole fraction of quetiapine fumarate (Liquid); method: gravimetric
Temperature, K	Mole fraction of quetiapine fumarate	uncertainty
283.15	4.98e-05	1.99e-05
288.15	5.57e-05	2.23e-05
293.15	6.73e-05	2.69e-05
298.15	7.39e-05	2.96e-05
303.15	7.99e-05	3.2e-05
308.15	9.31e-05	3.72e-05
313.15	0.000108	4.3e-05
318.15	0.000131	5.2e-05
323.15	0.000162	6.5e-05

System: quetiapine fumarate + methanol; phases: Liquid, Crystal
Fixed: Pressure, kPa = 100
Property: Mole fraction of quetiapine fumarate (Liquid); method: gravimetric
Temperature, K	Mole fraction of quetiapine fumarate	uncertainty
283.15	0.000388	0.000155
288.15	0.000453	0.000181
293.15	0.000545	0.000218
298.15	0.000696	0.000278
303.15	0.000879	0.000352
308.15	0.00121	0.00048
313.15	0.00163	0.00065
318.15	0.00202	0.00081
323.15	0.00245	0.00098

System: quetiapine fumarate + ethanol; phases: Liquid, Crystal
Fixed: Pressure, kPa = 100
Property: Mole fraction of quetiapine fumarate (Liquid); method: gravimetric
Temperature, K	Mole fraction of quetiapine fumarate	uncertainty
283.15	0.000191	7.6e-05
288.15	0.000244	9.8e-05
293.15	0.000325	0.00013
298.15	0.000408	0.000163
303.15	0.000502	0.000201
308.15	0.000636	0.000254
313.15	0.000838	0.000335
318.15	0.0011	0.00044
323.15	0.00135	0.00054

System: quetiapine fumarate + propan-2-ol; phases: Liquid, Crystal
Fixed: Pressure, kPa = 100
Property: Mole fraction of quetiapine fumarate (Liquid); method: gravimetric
Temperature, K	Mole fraction of quetiapine fumarate	uncertainty
283.15	0.000107	4.3e-05
288.15	0.000126	5e-05
293.15	0.000168	6.7e-05
298.15	0.000203	8.1e-05
303.15	0.000251	0.0001
308.15	0.000289	0.000116
313.15	0.00036	0.000144
318.15	0.000494	0.000198
323.15	0.000716	0.000286

System: quetiapine fumarate + butan-1-ol; phases: Liquid, Crystal
Fixed: Pressure, kPa = 100
Property: Mole fraction of quetiapine fumarate (Liquid); method: gravimetric
Temperature, K	Mole fraction of quetiapine fumarate	uncertainty
283.15	0.000154	6.2e-05
288.15	0.000216	8.6e-05
293.15	0.000292	0.000117
298.15	0.000393	0.000157
303.15	0.000502	0.000201
308.15	0.000619	0.000248
313.15	0.000792	0.000317
318.15	0.000988	0.000395
323.15	0.00118	0.00047

System: quetiapine fumarate + 2-methyl-1-propanol; phases: Liquid, Crystal
Fixed: Pressure, kPa = 100
Property: Mole fraction of quetiapine fumarate (Liquid); method: gravimetric
Temperature, K	Mole fraction of quetiapine fumarate	uncertainty
283.15	6.85e-05	2.74e-05
288.15	8.53e-05	3.41e-05
293.15	0.000119	4.8e-05
298.15	0.000162	6.5e-05
303.15	0.000204	8.2e-05
308.15	0.000251	0.0001
313.15	0.000307	0.000123
318.15	0.000395	0.000158
323.15	0.000481	0.000192

System: quetiapine fumarate + acetone; phases: Liquid, Crystal
Fixed: Pressure, kPa = 100
Property: Mole fraction of quetiapine fumarate (Liquid); method: gravimetric
Temperature, K	Mole fraction of quetiapine fumarate	uncertainty
283.15	0.000106	4.2e-05
288.15	0.000146	5.8e-05
293.15	0.000178	7.1e-05
298.15	0.000217	8.7e-05
303.15	0.000251	0.0001
308.15	0.000294	0.000118
313.15	0.000345	0.000138
318.15	0.000395	0.000158
323.15	0.000475	0.00019

System: quetiapine fumarate + ethyl acetate; phases: Liquid, Crystal
Fixed: Pressure, kPa = 100
Property: Mole fraction of quetiapine fumarate (Liquid); method: gravimetric
Temperature, K	Mole fraction of quetiapine fumarate	uncertainty
283.15	8.13e-05	3.25e-05
288.15	9.87e-05	3.95e-05
293.15	0.000142	5.7e-05
298.15	0.000176	7e-05
303.15	0.000218	8.7e-05
308.15	0.000255	0.000102
313.15	0.000306	0.000122
318.15	0.000365	0.000146
323.15	0.000411	0.000164

System: quetiapine fumarate + dimethylformamide; phases: Liquid, Crystal
Fixed: Pressure, kPa = 100
Property: Mole fraction of quetiapine fumarate (Liquid); method: gravimetric
Temperature, K	Mole fraction of quetiapine fumarate	uncertainty
283.15	0.00309	0.00124
288.15	0.00369	0.00148
293.15	0.00419	0.00168
298.15	0.00491	0.00196
303.15	0.00598	0.00239
308.15	0.00684	0.00274
313.15	0.0084	0.00336
318.15	0.0102	0.0041
323.15	0.0123	0.0049

System: quetiapine fumarate + methanol + water; phases: Liquid, Crystal
Fixed: Pressure, kPa = 100
Property: Mole fraction of quetiapine fumarate (Liquid); method: gravimetric
Temperature, K	Solvent: Mole fraction of methanol	Mole fraction of quetiapine fumarate	uncertainty
283.15	0.1	8.81e-05	3.52e-05
283.15	0.2	0.000134	5.4e-05
283.15	0.3	0.000285	0.000114
283.15	0.4	0.000464	0.000186
283.15	0.5	0.00055	0.00022
283.15	0.6	0.0006	0.00024
283.15	0.7	0.000571	0.000228
283.15	0.8	0.000481	0.000192
283.15	0.9	0.000383	0.000153
288.15	0.1	0.000106	4.2e-05
288.15	0.2	0.000202	8.1e-05
288.15	0.3	0.000408	0.000163
288.15	0.4	0.000538	0.000215
288.15	0.5	0.000704	0.000282
288.15	0.6	0.000741	0.000296
288.15	0.7	0.000713	0.000285
288.15	0.8	0.000649	0.00026
288.15	0.9	0.000563	0.000225
293.15	0.1	0.000127	5.1e-05
293.15	0.2	0.000243	9.7e-05
293.15	0.3	0.000479	0.000192
293.15	0.4	0.000665	0.000266
293.15	0.5	0.000815	0.000326
293.15	0.6	0.000874	0.00035
293.15	0.7	0.000852	0.000341
293.15	0.8	0.000779	0.000312
293.15	0.9	0.000674	0.00027
298.15	0.1	0.000184	7.4e-05
298.15	0.2	0.000314	0.000126
298.15	0.3	0.000594	0.000238
298.15	0.4	0.000898	0.000359
298.15	0.5	0.00102	0.00041
298.15	0.6	0.00111	0.00044
298.15	0.7	0.00107	0.00043
298.15	0.8	0.000972	0.000389
298.15	0.9	0.000858	0.000343
303.15	0.1	0.000162	6.5e-05
303.15	0.2	0.000342	0.000137
303.15	0.3	0.000636	0.000255
303.15	0.4	0.000964	0.000386
303.15	0.5	0.00117	0.00047
303.15	0.6	0.00122	0.00049
303.15	0.7	0.00118	0.00047
303.15	0.8	0.00111	0.00044
303.15	0.9	0.000967	0.000387
308.15	0.1	0.000208	8.3e-05
308.15	0.2	0.000424	0.00017
308.15	0.3	0.000795	0.000318
308.15	0.4	0.00119	0.00048
308.15	0.5	0.00145	0.00058
308.15	0.6	0.00152	0.00061
308.15	0.7	0.00141	0.00056
308.15	0.8	0.00133	0.00053
308.15	0.9	0.00118	0.00047
313.15	0.1	0.00025	0.0001
313.15	0.2	0.000558	0.000223
313.15	0.3	0.00104	0.00042
313.15	0.4	0.00158	0.00063
313.15	0.5	0.00187	0.00075
313.15	0.6	0.00196	0.00078
313.15	0.7	0.00179	0.00072
313.15	0.8	0.00165	0.00066
313.15	0.9	0.00144	0.00058
318.15	0.1	0.000307	0.000123
318.15	0.2	0.000734	0.000294
318.15	0.3	0.00137	0.00055
318.15	0.4	0.00204	0.00082
318.15	0.5	0.00244	0.00098
318.15	0.6	0.00258	0.00103
318.15	0.7	0.00245	0.00098
318.15	0.8	0.00219	0.00088
318.15	0.9	0.00183	0.00073
323.15	0.1	0.00039	0.000156
323.15	0.2	0.00102	0.00041
323.15	0.3	0.00201	0.0008
323.15	0.4	0.00294	0.00118
323.15	0.5	0.00344	0.00138
323.15	0.6	0.00362	0.00145
323.15	0.7	0.00332	0.00133
323.15	0.8	0.00271	0.00108
323.15	0.9	0.00223	0.00089
283.15	0	4.98e-05	1.99e-05
288.15	0	5.57e-05	2.23e-05
293.15	0	6.73e-05	2.69e-05
298.15	0	7.39e-05	2.96e-05
303.15	0	7.99e-05	3.2e-05
308.15	0	9.31e-05	3.72e-05
313.15	0	0.000108	4.3e-05
318.15	0	0.000131	5.2e-05
323.15	0	0.000162	6.5e-05
283.15	1	0.000388	0.000155
288.15	1	0.000453	0.000181
293.15	1	0.000545	0.000218
298.15	1	0.000696	0.000278
303.15	1	0.000879	0.000352
308.15	1	0.00121	0.00048
313.15	1	0.00163	0.00065
318.15	1	0.00202	0.00081
323.15	1	0.00245	0.00098

System: quetiapine fumarate + ethanol + water; phases: Liquid, Crystal
Fixed: Pressure, kPa = 100
Property: Mole fraction of quetiapine fumarate (Liquid); method: gravimetric
Temperature, K	Solvent: Mole fraction of ethanol	Mole fraction of quetiapine fumarate	uncertainty
283.15	0.1	0.000141	5.6e-05
283.15	0.2	0.000473	0.000189
283.15	0.3	0.000811	0.000325
283.15	0.4	0.000919	0.000368
283.15	0.5	0.000797	0.000319
283.15	0.6	0.000631	0.000253
283.15	0.7	0.000435	0.000174
283.15	0.8	0.000305	0.000122
283.15	0.9	0.000168	6.7e-05
288.15	0.1	0.000198	7.9e-05
288.15	0.2	0.000672	0.000269
288.15	0.3	0.00108	0.00043
288.15	0.4	0.00135	0.00054
288.15	0.5	0.00116	0.00046
288.15	0.6	0.000776	0.000311
288.15	0.7	0.000566	0.000227
288.15	0.8	0.000365	0.000146
288.15	0.9	0.000252	0.000101
293.15	0.1	0.000257	0.000103
293.15	0.2	0.000848	0.000339
293.15	0.3	0.00129	0.00052
293.15	0.4	0.0015	0.0006
293.15	0.5	0.00135	0.00054
293.15	0.6	0.00104	0.00042
293.15	0.7	0.000775	0.00031
293.15	0.8	0.000501	0.0002
293.15	0.9	0.000359	0.000144
298.15	0.1	0.00033	0.000132
298.15	0.2	0.00112	0.00045
298.15	0.3	0.00167	0.00067
298.15	0.4	0.00186	0.00074
298.15	0.5	0.0017	0.00068
298.15	0.6	0.00133	0.00053
298.15	0.7	0.000942	0.000377
298.15	0.8	0.000636	0.000254
298.15	0.9	0.000414	0.000166
303.15	0.1	0.000345	0.000138
303.15	0.2	0.00124	0.0005
303.15	0.3	0.00194	0.00078
303.15	0.4	0.00213	0.00085
303.15	0.5	0.00195	0.00078
303.15	0.6	0.00147	0.00059
303.15	0.7	0.00104	0.00042
303.15	0.8	0.000678	0.000271
303.15	0.9	0.000476	0.00019
308.15	0.1	0.000468	0.000187
308.15	0.2	0.00163	0.00065
308.15	0.3	0.00261	0.00104
308.15	0.4	0.0026	0.00104
308.15	0.5	0.00233	0.00093
308.15	0.6	0.00179	0.00072
308.15	0.7	0.00124	0.0005
308.15	0.8	0.000834	0.000334
308.15	0.9	0.000537	0.000215
313.15	0.1	0.000641	0.000257
313.15	0.2	0.00226	0.0009
313.15	0.3	0.00324	0.0013
313.15	0.4	0.00315	0.00126
313.15	0.5	0.00275	0.0011
313.15	0.6	0.00209	0.00084
313.15	0.7	0.00141	0.00056
313.15	0.8	0.000926	0.000371
313.15	0.9	0.000591	0.000236
318.15	0.1	0.000888	0.000356
318.15	0.2	0.00306	0.00122
318.15	0.3	0.00435	0.00174
318.15	0.4	0.00421	0.00168
318.15	0.5	0.00352	0.00141
318.15	0.6	0.00256	0.00102
318.15	0.7	0.00177	0.00071
318.15	0.8	0.00115	0.00046
318.15	0.9	0.000738	0.000295
323.15	0.1	0.00124	0.0005
323.15	0.2	0.00433	0.00173
323.15	0.3	0.00564	0.00226
323.15	0.4	0.00528	0.00211
323.15	0.5	0.00453	0.00181
323.15	0.6	0.00335	0.00134
323.15	0.7	0.00241	0.00096
323.15	0.8	0.00148	0.00059
323.15	0.9	0.00101	0.0004
283.15	0	4.98e-05	1.99e-05
288.15	0	5.57e-05	2.23e-05
293.15	0	6.73e-05	2.69e-05
298.15	0	7.39e-05	2.96e-05
303.15	0	7.99e-05	3.2e-05
308.15	0	9.31e-05	3.72e-05
313.15	0	0.000108	4.3e-05
318.15	0	0.000131	5.2e-05
323.15	0	0.000162	6.5e-05
283.15	1	0.000191	7.6e-05
288.15	1	0.000244	9.8e-05
293.15	1	0.000325	0.00013
298.15	1	0.000408	0.000163
303.15	1	0.000502	0.000201
308.15	1	0.000636	0.000254
313.15	1	0.000838	0.000335
318.15	1	0.0011	0.00044
323.15	1	0.00135	0.00054
