Measured thermophysical data. Apparent Molar Volume, Adiabatic Compressibility, and Critical Micelle Concentration of Flucloxacillin Sodium in Aqueous NaCl Solutions at Different Temperatures
Source: J. Chem. Eng. Data, 2016, 10.1021/acs.jced.5b00317
Compound 1: sodium (2S,5R,6R)-6-(3-(2-chloro-6-fluorophenyl)-5-methylisoxazole-4-carboxamido)-3,3-dimethyl-7-oxo-4-thia-1-azabicyclo[3.2.0]heptane-2-carboxylate, C19H16ClFN3NaO5S, InChI=1S/C19H17ClFN3O5S.Na/c1-7-10(12(23-29-7)11-8(20)5-4-6-9(11)21)15(25)22-13-16(26)24-14(18(27)28)19(2,3)30-17(13)24;/h4-6,13-14,17H,1-3H3,(H,22,25)(H,27,28);/q;+1/p-1/t13-,14+,17-;/m1./s1, purity 99%
Compound 2: sodium chloride, ClNa, InChI=1S/ClH.Na/h1H;/q;+1/p-1, purity 99.5%
Compound 3: water, H2O, InChI=1S/H2O/h1H2, purity 99.8%

System: water; phases: Liquid
Fixed: Pressure, kPa = 101
Property: Mass density, kg/m3 (Liquid); method: Vibrating tube method
Temperature, K	Mass density, kg/m3	uncertainty
298.15	997.035	1.001
303.15	995.633	1.001
308.15	994.014	1.001
313.15	992.197	1.001
318.15	990.195	1.001
323.15	988.021	1.001

System: water; phases: Liquid
Fixed: Pressure, kPa = 101
Property: Speed of sound, m/s (Liquid); method: Sing-around technique in a fixed-path interferometer
Temperature, K	Speed of sound, m/s	uncertainty
298.15	1496.98	0.76
303.15	1509.41	0.77
308.15	1520.14	0.77
313.15	1529.23	0.77
318.15	1536.77	0.78
323.15	1542.86	0.78

System: sodium (2S,5R,6R)-6-(3-(2-chloro-6-fluorophenyl)-5-methylisoxazole-4-carboxamido)-3,3-dimethyl-7-oxo-4-thia-1-azabicyclo[3.2.0]heptane-2-carboxylate + sodium chloride + water; phases: Liquid
Fixed: Pressure, kPa = 101
Property: Mass density, kg/m3 (Liquid); method: Vibrating tube method
Temperature, K	Molality, mol/kg of sodium (2S,5R,6R)-6-(3-(2-chloro-6-fluorophenyl)-5-methylisoxazole-4-carboxamido)-3,3-dimethyl-7-oxo-4-thia-1-azabicyclo[3.2.0]heptane-2-carboxylate	Solvent: Amount concentration (molarity), mol/dm3 of sodium chloride	Mass density, kg/m3	uncertainty
298.15	0	0	997.035	1.004
303.15	0	0	995.633	1.004
308.15	0	0	994.014	1.004
313.15	0	0	992.197	1.004
318.15	0	0	990.195	1.004
323.15	0	0	988.021	1.004
303.15	0.03508	0	1001.74	1.004
298.15	0.03508	0	1003.21	1.004
308.15	0.03508	0	1000.055	1.004
323.15	0.03508	0	993.877	1.004
313.15	0.03508	0	998.174	1.004
318.15	0.03508	0	996.11	1.004
298.15	0.05711	0	1007.005	1.004
308.15	0.05711	0	1003.766	1.004
323.15	0.05711	0	997.477	1.004
318.15	0.05711	0	999.746	1.004
303.15	0.05711	0	1005.492	1.004
313.15	0.05711	0	1001.846	1.004
308.15	0.07305	0	1006.387	1.004
323.15	0.07305	0	1000.019	1.004
318.15	0.07305	0	1002.313	1.004
298.15	0.07305	0	1009.683	1.004
313.15	0.07305	0	1004.44	1.004
303.15	0.07305	0	1008.141	1.004
308.15	0.09335	0	1009.671	1.004
323.15	0.09335	0	1003.204	1.004
313.15	0.09335	0	1007.691	1.004
318.15	0.09335	0	1005.531	1.004
298.15	0.09335	0	1013.038	1.004
303.15	0.09335	0	1011.46	1.004
303.15	0.11419	0	1014.804	1.004
313.15	0.11419	0	1010.968	1.004
298.15	0.11419	0	1016.416	1.004
308.15	0.11419	0	1012.982	1.004
318.15	0.11419	0	1008.775	1.004
323.15	0.11419	0	1006.417	1.004
298.15	0.13434	0	1019.68	1.005
323.15	0.13434	0	1009.525	1.004
313.15	0.13434	0	1014.137	1.004
308.15	0.13434	0	1016.183	1.004
303.15	0.13434	0	1018.038	1.004
318.15	0.13434	0	1011.913	1.004
313.15	0.14801	0	1016.289	1.004
298.15	0.14801	0	1021.891	1.005
308.15	0.14801	0	1018.354	1.004
318.15	0.14801	0	1014.047	1.004
323.15	0.14801	0	1011.641	1.004
303.15	0.14801	0	1020.229	1.005
308.15	0.16752	0	1021.426	1.005
323.15	0.16752	0	1014.637	1.004
313.15	0.16752	0	1019.335	1.005
298.15	0.16752	0	1025.016	1.005
303.15	0.16752	0	1023.328	1.005
318.15	0.16752	0	1017.068	1.004
303.15	0.18122	0	1025.459	1.005
298.15	0.18122	0	1027.164	1.005
313.15	0.18122	0	1021.432	1.005
318.15	0.18122	0	1019.148	1.004
308.15	0.18122	0	1023.54	1.005
323.15	0.18122	0	1016.699	1.004
318.15	0.02314	0.0251	995.159	1.004
323.15	0.02314	0.0251	992.942	1.004
313.15	0.02314	0.0251	997.207	1.004
298.15	0.02314	0.0251	1002.207	1.004
308.15	0.02314	0.0251	999.074	1.004
303.15	0.02314	0.0251	1000.746	1.004
298.15	0	0.0251	998.068	1.004
303.15	0	0.0251	996.654	1.004
308.15	0	0.0251	995.026	1.004
313.15	0	0.0251	993.201	1.004
318.15	0	0.0251	991.192	1.004
323.15	0	0.0251	989.012	1.004
323.15	0.0487	0.0251	997.146	1.004
318.15	0.0487	0.0251	999.402	1.004
313.15	0.0487	0.0251	1001.491	1.004
298.15	0.0487	0.0251	1006.632	1.004
308.15	0.0487	0.0251	1003.402	1.004
303.15	0.0487	0.0251	1005.121	1.004
323.15	0.05579	0.0251	998.285	1.004
313.15	0.05579	0.0251	1002.652	1.004
318.15	0.05579	0.0251	1000.551	1.004
298.15	0.05579	0.0251	1007.83	1.004
308.15	0.05579	0.0251	1004.575	1.004
303.15	0.05579	0.0251	1006.306	1.004
323.15	0.07082	0.0251	1000.67	1.004
313.15	0.07082	0.0251	1005.081	1.004
318.15	0.07082	0.0251	1002.957	1.004
298.15	0.07082	0.0251	1010.338	1.004
308.15	0.07082	0.0251	1007.029	1.004
303.15	0.07082	0.0251	1008.786	1.004
313.15	0.08281	0.0251	1006.989	1.004
323.15	0.08281	0.0251	1002.543	1.004
298.15	0.08281	0.0251	1012.307	1.004
308.15	0.08281	0.0251	1008.956	1.004
318.15	0.08281	0.0251	1004.848	1.004
303.15	0.08281	0.0251	1010.734	1.004
303.15	0.0984	0.0251	1013.221	1.004
308.15	0.0984	0.0251	1011.417	1.004
298.15	0.0984	0.0251	1014.82	1.004
318.15	0.0984	0.0251	1007.257	1.004
323.15	0.0984	0.0251	1004.929	1.004
313.15	0.0984	0.0251	1009.424	1.004
303.15	0.12511	0.0251	1017.51	1.004
308.15	0.12511	0.0251	1015.664	1.004
313.15	0.12511	0.0251	1013.631	1.004
318.15	0.12511	0.0251	1011.429	1.004
298.15	0.12511	0.0251	1019.153	1.005
323.15	0.12511	0.0251	1009.069	1.004
313.15	0.14248	0.0251	1016.328	1.004
308.15	0.14248	0.0251	1018.385	1.004
323.15	0.14248	0.0251	1011.725	1.004
318.15	0.14248	0.0251	1014.104	1.004
303.15	0.14248	0.0251	1020.257	1.005
298.15	0.14248	0.0251	1021.928	1.005
323.15	0.15416	0.0251	1013.488	1.004
313.15	0.15416	0.0251	1018.117	1.004
308.15	0.15416	0.0251	1020.189	1.005
298.15	0.15416	0.0251	1023.767	1.005
303.15	0.15416	0.0251	1022.078	1.005
318.15	0.15416	0.0251	1015.88	1.004
323.15	0.16619	0.0251	1015.294	1.004
313.15	0.16619	0.0251	1019.948	1.005
318.15	0.16619	0.0251	1017.697	1.004
298.15	0.16619	0.0251	1025.648	1.005
308.15	0.16619	0.0251	1022.035	1.005
303.15	0.16619	0.0251	1023.941	1.005
313.15	0.17241	0.0251	1020.95	1.005
298.15	0.17241	0.0251	1026.677	1.005
318.15	0.17241	0.0251	1018.691	1.004
308.15	0.17241	0.0251	1023.045	1.005
323.15	0.17241	0.0251	1016.281	1.004
303.15	0.17241	0.0251	1024.96	1.005
303.15	0.03458	0.0586	1004.125	1.004
308.15	0.03458	0.0586	1002.426	1.004
313.15	0.03458	0.0586	1000.53	1.004
318.15	0.03458	0.0586	998.448	1.004
323.15	0.03458	0.0586	996.19	1.004
298.15	0.03458	0.0586	1005.609	1.004
298.15	0.01231	0.0586	1001.677	1.004
303.15	0.01231	0.0586	1000.229	1.004
308.15	0.01231	0.0586	998.567	1.004
313.15	0.01231	0.0586	996.71	1.004
318.15	0.01231	0.0586	994.669	1.004
323.15	0.01231	0.0586	992.455	1.004
318.15	0.05003	0.0586	1000.977	1.004
323.15	0.05003	0.0586	998.69	1.004
303.15	0.05003	0.0586	1006.732	1.004
308.15	0.05003	0.0586	1005.009	1.004
298.15	0.05003	0.0586	1008.237	1.004
313.15	0.05003	0.0586	1003.087	1.004
298.15	0	0.0586	999.427	1.004
303.15	0	0.0586	997.998	1.004
308.15	0	0.0586	996.357	1.004
313.15	0	0.0586	994.523	1.004
318.15	0	0.0586	992.506	1.004
323.15	0	0.0586	990.317	1.004
308.15	0.06427	0.0586	1007.317	1.004
303.15	0.06427	0.0586	1009.059	1.004
298.15	0.06427	0.0586	1010.583	1.004
313.15	0.06427	0.0586	1005.368	1.004
318.15	0.06427	0.0586	1003.23	1.004
323.15	0.06427	0.0586	1000.913	1.004
303.15	0.07582	0.0586	1010.991	1.004
308.15	0.07582	0.0586	1009.233	1.004
313.15	0.07582	0.0586	1007.267	1.004
318.15	0.07582	0.0586	1005.109	1.004
298.15	0.07582	0.0586	1012.529	1.004
323.15	0.07582	0.0586	1002.772	1.004
303.15	0.08572	0.0586	1012.625	1.004
318.15	0.08572	0.0586	1006.696	1.004
313.15	0.08572	0.0586	1008.871	1.004
308.15	0.08572	0.0586	1010.853	1.004
298.15	0.08572	0.0586	1014.174	1.004
323.15	0.08572	0.0586	1004.34	1.004
303.15	0.0902	0.0586	1013.327	1.004
323.15	0.0902	0.0586	1005.016	1.004
318.15	0.0902	0.0586	1007.379	1.004
313.15	0.0902	0.0586	1009.561	1.004
308.15	0.0902	0.0586	1011.55	1.004
298.15	0.0902	0.0586	1014.882	1.004
308.15	0.10723	0.0586	1014.324	1.004
313.15	0.10723	0.0586	1012.31	1.004
318.15	0.10723	0.0586	1010.1	1.004
323.15	0.10723	0.0586	1007.706	1.004
298.15	0.10723	0.0586	1017.7	1.004
303.15	0.10723	0.0586	1016.124	1.004
308.15	0.12426	0.0586	1017.02	1.004
303.15	0.12426	0.0586	1018.841	1.004
323.15	0.12426	0.0586	1010.328	1.004
313.15	0.12426	0.0586	1014.982	1.004
298.15	0.12426	0.0586	1020.435	1.005
318.15	0.12426	0.0586	1012.748	1.004
323.15	0.14153	0.0586	1012.954	1.004
303.15	0.14153	0.0586	1021.565	1.005
313.15	0.14153	0.0586	1017.662	1.004
308.15	0.14153	0.0586	1019.724	1.005
318.15	0.14153	0.0586	1015.401	1.004
298.15	0.14153	0.0586	1023.178	1.005
308.15	0.14865	0.0586	1020.804	1.005
303.15	0.14865	0.0586	1022.652	1.005
298.15	0.14865	0.0586	1024.273	1.005
313.15	0.14865	0.0586	1018.733	1.004
323.15	0.14865	0.0586	1014.007	1.004
318.15	0.14865	0.0586	1016.464	1.004
298.15	0.02544	0.0586	1004.01	1.004
303.15	0.02544	0.0586	1002.54	1.004
308.15	0.02544	0.0586	1000.856	1.004
313.15	0.02544	0.0586	998.976	1.004
318.15	0.02544	0.0586	996.911	1.004
323.15	0.02544	0.0586	994.671	1.004
313.15	0.1688	0.0586	1021.784	1.005
298.15	0.1688	0.0586	1027.392	1.005
308.15	0.1688	0.0586	1023.881	1.005
303.15	0.1688	0.0586	1025.751	1.005
323.15	0.1688	0.0586	1016.999	1.004
318.15	0.1688	0.0586	1019.486	1.005
298.15	0.01696	0.1021	1004.276	1.004
303.15	0.01696	0.1021	1002.8	1.004
308.15	0.01696	0.1021	1001.111	1.004
313.15	0.01696	0.1021	999.232	1.004
318.15	0.01696	0.1021	997.171	1.004
323.15	0.01696	0.1021	994.94	1.004
308.15	0.06695	0.1021	1009.564	1.004
313.15	0.06695	0.1021	1007.594	1.004
318.15	0.06695	0.1021	1005.437	1.004
323.15	0.06695	0.1021	1003.098	1.004
298.15	0.06695	0.1021	1012.869	1.004
303.15	0.06695	0.1021	1011.326	1.004
298.15	0	0.1021	1001.162	1.004
303.15	0	0.1021	999.715	1.004
308.15	0	0.1021	998.056	1.004
313.15	0	0.1021	996.208	1.004
318.15	0	0.1021	994.181	1.004
323.15	0	0.1021	991.983	1.004
298.15	0.03778	0.1021	1007.882	1.004
303.15	0.03778	0.1021	1006.376	1.004
308.15	0.03778	0.1021	1004.653	1.004
313.15	0.03778	0.1021	1002.741	1.004
318.15	0.03778	0.1021	1000.643	1.004
323.15	0.03778	0.1021	998.366	1.004
323.15	0.081	0.1021	1005.338	1.004
318.15	0.081	0.1021	1007.703	1.004
313.15	0.081	0.1021	1009.886	1.004
298.15	0.081	0.1021	1015.221	1.004
303.15	0.081	0.1021	1013.66	1.004
308.15	0.081	0.1021	1011.877	1.004
298.15	0.02025	0.1021	1004.858	1.004
303.15	0.02025	0.1021	1003.377	1.004
308.15	0.02025	0.1021	1001.683	1.004
313.15	0.02025	0.1021	999.798	1.004
318.15	0.02025	0.1021	997.731	1.004
323.15	0.02025	0.1021	995.496	1.004
303.15	0.10051	0.1021	1016.871	1.004
313.15	0.10051	0.1021	1013.041	1.004
323.15	0.10051	0.1021	1008.423	1.004
298.15	0.10051	0.1021	1018.456	1.004
308.15	0.10051	0.1021	1015.062	1.004
318.15	0.10051	0.1021	1010.824	1.004
298.15	0.04384	0.1021	1008.913	1.004
303.15	0.04384	0.1021	1007.403	1.004
308.15	0.04384	0.1021	1005.675	1.004
313.15	0.04384	0.1021	1003.748	1.004
318.15	0.04384	0.1021	1001.634	1.004
323.15	0.04384	0.1021	999.342	1.004
318.15	0.11835	0.1021	1013.615	1.004
323.15	0.11835	0.1021	1011.183	1.004
303.15	0.11835	0.1021	1019.739	1.005
313.15	0.11835	0.1021	1015.862	1.004
298.15	0.11835	0.1021	1021.345	1.005
308.15	0.11835	0.1021	1017.908	1.004
303.15	0.13936	0.1021	1023.056	1.005
323.15	0.13936	0.1021	1014.379	1.004
313.15	0.13936	0.1021	1019.126	1.004
298.15	0.13936	0.1021	1024.686	1.005
318.15	0.13936	0.1021	1016.843	1.004
308.15	0.13936	0.1021	1021.198	1.005
298.15	0.00518	0.1021	1002.13	1.004
303.15	0.00518	0.1021	1000.675	1.004
308.15	0.00518	0.1021	999.006	1.004
313.15	0.00518	0.1021	997.148	1.004
318.15	0.00518	0.1021	995.111	1.004
323.15	0.00518	0.1021	992.902	1.004
298.15	0.02721	0.1021	1006.082	1.004
303.15	0.02721	0.1021	1004.59	1.004
308.15	0.02721	0.1021	1002.884	1.004
313.15	0.02721	0.1021	1000.99	1.004
318.15	0.02721	0.1021	998.911	1.004
323.15	0.02721	0.1021	996.66	1.004
298.15	0.00985	0.1021	1002.991	1.004
303.15	0.00985	0.1021	1001.527	1.004
308.15	0.00985	0.1021	999.85	1.004
313.15	0.00985	0.1021	997.983	1.004
318.15	0.00985	0.1021	995.936	1.004
323.15	0.00985	0.1021	993.717	1.004
298.15	0.05315	0.1021	1010.515	1.004
303.15	0.05315	0.1021	1008.99	1.004
308.15	0.05315	0.1021	1007.248	1.004
313.15	0.05315	0.1021	1005.301	1.004
318.15	0.05315	0.1021	1003.17	1.004
323.15	0.05315	0.1021	1000.858	1.004
298.15	0.05405	0.1483	1012.402	1.004
303.15	0.05405	0.1483	1010.89	1.004
308.15	0.05405	0.1483	1009.16	1.004
313.15	0.05405	0.1483	1007.224	1.004
318.15	0.05405	0.1483	1005.089	1.004
323.15	0.05405	0.1483	1002.771	1.004
298.15	0.03894	0.1483	1009.863	1.004
303.15	0.03894	0.1483	1008.357	1.004
308.15	0.03894	0.1483	1006.636	1.004
313.15	0.03894	0.1483	1004.721	1.004
318.15	0.03894	0.1483	1002.618	1.004
323.15	0.03894	0.1483	1000.335	1.004
308.15	0.0911	0.1483	1015.239	1.004
313.15	0.0911	0.1483	1013.26	1.004
318.15	0.0911	0.1483	1011.062	1.004
323.15	0.0911	0.1483	1008.673	1.004
298.15	0.0911	0.1483	1018.542	1.004
303.15	0.0911	0.1483	1017.004	1.004
298.15	0	0.1483	1002.99	1.004
303.15	0	0.1483	1001.523	1.004
308.15	0	0.1483	999.851	1.004
313.15	0	0.1483	997.991	1.004
318.15	0	0.1483	995.954	1.004
323.15	0	0.1483	993.747	1.004
298.15	0.02099	0.1483	1006.838	1.004
303.15	0.02099	0.1483	1005.347	1.004
308.15	0.02099	0.1483	1003.647	1.004
313.15	0.02099	0.1483	1001.755	1.004
318.15	0.02099	0.1483	999.68	1.004
323.15	0.02099	0.1483	997.431	1.004
318.15	0.1023	0.1483	1012.823	1.004
323.15	0.1023	0.1483	1010.414	1.004
298.15	0.1023	0.1483	1020.347	1.005
303.15	0.1023	0.1483	1018.803	1.004
313.15	0.1023	0.1483	1015.038	1.004
308.15	0.1023	0.1483	1017.029	1.004
323.15	0.1158	0.1483	1012.489	1.004
308.15	0.1158	0.1483	1019.161	1.005
298.15	0.1158	0.1483	1022.497	1.005
303.15	0.1158	0.1483	1020.946	1.005
313.15	0.1158	0.1483	1017.158	1.004
318.15	0.1158	0.1483	1014.922	1.004
323.15	0.1243	0.1483	1013.783	1.004
308.15	0.1243	0.1483	1020.491	1.005
298.15	0.1243	0.1483	1023.839	1.005
318.15	0.1243	0.1483	1016.231	1.004
303.15	0.1243	0.1483	1022.283	1.005
313.15	0.1243	0.1483	1018.481	1.004
318.15	0.13891	0.1483	1018.451	1.004
308.15	0.13891	0.1483	1022.744	1.005
303.15	0.13891	0.1483	1024.547	1.005
323.15	0.13891	0.1483	1015.978	1.004
298.15	0.13891	0.1483	1026.112	1.005
313.15	0.13891	0.1483	1020.722	1.005
298.15	0.07537	0.1483	1015.96	1.004
303.15	0.07537	0.1483	1014.432	1.004
308.15	0.07537	0.1483	1012.681	1.004
313.15	0.07537	0.1483	1010.719	1.004
318.15	0.07537	0.1483	1008.547	1.004
323.15	0.07537	0.1483	1006.187	1.004
308.15	0.1493	0.1483	1024.318	1.005
318.15	0.1493	0.1483	1020.002	1.005
313.15	0.1493	0.1483	1022.288	1.005
323.15	0.1493	0.1483	1017.511	1.004
298.15	0.1493	0.1483	1027.694	1.005
303.15	0.1493	0.1483	1026.127	1.005
303.15	0.16416	0.1483	1028.394	1.005
298.15	0.16416	0.1483	1029.968	1.005
313.15	0.16416	0.1483	1024.535	1.005
308.15	0.16416	0.1483	1026.575	1.005
323.15	0.16416	0.1483	1019.711	1.005
318.15	0.16416	0.1483	1022.228	1.005
298.15	0.02876	0.1483	1008.167	1.004
303.15	0.02876	0.1483	1006.669	1.004
308.15	0.02876	0.1483	1004.959	1.004
313.15	0.02876	0.1483	1003.061	1.004
318.15	0.02876	0.1483	1000.974	1.004
323.15	0.02876	0.1483	998.71	1.004
298.15	0.01089	0.1483	1005.027	1.004
303.15	0.01089	0.1483	1003.548	1.004
308.15	0.01089	0.1483	1001.861	1.004
313.15	0.01089	0.1483	999.982	1.004
318.15	0.01089	0.1483	997.926	1.004
323.15	0.01089	0.1483	995.697	1.004
308.15	0.1308	0.2047	1022.061	1.005
313.15	0.1308	0.2047	1020.04	1.005
318.15	0.1308	0.2047	1017.832	1.004
323.15	0.1308	0.2047	1015.442	1.004
303.15	0.1308	0.2047	1023.909	1.005
298.15	0.1308	0.2047	1025.568	1.005
298.15	0.02921	0.2047	1010.458	1.004
303.15	0.02921	0.2047	1008.918	1.004
308.15	0.02921	0.2047	1007.177	1.004
313.15	0.02921	0.2047	1005.255	1.004
318.15	0.02921	0.2047	1003.16	1.004
323.15	0.02921	0.2047	1000.898	1.004
323.15	0.14222	0.2047	1017.008	1.004
313.15	0.14222	0.2047	1021.632	1.005
318.15	0.14222	0.2047	1019.41	1.005
308.15	0.14222	0.2047	1023.663	1.005
303.15	0.14222	0.2047	1025.524	1.005
298.15	0.14222	0.2047	1027.197	1.005
298.15	0.0117	0.2047	1007.404	1.004
303.15	0.0117	0.2047	1005.894	1.004
308.15	0.0117	0.2047	1004.184	1.004
313.15	0.0117	0.2047	1002.288	1.004
318.15	0.0117	0.2047	1000.22	1.004
323.15	0.0117	0.2047	997.983	1.004
298.15	0.03987	0.2047	1012.157	1.004
303.15	0.03987	0.2047	1010.601	1.004
308.15	0.03987	0.2047	1008.845	1.004
313.15	0.03987	0.2047	1006.908	1.004
318.15	0.03987	0.2047	1004.8	1.004
323.15	0.03987	0.2047	1002.526	1.004
298.15	0.05117	0.2047	1013.825	1.004
303.15	0.05117	0.2047	1012.252	1.004
308.15	0.05117	0.2047	1010.483	1.004
313.15	0.05117	0.2047	1008.532	1.004
318.15	0.05117	0.2047	1006.41	1.004
323.15	0.05117	0.2047	1004.124	1.004
298.15	0.02011	0.2047	1008.914	1.004
303.15	0.02011	0.2047	1007.389	1.004
308.15	0.02011	0.2047	1005.665	1.004
313.15	0.02011	0.2047	1003.755	1.004
318.15	0.02011	0.2047	1001.672	1.004
323.15	0.02011	0.2047	999.422	1.004
313.15	0.15134	0.2047	1022.883	1.005
308.15	0.15134	0.2047	1024.924	1.005
303.15	0.15134	0.2047	1026.793	1.005
323.15	0.15134	0.2047	1018.244	1.004
318.15	0.15134	0.2047	1020.654	1.005
298.15	0.15134	0.2047	1028.479	1.005
298.15	0.10904	0.2047	1022.401	1.005
303.15	0.10904	0.2047	1020.764	1.005
308.15	0.10904	0.2047	1018.939	1.004
313.15	0.10904	0.2047	1016.939	1.004
318.15	0.10904	0.2047	1014.754	1.004
323.15	0.10904	0.2047	1012.392	1.004
298.15	0.06124	0.2047	1015.217	1.004
303.15	0.06124	0.2047	1013.627	1.004
308.15	0.06124	0.2047	1011.843	1.004
313.15	0.06124	0.2047	1009.88	1.004
318.15	0.06124	0.2047	1007.75	1.004
323.15	0.06124	0.2047	1005.458	1.004
298.15	0.08113	0.2047	1018.211	1.004
303.15	0.08113	0.2047	1016.608	1.004
308.15	0.08113	0.2047	1014.814	1.004
313.15	0.08113	0.2047	1012.841	1.004
318.15	0.08113	0.2047	1010.686	1.004
323.15	0.08113	0.2047	1008.356	1.004
298.15	0	0.2047	1005.194	1.004
303.15	0	0.2047	1003.704	1.004
308.15	0	0.2047	1002.014	1.004
313.15	0	0.2047	1000.138	1.004
318.15	0	0.2047	998.089	1.004
323.15	0	0.2047	995.872	1.004
298.15	0.06815	0.2543	1017.632	1.004
303.15	0.06815	0.2543	1016.014	1.004
308.15	0.06815	0.2543	1014.196	1.004
313.15	0.06815	0.2543	1012.19	1.004
318.15	0.06815	0.2543	1010.01	1.004
323.15	0.06815	0.2543	1007.656	1.004
298.15	0.02115	0.2543	1011.028	1.004
303.15	0.02115	0.2543	1009.479	1.004
308.15	0.02115	0.2543	1007.733	1.004
313.15	0.02115	0.2543	1005.803	1.004
318.15	0.02115	0.2543	1003.703	1.004
323.15	0.02115	0.2543	1001.432	1.004
298.15	0.03095	0.2543	1012.652	1.004
303.15	0.03095	0.2543	1011.086	1.004
308.15	0.03095	0.2543	1009.323	1.004
313.15	0.03095	0.2543	1007.376	1.004
318.15	0.03095	0.2543	1005.258	1.004
323.15	0.03095	0.2543	1002.969	1.004
298.15	0.13373	0.2543	1025.617	1.005
303.15	0.13373	0.2543	1023.958	1.005
308.15	0.13373	0.2543	1022.093	1.005
313.15	0.13373	0.2543	1020.034	1.005
318.15	0.13373	0.2543	1017.796	1.004
323.15	0.13373	0.2543	1015.307	1.004
303.15	0.15065	0.2543	1026.049	1.005
308.15	0.15065	0.2543	1024.167	1.005
313.15	0.15065	0.2543	1022.091	1.005
318.15	0.15065	0.2543	1019.834	1.005
298.15	0.15065	0.2543	1027.722	1.005
323.15	0.15065	0.2543	1017.317	1.004
298.15	0	0.2543	1007.115	1.004
303.15	0	0.2543	1005.605	1.004
308.15	0	0.2543	1003.899	1.004
313.15	0	0.2543	1002.01	1.004
318.15	0	0.2543	999.952	1.004
323.15	0	0.2543	997.725	1.004
298.15	0.05263	0.2543	1015.779	1.004
303.15	0.05263	0.2543	1014.182	1.004
308.15	0.05263	0.2543	1012.386	1.004
313.15	0.05263	0.2543	1010.403	1.004
318.15	0.05263	0.2543	1008.249	1.004
323.15	0.05263	0.2543	1005.923	1.004
298.15	0.10204	0.2543	1021.525	1.005
303.15	0.10204	0.2543	1019.897	1.005
308.15	0.10204	0.2543	1018.064	1.004
313.15	0.10204	0.2543	1016.041	1.004
318.15	0.10204	0.2543	1013.84	1.004
323.15	0.10204	0.2543	1011.408	1.004
298.15	0.075	0.2543	1018.322	1.004
303.15	0.075	0.2543	1016.697	1.004
308.15	0.075	0.2543	1014.87	1.004
313.15	0.075	0.2543	1012.855	1.004
318.15	0.075	0.2543	1010.666	1.004
323.15	0.075	0.2543	1008.303	1.004
298.15	0.03661	0.2543	1014.061	1.004
303.15	0.03661	0.2543	1012.48	1.004
308.15	0.03661	0.2543	1010.701	1.004
313.15	0.03661	0.2543	1008.737	1.004
318.15	0.03661	0.2543	1006.6	1.004
323.15	0.03661	0.2543	1004.293	1.004
298.15	0.12102	0.2543	1024	1.005
303.15	0.12102	0.2543	1022.353	1.005
308.15	0.12102	0.2543	1020.501	1.005
313.15	0.12102	0.2543	1018.456	1.004
318.15	0.12102	0.2543	1016.232	1.004
323.15	0.12102	0.2543	1013.766	1.004
298.15	0.01246	0.2543	1009.509	1.004
303.15	0.01246	0.2543	1007.975	1.004
308.15	0.01246	0.2543	1006.244	1.004
313.15	0.01246	0.2543	1004.329	1.004
318.15	0.01246	0.2543	1002.245	1.004
323.15	0.01246	0.2543	999.991	1.004
298.15	0.08635	0.2543	1019.447	1.005
303.15	0.08635	0.2543	1017.834	1.004
308.15	0.08635	0.2543	1016.018	1.004
313.15	0.08635	0.2543	1014.013	1.004
318.15	0.08635	0.2543	1011.831	1.004
323.15	0.08635	0.2543	1009.428	1.004

System: sodium (2S,5R,6R)-6-(3-(2-chloro-6-fluorophenyl)-5-methylisoxazole-4-carboxamido)-3,3-dimethyl-7-oxo-4-thia-1-azabicyclo[3.2.0]heptane-2-carboxylate + sodium chloride + water; phases: Liquid
Fixed: Pressure, kPa = 101
Property: Speed of sound, m/s (Liquid); method: Sing-around technique in a fixed-path interferometer
Temperature, K	Solvent: Amount concentration (molarity), mol/dm3 of sodium chloride	Molality, mol/kg of sodium (2S,5R,6R)-6-(3-(2-chloro-6-fluorophenyl)-5-methylisoxazole-4-carboxamido)-3,3-dimethyl-7-oxo-4-thia-1-azabicyclo[3.2.0]heptane-2-carboxylate	Speed of sound, m/s	uncertainty
298.15	0	0	1496.98	0.93
298.15	0	0.03508	1502.99	0.93
298.15	0	0.05711	1506.38	0.93
298.15	0	0.07305	1508.61	0.93
298.15	0	0.09335	1511.24	0.93
298.15	0	0.11419	1513.65	0.93
298.15	0	0.13434	1515.81	0.93
298.15	0	0.14801	1517.2	0.93
298.15	0	0.16752	1518.92	0.93
298.15	0	0.18122	1520.06	0.93
303.15	0	0	1509.41	0.93
303.15	0	0.03508	1514.78	0.93
303.15	0	0.05711	1517.82	0.93
303.15	0	0.07305	1519.87	0.93
303.15	0	0.09335	1522.21	0.94
303.15	0	0.11419	1524.41	0.94
303.15	0	0.13434	1526.39	0.94
303.15	0	0.14801	1527.61	0.94
303.15	0	0.16752	1529.21	0.94
303.15	0	0.18122	1530.21	0.94
308.15	0	0	1520.14	0.94
308.15	0	0.03508	1524.93	0.94
308.15	0	0.05711	1527.64	0.94
308.15	0	0.07305	1529.45	0.94
308.15	0	0.09335	1531.56	0.94
308.15	0	0.11419	1533.52	0.94
308.15	0	0.13434	1535.26	0.94
308.15	0	0.14801	1536.4	0.94
308.15	0	0.16752	1537.75	0.94
308.15	0	0.18122	1538.69	0.94
313.15	0	0	1529.23	0.94
313.15	0	0.03508	1533.46	0.94
313.15	0	0.05711	1535.86	0.94
313.15	0	0.07305	1537.48	0.94
313.15	0	0.09335	1539.37	0.94
313.15	0	0.11419	1541.12	0.94
313.15	0	0.13434	1542.68	0.94
313.15	0	0.14801	1543.65	0.94
313.15	0	0.16752	1544.93	0.94
313.15	0	0.18122	1545.7	0.94
318.15	0	0	1536.77	0.94
318.15	0	0.03508	1540.5	0.94
318.15	0	0.05711	1542.62	0.94
318.15	0	0.07305	1544.06	0.94
318.15	0	0.09335	1545.71	0.94
318.15	0	0.11419	1547.3	0.94
318.15	0	0.13434	1548.68	0.94
318.15	0	0.14801	1549.54	0.94
318.15	0	0.16752	1550.62	0.94
318.15	0	0.18122	1551.4	0.94
323.15	0	0	1542.86	0.94
323.15	0	0.03508	1546.11	0.94
323.15	0	0.05711	1547.97	0.94
323.15	0	0.07305	1549.23	0.94
323.15	0	0.09335	1550.7	0.94
323.15	0	0.11419	1552.07	0.94
323.15	0	0.13434	1553.29	0.95
323.15	0	0.14801	1554.04	0.95
323.15	0	0.16752	1555	0.95
323.15	0	0.18122	1555.68	0.95
298.15	0.0251	0	1498.87	0.93
298.15	0.0251	0.02314	1502.97	0.93
298.15	0.0251	0.0487	1506.97	0.93
298.15	0.0251	0.05579	1507.98	0.93
298.15	0.0251	0.07082	1509.97	0.93
298.15	0.0251	0.08281	1511.44	0.93
298.15	0.0251	0.0984	1513.38	0.93
298.15	0.0251	0.12511	1516.17	0.93
298.15	0.0251	0.14248	1517.71	0.93
298.15	0.0251	0.15416	1518.63	0.93
298.15	0.0251	0.16619	1519.48	0.93
298.15	0.0251	0.17241	1519.9	0.93
303.15	0.0251	0	1511.26	0.93
303.15	0.0251	0.02314	1514.92	0.93
303.15	0.0251	0.0487	1518.5	0.93
303.15	0.0251	0.05579	1519.4	0.93
303.15	0.0251	0.07082	1521.2	0.94
303.15	0.0251	0.08281	1522.54	0.94
303.15	0.0251	0.0984	1524.28	0.94
303.15	0.0251	0.12511	1526.76	0.94
303.15	0.0251	0.14248	1528.13	0.94
303.15	0.0251	0.15416	1528.94	0.94
303.15	0.0251	0.16619	1529.69	0.94
303.15	0.0251	0.17241	1530.06	0.94
308.15	0.0251	0	1521.94	0.94
308.15	0.0251	0.02314	1525.19	0.94
308.15	0.0251	0.0487	1528.36	0.94
308.15	0.0251	0.05579	1529.17	0.94
308.15	0.0251	0.07082	1530.76	0.94
308.15	0.0251	0.08281	1531.95	0.94
308.15	0.0251	0.0984	1533.49	0.94
308.15	0.0251	0.12511	1535.67	0.94
308.15	0.0251	0.14248	1536.85	0.94
308.15	0.0251	0.15416	1537.56	0.94
308.15	0.0251	0.16619	1538.19	0.94
308.15	0.0251	0.17241	1538.51	0.94
313.15	0.0251	0	1530.99	0.94
313.15	0.0251	0.02314	1533.85	0.94
313.15	0.0251	0.0487	1536.66	0.94
313.15	0.0251	0.05579	1537.37	0.94
313.15	0.0251	0.07082	1538.78	0.94
313.15	0.0251	0.08281	1539.82	0.94
313.15	0.0251	0.0984	1541.19	0.94
313.15	0.0251	0.12511	1543.07	0.94
313.15	0.0251	0.14248	1544.09	0.94
313.15	0.0251	0.15416	1544.69	0.94
313.15	0.0251	0.16619	1545.22	0.94
313.15	0.0251	0.17241	1545.48	0.94
318.15	0.0251	0	1538.5	0.94
318.15	0.0251	0.02314	1541.02	0.94
318.15	0.0251	0.0487	1543.48	0.94
318.15	0.0251	0.05579	1544.1	0.94
318.15	0.0251	0.07082	1545.34	0.94
318.15	0.0251	0.08281	1546.24	0.94
318.15	0.0251	0.0984	1547.44	0.94
318.15	0.0251	0.12511	1549.07	0.94
318.15	0.0251	0.14248	1549.94	0.94
318.15	0.0251	0.15416	1550.45	0.94
318.15	0.0251	0.16619	1550.9	0.94
318.15	0.0251	0.17241	1551.12	0.94
323.15	0.0251	0	1544.56	0.94
323.15	0.0251	0.02314	1546.75	0.94
323.15	0.0251	0.0487	1548.88	0.94
323.15	0.0251	0.05579	1549.42	0.94
323.15	0.0251	0.07082	1550.48	0.94
323.15	0.0251	0.08281	1551.25	0.94
323.15	0.0251	0.0984	1552.3	0.94
323.15	0.0251	0.12511	1553.68	0.95
323.15	0.0251	0.14248	1554.41	0.95
323.15	0.0251	0.15416	1554.83	0.95
323.15	0.0251	0.16619	1555.19	0.95
323.15	0.0251	0.17241	1555.37	0.95
298.15	0.0586	0	1501.1	0.93
298.15	0.0586	0.01231	1503.39	0.93
298.15	0.0586	0.02544	1505.65	0.93
298.15	0.0586	0.03458	1507.1	0.93
298.15	0.0586	0.05003	1509.35	0.93
298.15	0.0586	0.06427	1511.4	0.93
298.15	0.0586	0.07582	1512.9	0.93
298.15	0.0586	0.08572	1514.11	0.93
298.15	0.0586	0.0902	1514.65	0.93
298.15	0.0586	0.10723	1516.46	0.93
298.15	0.0586	0.12426	1518.07	0.93
298.15	0.0586	0.14153	1519.44	0.93
298.15	0.0586	0.14865	1519.96	0.93
298.15	0.0586	0.1688	1521.15	0.94
303.15	0.0586	0	1513.43	0.93
303.15	0.0586	0.01231	1515.45	0.93
303.15	0.0586	0.02544	1517.46	0.93
303.15	0.0586	0.03458	1518.75	0.93
303.15	0.0586	0.05003	1520.74	0.94
303.15	0.0586	0.06427	1522.59	0.94
303.15	0.0586	0.07582	1523.92	0.94
303.15	0.0586	0.08572	1524.99	0.94
303.15	0.0586	0.0902	1525.47	0.94
303.15	0.0586	0.10723	1527.07	0.94
303.15	0.0586	0.12426	1528.49	0.94
303.15	0.0586	0.14153	1529.7	0.94
303.15	0.0586	0.14865	1530.16	0.94
303.15	0.0586	0.1688	1531.22	0.94
308.15	0.0586	0	1524.03	0.94
308.15	0.0586	0.01231	1525.81	0.94
308.15	0.0586	0.02544	1527.58	0.94
308.15	0.0586	0.03458	1528.71	0.94
308.15	0.0586	0.05003	1530.47	0.94
308.15	0.0586	0.06427	1532.12	0.94
308.15	0.0586	0.07582	1533.28	0.94
308.15	0.0586	0.08572	1534.22	0.94
308.15	0.0586	0.0902	1534.65	0.94
308.15	0.0586	0.10723	1536.04	0.94
308.15	0.0586	0.12426	1537.28	0.94
308.15	0.0586	0.14153	1538.32	0.94
308.15	0.0586	0.14865	1538.72	0.94
308.15	0.0586	0.1688	1539.62	0.94
313.15	0.0586	0	1533.02	0.94
313.15	0.0586	0.01231	1534.59	0.94
313.15	0.0586	0.02544	1536.14	0.94
313.15	0.0586	0.03458	1537.14	0.94
313.15	0.0586	0.05003	1538.68	0.94
313.15	0.0586	0.06427	1540.12	0.94
313.15	0.0586	0.07582	1541.11	0.94
313.15	0.0586	0.08572	1541.9	0.94
313.15	0.0586	0.0902	1542.26	0.94
313.15	0.0586	0.10723	1543.41	0.94
313.15	0.0586	0.12426	1544.41	0.94
313.15	0.0586	0.14153	1545.22	0.94
313.15	0.0586	0.14865	1545.52	0.94
313.15	0.0586	0.1688	1546.15	0.94
318.15	0.0586	0	1540.48	0.94
318.15	0.0586	0.01231	1541.86	0.94
318.15	0.0586	0.02544	1543.23	0.94
318.15	0.0586	0.03458	1544.1	0.94
318.15	0.0586	0.05003	1545.45	0.94
318.15	0.0586	0.06427	1546.69	0.94
318.15	0.0586	0.07582	1547.53	0.94
318.15	0.0586	0.08572	1548.19	0.94
318.15	0.0586	0.0902	1548.5	0.94
318.15	0.0586	0.10723	1549.43	0.94
318.15	0.0586	0.12426	1550.21	0.94
318.15	0.0586	0.14153	1550.82	0.94
318.15	0.0586	0.14865	1551.03	0.94
318.15	0.0586	0.1688	1551.44	0.94
323.15	0.0586	0	1546.5	0.94
323.15	0.0586	0.01231	1547.71	0.94
323.15	0.0586	0.02544	1548.9	0.94
323.15	0.0586	0.03458	1549.66	0.94
323.15	0.0586	0.05003	1550.82	0.94
323.15	0.0586	0.06427	1551.89	0.94
323.15	0.0586	0.07582	1552.59	0.95
323.15	0.0586	0.08572	1553.15	0.95
323.15	0.0586	0.0902	1553.4	0.95
323.15	0.0586	0.10723	1554.15	0.95
323.15	0.0586	0.12426	1554.75	0.95
323.15	0.0586	0.14153	1555.18	0.95
323.15	0.0586	0.14865	1555.33	0.95
323.15	0.0586	0.1688	1555.56	0.95
298.15	0.1021	0	1503.82	0.93
298.15	0.1021	0.00518	1504.84	0.93
298.15	0.1021	0.00985	1505.73	0.93
298.15	0.1021	0.01696	1507.04	0.93
298.15	0.1021	0.02025	1507.62	0.93
298.15	0.1021	0.02721	1508.78	0.93
298.15	0.1021	0.03778	1510.44	0.93
298.15	0.1021	0.04384	1511.36	0.93
298.15	0.1021	0.05315	1512.76	0.93
298.15	0.1021	0.06695	1514.71	0.93
298.15	0.1021	0.081	1516.54	0.93
298.15	0.1021	0.10051	1518.78	0.93
298.15	0.1021	0.11835	1520.58	0.94
298.15	0.1021	0.13936	1522.33	0.94
303.15	0.1021	0	1516.05	0.93
303.15	0.1021	0.00518	1516.95	0.93
303.15	0.1021	0.00985	1517.73	0.93
303.15	0.1021	0.01696	1518.89	0.93
303.15	0.1021	0.02025	1519.4	0.93
303.15	0.1021	0.02721	1520.43	0.94
303.15	0.1021	0.03778	1521.9	0.94
303.15	0.1021	0.04384	1522.73	0.94
303.15	0.1021	0.05315	1523.99	0.94
303.15	0.1021	0.06695	1525.72	0.94
303.15	0.1021	0.081	1527.37	0.94
303.15	0.1021	0.10051	1529.38	0.94
303.15	0.1021	0.11835	1531	0.94
303.15	0.1021	0.13936	1532.6	0.94
308.15	0.1021	0	1526.54	0.94
308.15	0.1021	0.00518	1527.33	0.94
308.15	0.1021	0.00985	1528.02	0.94
308.15	0.1021	0.01696	1529.03	0.94
308.15	0.1021	0.02025	1529.48	0.94
308.15	0.1021	0.02721	1530.38	0.94
308.15	0.1021	0.03778	1531.67	0.94
308.15	0.1021	0.04384	1532.43	0.94
308.15	0.1021	0.05315	1533.54	0.94
308.15	0.1021	0.06695	1535.06	0.94
308.15	0.1021	0.081	1536.52	0.94
308.15	0.1021	0.10051	1538.3	0.94
308.15	0.1021	0.11835	1539.74	0.94
308.15	0.1021	0.13936	1541.17	0.94
313.15	0.1021	0	1535.45	0.94
313.15	0.1021	0.00518	1536.15	0.94
313.15	0.1021	0.00985	1536.75	0.94
313.15	0.1021	0.01696	1537.64	0.94
313.15	0.1021	0.02025	1538.04	0.94
313.15	0.1021	0.02721	1538.83	0.94
313.15	0.1021	0.03778	1539.97	0.94
313.15	0.1021	0.04384	1540.64	0.94
313.15	0.1021	0.05315	1541.61	0.94
313.15	0.1021	0.06695	1542.94	0.94
313.15	0.1021	0.081	1544.2	0.94
313.15	0.1021	0.10051	1545.71	0.94
313.15	0.1021	0.11835	1546.93	0.94
313.15	0.1021	0.13936	1548.1	0.94
318.15	0.1021	0	1542.85	0.94
318.15	0.1021	0.00518	1543.46	0.94
318.15	0.1021	0.00985	1544	0.94
318.15	0.1021	0.01696	1544.78	0.94
318.15	0.1021	0.02025	1545.13	0.94
318.15	0.1021	0.02721	1545.82	0.94
318.15	0.1021	0.03778	1546.82	0.94
318.15	0.1021	0.04384	1547.39	0.94
318.15	0.1021	0.05315	1548.23	0.94
318.15	0.1021	0.06695	1549.35	0.94
318.15	0.1021	0.081	1550.4	0.94
318.15	0.1021	0.10051	1551.63	0.94
318.15	0.1021	0.11835	1552.58	0.95
318.15	0.1021	0.13936	1553.46	0.95
323.15	0.1021	0	1548.81	0.94
323.15	0.1021	0.00518	1549.35	0.94
323.15	0.1021	0.00985	1549.82	0.94
323.15	0.1021	0.01696	1550.5	0.94
323.15	0.1021	0.02025	1550.8	0.94
323.15	0.1021	0.02721	1551.41	0.94
323.15	0.1021	0.03778	1552.28	0.94
323.15	0.1021	0.04384	1552.76	0.95
323.15	0.1021	0.05315	1553.48	0.95
323.15	0.1021	0.06695	1554.42	0.95
323.15	0.1021	0.081	1555.28	0.95
323.15	0.1021	0.10051	1556.26	0.95
323.15	0.1021	0.11835	1556.99	0.95
323.15	0.1021	0.13936	1557.6	0.95
298.15	0.1483	0	1506.43	0.93
298.15	0.1483	0.01089	1508.64	0.93
298.15	0.1483	0.02099	1510.5	0.93
298.15	0.1483	0.02876	1511.84	0.93
298.15	0.1483	0.03894	1513.39	0.93
298.15	0.1483	0.05405	1515.69	0.93
298.15	0.1483	0.07537	1518.72	0.93
298.15	0.1483	0.0911	1520.71	0.94
298.15	0.1483	0.1023	1522.01	0.94
298.15	0.1483	0.1158	1523.44	0.94
298.15	0.1483	0.1243	1524.26	0.94
298.15	0.1483	0.13891	1525.53	0.94
298.15	0.1483	0.1493	1526.34	0.94
298.15	0.1483	0.16416	1527.28	0.94
303.15	0.1483	0	1518.55	0.93
303.15	0.1483	0.01089	1520.48	0.94
303.15	0.1483	0.02099	1522.11	0.94
303.15	0.1483	0.02876	1523.29	0.94
303.15	0.1483	0.03894	1524.65	0.94
303.15	0.1483	0.05405	1526.73	0.94
303.15	0.1483	0.07537	1529.44	0.94
303.15	0.1483	0.0911	1531.24	0.94
303.15	0.1483	0.1023	1532.42	0.94
303.15	0.1483	0.1158	1533.72	0.94
303.15	0.1483	0.1243	1534.48	0.94
303.15	0.1483	0.13891	1535.66	0.94
303.15	0.1483	0.1493	1536.43	0.94
303.15	0.1483	0.16416	1537.33	0.94
308.15	0.1483	0	1528.93	0.94
308.15	0.1483	0.01089	1530.61	0.94
308.15	0.1483	0.02099	1532.03	0.94
308.15	0.1483	0.02876	1533.05	0.94
308.15	0.1483	0.03894	1534.24	0.94
308.15	0.1483	0.05405	1536.07	0.94
308.15	0.1483	0.07537	1538.45	0.94
308.15	0.1483	0.0911	1540.01	0.94
308.15	0.1483	0.1023	1541.05	0.94
308.15	0.1483	0.1158	1542.19	0.94
308.15	0.1483	0.1243	1542.85	0.94
308.15	0.1483	0.13891	1543.89	0.94
308.15	0.1483	0.1493	1544.56	0.94
308.15	0.1483	0.16416	1545.35	0.94
313.15	0.1483	0	1537.76	0.94
313.15	0.1483	0.01089	1539.24	0.94
313.15	0.1483	0.02099	1540.48	0.94
313.15	0.1483	0.02876	1541.37	0.94
313.15	0.1483	0.03894	1542.42	0.94
313.15	0.1483	0.05405	1544.04	0.94
313.15	0.1483	0.07537	1546.11	0.94
313.15	0.1483	0.0911	1547.47	0.94
313.15	0.1483	0.1023	1548.36	0.94
313.15	0.1483	0.1158	1549.34	0.94
313.15	0.1483	0.1243	1549.9	0.94
313.15	0.1483	0.13891	1550.79	0.94
313.15	0.1483	0.1493	1551.36	0.94
313.15	0.1483	0.16416	1552.01	0.94
318.15	0.1483	0	1545.09	0.94
318.15	0.1483	0.01089	1546.38	0.94
318.15	0.1483	0.02099	1547.47	0.94
318.15	0.1483	0.02876	1548.26	0.94
318.15	0.1483	0.03894	1549.16	0.94
318.15	0.1483	0.05405	1550.55	0.94
318.15	0.1483	0.07537	1552.3	0.94
318.15	0.1483	0.0911	1553.42	0.95
318.15	0.1483	0.1023	1554.15	0.95
318.15	0.1483	0.1158	1554.93	0.95
318.15	0.1483	0.1243	1555.37	0.95
318.15	0.1483	0.13891	1556.04	0.95
318.15	0.1483	0.1493	1556.46	0.95
318.15	0.1483	0.16416	1556.9	0.95
323.15	0.1483	0	1550.98	0.94
323.15	0.1483	0.01089	1552.12	0.94
323.15	0.1483	0.02099	1553.07	0.95
323.15	0.1483	0.02876	1553.75	0.95
323.15	0.1483	0.03894	1554.53	0.95
323.15	0.1483	0.05405	1555.69	0.95
323.15	0.1483	0.07537	1557.15	0.95
323.15	0.1483	0.0911	1558.06	0.95
323.15	0.1483	0.1023	1558.63	0.95
323.15	0.1483	0.1158	1559.24	0.95
323.15	0.1483	0.1243	1559.56	0.95
323.15	0.1483	0.13891	1560.04	0.95
323.15	0.1483	0.1493	1560.33	0.95
323.15	0.1483	0.16416	1560.58	0.95
298.15	0.2047	0	1509.42	0.93
298.15	0.2047	0.0117	1511.9	0.93
298.15	0.2047	0.02011	1513.5	0.93
298.15	0.2047	0.02921	1515.08	0.93
298.15	0.2047	0.03987	1516.72	0.93
298.15	0.2047	0.05117	1518.22	0.93
298.15	0.2047	0.06124	1519.29	0.93
298.15	0.2047	0.08113	1521.71	0.94
298.15	0.2047	0.10904	1524.79	0.94
298.15	0.2047	0.1308	1526.78	0.94
298.15	0.2047	0.14222	1527.67	0.94
298.15	0.2047	0.15134	1528.31	0.94
303.15	0.2047	0	1521.4	0.94
303.15	0.2047	0.0117	1523.57	0.94
303.15	0.2047	0.02011	1524.98	0.94
303.15	0.2047	0.02921	1526.38	0.94
303.15	0.2047	0.03987	1527.84	0.94
303.15	0.2047	0.05117	1529.19	0.94
303.15	0.2047	0.06124	1530.18	0.94
303.15	0.2047	0.08113	1532.46	0.94
303.15	0.2047	0.10904	1535.3	0.94
303.15	0.2047	0.1308	1537.16	0.94
303.15	0.2047	0.14222	1538.01	0.94
303.15	0.2047	0.15134	1538.63	0.94
308.15	0.2047	0	1531.63	0.94
308.15	0.2047	0.0117	1533.52	0.94
308.15	0.2047	0.02011	1534.75	0.94
308.15	0.2047	0.02921	1535.97	0.94
308.15	0.2047	0.03987	1537.24	0.94
308.15	0.2047	0.05117	1538.43	0.94
308.15	0.2047	0.06124	1539.29	0.94
308.15	0.2047	0.08113	1541.38	0.94
308.15	0.2047	0.10904	1543.91	0.94
308.15	0.2047	0.1308	1545.58	0.94
308.15	0.2047	0.14222	1546.36	0.94
308.15	0.2047	0.15134	1546.93	0.94
313.15	0.2047	0	1540.35	0.94
313.15	0.2047	0.0117	1542.02	0.94
313.15	0.2047	0.02011	1543.1	0.94
313.15	0.2047	0.02921	1544.18	0.94
313.15	0.2047	0.03987	1545.3	0.94
313.15	0.2047	0.05117	1546.35	0.94
313.15	0.2047	0.06124	1547.13	0.94
313.15	0.2047	0.08113	1549.06	0.94
313.15	0.2047	0.10904	1551.36	0.94
313.15	0.2047	0.1308	1552.91	0.95
313.15	0.2047	0.14222	1553.64	0.95
313.15	0.2047	0.15134	1554.18	0.95
318.15	0.2047	0	1547.58	0.94
318.15	0.2047	0.0117	1549.05	0.94
318.15	0.2047	0.02011	1549.99	0.94
318.15	0.2047	0.02921	1550.94	0.94
318.15	0.2047	0.03987	1551.91	0.94
318.15	0.2047	0.05117	1552.83	0.95
318.15	0.2047	0.06124	1553.49	0.95
318.15	0.2047	0.08113	1555.18	0.95
318.15	0.2047	0.10904	1557.18	0.95
318.15	0.2047	0.1308	1558.52	0.95
318.15	0.2047	0.14222	1559.16	0.95
318.15	0.2047	0.15134	1559.62	0.95
323.15	0.2047	0	1553.4	0.95
323.15	0.2047	0.0117	1554.69	0.95
323.15	0.2047	0.02011	1555.51	0.95
323.15	0.2047	0.02921	1556.33	0.95
323.15	0.2047	0.03987	1557.16	0.95
323.15	0.2047	0.05117	1557.94	0.95
323.15	0.2047	0.06124	1558.48	0.95
323.15	0.2047	0.08113	1559.86	0.95
323.15	0.2047	0.10904	1561.49	0.95
323.15	0.2047	0.1308	1562.55	0.95
323.15	0.2047	0.14222	1563.04	0.95
323.15	0.2047	0.15134	1563.4	0.95
298.15	0.2543	0	1511.76	0.93
298.15	0.2543	0.01246	1514.49	0.93
298.15	0.2543	0.02115	1516.2	0.93
298.15	0.2543	0.03095	1517.9	0.93
298.15	0.2543	0.03661	1519.3	0.93
298.15	0.2543	0.05263	1520.88	0.94
298.15	0.2543	0.06815	1522.37	0.94
298.15	0.2543	0.075	1522.88	0.94
298.15	0.2543	0.08635	1523.48	0.94
298.15	0.2543	0.10204	1525.04	0.94
298.15	0.2543	0.12102	1526.65	0.94
298.15	0.2543	0.13373	1527.59	0.94
298.15	0.2543	0.15065	1528.65	0.94
303.15	0.2543	0	1523.6	0.94
303.15	0.2543	0.01246	1525.98	0.94
303.15	0.2543	0.02115	1527.49	0.94
303.15	0.2543	0.03095	1528.99	0.94
303.15	0.2543	0.03661	1530.25	0.94
303.15	0.2543	0.05263	1531.68	0.94
303.15	0.2543	0.06815	1533.09	0.94
303.15	0.2543	0.075	1533.59	0.94
303.15	0.2543	0.08635	1534.31	0.94
303.15	0.2543	0.10204	1535.78	0.94
303.15	0.2543	0.12102	1537.31	0.94
303.15	0.2543	0.13373	1538.22	0.94
303.15	0.2543	0.15065	1539.27	0.94
308.15	0.2543	0	1533.69	0.94
308.15	0.2543	0.01246	1535.75	0.94
308.15	0.2543	0.02115	1537.07	0.94
308.15	0.2543	0.03095	1538.38	0.94
308.15	0.2543	0.03661	1539.48	0.94
308.15	0.2543	0.05263	1540.74	0.94
308.15	0.2543	0.06815	1542	0.94
308.15	0.2543	0.075	1542.46	0.94
308.15	0.2543	0.08635	1543.21	0.94
308.15	0.2543	0.10204	1544.54	0.94
308.15	0.2543	0.12102	1545.94	0.94
308.15	0.2543	0.13373	1546.78	0.94
308.15	0.2543	0.15065	1547.77	0.94
313.15	0.2543	0	1542.29	0.94
313.15	0.2543	0.01246	1544.12	0.94
313.15	0.2543	0.02115	1545.29	0.94
313.15	0.2543	0.03095	1546.45	0.94
313.15	0.2543	0.03661	1547.44	0.94
313.15	0.2543	0.05263	1548.57	0.94
313.15	0.2543	0.06815	1549.71	0.94
313.15	0.2543	0.075	1550.14	0.94
313.15	0.2543	0.08635	1550.95	0.94
313.15	0.2543	0.10204	1552.21	0.94
313.15	0.2543	0.12102	1553.56	0.95
313.15	0.2543	0.13373	1554.4	0.95
313.15	0.2543	0.15065	1555.4	0.95
318.15	0.2543	0	1549.44	0.94
318.15	0.2543	0.01246	1551.06	0.94
318.15	0.2543	0.02115	1552.09	0.94
318.15	0.2543	0.03095	1553.11	0.95
318.15	0.2543	0.03661	1553.99	0.95
318.15	0.2543	0.05263	1554.98	0.95
318.15	0.2543	0.06815	1555.99	0.95
318.15	0.2543	0.075	1556.37	0.95
318.15	0.2543	0.08635	1557.16	0.95
318.15	0.2543	0.10204	1558.32	0.95
318.15	0.2543	0.12102	1559.57	0.95
318.15	0.2543	0.13373	1560.36	0.95
318.15	0.2543	0.15065	1561.32	0.95
323.15	0.2543	0	1555.18	0.95
323.15	0.2543	0.01246	1556.62	0.95
323.15	0.2543	0.02115	1557.53	0.95
323.15	0.2543	0.03095	1558.43	0.95
323.15	0.2543	0.03661	1559.19	0.95
323.15	0.2543	0.05263	1560.04	0.95
323.15	0.2543	0.06815	1560.9	0.95
323.15	0.2543	0.075	1561.23	0.95
323.15	0.2543	0.08635	1561.84	0.95
323.15	0.2543	0.10204	1562.83	0.95
323.15	0.2543	0.12102	1563.91	0.95
323.15	0.2543	0.13373	1564.58	0.95
323.15	0.2543	0.15065	1565.39	0.95

System: sodium (2S,5R,6R)-6-(3-(2-chloro-6-fluorophenyl)-5-methylisoxazole-4-carboxamido)-3,3-dimethyl-7-oxo-4-thia-1-azabicyclo[3.2.0]heptane-2-carboxylate + water; phases: Liquid
Fixed: Pressure, kPa = 101
Property: Mass density, kg/m3 (Liquid); method: Vibrating tube method
Temperature, K	Molality, mol/kg of sodium (2S,5R,6R)-6-(3-(2-chloro-6-fluorophenyl)-5-methylisoxazole-4-carboxamido)-3,3-dimethyl-7-oxo-4-thia-1-azabicyclo[3.2.0]heptane-2-carboxylate	Mass density, kg/m3	uncertainty
303.15	0.03508	1001.74	1.001
298.15	0.03508	1003.21	1.001
308.15	0.03508	1000.055	1.001
323.15	0.03508	993.877	1.001
313.15	0.03508	998.174	1.001
318.15	0.03508	996.11	1.001
298.15	0.05711	1007.005	1.001
308.15	0.05711	1003.766	1.001
323.15	0.05711	997.477	1.001
318.15	0.05711	999.746	1.001
303.15	0.05711	1005.492	1.001
313.15	0.05711	1001.846	1.001
308.15	0.07305	1006.387	1.001
323.15	0.07305	1000.019	1.001
318.15	0.07305	1002.313	1.001
298.15	0.07305	1009.683	1.001
313.15	0.07305	1004.44	1.001
303.15	0.07305	1008.141	1.001
308.15	0.09335	1009.671	1.001
323.15	0.09335	1003.204	1.001
313.15	0.09335	1007.691	1.001
318.15	0.09335	1005.531	1.001
298.15	0.09335	1013.038	1.001
303.15	0.09335	1011.46	1.001
303.15	0.11419	1014.804	1.001
313.15	0.11419	1010.968	1.001
298.15	0.11419	1016.416	1.001
308.15	0.11419	1012.982	1.001
318.15	0.11419	1008.775	1.001
323.15	0.11419	1006.417	1.001
298.15	0.13434	1019.68	1.001
323.15	0.13434	1009.525	1.001
313.15	0.13434	1014.137	1.001
308.15	0.13434	1016.183	1.001
303.15	0.13434	1018.038	1.001
318.15	0.13434	1011.913	1.001
313.15	0.14801	1016.289	1.001
298.15	0.14801	1021.891	1.001
308.15	0.14801	1018.354	1.001
318.15	0.14801	1014.047	1.001
323.15	0.14801	1011.641	1.001
303.15	0.14801	1020.229	1.001
308.15	0.16752	1021.426	1.001
323.15	0.16752	1014.637	1.001
313.15	0.16752	1019.335	1.001
298.15	0.16752	1025.016	1.001
303.15	0.16752	1023.328	1.001
318.15	0.16752	1017.068	1.001
303.15	0.18122	1025.459	1.001
298.15	0.18122	1027.164	1.001
313.15	0.18122	1021.432	1.001
318.15	0.18122	1019.148	1.001
308.15	0.18122	1023.54	1.001
323.15	0.18122	1016.699	1.001

System: sodium (2S,5R,6R)-6-(3-(2-chloro-6-fluorophenyl)-5-methylisoxazole-4-carboxamido)-3,3-dimethyl-7-oxo-4-thia-1-azabicyclo[3.2.0]heptane-2-carboxylate + water; phases: Liquid
Fixed: Pressure, kPa = 101
Property: Speed of sound, m/s (Liquid); method: Sing-around technique in a fixed-path interferometer
Temperature, K	Molality, mol/kg of sodium (2S,5R,6R)-6-(3-(2-chloro-6-fluorophenyl)-5-methylisoxazole-4-carboxamido)-3,3-dimethyl-7-oxo-4-thia-1-azabicyclo[3.2.0]heptane-2-carboxylate	Speed of sound, m/s	uncertainty
298.15	0.03508	1502.99	0.77
298.15	0.05711	1506.38	0.77
298.15	0.07305	1508.61	0.77
298.15	0.09335	1511.24	0.78
298.15	0.11419	1513.65	0.78
298.15	0.13434	1515.81	0.78
298.15	0.14801	1517.2	0.78
298.15	0.16752	1518.92	0.79
298.15	0.18122	1520.06	0.79
303.15	0.03508	1514.78	0.77
303.15	0.05711	1517.82	0.78
303.15	0.07305	1519.87	0.78
303.15	0.09335	1522.21	0.78
303.15	0.11419	1524.41	0.78
303.15	0.13434	1526.39	0.79
303.15	0.14801	1527.61	0.79
303.15	0.16752	1529.21	0.79
303.15	0.18122	1530.21	0.79
308.15	0.03508	1524.93	0.78
308.15	0.05711	1527.64	0.78
308.15	0.07305	1529.45	0.78
308.15	0.09335	1531.56	0.78
308.15	0.11419	1533.52	0.79
308.15	0.13434	1535.26	0.79
308.15	0.14801	1536.4	0.79
308.15	0.16752	1537.75	0.79
308.15	0.18122	1538.69	0.8
313.15	0.03508	1533.46	0.78
313.15	0.05711	1535.86	0.78
313.15	0.07305	1537.48	0.78
313.15	0.09335	1539.37	0.79
313.15	0.11419	1541.12	0.79
313.15	0.13434	1542.68	0.79
313.15	0.14801	1543.65	0.79
313.15	0.16752	1544.93	0.8
313.15	0.18122	1545.7	0.8
318.15	0.03508	1540.5	0.78
318.15	0.05711	1542.62	0.78
318.15	0.07305	1544.06	0.79
318.15	0.09335	1545.71	0.79
318.15	0.11419	1547.3	0.79
318.15	0.13434	1548.68	0.79
318.15	0.14801	1549.54	0.8
318.15	0.16752	1550.62	0.8
318.15	0.18122	1551.4	0.8
323.15	0.03508	1546.11	0.78
323.15	0.05711	1547.97	0.79
323.15	0.07305	1549.23	0.79
323.15	0.09335	1550.7	0.79
323.15	0.11419	1552.07	0.79
323.15	0.13434	1553.29	0.8
323.15	0.14801	1554.04	0.8
323.15	0.16752	1555	0.8
323.15	0.18122	1555.68	0.8

System: sodium chloride + water; phases: Liquid
Fixed: Pressure, kPa = 101
Property: Mass density, kg/m3 (Liquid); method: Vibrating tube method
Temperature, K	Amount concentration (molarity), mol/dm3 of sodium chloride	Mass density, kg/m3	uncertainty
298.15	0.0251	998.068	1.001
303.15	0.0251	996.654	1.001
308.15	0.0251	995.026	1.001
313.15	0.0251	993.201	1.001
318.15	0.0251	991.192	1.001
323.15	0.0251	989.012	1.001
298.15	0.0586	999.427	1.001
303.15	0.0586	997.998	1.001
308.15	0.0586	996.357	1.001
313.15	0.0586	994.523	1.001
318.15	0.0586	992.506	1.001
323.15	0.0586	990.317	1.001
298.15	0.1021	1001.162	1.001
303.15	0.1021	999.715	1.001
308.15	0.1021	998.056	1.001
313.15	0.1021	996.208	1.001
318.15	0.1021	994.181	1.001
323.15	0.1021	991.983	1.001
298.15	0.1483	1002.99	1.001
303.15	0.1483	1001.523	1.001
308.15	0.1483	999.851	1.001
313.15	0.1483	997.991	1.001
318.15	0.1483	995.954	1.001
323.15	0.1483	993.747	1.001
298.15	0.2047	1005.194	1.001
303.15	0.2047	1003.704	1.001
308.15	0.2047	1002.014	1.001
313.15	0.2047	1000.138	1.001
318.15	0.2047	998.089	1.001
323.15	0.2047	995.872	1.001
298.15	0.2543	1007.115	1.001
303.15	0.2543	1005.605	1.001
308.15	0.2543	1003.899	1.001
313.15	0.2543	1002.01	1.001
318.15	0.2543	999.952	1.001
323.15	0.2543	997.725	1.001

System: sodium chloride + water; phases: Liquid
Fixed: Pressure, kPa = 101
Property: Speed of sound, m/s (Liquid); method: Sing-around technique in a fixed-path interferometer
Temperature, K	Amount concentration (molarity), mol/dm3 of sodium chloride	Speed of sound, m/s	uncertainty
298.15	0.0251	1498.87	0.76
303.15	0.0251	1511.26	0.77
308.15	0.0251	1521.94	0.77
313.15	0.0251	1530.99	0.77
318.15	0.0251	1538.5	0.78
323.15	0.0251	1544.56	0.78
298.15	0.0586	1501.1	0.76
303.15	0.0586	1513.43	0.77
308.15	0.0586	1524.03	0.77
313.15	0.0586	1533.02	0.78
318.15	0.0586	1540.48	0.78
323.15	0.0586	1546.5	0.78
298.15	0.1021	1503.82	0.76
303.15	0.1021	1516.05	0.77
308.15	0.1021	1526.54	0.77
313.15	0.1021	1535.45	0.78
318.15	0.1021	1542.85	0.78
323.15	0.1021	1548.81	0.78
298.15	0.1483	1506.43	0.77
303.15	0.1483	1518.55	0.77
308.15	0.1483	1528.93	0.77
313.15	0.1483	1537.76	0.78
318.15	0.1483	1545.09	0.78
323.15	0.1483	1550.98	0.78
298.15	0.2047	1509.42	0.77
303.15	0.2047	1521.4	0.77
308.15	0.2047	1531.63	0.78
313.15	0.2047	1540.35	0.78
318.15	0.2047	1547.58	0.78
323.15	0.2047	1553.4	0.78
298.15	0.2543	1511.76	0.77
303.15	0.2543	1523.6	0.77
308.15	0.2543	1533.69	0.78
313.15	0.2543	1542.29	0.78
318.15	0.2543	1549.44	0.78
323.15	0.2543	1555.18	0.78
