Measured thermophysical data. Speed-of-Sound Measurements in Compressed Nitrogen and Dry Air
Source: J. Chem. Eng. Data, 2016, 10.1021/acs.jced.6b00720
Compound 1: nitrogen, N2, InChI=1S/N2/c1-2
Compound 2: argon, Ar, InChI=1S/Ar
Compound 3: oxygen, O2, InChI=1S/O2/c1-2

System: nitrogen; phases: Gas
Fixed: Frequency, MHz = 0
Property: Speed of sound, m/s (Gas); method: Pulse-echo method
Temperature, K	Pressure, kPa	Speed of sound, m/s	uncertainty
274.9983	20114.2	415.493	0.316
274.9982	22615.9	431.063	0.322
274.9982	25117.6	447.188	0.328
274.9985	27619.4	463.66	0.335
274.9986	30121.1	480.315	0.341
274.9983	40128.6	546.502	0.367
274.9984	50135.8	609.259	0.391
274.9983	60143	667.425	0.414
274.9983	70150.2	721.11	0.435
274.9985	80157.4	770.778	0.454
274.9982	90164.6	816.939	0.472
274.9987	100172	860.048	0.488
300.0045	20113.6	426.564	0.32
300.0058	22615.2	440.288	0.326
300.0056	25117	454.506	0.331
300.0059	27618.8	469.076	0.337
300.0057	30120.5	483.876	0.342
300.0061	40127.6	543.578	0.366
300.0059	50134.8	601.519	0.388
300.0059	60142	656.23	0.409
300.0058	70149.2	707.429	0.429
300.0058	85159.9	778.054	0.457
300.0062	100171	842.208	0.482
325.0054	20113.9	438.312	0.325
325.0053	22615.8	450.728	0.33
325.0054	25117.6	463.568	0.335
325.0055	27619.4	476.727	0.34
325.0053	30121.2	490.118	0.345
325.0053	40128.4	544.577	0.366
325.0045	50135.7	598.272	0.387
325.0048	60142.9	649.705	0.407
325.0049	70150.1	698.408	0.426
325.0047	80157.2	744.35	0.444
325.0049	90164.3	787.683	0.46
325.005	100172	828.629	0.476
349.9986	20116	450.179	0.329
349.9987	22617.9	461.635	0.334
349.9987	25119.6	473.445	0.338
349.9984	27621.4	485.536	0.343
349.9989	30123.1	497.838	0.348
349.9985	40130.3	548.073	0.367
349.9988	50137.6	598.108	0.387
349.9983	60144.7	646.566	0.406
349.9987	70151.7	692.89	0.424
349.9987	80158.6	736.934	0.441
349.9987	90165.6	778.75	0.457
349.9987	100173	818.469	0.472
374.997	25117.5	483.635	0.342
374.9971	27619.3	494.895	0.347
374.9974	30121.1	506.343	0.351
374.9971	32622.9	517.932	0.356
374.9974	35124.6	529.619	0.36
374.9977	40128.3	553.146	0.369
374.9978	50135.6	600.059	0.387
374.9984	60147.2	645.878	0.405
374.9984	70154.3	689.996	0.422
374.9991	80161.2	732.225	0.439
374.9993	90168.2	772.547	0.454
374.9992	100175	811.029	0.469
399.9978	25120.6	493.914	0.346
399.9981	27622.3	504.508	0.35
399.9984	30124	515.267	0.355
399.9983	32625.7	526.15	0.359
399.9986	35127.4	537.129	0.363
399.9994	40131	559.246	0.372
399.9999	50138.4	603.49	0.389
400.0003	60145.6	646.938	0.406
400.0004	70152.8	689.043	0.422
400.0006	80160.1	729.571	0.438
400.0005	90167.3	768.459	0.453
400.0005	100175	805.731	0.467

System: argon + nitrogen + oxygen; phases: Gas
Fixed: Mole fraction of nitrogen = 0.78111
Fixed: Mole fraction of oxygen = 0.20969
Fixed: Frequency, MHz = 0
Property: Speed of sound, m/s (Gas); method: Pulse-echo method
Temperature, K	Pressure, kPa	Speed of sound, m/s	uncertainty
239.9988	20115.8	390.077	0.306
239.9998	22617.1	409.512	0.314
239.9998	25118.9	429.522	0.321
239.9999	27620.8	449.732	0.329
239.9995	30122.6	469.873	0.337
239.9993	35127.6	509.284	0.352
240.0002	40130	546.945	0.367
240	45131.2	582.645	0.381
240	50138.2	616.379	0.394
240	60145.3	678.487	0.418
239.9998	70152.4	734.437	0.44
239.9999	80159.4	785.333	0.46
240.0001	90166.6	832.063	0.478
240.0001	100174	875.32	0.494
259.9968	20115.5	395.891	0.308
259.9974	22617.5	412.419	0.315
259.9968	25119.3	429.616	0.321
259.9967	27621.1	447.206	0.328
259.9969	30122.7	464.967	0.335
259.9974	35127.4	500.376	0.349
259.9974	40131	534.939	0.362
259.997	45134.4	568.244	0.375
259.9972	50137.8	600.144	0.388
259.9915	50137	600.133	0.388
260.0008	60143.9	659.699	0.411
260.0014	70150.8	714.085	0.432
260.0019	80157.8	763.002	0.451
260.0015	90164.8	810.114	0.469
260.0019	100172	852.988	0.486
280.0039	20115	403.984	0.311
280.0043	22616.8	418.456	0.317
280.0043	25118.4	433.572	0.323
280.0044	27620.1	449.131	0.329
280.0043	30121.7	464.959	0.335
280.0045	35125.2	496.888	0.348
280.0036	40129.3	528.557	0.36
280.0036	45132.4	559.498	0.372
280.0036	50135.6	589.472	0.383
280.0033	60142	646.196	0.406
279.9992	60144.5	646.205	0.406
280	70151.6	698.684	0.426
280.0001	80158.8	747.293	0.445
280.0001	90165.9	792.494	0.462
279.9999	100173	834.726	0.479
300.0021	20114	413.079	0.315
300.0021	22615.8	426.074	0.32
300.0023	25117.7	439.646	0.325
300.0028	27619.5	453.649	0.331
300.0029	30121.4	467.95	0.336
300.0029	35125	497.005	0.348
300.0029	40128.6	526.131	0.359
300.0033	45132.2	554.885	0.37
300.0031	50135.9	583.006	0.381
299.9982	20116	413.082	0.315
299.998	50137.4	583.012	0.381
299.9989	60144.4	636.848	0.402
299.9986	70151.5	687.262	0.421
299.9992	80158.6	734.37	0.44
299.999	90165.6	778.47	0.457
299.9992	100173	819.884	0.473
319.9995	20115.6	422.583	0.319
319.9988	22617.4	434.483	0.323
319.9984	25119.2	446.888	0.328
319.9981	27620.9	459.685	0.333
319.9974	30122.6	472.771	0.338
319.996	35125.8	499.476	0.348
319.9962	40129.3	526.432	0.359
319.9963	45132.7	553.244	0.369
319.9966	50136.1	579.655	0.38
320.0029	50136.7	579.651	0.38
320.0037	60143.7	630.711	0.399
320.005	70150.6	679.028	0.418
320.0055	80157.5	724.555	0.436
320.006	90164.4	767.443	0.453
320.0066	100172	807.912	0.468
340.0053	20114.3	432.161	0.322
340.005	22615.9	443.222	0.327
340.0035	25116.6	454.717	0.331
340.0035	27617.9	466.562	0.336
340.0037	30118.9	478.677	0.34
340.0037	35122	503.449	0.35
340.004	40125.4	528.567	0.36
340.0041	45128.9	553.682	0.37
340.0042	50132.5	578.559	0.379
340.001	50137.4	578.575	0.379
340.001	60144.5	627.045	0.398
340.001	70151.6	673.328	0.416
340.0011	80158.7	717.262	0.433
340.0007	90165.8	758.899	0.449
340.0014	100173	798.374	0.465
360.0022	20114	441.652	0.326
360.0027	22615.2	452.058	0.33
360.0027	25116.9	462.836	0.334
360.0031	27619.2	473.93	0.339
360.0025	30121.1	485.266	0.343
360.0031	35124.8	508.451	0.352
360.0031	40128.4	532.009	0.361
360.0033	45132.1	555.653	0.37
359.9965	50137.4	579.178	0.379
359.9965	60144.5	625.277	0.397
359.9964	70151.5	669.636	0.415
359.9963	80158.5	712.015	0.431
359.996	90165.5	752.385	0.447
359.9962	100173	790.834	0.462
379.9976	25117.3	471.07	0.337
379.9969	27619	481.538	0.341
379.9974	30120.7	492.229	0.346
379.9971	35124	514.086	0.354
379.9971	40127.5	536.322	0.363
379.9976	45131	558.693	0.371
379.9996	50137.7	581.025	0.38
379.9998	60144.9	624.984	0.397
379.9997	70152.1	667.547	0.414
380	80159.2	708.441	0.43
379.9998	90166.4	747.581	0.445
380.0002	100173	785.002	0.459
400.0001	25117.3	479.306	0.341
400.0004	27619	489.259	0.344
400.0006	30120.8	499.408	0.348
400.0009	35124.3	520.145	0.356
400.0007	40127.9	541.251	0.365
400.0008	45131.4	562.513	0.373
400.0042	50135.9	583.789	0.381
400.0039	60142.9	625.812	0.397
400.0042	70149.9	666.71	0.413
400.004	80156.8	706.18	0.429
400.0039	90163.8	744.123	0.443
400.0039	100171	780.534	0.458
419.9979	25117.3	487.477	0.344
419.9984	27619.2	496.992	0.347
419.9987	30120.9	506.683	0.351
419.9988	35127.8	526.464	0.359
419.9988	40127.8	546.591	0.367
419.9994	50135.3	587.211	0.382
419.9993	60142.3	627.488	0.398
419.9991	70149.4	666.851	0.413
419.9989	80156.4	704.002	0.428
419.9988	90163.5	741.805	0.443
419.9982	45131.3	566.883	0.375
419.9987	100171	777.244	0.456
