Measured thermophysical data. Isobaric Vapor-Liquid Equilibrium Measurements and Separation Process for the Quinary Methanol + Methylal + 2-Butanol + 2-(Methoxymethoxy)-butane + (+-)-Di-sec-butoxymethane System
Source: J. Chem. Eng. Data, 2019, 10.1021/acs.jced.8b01247
Compound 1: methanol, CH4O, InChI=1S/CH4O/c1-2/h2H,1H3, purity 99.91%
Compound 2: butan-2-ol, C4H10O, InChI=1S/C4H10O/c1-3-4(2)5/h4-5H,3H2,1-2H3, purity 99.92%
Compound 3: 2-(methoxymethoxy)butane, C6H14O2, InChI=1S/C6H14O2/c1-4-6(2)8-5-7-3/h6H,4-5H2,1-3H3, purity 99.89%
Compound 4: rel-di((R)-sec-butoxy)methane, C9H20O2, InChI=1S/C9H20O2/c1-5-8(3)10-7-11-9(4)6-2/h8-9H,5-7H2,1-4H3/t8-,9-/m1/s1, purity 99.85%
Compound 5: (R)-sec-butoxy((S)-sec-butoxy)methane, C9H20O2, InChI=1S/C9H20O2/c1-5-8(3)10-7-11-9(4)6-2/h8-9H,5-7H2,1-4H3/t8-,9+, purity 99.85%

System: methanol; phases: Liquid, Gas
Property: Vapor or sublimation pressure, kPa (Liquid); method: Ebulliometric method (Recirculating still)
Temperature, K	Vapor or sublimation pressure, kPa	uncertainty
337.83	101.3	2.3

System: butan-2-ol; phases: Liquid, Gas
Property: Boiling temperature at pressure P, K (Liquid); method: Ebulliometric method (Recirculating still)
Pressure, kPa	Boiling temperature at pressure P, K	uncertainty
174.7	388.57	0.79
244.6	399.33	0.99
309.7	407.43	0.96
429.6	419.33	1.09
566.9	430.17	1.28

System: 2-(methoxymethoxy)butane; phases: Liquid, Gas
Property: Boiling temperature at pressure P, K (Liquid); method: Ebulliometric method (Recirculating still)
Pressure, kPa	Boiling temperature at pressure P, K	uncertainty
101.3	382.8	0.87
166.8	402.2	1.26
217.3	413.09	1.24
257	420.08	1.21
313.1	428.82	1.27
387.5	438.64	1.46

System: rel-di((R)-sec-butoxy)methane + (R)-sec-butoxy((S)-sec-butoxy)methane; phases: Liquid, Gas
Fixed: Mole fraction of rel-di((R)-sec-butoxy)methane = 0.5
Property: Boiling temperature at pressure P, K (Liquid); method: Ebulliometric method (Recirculating still)
Pressure, kPa	Boiling temperature at pressure P, K	uncertainty
11.5	371.04	0.65
15.5	378.47	0.81
17.9	382.2	0.73
23.3	389.238	0.813
29.9	396.36	0.87
35.5	401.28	0.86
41.9	406.2	0.89
49.4	411.38	0.94
57.1	416.1	0.95
65.1	420.33	0.95
72.5	423.81	0.96
84.9	429.3	1.02
101.3	435.72	1.15

System: methanol + 2-(methoxymethoxy)butane; phases: Liquid, Gas
Fixed: Pressure, kPa = 101.3
Property: Boiling temperature at pressure P, K (Liquid); method: Ebulliometric method (Recirculating still)
Mole fraction of methanol	Boiling temperature at pressure P, K	uncertainty
0	382.8	0.45
0.0042	379.18	2.2
0.0212	370.47	1.9
0.0397	364.21	1.34
0.062	358.72	0.85
0.1071	352.75	0.66
0.1497	349.16	0.53
0.2102	346.06	0.49
0.278	343.56	0.47
0.345	342.68	0.46
0.4587	340.76	0.46
0.5886	340.05	0.46
0.7046	338.98	0.46
0.7505	338.69	0.45
0.8171	338.22	0.45
0.8721	337.92	0.45
0.9061	337.89	0.45
0.9466	337.85	0.45
0.9735	337.78	0.45
0.9869	337.76	0.45
0.9921	337.79	0.45
0.9982	337.82	0.45
1	337.83	0.45

System: methanol + 2-(methoxymethoxy)butane; phases: Gas, Liquid
Fixed: Pressure, kPa = 101.3
Property: Mole fraction of methanol (Gas); method: Chromatography
Mole fraction of methanol	Mole fraction of methanol	uncertainty
0	0	
0.0042	0.1098	0.053
0.0212	0.3229	0.0484
0.0397	0.4521	0.0288
0.062	0.5524	0.0158
0.1071	0.6503	0.0109
0.1497	0.7052	0.008
0.2102	0.7537	0.0069
0.278	0.7848	0.0063
0.345	0.8002	0.0061
0.4587	0.8216	0.0061
0.5886	0.845	0.006
0.7046	0.8757	0.006
0.7505	0.8819	0.006
0.8171	0.9026	0.0061
0.8721	0.9248	0.0062
0.9061	0.9408	0.0063
0.9466	0.9606	0.0064
0.9735	0.9784	0.0067
0.9869	0.9869	0.0068
0.9921	0.9916	0.0076
0.9982	0.998	0.002
1	1	

System: butan-2-ol + rel-di((R)-sec-butoxy)methane + (R)-sec-butoxy((S)-sec-butoxy)methane; phases: Liquid, Gas
Fixed: Pressure, kPa = 101.3
Fixed: Solvent: Mole fraction of rel-di((R)-sec-butoxy)methane = 0.5
Property: Boiling temperature at pressure P, K (Liquid); method: Closed cell (Static) method
Mole fraction of butan-2-ol	Boiling temperature at pressure P, K	uncertainty
1	373.08	0.45
0.9973	373.13	0.45
0.9588	373.76	0.46
0.9015	374.85	0.46
0.8569	375.87	0.46
0.816	376.75	0.46
0.7774	377.69	0.46
0.6908	378.99	0.46
0.651	379.81	0.46
0.5655	381.53	0.46
0.4958	383.77	0.48
0.4271	387.02	0.49
0.3647	389.38	0.5
0.3135	392.76	0.54
0.256	396.71	0.56
0.1924	401.75	0.6
0.1536	406.07	0.7
0.1028	412.69	0.79
0.0678	418.88	0.93
0.0518	422.13	1.07
0.031	426.95	1.21
0.014	431.77	1.41
0.0059	434.68	1.34
0	435.72	0.45

System: butan-2-ol + rel-di((R)-sec-butoxy)methane + (R)-sec-butoxy((S)-sec-butoxy)methane; phases: Gas, Liquid
Fixed: Solvent: Mole fraction of rel-di((R)-sec-butoxy)methane = 0.5
Property: Mole fraction of butan-2-ol (Gas); method: Chromatography
Temperature, K	Mole fraction of butan-2-ol	Mole fraction of butan-2-ol	uncertainty
373.08	1	1	
373.13	0.9973	0.9994	0.0006
373.76	0.9588	0.9911	0.0053
374.85	0.9015	0.9794	0.006
375.87	0.8569	0.9726	0.0062
376.75	0.816	0.9659	0.0062
377.69	0.7774	0.9574	0.0054
378.99	0.6908	0.9467	0.0056
379.81	0.651	0.9403	0.0058
381.53	0.5655	0.9228	0.0058
383.77	0.4958	0.9051	0.0055
387.02	0.4271	0.879	0.0063
389.38	0.3647	0.8545	0.0056
392.76	0.3135	0.8227	0.0062
396.71	0.256	0.7797	0.0081
401.75	0.1924	0.7167	0.0066
406.07	0.1536	0.6593	0.0068
412.69	0.1028	0.5539	0.0085
418.88	0.0678	0.4397	0.0076
422.13	0.0518	0.3731	0.0209
426.95	0.031	0.2622	0.0076
431.77	0.014	0.1397	0.0074
434.68	0.0059	0.0649	0.0135
435.72	0	0	

System: 2-(methoxymethoxy)butane + rel-di((R)-sec-butoxy)methane + (R)-sec-butoxy((S)-sec-butoxy)methane; phases: Liquid, Gas
Fixed: Pressure, kPa = 101.3
Fixed: Solvent: Mole fraction of rel-di((R)-sec-butoxy)methane = 0.5
Property: Boiling temperature at pressure P, K (Liquid); method: Closed cell (Static) method
Mole fraction of 2-(methoxymethoxy)butane	Boiling temperature at pressure P, K	uncertainty
1	382.8	0.45
0.9542	384.16	0.47
0.8975	386.13	0.48
0.8275	388.7	0.48
0.8042	389.61	0.48
0.7553	391.57	0.49
0.7255	392.8	0.49
0.6791	394.75	0.49
0.6475	396.12	0.49
0.605	398.02	0.49
0.5729	399.51	0.5
0.5281	401.68	0.5
0.4752	404.3	0.5
0.4063	407.88	0.51
0.3624	410.29	0.51
0.3295	412.14	0.52
0.2854	414.77	0.53
0.2692	416.1	0.5
0.2191	419.09	0.53
0.1619	422.97	0.54
0.1014	427.06	0.54
0.0633	429.83	0.55
0.0193	433.01	0.6
0	435.72	0.45

System: 2-(methoxymethoxy)butane + rel-di((R)-sec-butoxy)methane + (R)-sec-butoxy((S)-sec-butoxy)methane; phases: Gas, Liquid
Fixed: Solvent: Mole fraction of rel-di((R)-sec-butoxy)methane = 0.5
Property: Mole fraction of 2-(methoxymethoxy)butane (Gas); method: Chromatography
Temperature, K	Mole fraction of 2-(methoxymethoxy)butane	Mole fraction of 2-(methoxymethoxy)butane	uncertainty
382.8	1	1	
384.16	0.9542	0.0458	0.0458
386.13	0.8975	0.1025	0.0069
388.7	0.8275	0.1725	0.0074
389.61	0.8042	0.1958	0.0075
391.57	0.7553	0.2447	0.0074
392.8	0.7255	0.2745	0.0075
394.75	0.6791	0.3209	0.0075
396.12	0.6475	0.3525	0.0076
398.02	0.605	0.395	0.0075
399.51	0.5729	0.4271	0.0077
401.68	0.5281	0.4719	0.0078
404.3	0.4752	0.5248	0.0077
407.88	0.4063	0.5937	0.0072
410.29	0.3624	0.6376	0.007
412.14	0.3295	0.6705	0.0069
414.77	0.2854	0.7146	0.0072
416.1	0.2692	0.7308	0.0072
419.09	0.2191	0.7809	0.0071
422.97	0.1619	0.8381	0.0061
427.06	0.1014	0.8986	0.0059
429.83	0.0633	0.9367	0.0059
433.01	0.0193	0.9807	0.0193
435.72	0	0	
