Measured thermophysical data. Densities and Viscosities of Mixtures of Two Ionic Liquids Containing a Common Cation
Source: J. Chem. Eng. Data, 2016, 10.1021/acs.jced.6b00178
Compound 1: 1-butyl-3-methylimidazolium bis(trifluoromethylsulfonyl)imide, C10H15F6N3O4S2, InChI=1S/C8H15N2.C2F6NO4S2/c1-3-4-5-10-7-6-9(2)8-10;3-1(4,5)14(10,11)9-15(12,13)2(6,7)8/h6-8H,3-5H2,1-2H3;/q+1;-1, purity 99%
Compound 2: 1-butyl-3-methylimidazolium thiocyanate, C9H15N3S, InChI=1S/C8H15N2.CHNS/c1-3-4-5-10-7-6-9(2)8-10;2-1-3/h6-8H,3-5H2,1-2H3;3H/q+1;/p-1, purity 98%
Compound 3: 1-butyl-3-methylimidazolium dicyanamide, C10H15N5, InChI=1S/C8H15N2.C2N3/c1-3-4-5-10-7-6-9(2)8-10;3-1-5-2-4/h6-8H,3-5H2,1-2H3;/q+1;-1, purity 98%
Compound 4: 1-butyl-3-methylimidazolium tricyanomethane, C12H15N5, InChI=1S/C8H15N2.C4N3/c1-3-4-5-10-7-6-9(2)8-10;5-1-4(2-6)3-7/h6-8H,3-5H2,1-2H3;/q+1;-1, purity 98%
Compound 5: 1-butyl-3-methylimidazolium tetrafluoroborate, C8H15BF4N2, InChI=1S/C8H15N2.BF4/c1-3-4-5-10-7-6-9(2)8-10;2-1(3,4)5/h6-8H,3-5H2,1-2H3;/q+1;-1, purity 99%
Compound 6: 1-butyl-3-methylimidazolium hexafluorophosphate, C8H15F6N2P, InChI=1S/C8H15N2.F6P/c1-3-4-5-10-7-6-9(2)8-10;1-7(2,3,4,5)6/h6-8H,3-5H2,1-2H3;/q+1;-1, purity 99%
Compound 7: 1-butyl-3-methylimidazolium acetate, C10H18N2O2, InChI=1S/C8H15N2.C2H4O2/c1-3-4-5-10-7-6-9(2)8-10;1-2(3)4/h6-8H,3-5H2,1-2H3;1H3,(H,3,4)/q+1;/p-1, purity 98%
Compound 8: 1-butyl-3-methylimidazolium trifluoromethanesulfonate, C9H15F3N2O3S, InChI=1S/C8H15N2.CHF3O3S/c1-3-4-5-10-7-6-9(2)8-10;2-1(3,4)8(5,6)7/h6-8H,3-5H2,1-2H3;(H,5,6,7)/q+1;/p-1, purity 99%
Compound 9: 1-butyl-3-methyl-1H-imidazolium dimethylphosphate, C10H21N2O4P, InChI=1S/C8H15N2.C2H7O4P/c1-3-4-5-10-7-6-9(2)8-10;1-5-7(3,4)6-2/h6-8H,3-5H2,1-2H3;1-2H3,(H,3,4)/q+1;/p-1, purity 98%

System: 1-butyl-3-methylimidazolium bis(trifluoromethylsulfonyl)imide; phases: Liquid
Fixed: Pressure, kPa = 100
Property: Mass density, kg/m3 (Liquid); method: Vibrating tube method
Temperature, K	Mass density, kg/m3	uncertainty
283.15	1451.8	0.8
288.15	1446.9	0.8
293.15	1442.1	0.8
298.15	1437.2	0.8
303.15	1432.4	0.7
308.15	1427.6	0.7
313.15	1422.9	0.7
318.15	1418.2	0.7
323.15	1413.5	0.7
328.15	1408.8	0.7
333.15	1404.1	0.7
338.15	1399.4	0.7
343.15	1394.8	0.7
348.15	1390.2	0.7
353.15	1385.6	0.7
358.15	1381.1	0.7
363.15	1376.6	0.7
313.15	1422.8	0.7
318.15	1418.1	0.7
323.15	1413.4	0.7
328.15	1408.7	0.7
333.15	1404	0.7
338.15	1399.3	0.7
343.15	1394.7	0.7
348.15	1390.1	0.7
353.15	1385.5	0.7
358.15	1381	0.7
363.15	1376.4	0.7

System: 1-butyl-3-methylimidazolium bis(trifluoromethylsulfonyl)imide; phases: Liquid
Fixed: Pressure, kPa = 100
Property: Viscosity, Pa*s (Liquid); method: Concentric cylinders viscometry
Temperature, K	Viscosity, Pa*s	uncertainty
283.15	0.10678	0.0054629
283.15	0.10677	0.0054623
288.15	0.082142	0.004162
288.15	0.082163	0.0041631
293.15	0.066356	0.0033449
293.15	0.064531	0.0032515
298.15	0.05158	0.0025938
298.15	0.051601	0.0025949
303.15	0.04194	0.0021121
303.15	0.041933	0.0021118
308.15	0.034601	0.0017424
308.15	0.034585	0.0017416
313.15	0.029479	0.0014844
313.15	0.028907	0.0014556
318.15	0.024472	0.0012323
318.15	0.024456	0.0012315
323.15	0.020928	0.0010538
323.15	0.020908	0.0010528
328.15	0.018071	0.0009099
328.15	0.018052	0.000909
333.15	0.015947	0.000803
333.15	0.015719	0.0007915
338.15	0.013828	0.0006963
338.15	0.013797	0.0006948
343.15	0.012234	0.000616
343.15	0.012198	0.0006142
348.15	0.010898	0.0005488
348.15	0.010856	0.0005467
353.15	0.009985	0.0005028
353.15	0.00972	0.0004895
358.15	0.008806	0.0004435
358.15	0.0087541	0.0004409
363.15	0.0079803	0.0004019
363.15	0.0079257	0.0003992

System: 1-butyl-3-methylimidazolium thiocyanate; phases: Liquid
Fixed: Pressure, kPa = 100
Property: Mass density, kg/m3 (Liquid); method: Vibrating tube method
Temperature, K	Mass density, kg/m3	uncertainty
283.15	1079.2	1
288.15	1076.2	1
293.15	1073.2	1
298.15	1070.2	1
303.15	1067.2	1
308.15	1064.2	1
313.15	1061.3	1
318.15	1058.4	1
323.15	1055.5	1
328.15	1052.6	1
333.15	1049.8	1
338.15	1047	1
343.15	1044.1	1
348.15	1041.4	1
353.15	1038.6	1
358.15	1035.8	1
363.15	1033.1	1

System: 1-butyl-3-methylimidazolium thiocyanate; phases: Liquid
Fixed: Pressure, kPa = 100
Property: Viscosity, Pa*s (Liquid); method: Concentric cylinders viscometry
Temperature, K	Viscosity, Pa*s	uncertainty
283.15	0.13954	0.0073386
288.15	0.10451	0.0054192
293.15	0.082913	0.0042633
298.15	0.062635	0.0032014
303.15	0.049936	0.0025519
308.15	0.040483	0.0020686
313.15	0.034081	0.0017414
318.15	0.027804	0.0014208
323.15	0.023489	0.0012002
328.15	0.020064	0.0010251
333.15	0.017577	0.0008981
338.15	0.015077	0.0007704
343.15	0.013238	0.0006764
348.15	0.011713	0.0005985
353.15	0.010672	0.0005453
358.15	0.0093553	0.0004781
363.15	0.0084365	0.0004311

System: 1-butyl-3-methylimidazolium dicyanamide; phases: Liquid
Fixed: Pressure, kPa = 100
Property: Mass density, kg/m3 (Liquid); method: Vibrating tube method
Temperature, K	Mass density, kg/m3	uncertainty
283.15	1070	1
288.15	1066.7	1
293.15	1063.4	1
298.15	1060.2	1
303.15	1057	1
308.15	1053.8	1
313.15	1050.6	1
318.15	1047.5	1
323.15	1044.4	1
328.15	1041.3	1
333.15	1038.2	1
338.15	1035.2	1
343.15	1032.1	1
348.15	1029.1	1
353.15	1026.1	1
358.15	1023.2	1
363.15	1020.3	0.9

System: 1-butyl-3-methylimidazolium dicyanamide; phases: Liquid
Fixed: Pressure, kPa = 100
Property: Viscosity, Pa*s (Liquid); method: Concentric cylinders viscometry
Temperature, K	Viscosity, Pa*s	uncertainty
283.15	0.05835	0.0029791
288.15	0.045906	0.0023462
293.15	0.03683	0.0018821
298.15	0.03008	0.0015371
303.15	0.024945	0.0012746
308.15	0.020979	0.001072
313.15	0.017865	0.0009128
318.15	0.015383	0.000786
323.15	0.013384	0.0006839
328.15	0.011739	0.0005998
333.15	0.010383	0.0005306
338.15	0.0092509	0.0004727
343.15	0.0082978	0.000424
348.15	0.0074878	0.0003827
353.15	0.0067943	0.0003472
358.15	0.0061965	0.0003167
363.15	0.0056772	0.0002902

System: 1-butyl-3-methylimidazolium tricyanomethane; phases: Liquid
Fixed: Pressure, kPa = 100
Property: Mass density, kg/m3 (Liquid); method: Vibrating tube method
Temperature, K	Mass density, kg/m3	uncertainty
283.15	1058.1	1
288.15	1054.6	1
293.15	1051.1	1
298.15	1047.6	1
303.15	1044.2	1
308.15	1040.8	1
313.15	1037.5	1
318.15	1034.1	1
323.15	1030.8	1
328.15	1027.5	1
333.15	1024.2	1
338.15	1020.9	0.9
343.15	1017.7	0.9
348.15	1014.5	0.9
353.15	1011.3	0.9
358.15	1008.1	0.9
363.15	1005	0.9

System: 1-butyl-3-methylimidazolium tricyanomethane; phases: Liquid
Fixed: Pressure, kPa = 100
Property: Viscosity, Pa*s (Liquid); method: Concentric cylinders viscometry
Temperature, K	Viscosity, Pa*s	uncertainty
283.15	0.058153	0.0029693
288.15	0.0445	0.0022747
293.15	0.034896	0.0017835
298.15	0.027974	0.0014296
303.15	0.022854	0.0011679
308.15	0.018979	0.0009698
313.15	0.015995	0.0008173
318.15	0.013657	0.0006979
323.15	0.011796	0.0006028
328.15	0.010291	0.0005259
333.15	0.0090624	0.0004631
338.15	0.0080449	0.0004111
343.15	0.0071942	0.0003677
348.15	0.0064748	0.0003309
353.15	0.0058619	0.0002996
358.15	0.0053373	0.0002728
363.15	0.0048837	0.0002497

System: 1-butyl-3-methylimidazolium tetrafluoroborate; phases: Liquid
Fixed: Pressure, kPa = 100
Property: Mass density, kg/m3 (Liquid); method: Vibrating tube method
Temperature, K	Mass density, kg/m3	uncertainty
283.15	1212.5	0.6
288.15	1208.8	0.6
293.15	1205.2	0.6
298.15	1201.6	0.6
303.15	1198	0.6
308.15	1194.5	0.6
313.15	1190.9	0.6
318.15	1187.4	0.6
323.15	1184	0.6
328.15	1180.5	0.6
333.15	1177	0.6
338.15	1173.6	0.6
343.15	1170.2	0.6
348.15	1166.8	0.6
353.15	1163.4	0.6
358.15	1160.1	0.6
363.15	1156.8	0.6

System: 1-butyl-3-methylimidazolium tetrafluoroborate; phases: Liquid
Fixed: Pressure, kPa = 100
Property: Viscosity, Pa*s (Liquid); method: Concentric cylinders viscometry
Temperature, K	Viscosity, Pa*s	uncertainty
283.15	0.26499	0.0144011
288.15	0.19243	0.010199
293.15	0.14308	0.007435
298.15	0.10874	0.005569
303.15	0.084284	0.004274
308.15	0.06652	0.0033533
313.15	0.053372	0.0026839
318.15	0.043471	0.0021892
323.15	0.035894	0.0018075
328.15	0.030014	0.0015114
333.15	0.025376	0.0012778
338.15	0.021683	0.0010918
343.15	0.018696	0.0009414
348.15	0.016263	0.0008189
353.15	0.014256	0.0007179
358.15	0.012591	0.000634
363.15	0.011196	0.0005638

System: 1-butyl-3-methylimidazolium hexafluorophosphate; phases: Metastable liquid
Fixed: Pressure, kPa = 100
Property: Mass density, kg/m3 (Metastable liquid); method: Vibrating tube method
Temperature, K	Mass density, kg/m3	uncertainty
283.15	1379.9	0.7
288.15	1376.5	0.7
293.15	1372	0.7
298.15	1367.6	0.7
303.15	1363.4	0.7
308.15	1359.2	0.7
313.15	1355.1	0.7
318.15	1351	0.7
323.15	1347	0.7
328.15	1342.9	0.7
333.15	1338.9	0.7
338.15	1334.9	0.7
343.15	1330.9	0.7
348.15	1326.9	0.7
353.15	1323	0.7
358.15	1319	0.7
363.15	1315.2	0.7

System: 1-butyl-3-methylimidazolium hexafluorophosphate; phases: Metastable liquid
Fixed: Pressure, kPa = 100
Property: Viscosity, Pa*s (Metastable liquid); method: Concentric cylinders viscometry
Temperature, K	Viscosity, Pa*s	uncertainty
283.15	0.79433	0.0482411
288.15	0.55727	0.0325627
293.15	0.39386	0.0222088
298.15	0.28502	0.0155923
303.15	0.21093	0.0112548
308.15	0.15946	0.008341
313.15	0.12278	0.0063247
318.15	0.096281	0.0049048
323.15	0.076721	0.0038794
328.15	0.062044	0.0031239
333.15	0.050855	0.0025567
338.15	0.042201	0.002125
343.15	0.035427	0.0017839
348.15	0.030038	0.0015125
353.15	0.025722	0.0012952
358.15	0.022222	0.0011189
363.15	0.019363	0.000975

System: 1-butyl-3-methylimidazolium acetate; phases: Liquid
Fixed: Pressure, kPa = 100
Property: Mass density, kg/m3 (Liquid); method: Vibrating tube method
Temperature, K	Mass density, kg/m3	uncertainty
283.15	1062.7	1
288.15	1059.4	1
293.15	1056	1
298.15	1052.8	1
303.15	1049.7	1
308.15	1046.6	1
313.15	1043.5	1
318.15	1040.5	1
323.15	1037.5	1
328.15	1034.5	1
333.15	1031.5	1
338.15	1028.5	1
343.15	1025.6	1
348.15	1022.6	1
353.15	1019.7	0.9
358.15	1016.7	0.9
363.15	1013.9	0.9

System: 1-butyl-3-methylimidazolium acetate; phases: Liquid
Fixed: Pressure, kPa = 100
Property: Viscosity, Pa*s (Liquid); method: Concentric cylinders viscometry
Temperature, K	Viscosity, Pa*s	uncertainty
283.15	1.0134	0.0639169
288.15	0.6456	0.0387616
293.15	0.42135	0.0242078
298.15	0.29257	0.0162466
303.15	0.20668	0.0111592
308.15	0.15008	0.00793
313.15	0.11079	0.0057603
318.15	0.085027	0.0043756
323.15	0.066071	0.0033794
328.15	0.052293	0.0026683
333.15	0.042287	0.0021609
338.15	0.034385	0.0017571
343.15	0.028476	0.001455
348.15	0.023878	0.00122
353.15	0.020631	0.0010541
358.15	0.017348	0.0008864
363.15	0.015003	0.0007666

System: 1-butyl-3-methylimidazolium trifluoromethanesulfonate; phases: Metastable liquid
Fixed: Pressure, kPa = 100
Property: Mass density, kg/m3 (Metastable liquid); method: Vibrating tube method
Temperature, K	Mass density, kg/m3	uncertainty
283.15	1308.4	0.7
288.15	1304.3	0.7
293.15	1300.3	0.7
298.15	1296.3	0.7
303.15	1292.3	0.7
308.15	1288.4	0.7
313.15	1284.5	0.7
318.15	1280.6	0.7
323.15	1276.7	0.7
328.15	1272.8	0.7
333.15	1268.9	0.7
338.15	1265.1	0.7
343.15	1261.3	0.6
348.15	1257.5	0.6
353.15	1253.7	0.6
358.15	1249.9	0.6
363.15	1246.2	0.6

System: 1-butyl-3-methylimidazolium trifluoromethanesulfonate; phases: Metastable liquid
Fixed: Pressure, kPa = 100
Property: Viscosity, Pa*s (Metastable liquid); method: Concentric cylinders viscometry
Temperature, K	Viscosity, Pa*s	uncertainty
283.15	0.22561	0.0120982
288.15	0.16805	0.0088213
293.15	0.12851	0.0066363
298.15	0.099144	0.005057
303.15	0.07826	0.0039595
308.15	0.062755	0.0031603
313.15	0.051328	0.0025806
318.15	0.042099	0.00212
323.15	0.035127	0.0017688
328.15	0.029632	0.0014921
333.15	0.025498	0.0012839
338.15	0.02172	0.0010937
343.15	0.01884	0.0009486
348.15	0.016474	0.0008295
353.15	0.014834	0.0007469
358.15	0.012864	0.0006478
363.15	0.011476	0.0005779

System: 1-butyl-3-methyl-1H-imidazolium dimethylphosphate; phases: Liquid
Fixed: Pressure, kPa = 100
Property: Mass density, kg/m3 (Liquid); method: Vibrating tube method
Temperature, K	Mass density, kg/m3	uncertainty
283.15	1168.4	1.2
288.15	1164.9	1.2
293.15	1161.4	1.2
298.15	1157.9	1.2
303.15	1154.3	1.2
308.15	1150.9	1.2
313.15	1147.6	1.2
318.15	1144.3	1.2
323.15	1141	1.2
328.15	1137.8	1.1
333.15	1134.6	1.1
338.15	1131.4	1.1
343.15	1128.3	1.1
348.15	1125.1	1.1
353.15	1122	1.1
358.15	1118.9	1.1
363.15	1115.7	1.1

System: 1-butyl-3-methyl-1H-imidazolium dimethylphosphate; phases: Liquid
Fixed: Pressure, kPa = 100
Property: Viscosity, Pa*s (Liquid); method: Concentric cylinders viscometry
Temperature, K	Viscosity, Pa*s	uncertainty
283.15	2.3156	0.1609452
288.15	1.4546	0.0957313
293.15	0.94397	0.0590858
298.15	0.64171	0.0384826
303.15	0.44692	0.0258146
308.15	0.31933	0.0178657
313.15	0.2321	0.0126397
318.15	0.1747	0.0093178
323.15	0.13337	0.0069972
328.15	0.10362	0.0053703
333.15	0.081972	0.004213
338.15	0.065623	0.0033555
343.15	0.053395	0.0027244
348.15	0.044013	0.0022488
353.15	0.037081	0.0018946
358.15	0.030935	0.0015806
363.15	0.026332	0.0013455

System: 1-butyl-3-methylimidazolium bis(trifluoromethylsulfonyl)imide + 1-butyl-3-methylimidazolium thiocyanate; phases: Liquid
Fixed: Pressure, kPa = 100
Property: Mass density, kg/m3 (Liquid); method: Vibrating tube method
Temperature, K	Mole fraction of 1-butyl-3-methylimidazolium bis(trifluoromethylsulfonyl)imide	Mass density, kg/m3	uncertainty
283.15	1	1451.8	0.8
288.15	1	1446.9	0.8
293.15	1	1442.1	0.8
298.15	1	1437.2	0.8
303.15	1	1432.4	0.7
308.15	1	1427.6	0.7
313.15	1	1422.9	0.7
318.15	1	1418.2	0.7
323.15	1	1413.5	0.7
328.15	1	1408.8	0.7
333.15	1	1404.1	0.7
338.15	1	1399.4	0.7
343.15	1	1394.8	0.7
348.15	1	1390.2	0.7
353.15	1	1385.6	0.7
358.15	1	1381.1	0.7
363.15	1	1376.6	0.7
283.15	0.748	1385.3	0.9
288.15	0.748	1380.7	0.9
293.15	0.748	1376.2	0.9
298.15	0.748	1371.7	0.9
303.15	0.748	1367.3	0.9
308.15	0.748	1362.8	0.9
313.15	0.748	1358.4	0.8
318.15	0.748	1354	0.8
323.15	0.748	1349.7	0.8
328.15	0.748	1345.3	0.8
333.15	0.748	1341	0.8
338.15	0.748	1336.7	0.8
343.15	0.748	1332.4	0.8
348.15	0.748	1328.1	0.8
353.15	0.748	1323.9	0.8
358.15	0.748	1319.7	0.8
363.15	0.748	1315.5	0.8
283.15	0.5	1305.3	1
288.15	0.5	1301.2	1
293.15	0.5	1297.1	1
298.15	0.5	1293.1	1
303.15	0.5	1289	1
308.15	0.5	1285	1
313.15	0.5	1281	0.9
318.15	0.5	1277.1	0.9
323.15	0.5	1273.1	0.9
328.15	0.5	1269.2	0.9
333.15	0.5	1265.3	0.9
338.15	0.5	1261.5	0.9
343.15	0.5	1257.6	0.9
348.15	0.5	1253.8	0.9
353.15	0.5	1250	0.9
358.15	0.5	1246.2	0.9
363.15	0.5	1242.4	0.9
283.15	0.25	1206.2	1.1
288.15	0.25	1202.6	1
293.15	0.25	1199	1
298.15	0.25	1195.4	1
303.15	0.25	1191.8	1
308.15	0.25	1188.3	1
313.15	0.25	1184.7	1
318.15	0.25	1181.2	1
323.15	0.25	1177.7	1
328.15	0.25	1174.3	1
333.15	0.25	1170.8	1
338.15	0.25	1167.4	1
343.15	0.25	1164	1
348.15	0.25	1160.6	1
353.15	0.25	1157.3	1
358.15	0.25	1154	1
363.15	0.25	1150.7	1
283.15	0	1079.2	1
288.15	0	1076.2	1
293.15	0	1073.2	1
298.15	0	1070.2	1
303.15	0	1067.2	1
308.15	0	1064.2	1
313.15	0	1061.3	1
318.15	0	1058.4	1
323.15	0	1055.5	1
328.15	0	1052.6	1
333.15	0	1049.8	1
338.15	0	1047	1
343.15	0	1044.1	1
348.15	0	1041.4	1
353.15	0	1038.6	1
358.15	0	1035.8	1
363.15	0	1033.1	1

System: 1-butyl-3-methylimidazolium bis(trifluoromethylsulfonyl)imide + 1-butyl-3-methylimidazolium thiocyanate; phases: Liquid
Fixed: Pressure, kPa = 100
Property: Viscosity, Pa*s (Liquid); method: Concentric cylinders viscometry
Temperature, K	Mole fraction of 1-butyl-3-methylimidazolium bis(trifluoromethylsulfonyl)imide	Viscosity, Pa*s	uncertainty
283.15	1	0.10678	0.0054629
288.15	1	0.082142	0.004162
293.15	1	0.066356	0.0033449
298.15	1	0.05158	0.0025938
303.15	1	0.04194	0.0021121
308.15	1	0.034601	0.0017424
313.15	1	0.029479	0.0014844
318.15	1	0.024472	0.0012323
323.15	1	0.020928	0.0010538
328.15	1	0.018071	0.0009099
333.15	1	0.015947	0.000803
338.15	1	0.013828	0.0006963
343.15	1	0.012234	0.000616
348.15	1	0.010898	0.0005488
353.15	1	0.009985	0.0005028
358.15	1	0.008806	0.0004435
363.15	1	0.0079803	0.0004019
283.15	0.748	0.11512	0.0059262
288.15	0.748	0.088289	0.0044961
293.15	0.748	0.071221	0.0036051
298.15	0.748	0.055058	0.0027773
303.15	0.748	0.044621	0.0022534
308.15	0.748	0.036704	0.0018534
313.15	0.748	0.031225	0.0015767
318.15	0.748	0.025811	0.0013034
323.15	0.748	0.022012	0.0011115
328.15	0.748	0.018956	0.0009572
333.15	0.748	0.016702	0.0008434
338.15	0.748	0.014436	0.000729
343.15	0.748	0.012744	0.0006435
348.15	0.748	0.011328	0.000572
353.15	0.748	0.010359	0.0005231
358.15	0.748	0.0091135	0.0004602
363.15	0.748	0.0082417	0.0004162
283.15	0.5	0.12413	0.0064347
288.15	0.5	0.094681	0.0048496
293.15	0.5	0.076166	0.0038744
298.15	0.5	0.058499	0.0029622
303.15	0.5	0.047235	0.0023934
308.15	0.5	0.038704	0.001961
313.15	0.5	0.032846	0.0016641
318.15	0.5	0.027027	0.0013694
323.15	0.5	0.022975	0.001164
328.15	0.5	0.01974	0.0010001
333.15	0.5	0.017356	0.0008793
338.15	0.5	0.01494	0.0007569
343.15	0.5	0.01316	0.0006667
348.15	0.5	0.011671	0.0005913
353.15	0.5	0.010653	0.0005397
358.15	0.5	0.0093505	0.0004738
363.15	0.5	0.0084395	0.0004276
283.15	0.25	0.13349	0.0069727
288.15	0.25	0.10108	0.0052108
293.15	0.25	0.08092	0.0041392
298.15	0.25	0.061694	0.0031383
303.15	0.25	0.049547	0.0025206
308.15	0.25	0.040423	0.0020562
313.15	0.25	0.034219	0.0017406
318.15	0.25	0.028045	0.0014266
323.15	0.25	0.023786	0.0012098
328.15	0.25	0.020387	0.0010369
333.15	0.25	0.01791	0.0009109
338.15	0.25	0.015384	0.0007825
343.15	0.25	0.013539	0.0006886
348.15	0.25	0.011998	0.0006103
353.15	0.25	0.010916	0.0005553
358.15	0.25	0.0095766	0.0004872
363.15	0.25	0.0086206	0.0004386
283.15	0	0.13954	0.0073386
288.15	0	0.10451	0.0054192
293.15	0	0.082913	0.0042633
298.15	0	0.062635	0.0032014
303.15	0	0.049936	0.0025519
308.15	0	0.040483	0.0020686
313.15	0	0.034081	0.0017414
318.15	0	0.027804	0.0014208
323.15	0	0.023489	0.0012002
328.15	0	0.020064	0.0010251
333.15	0	0.017577	0.0008981
338.15	0	0.015077	0.0007704
343.15	0	0.013238	0.0006764
348.15	0	0.011713	0.0005985
353.15	0	0.010672	0.0005453
358.15	0	0.0093553	0.0004781
363.15	0	0.0084365	0.0004311

System: 1-butyl-3-methylimidazolium bis(trifluoromethylsulfonyl)imide + 1-butyl-3-methylimidazolium dicyanamide; phases: Liquid
Fixed: Pressure, kPa = 100
Property: Mass density, kg/m3 (Liquid); method: Vibrating tube method
Temperature, K	Mole fraction of 1-butyl-3-methylimidazolium bis(trifluoromethylsulfonyl)imide	Mass density, kg/m3	uncertainty
283.15	1	1451.8	0.8
288.15	1	1446.9	0.8
293.15	1	1442.1	0.8
298.15	1	1437.2	0.8
303.15	1	1432.4	0.7
308.15	1	1427.6	0.7
313.15	1	1422.8	0.7
318.15	1	1418.1	0.7
323.15	1	1413.4	0.7
328.15	1	1408.7	0.7
333.15	1	1404	0.7
338.15	1	1399.3	0.7
343.15	1	1394.7	0.7
348.15	1	1390.1	0.7
353.15	1	1385.5	0.7
358.15	1	1381	0.7
363.15	1	1376.4	0.7
283.15	0.749	1381.8	0.9
288.15	0.749	1377.2	0.9
293.15	0.749	1372.7	0.9
298.15	0.749	1368.1	0.9
303.15	0.749	1363.6	0.9
308.15	0.749	1359.2	0.8
313.15	0.749	1354.7	0.8
318.15	0.749	1350.3	0.8
323.15	0.749	1345.9	0.8
328.15	0.749	1341.5	0.8
333.15	0.749	1337.2	0.8
338.15	0.749	1332.9	0.8
343.15	0.749	1328.6	0.8
348.15	0.749	1324.3	0.8
353.15	0.749	1320	0.8
358.15	0.749	1315.8	0.8
363.15	0.749	1311.6	0.8
283.15	0.457	1280.8	1
288.15	0.457	1276.6	1
293.15	0.457	1272.5	1
298.15	0.457	1268.5	1
303.15	0.457	1264.4	1
308.15	0.457	1260.4	1
313.15	0.457	1256.4	1
318.15	0.457	1252.4	0.9
323.15	0.457	1248.5	0.9
328.15	0.457	1244.6	0.9
333.15	0.457	1240.7	0.9
338.15	0.457	1236.8	0.9
343.15	0.457	1233	0.9
348.15	0.457	1229.2	0.9
353.15	0.457	1225.4	0.9
358.15	0.457	1221.6	0.9
363.15	0.457	1217.9	0.9
283.15	0.251	1194.3	1
288.15	0.251	1190.5	1
293.15	0.251	1186.7	1
298.15	0.251	1183	1
303.15	0.251	1179.3	1
308.15	0.251	1175.7	1
313.15	0.251	1172	1
318.15	0.251	1168.4	1
323.15	0.251	1164.9	1
328.15	0.251	1161.3	1
333.15	0.251	1157.8	1
338.15	0.251	1154.3	1
343.15	0.251	1150.8	1
348.15	0.251	1147.3	1
353.15	0.251	1143.8	1
358.15	0.251	1140.4	1
363.15	0.251	1137	1
283.15	0	1070	1
288.15	0	1066.7	1
293.15	0	1063.4	1
298.15	0	1060.2	1
303.15	0	1057	1
308.15	0	1053.8	1
313.15	0	1050.6	1
318.15	0	1047.5	1
323.15	0	1044.4	1
328.15	0	1041.3	1
333.15	0	1038.2	1
338.15	0	1035.2	1
343.15	0	1032.1	1
348.15	0	1029.1	1
353.15	0	1026.1	1
358.15	0	1023.2	1
363.15	0	1020.3	0.9

System: 1-butyl-3-methylimidazolium bis(trifluoromethylsulfonyl)imide + 1-butyl-3-methylimidazolium dicyanamide; phases: Liquid
Fixed: Pressure, kPa = 100
Property: Viscosity, Pa*s (Liquid); method: Concentric cylinders viscometry
Temperature, K	Mole fraction of 1-butyl-3-methylimidazolium bis(trifluoromethylsulfonyl)imide	Viscosity, Pa*s	uncertainty
283.15	1	0.10677	0.0054623
288.15	1	0.082163	0.0041633
293.15	1	0.064531	0.0032515
298.15	1	0.051601	0.0025946
303.15	1	0.041933	0.0021118
308.15	1	0.034585	0.0017416
313.15	1	0.028907	0.0014556
318.15	1	0.024456	0.0012315
323.15	1	0.020908	0.0010528
328.15	1	0.018052	0.000909
333.15	1	0.015719	0.0007915
338.15	1	0.013797	0.0006947
343.15	1	0.012198	0.0006142
348.15	1	0.010856	0.0005467
353.15	1	0.00972	0.0004895
358.15	1	0.0087541	0.0004409
363.15	1	0.0079257	0.0003992
283.15	0.749	0.095811	0.0048929
288.15	0.749	0.073993	0.0037491
293.15	0.749	0.058315	0.0029427
298.15	0.749	0.046816	0.0023644
303.15	0.749	0.038184	0.0019283
308.15	0.749	0.031605	0.001596
313.15	0.749	0.026501	0.0013382
318.15	0.749	0.022481	0.0011352
323.15	0.749	0.019273	0.0009732
328.15	0.749	0.016681	0.0008423
333.15	0.749	0.014564	0.0007354
338.15	0.749	0.012817	0.0006472
343.15	0.749	0.01136	0.0005736
348.15	0.749	0.010136	0.0005118
353.15	0.749	0.0090975	0.0004594
358.15	0.749	0.0082106	0.0004147
363.15	0.749	0.0074488	0.0003762
283.15	0.457	0.082502	0.0042081
288.15	0.457	0.064112	0.0032522
293.15	0.457	0.050832	0.0025734
298.15	0.457	0.041019	0.0020798
303.15	0.457	0.03366	0.0017066
308.15	0.457	0.028006	0.0014199
313.15	0.457	0.023603	0.0011966
318.15	0.457	0.020116	0.0010198
323.15	0.457	0.017327	0.0008784
328.15	0.457	0.015056	0.0007633
333.15	0.457	0.013267	0.0006726
338.15	0.457	0.011723	0.0005943
343.15	0.457	0.010432	0.0005289
348.15	0.457	0.0093349	0.0004733
353.15	0.457	0.0084083	0.0004263
358.15	0.457	0.0076155	0.0003861
363.15	0.457	0.0069321	0.0003515
283.15	0.251	0.072335	0.0036889
288.15	0.251	0.056465	0.0028695
293.15	0.251	0.044977	0.0022882
298.15	0.251	0.036451	0.0018543
303.15	0.251	0.030024	0.0015272
308.15	0.251	0.025081	0.0012758
313.15	0.251	0.021219	0.0010793
318.15	0.251	0.018156	0.0009235
323.15	0.251	0.0157	0.0007986
328.15	0.251	0.013693	0.0006965
333.15	0.251	0.012047	0.0006128
338.15	0.251	0.010676	0.0005431
343.15	0.251	0.0095297	0.0004848
348.15	0.251	0.00856	0.0004354
353.15	0.251	0.0077277	0.0003931
358.15	0.251	0.0070165	0.000357
363.15	0.251	0.006403	0.0003258
283.15	0	0.05835	0.0029791
288.15	0	0.045906	0.0023462
293.15	0	0.03683	0.0018821
298.15	0	0.03008	0.0015371
303.15	0	0.024945	0.0012746
308.15	0	0.020979	0.001072
313.15	0	0.017865	0.0009128
318.15	0	0.015383	0.000786
323.15	0	0.013384	0.0006839
328.15	0	0.011739	0.0005998
333.15	0	0.010383	0.0005306
338.15	0	0.0092509	0.0004727
343.15	0	0.0082978	0.000424
348.15	0	0.0074878	0.0003827
353.15	0	0.0067943	0.0003472
358.15	0	0.0061965	0.0003167
363.15	0	0.0056772	0.0002902

System: 1-butyl-3-methylimidazolium bis(trifluoromethylsulfonyl)imide + 1-butyl-3-methylimidazolium tricyanomethane; phases: Liquid
Fixed: Pressure, kPa = 100
Property: Mass density, kg/m3 (Liquid); method: Vibrating tube method
Temperature, K	Mole fraction of 1-butyl-3-methylimidazolium bis(trifluoromethylsulfonyl)imide	Mass density, kg/m3	uncertainty
283.15	1	1451.8	0.8
288.15	1	1446.9	0.8
293.15	1	1442.1	0.8
298.15	1	1437.2	0.8
303.15	1	1432.4	0.7
308.15	1	1427.6	0.7
313.15	1	1422.8	0.7
318.15	1	1418.1	0.7
323.15	1	1413.4	0.7
328.15	1	1408.7	0.7
333.15	1	1404	0.7
338.15	1	1399.3	0.7
343.15	1	1394.7	0.7
348.15	1	1390.1	0.7
353.15	1	1385.5	0.7
358.15	1	1381	0.7
363.15	1	1376.4	0.7
283.15	0.751	1371.9	0.9
288.15	0.751	1367.3	0.9
293.15	0.751	1362.7	0.9
298.15	0.751	1358.1	0.8
303.15	0.751	1353.6	0.8
308.15	0.751	1349.1	0.8
313.15	0.751	1344.6	0.8
318.15	0.751	1340.2	0.8
323.15	0.751	1335.8	0.8
328.15	0.751	1331.4	0.8
333.15	0.751	1327	0.8
338.15	0.751	1322.7	0.8
343.15	0.751	1318.4	0.8
348.15	0.751	1314.1	0.8
353.15	0.751	1309.8	0.8
358.15	0.751	1305.6	0.8
363.15	0.751	1301.4	0.8
283.15	0.501	1281.6	0.9
288.15	0.501	1277.3	0.9
293.15	0.501	1273	0.9
298.15	0.501	1268.8	0.9
303.15	0.501	1264.6	0.9
308.15	0.501	1260.4	0.9
313.15	0.501	1256.3	0.9
318.15	0.501	1252.2	0.9
323.15	0.501	1248.1	0.9
328.15	0.501	1244	0.9
333.15	0.501	1240	0.9
338.15	0.501	1235.9	0.9
343.15	0.501	1232	0.9
348.15	0.501	1228	0.9
353.15	0.501	1224.1	0.9
358.15	0.501	1220.2	0.9
363.15	0.501	1216.3	0.9
283.15	0.252	1178.9	1
288.15	0.252	1175	1
293.15	0.252	1171.1	1
298.15	0.252	1167.2	1
303.15	0.252	1163.4	1
308.15	0.252	1159.6	1
313.15	0.252	1155.8	1
318.15	0.252	1152.1	1
323.15	0.252	1148.3	1
328.15	0.252	1144.6	1
333.15	0.252	1140.9	1
338.15	0.252	1137.3	1
343.15	0.252	1133.7	0.9
348.15	0.252	1130	0.9
353.15	0.252	1126.5	0.9
358.15	0.252	1122.9	0.9
363.15	0.252	1119.4	0.9
283.15	0	1058.1	1
288.15	0	1054.6	1
293.15	0	1051.1	1
298.15	0	1047.6	1
303.15	0	1044.2	1
308.15	0	1040.8	1
313.15	0	1037.5	1
318.15	0	1034.1	1
323.15	0	1030.8	1
328.15	0	1027.5	1
333.15	0	1024.2	1
338.15	0	1020.9	0.9
343.15	0	1017.7	0.9
348.15	0	1014.5	0.9
353.15	0	1011.3	0.9
358.15	0	1008.1	0.9
363.15	0	1005	0.9

System: 1-butyl-3-methylimidazolium bis(trifluoromethylsulfonyl)imide + 1-butyl-3-methylimidazolium tricyanomethane; phases: Liquid
Fixed: Pressure, kPa = 100
Property: Viscosity, Pa*s (Liquid); method: Concentric cylinders viscometry
Temperature, K	Mole fraction of 1-butyl-3-methylimidazolium bis(trifluoromethylsulfonyl)imide	Viscosity, Pa*s	uncertainty
283.15	1	0.10677	0.0054623
288.15	1	0.082163	0.0041633
293.15	1	0.064531	0.0032515
298.15	1	0.051601	0.0025946
303.15	1	0.041933	0.0021118
308.15	1	0.034585	0.0017416
313.15	1	0.028907	0.0014556
318.15	1	0.024456	0.0012315
323.15	1	0.020908	0.0010528
328.15	1	0.018052	0.000909
333.15	1	0.015719	0.0007915
338.15	1	0.013797	0.0006947
343.15	1	0.012198	0.0006142
348.15	1	0.010856	0.0005467
353.15	1	0.00972	0.0004895
358.15	1	0.0087541	0.0004409
363.15	1	0.0079257	0.0003992
283.15	0.751	0.088875	0.004527
288.15	0.751	0.068485	0.0034642
293.15	0.751	0.05386	0.0027163
298.15	0.751	0.043148	0.0021791
303.15	0.751	0.035156	0.0017754
308.15	0.751	0.029072	0.0014681
313.15	0.751	0.024374	0.0012308
318.15	0.751	0.020684	0.0010444
323.15	0.751	0.017745	0.000896
328.15	0.751	0.015384	0.0007768
333.15	0.751	0.013437	0.0006785
338.15	0.751	0.011837	0.0005977
343.15	0.751	0.010504	0.0005304
348.15	0.751	0.009387	0.000474
353.15	0.751	0.0084352	0.000426
358.15	0.751	0.0076234	0.000385
363.15	0.751	0.0069255	0.0003498
283.15	0.501	0.077278	0.0039322
288.15	0.501	0.059443	0.0030106
293.15	0.501	0.046775	0.0023704
298.15	0.501	0.037605	0.0019055
303.15	0.501	0.03066	0.0015535
308.15	0.501	0.025433	0.0012886
313.15	0.501	0.021394	0.0010839
318.15	0.501	0.018216	0.0009229
323.15	0.501	0.015719	0.0007964
328.15	0.501	0.013614	0.0006898
333.15	0.501	0.011899	0.0006029
338.15	0.501	0.010543	0.0005342
343.15	0.501	0.0093836	0.0004755
348.15	0.501	0.0084227	0.0004268
353.15	0.501	0.0075491	0.0003825
358.15	0.501	0.0068579	0.0003475
363.15	0.501	0.0062877	0.0003187
283.15	0.252	0.065872	0.0033539
288.15	0.252	0.050602	0.0025706
293.15	0.252	0.039793	0.0020246
298.15	0.252	0.031918	0.0016238
303.15	0.252	0.026075	0.0013264
308.15	0.252	0.02165	0.0011013
313.15	0.252	0.018218	0.0009267
318.15	0.252	0.01553	0.0007899
323.15	0.252	0.013389	0.000681
328.15	0.252	0.011663	0.0005933
333.15	0.252	0.010249	0.0005213
338.15	0.252	0.0090781	0.0004618
343.15	0.252	0.0080998	0.000412
348.15	0.252	0.0072747	0.0003701
353.15	0.252	0.0065736	0.0003344
358.15	0.252	0.0059737	0.0003039
363.15	0.252	0.0054554	0.0002776
283.15	0	0.058153	0.0029693
288.15	0	0.0445	0.0022747
293.15	0	0.034896	0.0017835
298.15	0	0.027974	0.0014296
303.15	0	0.022854	0.0011679
308.15	0	0.018979	0.0009698
313.15	0	0.015995	0.0008173
318.15	0	0.013657	0.0006979
323.15	0	0.011796	0.0006028
328.15	0	0.010291	0.0005259
333.15	0	0.0090624	0.0004631
338.15	0	0.0080449	0.0004111
343.15	0	0.0071942	0.0003677
348.15	0	0.0064748	0.0003309
353.15	0	0.0058619	0.0002996
358.15	0	0.0053373	0.0002728
363.15	0	0.0048837	0.0002497

System: 1-butyl-3-methylimidazolium tetrafluoroborate + 1-butyl-3-methylimidazolium bis(trifluoromethylsulfonyl)imide; phases: Liquid
Fixed: Pressure, kPa = 100
Property: Mass density, kg/m3 (Liquid); method: Vibrating tube method
Temperature, K	Mole fraction of 1-butyl-3-methylimidazolium bis(trifluoromethylsulfonyl)imide	Mass density, kg/m3	uncertainty
283.15	1	1451.8	0.8
288.15	1	1446.9	0.8
293.15	1	1442.1	0.8
298.15	1	1437.2	0.8
303.15	1	1432.4	0.7
308.15	1	1427.6	0.7
313.15	1	1422.8	0.7
318.15	1	1418.1	0.7
323.15	1	1413.4	0.7
328.15	1	1408.7	0.7
333.15	1	1404	0.7
338.15	1	1399.3	0.7
343.15	1	1394.7	0.7
348.15	1	1390.1	0.7
353.15	1	1385.5	0.7
358.15	1	1381	0.7
363.15	1	1376.4	0.7
283.15	0.751	1409.1	0.7
288.15	0.751	1404.4	0.7
293.15	0.751	1399.8	0.7
298.15	0.751	1395.1	0.7
303.15	0.751	1390.5	0.7
308.15	0.751	1386	0.7
313.15	0.751	1381.5	0.7
318.15	0.751	1376.9	0.7
323.15	0.751	1372.4	0.7
328.15	0.751	1368	0.7
333.15	0.751	1363.5	0.7
338.15	0.751	1359.1	0.7
343.15	0.751	1354.8	0.7
348.15	0.751	1350.4	0.7
353.15	0.751	1346	0.7
358.15	0.751	1341.7	0.7
363.15	0.751	1337.5	0.7
283.15	0.498	1355.8	0.7
288.15	0.498	1351.4	0.7
293.15	0.498	1347.1	0.7
298.15	0.498	1342.8	0.7
303.15	0.498	1338.5	0.7
308.15	0.498	1334.2	0.7
313.15	0.498	1329.9	0.7
318.15	0.498	1325.7	0.7
323.15	0.498	1321.4	0.7
328.15	0.498	1317.2	0.7
333.15	0.498	1313.1	0.7
338.15	0.498	1308.9	0.7
343.15	0.498	1304.8	0.7
348.15	0.498	1300.7	0.7
353.15	0.498	1296.6	0.7
358.15	0.498	1292.6	0.7
363.15	0.498	1288.6	0.7
283.15	0.25	1291.2	0.7
288.15	0.25	1287.1	0.7
293.15	0.25	1283.1	0.7
298.15	0.25	1279.1	0.7
303.15	0.25	1275.1	0.7
308.15	0.25	1271.2	0.7
313.15	0.25	1267.3	0.7
318.15	0.25	1263.4	0.7
323.15	0.25	1259.5	0.7
328.15	0.25	1255.6	0.6
333.15	0.25	1251.8	0.6
338.15	0.25	1248	0.6
343.15	0.25	1244.2	0.6
348.15	0.25	1240.4	0.6
353.15	0.25	1236.7	0.6
358.15	0.25	1233	0.6
363.15	0.25	1229.3	0.6
283.15	0	1212.5	0.6
288.15	0	1208.8	0.6
293.15	0	1205.2	0.6
298.15	0	1201.6	0.6
303.15	0	1198	0.6
308.15	0	1194.5	0.6
313.15	0	1190.9	0.6
318.15	0	1187.4	0.6
323.15	0	1184	0.6
328.15	0	1180.5	0.6
333.15	0	1177	0.6
338.15	0	1173.6	0.6
343.15	0	1170.2	0.6
348.15	0	1166.8	0.6
353.15	0	1163.4	0.6
358.15	0	1160.1	0.6
363.15	0	1156.8	0.6

System: 1-butyl-3-methylimidazolium tetrafluoroborate + 1-butyl-3-methylimidazolium bis(trifluoromethylsulfonyl)imide; phases: Liquid
Fixed: Pressure, kPa = 100
Property: Viscosity, Pa*s (Liquid); method: Concentric cylinders viscometry
Temperature, K	Mole fraction of 1-butyl-3-methylimidazolium bis(trifluoromethylsulfonyl)imide	Viscosity, Pa*s	uncertainty
283.15	1	0.10677	0.0054623
288.15	1	0.082163	0.0041633
293.15	1	0.064531	0.0032515
298.15	1	0.051601	0.0025946
303.15	1	0.041933	0.0021118
308.15	1	0.034585	0.0017416
313.15	1	0.028907	0.0014556
318.15	1	0.024456	0.0012315
323.15	1	0.020908	0.0010528
328.15	1	0.018052	0.000909
333.15	1	0.015719	0.0007915
338.15	1	0.013797	0.0006947
343.15	1	0.012198	0.0006142
348.15	1	0.010856	0.0005467
353.15	1	0.00972	0.0004895
358.15	1	0.0087541	0.0004409
363.15	1	0.0079257	0.0003992
283.15	0.751	0.12796	0.006606
288.15	0.751	0.097869	0.0049897
293.15	0.751	0.076327	0.0038594
298.15	0.751	0.060641	0.0030527
303.15	0.751	0.048975	0.0024665
308.15	0.751	0.040138	0.0020213
313.15	0.751	0.033348	0.0016793
318.15	0.751	0.028045	0.0014122
323.15	0.751	0.023853	0.0012011
328.15	0.751	0.020484	0.0010314
333.15	0.751	0.017751	0.0008938
338.15	0.751	0.015514	0.0007812
343.15	0.751	0.01366	0.0006878
348.15	0.751	0.012112	0.0006099
353.15	0.751	0.010807	0.0005442
358.15	0.751	0.0096882	0.0004879
363.15	0.751	0.0087334	0.0004398
283.15	0.498	0.15806	0.0082628
288.15	0.498	0.11967	0.0061571
293.15	0.498	0.092467	0.0047038
298.15	0.498	0.072767	0.003675
303.15	0.498	0.058236	0.0029302
308.15	0.498	0.047312	0.0023826
313.15	0.498	0.038961	0.001962
318.15	0.498	0.032485	0.0016358
323.15	0.498	0.027356	0.0013775
328.15	0.498	0.023288	0.0011726
333.15	0.498	0.020023	0.0010082
338.15	0.498	0.017365	0.0008744
343.15	0.498	0.015186	0.0007647
348.15	0.498	0.013383	0.0006739
353.15	0.498	0.011844	0.0005964
358.15	0.498	0.010551	0.0005313
363.15	0.498	0.0094667	0.0004767
283.15	0.25	0.20083	0.0106757
288.15	0.25	0.14979	0.0078051
293.15	0.25	0.11412	0.0058577
298.15	0.25	0.088561	0.0044981
303.15	0.25	0.069908	0.0035275
308.15	0.25	0.056119	0.0028228
313.15	0.25	0.045704	0.0023016
318.15	0.25	0.037722	0.0018996
323.15	0.25	0.031518	0.0015871
328.15	0.25	0.02663	0.0013409
333.15	0.25	0.022707	0.0011434
338.15	0.25	0.019581	0.000986
343.15	0.25	0.017022	0.0008571
348.15	0.25	0.01491	0.0007508
353.15	0.25	0.013146	0.000662
358.15	0.25	0.011663	0.0005873
363.15	0.25	0.01042	0.0005247
283.15	0	0.26499	0.0144011
288.15	0	0.19243	0.010199
293.15	0	0.14308	0.007435
298.15	0	0.10874	0.005569
303.15	0	0.084284	0.004274
308.15	0	0.06652	0.0033533
313.15	0	0.053372	0.0026839
318.15	0	0.043471	0.0021892
323.15	0	0.035894	0.0018075
328.15	0	0.030014	0.0015114
333.15	0	0.025376	0.0012778
338.15	0	0.021683	0.0010918
343.15	0	0.018696	0.0009414
348.15	0	0.016263	0.0008189
353.15	0	0.014256	0.0007179
358.15	0	0.012591	0.000634
363.15	0	0.011196	0.0005638

System: 1-butyl-3-methylimidazolium hexafluorophosphate + 1-butyl-3-methylimidazolium bis(trifluoromethylsulfonyl)imide; phases: Liquid
Fixed: Pressure, kPa = 100
Property: Mass density, kg/m3 (Liquid); method: Vibrating tube method
Temperature, K	Mole fraction of 1-butyl-3-methylimidazolium bis(trifluoromethylsulfonyl)imide	Mass density, kg/m3	uncertainty
283.15	1	1451.8	0.8
288.15	1	1446.9	0.8
293.15	1	1442.1	0.8
298.15	1	1437.2	0.8
303.15	1	1432.4	0.7
308.15	1	1427.6	0.7
313.15	1	1422.8	0.7
318.15	1	1418.1	0.7
323.15	1	1413.4	0.7
328.15	1	1408.7	0.7
333.15	1	1404	0.7
338.15	1	1399.3	0.7
343.15	1	1394.7	0.7
348.15	1	1390.1	0.7
353.15	1	1385.5	0.7
358.15	1	1381	0.7
363.15	1	1376.4	0.7
283.15	0.748	1437.4	0.8
288.15	0.748	1433.1	0.7
293.15	0.748	1428.4	0.7
298.15	0.748	1423.7	0.7
303.15	0.748	1419	0.7
308.15	0.748	1414.3	0.7
313.15	0.748	1409.7	0.7
318.15	0.748	1405.1	0.7
323.15	0.748	1400.5	0.7
328.15	0.748	1395.9	0.7
333.15	0.748	1391.3	0.7
338.15	0.748	1386.8	0.7
343.15	0.748	1382.3	0.7
348.15	0.748	1377.9	0.7
353.15	0.748	1373.4	0.7
358.15	0.748	1369	0.7
363.15	0.748	1364.6	0.7
283.15	0.5	1421.1	0.7
288.15	0.5	1417.2	0.7
293.15	0.5	1412.6	0.7
298.15	0.5	1408	0.7
303.15	0.5	1403.5	0.7
308.15	0.5	1399	0.7
313.15	0.5	1394.5	0.7
318.15	0.5	1390	0.7
323.15	0.5	1385.6	0.7
328.15	0.5	1381.2	0.7
333.15	0.5	1376.7	0.7
338.15	0.5	1372.3	0.7
343.15	0.5	1368	0.7
348.15	0.5	1363.6	0.7
353.15	0.5	1359.3	0.7
358.15	0.5	1355.1	0.7
363.15	0.5	1350.8	0.7
283.15	0.25	1402.5	0.7
288.15	0.25	1398.3	0.7
293.15	0.25	1393.8	0.7
298.15	0.25	1389.4	0.7
303.15	0.25	1385	0.7
308.15	0.25	1380.7	0.7
313.15	0.25	1376.4	0.7
318.15	0.25	1372.1	0.7
323.15	0.25	1367.9	0.7
328.15	0.25	1363.6	0.7
333.15	0.25	1359.4	0.7
338.15	0.25	1355.2	0.7
343.15	0.25	1351	0.7
348.15	0.25	1346.9	0.7
353.15	0.25	1342.7	0.7
358.15	0.25	1338.6	0.7
363.15	0.25	1334.6	0.7
283.15	0	1379.9	0.7
288.15	0	1376.5	0.7
293.15	0	1372	0.7
298.15	0	1367.6	0.7
303.15	0	1363.4	0.7
308.15	0	1359.2	0.7
313.15	0	1355.1	0.7
318.15	0	1351	0.7
323.15	0	1347	0.7
328.15	0	1342.9	0.7
333.15	0	1338.9	0.7
338.15	0	1334.9	0.7
343.15	0	1330.9	0.7
348.15	0	1326.9	0.7
353.15	0	1323	0.7
358.15	0	1319	0.7
363.15	0	1315.2	0.7

System: 1-butyl-3-methylimidazolium hexafluorophosphate + 1-butyl-3-methylimidazolium bis(trifluoromethylsulfonyl)imide; phases: Liquid
Fixed: Pressure, kPa = 100
Property: Viscosity, Pa*s (Liquid); method: Concentric cylinders viscometry
Temperature, K	Mole fraction of 1-butyl-3-methylimidazolium bis(trifluoromethylsulfonyl)imide	Viscosity, Pa*s	uncertainty
283.15	1	0.10677	0.0054623
288.15	1	0.082163	0.0041633
293.15	1	0.064531	0.0032515
298.15	1	0.051601	0.0025946
303.15	1	0.041933	0.0021118
308.15	1	0.034585	0.0017416
313.15	1	0.028907	0.0014556
318.15	1	0.024456	0.0012315
323.15	1	0.020908	0.0010528
328.15	1	0.018052	0.000909
333.15	1	0.015719	0.0007915
338.15	1	0.013797	0.0006947
343.15	1	0.012198	0.0006142
348.15	1	0.010856	0.0005467
353.15	1	0.00972	0.0004895
358.15	1	0.0087541	0.0004409
363.15	1	0.0079257	0.0003992
283.15	0.748	0.14825	0.0077214
288.15	0.748	0.11257	0.0057746
293.15	0.748	0.087233	0.0044285
298.15	0.748	0.068875	0.0034743
303.15	0.748	0.055303	0.0027815
308.15	0.748	0.045077	0.0022701
313.15	0.748	0.037247	0.0018757
318.15	0.748	0.031165	0.0015693
323.15	0.748	0.026376	0.0013281
328.15	0.748	0.022556	0.0011358
333.15	0.748	0.019471	0.0009804
338.15	0.748	0.016955	0.0008537
343.15	0.748	0.01488	0.0007493
348.15	0.748	0.013148	0.0006621
353.15	0.748	0.011698	0.0005891
358.15	0.748	0.010473	0.0005274
363.15	0.748	0.0094276	0.0004747
283.15	0.5	0.22131	0.0118573
288.15	0.5	0.16604	0.0087089
293.15	0.5	0.12616	0.0065088
298.15	0.5	0.097744	0.0049828
303.15	0.5	0.077094	0.003899
308.15	0.5	0.06182	0.0031127
313.15	0.5	0.050313	0.0025296
318.15	0.5	0.041516	0.0020906
323.15	0.5	0.03468	0.0017463
328.15	0.5	0.029299	0.0014753
333.15	0.5	0.025002	0.0012589
338.15	0.5	0.021534	0.0010843
343.15	0.5	0.018705	0.0009418
348.15	0.5	0.016376	0.0008246
353.15	0.5	0.014442	0.0007272
358.15	0.5	0.012824	0.0006457
363.15	0.5	0.011455	0.0005768
283.15	0.25	0.36025	0.0201756
288.15	0.25	0.26471	0.0143886
293.15	0.25	0.19639	0.0104233
298.15	0.25	0.14896	0.0077587
303.15	0.25	0.11508	0.005909
308.15	0.25	0.09044	0.0045967
313.15	0.25	0.072177	0.0036443
318.15	0.25	0.058449	0.002941
323.15	0.25	0.047959	0.0024152
328.15	0.25	0.039841	0.0020063
333.15	0.25	0.033466	0.0016852
338.15	0.25	0.028386	0.0014293
343.15	0.25	0.024305	0.0012238
348.15	0.25	0.020992	0.001057
353.15	0.25	0.018288	0.0009209
358.15	0.25	0.016042	0.0008078
363.15	0.25	0.014168	0.0007133
283.15	0	0.79433	0.0482411
288.15	0	0.55727	0.0325627
293.15	0	0.39386	0.0222088
298.15	0	0.28502	0.0155923
303.15	0	0.21093	0.0112548
308.15	0	0.15946	0.008341
313.15	0	0.12278	0.0063247
318.15	0	0.096281	0.0049048
323.15	0	0.076721	0.0038794
328.15	0	0.062044	0.0031239
333.15	0	0.050855	0.0025567
338.15	0	0.042201	0.002125
343.15	0	0.035427	0.0017839
348.15	0	0.030038	0.0015125
353.15	0	0.025722	0.0012952
358.15	0	0.022222	0.0011189
363.15	0	0.019363	0.000975

System: 1-butyl-3-methylimidazolium bis(trifluoromethylsulfonyl)imide + 1-butyl-3-methylimidazolium acetate; phases: Liquid
Fixed: Pressure, kPa = 100
Property: Mass density, kg/m3 (Liquid); method: Vibrating tube method
Temperature, K	Mole fraction of 1-butyl-3-methylimidazolium bis(trifluoromethylsulfonyl)imide	Mass density, kg/m3	uncertainty
283.15	1	1451.8	0.8
288.15	1	1446.9	0.8
293.15	1	1442.1	0.8
298.15	1	1437.2	0.8
303.15	1	1432.4	0.7
308.15	1	1427.6	0.7
313.15	1	1422.9	0.7
318.15	1	1418.2	0.7
323.15	1	1413.5	0.7
328.15	1	1408.8	0.7
333.15	1	1404.1	0.7
338.15	1	1399.4	0.7
343.15	1	1394.8	0.7
348.15	1	1390.2	0.7
353.15	1	1385.6	0.7
358.15	1	1381.1	0.7
363.15	1	1376.6	0.7
283.15	0.749	1381.4	0.9
288.15	0.749	1376.8	0.9
293.15	0.749	1372.3	0.9
298.15	0.749	1367.8	0.9
303.15	0.749	1363.3	0.9
308.15	0.749	1358.8	0.8
313.15	0.749	1354.3	0.8
318.15	0.749	1349.9	0.8
323.15	0.749	1345.4	0.8
328.15	0.749	1341	0.8
333.15	0.749	1336.6	0.8
338.15	0.749	1332.3	0.8
343.15	0.749	1327.9	0.8
348.15	0.749	1323.6	0.8
353.15	0.749	1319.4	0.8
358.15	0.749	1315.1	0.8
363.15	0.749	1310.9	0.8
283.15	0.498	1296.5	1
288.15	0.498	1292.2	1
293.15	0.498	1288	1
298.15	0.498	1283.8	1
303.15	0.498	1279.7	0.9
308.15	0.498	1275.7	0.9
313.15	0.498	1271.6	0.9
318.15	0.498	1267.5	0.9
323.15	0.498	1263.5	0.9
328.15	0.498	1259.4	0.9
333.15	0.498	1255.4	0.9
338.15	0.498	1251.4	0.9
343.15	0.498	1247.5	0.9
348.15	0.498	1243.5	0.9
353.15	0.498	1239.6	0.9
358.15	0.498	1235.7	0.9
363.15	0.498	1231.8	0.9
283.15	0.25	1193.2	1
288.15	0.25	1189.4	1
293.15	0.25	1185.6	1
298.15	0.25	1181.9	1
303.15	0.25	1178.3	1
308.15	0.25	1174.7	1
313.15	0.25	1171.1	1
318.15	0.25	1167.5	1
323.15	0.25	1163.9	1
328.15	0.25	1160.3	1
333.15	0.25	1156.8	1
338.15	0.25	1153.2	1
343.15	0.25	1149.7	1
348.15	0.25	1146.1	1
353.15	0.25	1142.6	1
358.15	0.25	1139.1	1
363.15	0.25	1135.6	1
283.15	0	1062.7	1
288.15	0	1059.4	1
293.15	0	1056	1
298.15	0	1052.8	1
303.15	0	1049.7	1
308.15	0	1046.6	1
313.15	0	1043.5	1
318.15	0	1040.5	1
323.15	0	1037.5	1
328.15	0	1034.5	1
333.15	0	1031.5	1
338.15	0	1028.5	1
343.15	0	1025.6	1
348.15	0	1022.6	1
353.15	0	1019.7	0.9
358.15	0	1016.7	0.9
363.15	0	1013.9	0.9

System: 1-butyl-3-methylimidazolium bis(trifluoromethylsulfonyl)imide + 1-butyl-3-methylimidazolium acetate; phases: Liquid
Fixed: Pressure, kPa = 100
Property: Viscosity, Pa*s (Liquid); method: Concentric cylinders viscometry
Temperature, K	Mole fraction of 1-butyl-3-methylimidazolium bis(trifluoromethylsulfonyl)imide	Viscosity, Pa*s	uncertainty
283.15	1	0.10678	0.0054629
288.15	1	0.082142	0.004162
293.15	1	0.066356	0.0033449
298.15	1	0.05158	0.0025938
303.15	1	0.04194	0.0021121
308.15	1	0.034601	0.0017424
313.15	1	0.029479	0.0014844
318.15	1	0.024472	0.0012323
323.15	1	0.020928	0.0010538
328.15	1	0.018071	0.0009099
333.15	1	0.015947	0.000803
338.15	1	0.013828	0.0006963
343.15	1	0.012234	0.000616
348.15	1	0.010898	0.0005488
353.15	1	0.009985	0.0005028
358.15	1	0.008806	0.0004435
363.15	1	0.0079803	0.0004019
283.15	0.749	0.1751	0.0092478
288.15	0.749	0.12987	0.0067289
293.15	0.749	0.10185	0.0052153
298.15	0.749	0.076324	0.0038707
303.15	0.749	0.060267	0.0030422
308.15	0.749	0.048439	0.0024462
313.15	0.749	0.040339	0.0020371
318.15	0.749	0.032702	0.0016515
323.15	0.749	0.027359	0.0013815
328.15	0.749	0.023178	0.0011704
333.15	0.749	0.020113	0.0010156
338.15	0.749	0.017145	0.0008658
343.15	0.749	0.014955	0.0007552
348.15	0.749	0.013127	0.0006628
353.15	0.749	0.011891	0.0006004
358.15	0.749	0.010347	0.0005225
363.15	0.749	0.0092719	0.0004682
283.15	0.498	0.31072	0.0172343
288.15	0.498	0.22024	0.0118597
293.15	0.498	0.15918	0.0083755
298.15	0.498	0.11972	0.0061968
303.15	0.498	0.091377	0.0046749
308.15	0.498	0.07114	0.0036133
313.15	0.498	0.056475	0.0028586
318.15	0.498	0.045443	0.0023028
323.15	0.498	0.037162	0.001883
328.15	0.498	0.030802	0.0015607
333.15	0.498	0.026092	0.001322
338.15	0.498	0.021927	0.001111
343.15	0.498	0.018788	0.0009519
348.15	0.498	0.016247	0.0008231
353.15	0.498	0.01449	0.0007341
358.15	0.498	0.012454	0.000631
363.15	0.498	0.011024	0.0005586
283.15	0.25	0.57738	0.0341368
288.15	0.25	0.38558	0.0218831
293.15	0.25	0.26543	0.0145622
298.15	0.25	0.18958	0.0101305
303.15	0.25	0.13872	0.007265
308.15	0.25	0.104	0.0053686
313.15	0.25	0.079571	0.0040688
318.15	0.25	0.062278	0.0031682
323.15	0.25	0.049567	0.0025217
328.15	0.25	0.040094	0.0020396
333.15	0.25	0.033138	0.0016857
338.15	0.25	0.027382	0.0013929
343.15	0.25	0.023054	0.0011727
348.15	0.25	0.019626	0.0009982
353.15	0.25	0.017208	0.0008753
358.15	0.25	0.014643	0.0007449
363.15	0.25	0.012813	0.0006518
283.15	0	1.0134	0.0639169
288.15	0	0.6456	0.0387616
293.15	0	0.42135	0.0242078
298.15	0	0.29257	0.0162466
303.15	0	0.20668	0.0111592
308.15	0	0.15008	0.00793
313.15	0	0.11079	0.0057603
318.15	0	0.085027	0.0043756
323.15	0	0.066071	0.0033794
328.15	0	0.052293	0.0026683
333.15	0	0.042287	0.0021609
338.15	0	0.034385	0.0017571
343.15	0	0.028476	0.001455
348.15	0	0.023878	0.00122
353.15	0	0.020631	0.0010541
358.15	0	0.017348	0.0008864
363.15	0	0.015003	0.0007666

System: 1-butyl-3-methylimidazolium trifluoromethanesulfonate + 1-butyl-3-methylimidazolium bis(trifluoromethylsulfonyl)imide; phases: Liquid
Fixed: Pressure, kPa = 100
Property: Mass density, kg/m3 (Liquid); method: Vibrating tube method
Temperature, K	Mole fraction of 1-butyl-3-methylimidazolium bis(trifluoromethylsulfonyl)imide	Mass density, kg/m3	uncertainty
283.15	1	1451.8	0.8
288.15	1	1446.9	0.8
293.15	1	1442.1	0.8
298.15	1	1437.2	0.8
303.15	1	1432.4	0.7
308.15	1	1427.6	0.7
313.15	1	1422.9	0.7
318.15	1	1418.2	0.7
323.15	1	1413.5	0.7
328.15	1	1408.8	0.7
333.15	1	1404.1	0.7
338.15	1	1399.4	0.7
343.15	1	1394.8	0.7
348.15	1	1390.2	0.7
353.15	1	1385.6	0.7
358.15	1	1381.1	0.7
363.15	1	1376.6	0.7
283.15	0.746	1421.8	0.7
288.15	0.746	1417.1	0.7
293.15	0.746	1412.4	0.7
298.15	0.746	1407.8	0.7
303.15	0.746	1403.2	0.7
308.15	0.746	1398.6	0.7
313.15	0.746	1394	0.7
318.15	0.746	1389.4	0.7
323.15	0.746	1384.9	0.7
328.15	0.746	1380.4	0.7
333.15	0.746	1376	0.7
338.15	0.746	1371.5	0.7
343.15	0.746	1367.1	0.7
348.15	0.746	1362.6	0.7
353.15	0.746	1358.2	0.7
358.15	0.746	1353.8	0.7
363.15	0.746	1349.5	0.7
283.15	0.5	1389	0.7
288.15	0.5	1384.4	0.7
293.15	0.5	1379.9	0.7
298.15	0.5	1375.5	0.7
303.15	0.5	1371	0.7
308.15	0.5	1366.6	0.7
313.15	0.5	1362.2	0.7
318.15	0.5	1357.8	0.7
323.15	0.5	1353.5	0.7
328.15	0.5	1349.2	0.7
333.15	0.5	1344.9	0.7
338.15	0.5	1340.6	0.7
343.15	0.5	1336.3	0.7
348.15	0.5	1332	0.7
353.15	0.5	1327.8	0.7
358.15	0.5	1323.5	0.7
363.15	0.5	1319.3	0.7
283.15	0.25	1352.7	0.7
288.15	0.25	1348.3	0.7
293.15	0.25	1344	0.7
298.15	0.25	1339.8	0.7
303.15	0.25	1335.5	0.7
308.15	0.25	1331.3	0.7
313.15	0.25	1327	0.7
318.15	0.25	1322.8	0.7
323.15	0.25	1318.7	0.7
328.15	0.25	1314.5	0.7
333.15	0.25	1310.4	0.7
338.15	0.25	1306.2	0.7
343.15	0.25	1302.2	0.7
348.15	0.25	1298.1	0.7
353.15	0.25	1294	0.7
358.15	0.25	1290	0.7
363.15	0.25	1286.1	0.7
283.15	0	1308.4	0.7
288.15	0	1304.3	0.7
293.15	0	1300.3	0.7
298.15	0	1296.3	0.7
303.15	0	1292.3	0.7
308.15	0	1288.4	0.7
313.15	0	1284.5	0.7
318.15	0	1280.6	0.7
323.15	0	1276.7	0.7
328.15	0	1272.8	0.7
333.15	0	1268.9	0.7
338.15	0	1265.1	0.7
343.15	0	1261.3	0.6
348.15	0	1257.5	0.6
353.15	0	1253.7	0.6
358.15	0	1249.9	0.6
363.15	0	1246.2	0.6

System: 1-butyl-3-methylimidazolium trifluoromethanesulfonate + 1-butyl-3-methylimidazolium bis(trifluoromethylsulfonyl)imide; phases: Liquid
Fixed: Pressure, kPa = 100
Property: Viscosity, Pa*s (Liquid); method: Concentric cylinders viscometry
Temperature, K	Mole fraction of 1-butyl-3-methylimidazolium bis(trifluoromethylsulfonyl)imide	Viscosity, Pa*s	uncertainty
283.15	1	0.10678	0.0054629
288.15	1	0.082142	0.004162
293.15	1	0.066356	0.0033449
298.15	1	0.05158	0.0025938
303.15	1	0.04194	0.0021121
308.15	1	0.034601	0.0017424
313.15	1	0.029479	0.0014844
318.15	1	0.024472	0.0012323
323.15	1	0.020928	0.0010538
328.15	1	0.018071	0.0009099
333.15	1	0.015947	0.000803
338.15	1	0.013828	0.0006963
343.15	1	0.012234	0.000616
348.15	1	0.010898	0.0005488
353.15	1	0.009985	0.0005028
358.15	1	0.008806	0.0004435
363.15	1	0.0079803	0.0004019
283.15	0.746	0.14579	0.0075785
288.15	0.746	0.1115	0.0057167
293.15	0.746	0.087296	0.0044316
298.15	0.746	0.068684	0.0034644
303.15	0.746	0.055861	0.0028096
308.15	0.746	0.045795	0.0023061
313.15	0.746	0.038101	0.0019186
318.15	0.746	0.0322	0.0016214
323.15	0.746	0.02744	0.0013817
328.15	0.746	0.023466	0.0011816
333.15	0.746	0.020273	0.0010208
338.15	0.746	0.017604	0.0008864
343.15	0.746	0.015457	0.0007783
348.15	0.746	0.013662	0.0006879
353.15	0.746	0.012227	0.0006157
358.15	0.746	0.010929	0.0005503
363.15	0.746	0.0099093	0.0004992
283.15	0.5	0.145	0.0075396
288.15	0.5	0.10934	0.0056014
293.15	0.5	0.084529	0.0042869
298.15	0.5	0.066622	0.0033586
303.15	0.5	0.053393	0.0026849
308.15	0.5	0.043559	0.0021936
313.15	0.5	0.03596	0.0018108
318.15	0.5	0.03015	0.0015182
323.15	0.5	0.025432	0.0012806
328.15	0.5	0.021659	0.0010906
333.15	0.5	0.01855	0.0009341
338.15	0.5	0.01608	0.0008097
343.15	0.5	0.014132	0.0007116
348.15	0.5	0.012541	0.0006315
353.15	0.5	0.011183	0.0005631
358.15	0.5	0.0099806	0.0005026
363.15	0.5	0.0089726	0.0004518
283.15	0.25	0.1547	0.0080825
288.15	0.25	0.11706	0.0060162
293.15	0.25	0.090691	0.0046102
298.15	0.25	0.071417	0.0036053
303.15	0.25	0.057294	0.0028824
308.15	0.25	0.046662	0.0023499
313.15	0.25	0.038523	0.0019399
318.15	0.25	0.03219	0.0016209
323.15	0.25	0.027212	0.0013702
328.15	0.25	0.023236	0.00117
333.15	0.25	0.020057	0.0010099
338.15	0.25	0.017397	0.000876
343.15	0.25	0.015234	0.0007671
348.15	0.25	0.013429	0.0006762
353.15	0.25	0.011944	0.0006014
358.15	0.25	0.010634	0.0005355
363.15	0.25	0.0095407	0.0004804
283.15	0	0.22561	0.0120982
288.15	0	0.16805	0.0088213
293.15	0	0.12851	0.0066363
298.15	0	0.099144	0.005057
303.15	0	0.07826	0.0039595
308.15	0	0.062755	0.0031603
313.15	0	0.051328	0.0025806
318.15	0	0.042099	0.00212
323.15	0	0.035127	0.0017688
328.15	0	0.029632	0.0014921
333.15	0	0.025498	0.0012839
338.15	0	0.02172	0.0010937
343.15	0	0.01884	0.0009486
348.15	0	0.016474	0.0008295
353.15	0	0.014834	0.0007469
358.15	0	0.012864	0.0006478
363.15	0	0.011476	0.0005779

System: 1-butyl-3-methylimidazolium bis(trifluoromethylsulfonyl)imide + 1-butyl-3-methyl-1H-imidazolium dimethylphosphate; phases: Liquid
Fixed: Pressure, kPa = 100
Property: Mass density, kg/m3 (Liquid); method: Vibrating tube method
Temperature, K	Mole fraction of 1-butyl-3-methylimidazolium bis(trifluoromethylsulfonyl)imide	Mass density, kg/m3	uncertainty
283.15	1	1451.8	0.8
288.15	1	1446.9	0.8
293.15	1	1442.1	0.8
298.15	1	1437.2	0.8
303.15	1	1432.4	0.7
308.15	1	1427.6	0.7
313.15	1	1422.9	0.7
318.15	1	1418.2	0.7
323.15	1	1413.5	0.7
328.15	1	1408.8	0.7
333.15	1	1404.1	0.7
338.15	1	1399.4	0.7
343.15	1	1394.8	0.7
348.15	1	1390.2	0.7
353.15	1	1385.6	0.7
358.15	1	1381.1	0.7
363.15	1	1376.6	0.7
283.15	0.747	1390.6	0.9
288.15	0.747	1386	0.9
293.15	0.747	1381.5	0.9
298.15	0.747	1377	0.9
303.15	0.747	1372.5	0.9
308.15	0.747	1368.1	0.9
313.15	0.747	1363.6	0.9
318.15	0.747	1359.2	0.8
323.15	0.747	1354.8	0.8
328.15	0.747	1350.4	0.8
333.15	0.747	1346	0.8
338.15	0.747	1341.7	0.8
343.15	0.747	1337.4	0.8
348.15	0.747	1333.1	0.8
353.15	0.747	1328.8	0.8
358.15	0.747	1324.6	0.8
363.15	0.747	1320.4	0.8
283.15	0.501	1325.1	1
288.15	0.501	1320.6	1
293.15	0.501	1316.2	1
298.15	0.501	1312	1
303.15	0.501	1307.8	1
308.15	0.501	1303.7	1
313.15	0.501	1299.7	1
318.15	0.501	1295.6	1
323.15	0.501	1291.6	1
328.15	0.501	1287.6	1
333.15	0.501	1283.5	1
338.15	0.501	1279.5	0.9
343.15	0.501	1275.6	0.9
348.15	0.501	1271.6	0.9
353.15	0.501	1267.7	0.9
358.15	0.501	1263.7	0.9
363.15	0.501	1259.9	0.9
283.15	0.25	1251	1.1
288.15	0.25	1247	1.1
293.15	0.25	1243.1	1.1
298.15	0.25	1239.1	1.1
303.15	0.25	1235.2	1.1
308.15	0.25	1231.4	1.1
313.15	0.25	1227.7	1.1
318.15	0.25	1224.1	1.1
323.15	0.25	1220.4	1.1
328.15	0.25	1216.8	1.1
333.15	0.25	1213.2	1.1
338.15	0.25	1209.7	1.1
343.15	0.25	1206.1	1
348.15	0.25	1202.5	1
353.15	0.25	1199	1
358.15	0.25	1195.5	1
363.15	0.25	1192	1
283.15	0	1168.4	1.2
288.15	0	1164.9	1.2
293.15	0	1161.4	1.2
298.15	0	1157.9	1.2
303.15	0	1154.3	1.2
308.15	0	1150.9	1.2
313.15	0	1147.6	1.2
318.15	0	1144.3	1.2
323.15	0	1141	1.2
328.15	0	1137.8	1.1
333.15	0	1134.6	1.1
338.15	0	1131.4	1.1
343.15	0	1128.3	1.1
348.15	0	1125.1	1.1
353.15	0	1122	1.1
358.15	0	1118.9	1.1
363.15	0	1115.7	1.1

System: 1-butyl-3-methylimidazolium bis(trifluoromethylsulfonyl)imide + 1-butyl-3-methyl-1H-imidazolium dimethylphosphate; phases: Liquid
Fixed: Pressure, kPa = 100
Property: Viscosity, Pa*s (Liquid); method: Concentric cylinders viscometry
Temperature, K	Mole fraction of 1-butyl-3-methylimidazolium bis(trifluoromethylsulfonyl)imide	Viscosity, Pa*s	uncertainty
283.15	1	0.10678	0.0054629
288.15	1	0.082142	0.004162
293.15	1	0.066356	0.0033449
298.15	1	0.05158	0.0025938
303.15	1	0.04194	0.0021121
308.15	1	0.034601	0.0017424
313.15	1	0.029479	0.0014844
318.15	1	0.024472	0.0012323
323.15	1	0.020928	0.0010538
328.15	1	0.018071	0.0009099
333.15	1	0.015947	0.000803
338.15	1	0.013828	0.0006963
343.15	1	0.012234	0.000616
348.15	1	0.010898	0.0005488
353.15	1	0.009985	0.0005028
358.15	1	0.008806	0.0004435
363.15	1	0.0079803	0.0004019
283.15	0.747	0.25151	0.0136836
288.15	0.747	0.1836	0.0097236
293.15	0.747	0.1373	0.0071367
298.15	0.747	0.10486	0.0053765
303.15	0.747	0.081713	0.0041513
308.15	0.747	0.064812	0.003275
313.15	0.747	0.052462	0.0026454
318.15	0.747	0.042722	0.0021576
323.15	0.747	0.035402	0.0017878
328.15	0.747	0.029688	0.0014992
333.15	0.747	0.02542	0.0012836
338.15	0.747	0.021556	0.0010885
343.15	0.747	0.018628	0.0009406
348.15	0.747	0.016232	0.0008196
353.15	0.747	0.014572	0.0007358
358.15	0.747	0.012605	0.0006365
363.15	0.747	0.011217	0.0005664
283.15	0.501	0.63061	0.0375626
288.15	0.501	0.4333	0.0247914
293.15	0.501	0.30149	0.0166656
298.15	0.501	0.22226	0.0119736
303.15	0.501	0.16515	0.0087088
308.15	0.501	0.12535	0.0065029
313.15	0.501	0.096268	0.0049342
318.15	0.501	0.076392	0.0038861
323.15	0.501	0.061136	0.0030968
328.15	0.501	0.049652	0.0025158
333.15	0.501	0.041066	0.0020807
338.15	0.501	0.034048	0.0017251
343.15	0.501	0.028686	0.0014533
348.15	0.501	0.024417	0.001237
353.15	0.501	0.021362	0.0010822
358.15	0.501	0.018178	0.000921
363.15	0.501	0.015879	0.0008045
283.15	0.25	1.4337	0.0938825
288.15	0.25	0.93025	0.0579609
293.15	0.25	0.61801	0.0367964
298.15	0.25	0.43255	0.0248162
303.15	0.25	0.30785	0.0171032
308.15	0.25	0.22453	0.0121481
313.15	0.25	0.16625	0.0088022
318.15	0.25	0.12753	0.0066463
323.15	0.25	0.098918	0.0050947
328.15	0.25	0.07804	0.0039877
333.15	0.25	0.062705	0.0031898
338.15	0.25	0.050834	0.0025817
343.15	0.25	0.041865	0.0021296
348.15	0.25	0.034896	0.001775
353.15	0.25	0.029799	0.0015157
358.15	0.25	0.025026	0.0012729
363.15	0.25	0.021499	0.0010936
283.15	0	2.3156	0.1609452
288.15	0	1.4546	0.0957313
293.15	0	0.94397	0.0590858
298.15	0	0.64171	0.0384826
303.15	0	0.44692	0.0258146
308.15	0	0.31933	0.0178657
313.15	0	0.2321	0.0126397
318.15	0	0.1747	0.0093178
323.15	0	0.13337	0.0069972
328.15	0	0.10362	0.0053703
333.15	0	0.081972	0.004213
338.15	0	0.065623	0.0033555
343.15	0	0.053395	0.0027244
348.15	0	0.044013	0.0022488
353.15	0	0.037081	0.0018946
358.15	0	0.030935	0.0015806
363.15	0	0.026332	0.0013455
