Measured thermophysical data. Isopiestic Measurements of Water Activity for the Li2SO4 MgSO4 H2O System at 323.15 and 373.15 K
Source: J. Chem. Eng. Data, 2016, 10.1021/acs.jced.6b00239
Compound 1: magnesium sulfate, MgO4S, InChI=1S/Mg.H2O4S/c;1-5(2,3)4/h;(H2,1,2,3,4)/q+2;/p-2, purity 99.9%
Compound 2: lithium sulfate, Li2O4S, InChI=1S/2Li.H2O4S/c;;1-5(2,3)4/h;;(H2,1,2,3,4)/q2*+1;/p-2
Compound 3: water, H2O, InChI=1S/H2O/h1H2, purity 99.9%

System: magnesium sulfate + water + lithium sulfate; phases: Liquid
Fixed: Pressure, kPa = 100
Property: (Relative) activity of water (Liquid); method: isopiestic
Temperature, K	Molality, mol/kg of lithium sulfate	Molality, mol/kg of magnesium sulfate	(Relative) activity of water	uncertainty
323.15	0	0.2019	0.996	0.05
323.15	0.03286	0.1315	0.996	0.05
323.15	0.0543	0.06636	0.996	0.05
323.15	0.07712	0.03421	0.996	0.05
323.15	0.09343	0	0.996	0.05
323.15	0	2.7475	0.9288	0.05
323.15	0.4995	1.9981	0.9288	0.05
323.15	0.9929	1.2134	0.9288	0.05
323.15	1.3606	0.6035	0.9288	0.05
323.15	1.7041	0	0.9288	0.05
323.15	0	0.7045	0.9876	0.05
323.15	0.1114	0.4457	0.9876	0.05
323.15	0.1969	0.2407	0.9876	0.05
323.15	0.2554	0.1133	0.9876	0.05
323.15	0.3019	0	0.9876	0.05
323.15	0	2.8482	0.9241	0.05
323.15	0.5208	2.0834	0.9241	0.05
323.15	1.0423	1.2738	0.9241	0.05
323.15	1.4343	0.6362	0.9241	0.05
323.15	1.8014	0	0.9241	0.05
323.15	0	1.3735	0.9743	0.05
323.15	0.2258	0.9033	0.9743	0.05
323.15	0.4098	0.5008	0.9743	0.05
323.15	0.5339	0.2368	0.9743	0.05
323.15	0.6373	0	0.9743	0.05
323.15	0	3.2979	0.9	0.05
323.15	0.6173	2.4695	0.9	0.05
323.15	1.2702	1.5522	0.9	0.05
323.15	1.7879	0.793	0.9	0.05
323.15	2.2995	0	0.9	0.05
323.15	0	2.1716	0.9518	0.05
323.15	0.3803	1.5214	0.9518	0.05
323.15	0.7267	0.8881	0.9518	0.05
323.15	0.9684	0.4295	0.9518	0.05
323.15	1.1839	0	0.9518	0.05
323.15	0	3.4375	0.892	0.05
323.15	0.6473	2.5894	0.892	0.05
323.15	1.3416	1.6396	0.892	0.05
323.15	1.9014	0.8434	0.892	0.05
323.15	2.462	0	0.892	0.05
323.15	0	2.2073	0.9507	0.05
323.15	0.3873	1.5493	0.9507	0.05
323.15	0.7437	0.9089	0.9507	0.05
323.15	0.9919	0.44	0.9507	0.05
323.15	1.2143	0	0.9507	0.05
323.15	0	3.7101	0.8737	0.05
323.15	0.7077	2.8312	0.8737	0.05
323.15	1.487	1.8172	0.8737	0.05
323.15	2.1313	0.9454	0.8737	0.05
323.15	2.8063	0	0.8737	0.05
323.15	0	2.5516	0.9374	0.05
323.15	0.4583	1.8336	0.9374	0.05
323.15	0.9009	1.101	0.9374	0.05
323.15	1.2206	0.5414	0.9374	0.05
323.15	1.5135	0	0.9374	0.05
323.15	0	3.841	0.8646	0.0501
323.15	0.7359	2.944	0.8646	0.05
323.15	1.5569	1.9026	0.8646	0.05
323.15	2.2489	0.9975	0.8646	0.05
323.15	2.9765	0	0.8646	0.05
323.15	0	2.5581	0.937	0.05
323.15	0.4599	1.84	0.937	0.05
323.15	0.9186	1.1226	0.937	0.05
323.15	1.2245	0.5431	0.937	0.05
323.15	1.5209	0	0.937	0.05
323.15	0	4.3147	0.8262	0.0501
323.15	0.8394	3.3582	0.8262	0.05
323.15	1.8206	2.2249	0.8262	0.05
323.15	3.6602	1.6235	0.8262	0.05
373.15	0	0.2432	0.9959	0.05
373.15	0.03806	0.1523	0.9959	0.05
373.15	0.06526	0.07975	0.9959	0.05
373.15	0.09037	0.04008	0.9959	0.05
373.15	0.1014	0	0.9959	0.05
373.15	0	2.443	0.9525	0.05
373.15	0.4152	1.6609	0.9525	0.05
373.15	0.7732	0.9449	0.9525	0.05
373.15	1.0094	0.4477	0.9525	0.05
373.15	1.2092	0	0.9525	0.05
373.15	0	0.7581	0.9882	0.05
373.15	0.1145	0.4581	0.9882	0.05
373.15	0.1974	0.2413	0.9882	0.05
373.15	0.2484	0.1102	0.9882	0.05
373.15	0.291	0	0.9882	0.05
373.15	0	2.7029	0.9416	0.05
373.15	0.4748	1.8995	0.9416	0.05
373.15	0.9168	1.098	0.9416	0.05
373.15	1.2192	0.5367	0.9416	0.05
373.15	1.4666	0	0.9416	0.05
373.15	0	0.8141	0.9879	0.0501
373.15	0.1199	0.4795	0.9879	0.05
373.15	0.2128	0.2601	0.9879	0.05
373.15	0.2721	0.1207	0.9879	0.05
373.15	0.3293	0	0.9879	0.05
373.15	0	3.301	0.9197	0.05
373.15	0.5952	2.3811	0.9197	0.05
373.15	1.1819	1.4445	0.9197	0.05
373.15	1.6105	0.7143	0.9197	0.05
373.15	1.9903	0	0.9197	0.05
373.15	0	0.8227	0.983	0.0501
373.15	0.1292	0.517	0.983	0.05
373.15	0.2209	0.2699	0.983	0.05
373.15	0.2895	0.1284	0.983	0.05
373.15	0.3486	0	0.983	0.05
373.15	0	3.5908	0.9057	0.05
373.15	0.6595	2.6386	0.9057	0.05
373.15	1.3296	1.6249	0.9057	0.05
373.15	1.8376	0.8151	0.9057	0.05
373.15	2.304	0	0.9057	0.05
373.15	0	1.2715	0.9799	0.05
373.15	0.1965	0.7862	0.9799	0.05
373.15	0.3421	0.4181	0.9799	0.05
373.15	0.4304	0.1909	0.9799	0.05
373.15	0.5048	0	0.9799	0.05
373.15	0	3.8262	0.8931	0.05
373.15	0.7117	2.8474	0.8931	0.05
373.15	1.456	1.7794	0.8931	0.05
373.15	2.0302	0.9005	0.8931	0.05
373.15	2.5862	0	0.8931	0.05
373.15	0	1.6697	0.9723	0.05
373.15	0.2661	1.0645	0.9723	0.05
373.15	0.4712	0.5759	0.9723	0.05
373.15	0.5981	0.2653	0.9723	0.05
373.15	0.7032	0	0.9723	0.05
373.15	0	4.1806	0.8718	0.05
373.15	0.7878	3.1517	0.8718	0.05
373.15	1.6685	2.0161	0.8718	0.05
373.15	2.3433	1.0394	0.8718	0.05
373.15	3.0487	0	0.8718	0.05
373.15	0	2.1244	0.9616	0.05
373.15	0.3528	1.4112	0.9616	0.05
373.15	0.6418	0.7843	0.9616	0.05
373.15	0.825	0.3659	0.9616	0.05
373.15	0.9782	0	0.9616	0.05

System: magnesium sulfate + water; phases: Liquid
Fixed: Pressure, kPa = 100
Property: (Relative) activity of water (Liquid); method: isopiestic
Temperature, K	Molality, mol/kg of magnesium sulfate	(Relative) activity of water	uncertainty
323.15	0.2019	0.996	0.05
323.15	2.7475	0.9288	0.05
323.15	0.7045	0.9876	0.05
323.15	2.8482	0.9241	0.05
323.15	1.3735	0.9743	0.05
323.15	3.2979	0.9	0.05
323.15	2.1716	0.9518	0.05
323.15	3.4375	0.892	0.05
323.15	2.2073	0.9507	0.05
323.15	3.7101	0.8737	0.05
323.15	2.5516	0.9374	0.05
323.15	3.841	0.8646	0.0501
323.15	2.5581	0.937	0.05
323.15	4.3147	0.8262	0.0501
373.15	0.2432	0.9959	0.05
373.15	2.443	0.9525	0.05
373.15	0.7581	0.9882	0.05
373.15	2.7029	0.9416	0.05
373.15	0.8141	0.9879	0.0501
373.15	3.301	0.9197	0.05
373.15	0.8227	0.983	0.0501
373.15	3.5908	0.9057	0.05
373.15	1.2715	0.9799	0.05
373.15	3.8262	0.8931	0.05
373.15	1.6697	0.9723	0.05
373.15	4.1806	0.8718	0.05
373.15	2.1244	0.9616	0.05

System: water + lithium sulfate; phases: Liquid
Fixed: Pressure, kPa = 100
Property: (Relative) activity of water (Liquid); method: isopiestic
Temperature, K	Molality, mol/kg of lithium sulfate	(Relative) activity of water	uncertainty
323.15	0.09343	0.996	0.05
323.15	1.7041	0.9288	0.05
323.15	0.3019	0.9876	0.05
323.15	1.8014	0.9241	0.05
323.15	0.6373	0.9743	0.05
323.15	2.2995	0.9	0.05
323.15	1.1839	0.9518	0.05
323.15	2.462	0.892	0.05
323.15	1.2143	0.9507	0.05
323.15	2.8063	0.8737	0.05
323.15	1.5135	0.9374	0.05
323.15	2.9765	0.8646	0.05
323.15	1.5209	0.937	0.05
373.15	0.1014	0.9959	0.05
373.15	1.2092	0.9525	0.05
373.15	0.291	0.9882	0.05
373.15	1.4666	0.9416	0.05
373.15	0.3293	0.9879	0.05
373.15	1.9903	0.9197	0.05
373.15	0.3486	0.983	0.05
373.15	2.304	0.9057	0.05
373.15	0.5048	0.9799	0.05
373.15	2.5862	0.8931	0.05
373.15	0.7032	0.9723	0.05
373.15	3.0487	0.8718	0.05
373.15	0.9782	0.9616	0.05
