Measured thermophysical data. Determination and Modeling of d-Histidine Solubility in Several Pure Solvents from 293.15 to 333.15 K
Source: J. Chem. Eng. Data, 2019, 10.1021/acs.jced.9b00659
Compound 1: D-histidine, C6H9N3O2, InChI=1S/C6H9N3O2/c7-5(6(10)11)1-4-2-8-3-9-4/h2-3,5H,1,7H2,(H,8,9)(H,10,11)/t5-/m1/s1, purity 98.4%
Compound 2: water, H2O, InChI=1S/H2O/h1H2, purity 99.9%
Compound 3: methanol, CH4O, InChI=1S/CH4O/c1-2/h2H,1H3, purity 99.7%
Compound 4: ethanol, C2H6O, InChI=1S/C2H6O/c1-2-3/h3H,2H2,1H3, purity 99.5%
Compound 5: propan-1-ol, C3H8O, InChI=1S/C3H8O/c1-2-3-4/h4H,2-3H2,1H3, purity 99.7%
Compound 6: propan-2-ol, C3H8O, InChI=1S/C3H8O/c1-3(2)4/h3-4H,1-2H3, purity 99.4%
Compound 7: butan-1-ol, C4H10O, InChI=1S/C4H10O/c1-2-3-4-5/h5H,2-4H2,1H3, purity 99.7%
Compound 8: 2-methyl-1-propanol, C4H10O, InChI=1S/C4H10O/c1-4(2)3-5/h4-5H,3H2,1-2H3, purity 99.5%
Compound 9: dimethyl sulfoxide, C2H6OS, InChI=1S/C2H6OS/c1-4(2)3/h1-2H3, purity 99.6%
Compound 10: dimethylformamide, C3H7NO, InChI=1S/C3H7NO/c1-4(2)3-5/h3H,1-2H3, purity 99.5%
Compound 11: N-methylpyrrolidone, C5H9NO, InChI=1S/C5H9NO/c1-6-4-2-3-5(6)7/h2-4H2,1H3, purity 99.5%
Compound 12: 1,4-dioxane, C4H8O2, InChI=1S/C4H8O2/c1-2-6-4-3-5-1/h1-4H2, purity 99.5%
Compound 13: cyclohexane, C6H12, InChI=1S/C6H12/c1-2-4-6-5-3-1/h1-6H2, purity 99.5%
Compound 14: 1,2-ethanediol, C2H6O2, InChI=1S/C2H6O2/c3-1-2-4/h3-4H,1-2H2, purity 99.7%

System: D-histidine + water; phases: Liquid, Crystal
Fixed: Pressure, kPa = 101.2
Property: Mole fraction of D-histidine (Liquid); method: Chromatography
Temperature, K	Mole fraction of D-histidine	uncertainty
293.15	0.004578	0.000257
298.15	0.005056	0.000283
303.15	0.005564	0.000312
308.15	0.006195	0.000347
313.15	0.006861	0.000385
318.15	0.007648	0.000429
323.15	0.008785	0.000492
328.15	0.00971	0.000544
333.15	0.01176	0.00066

System: D-histidine + methanol; phases: Liquid, Crystal
Fixed: Pressure, kPa = 101.2
Property: Mole fraction of D-histidine (Liquid); method: Chromatography
Temperature, K	Mole fraction of D-histidine	uncertainty
293.15	0.0001897	1.06e-05
298.15	0.0002522	1.41e-05
303.15	0.0003301	1.85e-05
308.15	0.0004308	2.42e-05
313.15	0.0005623	3.15e-05
318.15	0.0007119	3.99e-05
323.15	0.0009044	5.07e-05
328.15	0.001188	6.7e-05
333.15	0.001563	8.8e-05

System: D-histidine + ethanol; phases: Liquid, Crystal
Fixed: Pressure, kPa = 101.2
Property: Mole fraction of D-histidine (Liquid); method: Chromatography
Temperature, K	Mole fraction of D-histidine	uncertainty
293.15	0.0002535	1.42e-05
298.15	0.0003289	1.84e-05
303.15	0.000433	2.43e-05
308.15	0.0005574	3.13e-05
313.15	0.000724	4.06e-05
318.15	0.0009153	5.13e-05
323.15	0.001202	6.7e-05
328.15	0.00145	8.1e-05
333.15	0.001812	0.000102

System: D-histidine + propan-1-ol; phases: Liquid, Crystal
Fixed: Pressure, kPa = 101.2
Property: Mole fraction of D-histidine (Liquid); method: Chromatography
Temperature, K	Mole fraction of D-histidine	uncertainty
293.15	0.0004843	2.72e-05
298.15	0.0006103	3.42e-05
303.15	0.0007602	4.26e-05
308.15	0.0009407	5.27e-05
313.15	0.001155	6.5e-05
318.15	0.00142	8e-05
323.15	0.00172	9.6e-05
328.15	0.002083	0.000117
333.15	0.002627	0.000147

System: D-histidine + propan-2-ol; phases: Liquid, Crystal
Fixed: Pressure, kPa = 101.2
Property: Mole fraction of D-histidine (Liquid); method: Chromatography
Temperature, K	Mole fraction of D-histidine	uncertainty
293.15	0.0003688	2.07e-05
298.15	0.0004705	2.64e-05
303.15	0.000598	3.35e-05
308.15	0.0007587	4.25e-05
313.15	0.0009454	5.3e-05
318.15	0.001174	6.6e-05
323.15	0.00146	8.2e-05
328.15	0.001771	9.9e-05
333.15	0.002283	0.000128

System: D-histidine + butan-1-ol; phases: Liquid, Crystal
Fixed: Pressure, kPa = 101.2
Property: Mole fraction of D-histidine (Liquid); method: Chromatography
Temperature, K	Mole fraction of D-histidine	uncertainty
293.15	0.0007005	3.93e-05
298.15	0.0008645	4.85e-05
303.15	0.001052	5.9e-05
308.15	0.001284	7.2e-05
313.15	0.001554	8.7e-05
318.15	0.001866	0.000105
323.15	0.002239	0.000126
328.15	0.002632	0.000148
333.15	0.003302	0.000185

System: D-histidine + 2-methyl-1-propanol; phases: Liquid, Crystal
Fixed: Pressure, kPa = 101.2
Property: Mole fraction of D-histidine (Liquid); method: Chromatography
Temperature, K	Mole fraction of D-histidine	uncertainty
293.15	0.0005459	3.06e-05
298.15	0.0006811	3.82e-05
303.15	0.0008498	4.76e-05
308.15	0.001052	5.9e-05
313.15	0.001291	7.2e-05
318.15	0.001561	8.8e-05
323.15	0.002006	0.000112
328.15	0.002403	0.000135
333.15	0.002864	0.000161

System: D-histidine + dimethyl sulfoxide; phases: Liquid, Crystal
Fixed: Pressure, kPa = 101.2
Property: Mole fraction of D-histidine (Liquid); method: Chromatography
Temperature, K	Mole fraction of D-histidine	uncertainty
293.15	0.0171	0.00096
298.15	0.01991	0.00112
303.15	0.02319	0.0013
308.15	0.02672	0.0015
313.15	0.03085	0.00173
318.15	0.03533	0.00198
323.15	0.04035	0.00226
328.15	0.04585	0.00257
333.15	0.05429	0.00304

System: D-histidine + dimethylformamide; phases: Liquid, Crystal
Fixed: Pressure, kPa = 101.2
Property: Mole fraction of D-histidine (Liquid); method: Chromatography
Temperature, K	Mole fraction of D-histidine	uncertainty
293.15	0.1536	0.0086
298.15	0.1758	0.0099
303.15	0.2005	0.0112
308.15	0.2277	0.0128
313.15	0.2576	0.0144
318.15	0.2903	0.0163
323.15	0.3261	0.0183
328.15	0.3652	0.0205
333.15	0.4175	0.0234

System: D-histidine + N-methylpyrrolidone; phases: Liquid, Crystal
Fixed: Pressure, kPa = 101.2
Property: Mole fraction of D-histidine (Liquid); method: Chromatography
Temperature, K	Mole fraction of D-histidine	uncertainty
293.15	0.06558	0.00368
298.15	0.07522	0.00422
303.15	0.0859	0.00481
308.15	0.09769	0.00548
313.15	0.1107	0.0062
318.15	0.1269	0.0071
323.15	0.1404	0.0079
328.15	0.1574	0.0088
333.15	0.1778	0.01

System: D-histidine + 1,4-dioxane; phases: Liquid, Crystal
Fixed: Pressure, kPa = 101.2
Property: Mole fraction of D-histidine (Liquid); method: Chromatography
Temperature, K	Mole fraction of D-histidine	uncertainty
293.15	0.007205	0.000404
298.15	0.008635	0.000484
303.15	0.01017	0.00057
308.15	0.01171	0.00066
313.15	0.01351	0.00076
318.15	0.01524	0.00085
323.15	0.01789	0.001
328.15	0.02059	0.00115
333.15	0.02453	0.00138

System: D-histidine + cyclohexane; phases: Liquid, Crystal
Fixed: Pressure, kPa = 101.2
Property: Mole fraction of D-histidine (Liquid); method: Chromatography
Temperature, K	Mole fraction of D-histidine	uncertainty
293.15	0.0004447	2.49e-05
298.15	0.000565	3.17e-05
303.15	0.0007143	4.01e-05
308.15	0.0008971	5.03e-05
313.15	0.001114	6.2e-05
318.15	0.001381	7.7e-05
323.15	0.001686	9.5e-05
328.15	0.002159	0.000121
333.15	0.002516	0.000141

System: D-histidine + 1,2-ethanediol; phases: Liquid, Crystal
Fixed: Pressure, kPa = 101.2
Property: Mole fraction of D-histidine (Liquid); method: Chromatography
Temperature, K	Mole fraction of D-histidine	uncertainty
293.15	0.00215	0.000121
298.15	0.002632	0.000148
303.15	0.003198	0.000179
308.15	0.003846	0.000216
313.15	0.00459	0.000257
318.15	0.005588	0.000313
323.15	0.006541	0.000367
328.15	0.007743	0.000434
333.15	0.009439	0.000529
