Measured thermophysical data. Vapor Pressures of Four Methyl Esters of Substituted Benzoic Acids. The Intermolecular Hydrogen Bond OH...O
Source: J. Chem. Eng. Data, 2016, 10.1021/acs.jced.5b00978
Compound 1: methyl p-cyanobenzoate, C9H7NO2, InChI=1S/C9H7NO2/c1-12-9(11)8-4-2-7(6-10)3-5-8/h2-5H,1H3, purity 99.6%
Compound 2: methyl 4-formylbenzoate, C9H8O3, InChI=1S/C9H8O3/c1-12-9(11)8-4-2-7(6-10)3-5-8/h2-6H,1H3, purity 98.5%
Compound 3: methyl p-nitrobenzoate, C8H7NO4, InChI=1S/C8H7NO4/c1-13-8(10)6-2-4-7(5-3-6)9(11)12/h2-5H,1H3, purity 99.9%
Compound 4: methyl p-(methylamino)benzoate, C9H11NO2, InChI=1S/C9H11NO2/c1-10-8-5-3-7(4-6-8)9(11)12-2/h3-6,10H,1-2H3, purity 98.4%

System: methyl p-cyanobenzoate; phases: Crystal, Liquid, Air at 1 atmosphere
Property: Molar enthalpy of transition or fusion, kJ/mol (Crystal); method: DSC
Molar enthalpy of transition or fusion, kJ/mol	uncertainty
21.8	0.5

System: methyl p-cyanobenzoate; phases: Crystal, Liquid, Air at 1 atmosphere
Property: Normal melting temperature, K (Crystal); method: DTA
Normal melting temperature, K	uncertainty
338.2	0.9

System: methyl p-cyanobenzoate; phases: Crystal, Gas
Property: Vapor or sublimation pressure, kPa (Crystal); method: Closed cell (Static) method
Temperature, K	Vapor or sublimation pressure, kPa	uncertainty
303.93	0.00066	0.00011
306.95	0.00092	0.00011
309.92	0.0013	0.00012
312.93	0.00183	0.00013
315.91	0.00252	0.00015
318.88	0.00347	0.00017
321.94	0.00479	0.00022
324.93	0.00649	0.00028
327.89	0.00872	0.00036
330.89	0.01165	0.00047
333.86	0.01562	0.00056
336.84	0.02058	0.00063

System: methyl p-cyanobenzoate; phases: Liquid, Gas
Property: Vapor or sublimation pressure, kPa (Liquid); method: Closed cell (Static) method
Temperature, K	Vapor or sublimation pressure, kPa	uncertainty
339.83	0.02686	0.00073
342.81	0.0331	0.00082
345.8	0.04054	0.00094
348.76	0.04932	0.00107
351.75	0.06007	0.00124
354.72	0.07314	0.00144
357.79	0.08912	0.00169
360.66	0.1059	0.002
363.64	0.1276	0.0023
366.47	0.1508	0.0022
369.42	0.1793	0.0024
372.4	0.2131	0.0027
375.39	0.2508	0.003
378.3	0.2957	0.0034
381.25	0.3487	0.0038
384.19	0.4061	0.0043
387.18	0.4767	0.0049
390.14	0.5554	0.0056
393.05	0.644	0.0064

System: methyl 4-formylbenzoate; phases: Crystal, Liquid, Air at 1 atmosphere
Property: Molar enthalpy of transition or fusion, kJ/mol (Crystal); method: DSC
Molar enthalpy of transition or fusion, kJ/mol	uncertainty
21.4	0.5

System: methyl 4-formylbenzoate; phases: Crystal, Liquid, Air at 1 atmosphere
Property: Normal melting temperature, K (Crystal); method: DTA
Normal melting temperature, K	uncertainty
335.2	0.5

System: methyl 4-formylbenzoate; phases: Crystal, Gas
Property: Vapor or sublimation pressure, kPa (Crystal); method: Closed cell (Static) method
Temperature, K	Vapor or sublimation pressure, kPa	uncertainty
303.1	0.00069	0.00011
305.04	0.00086	0.00011
307.04	0.00109	0.00012
309.04	0.00137	0.00012
311.05	0.00173	0.00013
313.01	0.00216	0.00014
314.99	0.00268	0.00015
317.07	0.00335	0.00017
319.02	0.00412	0.0002
321.01	0.00511	0.00023
323.02	0.00635	0.00027
324.99	0.0078	0.00033
326.97	0.00965	0.00039
328.97	0.01165	0.00047
330.92	0.01405	0.00053

System: methyl 4-formylbenzoate; phases: Metastable liquid, Gas
Property: Vapor or sublimation pressure, kPa (Metastable liquid); method: Closed cell (Static) method
Temperature, K	Vapor or sublimation pressure, kPa	uncertainty
326.93	0.01165	0.00047
328.93	0.01357	0.00052
330.9	0.01573	0.00056
332.84	0.01823	0.0006
334.84	0.02122	0.00064
336.84	0.02458	0.00069
338.85	0.02803	0.00075
340.8	0.03252	0.00082
342.76	0.0371	0.00089
344.76	0.04283	0.00097
346.67	0.04856	0.00106
348.71	0.05584	0.00118
350.65	0.06347	0.00129
352.66	0.07223	0.00143
354.52	0.08123	0.00157
356.6	0.09314	0.00175
358.58	0.1051	0.0019
360.55	0.1182	0.0021
362.49	0.1338	0.0021
364.51	0.1519	0.0022
366.47	0.1698	0.0023
368.46	0.1902	0.0025
370.41	0.2138	0.0027
372.39	0.2395	0.0029
374.28	0.2657	0.0031
376.36	0.298	0.0034
378.24	0.3306	0.0037
380.3	0.3693	0.004
382.21	0.4085	0.0043
384.22	0.4558	0.0048
386.18	0.5028	0.0052
388.17	0.562	0.0057

System: methyl p-nitrobenzoate; phases: Crystal, Liquid, Air at 1 atmosphere
Property: Molar enthalpy of transition or fusion, kJ/mol (Crystal); method: DSC
Molar enthalpy of transition or fusion, kJ/mol	uncertainty
24.4	0.6

System: methyl p-nitrobenzoate; phases: Crystal, Liquid, Air at 1 atmosphere
Property: Normal melting temperature, K (Crystal); method: DTA
Normal melting temperature, K	uncertainty
369.4	0.7

System: methyl p-nitrobenzoate; phases: Crystal, Gas
Property: Vapor or sublimation pressure, kPa (Crystal); method: Closed cell (Static) method
Temperature, K	Vapor or sublimation pressure, kPa	uncertainty
319.01	0.00074	0.00012
321.07	0.00092	0.00012
322.98	0.00115	0.00012
325.03	0.00144	0.00013
326.97	0.00177	0.00013
328.99	0.0022	0.00014
330.91	0.00265	0.00015
332.94	0.00333	0.00017
334.86	0.00404	0.0002
336.9	0.00497	0.00023
338.83	0.00597	0.00026
340.86	0.00734	0.00031
342.77	0.00878	0.00036
344.81	0.01073	0.00044
346.71	0.01286	0.00052
348.76	0.01564	0.00056
350.59	0.01843	0.0006
352.71	0.02255	0.00066
354.57	0.02656	0.00072
356.66	0.03213	0.00081
358.51	0.03767	0.0009
360.61	0.04542	0.00102
362.47	0.05331	0.00114
364.55	0.06362	0.0013

System: methyl p-nitrobenzoate; phases: Metastable liquid, Gas
Property: Vapor or sublimation pressure, kPa (Metastable liquid); method: Closed cell (Static) method
Temperature, K	Vapor or sublimation pressure, kPa	uncertainty
360.47	0.05433	0.00115
362.46	0.0615	0.00126
364.43	0.06971	0.00139
370.48	0.1019	0.0019
372.46	0.1149	0.0021
374.39	0.1281	0.0023
376.4	0.1446	0.0021
378.37	0.1615	0.0023
380.36	0.1809	0.0024
382.3	0.2008	0.0026
384.27	0.2241	0.0028
386.24	0.2502	0.003
388.24	0.2792	0.0032
390.19	0.3091	0.0035
392.19	0.3449	0.0038
394.11	0.3796	0.0041
396.19	0.4248	0.0045
398.07	0.4655	0.0048
400.05	0.5141	0.0053
401.96	0.5665	0.0057
403.96	0.6244	0.0062
405.95	0.6894	0.0068
407.87	0.7541	0.0073
409.86	0.8302	0.008
411.81	0.9078	0.0087
413.78	0.9952	0.0094
415.75	1.088	0.01

System: methyl p-(methylamino)benzoate; phases: Crystal, Liquid, Air at 1 atmosphere
Property: Molar enthalpy of transition or fusion, kJ/mol (Crystal); method: DSC
Molar enthalpy of transition or fusion, kJ/mol	uncertainty
27.5	0.6

System: methyl p-(methylamino)benzoate; phases: Crystal, Liquid, Air at 1 atmosphere
Property: Normal melting temperature, K (Crystal); method: DTA
Normal melting temperature, K	uncertainty
366	0.4

System: methyl p-(methylamino)benzoate; phases: Crystal, Gas
Property: Vapor or sublimation pressure, kPa (Crystal); method: Calculated from knudsen effusion weight loss
Temperature, K	Vapor or sublimation pressure, kPa	uncertainty
317.09	7.8e-05	2e-05
319.16	0.000103	2e-05
321.19	0.00013	2.1e-05
323.08	0.000168	2.1e-05
325.15	0.000215	2.1e-05
327.18	0.000271	2.2e-05
329.12	0.000341	2.3e-05
331.22	0.000433	2.5e-05
333.17	0.00054	2.8e-05
335.09	0.000691	3.2e-05
337.17	0.000869	3.7e-05
339.18	0.001064	8.4e-05
317.09	7.8e-05	2e-05
319.16	0.000101	2e-05
321.19	0.000131	2.1e-05
323.08	0.000167	2.1e-05
325.15	0.000213	2.1e-05
327.18	0.000263	2.2e-05
329.12	0.000338	2.3e-05
331.22	0.000427	2.5e-05
333.17	0.000537	2.8e-05
335.09	0.00068	3.1e-05
337.17	0.000862	3.7e-05
339.18	0.00106	8.3e-05
317.09	7.8e-05	2e-05
319.16	0.000101	2e-05
321.19	0.000131	2.1e-05
323.08	0.000165	2.1e-05
325.15	0.000207	2.1e-05
327.18	0.000266	2.2e-05
329.12	0.000335	2.3e-05
331.22	0.000425	2.5e-05
333.17	0.000535	2.8e-05
335.09	0.000688	3.2e-05
337.17	0.000855	3.6e-05
339.18	0.001061	8.3e-05

System: methyl p-(methylamino)benzoate; phases: Crystal, Gas
Property: Vapor or sublimation pressure, kPa (Crystal); method: Closed cell (Static) method
Temperature, K	Vapor or sublimation pressure, kPa	uncertainty
332.9	0.00054	0.00012
334.88	0.00068	0.00012
336.87	0.00086	0.00012
338.87	0.00108	0.00012
340.85	0.00134	0.00013
342.84	0.00167	0.00013
344.81	0.00207	0.00014
346.8	0.00257	0.00016
348.79	0.00317	0.00017
350.81	0.0039	0.00019
352.76	0.00477	0.00022
354.74	0.00575	0.00026
356.73	0.00703	0.0003
358.71	0.0085	0.00035
360.69	0.01033	0.00042

System: methyl p-(methylamino)benzoate; phases: Metastable liquid, Gas
Property: Vapor or sublimation pressure, kPa (Metastable liquid); method: Closed cell (Static) method
Temperature, K	Vapor or sublimation pressure, kPa	uncertainty
348.77	0.00482	0.00022
350.76	0.0056	0.00025
352.75	0.00655	0.00028
354.74	0.0076	0.00032
356.72	0.00876	0.00036
358.69	0.01017	0.00042
360.67	0.01173	0.00047
362.67	0.01351	0.00053
364.65	0.01561	0.00056
366.64	0.01788	0.00059
368.55	0.02015	0.00063
370.6	0.02331	0.00068
372.58	0.02669	0.00073
374.55	0.03049	0.00079
376.53	0.03459	0.00085
378.5	0.03935	0.00092
380.51	0.04446	0.001
382.47	0.05044	0.00109
384.46	0.05682	0.00119
386.45	0.06435	0.00131
388.41	0.07241	0.00143
390.4	0.0815	0.00157
392.35	0.09154	0.00173
