Measured thermophysical data. Experimental Vapor-Liquid Equilibrium Data for Binary Mixtures of Methyldiethanolamine in Water and Ethylene Glycol under Vacuum
Source: J. Chem. Eng. Data, 2018, 10.1021/acs.jced.8b00054
Compound 1: 1,2-ethanediol, C2H6O2, InChI=1S/C2H6O2/c3-1-2-4/h3-4H,1-2H2, purity 99.5%
Compound 2: N-methyldiethanolamine, C5H13NO2, InChI=1S/C5H13NO2/c1-6(2-4-7)3-5-8/h7-8H,2-5H2,1H3, purity 99.5%
Compound 3: water, H2O, InChI=1S/H2O/h1H2, purity 99.9%

System: 1,2-ethanediol; phases: Liquid
Property: Refractive index (Na D-line) (Liquid); method: Standard Abbe refractometry
Temperature, K	Pressure, kPa	Refractive index (Na D-line)	uncertainty
293.15	101.325	1.4318	0.0007

System: 1,2-ethanediol; phases: Liquid, Gas
Property: Vapor or sublimation pressure, kPa (Liquid); method: Ebulliometric method (Recirculating still)
Temperature, K	Vapor or sublimation pressure, kPa	uncertainty
423.01	20	1
406.01	10	1
390.4	5	1

System: 1,2-ethanediol; phases: Liquid
Property: Refractive index (Na D-line) (Liquid); method: Standard Abbe refractometry
Temperature, K	Pressure, kPa	Refractive index (Na D-line)	uncertainty
293.15	101.325	1.4303	0.0007

System: N-methyldiethanolamine; phases: Liquid
Property: Refractive index (Na D-line) (Liquid); method: Standard Abbe refractometry
Temperature, K	Pressure, kPa	Refractive index (Na D-line)	uncertainty
293.15	101.325	1.4684	0.0007

System: N-methyldiethanolamine; phases: Liquid, Gas
Property: Vapor or sublimation pressure, kPa (Liquid); method: Ebulliometric method (Recirculating still)
Temperature, K	Vapor or sublimation pressure, kPa	uncertainty
488.42	40	1
467.58	20	1
448.42	10	1
467.46	20	1
448.32	10	1
430.52	5	1

System: N-methyldiethanolamine; phases: Liquid
Property: Refractive index (Na D-line) (Liquid); method: Standard Abbe refractometry
Temperature, K	Pressure, kPa	Refractive index (Na D-line)	uncertainty
293.15	101.325	1.4685	0.0007

System: water; phases: Liquid
Property: Refractive index (Na D-line) (Liquid); method: Standard Abbe refractometry
Temperature, K	Pressure, kPa	Refractive index (Na D-line)	uncertainty
293.15	101.325	1.3323	0.0007

System: water; phases: Liquid, Gas
Property: Vapor or sublimation pressure, kPa (Liquid); method: Ebulliometric method (Recirculating still)
Temperature, K	Vapor or sublimation pressure, kPa	uncertainty
349.02	40	1
333.2	20	1
318.95	10	1

System: water; phases: Liquid
Property: Refractive index (Na D-line) (Liquid); method: Standard Abbe refractometry
Temperature, K	Pressure, kPa	Refractive index (Na D-line)	uncertainty
293.15	101.325	1.3321	0.0007

System: water + N-methyldiethanolamine; phases: Gas, Liquid
Property: Mole fraction of N-methyldiethanolamine (Gas); method: OTHER
Mole fraction of N-methyldiethanolamine	Pressure, kPa	Mole fraction of N-methyldiethanolamine	uncertainty
0	40	0	
0.356	40	0.0015	0.0015
0.532	40	0.0035	0.0035
0.756	40	0.013	0.01
0.825	40	0.023	0.01
0.88	40	0.042	0.011
0.912	40	0.065	0.014
0.928	40	0.087	0.019
0.939	40	0.109	0.027
0.95	40	0.142	0.043
0.966	40	0.221	0.073
0.98	40	0.359	0.236
1	40	1	
0	20	0	
0.075	20	0.0001	0.0001
0.224	20	0.0005	0.0005
0.295	20	0.0008	0.0008
0.446	20	0.0017	0.0017
0.613	20	0.0038	0.0038
0.675	20	0.0054	0.0054
0.785	20	0.012	0.01
0.856	20	0.022	0.01
0.912	20	0.045	0.013
0.955	20	0.112	0.029
0.98	20	0.26	0.171
1	20	1	
0	10	0	
0.188	10	0.0003	0.0003
0.276	10	0.0005	0.0005
0.436	10	0.0011	0.0011
0.565	10	0.0022	0.0022
0.659	10	0.0037	0.0037
0.766	10	0.0075	0.0075
0.826	10	0.013	0.01
0.876	10	0.022	0.011
0.926	10	0.046	0.015
0.965	10	0.12	0.055
0.991	10	0.415	0.103
1	10	1	

System: water + N-methyldiethanolamine; phases: Liquid, Gas
Property: Boiling temperature at pressure P, K (Liquid); method: Ebulliometric method (Recirculating still)
Mole fraction of N-methyldiethanolamine	Pressure, kPa	Boiling temperature at pressure P, K	uncertainty
0	40	349.02	0.33
0.356	40	360.12	0.51
0.532	40	368.57	0.83
0.756	40	388.95	1.06
0.825	40	398.56	1.7
0.88	40	409.65	2.31
0.912	40	418.65	3.23
0.928	40	425.32	4.44
0.939	40	430.65	4.84
0.95	40	435.92	6.37
0.966	40	447.59	7.6
0.98	40	458.69	12.22
1	40	488.42	0.4
0	20	333.2	0.36
0.075	20	334.56	0.51
0.224	20	338.57	0.55
0.295	20	340.8	0.59
0.446	20	348.2	0.62
0.613	20	357.5	0.64
0.675	20	362.5	1.07
0.785	20	374.5	1.3
0.856	20	384.56	1.68
0.912	20	397.56	2.85
0.955	20	414.8	4.66
0.98	20	432.6	10.44
1	20	467.58	0.44
0	10	318.95	0.46
0.188	10	323.65	0.52
0.276	10	326.5	0.55
0.436	10	331.6	0.65
0.565	10	339.48	0.82
0.659	10	346.89	0.97
0.766	10	356.8	1.16
0.826	10	364.91	1.56
0.876	10	373.21	2.13
0.926	10	385.68	3.12
0.965	10	400.89	5.97
0.991	10	425.54	8.59
1	10	448.42	0.59

System: water + N-methyldiethanolamine; phases: Liquid
Fixed: Temperature, K = 293.15
Fixed: Pressure, kPa = 101.325
Property: Refractive index (Na D-line) (Liquid); method: Standard Abbe refractometry
Mole fraction of N-methyldiethanolamine	Refractive index (Na D-line)	uncertainty
0	1.3321	0.0007
0.01	1.3402	0.0033
0.025	1.3524	0.0027
0.05	1.3669	0.002
0.1	1.3891	0.0014
0.2	1.4162	0.0011
0.3	1.4319	0.0009
0.4	1.4442	0.0008
0.5	1.4513	0.0007
0.6	1.4571	0.0007
0.7	1.461	0.0007
0.8	1.4642	0.0007
0.9	1.467	0.0007
1	1.4685	0.0007

System: 1,2-ethanediol + N-methyldiethanolamine; phases: Gas, Liquid
Property: Mole fraction of N-methyldiethanolamine (Gas); method: OTHER
Mole fraction of N-methyldiethanolamine	Pressure, kPa	Mole fraction of N-methyldiethanolamine	uncertainty
0	20	0	
0.031	20	0.004	0.004
0.088	20	0.013	0.01
0.135	20	0.022	0.01
0.283	20	0.059	0.011
0.385	20	0.102	0.011
0.434	20	0.127	0.011
0.491	20	0.154	0.012
0.572	20	0.21	0.013
0.621	20	0.256	0.015
0.676	20	0.315	0.015
1	20	1	
0	10	0	
0.041	10	0.005	0.005
0.078	10	0.011	0.01
0.11	10	0.016	0.01
0.204	10	0.036	0.01
0.366	10	0.092	0.011
0.46	10	0.14	0.012
0.61	10	0.239	0.013
0.668	10	0.3	0.016
0.755	10	0.413	0.019
0.832	10	0.541	0.027
1	10	1	
0	5	0	
0.039	5	0.005	0.005
0.118	5	0.017	0.01
0.201	5	0.034	0.01
0.276	5	0.052	0.01
0.363	5	0.082	0.011
0.453	5	0.117	0.012
0.598	5	0.21	0.013
0.682	5	0.283	0.015
0.732	5	0.345	0.019
0.835	5	0.515	0.023
0.925	5	0.725	0.031
1	5	1	

System: 1,2-ethanediol + N-methyldiethanolamine; phases: Liquid, Gas
Property: Boiling temperature at pressure P, K (Liquid); method: Ebulliometric method (Recirculating still)
Mole fraction of N-methyldiethanolamine	Pressure, kPa	Boiling temperature at pressure P, K	uncertainty
0	20	423.01	0.55
0.031	20	423.56	0.59
0.088	20	424.81	0.61
0.135	20	426.25	0.64
0.283	20	430.89	0.66
0.385	20	434.25	0.68
0.434	20	436.37	0.73
0.491	20	438.65	0.75
0.572	20	442.6	0.79
0.621	20	445.11	0.78
0.676	20	447.5	0.75
1	20	467.46	0.61
0	10	406.01	0.65
0.041	10	406.65	0.68
0.078	10	407.5	0.85
0.11	10	408.15	0.76
0.204	10	410.67	0.77
0.366	10	415.69	0.72
0.46	10	418.83	0.82
0.61	10	425.15	0.8
0.668	10	428.03	0.88
0.755	10	433.13	1.04
0.832	10	437.49	1.27
1	10	448.32	0.72
0	5	390.4	0.92
0.039	5	391.1	0.93
0.118	5	392.4	0.95
0.201	5	394	0.99
0.276	5	395.9	1.03
0.363	5	398.79	1.04
0.453	5	401.78	1.04
0.598	5	407.14	1.08
0.682	5	411.27	1.13
0.732	5	413.51	1.19
0.835	5	419.26	1.22
0.925	5	424.9	1.25
1	5	430.52	1.04

System: 1,2-ethanediol + N-methyldiethanolamine; phases: Liquid
Fixed: Temperature, K = 293.15
Fixed: Pressure, kPa = 101.325
Property: Refractive index (Na D-line) (Liquid); method: Standard Abbe refractometry
Mole fraction of N-methyldiethanolamine	Refractive index (Na D-line)	uncertainty
0	1.4303	0.0007
0.05	1.435	0.0008
0.1	1.4387	0.0007
0.2	1.4448	0.0007
0.3	1.45	0.0007
0.4	1.4542	0.0007
0.5	1.4575	0.0007
0.6	1.4603	0.0007
0.7	1.4627	0.0007
0.8	1.4647	0.0007
0.9	1.4667	0.0007
1	1.4684	0.0007
