Measured thermophysical data. Solubility Determination and Modeling of Sodium Mononitrobenzenesulphonate in Different Solvents at Temperatures Ranging from (283.15 to 323.15) K
Source: J. Chem. Eng. Data, 2016, 10.1021/acs.jced.5b00783
Compound 1: sodium 3-nitrobenzenesulfonate, C6H4NNaO5S, InChI=1S/C6H5NO5S.Na/c8-7(9)5-2-1-3-6(4-5)13(10,11)12;/h1-4H,(H,10,11,12);/q;+1/p-1, purity 99.5%
Compound 2: sodium 4-nitrobenzenesulfonate, C6H4NNaO5S, InChI=1S/C6H5NO5S.Na/c8-7(9)5-1-3-6(4-2-5)13(10,11)12;/h1-4H,(H,10,11,12);/q;+1/p-1, purity 99.5%
Compound 3: ethanol, C2H6O, InChI=1S/C2H6O/c1-2-3/h3H,2H2,1H3, purity 99.8%
Compound 4: ethyl acetate, C4H8O2, InChI=1S/C4H8O2/c1-3-6-4(2)5/h3H2,1-2H3, purity 99.8%
Compound 5: acetone, C3H6O, InChI=1S/C3H6O/c1-3(2)4/h1-2H3, purity 99.8%
Compound 6: butan-1-ol, C4H10O, InChI=1S/C4H10O/c1-2-3-4-5/h5H,2-4H2,1H3, purity 99.8%
Compound 7: cyclohexane, C6H12, InChI=1S/C6H12/c1-2-4-6-5-3-1/h1-6H2, purity 99.8%
Compound 8: tetrahydrofuran, C4H8O, InChI=1S/C4H8O/c1-2-4-5-3-1/h1-4H2, purity 99.8%

System: sodium 4-nitrobenzenesulfonate; phases: Crystal, Liquid, Air at 1 atmosphere
Property: Molar enthalpy of transition or fusion, kJ/mol (Crystal); method: DSC
Molar enthalpy of transition or fusion, kJ/mol	uncertainty
8.32	0.83

System: sodium 4-nitrobenzenesulfonate; phases: Crystal, Liquid
Property: Solid-liquid equilibrium temperature, K (Crystal); method: DTA
Pressure, kPa	Solid-liquid equilibrium temperature, K	uncertainty
101	384.43	1.02

System: ethanol + sodium 3-nitrobenzenesulfonate; phases: Liquid, Crystal
Fixed: Pressure, kPa = 101
Property: Mole fraction of sodium 3-nitrobenzenesulfonate (Liquid); method: Chromatography
Temperature, K	Mole fraction of sodium 3-nitrobenzenesulfonate	uncertainty
283.15	0.002811	0.000113
288.15	0.00361	0.00014
293.15	0.004539	0.000182
298.15	0.005813	0.000233
303.15	0.006991	0.00028
308.15	0.008663	0.000347
313.15	0.01045	0.00042
318.15	0.01275	0.00051
323.15	0.01531	0.00061

System: sodium 3-nitrobenzenesulfonate + ethyl acetate; phases: Liquid, Crystal
Fixed: Pressure, kPa = 101
Property: Mole fraction of sodium 3-nitrobenzenesulfonate (Liquid); method: Chromatography
Temperature, K	Mole fraction of sodium 3-nitrobenzenesulfonate	uncertainty
283.15	3.945e-05	1.58e-06
288.15	4.579e-05	1.84e-06
293.15	5.374e-05	2.15e-06
298.15	6.223e-05	2.49e-06
303.15	7.268e-05	2.91e-06
308.15	8.65e-05	3.47e-06
313.15	0.0001033	4.1e-06
318.15	0.0001175	4.7e-06
323.15	0.0001352	5.4e-06

System: acetone + sodium 3-nitrobenzenesulfonate; phases: Liquid, Crystal
Fixed: Pressure, kPa = 101
Property: Mole fraction of sodium 3-nitrobenzenesulfonate (Liquid); method: Chromatography
Temperature, K	Mole fraction of sodium 3-nitrobenzenesulfonate	uncertainty
283.15	0.0007887	3.16e-05
288.15	0.0008687	3.48e-05
293.15	0.0009654	3.87e-05
298.15	0.001081	4.3e-05
303.15	0.001201	4.8e-05
308.15	0.00137	5.5e-05
313.15	0.00154	6.2e-05
318.15	0.001747	7e-05
323.15	0.00194	7.8e-05

System: butan-1-ol + sodium 3-nitrobenzenesulfonate; phases: Liquid, Crystal
Fixed: Pressure, kPa = 101
Property: Mole fraction of sodium 3-nitrobenzenesulfonate (Liquid); method: Chromatography
Temperature, K	Mole fraction of sodium 3-nitrobenzenesulfonate	uncertainty
283.15	0.0005514	2.21e-05
288.15	0.0005626	2.25e-05
293.15	0.0005863	2.35e-05
298.15	0.0006152	2.46e-05
303.15	0.0006396	2.56e-05
308.15	0.0006595	2.64e-05
313.15	0.0006878	2.76e-05
318.15	0.0007161	2.87e-05
323.15	0.0007449	2.98e-05

System: cyclohexane + sodium 3-nitrobenzenesulfonate; phases: Liquid, Crystal
Fixed: Pressure, kPa = 101
Property: Mole fraction of sodium 3-nitrobenzenesulfonate (Liquid); method: Chromatography
Temperature, K	Mole fraction of sodium 3-nitrobenzenesulfonate	uncertainty
283.15	2.13e-05	8.5e-07
288.15	2.193e-05	8.8e-07
293.15	2.265e-05	9.1e-07
298.15	2.371e-05	9.5e-07
303.15	2.488e-05	1e-06
308.15	2.609e-05	1.05e-06
313.15	2.754e-05	1.1e-06
318.15	2.917e-05	1.17e-06
323.15	3.212e-05	1.29e-06

System: tetrahydrofuran + sodium 3-nitrobenzenesulfonate; phases: Liquid, Crystal
Fixed: Pressure, kPa = 101
Property: Mole fraction of sodium 3-nitrobenzenesulfonate (Liquid); method: Chromatography
Temperature, K	Mole fraction of sodium 3-nitrobenzenesulfonate	uncertainty
283.15	0.0006173	2.47e-05
288.15	0.0006289	2.52e-05
293.15	0.0006546	2.62e-05
298.15	0.0006941	2.78e-05
303.15	0.0007455	2.99e-05
308.15	0.000803	3.22e-05
313.15	0.0008699	3.48e-05
318.15	0.0009399	3.77e-05
323.15	0.001048	4.2e-05

System: ethanol + sodium 4-nitrobenzenesulfonate; phases: Liquid, Crystal
Fixed: Pressure, kPa = 101
Property: Mole fraction of sodium 4-nitrobenzenesulfonate (Liquid); method: Chromatography
Temperature, K	Mole fraction of sodium 4-nitrobenzenesulfonate	uncertainty
283.15	0.001037	4.2e-05
288.15	0.001183	4.7e-05
293.15	0.001328	5.3e-05
298.15	0.001467	5.9e-05
303.15	0.001641	6.6e-05
308.15	0.001805	7.2e-05
313.15	0.002045	8.2e-05
318.15	0.002317	9.3e-05
323.15	0.002596	0.000104

System: ethyl acetate + sodium 4-nitrobenzenesulfonate; phases: Liquid, Crystal
Fixed: Pressure, kPa = 101
Property: Mole fraction of sodium 4-nitrobenzenesulfonate (Liquid); method: Chromatography
Temperature, K	Mole fraction of sodium 4-nitrobenzenesulfonate	uncertainty
283.15	8.838e-05	3.54e-06
288.15	9.957e-05	3.99e-06
293.15	0.0001092	4.4e-06
298.15	0.0001199	4.8e-06
303.15	0.0001311	5.3e-06
308.15	0.0001428	5.7e-06
313.15	0.0001569	6.3e-06
318.15	0.0001748	7e-06
323.15	0.000193	7.7e-06

System: acetone + sodium 4-nitrobenzenesulfonate; phases: Liquid, Crystal
Fixed: Pressure, kPa = 101
Property: Mole fraction of sodium 4-nitrobenzenesulfonate (Liquid); method: Chromatography
Temperature, K	Mole fraction of sodium 4-nitrobenzenesulfonate	uncertainty
283.15	0.01205	0.00048
288.15	0.014	0.00056
293.15	0.01613	0.00065
298.15	0.0182	0.00073
303.15	0.0206	0.00083
308.15	0.02287	0.00092
313.15	0.02577	0.00103
318.15	0.02897	0.00116
323.15	0.03225	0.00129

System: butan-1-ol + sodium 4-nitrobenzenesulfonate; phases: Liquid, Crystal
Fixed: Pressure, kPa = 101
Property: Mole fraction of sodium 4-nitrobenzenesulfonate (Liquid); method: Chromatography
Temperature, K	Mole fraction of sodium 4-nitrobenzenesulfonate	uncertainty
283.15	0.0003182	1.28e-05
288.15	0.0004053	1.63e-05
293.15	0.0004979	2e-05
298.15	0.0005966	2.39e-05
303.15	0.0006986	2.8e-05
308.15	0.0007983	3.2e-05
313.15	0.0009473	3.8e-05
318.15	0.001106	4.4e-05
323.15	0.001312	5.3e-05

System: cyclohexane + sodium 4-nitrobenzenesulfonate; phases: Liquid, Crystal
Fixed: Pressure, kPa = 101
Property: Mole fraction of sodium 4-nitrobenzenesulfonate (Liquid); method: Chromatography
Temperature, K	Mole fraction of sodium 4-nitrobenzenesulfonate	uncertainty
283.15	0.0009064	3.63e-05
288.15	0.0009125	3.66e-05
293.15	0.0009173	3.67e-05
298.15	0.0009265	3.71e-05
303.15	0.0009383	3.76e-05
308.15	0.0009543	3.82e-05
313.15	0.0009667	3.87e-05
318.15	0.0009912	3.97e-05
323.15	0.0010148	4.06e-05

System: tetrahydrofuran + sodium 4-nitrobenzenesulfonate; phases: Liquid, Crystal
Fixed: Pressure, kPa = 101
Property: Mole fraction of sodium 4-nitrobenzenesulfonate (Liquid); method: Chromatography
Temperature, K	Mole fraction of sodium 4-nitrobenzenesulfonate	uncertainty
283.15	0.0001088	4.4e-06
288.15	0.0001124	4.5e-06
293.15	0.0001171	4.7e-06
298.15	0.0001219	4.9e-06
303.15	0.0001266	5.1e-06
308.15	0.000132	5.3e-06
313.15	0.0001381	5.5e-06
318.15	0.0001454	5.8e-06
323.15	0.0001555	6.2e-06
