Measured thermophysical data. Study of the LLE, VLE, and VLLE of the Ternary System Water + 1-Butanol + Isoamyl Alcohol at 101.3 kPa
Source: J. Chem. Eng. Data, 2018, 10.1021/acs.jced.8b00308
Compound 1: water, H2O, InChI=1S/H2O/h1H2, purity 99.9%
Compound 2: butan-1-ol, C4H10O, InChI=1S/C4H10O/c1-2-3-4-5/h5H,2-4H2,1H3, purity 99.5%
Compound 3: 3-methylbutan-1-ol, C5H12O, InChI=1S/C5H12O/c1-5(2)3-4-6/h5-6H,3-4H2,1-2H3, purity 99%

System: water + butan-1-ol + 3-methylbutan-1-ol; phases: Liquid, Gas
Fixed: Pressure, kPa = 101.3
Property: Mole fraction of water (Liquid); method: Chromatography
Property: Mole fraction of water (Gas); method: Chromatography
Property: Mole fraction of butan-1-ol (Gas); method: Chromatography
Temperature, K	Mole fraction of butan-1-ol	Mole fraction of water	uncertainty	Mole fraction of water	uncertainty	Mole fraction of butan-1-ol	uncertainty
365.9	0.61	0.35	0.028	0.757	0.02	0.234	
365.97	0.62	0.322	0.026	0.739	0.021	0.247	
366.18	0.598	0.375	0.03	0.751	0.02	0.243	
366.24	0.355	0.34	0.027	0.783	0.017	0.145	
366.4	0.379	0.35	0.028	0.78	0.018	0.155	
366.42	0.427	0.327	0.026	0.773	0.018	0.171	
366.43	0.643	0.28	0.022	0.737	0.021	0.249	
366.69	0.479	0.302	0.024	0.764	0.019	0.188	
366.86	0.533	0.281	0.023	0.765	0.019	0.201	
366.92	0.341	0.314	0.025	0.786	0.017	0.137	
367.09	0.328	0.285	0.023	0.785	0.017	0.13	
367.22	0.315	0.248	0.02	0.786	0.017	0.123	
368.41	0.674	0.278	0.022	0.746	0.02	0.246	
368.42	0.597	0.246	0.02	0.734	0.021	0.236	
368.44	0.145	0.197	0.016	0.784	0.017	0.064	
368.52	0.521	0.446	0.036	0.761	0.019	0.23	
368.6	0.193	0.182	0.015	0.79	0.017	0.081	
368.86	0.48	0.492	0.04	0.759	0.019	0.232	
369.11	0.237	0.23	0.018	0.79	0.017	0.096	
369.37	0.288	0.175	0.014	0.782	0.018	0.113	
370.69	0.671	0.262	0.021	0.722	0.022	0.263	
371.59	0.604	0.246	0.02	0.721	0.022	0.245	
372.9	0.517	0.22	0.018	0.717	0.023	0.218	
374.97	0.437	0.188	0.015	0.707	0.024	0.194	
376.2	0.378	0.172	0.014	0.697	0.024	0.177	
376.74	0.297	0.167	0.013	0.713	0.023	0.141	
377.95	0.211	0.154	0.012	0.709	0.023	0.105	
378.45	0.324	0.144	0.012	0.661	0.027	0.169	
379.55	0.665	0.109	0.009	0.548	0.036	0.376	
379.77	0.74	0.106	0.009	0.527	0.038	0.424	
380.19	0.586	0.106	0.009	0.546	0.037	0.346	
380.57	0.506	0.106	0.009	0.568	0.035	0.297	
381.23	0.262	0.119	0.01	0.628	0.03	0.152	
381.38	0.794	0.086	0.007	0.46	0.037	0.497	
381.67	0.411	0.105	0.008	0.577	0.034	0.249	
382.4	0.156	0.111	0.009	0.619	0.031	0.095	
382.7	0.284	0.108	0.009	0.578	0.034	0.183	
383.61	0.843	0.065	0.005	0.379	0.031	0.585	

System: water + butan-1-ol + 3-methylbutan-1-ol; phases: Liquid mixture 1, Liquid mixture 2
Fixed: Pressure, kPa = 101.3
Property: Mole fraction of water (Liquid mixture 1); method: Chromatography
Property: Mole fraction of water (Liquid mixture 2); method: Chromatography
Property: Mole fraction of butan-1-ol (Liquid mixture 2); method: Chromatography
Temperature, K	Mole fraction of butan-1-ol	Mole fraction of water	uncertainty	Mole fraction of water	uncertainty	Mole fraction of butan-1-ol	uncertainty
365.93	0.38	0.596	0.185	0.985	0.015	0.015	
365.92	0.391	0.546	0.19	0.986	0.001	0.013	
366.16	0.371	0.525	0.089	0.987	0.001	0.012	
366.37	0.331	0.499	0.095	0.988	0.001	0.009	
366.6	0.279	0.487	0.092	0.989	0.001	0.008	
366.92	0.194	0.48	0.057	0.992	0.001	0.005	
366.98	0.171	0.488	0.057	0.992	0.001	0.004	
367.12	0.153	0.478	0.086	0.993	0.001	0.003	
367.24	0.141	0.462	0.056	0.993	0.001	0.003	
367.34	0.126	0.444	0.038	0.993	0.001	0.003	
367.62	0.067	0.431	0.06	0.994	0.001	0.001	
368.06	0	0.446	0.036	0.995	0.001	0	

System: water + butan-1-ol + 3-methylbutan-1-ol; phases: Liquid mixture 1, Gas
Fixed: Pressure, kPa = 101.3
Property: Mole fraction of water (Liquid mixture 1); method: Chromatography
Property: Mole fraction of water (Gas); method: Chromatography
Property: Mole fraction of butan-1-ol (Gas); method: Chromatography
Temperature, K	Mole fraction of butan-1-ol	Mole fraction of water	uncertainty	Mole fraction of water	uncertainty	Mole fraction of butan-1-ol	uncertainty
365.93	0.38	0.596	0.032	0.757	0.02	0.233	
365.92	0.391	0.546	0.036	0.778	0.018	0.2	
366.16	0.371	0.525	0.038	0.769	0.019	0.196	
366.37	0.331	0.499	0.04	0.776	0.018	0.168	
366.6	0.279	0.487	0.039	0.777	0.018	0.143	
366.92	0.194	0.48	0.039	0.787	0.017	0.101	
366.98	0.171	0.488	0.039	0.789	0.017	0.093	
367.12	0.153	0.478	0.038	0.789	0.017	0.08	
367.24	0.141	0.462	0.037	0.793	0.017	0.072	
367.34	0.126	0.444	0.036	0.793	0.017	0.063	
367.62	0.067	0.431	0.035	0.797	0.016	0.034	
368.06	0	0.446	0.036	0.808	0.015	0	

System: water + butan-1-ol + 3-methylbutan-1-ol; phases: Liquid mixture 1, Liquid mixture 2
Fixed: Pressure, kPa = 101.3
Property: Mole fraction of water (Liquid mixture 1); method: Chromatography
Property: Mole fraction of water (Liquid mixture 2); method: Chromatography
Property: Mole fraction of butan-1-ol (Liquid mixture 2); method: Chromatography
Temperature, K	Mole fraction of butan-1-ol	Mole fraction of water	uncertainty	Mole fraction of water	uncertainty	Mole fraction of butan-1-ol	uncertainty
303.15	0.494	0.458	0.13	0.984	0.002	0.015	
313.15	0.26	0.406	0.033	0.991	0.001	0.006	
313.15	0.21	0.37	0.031	0.991	0.001	0.005	
303.15	0.078	0.31	0.025	0.994	0.001	0.001	
313.15	0.149	0.337	0.027	0.992	0.001	0.003	
303.15	0	0.299	0.024	0.995	0.001	0	
303.15	0.481	0.417	0.045	0.986	0.001	0.013	
303.15	0.436	0.404	0.033	0.987	0.001	0.011	
303.15	0.385	0.4	0.036	0.989	0.001	0.01	
303.15	0.347	0.358	0.031	0.99	0.001	0.008	
303.15	0.285	0.352	0.028	0.99	0.001	0.006	
303.15	0.149	0.341	0.028	0.992	0.001	0.003	
303.15	0.219	0.344	0.028	0.991	0.001	0.005	
313.15	0.079	0.32	0.026	0.994	0.001	0.001	
313.15	0.484	0.469	0.061	0.986	0.001	0.014	
313.15	0	0.308	0.025	0.995	0.001	0	
313.15	0.46	0.439	0.048	0.987	0.001	0.012	
313.15	0.426	0.416	0.038	0.988	0.001	0.01	
313.15	0.382	0.398	0.033	0.989	0.001	0.009	
313.15	0.329	0.393	0.032	0.99	0.001	0.007	

System: water + 3-methylbutan-1-ol; phases: Liquid mixture 1, Liquid mixture 2
Fixed: Pressure, kPa = 101.3
Property: Mole fraction of water (Liquid mixture 1); method: Chromatography
Temperature, K	Mole fraction of water	uncertainty
303.15	0.299	0.024
313.15	0.308	0.025
368.06	0.446	0.036

System: water + 3-methylbutan-1-ol; phases: Liquid mixture 2, Liquid mixture 1
Fixed: Pressure, kPa = 101.3
Property: Mole fraction of water (Liquid mixture 2); method: Chromatography
Temperature, K	Mole fraction of water	uncertainty
303.15	0.995	0.001
313.15	0.995	0.001
368.06	0.995	0.001

System: water + 3-methylbutan-1-ol; phases: Liquid mixture 1, Gas
Property: Boiling temperature at pressure P, K (Liquid mixture 1); method: Ebulliometric method (Recirculating still)
Mole fraction of water	Pressure, kPa	Boiling temperature at pressure P, K	uncertainty
0.446	101.3	368.06	0.15

System: water + 3-methylbutan-1-ol; phases: Liquid mixture 1, Gas
Property: Boiling temperature at pressure P, K (Liquid mixture 1); method: Ebulliometric method (Recirculating still)
Mole fraction of water	Pressure, kPa	Boiling temperature at pressure P, K	uncertainty
0.808	101.3	368.06	0.15
