Measured thermophysical data. Densities and Speeds of Sound of D(+)-Glucose, D(-)-Fructose, D(+)-Xylose and D(-)-Ribose in Aqueous Tripotassium Citrate Solutions at Different Temperatures
Source: J. Chem. Eng. Data, 2016, 10.1021/acs.jced.5b00933
Compound 1: D-glucose, C6H12O6, InChI=1S/C6H12O6/c7-1-3(9)5(11)6(12)4(10)2-8/h1,3-6,8-12H,2H2/t3-,4+,5+,6+/m0/s1, purity 99%
Compound 2: D-fructose, C6H12O6, InChI=1S/C6H12O6/c7-1-3(9)5(11)6(12)4(10)2-8/h3,5-9,11-12H,1-2H2/t3-,5-,6-/m1/s1, purity 99%
Compound 3: D-xylose, C5H10O5, InChI=1S/C5H10O5/c6-1-3(8)5(10)4(9)2-7/h1,3-5,7-10H,2H2/t3-,4+,5+/m0/s1, purity 99%
Compound 4: D-ribose, C5H10O5, InChI=1S/C5H10O5/c6-1-3(8)5(10)4(9)2-7/h1,3-5,7-10H,2H2/t3-,4+,5-/m0/s1, purity 99%
Compound 5: potassium citrate, C6H5K3O7, InChI=1S/C6H8O7.3K/c7-3(8)1-6(13,5(11)12)2-4(9)10;;;/h13H,1-2H2,(H,7,8)(H,9,10)(H,11,12);;;/q;3*+1/p-3, purity 99%
Compound 6: water, H2O, InChI=1S/H2O/h1H2

System: D-glucose + potassium citrate + water; phases: Liquid
Fixed: Pressure, kPa = 100
Property: Mass density, kg/m3 (Liquid); method: Vibrating tube method
Temperature, K	Molality, mol/kg of D-glucose	Solvent: Molality, mol/kg of potassium citrate	Mass density, kg/m3	uncertainty
288.15	0	0.2	1036.811	4.003
288.15	0.10072	0.2	1041.855	4.003
288.15	0.20378	0.2	1050.2	4.003
288.15	0.29918	0.2	1053.846	4.003
288.15	0.39504	0.2	1061.593	4.003
288.15	0.49689	0.2	1065.346	4.003
288.15	0.5772	0.2	1071.685	4.003
288.15	0.69353	0.2	1078.89	4.004
288.15	0.79534	0.2	1084.601	4.004
288.15	0.89852	0.2	1090.352	4.004
288.15	0.99398	0.2	1095.528	4.004
288.15	1.095	0.2	1100.353	4.004
288.15	1.19531	0.2	1101.538	4.004
288.15	0	0.4	1073.438	4.003
288.15	0.0999	0.4	1079.601	4.004
288.15	0.20016	0.4	1086.569	4.004
288.15	0.30008	0.4	1092.675	4.004
288.15	0.40023	0.4	1096.871	4.004
288.15	0.5001	0.4	1103.886	4.004
288.15	0.60041	0.4	1108.362	4.004
288.15	0.70084	0.4	1114.405	4.004
288.15	0.80044	0.4	1118.195	4.005
288.15	0.89904	0.4	1124.581	4.005
288.15	0.99828	0.4	1128.207	4.005
288.15	1.1001	0.4	1132.795	4.005
288.15	1.20097	0.4	1139.475	4.005
288.15	0	0.6	1128.011	4.005
288.15	0.10069	0.6	1132.068	4.005
288.15	0.20388	0.6	1139.271	4.005
288.15	0.30319	0.6	1143.143	4.005
288.15	0.40178	0.6	1149.478	4.005
288.15	0.50055	0.6	1155.751	4.006
288.15	0.60039	0.6	1158.508	4.006
288.15	0.70044	0.6	1163.486	4.006
288.15	0.80135	0.6	1168.044	4.006
288.15	0.90153	0.6	1173.954	4.006
288.15	1.00117	0.6	1177.132	4.006
288.15	1.101	0.6	1182.753	4.007
288.15	1.20391	0.6	1185.712	4.007
298.15	0	0.2	1034.217	4.003
298.15	0.10072	0.2	1039.234	4.003
298.15	0.20378	0.2	1047.44	4.003
298.15	0.29918	0.2	1051.626	4.003
298.15	0.39504	0.2	1058.703	4.003
298.15	0.49689	0.2	1062.502	4.003
298.15	0.5772	0.2	1068.656	4.003
298.15	0.69353	0.2	1075.812	4.003
298.15	0.79534	0.2	1081.845	4.004
298.15	0.89852	0.2	1087.133	4.004
298.15	0.99398	0.2	1092.252	4.004
298.15	1.095	0.2	1097.02	4.004
298.15	1.19531	0.2	1100.243	4.004
298.15	0	0.4	1070.409	4.003
298.15	0.0999	0.4	1076.514	4.004
298.15	0.20016	0.4	1083.391	4.004
298.15	0.30008	0.4	1089.434	4.004
298.15	0.40023	0.4	1093.547	4.004
298.15	0.5001	0.4	1100.532	4.004
298.15	0.60041	0.4	1105.002	4.004
298.15	0.70084	0.4	1110.951	4.004
298.15	0.80044	0.4	1114.764	4.004
298.15	0.89904	0.4	1121.027	4.005
298.15	0.99828	0.4	1124.681	4.005
298.15	1.1001	0.4	1129.215	4.005
298.15	1.20097	0.4	1135.778	4.005
298.15	0	0.6	1124.417	4.005
298.15	0.10069	0.6	1128.505	4.005
298.15	0.20388	0.6	1135.59	4.005
298.15	0.30319	0.6	1139.483	4.005
298.15	0.40178	0.6	1145.717	4.005
298.15	0.50055	0.6	1151.94	4.006
298.15	0.60039	0.6	1154.737	4.006
298.15	0.70044	0.6	1159.664	4.006
298.15	0.80135	0.6	1164.196	4.006
298.15	0.90153	0.6	1169.999	4.006
298.15	1.00117	0.6	1173.207	4.006
298.15	1.101	0.6	1178.727	4.006
298.15	1.20391	0.6	1181.686	4.006
308.15	0	0.2	1030.818	4.003
308.15	0.10072	0.2	1035.767	4.003
308.15	0.20378	0.2	1043.912	4.003
308.15	0.29918	0.2	1047.437	4.003
308.15	0.39504	0.2	1055.076	4.003
308.15	0.49689	0.2	1058.817	4.003
308.15	0.5772	0.2	1064.929	4.003
308.15	0.69353	0.2	1072.035	4.003
308.15	0.79534	0.2	1077.62	4.004
308.15	0.89852	0.2	1083.255	4.004
308.15	0.99398	0.2	1088.33	4.004
308.15	1.095	0.2	1093.054	4.004
308.15	1.19531	0.2	1096.282	4.004
308.15	0	0.4	1066.683	4.003
308.15	0.0999	0.4	1072.737	4.003
308.15	0.20016	0.4	1079.564	4.004
308.15	0.30008	0.4	1085.561	4.004
308.15	0.40023	0.4	1089.57	4.004
308.15	0.5001	0.4	1096.57	4.004
308.15	0.60041	0.4	1101.002	4.004
308.15	0.70084	0.4	1106.911	4.004
308.15	0.80044	0.4	1110.678	4.004
308.15	0.89904	0.4	1116.908	4.005
308.15	0.99828	0.4	1120.521	4.005
308.15	1.1001	0.4	1125.029	4.005
308.15	1.20097	0.4	1131.547	4.005
308.15	0	0.6	1120.276	4.005
308.15	0.10069	0.6	1124.349	4.005
308.15	0.20388	0.6	1131.391	4.005
308.15	0.30319	0.6	1135.249	4.005
308.15	0.40178	0.6	1141.457	4.005
308.15	0.50055	0.6	1147.642	4.005
308.15	0.60039	0.6	1150.41	4.006
308.15	0.70044	0.6	1155.299	4.006
308.15	0.80135	0.6	1159.818	4.006
308.15	0.90153	0.6	1165.588	4.006
308.15	1.00117	0.6	1168.759	4.006
308.15	1.101	0.6	1174.26	4.006
308.15	1.20391	0.6	1177.177	4.006
318.15	0	0.2	1026.726	4.002
318.15	0.10072	0.2	1031.622	4.003
318.15	0.20378	0.2	1039.719	4.003
318.15	0.29918	0.2	1043.19	4.003
318.15	0.39504	0.2	1050.799	4.003
318.15	0.49689	0.2	1054.49	4.003
318.15	0.5772	0.2	1060.611	4.003
318.15	0.69353	0.2	1067.651	4.003
318.15	0.79534	0.2	1073.201	4.003
318.15	0.89852	0.2	1078.792	4.004
318.15	0.99398	0.2	1083.829	4.004
318.15	1.095	0.2	1088.522	4.004
318.15	1.19531	0.2	1093.655	4.004
318.15	0	0.4	1062.338	4.003
318.15	0.0999	0.4	1068.375	4.003
318.15	0.20016	0.4	1075.154	4.003
318.15	0.30008	0.4	1081.12	4.004
318.15	0.40023	0.4	1086.044	4.004
318.15	0.5001	0.4	1092.072	4.004
318.15	0.60041	0.4	1096.462	4.004
318.15	0.70084	0.4	1102.339	4.004
318.15	0.80044	0.4	1106.065	4.004
318.15	0.89904	0.4	1112.276	4.004
318.15	0.99828	0.4	1115.84	4.005
318.15	1.1001	0.4	1120.337	4.005
318.15	1.20097	0.4	1126.829	4.005
318.15	0	0.6	1115.686	4.005
318.15	0.10069	0.6	1119.772	4.005
318.15	0.20388	0.6	1126.725	4.005
318.15	0.30319	0.6	1130.548	4.005
318.15	0.40178	0.6	1136.737	4.005
318.15	0.50055	0.6	1142.895	4.005
318.15	0.60039	0.6	1145.643	4.005
318.15	0.70044	0.6	1150.482	4.006
318.15	0.80135	0.6	1155.004	4.006
318.15	0.90153	0.6	1160.746	4.006
318.15	1.00117	0.6	1163.877	4.006
318.15	1.101	0.6	1169.389	4.006
318.15	1.20391	0.6	1172.259	4.006

System: D-glucose + potassium citrate + water; phases: Liquid
Fixed: Pressure, kPa = 100
Fixed: Frequency, MHz = 3
Property: Speed of sound, m/s (Liquid); method: Sing-around technique in a fixed-path interferometer
Temperature, K	Molality, mol/kg of D-glucose	Solvent: Molality, mol/kg of potassium citrate	Speed of sound, m/s	uncertainty
288.15	0	0.2	1505.54	1.41
288.15	0.10072	0.2	1512.23	1.42
288.15	0.20378	0.2	1519.05	1.42
288.15	0.29918	0.2	1525.34	1.42
288.15	0.39504	0.2	1531.59	1.42
288.15	0.49689	0.2	1538.27	1.42
288.15	0.5772	0.2	1543.48	1.42
288.15	0.69353	0.2	1550.94	1.42
288.15	0.79534	0.2	1557.52	1.42
288.15	0.89852	0.2	1564.06	1.42
288.15	0.99398	0.2	1570.07	1.43
288.15	1.095	0.2	1576.18	1.43
288.15	1.19531	0.2	1582.32	1.43
288.15	0	0.4	1544.3	1.4
288.15	0.0999	0.4	1551	1.42
288.15	0.20016	0.4	1557.6	1.4
288.15	0.30008	0.4	1564.19	1.42
288.15	0.40023	0.4	1570.64	1.43
288.15	0.5001	0.4	1577.12	1.43
288.15	0.60041	0.4	1583.39	1.43
288.15	0.70084	0.4	1589.54	1.43
288.15	0.80044	0.4	1595.78	1.43
288.15	0.89904	0.4	1601.79	1.43
288.15	0.99828	0.4	1607.66	1.43
288.15	1.1001	0.4	1613.51	1.43
288.15	1.20097	0.4	1619.26	1.43
288.15	0	0.6	1604.04	1.43
288.15	0.10069	0.6	1610.09	1.43
288.15	0.20388	0.6	1616.28	1.43
288.15	0.30319	0.6	1622.27	1.43
288.15	0.40178	0.6	1628.25	1.44
288.15	0.50055	0.6	1634.21	1.44
288.15	0.60039	0.6	1640.2	1.4
288.15	0.70044	0.6	1646.25	1.44
288.15	0.80135	0.6	1652.24	1.44
288.15	0.90153	0.6	1658.32	1.44
288.15	1.00117	0.6	1664.23	1.44
288.15	1.101	0.6	1670.08	1.44
288.15	1.20391	0.6	1676.24	1.44
298.15	0	0.2	1532.95	1.42
298.15	0.10072	0.2	1539.23	1.42
298.15	0.20378	0.2	1545.63	1.42
298.15	0.29918	0.2	1551.46	1.42
298.15	0.39504	0.2	1557.38	1.42
298.15	0.49689	0.2	1563.59	1.42
298.15	0.5772	0.2	1568.38	1.43
298.15	0.69353	0.2	1575.34	1.43
298.15	0.79534	0.2	1581.43	1.43
298.15	0.89852	0.2	1587.54	1.43
298.15	0.99398	0.2	1592.87	1.43
298.15	1.095	0.2	1598.45	1.43
298.15	1.19531	0.2	1603.76	1.43
298.15	0	0.4	1569.08	1.43
298.15	0.0999	0.4	1575.4	1.4
298.15	0.20016	0.4	1581.65	1.43
298.15	0.30008	0.4	1587.81	1.43
298.15	0.40023	0.4	1593.91	1.43
298.15	0.5001	0.4	1599.74	1.43
298.15	0.60041	0.4	1605.65	1.43
298.15	0.70084	0.4	1611.48	1.43
298.15	0.80044	0.4	1616.97	1.43
298.15	0.89904	0.4	1622.48	1.43
298.15	0.99828	0.4	1627.87	1.44
298.15	1.1001	0.4	1633.05	1.44
298.15	1.20097	0.4	1638.43	1.44
298.15	0	0.6	1625.87	1.44
298.15	0.10069	0.6	1631.5	1.4
298.15	0.20388	0.6	1637.31	1.44
298.15	0.30319	0.6	1642.87	1.44
298.15	0.40178	0.6	1648.44	1.44
298.15	0.50055	0.6	1653.96	1.44
298.15	0.60039	0.6	1659.57	1.44
298.15	0.70044	0.6	1665.14	1.44
298.15	0.80135	0.6	1670.76	1.44
298.15	0.90153	0.6	1676.33	1.44
298.15	1.00117	0.6	1681.82	1.45
298.15	1.101	0.6	1687.28	1.45
298.15	1.20391	0.6	1692.78	1.45
308.15	0	0.2	1553.89	1.42
308.15	0.10072	0.2	1559.71	1.42
308.15	0.20378	0.2	1565.57	1.43
308.15	0.29918	0.2	1570.99	1.43
308.15	0.39504	0.2	1576.46	1.43
308.15	0.49689	0.2	1581.93	1.43
308.15	0.5772	0.2	1586.42	1.43
308.15	0.69353	0.2	1592.94	1.43
308.15	0.79534	0.2	1598.49	1.43
308.15	0.89852	0.2	1603.72	1.43
308.15	0.99398	0.2	1608.66	1.43
308.15	1.095	0.2	1613.85	1.43
308.15	1.19531	0.2	1618.82	1.43
308.15	0	0.4	1587.91	1.43
308.15	0.0999	0.4	1593.88	1.43
308.15	0.20016	0.4	1599.73	1.43
308.15	0.30008	0.4	1605.58	1.43
308.15	0.40023	0.4	1611.27	1.43
308.15	0.5001	0.4	1616.82	1.43
308.15	0.60041	0.4	1622.28	1.43
308.15	0.70084	0.4	1627.66	1.44
308.15	0.80044	0.4	1632.96	1.44
308.15	0.89904	0.4	1638.12	1.44
308.15	0.99828	0.4	1643.05	1.44
308.15	1.1001	0.4	1648.02	1.44
308.15	1.20097	0.4	1653.15	1.44
308.15	0	0.6	1641.68	1.44
308.15	0.10069	0.6	1646.88	1.44
308.15	0.20388	0.6	1652.18	1.44
308.15	0.30319	0.6	1657.31	1.44
308.15	0.40178	0.6	1662.37	1.44
308.15	0.50055	0.6	1667.45	1.44
308.15	0.60039	0.6	1672.61	1.44
308.15	0.70044	0.6	1677.67	1.44
308.15	0.80135	0.6	1682.77	1.45
308.15	0.90153	0.6	1687.91	1.45
308.15	1.00117	0.6	1693.02	1.45
308.15	1.101	0.6	1698.09	1.45
308.15	1.20391	0.6	1703.3	1.5
318.15	0	0.2	1568.92	1.43
318.15	0.10072	0.2	1574.33	1.43
318.15	0.20378	0.2	1579.79	1.43
318.15	0.29918	0.2	1584.78	1.43
318.15	0.39504	0.2	1589.78	1.43
318.15	0.49689	0.2	1594.98	1.43
318.15	0.5772	0.2	1599.03	1.43
318.15	0.69353	0.2	1604.85	1.43
318.15	0.79534	0.2	1609.88	1.43
318.15	0.89852	0.2	1614.93	1.43
318.15	0.99398	0.2	1619.61	1.43
318.15	1.095	0.2	1624.13	1.44
318.15	1.19531	0.2	1628.88	1.44
318.15	0	0.4	1601.3	1.4
318.15	0.0999	0.4	1606.75	1.43
318.15	0.20016	0.4	1612.13	1.43
318.15	0.30008	0.4	1617.41	1.43
318.15	0.40023	0.4	1622.59	1.44
318.15	0.5001	0.4	1627.62	1.44
318.15	0.60041	0.4	1632.75	1.44
318.15	0.70084	0.4	1637.56	1.44
318.15	0.80044	0.4	1642.32	1.44
318.15	0.89904	0.4	1647.12	1.44
318.15	0.99828	0.4	1651.61	1.44
318.15	1.1001	0.4	1656.21	1.44
318.15	1.20097	0.4	1660.64	1.44
318.15	0	0.6	1652.52	1.44
318.15	0.10069	0.6	1657.33	1.44
318.15	0.20388	0.6	1662.27	1.44
318.15	0.30319	0.6	1667.01	1.44
318.15	0.40178	0.6	1671.69	1.44
318.15	0.50055	0.6	1676.42	1.44
318.15	0.60039	0.6	1681.17	1.45
318.15	0.70044	0.6	1685.95	1.45
318.15	0.80135	0.6	1690.72	1.45
318.15	0.90153	0.6	1695.52	1.45
318.15	1.00117	0.6	1700.11	1.45
318.15	1.101	0.6	1704.77	1.45
318.15	1.20391	0.6	1709.54	1.45

System: D-fructose + potassium citrate + water; phases: Liquid
Fixed: Pressure, kPa = 100
Property: Mass density, kg/m3 (Liquid); method: Vibrating tube method
Temperature, K	Molality, mol/kg of D-fructose	Solvent: Molality, mol/kg of potassium citrate	Mass density, kg/m3	uncertainty
288.15	0	0.2	1036.811	4.003
288.15	0.10058	0.2	1043.863	4.003
288.15	0.20045	0.2	1049.759	4.003
288.15	0.30359	0.2	1056.87	4.003
288.15	0.40188	0.2	1063.118	4.003
288.15	0.49945	0.2	1069.194	4.003
288.15	0.6015	0.2	1073.648	4.003
288.15	0.69886	0.2	1080.815	4.004
288.15	0.80388	0.2	1084.137	4.004
288.15	0.90329	0.2	1090.015	4.004
288.15	1.00366	0.2	1097.185	4.004
288.15	1.09869	0.2	1100.392	4.004
288.15	1.20099	0.2	1108.053	4.004
288.15	0	0.4	1073.438	4.004
288.15	0.10411	0.4	1080.406	4.004
288.15	0.20197	0.4	1087.224	4.004
288.15	0.30155	0.4	1093.536	4.004
288.15	0.39993	0.4	1098.277	4.004
288.15	0.49908	0.4	1104.661	4.004
288.15	0.59964	0.4	1109.37	4.004
288.15	0.69882	0.4	1116.029	4.005
288.15	0.79949	0.4	1121.137	4.005
288.15	0.90063	0.4	1126.423	4.005
288.15	0.99945	0.4	1131.97	4.005
288.15	1.09594	0.4	1136.381	4.005
288.15	1.20138	0.4	1142.009	4.005
288.15	0	0.6	1128.011	4.005
288.15	0.10838	0.6	1135.227	4.005
288.15	0.1994	0.6	1141.037	4.005
288.15	0.30131	0.6	1146.372	4.005
288.15	0.40288	0.6	1150.885	4.006
288.15	0.50063	0.6	1154.481	4.006
288.15	0.60308	0.6	1161.238	4.006
288.15	0.7032	0.6	1164.855	4.006
288.15	0.79374	0.6	1170.236	4.006
288.15	0.8984	0.6	1175.492	4.006
288.15	1.00331	0.6	1178.349	4.006
288.15	1.10357	0.6	1185.466	4.007
288.15	1.19729	0.6	1189.064	4.007
298.15	0	0.2	1034.217	4.003
298.15	0.10058	0.2	1041.147	4.003
298.15	0.20045	0.2	1046.966	4.003
298.15	0.30359	0.2	1053.942	4.003
298.15	0.40188	0.2	1060.084	4.003
298.15	0.49945	0.2	1066.066	4.003
298.15	0.6015	0.2	1070.479	4.003
298.15	0.69886	0.2	1077.494	4.004
298.15	0.80388	0.2	1080.839	4.004
298.15	0.90329	0.2	1086.593	4.004
298.15	1.00366	0.2	1093.599	4.004
298.15	1.09869	0.2	1096.804	4.004
298.15	1.20099	0.2	1104.288	4.004
298.15	0	0.4	1070.409	4.003
298.15	0.10411	0.4	1077.268	4.004
298.15	0.20197	0.4	1083.981	4.004
298.15	0.30155	0.4	1090.12	4.004
298.15	0.39993	0.4	1094.9	4.004
298.15	0.49908	0.4	1101.158	4.004
298.15	0.59964	0.4	1105.794	4.004
298.15	0.69882	0.4	1112.354	4.004
298.15	0.79949	0.4	1117.384	4.005
298.15	0.90063	0.4	1122.592	4.005
298.15	0.99945	0.4	1128.059	4.005
298.15	1.09594	0.4	1132.403	4.005
298.15	1.20138	0.4	1137.947	4.005
298.15	0	0.6	1124.417	4.005
298.15	0.10838	0.6	1131.546	4.005
298.15	0.1994	0.6	1137.284	4.005
298.15	0.30131	0.6	1142.593	4.005
298.15	0.40288	0.6	1146.98	4.005
298.15	0.50063	0.6	1150.585	4.006
298.15	0.60308	0.6	1157.209	4.006
298.15	0.7032	0.6	1160.831	4.006
298.15	0.79374	0.6	1166.103	4.006
298.15	0.8984	0.6	1171.272	4.006
298.15	1.00331	0.6	1174.177	4.006
298.15	1.10357	0.6	1183.11	4.007
298.15	1.19729	0.6	1184.675	4.007
308.15	0	0.2	1030.818	4.003
308.15	0.10058	0.2	1037.649	4.003
308.15	0.20045	0.2	1043.38	4.003
308.15	0.30359	0.2	1050.262	4.003
308.15	0.40188	0.2	1056.317	4.003
308.15	0.49945	0.2	1062.212	4.003
308.15	0.6015	0.2	1066.538	4.003
308.15	0.69886	0.2	1073.48	4.003
308.15	0.80388	0.2	1078.044	4.004
308.15	0.90329	0.2	1082.436	4.004
308.15	1.00366	0.2	1089.355	4.004
308.15	1.09869	0.2	1092.494	4.004
308.15	1.20099	0.2	1099.897	4.004
308.15	0	0.4	1066.683	4.003
308.15	0.10411	0.4	1073.449	4.003
308.15	0.20197	0.4	1080.084	4.004
308.15	0.30155	0.4	1086.224	4.004
308.15	0.39993	0.4	1090.853	4.004
308.15	0.49908	0.4	1097.037	4.004
308.15	0.59964	0.4	1101.593	4.004
308.15	0.69882	0.4	1108.086	4.004
308.15	0.79949	0.4	1113.048	4.004
308.15	0.90063	0.4	1118.185	4.005
308.15	0.99945	0.4	1123.583	4.005
308.15	1.09594	0.4	1127.867	4.005
308.15	1.20138	0.4	1133.337	4.005
308.15	0	0.6	1120.276	4.005
308.15	0.10838	0.6	1127.341	4.005
308.15	0.1994	0.6	1133.015	4.005
308.15	0.30131	0.6	1138.241	4.005
308.15	0.40288	0.6	1142.591	4.005
308.15	0.50063	0.6	1146.122	4.005
308.15	0.60308	0.6	1152.689	4.006
308.15	0.7032	0.6	1156.241	4.006
308.15	0.79374	0.6	1161.466	4.006
308.15	0.8984	0.6	1166.578	4.006
308.15	1.00331	0.6	1169.41	4.006
308.15	1.10357	0.6	1176.297	4.006
308.15	1.19729	0.6	1179.805	4.006
318.15	0	0.2	1026.726	4.002
318.15	0.10058	0.2	1033.479	4.003
318.15	0.20045	0.2	1039.133	4.003
318.15	0.30359	0.2	1045.94	4.003
318.15	0.40188	0.2	1051.921	4.003
318.15	0.49945	0.2	1057.733	4.003
318.15	0.6015	0.2	1061.974	4.003
318.15	0.69886	0.2	1068.861	4.003
318.15	0.80388	0.2	1073.366	4.003
318.15	0.90329	0.2	1077.681	4.004
318.15	1.00366	0.2	1084.536	4.004
318.15	1.09869	0.2	1087.613	4.004
318.15	1.20099	0.2	1094.959	4.004
318.15	0	0.4	1062.338	4.003
318.15	0.10411	0.4	1069.043	4.003
318.15	0.20197	0.4	1075.612	4.003
318.15	0.30155	0.4	1081.683	4.004
318.15	0.39993	0.4	1086.244	4.004
318.15	0.49908	0.4	1092.363	4.004
318.15	0.59964	0.4	1096.849	4.004
318.15	0.69882	0.4	1103.285	4.004
318.15	0.79949	0.4	1108.198	4.004
318.15	0.90063	0.4	1113.273	4.004
318.15	0.99945	0.4	1118.607	4.005
318.15	1.09594	0.4	1122.831	4.005
318.15	1.20138	0.4	1128.245	4.005
318.15	0	0.6	1115.686	4.005
318.15	0.10838	0.6	1122.673	4.005
318.15	0.1994	0.6	1128.277	4.005
318.15	0.30131	0.6	1133.422	4.005
318.15	0.40288	0.6	1137.736	4.005
318.15	0.50063	0.6	1141.198	4.005
318.15	0.60308	0.6	1147.717	4.005
318.15	0.7032	0.6	1151.192	4.006
318.15	0.79374	0.6	1156.4	4.006
318.15	0.8984	0.6	1161.445	4.006
318.15	1.00331	0.6	1164.193	4.006
318.15	1.10357	0.6	1171.069	4.006
318.15	1.19729	0.6	1174.518	4.006

System: D-fructose + potassium citrate + water; phases: Liquid
Fixed: Pressure, kPa = 100
Fixed: Frequency, MHz = 3
Property: Speed of sound, m/s (Liquid); method: Sing-around technique in a fixed-path interferometer
Temperature, K	Molality, mol/kg of D-fructose	Solvent: Molality, mol/kg of potassium citrate	Speed of sound, m/s	uncertainty
288.15	0.10058	0.2	1513.45	1.42
288.15	0.20045	0.2	1520.37	1.42
288.15	0.30359	0.2	1527.47	1.42
288.15	0.40188	0.2	1534.13	1.42
288.15	0.49945	0.2	1540.71	1.42
288.15	0.6015	0.2	1547.53	1.42
288.15	0.69886	0.2	1554.01	1.42
288.15	0.80388	0.2	1560.87	1.42
288.15	0.90329	0.2	1567.36	1.43
288.15	1.00366	0.2	1573.89	1.43
288.15	1.09869	0.2	1579.66	1.43
288.15	1.20099	0.2	1586.32	1.43
288.15	0.10411	0.4	1551.64	1.42
288.15	0.20197	0.4	1558.46	1.42
288.15	0.30155	0.4	1565.29	1.43
288.15	0.39993	0.4	1572.08	1.43
288.15	0.49908	0.4	1578.75	1.43
288.15	0.59964	0.4	1585.53	1.43
288.15	0.69882	0.4	1592.06	1.43
288.15	0.79949	0.4	1598.79	1.43
288.15	0.90063	0.4	1605.29	1.43
288.15	0.99945	0.4	1611.54	1.43
288.15	1.09594	0.4	1617.36	1.43
288.15	1.20138	0.4	1623.89	1.44
288.15	0.10838	0.6	1610.82	1.43
288.15	0.1994	0.6	1616.52	1.43
288.15	0.30131	0.6	1622.92	1.44
288.15	0.40288	0.6	1629.27	1.44
288.15	0.50063	0.6	1635.47	1.44
288.15	0.60308	0.6	1641.86	1.44
288.15	0.7032	0.6	1648.17	1.44
288.15	0.79374	0.6	1653.89	1.44
288.15	0.8984	0.6	1660.59	1.44
288.15	1.00331	0.6	1667.17	1.44
288.15	1.10357	0.6	1673.55	1.44
288.15	1.19729	0.6	1679.41	1.45
298.15	0.10058	0.2	1539.57	1.42
298.15	0.20045	0.2	1546.05	1.42
298.15	0.30359	0.2	1552.67	1.42
298.15	0.40188	0.2	1558.95	1.42
298.15	0.49945	0.2	1565.05	1.42
298.15	0.6015	0.2	1571.56	1.43
298.15	0.69886	0.2	1577.54	1.43
298.15	0.80388	0.2	1583.92	1.43
298.15	0.90329	0.2	1589.87	1.43
298.15	1.00366	0.2	1595.74	1.43
298.15	1.09869	0.2	1601.32	1.43
298.15	1.20099	0.2	1607.21	1.43
298.15	0.10411	0.4	1576	2
298.15	0.20197	0.4	1582.38	1.43
298.15	0.30155	0.4	1588.78	1.43
298.15	0.39993	0.4	1595.02	1.43
298.15	0.49908	0.4	1601.18	1.43
298.15	0.59964	0.4	1607.29	1.43
298.15	0.69882	0.4	1613.12	1.43
298.15	0.79949	0.4	1619.11	1.43
298.15	0.90063	0.4	1624.88	1.44
298.15	0.99945	0.4	1630.48	1.44
298.15	1.09594	0.4	1636.01	1.44
298.15	1.20138	0.4	1641.55	1.44
298.15	0.10838	0.6	1632.07	1.44
298.15	0.1994	0.6	1637.29	1.44
298.15	0.30131	0.6	1643.12	1.44
298.15	0.40288	0.6	1648.92	1.44
298.15	0.50063	0.6	1654.49	1.44
298.15	0.60308	0.6	1660.32	1.44
298.15	0.7032	0.6	1666.09	1.44
298.15	0.79374	0.6	1671.27	1.44
298.15	0.8984	0.6	1677.27	1.44
298.15	1.00331	0.6	1683.11	1.45
298.15	1.10357	0.6	1688.66	1.45
298.15	1.19729	0.6	1693.87	1.45
308.15	0.10058	0.2	1559.87	1.42
308.15	0.20045	0.2	1565.72	1.43
308.15	0.30359	0.2	1571.69	1.43
308.15	0.40188	0.2	1577.32	1.43
308.15	0.49945	0.2	1582.78	1.43
308.15	0.6015	0.2	1588.45	1.43
308.15	0.69886	0.2	1593.87	1.43
308.15	0.80388	0.2	1599.4	1.4
308.15	0.90329	0.2	1604.54	1.43
308.15	1.00366	0.2	1610.01	1.43
308.15	1.09869	0.2	1614.59	1.43
308.15	1.20099	0.2	1620.04	1.43
308.15	0.10411	0.4	1594.31	1.43
308.15	0.20197	0.4	1600.19	1.43
308.15	0.30155	0.4	1606.07	1.43
308.15	0.39993	0.4	1611.77	1.43
308.15	0.49908	0.4	1617.49	1.43
308.15	0.59964	0.4	1622.92	1.44
308.15	0.69882	0.4	1628.39	1.44
308.15	0.79949	0.4	1633.85	1.44
308.15	0.90063	0.4	1638.89	1.44
308.15	0.99945	0.4	1644.24	1.44
308.15	1.09594	0.4	1648.9	1.4
308.15	1.20138	0.4	1654.14	1.44
308.15	0.10838	0.6	1647.29	1.44
308.15	0.1994	0.6	1651.99	1.44
308.15	0.30131	0.6	1657.27	1.44
308.15	0.40288	0.6	1662.51	1.44
308.15	0.50063	0.6	1667.56	1.44
308.15	0.60308	0.6	1672.83	1.44
308.15	0.7032	0.6	1678.03	1.44
308.15	0.79374	0.6	1682.75	1.45
308.15	0.8984	0.6	1688.17	1.45
308.15	1.00331	0.6	1693.58	1.45
308.15	1.10357	0.6	1698.68	1.45
308.15	1.19729	0.6	1703.65	1.45
318.15	0.10058	0.2	1574.47	1.43
318.15	0.20045	0.2	1579.91	1.43
318.15	0.30359	0.2	1585.49	1.43
318.15	0.40188	0.2	1590.63	1.43
318.15	0.49945	0.2	1595.66	1.43
318.15	0.6015	0.2	1600.96	1.43
318.15	0.69886	0.2	1605.93	1.43
318.15	0.80388	0.2	1610.87	1.43
318.15	0.90329	0.2	1615.69	1.43
318.15	1.00366	0.2	1620.45	1.43
318.15	1.09869	0.2	1624.96	1.44
318.15	1.20099	0.2	1629.75	1.44
318.15	0.10411	0.4	1607.13	1.43
318.15	0.20197	0.4	1612.47	1.43
318.15	0.30155	0.4	1617.79	1.43
318.15	0.39993	0.4	1622.84	1.44
318.15	0.49908	0.4	1627.95	1.44
318.15	0.59964	0.4	1632.9	1.4
318.15	0.69882	0.4	1637.7	1.4
318.15	0.79949	0.4	1642.57	1.44
318.15	0.90063	0.4	1647.27	1.44
318.15	0.99945	0.4	1651.52	1.44
318.15	1.09594	0.4	1655.81	1.44
318.15	1.20138	0.4	1660.15	1.44
318.15	0.10838	0.6	1657.61	1.44
318.15	0.1994	0.6	1661.92	1.44
318.15	0.30131	0.6	1666.7	1.4
318.15	0.40288	0.6	1671.52	1.44
318.15	0.50063	0.6	1676.11	1.44
318.15	0.60308	0.6	1680.89	1.45
318.15	0.7032	0.6	1685.67	1.45
318.15	0.79374	0.6	1689.92	1.45
318.15	0.8984	0.6	1694.85	1.45
318.15	1.00331	0.6	1699.74	1.45
318.15	1.10357	0.6	1704.47	1.45
318.15	1.19729	0.6	1708.81	1.45

System: D-xylose + potassium citrate + water; phases: Liquid
Fixed: Pressure, kPa = 100
Property: Mass density, kg/m3 (Liquid); method: Vibrating tube method
Temperature, K	Molality, mol/kg of D-xylose	Solvent: Molality, mol/kg of potassium citrate	Mass density, kg/m3	uncertainty
288.15	0	0.2	1036.811	4.003
288.15	0.09943	0.2	1042.382	4.003
288.15	0.19955	0.2	1047.034	4.003
288.15	0.30215	0.2	1051.889	4.003
288.15	0.39962	0.2	1057.352	4.003
288.15	0.50059	0.2	1061.627	4.003
288.15	0.59997	0.2	1066.296	4.003
288.15	0.70036	0.2	1071.699	4.003
288.15	0.79809	0.2	1076.106	4.003
288.15	0.89999	0.2	1079.729	4.004
288.15	1.00176	0.2	1084.967	4.004
288.15	1.10299	0.2	1087.71	4.004
288.15	1.2009	0.2	1093.709	4.004
288.15	0	0.4	1073.438	4.003
288.15	0.10015	0.4	1078.839	4.004
288.15	0.20042	0.4	1084.707	4.004
288.15	0.3015	0.4	1088.509	4.004
288.15	0.40099	0.4	1094.043	4.004
288.15	0.50064	0.4	1097.679	4.004
288.15	0.60303	0.4	1103.174	4.004
288.15	0.70166	0.4	1106.442	4.004
288.15	0.8017	0.4	1112.236	4.004
288.15	0.90257	0.4	1115.255	4.004
288.15	1.00285	0.4	1120.421	4.005
288.15	1.09943	0.4	1122.192	4.005
288.15	1.20146	0.4	1127.583	4.005
288.15	0	0.6	1128.011	4.005
288.15	0.10029	0.6	1132.148	4.005
288.15	0.20388	0.6	1133.077	4.005
288.15	0.30032	0.6	1142.99	4.005
288.15	0.40217	0.6	1146.288	4.005
288.15	0.50102	0.6	1150.268	4.006
288.15	0.60521	0.6	1153.348	4.006
288.15	0.69866	0.6	1158.222	4.006
288.15	0.80191	0.6	1162.008	4.006
288.15	0.904	0.6	1166.947	4.006
288.15	1.00256	0.6	1168.307	4.006
288.15	1.10204	0.6	1172.979	4.006
288.15	1.20038	0.6	1176.595	4.006
298.15	0	0.2	1034.217	4.003
298.15	0.09943	0.2	1039.703	4.003
298.15	0.19955	0.2	1044.311	4.003
298.15	0.30215	0.2	1049.097	4.003
298.15	0.39962	0.2	1054.469	4.003
298.15	0.50059	0.2	1058.702	4.003
298.15	0.59997	0.2	1063.316	4.003
298.15	0.70036	0.2	1068.62	4.003
298.15	0.79809	0.2	1072.972	4.003
298.15	0.89999	0.2	1076.582	4.004
298.15	1.00176	0.2	1081.712	4.004
298.15	1.10299	0.2	1084.421	4.004
298.15	1.2009	0.2	1090.34	4.004
298.15	0	0.4	1070.409	4.003
298.15	0.10015	0.4	1075.751	4.003
298.15	0.20042	0.4	1081.393	4.004
298.15	0.3015	0.4	1085.304	4.004
298.15	0.40099	0.4	1090.75	4.004
298.15	0.50064	0.4	1094.427	4.004
298.15	0.60303	0.4	1099.772	4.004
298.15	0.70166	0.4	1103.01	4.004
298.15	0.8017	0.4	1108.728	4.004
298.15	0.90257	0.4	1111.739	4.004
298.15	1.00285	0.4	1116.817	4.005
298.15	1.09943	0.4	1118.617	4.005
298.15	1.20146	0.4	1123.908	4.005
298.15	0	0.6	1124.417	4.005
298.15	0.10029	0.6	1128.553	4.005
298.15	0.20388	0.6	1129.46	4.005
298.15	0.30032	0.6	1139.252	4.005
298.15	0.40217	0.6	1142.535	4.005
298.15	0.50102	0.6	1146.455	4.005
298.15	0.60521	0.6	1149.547	4.005
298.15	0.69866	0.6	1154.328	4.006
298.15	0.80191	0.6	1158.091	4.006
298.15	0.904	0.6	1162.966	4.006
298.15	1.00256	0.6	1164.331	4.006
298.15	1.10204	0.6	1168.939	4.006
298.15	1.20038	0.6	1172.521	4.006
308.15	0	0.2	1030.818	4.003
308.15	0.09943	0.2	1036.24	4.003
308.15	0.19955	0.2	1040.803	4.003
308.15	0.30215	0.2	1045.53	4.003
308.15	0.39962	0.2	1050.842	4.003
308.15	0.50059	0.2	1055.032	4.003
308.15	0.59997	0.2	1059.596	4.003
308.15	0.70036	0.2	1064.845	4.003
308.15	0.79809	0.2	1069.149	4.003
308.15	0.89999	0.2	1072.728	4.003
308.15	1.00176	0.2	1077.801	4.004
308.15	1.10299	0.2	1080.458	4.004
308.15	1.2009	0.2	1086.337	4.004
308.15	0	0.4	1066.683	4.003
308.15	0.10015	0.4	1071.987	4.003
308.15	0.20042	0.4	1077.699	4.004
308.15	0.3015	0.4	1081.393	4.004
308.15	0.40099	0.4	1086.832	4.004
308.15	0.50064	0.4	1090.46	4.004
308.15	0.60303	0.4	1095.768	4.004
308.15	0.70166	0.4	1098.955	4.004
308.15	0.8017	0.4	1104.642	4.004
308.15	0.90257	0.4	1107.612	4.004
308.15	1.00285	0.4	1112.653	4.004
308.15	1.09943	0.4	1114.421	4.004
308.15	1.20146	0.4	1119.678	4.005
308.15	0	0.6	1120.276	4.005
308.15	0.10029	0.6	1124.388	4.005
308.15	0.20388	0.6	1125.279	4.005
308.15	0.30032	0.6	1135.01	4.005
308.15	0.40217	0.6	1138.257	4.005
308.15	0.50102	0.6	1142.154	4.005
308.15	0.60521	0.6	1145.205	4.005
308.15	0.69866	0.6	1149.963	4.005
308.15	0.80191	0.6	1153.699	4.006
308.15	0.904	0.6	1158.534	4.006
308.15	1.00256	0.6	1159.863	4.006
308.15	1.10204	0.6	1164.452	4.006
308.15	1.20038	0.6	1168.008	4.006
318.15	0	0.2	1026.726	4.002
318.15	0.09943	0.2	1032.101	4.003
318.15	0.19955	0.2	1036.63	4.003
318.15	0.30215	0.2	1041.309	4.003
318.15	0.39962	0.2	1046.578	4.003
318.15	0.50059	0.2	1050.725	4.003
318.15	0.59997	0.2	1055.248	4.003
318.15	0.70036	0.2	1060.455	4.003
318.15	0.79809	0.2	1064.726	4.003
318.15	0.89999	0.2	1068.277	4.003
318.15	1.00176	0.2	1073.306	4.003
318.15	1.10299	0.2	1075.918	4.003
318.15	1.2009	0.2	1081.782	4.004
318.15	0	0.4	1062.338	4.003
318.15	0.10015	0.4	1067.63	4.003
318.15	0.20042	0.4	1073.298	4.003
318.15	0.3015	0.4	1076.952	4.004
318.15	0.40099	0.4	1082.355	4.004
318.15	0.50064	0.4	1085.94	4.004
318.15	0.60303	0.4	1091.222	4.004
318.15	0.70166	0.4	1094.367	4.004
318.15	0.8017	0.4	1100.037	4.004
318.15	0.90257	0.4	1102.964	4.004
318.15	1.00285	0.4	1107.98	4.004
318.15	1.09943	0.4	1109.71	4.004
318.15	1.20146	0.4	1114.955	4.004
318.15	0	0.6	1115.686	4.005
318.15	0.10029	0.6	1119.746	4.005
318.15	0.20388	0.6	1120.623	4.005
318.15	0.30032	0.6	1130.318	4.005
318.15	0.40217	0.6	1133.521	4.005
318.15	0.50102	0.6	1137.41	4.005
318.15	0.60521	0.6	1140.409	4.005
318.15	0.69866	0.6	1145.167	4.005
318.15	0.80191	0.6	1148.808	4.005
318.15	0.904	0.6	1153.685	4.006
318.15	1.00256	0.6	1154.969	4.006
318.15	1.10204	0.6	1159.548	4.006
318.15	1.20038	0.6	1163.092	4.006

System: D-xylose + potassium citrate + water; phases: Liquid
Fixed: Pressure, kPa = 100
Fixed: Frequency, MHz = 3
Property: Speed of sound, m/s (Liquid); method: Sing-around technique in a fixed-path interferometer
Temperature, K	Molality, mol/kg of D-xylose	Solvent: Molality, mol/kg of potassium citrate	Speed of sound, m/s	uncertainty
288.15	0.09943	0.2	1511.95	1.42
288.15	0.19955	0.2	1517.43	1.42
288.15	0.30215	0.2	1522.94	1.42
288.15	0.39962	0.2	1528.21	1.42
288.15	0.50059	0.2	1533.64	1.42
288.15	0.59997	0.2	1538.98	1.42
288.15	0.70036	0.2	1544.33	1.42
288.15	0.79809	0.2	1549.54	1.42
288.15	0.89999	0.2	1554.91	1.42
288.15	1.00176	0.2	1560.05	1.42
288.15	1.10299	0.2	1565.17	1.42
288.15	1.2009	0.2	1570.27	1.43
288.15	0.10015	0.4	1550.11	1.42
288.15	0.20042	0.4	1555.84	1.42
288.15	0.3015	0.4	1561.53	1.42
288.15	0.40099	0.4	1567.06	1.43
288.15	0.50064	0.4	1572.44	1.43
288.15	0.60303	0.4	1577.82	1.43
288.15	0.70166	0.4	1582.96	1.43
288.15	0.8017	0.4	1588.05	1.43
288.15	0.90257	0.4	1593.05	1.43
288.15	1.00285	0.4	1598.05	1.43
288.15	1.09943	0.4	1602.63	1.43
288.15	1.20146	0.4	1606.96	1.43
288.15	0.10029	0.6	1609.65	1.43
288.15	0.20388	0.6	1615.35	1.43
288.15	0.30032	0.6	1620.59	1.43
288.15	0.40217	0.6	1626.01	1.44
288.15	0.50102	0.6	1631.11	1.44
288.15	0.60521	0.6	1636.36	1.44
288.15	0.69866	0.6	1640.96	1.44
288.15	0.80191	0.6	1645.96	1.44
288.15	0.904	0.6	1650.76	1.44
288.15	1.00256	0.6	1655.27	1.44
288.15	1.10204	0.6	1659.73	1.44
288.15	1.20038	0.6	1663.86	1.44
298.15	0.09943	0.2	1538.07	1.42
298.15	0.19955	0.2	1543.18	1.42
298.15	0.30215	0.2	1548.36	1.42
298.15	0.39962	0.2	1553.24	1.42
298.15	0.50059	0.2	1558.25	1.42
298.15	0.59997	0.2	1563.15	1.42
298.15	0.70036	0.2	1568.13	1.43
298.15	0.79809	0.2	1573.06	1.43
298.15	0.89999	0.2	1577.94	1.43
298.15	1.00176	0.2	1582.69	1.43
298.15	1.10299	0.2	1587.31	1.43
298.15	1.2009	0.2	1592.12	1.43
298.15	0.10015	0.4	1574.53	1.43
298.15	0.20042	0.4	1579.86	1.43
298.15	0.3015	0.4	1585.16	1.43
298.15	0.40099	0.4	1590.15	1.43
298.15	0.50064	0.4	1595.15	1.43
298.15	0.60303	0.4	1600.14	1.43
298.15	0.70166	0.4	1604.72	1.43
298.15	0.8017	0.4	1609.19	1.43
298.15	0.90257	0.4	1613.83	1.43
298.15	1.00285	0.4	1618.11	1.43
298.15	1.09943	0.4	1621.93	1.43
298.15	1.20146	0.4	1626.54	1.44
298.15	0.10029	0.6	1630.93	1.44
298.15	0.20388	0.6	1635.99	1.44
298.15	0.30032	0.6	1640.58	1.44
298.15	0.40217	0.6	1645.28	1.44
298.15	0.50102	0.6	1649.74	1.44
298.15	0.60521	0.6	1654.27	1.44
298.15	0.69866	0.6	1658.21	1.44
298.15	0.80191	0.6	1662.39	1.44
298.15	0.904	0.6	1666.3	1.4
298.15	1.00256	0.6	1670.09	1.44
298.15	1.10204	0.6	1673.73	1.44
298.15	1.20038	0.6	1677.29	1.44
308.15	0.09943	0.2	1558.51	1.42
308.15	0.19955	0.2	1563.09	1.42
308.15	0.30215	0.2	1567.76	1.43
308.15	0.39962	0.2	1572.12	1.43
308.15	0.50059	0.2	1576.6	1.4
308.15	0.59997	0.2	1581.07	1.43
308.15	0.70036	0.2	1585.47	1.43
308.15	0.79809	0.2	1589.67	1.43
308.15	0.89999	0.2	1593.93	1.43
308.15	1.00176	0.2	1598.33	1.43
308.15	1.10299	0.2	1602.42	1.43
308.15	1.2009	0.2	1606.68	1.43
308.15	0.10015	0.4	1592.85	1.43
308.15	0.20042	0.4	1597.71	1.43
308.15	0.3015	0.4	1602.51	1.43
308.15	0.40099	0.4	1607.04	1.43
308.15	0.50064	0.4	1611.56	1.43
308.15	0.60303	0.4	1615.97	1.43
308.15	0.70166	0.4	1620.13	1.43
308.15	0.8017	0.4	1624.17	1.44
308.15	0.90257	0.4	1628.28	1.44
308.15	1.00285	0.4	1632.09	1.44
308.15	1.09943	0.4	1635.72	1.44
308.15	1.20146	0.4	1639.23	1.44
308.15	0.10029	0.6	1646.4	1.4
308.15	0.20388	0.6	1651.12	1.44
308.15	0.30032	0.6	1655.41	1.44
308.15	0.40217	0.6	1659.81	1.44
308.15	0.50102	0.6	1663.91	1.44
308.15	0.60521	0.6	1668.08	1.44
308.15	0.69866	0.6	1671.61	1.44
308.15	0.80191	0.6	1675.41	1.44
308.15	0.904	0.6	1679.01	1.45
308.15	1.00256	0.6	1682.31	1.45
308.15	1.10204	0.6	1685.55	1.45
308.15	1.20038	0.6	1688.56	1.45
318.15	0.09943	0.2	1573.19	1.43
318.15	0.19955	0.2	1577.42	1.43
318.15	0.30215	0.2	1581.76	1.43
318.15	0.39962	0.2	1585.76	1.43
318.15	0.50059	0.2	1589.82	1.43
318.15	0.59997	0.2	1593.81	1.43
318.15	0.70036	0.2	1597.88	1.43
318.15	0.79809	0.2	1601.72	1.43
318.15	0.89999	0.2	1605.62	1.43
318.15	1.00176	0.2	1609.65	1.43
318.15	1.10299	0.2	1613.43	1.43
318.15	1.2009	0.2	1617.23	1.43
318.15	0.10015	0.4	1605.87	1.43
318.15	0.20042	0.4	1610.29	1.43
318.15	0.3015	0.4	1614.62	1.43
318.15	0.40099	0.4	1618.83	1.43
318.15	0.50064	0.4	1622.78	1.44
318.15	0.60303	0.4	1626.89	1.44
318.15	0.70166	0.4	1630.63	1.44
318.15	0.8017	0.4	1634.15	1.44
318.15	0.90257	0.4	1637.85	1.44
318.15	1.00285	0.4	1641.31	1.44
318.15	1.09943	0.4	1644.35	1.44
318.15	1.20146	0.4	1647.48	1.44
318.15	0.10029	0.6	1656.92	1.44
318.15	0.20388	0.6	1661.35	1.44
318.15	0.30032	0.6	1665.31	1.44
318.15	0.40217	0.6	1669.38	1.44
318.15	0.50102	0.6	1673.19	1.44
318.15	0.60521	0.6	1677.06	1.44
318.15	0.69866	0.6	1680.38	1.45
318.15	0.80191	0.6	1683.91	1.45
318.15	0.904	0.6	1687.26	1.45
318.15	1.00256	0.6	1690.25	1.45
318.15	1.10204	0.6	1693.26	1.45
318.15	1.20038	0.6	1696.04	1.45

System: D-ribose + potassium citrate + water; phases: Liquid
Fixed: Pressure, kPa = 100
Property: Mass density, kg/m3 (Liquid); method: Vibrating tube method
Temperature, K	Molality, mol/kg of D-ribose	Solvent: Molality, mol/kg of potassium citrate	Mass density, kg/m3	uncertainty
288.15	0	0.2	1036.811	4.003
288.15	0.10046	0.2	1042.035	4.003
288.15	0.20087	0.2	1046.621	4.003
288.15	0.30071	0.2	1051.775	4.003
288.15	0.4002	0.2	1055.716	4.003
288.15	0.49934	0.2	1061.022	4.003
288.15	0.60704	0.2	1065.733	4.003
288.15	0.70183	0.2	1069.242	4.003
288.15	0.80103	0.2	1075.009	4.003
288.15	0.89978	0.2	1080.414	4.004
288.15	0.9985	0.2	1083.335	4.004
288.15	1.10223	0.2	1089.294	4.004
288.15	1.1998	0.2	1092.605	4.004
288.15	0	0.4	1073.438	4.003
288.15	0.09989	0.4	1079.622	4.004
288.15	0.20077	0.4	1083.973	4.004
288.15	0.30351	0.4	1089.576	4.004
288.15	0.40027	0.4	1092.425	4.004
288.15	0.49962	0.4	1098.633	4.004
288.15	0.60257	0.4	1102.103	4.004
288.15	0.69825	0.4	1107.491	4.004
288.15	0.80198	0.4	1113.206	4.004
288.15	0.89853	0.4	1116.263	4.005
288.15	0.99491	0.4	1118.345	4.005
288.15	1.09952	0.4	1123.004	4.005
288.15	1.19839	0.4	1127.684	4.005
288.15	0	0.6	1128.011	4.005
288.15	0.10044	0.6	1132.959	4.005
288.15	0.2048	0.6	1137.223	4.005
288.15	0.30109	0.6	1142.243	4.005
288.15	0.39959	0.6	1145.41	4.005
288.15	0.5016	0.6	1150.669	4.006
288.15	0.60326	0.6	1153.31	4.006
288.15	0.69734	0.6	1157.452	4.006
288.15	0.80205	0.6	1160.116	4.006
288.15	0.90034	0.6	1165.601	4.006
288.15	1.003	0.6	1167.814	4.006
288.15	1.09622	0.6	1172.806	4.006
288.15	1.2008	0.6	1174.873	4.006
298.15	0	0.2	1034.217	4.003
298.15	0.10046	0.2	1039.346	4.003
298.15	0.20087	0.2	1043.881	4.003
298.15	0.30071	0.2	1048.926	4.003
298.15	0.4002	0.2	1052.826	4.003
298.15	0.49934	0.2	1058.022	4.003
298.15	0.60704	0.2	1062.659	4.003
298.15	0.70183	0.2	1066.133	4.003
298.15	0.80103	0.2	1071.782	4.003
298.15	0.89978	0.2	1077.111	4.004
298.15	0.9985	0.2	1079.999	4.004
298.15	1.10223	0.2	1085.836	4.004
298.15	1.1998	0.2	1089.105	4.004
298.15	0	0.4	1070.409	4.003
298.15	0.09989	0.4	1076.487	4.004
298.15	0.20077	0.4	1080.796	4.004
298.15	0.30351	0.4	1086.296	4.004
298.15	0.40027	0.4	1089.138	4.004
298.15	0.49962	0.4	1095.221	4.004
298.15	0.60257	0.4	1098.68	4.004
298.15	0.69825	0.4	1103.948	4.004
298.15	0.80198	0.4	1109.596	4.004
298.15	0.89853	0.4	1112.595	4.004
298.15	0.99491	0.4	1114.6	4.004
298.15	1.09952	0.4	1119.275	4.005
298.15	1.19839	0.4	1123.845	4.005
298.15	0	0.6	1124.417	4.005
298.15	0.10044	0.6	1129.307	4.005
298.15	0.2048	0.6	1133.546	4.005
298.15	0.30109	0.6	1138.475	4.005
298.15	0.39959	0.6	1141.625	4.005
298.15	0.5016	0.6	1146.792	4.005
298.15	0.60326	0.6	1149.404	4.005
298.15	0.69734	0.6	1153.478	4.006
298.15	0.80205	0.6	1156.171	4.006
298.15	0.90034	0.6	1161.524	4.006
298.15	1.003	0.6	1163.777	4.006
298.15	1.09622	0.6	1168.636	4.006
298.15	1.2008	0.6	1170.764	4.006
308.15	0	0.2	1030.818	4.003
308.15	0.10046	0.2	1035.875	4.003
308.15	0.20087	0.2	1040.344	4.003
308.15	0.30071	0.2	1045.322	4.003
308.15	0.4002	0.2	1049.165	4.003
308.15	0.49934	0.2	1054.291	4.003
308.15	0.60704	0.2	1058.865	4.003
308.15	0.70183	0.2	1062.291	4.003
308.15	0.80103	0.2	1067.866	4.003
308.15	0.89978	0.2	1073.114	4.003
308.15	0.9985	0.2	1075.959	4.003
308.15	1.10223	0.2	1081.731	4.004
308.15	1.1998	0.2	1084.94	4.004
308.15	0	0.4	1066.683	4.003
308.15	0.09989	0.4	1072.694	4.003
308.15	0.20077	0.4	1076.939	4.004
308.15	0.30351	0.4	1082.367	4.004
308.15	0.40027	0.4	1085.162	4.004
308.15	0.49962	0.4	1091.191	4.004
308.15	0.60257	0.4	1094.592	4.004
308.15	0.69825	0.4	1099.818	4.004
308.15	0.80198	0.4	1105.342	4.004
308.15	0.89853	0.4	1108.351	4.004
308.15	0.99491	0.4	1110.343	4.004
308.15	1.09952	0.4	1114.92	4.004
308.15	1.19839	0.4	1119.455	4.005
308.15	0	0.6	1120.276	4.005
308.15	0.10044	0.6	1125.132	4.005
308.15	0.2048	0.6	1129.308	4.005
308.15	0.30109	0.6	1134.197	4.005
308.15	0.39959	0.6	1137.3	4.005
308.15	0.5016	0.6	1142.421	4.005
308.15	0.60326	0.6	1144.985	4.005
308.15	0.69734	0.6	1149.024	4.005
308.15	0.80205	0.6	1151.659	4.006
308.15	0.90034	0.6	1156.979	4.006
308.15	1.003	0.6	1159.183	4.006
308.15	1.09622	0.6	1164	4.006
308.15	1.2008	0.6	1166.093	4.006
318.15	0	0.2	1026.726	4.002
318.15	0.10046	0.2	1030.641	4.003
318.15	0.20087	0.2	1036.14	4.003
318.15	0.30071	0.2	1041.07	4.003
318.15	0.4002	0.2	1044.855	4.003
318.15	0.49934	0.2	1049.926	4.003
318.15	0.60704	0.2	1054.447	4.003
318.15	0.70183	0.2	1057.83	4.003
318.15	0.80103	0.2	1063.35	4.003
318.15	0.89978	0.2	1068.519	4.003
318.15	0.9985	0.2	1071.329	4.003
318.15	1.10223	0.2	1077.046	4.004
318.15	1.1998	0.2	1080.201	4.004
318.15	0	0.4	1062.338	4.004
318.15	0.09989	0.4	1068.317	4.003
318.15	0.20077	0.4	1072.507	4.003
318.15	0.30351	0.4	1077.89	4.004
318.15	0.40027	0.4	1080.619	4.004
318.15	0.49962	0.4	1086.618	4.004
318.15	0.60257	0.4	1089.951	4.004
318.15	0.69825	0.4	1095.137	4.004
318.15	0.80198	0.4	1100.56	4.004
318.15	0.89853	0.4	1103.586	4.004
318.15	0.99491	0.4	1105.523	4.004
318.15	1.09952	0.4	1110.051	4.004
318.15	1.19839	0.4	1114.563	4.004
318.15	0	0.6	1115.686	4.005
318.15	0.10044	0.6	1120.48	4.005
318.15	0.2048	0.6	1124.601	4.005
318.15	0.30109	0.6	1129.453	4.005
318.15	0.39959	0.6	1132.515	4.005
318.15	0.5016	0.6	1137.604	4.005
318.15	0.60326	0.6	1140.117	4.005
318.15	0.69734	0.6	1144.129	4.005
318.15	0.80205	0.6	1146.689	4.005
318.15	0.90034	0.6	1152.004	4.006
318.15	1.003	0.6	1154.145	4.006
318.15	1.09622	0.6	1158.953	4.006
318.15	1.2008	0.6	1160.991	4.006

System: D-ribose + potassium citrate + water; phases: Liquid
Fixed: Pressure, kPa = 100
Fixed: Frequency, MHz = 3
Property: Speed of sound, m/s (Liquid); method: Sing-around technique in a fixed-path interferometer
Temperature, K	Molality, mol/kg of D-ribose	Solvent: Molality, mol/kg of potassium citrate	Speed of sound, m/s	uncertainty
288.15	0.10046	0.2	1511.75	1.42
288.15	0.20087	0.2	1516.99	1.42
288.15	0.30071	0.2	1522.27	1.42
288.15	0.4002	0.2	1527.49	1.42
288.15	0.49934	0.2	1532.74	1.42
288.15	0.60704	0.2	1538.25	1.42
288.15	0.70183	0.2	1543.11	1.42
288.15	0.80103	0.2	1548.27	1.42
288.15	0.89978	0.2	1553.131	1.423
288.15	0.9985	0.2	1558.09	1.42
288.15	1.10223	0.2	1563.28	1.42
288.15	1.1998	0.2	1568.09	1.43
288.15	0.09989	0.4	1549.87	1.42
288.15	0.20077	0.4	1555.39	1.42
288.15	0.30351	0.4	1560.99	1.42
288.15	0.40027	0.4	1566.12	1.43
288.15	0.49962	0.4	1571.32	1.43
288.15	0.60257	0.4	1576.55	1.43
288.15	0.69825	0.4	1581.32	1.43
288.15	0.80198	0.4	1586.41	1.43
288.15	0.89853	0.4	1591.04	1.43
288.15	0.99491	0.4	1595.51	1.43
288.15	1.09952	0.4	1600.18	1.43
288.15	1.19839	0.4	1604.58	1.43
288.15	0.10044	0.6	1609.18	1.43
288.15	0.2048	0.6	1614.48	1.43
288.15	0.30109	0.6	1619.26	1.43
288.15	0.39959	0.6	1624.11	1.44
288.15	0.5016	0.6	1628.96	1.44
288.15	0.60326	0.6	1633.77	1.44
288.15	0.69734	0.6	1638.14	1.44
288.15	0.80205	0.6	1642.9	1.4
288.15	0.90034	0.6	1647.4	1.4
288.15	1.003	0.6	1651.83	1.44
288.15	1.09622	0.6	1655.76	1.44
288.15	1.2008	0.6	1660.17	1.44
298.15	0.10046	0.2	1537.83	1.42
298.15	0.20087	0.2	1542.66	1.42
298.15	0.30071	0.2	1547.45	1.42
298.15	0.4002	0.2	1552.21	1.42
298.15	0.49934	0.2	1556.82	1.42
298.15	0.60704	0.2	1561.87	1.42
298.15	0.70183	0.2	1566.58	1.43
298.15	0.80103	0.2	1571.21	1.43
298.15	0.89978	0.2	1575.71	1.43
298.15	0.9985	0.2	1579.93	1.43
298.15	1.10223	0.2	1584.86	1.43
298.15	1.1998	0.2	1589.47	1.43
298.15	0.09989	0.4	1574.18	1.43
298.15	0.20077	0.4	1579.24	1.43
298.15	0.30351	0.4	1584.34	1.43
298.15	0.40027	0.4	1588.89	1.43
298.15	0.49962	0.4	1593.67	1.43
298.15	0.60257	0.4	1598.36	1.43
298.15	0.69825	0.4	1602.57	1.43
298.15	0.80198	0.4	1607.08	1.43
298.15	0.89853	0.4	1611.04	1.43
298.15	0.99491	0.4	1614.71	1.43
298.15	1.09952	0.4	1619.16	1.43
298.15	1.19839	0.4	1622.78	1.44
298.15	0.10044	0.6	1630.43	1.44
298.15	0.2048	0.6	1635.08	1.44
298.15	0.30109	0.6	1639.29	1.44
298.15	0.39959	0.6	1643.54	1.44
298.15	0.5016	0.6	1647.83	1.44
298.15	0.60326	0.6	1652.02	1.44
298.15	0.69734	0.6	1655.87	1.44
298.15	0.80205	0.6	1659.98	1.44
298.15	0.90034	0.6	1663.82	1.44
298.15	1.003	0.6	1667.82	1.44
298.15	1.09622	0.6	1671.31	1.44
298.15	1.2008	0.6	1675.09	1.44
308.15	0.10046	0.2	1558.11	1.42
308.15	0.20087	0.2	1562.33	1.42
308.15	0.30071	0.2	1566.52	1.43
308.15	0.4002	0.2	1570.61	1.43
308.15	0.49934	0.2	1574.75	1.43
308.15	0.60704	0.2	1579.27	1.43
308.15	0.70183	0.2	1583.17	1.43
308.15	0.80103	0.2	1587.23	1.43
308.15	0.89978	0.2	1591.32	1.43
308.15	0.9985	0.2	1595.16	1.43
308.15	1.10223	0.2	1599.32	1.43
308.15	1.1998	0.2	1603.31	1.43
308.15	0.09989	0.4	1592.47	1.43
308.15	0.20077	0.4	1596.94	1.43
308.15	0.30351	0.4	1601.38	1.43
308.15	0.40027	0.4	1605.47	1.43
308.15	0.49962	0.4	1609.56	1.43
308.15	0.60257	0.4	1613.59	1.43
308.15	0.69825	0.4	1617.05	1.43
308.15	0.80198	0.4	1620.79	1.43
308.15	0.89853	0.4	1624.22	1.44
308.15	0.99491	0.4	1627.62	1.44
308.15	1.09952	0.4	1631.19	1.44
308.15	1.19839	0.4	1634.26	1.44
308.15	0.10044	0.6	1645.71	1.44
308.15	0.2048	0.6	1649.82	1.44
308.15	0.30109	0.6	1653.53	1.44
308.15	0.39959	0.6	1657.21	1.44
308.15	0.5016	0.6	1660.89	1.44
308.15	0.60326	0.6	1664.55	1.44
308.15	0.69734	0.6	1667.86	1.44
308.15	0.80205	0.6	1671.47	1.44
308.15	0.90034	0.6	1674.64	1.44
308.15	1.003	0.6	1677.91	1.44
308.15	1.09622	0.6	1680.89	1.45
308.15	1.2008	0.6	1683.92	1.45
318.15	0.10046	0.2	1572.69	1.43
318.15	0.20087	0.2	1576.38	1.43
318.15	0.30071	0.2	1580.01	1.43
318.15	0.4002	0.2	1583.66	1.43
318.15	0.49934	0.2	1587.18	1.43
318.15	0.60704	0.2	1591.02	1.43
318.15	0.70183	0.2	1594.45	1.43
318.15	0.80103	0.2	1598.02	1.43
318.15	0.89978	0.2	1601.28	1.43
318.15	0.9985	0.2	1604.88	1.43
318.15	1.10223	0.2	1608.44	1.43
318.15	1.1998	0.2	1611.77	1.43
318.15	0.09989	0.4	1605.56	1.43
318.15	0.20077	0.4	1609.67	1.43
318.15	0.30351	0.4	1613.71	1.43
318.15	0.40027	0.4	1617.52	1.43
318.15	0.49962	0.4	1621.03	1.43
318.15	0.60257	0.4	1624.69	1.44
318.15	0.69825	0.4	1627.97	1.44
318.15	0.80198	0.4	1631.09	1.44
318.15	0.89853	0.4	1634.26	1.44
318.15	0.99491	0.4	1637.29	1.44
318.15	1.09952	0.4	1640.11	1.44
318.15	1.19839	0.4	1642.78	1.44
318.15	0.10044	0.6	1656.31	1.44
318.15	0.2048	0.6	1660.16	1.44
318.15	0.30109	0.6	1663.62	1.44
318.15	0.39959	0.6	1667.09	1.44
318.15	0.5016	0.6	1670.58	1.44
318.15	0.60326	0.6	1673.95	1.44
318.15	0.69734	0.6	1676.99	1.44
318.15	0.80205	0.6	1680.27	1.45
318.15	0.90034	0.6	1683.36	1.45
318.15	1.003	0.6	1686.29	1.45
318.15	1.09622	0.6	1688.99	1.45
318.15	1.2008	0.6	1691.92	1.45

System: potassium citrate + water; phases: Liquid
Fixed: Pressure, kPa = 100
Property: Mass density, kg/m3 (Liquid); method: Vibrating tube method
Temperature, K	Molality, mol/kg of potassium citrate	Mass density, kg/m3	uncertainty
288.15	0.2	1036.811	4
288.15	0.4	1073.438	4.001
288.15	0.6	1128.011	4.001
298.15	0.2	1034.217	4
298.15	0.4	1070.409	4.001
298.15	0.6	1124.417	4.001
308.15	0.2	1030.818	4
308.15	0.4	1066.683	4.001
308.15	0.6	1120.276	4.001
318.15	0.2	1026.726	4
318.15	0.4	1062.338	4.001
318.15	0.6	1115.686	4.001

System: potassium citrate + water; phases: Liquid
Fixed: Pressure, kPa = 100
Fixed: Frequency, MHz = 3
Property: Speed of sound, m/s (Liquid); method: Sing-around technique in a fixed-path interferometer
Temperature, K	Molality, mol/kg of potassium citrate	Speed of sound, m/s	uncertainty
288.15	0.2	1505.54	1.23
288.15	0.4	1544.3	1.3
288.15	0.6	1604.04	1.27
298.15	0.2	1532.95	1.24
298.15	0.4	1569.08	1.26
298.15	0.6	1625.87	1.28
308.15	0.2	1553.89	1.24
308.15	0.4	1587.91	1.26
308.15	0.6	1641.68	1.28
318.15	0.2	1568.92	1.25
318.15	0.4	1601.3	1.3
318.15	0.6	1652.52	1.28
