Measured thermophysical data. Cation Effect on the Water Activity of Ternary (S)-Aminobutanedioic Acid Magnesium Salt Solutions at 298.15 and 310.15 K
Source: J. Chem. Eng. Data, 2016, 10.1021/acs.jced.6b00295
Compound 1: guanidine hydrochloride, CH6ClN3, InChI=1S/CH5N3.ClH/c2-1(3)4;/h(H5,2,3,4);1H
Compound 2: L-aspartic acid hemimagnesium salt dihydrate, C8H16MgN2O10, InChI=1S/2C4H7NO4.Mg.2H2O/c2*5-2(4(8)9)1-3(6)7;;;/h2*2H,1,5H2,(H,6,7)(H,8,9);;2*1H2/q;;+2;;/p-2/t2*2-;;;/m00.../s1, purity 98.5%
Compound 3: water, H2O, InChI=1S/H2O/h1H2, purity 99.9%

System: guanidine hydrochloride + water + L-aspartic acid hemimagnesium salt dihydrate; phases: Liquid
Fixed: Pressure, kPa = 100
Property: (Relative) activity of water (Liquid); method: osmometry
Temperature, K	Solvent: Molality, mol/kg of L-aspartic acid hemimagnesium salt dihydrate	Molality, mol/kg of guanidine hydrochloride	(Relative) activity of water	uncertainty
298.15	0.10186	0	0.996	0.0387
298.15	0.10186	0.12359	0.9918	0.0387
298.15	0.10186	0.20376	0.9895	0.0387
298.15	0.10186	0.31326	0.9857	0.0387
298.15	0.10186	0.42643	0.9826	0.0387
298.15	0.10186	0.53742	0.9797	0.0387
298.15	0.10186	0.75695	0.973	0.0387
298.15	0.10186	1.00911	0.9668	0.0387
298.15	0.10186	1.13382	0.9638	0.0387
298.15	0.20163	0	0.9925	0.0387
298.15	0.20163	0.12706	0.9885	0.0387
298.15	0.20163	0.2175	0.9856	0.0387
298.15	0.20163	0.33064	0.9822	0.0387
298.15	0.20163	0.47037	0.9784	0.0387
298.15	0.20163	0.54834	0.9759	0.0387
298.15	0.20163	0.79879	0.9692	0.0387
298.15	0.20163	1.05734	0.9623	0.0387
298.15	0.20163	1.1706	0.9593	0.0387
298.15	0.30784	0	0.9892	0.0387
298.15	0.30784	0.11207	0.9855	0.0387
298.15	0.30784	0.22128	0.9822	0.0387
298.15	0.30784	0.33424	0.9786	0.0387
298.15	0.30784	0.44914	0.9752	0.0387
298.15	0.30784	0.5688	0.9717	0.0387
298.15	0.30784	0.81242	0.965	0.0387
298.15	0.30784	1.06238	0.9593	0.0387
298.15	0.30784	1.20396	0.9546	0.0387
310.15	0.10194	0	0.996	0.0387
310.15	0.10194	0.12359	0.992	0.0387
310.15	0.10194	0.20376	0.9895	0.0387
310.15	0.10194	0.31326	0.9862	0.0387
310.15	0.10194	0.42643	0.983	0.0387
310.15	0.10194	0.53742	0.9798	0.0387
310.15	0.10194	0.75695	0.9737	0.0387
310.15	0.10194	1.00911	0.9672	0.0387
310.15	0.10194	1.13382	0.9641	0.0387
310.15	0.20163	0	0.9926	0.0387
310.15	0.20163	0.12706	0.9885	0.0387
310.15	0.20163	0.2175	0.9857	0.0387
310.15	0.20163	0.33064	0.9823	0.0387
310.15	0.20163	0.47037	0.9783	0.0387
310.15	0.20163	0.54834	0.976	0.0387
310.15	0.20163	0.79879	0.9694	0.0387
310.15	0.20163	1.05734	0.9635	0.0387
310.15	0.20163	1.1706	0.9603	0.0387
310.15	0.30784	0	0.9895	0.0387
310.15	0.30784	0.11207	0.9858	0.0387
310.15	0.30784	0.22128	0.9823	0.0387
310.15	0.30784	0.33424	0.9788	0.0387
310.15	0.30784	0.44914	0.9756	0.0387
310.15	0.30784	0.5688	0.9722	0.0387
310.15	0.30784	0.81242	0.9656	0.0387
310.15	0.30784	1.06238	0.9589	0.0387
310.15	0.30784	1.20396	0.9552	0.0387

System: water + L-aspartic acid hemimagnesium salt dihydrate; phases: Liquid
Fixed: Pressure, kPa = 100
Property: (Relative) activity of water (Liquid); method: osmometry
Temperature, K	Molality, mol/kg of L-aspartic acid hemimagnesium salt dihydrate	(Relative) activity of water	uncertainty
298.15	0.10186	0.996	0.0387
298.15	0.20163	0.9925	0.0387
298.15	0.30784	0.9892	0.0387
310.15	0.10194	0.996	0.0387
310.15	0.20163	0.9926	0.0387
310.15	0.30784	0.9895	0.0387
