Measured thermophysical data. Measurement and Correlation of the Liquid Density and Viscosity of HFO-1336mzz(Z) (cis-1,1,1,4,4,4-Hexafluoro-2-butene) at High Pressure
Source: J. Chem. Eng. Data, 2019, 10.1021/acs.jced.8b00713
Compound 1: (Z)-1,1,1,4,4,4-hexafluorobut-2-ene, C4H2F6, InChI=1S/C4H2F6/c5-3(6,7)1-2-4(8,9)10/h1-2H/b2-1-, purity 99%

System: (Z)-1,1,1,4,4,4-hexafluorobut-2-ene; phases: Liquid
Property: Mass density, kg/m3 (Liquid); method: Vibrating tube method
Temperature, K	Pressure, kPa	Mass density, kg/m3	uncertainty
283.15	100	1402.57	0.48
293.15	100	1377.12	0.49
303.15	100	1351.47	0.52
313.15	500	1325.41	0.53
323.15	500	1297.83	0.58
333.16	500	1269.32	0.62
343.16	500	1239.61	0.65
283.15	1000	1405.16	0.49
293.15	1000	1380.09	0.5
303.15	1000	1354.72	0.51
313.14	1000	1327.46	0.53
323.15	1000	1300.12	0.55
333.15	1000	1271.96	0.59
343.16	1000	1242.66	0.65
353.15	1000	1211.33	0.74
363.15	1000	1177.46	0.85
373.15	1000	1140.74	0.95
283.15	2000	1408.09	0.49
303.16	2000	1358.24	0.51
313.15	2000	1331.4	0.52
323.16	2000	1304.59	0.54
333.16	2000	1277.07	0.57
343.15	2000	1248.57	0.61
353.15	2000	1218.18	0.68
363.16	2000	1185.52	0.76
293.15	2000	1383.27	0.5
373.16	2000	1150.47	0.86
293.15	5000	1392.34	0.5
303.16	5000	1368.33	0.51
283.15	5000	1416.4	0.51
313.15	5000	1342.64	0.52
323.14	5000	1317.21	0.54
333.15	5000	1291.31	0.55
343.16	5000	1264.73	0.59
353.16	5000	1236.75	0.62
363.16	5000	1207.05	0.68
373.15	5000	1175.78	0.74
293.15	10000	1406.41	0.55
313.15	10000	1359.5	0.54
283.15	10000	1429.39	0.55
323.14	10000	1335.83	0.54
303.15	10000	1383.63	0.54
333.16	10000	1312.03	0.55
343.16	10000	1287.86	0.57
353.16	10000	1262.64	0.59
363.15	10000	1236.32	0.61
373.15	10020	1209.06	0.65
313.15	15000	1374.49	0.57
323.15	15000	1352.25	0.57
283.15	15000	1441.21	0.6
333.16	15000	1330.02	0.57
303.15	15000	1397.49	0.58
343.15	15000	1307.63	0.57
293.15	15000	1419.13	0.59
353.15	15000	1284.42	0.57
363.16	15000	1260.38	0.58
373.15	15000	1235.47	0.6
293.15	20000	1430.86	0.65
313.15	20000	1388.16	0.62
323.15	20000	1366.96	0.61
333.15	20000	1346	0.6
283.15	20000	1452.25	0.67
343.16	20000	1324.98	0.6
303.16	20000	1410.02	0.63
353.16	20000	1303.28	0.59
363.16	20000	1280.92	0.59
373.16	20020	1257.86	0.59
313.15	25000	1400.64	0.68
293.15	25000	1441.76	0.72
333.15	25000	1360.41	0.64
343.16	25000	1340.52	0.63
283.15	25000	1462.46	0.74
323.15	25000	1380.35	0.66
353.15	25000	1320.02	0.63
303.15	25000	1421.76	0.7
363.15	25000	1298.98	0.61
373.15	25000	1277.24	0.6
333.15	30000	1373.57	0.71
293.15	30000	1451.97	0.79
343.16	30000	1354.59	0.68
323.15	30000	1392.69	0.72
353.15	30000	1335.13	0.67
283.15	30000	1472	0.81
313.15	30000	1412.04	0.74
363.15	30000	1315.14	0.65
303.15	30000	1432.55	0.77
373.15	30000	1294.44	0.63
313.15	40000	1432.78	0.9
333.15	40000	1396.93	0.84
343.15	40000	1379.44	0.82
293.16	40000	1470.38	0.96
353.15	40000	1361.5	0.79
283.15	40000	1489.73	0.99
303.16	40000	1452.02	0.93
323.15	40000	1414.6	0.87
363.16	40000	1343.17	0.77
373.16	40000	1324.14	0.74
333.15	50000	1417.34	1.01
353.15	50000	1384.21	0.94
293.16	50000	1486.98	1.17
283.15	50000	1505.53	1.22
313.16	50000	1451.06	1.09
343.15	50000	1400.93	0.98
363.16	50000	1367.09	0.91
303.15	50000	1469.43	1.13
323.15	50000	1433.91	1.05
373.15	50000	1349.23	0.88
353.15	60000	1404.05	1.14
313.16	60000	1467.37	1.31
283.15	60000	1520.01	1.45
343.15	60000	1419.91	1.18
363.15	60000	1387.96	1.09
293.15	60000	1501.97	1.4
303.15	60000	1485.09	1.36
333.15	60000	1435.25	1.22
323.16	60000	1451.12	1.26
373.15	60000	1370.99	1.05
363.15	79990	1423.19	1.54
333.15	80000	1466.47	1.69
283.15	80000	1545.15	1.95
303.15	80000	1512.19	1.84
343.15	80000	1452.33	1.64
293.15	80010	1528.17	1.89
323.15	80010	1480.77	1.73
353.15	80010	1438.01	1.59
313.15	80010	1495.94	1.78
373.15	80010	1407.73	1.49
293.15	99990	1550.16	2.39
363.16	100000	1451.81	1.98
353.15	100000	1465.73	2.04
343.15	100000	1478.79	2.09
333.15	100000	1492.09	2.15
283.15	100000	1566.76	2.46
313.14	100010	1519.55	2.26
323.15	100010	1505.41	2.2
303.15	100010	1535.09	2.33
373.15	100010	1437.36	1.92

System: (Z)-1,1,1,4,4,4-hexafluorobut-2-ene; phases: Liquid
Property: Viscosity, Pa*s (Liquid); method: Vibrating wire viscometry
Temperature, K	Pressure, kPa	Viscosity, Pa*s	uncertainty
253.15	100	0.00063153	1.392e-05
253.16	1000	0.00063873	1.407e-05
253.16	2000	0.00064695	1.422e-05
253.15	5000	0.00066947	1.467e-05
253.16	10000	0.00071142	1.55e-05
253.14	15000	0.00074765	1.621e-05
253.14	20000	0.00079165	1.709e-05
253.15	25000	0.00083368	1.792e-05
253.15	30100	0.00087096	1.867e-05
253.16	40000	0.00095756	2.04e-05
263.15	100	0.00055987	1.25e-05
263.15	1000	0.00056556	1.262e-05
263.14	2000	0.00057212	1.275e-05
263.14	5000	0.00059155	1.313e-05
263.15	10000	0.00062465	1.378e-05
263.15	15000	0.00065788	1.443e-05
263.15	20000	0.00069059	1.508e-05
263.16	25000	0.00072865	1.583e-05
263.14	30000	0.00076437	1.654e-05
263.16	40000	0.00083518	1.795e-05
273.13	100	0.00049304	1.119e-05
273.14	1000	0.00049751	1.129e-05
273.16	2000	0.00050352	1.141e-05
273.15	5000	0.00052265	1.178e-05
273.13	10000	0.00055259	1.237e-05
273.14	15000	0.00058397	1.298e-05
273.15	20000	0.00061311	1.355e-05
273.14	25000	0.00064303	1.414e-05
273.14	29700	0.0006776	1.482e-05
273.16	40000	0.00074225	1.61e-05
283.16	100	0.00043569	1.01e-05
283.17	1000	0.00044228	1.023e-05
283.15	2000	0.00044599	1.03e-05
283.15	5000	0.00046197	1.061e-05
283.15	10000	0.00048997	1.115e-05
283.14	15000	0.00052057	1.174e-05
283.14	20000	0.00054698	1.225e-05
283.15	25000	0.00057313	1.276e-05
283.15	30000	0.00060094	1.331e-05
283.15	40000	0.00065783	1.443e-05
293.16	200	0.00038799	9.19e-06
293.15	1000	0.00039237	9.29e-06
293.15	2000	0.00039776	9.39e-06
293.16	5000	0.00041353	9.69e-06
293.15	10000	0.00043852	1.016e-05
293.15	15100	0.00046506	1.067e-05
293.16	20000	0.00049038	1.115e-05
293.15	25000	0.00051511	1.163e-05
293.15	30000	0.00054139	1.214e-05
293.15	40000	0.0005919	1.313e-05
303.15	200	0.00034542	8.4e-06
303.15	1000	0.00034944	8.49e-06
303.16	2000	0.00035481	8.58e-06
303.15	5000	0.00036924	8.85e-06
303.17	10000	0.00039376	9.31e-06
303.15	15000	0.00041727	9.75e-06
303.14	20000	0.00044097	1.02e-05
303.15	25000	0.00046467	1.066e-05
303.15	30000	0.0004879	1.11e-05
303.15	40000	0.00053565	1.203e-05
313.15	500	0.00030995	7.74e-06
313.15	1000	0.00031206	7.8e-06
313.15	2000	0.00031735	7.89e-06
313.15	5000	0.00033118	8.15e-06
313.16	10000	0.00035435	8.57e-06
313.15	15000	0.00037757	9e-06
313.15	20000	0.00039893	9.4e-06
313.15	25000	0.00042103	9.82e-06
313.15	30000	0.00044315	1.024e-05
313.15	40000	0.00048657	1.108e-05
323.16	500	0.0002776	7.16e-06
323.16	1000	0.00028	7.22e-06
323.16	2000	0.0002844	7.3e-06
323.15	5000	0.00029814	7.55e-06
323.15	10000	0.00032204	7.98e-06
323.15	15000	0.00034251	8.35e-06
323.14	20000	0.00036319	8.73e-06
323.15	25000	0.00038391	9.12e-06
323.15	30000	0.00040433	9.5e-06
323.16	40000	0.000445	1.028e-05
333.14	500	0.00024971	6.68e-06
333.15	1000	0.00025215	6.73e-06
333.16	2000	0.00025682	6.81e-06
333.15	5000	0.00027048	7.05e-06
333.15	10000	0.00029172	7.43e-06
333.15	15000	0.00031257	7.8e-06
333.15	20000	0.00033209	8.16e-06
333.15	25000	0.00035118	8.51e-06
333.15	30000	0.00037411	8.94e-06
333.15	40000	0.00041001	9.61e-06
343.16	500	0.00022396	6.25e-06
343.15	1000	0.0002262	6.29e-06
343.15	2000	0.00023079	6.37e-06
343.15	5000	0.00024428	6.6e-06
343.15	10000	0.00026632	6.98e-06
343.15	15000	0.00028642	7.33e-06
343.15	20000	0.0003054	7.67e-06
343.15	25000	0.00032462	8.02e-06
343.15	30000	0.00034288	8.35e-06
343.15	40000	0.00037941	9.03e-06
353.16	1000	0.00020569	5.95e-06
353.14	2000	0.0002104	6.02e-06
353.15	5000	0.00022098	6.2e-06
353.15	10000	0.00024191	6.55e-06
353.15	15000	0.0002623	6.9e-06
353.15	20000	0.00028011	7.22e-06
353.16	25000	0.00029828	7.54e-06
353.15	30000	0.00031573	7.86e-06
353.15	40000	0.00035043	8.49e-06
