Measured thermophysical data. Review and Analysis of Thermophysical Properties of a Sulfuric Acid-Water Electrolyte
Source: J. Chem. Eng. Data, 2018, 10.1021/acs.jced.8b00466
Compound 1: sulfuric acid, H2O4S, InChI=1S/H2O4S/c1-5(2,3)4/h(H2,1,2,3,4), purity 99%
Compound 2: water, H2O, InChI=1S/H2O/h1H2, purity 99.9%

System: sulfuric acid + water; phases: Liquid
Fixed: Pressure, kPa = 102
Property: Mass density, kg/m3 (Liquid); method: Vibrating tube method
Temperature, K	Mass fraction of sulfuric acid	Mass density, kg/m3	uncertainty
273.15	0.0966	1069.259	16.346
273.15	0.1151	1085.835	14.961
273.15	0.1365	1101.807	14.979
273.15	0.1536	1114.203	15.655
273.15	0.1728	1128.949	15.461
273.15	0.192	1145.908	16.433
273.15	0.2112	1159.415	16.622
273.15	0.2304	1177.189	16.574
273.15	0.2409	1185.567	17.4
273.15	0.2688	1209.436	16.752
273.15	0.288	1224.109	16.658
273.15	0.3072	1241.054	16.349
273.15	0.3265	1256.774	16.679
273.15	0.3457	1272.176	16.86
273.15	0.3648	1288.038	16.992
273.15	0.384	1305.683	17.527
273.15	0.4	1319.143	17.703
283.15	0.0966	1066.08	15.879
283.15	0.1151	1082.071	14.601
283.15	0.1365	1097.497	14.527
283.15	0.1536	1109.498	15.181
283.15	0.1728	1123.831	15.04
283.15	0.192	1140.318	16.026
283.15	0.2112	1153.513	16.206
283.15	0.2304	1170.916	15.998
283.15	0.2409	1179.139	16.747
283.15	0.2688	1201.627	16.422
283.15	0.288	1217.137	16.453
283.15	0.3072	1233.469	16.464
283.15	0.3265	1249.511	16.557
283.15	0.3457	1264.812	16.884
283.15	0.3648	1280.594	16.895
283.15	0.384	1298.188	17.465
283.15	0.4	1311.549	17.639
293.15	0.0966	1062.303	15.387
293.15	0.1151	1077.827	14.142
293.15	0.1365	1092.855	14.132
293.15	0.1536	1104.523	14.797
293.15	0.1728	1118.464	14.679
293.15	0.192	1134.594	15.678
293.15	0.2112	1147.522	15.892
293.15	0.2304	1164.603	15.723
293.15	0.2409	1172.692	16.473
293.15	0.2688	1194.847	16.497
293.15	0.288	1210.185	16.266
293.15	0.3072	1227.149	16.327
293.15	0.3265	1242.266	16.445
293.15	0.3457	1257.507	16.588
293.15	0.3648	1273.214	16.83
293.15	0.384	1290.731	17.39
293.15	0.4	1304.066	17.569
298.15	0.0966	1060.227	15.171
298.15	0.1151	1075.552	13.921
298.15	0.1365	1090.39	13.971
298.15	0.1536	1101.943	14.635
298.15	0.1728	1115.73	14.536
298.15	0.192	1131.693	15.554
298.15	0.2112	1144.519	15.749
298.15	0.2304	1161.544	15.628
298.15	0.2409	1169.479	16.38
298.15	0.2688	1191.579	16.405
298.15	0.288	1206.758	16.215
298.15	0.3072	1223.625	16.237
298.15	0.3265	1238.85	16.389
298.15	0.3457	1253.89	16.548
298.15	0.3648	1269.571	16.751
298.15	0.384	1287.053	17.347
298.15	0.4	1300.363	17.529
303.15	0.0966	1058.039	14.986
303.15	0.1151	1073.219	13.65
303.15	0.1365	1087.857	13.823
303.15	0.1536	1099.305	14.51
303.15	0.1728	1112.952	14.402
303.15	0.192	1128.879	15.419
303.15	0.2112	1141.485	15.624
303.15	0.2304	1158.388	15.486
303.15	0.2409	1166.27	16.269
303.15	0.2688	1188.219	16.31
303.15	0.288	1203.332	16.134
303.15	0.3072	1220.106	16.176
303.15	0.3265	1235.29	16.337
303.15	0.3457	1250.296	16.505
303.15	0.3648	1265.945	16.718
303.15	0.384	1283.37	17.322
303.15	0.4	1296.681	17.5
313.15	0.0966	1053.603	14.56
313.15	0.1151	1068.89	13.168
313.15	0.1365	1082.604	13.381
313.15	0.1536	1093.86	14.309
313.15	0.1728	1107.332	14.167
313.15	0.192	1123.776	15.181
313.15	0.2112	1135.357	15.573
313.15	0.2304	1152.028	15.071
313.15	0.2409	1160.541	16.075
313.15	0.2688	1181.521	16.164
313.15	0.288	1196.598	15.77
313.15	0.3072	1213.754	16.119
313.15	0.3265	1228.031	16.212
313.15	0.3457	1243.377	16.291
313.15	0.3648	1258.731	16.705
313.15	0.384	1276.196	17.163
313.15	0.4	1289.371	17.504
323.15	0.0966	1049.233	14.902
323.15	0.1151	1063.556	13.805
323.15	0.1365	1078.451	13.329
323.15	0.1536	1089.882	14.347
323.15	0.1728	1101.934	13.682
323.15	0.192	1118.588	15.298
323.15	0.2112	1129.366	15.269
323.15	0.2304	1148.501	14.677
323.15	0.2409	1154.046	15.829
323.15	0.2688	1174.817	16.024
323.15	0.288	1189.756	15.658
323.15	0.3072	1206.842	16.013
323.15	0.3265	1221.019	16.13
323.15	0.3457	1236.266	16.216
323.15	0.3648	1251.573	16.715
323.15	0.384	1268.992	17.371
323.15	0.4	1282.405	17.503
333.15	0.0966	1043.531	14.628
333.15	0.1151	1058.71	13.062
333.15	0.1365	1072.645	12.912
333.15	0.1536	1084.63	14.211
333.15	0.1728	1095.875	13.963
333.15	0.192	1113.217	14.535
333.15	0.2112	1124.624	15.178
333.15	0.2304	1140.31	14.549
333.15	0.2409	1147.473	15.424
333.15	0.2688	1168.951	16.107
333.15	0.288	1183.884	15.779
333.15	0.3072	1200.668	16.14
333.15	0.3265	1214.918	15.804
333.15	0.3457	1230.887	16.325
333.15	0.3648	1244.445	16.42
333.15	0.384	1263.237	16.923
333.15	0.4	1275.2	17.504
