Measured thermophysical data. Measurement and Modeling of Solubility of para-tert-Butylbenzoic Acid in Pure and Mixed Organic Solvents at Different Temperatures
Source: J. Chem. Eng. Data, 2017, 10.1021/acs.jced.6b00965
Compound 1: methanol, CH4O, InChI=1S/CH4O/c1-2/h2H,1H3, purity 99.5%
Compound 2: ethanol, C2H6O, InChI=1S/C2H6O/c1-2-3/h3H,2H2,1H3, purity 99.8%
Compound 3: acetic acid, C2H4O2, InChI=1S/C2H4O2/c1-2(3)4/h1H3,(H,3,4), purity 99.5%
Compound 4: propan-2-ol, C3H8O, InChI=1S/C3H8O/c1-3(2)4/h3-4H,1-2H3, purity 99.8%
Compound 5: hexane, C6H14, InChI=1S/C6H14/c1-3-5-6-4-2/h3-6H2,1-2H3, purity 99.5%
Compound 6: toluene, C7H8, InChI=1S/C7H8/c1-7-5-3-2-4-6-7/h2-6H,1H3, purity 99.8%
Compound 7: octan-1-ol, C8H18O, InChI=1S/C8H18O/c1-2-3-4-5-6-7-8-9/h9H,2-8H2,1H3, purity 99%
Compound 8: 1-(1,1-dimethylethyl)-4-methylbenzene, C11H16, InChI=1S/C11H16/c1-9-5-7-10(8-6-9)11(2,3)4/h5-8H,1-4H3, purity 95%
Compound 9: methyl 4-tert-butylbenzoate, C12H16O2, InChI=1S/C12H16O2/c1-12(2,3)10-7-5-9(6-8-10)11(13)14-4/h5-8H,1-4H3, purity 99%
Compound 10: 4-(1,1-dimethylethyl)benzoic acid, C11H14O2, InChI=1S/C11H14O2/c1-11(2,3)9-6-4-8(5-7-9)10(12)13/h4-7H,1-3H3,(H,12,13), purity 99%

System: 4-(1,1-dimethylethyl)benzoic acid; phases: Crystal, Liquid, Air at 1 atmosphere
Property: Normal melting temperature, K (Crystal); method: DTA
Normal melting temperature, K	uncertainty
439.06	1.06

System: 4-(1,1-dimethylethyl)benzoic acid; phases: Crystal, Liquid, Air at 1 atmosphere
Property: Molar enthalpy of transition or fusion, kJ/mol (Crystal); method: DSC
Molar enthalpy of transition or fusion, kJ/mol	uncertainty
17.867	0.618

System: methanol + 4-(1,1-dimethylethyl)benzoic acid; phases: Liquid, Crystal
Fixed: Pressure, kPa = 94.9
Property: Mole fraction of 4-(1,1-dimethylethyl)benzoic acid (Liquid); method: Chromatography
Temperature, K	Mole fraction of 4-(1,1-dimethylethyl)benzoic acid	uncertainty
293.15	0.0561	0.02
298.15	0.0622	0.02
303.15	0.0685	0.02
308.15	0.0749	0.02
313.15	0.0811	0.02
318.15	0.0882	0.02
323.15	0.0951	0.02
328.15	0.1026	0.02
333.15	0.1092	0.02

System: ethanol + 4-(1,1-dimethylethyl)benzoic acid; phases: Liquid, Crystal
Fixed: Pressure, kPa = 94.9
Property: Mole fraction of 4-(1,1-dimethylethyl)benzoic acid (Liquid); method: Chromatography
Temperature, K	Mole fraction of 4-(1,1-dimethylethyl)benzoic acid	uncertainty
293.15	0.0721	0.02
298.15	0.0882	0.02
303.15	0.1032	0.02
308.15	0.1215	0.02
313.15	0.1399	0.02
318.15	0.1583	0.02
323.15	0.1765	0.02
328.15	0.1943	0.02
333.15	0.2115	0.02

System: acetic acid + 4-(1,1-dimethylethyl)benzoic acid; phases: Liquid, Crystal
Fixed: Pressure, kPa = 94.9
Property: Mole fraction of 4-(1,1-dimethylethyl)benzoic acid (Liquid); method: Chromatography
Temperature, K	Mole fraction of 4-(1,1-dimethylethyl)benzoic acid	uncertainty
293.15	0.032	0.02
298.15	0.0377	0.02
303.15	0.0469	0.02
308.15	0.0583	0.02
313.15	0.0725	0.02
318.15	0.0855	0.02
323.15	0.0987	0.02
328.15	0.1123	0.02
333.15	0.1252	0.02

System: propan-2-ol + 4-(1,1-dimethylethyl)benzoic acid; phases: Liquid, Crystal
Fixed: Pressure, kPa = 94.9
Property: Mole fraction of 4-(1,1-dimethylethyl)benzoic acid (Liquid); method: Chromatography
Temperature, K	Mole fraction of 4-(1,1-dimethylethyl)benzoic acid	uncertainty
293.15	0.0991	0.02
298.15	0.1165	0.02
303.15	0.1338	0.02
308.15	0.1504	0.02
313.15	0.1669	0.02
318.15	0.1832	0.02
323.15	0.1992	0.02
328.15	0.2148	0.02
333.15	0.2298	0.02

System: 4-(1,1-dimethylethyl)benzoic acid + hexane; phases: Liquid, Crystal
Fixed: Pressure, kPa = 94.9
Property: Mole fraction of 4-(1,1-dimethylethyl)benzoic acid (Liquid); method: Chromatography
Temperature, K	Mole fraction of 4-(1,1-dimethylethyl)benzoic acid	uncertainty
293.15	0.0244	0.0004
298.15	0.0294	0.0004
303.15	0.0345	0.0004
308.15	0.0399	0.0004
313.15	0.0453	0.0004
318.15	0.0508	0.0004
323.15	0.0554	0.0004
328.15	0.0619	0.0004
333.15	0.0663	0.0004

System: 4-(1,1-dimethylethyl)benzoic acid + toluene; phases: Liquid, Crystal
Fixed: Pressure, kPa = 94.9
Property: Mole fraction of 4-(1,1-dimethylethyl)benzoic acid (Liquid); method: Chromatography
Temperature, K	Mole fraction of 4-(1,1-dimethylethyl)benzoic acid	uncertainty
293.15	0.0315	0.0004
298.15	0.0385	0.0004
303.15	0.0466	0.0004
308.15	0.0538	0.0004
313.15	0.0622	0.0005
318.15	0.0707	0.0005
323.15	0.0802	0.0005
328.15	0.0888	0.0005
333.15	0.0962	0.0005

System: 4-(1,1-dimethylethyl)benzoic acid + octan-1-ol; phases: Liquid, Crystal
Fixed: Pressure, kPa = 94.9
Property: Mole fraction of 4-(1,1-dimethylethyl)benzoic acid (Liquid); method: Chromatography
Temperature, K	Mole fraction of 4-(1,1-dimethylethyl)benzoic acid	uncertainty
293.15	0.1045	0.0005
298.15	0.1151	0.0005
303.15	0.1256	0.0005
308.15	0.1374	0.0005
313.15	0.1475	0.0006
318.15	0.1585	0.0006
323.15	0.1702	0.0006
328.15	0.1816	0.0006
333.15	0.1928	0.0006

System: 1-(1,1-dimethylethyl)-4-methylbenzene + 4-(1,1-dimethylethyl)benzoic acid; phases: Liquid, Crystal
Fixed: Pressure, kPa = 94.9
Property: Mole fraction of 4-(1,1-dimethylethyl)benzoic acid (Liquid); method: Chromatography
Temperature, K	Mole fraction of 4-(1,1-dimethylethyl)benzoic acid	uncertainty
293.15	0.0183	0.0183
298.15	0.0223	0.02
303.15	0.0277	0.02
308.15	0.0325	0.02
313.15	0.0373	0.02
318.15	0.0426	0.02
323.15	0.0481	0.02
328.15	0.0541	0.02
333.15	0.0589	0.02

System: 4-(1,1-dimethylethyl)benzoic acid + methyl 4-tert-butylbenzoate; phases: Liquid, Crystal
Fixed: Pressure, kPa = 94.9
Property: Mole fraction of 4-(1,1-dimethylethyl)benzoic acid (Liquid); method: Chromatography
Temperature, K	Mole fraction of 4-(1,1-dimethylethyl)benzoic acid	uncertainty
293.15	0.056	0.0005
298.15	0.0671	0.0005
303.15	0.0791	0.0005
308.15	0.0894	0.0005
313.15	0.1021	0.0005
318.15	0.115	0.0005
323.15	0.1282	0.0006
328.15	0.1416	0.0006
333.15	0.1542	0.0006

System: methanol + 4-(1,1-dimethylethyl)benzoic acid + methyl 4-tert-butylbenzoate; phases: Liquid, Crystal
Fixed: Pressure, kPa = 94.9
Property: Mole fraction of 4-(1,1-dimethylethyl)benzoic acid (Liquid); method: Chromatography
Solvent: Mole fraction of methanol	Temperature, K	Mole fraction of 4-(1,1-dimethylethyl)benzoic acid	uncertainty
0.2104	293.15	0.1012	0.02
0.2104	298.15	0.1102	0.02
0.2104	303.15	0.1219	0.02
0.2104	308.15	0.1348	0.02
0.2104	313.15	0.1484	0.02
0.2104	318.15	0.1684	0.02
0.2104	323.15	0.1884	0.02
0.2104	328.15	0.2104	0.02
0.2104	333.15	0.233	0.02
0.3126	293.15	0.1034	0.02
0.3126	298.15	0.1127	0.02
0.3126	303.15	0.1248	0.02
0.3126	308.15	0.1374	0.02
0.3126	313.15	0.1515	0.02
0.3126	318.15	0.1711	0.02
0.3126	323.15	0.1917	0.02
0.3126	328.15	0.213	0.02
0.3126	333.15	0.2356	0.02
0.4002	293.15	0.1133	0.02
0.4002	298.15	0.1236	0.02
0.4002	303.15	0.1358	0.02
0.4002	308.15	0.1486	0.02
0.4002	313.15	0.1631	0.02
0.4002	318.15	0.1805	0.02
0.4002	323.15	0.1982	0.02
0.4002	328.15	0.2183	0.02
0.4002	333.15	0.2383	0.02
0.5065	293.15	0.1321	0.02
0.5065	298.15	0.1413	0.02
0.5065	303.15	0.1518	0.02
0.5065	308.15	0.1647	0.02
0.5065	313.15	0.1775	0.02
0.5065	318.15	0.1921	0.02
0.5065	323.15	0.2089	0.02
0.5065	328.15	0.2276	0.02
0.5065	333.15	0.2456	0.02
0.6115	293.15	0.1322	0.02
0.6115	298.15	0.1431	0.02
0.6115	303.15	0.1551	0.02
0.6115	308.15	0.1681	0.02
0.6115	313.15	0.1821	0.02
0.6115	318.15	0.1972	0.02
0.6115	323.15	0.2133	0.02
0.6115	328.15	0.2304	0.02
0.6115	333.15	0.2486	0.02
0.7036	293.15	0.1266	0.02
0.7036	298.15	0.1367	0.02
0.7036	303.15	0.1481	0.02
0.7036	308.15	0.1613	0.02
0.7036	313.15	0.1738	0.02
0.7036	318.15	0.1893	0.02
0.7036	323.15	0.2064	0.02
0.7036	328.15	0.2243	0.02
0.7036	333.15	0.2418	0.02
0.8122	293.15	0.0959	0.02
0.8122	298.15	0.1079	0.02
0.8122	303.15	0.1207	0.02
0.8122	308.15	0.1349	0.02
0.8122	313.15	0.1455	0.02
0.8122	318.15	0.1578	0.02
0.8122	323.15	0.1716	0.02
0.8122	328.15	0.1867	0.02
0.8122	333.15	0.2034	0.02
1	293.15	0.0561	0.02
1	298.15	0.0622	0.02
1	303.15	0.0685	0.02
1	308.15	0.0749	0.02
1	313.15	0.0811	0.02
1	318.15	0.0882	0.02
1	323.15	0.0951	0.02
1	328.15	0.1026	0.02
1	333.15	0.1092	0.02
0	293.15	0.056	0.02
0	298.15	0.0671	0.02
0	303.15	0.0791	0.02
0	308.15	0.0894	0.02
0	313.15	0.1021	0.02
0	318.15	0.115	0.02
0	323.15	0.1282	0.02
0	328.15	0.1416	0.02
0	333.15	0.1542	0.02
