Measured thermophysical data. Viscosity Measurements of Two Potential Deepwater Viscosity Standard Reference Fluids at High Temperature and High Pressure
Source: J. Chem. Eng. Data, 2016, 10.1021/acs.jced.6b00128
Compound 1: tris(2-ethylhexyl) trimellitate, C33H54O6, InChI=1S/C33H54O6/c1-7-13-16-25(10-4)22-37-31(34)28-19-20-29(32(35)38-23-26(11-5)17-14-8-2)30(21-28)33(36)39-24-27(12-6)18-15-9-3/h19-21,25-27H,7-18,22-24H2,1-6H3, purity 99%

System: tris(2-ethylhexyl) trimellitate; phases: Liquid
Property: Viscosity, Pa*s (Liquid); method: Falling or rolling sphere viscometry
Temperature, K	Pressure, kPa	Viscosity, Pa*s	uncertainty
315.1	8710	0.09264	0.00358
315.1	23090	0.125	0.0055
315.1	36550	0.1635	0.0082
315.1	69620	0.3013	0.0195
315.1	71420	0.3108	0.0204
315.1	104200	0.5406	0.0443
315.1	138800	0.934	0.0932
347.1	9180	0.02272	0.00097
347.1	22490	0.02888	0.00128
347.1	36420	0.03654	0.00166
347.1	70160	0.06243	0.00297
347.1	70370	0.06232	0.00297
347.1	104100	0.1011	0.0055
347.1	138500	0.1591	0.0102
347.1	173500	0.2449	0.0144
347.1	219900	0.4208	0.0307
387.5	11780	0.007262	0.000268
387.5	22080	0.008542	0.000324
387.5	36110	0.01048	0.0004
387.5	70650	0.0166	0.00066
387.5	72750	0.01721	0.00067
387.5	104700	0.02532	0.00104
387.5	140100	0.03704	0.00158
387.5	173400	0.05168	0.00229
387.5	215400	0.07727	0.00306
428.6	9400	0.003143	0.000105
428.6	21670	0.003632	0.000121
428.6	36940	0.00446	0.000149
428.6	70470	0.006643	0.000225
428.6	105400	0.0097	0.000332
428.6	139500	0.0132	0.00046
428.6	172300	0.01763	0.00062
428.6	203200	0.02251	0.00072
428.6	237600	0.02974	0.00096
477.8	11620	0.001649	5.3e-05
477.8	23680	0.001916	6.2e-05
477.8	37690	0.002232	7.2e-05
477.8	37760	0.002235	7.2e-05
477.8	70980	0.003227	0.000105
477.8	105500	0.004336	0.000141
477.8	106000	0.004336	0.000141
477.8	139300	0.005743	0.000189
477.8	174200	0.007352	0.000244
477.8	196800	0.008536	0.000287
477.8	219300	0.01002	0.00032
477.8	240800	0.01162	0.00039
527.4	10410	0.001015	3.3e-05
527.4	23110	0.001161	3.7e-05
527.4	36430	0.001333	4.3e-05
527.4	69910	0.00179	5.8e-05
527.4	105200	0.002466	8e-05
527.4	105700	0.002469	8e-05
527.4	139000	0.003097	0.000102
527.4	172900	0.003835	0.000127
527.4	200700	0.004578	0.000151
527.4	201600	0.004601	0.000152
527.4	223700	0.005224	0.000174
527.4	241600	0.005761	0.000193
