Measured thermophysical data. Study of Vapor-Liquid Equilibria for Acetic Acid + n-Propyl Acetate + Isopropyl Acetate Systems
Source: J. Chem. Eng. Data, 2019, 10.1021/acs.jced.9b00152
Compound 1: acetic acid, C2H4O2, InChI=1S/C2H4O2/c1-2(3)4/h1H3,(H,3,4), purity 99.5%
Compound 2: propyl ethanoate, C5H10O2, InChI=1S/C5H10O2/c1-3-4-7-5(2)6/h3-4H2,1-2H3, purity 99%
Compound 3: 1-methylethyl ethanoate, C5H10O2, InChI=1S/C5H10O2/c1-4(2)7-5(3)6/h4H,1-3H3, purity 99%

System: acetic acid; phases: Liquid, Gas
Property: Boiling temperature at pressure P, K (Liquid); method: Ebulliometric method (Recirculating still)
Pressure, kPa	Boiling temperature at pressure P, K	uncertainty
17	341.3	0.47
18.47	342.87	0.54
20.01	345.03	0.58
21.29	346.41	0.55
23.18	348.49	0.58
24.92	350.35	0.59
27.44	352.88	0.6
29.78	355.01	0.6
32.78	357.54	0.61
34.97	359.26	0.61
39.99	363.04	0.6
48.99	368.56	0.64
55.76	372.27	0.67
60.04	374.54	0.67
64.44	376.66	0.68
69.39	379.05	0.7
75.23	381.6	0.67
79.98	383.32	0.67
83.66	384.82	0.7
87.18	386.07	0.68
97.08	389.58	0.73
101.3	390.93	0.71

System: acetic acid; phases: Liquid, Gas
Property: Vapor or sublimation pressure, kPa (Liquid); method: Ebulliometric method (Recirculating still)
Temperature, K	Vapor or sublimation pressure, kPa	uncertainty
345.03	20	1
363.04	40	1
374.54	60	1
383.32	80	1
390.93	101.3	1.6

System: propyl ethanoate; phases: Liquid, Gas
Property: Boiling temperature at pressure P, K (Liquid); method: Ebulliometric method (Recirculating still)
Pressure, kPa	Boiling temperature at pressure P, K	uncertainty
14.9	322.62	0.51
16.6	325.01	0.55
18.56	327.77	0.58
20	329.58	0.53
24.75	334.71	0.59
27.99	337.78	0.57
33.06	341.96	0.6
37.76	345.55	0.64
40.07	347.21	0.62
44.38	350.05	0.64
48.69	352.73	0.62
54.33	355.66	0.63
60.03	358.6	0.65
66.87	361.8	0.66
73.94	364.8	0.67
79.95	367.13	0.67
85.25	369.07	0.69
91.51	371.41	0.7
101.26	374.66	0.73

System: propyl ethanoate; phases: Liquid, Gas
Property: Vapor or sublimation pressure, kPa (Liquid); method: Ebulliometric method (Recirculating still)
Temperature, K	Vapor or sublimation pressure, kPa	uncertainty
329.58	20	1
347.21	40	1
358.6	60	1
367.13	80	1
374.66	101.3	1.7

System: 1-methylethyl ethanoate; phases: Liquid, Gas
Property: Vapor or sublimation pressure, kPa (Liquid); method: Ebulliometric method (Recirculating still)
Temperature, K	Vapor or sublimation pressure, kPa	uncertainty
317.77	20	1
334.75	40	1
345.94	60	1
354.29	80	1
361.79	101.3	1.7

System: acetic acid + propyl ethanoate; phases: Liquid, Gas
Property: Boiling temperature at pressure P, K (Liquid); method: Ebulliometric method (Recirculating still)
Pressure, kPa	Mole fraction of acetic acid	Boiling temperature at pressure P, K	uncertainty
20	1	345.03	0.48
20	0.9	342.46	0.48
20	0.799	340.49	0.48
20	0.701	338.73	0.48
20	0.598	336.91	0.48
20	0.499	335.61	0.48
20	0.402	334.3	0.47
20	0.301	333.1	0.48
20	0.199	331.79	0.48
20	0.103	330.58	0.47
20	0	329.58	0.47
40	1	363.04	0.67
40	0.9	360.56	0.67
40	0.799	358.53	0.67
40	0.701	356.71	0.67
40	0.598	354.88	0.67
40	0.499	353.42	0.67
40	0.402	352.05	0.67
40	0.301	350.94	0.67
40	0.199	349.54	0.67
40	0.103	348.23	0.66
40	0	347.21	0.66
60	1	374.54	0.69
60	0.9	371.68	0.69
60	0.799	369.65	0.68
60	0.701	367.87	0.68
60	0.598	366.14	0.68
60	0.499	364.77	0.68
60	0.402	363.45	0.67
60	0.301	362.29	0.67
60	0.199	360.89	0.68
60	0.103	359.57	0.67
60	0	358.6	0.68
80	1	383.32	0.71
80	0.9	380.63	0.73
80	0.799	378.5	0.72
80	0.701	376.53	0.71
80	0.598	374.81	0.71
80	0.499	373.3	0.71
80	0.402	371.73	0.71
80	0.301	370.62	0.71
80	0.199	369.32	0.71
80	0.103	368	0.71
80	0	367.13	0.7
101.3	1	390.93	0.79
101.3	0.9	388.39	0.82
101.3	0.799	386.21	0.81
101.3	0.701	384.33	0.82
101.3	0.598	382.56	0.81
101.3	0.499	381.09	0.81
101.3	0.402	379.78	0.84
101.3	0.301	378.56	0.82
101.3	0.199	377.14	0.81
101.3	0.103	375.83	0.82
101.3	0	374.66	0.79

System: acetic acid + 1-methylethyl ethanoate; phases: Liquid, Gas
Property: Boiling temperature at pressure P, K (Liquid); method: Ebulliometric method (Recirculating still)
Pressure, kPa	Mole fraction of acetic acid	Boiling temperature at pressure P, K	uncertainty
20	1	345.03	0.48
20	0.949	342.05	0.52
20	0.905	340.04	0.51
20	0.852	337.87	0.5
20	0.8	335.81	0.5
20	0.748	333.95	0.49
20	0.695	332.24	0.49
20	0.648	330.78	0.49
20	0.61	329.62	0.49
20	0.551	328.02	0.48
20	0.501	326.71	0.48
20	0.45	325.51	0.48
20	0.405	324.55	0.48
20	0.347	323.45	0.48
20	0.3	322.6	0.48
20	0.249	321.38	0.47
20	0.199	320.78	0.47
20	0.149	319.77	0.47
20	0.1	319.29	0.47
20	0.053	318.48	0.47
20	0	317.77	0.46
40	1	363.04	0.67
40	0.949	360.31	0.7
40	0.905	358.13	0.69
40	0.852	355.9	0.69
40	0.8	353.77	0.69
40	0.748	351.95	0.68
40	0.695	350.13	0.68
40	0.648	348.66	0.68
40	0.61	347.4	0.67
40	0.551	345.69	0.68
40	0.501	344.42	0.67
40	0.45	343.21	0.67
40	0.405	342.25	0.67
40	0.347	341.04	0.67
40	0.3	340.14	0.66
40	0.249	338.88	0.66
40	0.199	338.23	0.66
40	0.149	337.12	0.66
40	0.1	336.62	0.66
40	0.053	335.61	0.65
40	0	334.75	0.65
60	1	374.54	0.69
60	0.949	371.43	0.71
60	0.905	369.34	0.7
60	0.852	367.26	0.7
60	0.8	365.18	0.69
60	0.748	363.4	0.68
60	0.695	361.68	0.69
60	0.648	360.1	0.69
60	0.61	358.78	0.68
60	0.551	357.21	0.69
60	0.501	355.9	0.69
60	0.45	354.68	0.69
60	0.405	353.77	0.69
60	0.347	352.46	0.69
60	0.3	351.45	0.68
60	0.249	350.13	0.68
60	0.199	349.44	0.68
60	0.149	348.23	0.67
60	0.1	347.72	0.67
60	0.053	346.66	0.67
60	0	345.94	0.67
80	1	383.32	0.71
80	0.949	380.33	0.75
80	0.905	378.05	0.73
80	0.852	375.92	0.73
80	0.8	373.8	0.72
80	0.748	371.68	0.71
80	0.695	370.06	0.71
80	0.648	368.58	0.71
80	0.61	367.31	0.71
80	0.551	365.84	0.71
80	0.501	364.52	0.7
80	0.45	363.35	0.7
80	0.405	362.44	0.7
80	0.347	361.07	0.7
80	0.3	360.06	0.7
80	0.249	358.74	0.7
80	0.199	358.05	0.7
80	0.149	356.78	0.71
80	0.1	356.32	0.7
80	0.053	355.21	0.7
80	0	354.29	0.69
101.3	1	390.93	0.79
101.3	0.949	387.99	0.84
101.3	0.905	385.85	0.84
101.3	0.852	383.62	0.81
101.3	0.8	381.34	0.81
101.3	0.748	379.41	0.82
101.3	0.695	377.79	0.81
101.3	0.648	376.33	0.81
101.3	0.61	374.91	0.81
101.3	0.551	373.34	0.78
101.3	0.501	371.84	0.78
101.3	0.45	370.61	0.77
101.3	0.405	369.65	0.76
101.3	0.347	368.33	0.77
101.3	0.3	367.52	0.77
101.3	0.249	366.1	0.8
101.3	0.199	365.56	0.77
101.3	0.149	364.44	0.81
101.3	0.1	363.78	0.77
101.3	0.053	362.71	0.79
101.3	0	361.79	0.78

System: propyl ethanoate + 1-methylethyl ethanoate; phases: Liquid, Gas
Property: Boiling temperature at pressure P, K (Liquid); method: Ebulliometric method (Recirculating still)
Pressure, kPa	Mole fraction of propyl ethanoate	Boiling temperature at pressure P, K	uncertainty
20	1	329.58	0.47
20	0.899	327.92	0.47
20	0.798	326.51	0.47
20	0.701	325.21	0.47
20	0.6	323.55	0.47
20	0.501	322.57	0.47
20	0.399	321.61	0.47
20	0.298	320.45	0.47
20	0.198	319.54	0.47
20	0.1	318.43	0.47
20	0	317.77	0.46
40	1	347.21	0.66
40	0.899	345.6	0.67
40	0.798	343.98	0.66
40	0.701	342.62	0.66
40	0.6	341.06	0.66
40	0.501	340.1	0.66
40	0.399	339.04	0.66
40	0.298	337.93	0.66
40	0.198	336.72	0.65
40	0.1	335.76	0.66
40	0	334.75	0.65
60	1	358.6	0.68
60	0.899	357.03	0.68
60	0.798	355.46	0.68
60	0.701	354.04	0.68
60	0.6	352.37	0.68
60	0.501	351.41	0.67
60	0.399	350.3	0.67
60	0.298	349.14	0.67
60	0.198	347.92	0.67
60	0.1	346.96	0.67
60	0	345.94	0.67
80	1	367.13	0.7
80	0.899	365.51	0.69
80	0.798	363.93	0.69
80	0.701	362.61	0.7
80	0.6	360.94	0.7
80	0.501	359.87	0.7
80	0.399	358.81	0.7
80	0.298	357.69	0.7
80	0.198	356.48	0.7
80	0.1	355.41	0.69
80	0	354.29	0.69
101.3	1	374.66	0.79
101.3	0.899	372.88	0.78
101.3	0.798	371.26	0.78
101.3	0.701	370.08	0.77
101.3	0.6	368.51	0.8
101.3	0.501	367.39	0.79
101.3	0.399	366.37	0.78
101.3	0.298	365.2	0.78
101.3	0.198	363.88	0.78
101.3	0.1	362.87	0.78
101.3	0	361.79	0.78

System: propyl ethanoate + 1-methylethyl ethanoate; phases: Liquid, Gas
Fixed: Mole fraction of propyl ethanoate = 0.5
Property: Boiling temperature at pressure P, K (Liquid); method: Ebulliometric method (Recirculating still)
Pressure, kPa	Boiling temperature at pressure P, K	uncertainty
20	322.57	0.47
40	340.1	0.66
60	351.41	0.67
80	359.87	0.7
101.3	367.39	0.78

System: acetic acid + propyl ethanoate + 1-methylethyl ethanoate; phases: Liquid, Gas
Fixed: Solvent: Amount ratio of component to other component of binary solvent of propyl ethanoate = 1
Property: Boiling temperature at pressure P, K (Liquid); method: Ebulliometric method (Recirculating still)
Pressure, kPa	Mole fraction of acetic acid	Boiling temperature at pressure P, K	uncertainty
20	1	345.03	0.48
20	0.902	341.17	0.49
20	0.799	337.99	0.49
20	0.701	335.37	0.49
20	0.599	332.95	0.48
20	0.5	330.89	0.48
20	0.401	329.03	0.48
20	0.303	327.47	0.48
20	0.202	325.76	0.47
20	0.1	324.2	0.47
20	0	322.57	0.47
40	1	363.04	0.67
40	0.902	359.24	0.68
40	0.799	356.09	0.68
40	0.701	353.35	0.68
40	0.599	350.82	0.67
40	0.5	348.7	0.67
40	0.401	346.77	0.67
40	0.303	345.16	0.67
40	0.202	343.34	0.67
40	0.1	341.77	0.67
40	0	340.1	0.66
60	1	374.54	0.69
60	0.902	370.47	0.7
60	0.799	367.47	0.69
60	0.701	364.77	0.69
60	0.599	362.28	0.68
60	0.5	360.21	0.68
60	0.401	358.23	0.68
60	0.303	356.61	0.68
60	0.202	354.83	0.68
60	0.1	353.21	0.68
60	0	351.41	0.67
80	1	383.32	0.71
80	0.902	379.33	0.73
80	0.799	376.08	0.71
80	0.701	373.35	0.71
80	0.599	370.62	0.71
80	0.5	368.7	0.71
80	0.401	366.77	0.71
80	0.303	365.18	0.71
80	0.202	363.4	0.7
80	0.1	361.72	0.7
80	0	359.87	0.69
101.3	1	390.93	0.79
101.3	0.902	386.99	0.83
101.3	0.799	383.74	0.81
101.3	0.701	380.95	0.81
101.3	0.599	378.41	0.83
101.3	0.5	376.49	0.81
101.3	0.401	374.56	0.82
101.3	0.303	372.81	0.79
101.3	0.202	370.93	0.79
101.3	0.1	369.15	0.78
101.3	0	367.39	0.78
