Measured thermophysical data. Experimental Data and Modeling for Viscosity and Refractive Index of Aqueous Mixtures with 2-(Methylamino)ethanol (MAE) and Aminoethylethanolamine (AEEA)
Source: J. Chem. Eng. Data, 2019, 10.1021/acs.jced.9b00171
Compound 1: 2-(methylamino)ethanol, C3H9NO, InChI=1S/C3H9NO/c1-4-2-3-5/h4-5H,2-3H2,1H3, purity 98%
Compound 2: N-(2-aminoethyl)ethanolamine, C4H12N2O, InChI=1S/C4H12N2O/c5-1-2-6-3-4-7/h6-7H,1-5H2, purity 98%
Compound 3: water, H2O, InChI=1S/H2O/h1H2, purity 99.8%

System: 2-(methylamino)ethanol; phases: Liquid
Fixed: Pressure, kPa = 101.3
Property: Viscosity, Pa*s (Liquid); method: Oscillating disk viscometry
Temperature, K	Viscosity, Pa*s	uncertainty
293.15	0.01312	0.00288
298.15	0.01028	0.00227
303.15	0.00842	0.00184
308.15	0.00678	0.00148
313.15	0.00554	0.0012
318.15	0.00461	0.00099
323.15	0.00382	0.00082
328.15	0.00313	0.00069
333.15	0.00242	0.00056

System: 2-(methylamino)ethanol; phases: Liquid
Fixed: Pressure, kPa = 101.3
Property: Refractive index (Na D-line) (Liquid); method: Standard Abbe refractometry
Temperature, K	Refractive index (Na D-line)	uncertainty
293.15	1.4386	0.0022
298.15	1.437	0.0022
303.15	1.4352	0.0022
308.15	1.4331	0.0022
313.15	1.431	0.0022
318.15	1.4288	0.0022
323.15	1.4265	0.0023
328.15	1.4242	0.0023
333.15	1.4218	0.0023

System: N-(2-aminoethyl)ethanolamine; phases: Liquid
Fixed: Pressure, kPa = 101.3
Property: Viscosity, Pa*s (Liquid); method: Oscillating disk viscometry
Temperature, K	Viscosity, Pa*s	uncertainty
293.15	0.15362	0.0409
298.15	0.09927	0.02657
303.15	0.07131	0.01718
308.15	0.05294	0.01256
313.15	0.03767	0.00905
318.15	0.02823	0.00654
323.15	0.02155	0.00494
328.15	0.01643	0.00375
333.15	0.01274	0.00296

System: N-(2-aminoethyl)ethanolamine; phases: Liquid
Fixed: Pressure, kPa = 101.3
Property: Refractive index (Na D-line) (Liquid); method: Standard Abbe refractometry
Temperature, K	Refractive index (Na D-line)	uncertainty
293.15	1.4856	0.0021
298.15	1.4842	0.0021
303.15	1.4827	0.0022
308.15	1.481	0.0022
313.15	1.4792	0.0022
318.15	1.4772	0.0022
323.15	1.475	0.002
328.15	1.4727	0.0023
333.15	1.4702	0.0023

System: 2-(methylamino)ethanol + water; phases: Liquid
Fixed: Pressure, kPa = 101.3
Property: Viscosity, Pa*s (Liquid); method: Oscillating disk viscometry
Temperature, K	Mass fraction of 2-(methylamino)ethanol	Viscosity, Pa*s	uncertainty
293.15	0.05	0.00131	0.00031
298.15	0.05	0.0011	0.00026
303.15	0.05	0.00099	0.00022
308.15	0.05	0.00088	0.00019
313.15	0.05	0.00079	0.00017
318.15	0.05	0.00072	0.00016
323.15	0.05	0.00065	0.00014
328.15	0.05	0.00058	0.00013
333.15	0.05	0.00052	0.00011
293.15	0.1	0.00168	0.00043
298.15	0.1	0.00142	0.00035
303.15	0.1	0.00122	0.0003
308.15	0.1	0.00105	0.00024
313.15	0.1	0.00094	0.00021
318.15	0.1	0.00084	0.00019
323.15	0.1	0.00075	0.00017
328.15	0.1	0.00067	0.00015
333.15	0.1	0.0006	0.00013
293.15	0.15	0.00238	0.00053
298.15	0.15	0.00202	0.00045
303.15	0.15	0.00174	0.00039
308.15	0.15	0.00142	0.00032
313.15	0.15	0.00122	0.00027
318.15	0.15	0.00104	0.00023
323.15	0.15	0.00093	0.0002
328.15	0.15	0.00083	0.00018
333.15	0.15	0.00074	0.00016
293.15	0.2	0.00266	0.00063
298.15	0.2	0.00217	0.00049
303.15	0.2	0.00183	0.00041
308.15	0.2	0.00152	0.00034
313.15	0.2	0.00132	0.00029
318.15	0.2	0.00119	0.00026
323.15	0.2	0.00106	0.00023
328.15	0.2	0.00094	0.0002
333.15	0.2	0.00083	0.00018
293.15	0.25	0.0034	0.0008
298.15	0.25	0.00274	0.00065
303.15	0.25	0.00232	0.00054
308.15	0.25	0.00196	0.00046
313.15	0.25	0.00171	0.0004
318.15	0.25	0.00149	0.00034
323.15	0.25	0.00129	0.0003
328.15	0.25	0.00112	0.00025
333.15	0.25	0.00099	0.00022
293.15	0.3	0.00422	0.00095
298.15	0.3	0.00352	0.00082
303.15	0.3	0.00296	0.00069
308.15	0.3	0.00252	0.00058
313.15	0.3	0.0022	0.0005
318.15	0.3	0.00192	0.00044
323.15	0.3	0.00165	0.00038
328.15	0.3	0.00141	0.00032
333.15	0.3	0.0012	0.00027

System: 2-(methylamino)ethanol + water; phases: Liquid
Fixed: Pressure, kPa = 101.3
Property: Refractive index (Na D-line) (Liquid); method: Standard Abbe refractometry
Temperature, K	Mass fraction of 2-(methylamino)ethanol	Refractive index (Na D-line)	uncertainty
293.15	0.05	1.3421	0.0024
298.15	0.05	1.3414	0.0024
303.15	0.05	1.3405	0.0024
308.15	0.05	1.3396	0.0024
313.15	0.05	1.3386	0.0024
318.15	0.05	1.3375	0.0024
323.15	0.05	1.3364	0.0024
328.15	0.05	1.3352	0.0024
333.15	0.05	1.334	0.0024
293.15	0.1	1.3452	0.0024
298.15	0.1	1.3444	0.0024
303.15	0.1	1.3435	0.0024
308.15	0.1	1.3426	0.0024
313.15	0.1	1.3416	0.0024
318.15	0.1	1.3405	0.0024
323.15	0.1	1.3394	0.0024
328.15	0.1	1.3381	0.0024
333.15	0.1	1.3368	0.0023
293.15	0.15	1.3484	0.0025
298.15	0.15	1.3476	0.0025
303.15	0.15	1.3467	0.0025
308.15	0.15	1.3456	0.0024
313.15	0.15	1.3445	0.0024
318.15	0.15	1.3434	0.0024
323.15	0.15	1.3421	0.0024
328.15	0.15	1.3406	0.0024
333.15	0.15	1.3391	0.0023
293.15	0.2	1.3522	0.0027
298.15	0.2	1.3513	0.0026
303.15	0.2	1.3502	0.0026
308.15	0.2	1.349	0.0026
313.15	0.2	1.3478	0.0026
318.15	0.2	1.3465	0.0025
323.15	0.2	1.3451	0.0025
328.15	0.2	1.3436	0.0025
333.15	0.2	1.342	0.0025
293.15	0.25	1.3568	0.0029
298.15	0.25	1.3558	0.0029
303.15	0.25	1.3547	0.0029
308.15	0.25	1.3534	0.0029
313.15	0.25	1.352	0.0028
318.15	0.25	1.3505	0.0028
323.15	0.25	1.349	0.0028
328.15	0.25	1.3474	0.0028
333.15	0.25	1.3456	0.0027
293.15	0.3	1.3624	0.003
298.15	0.3	1.3614	0.003
303.15	0.3	1.3602	0.003
308.15	0.3	1.3588	0.003
313.15	0.3	1.3573	0.003
318.15	0.3	1.3558	0.003
323.15	0.3	1.3542	0.003
328.15	0.3	1.3524	0.0029
333.15	0.3	1.3504	0.0029

System: N-(2-aminoethyl)ethanolamine + water; phases: Liquid
Fixed: Pressure, kPa = 101.3
Property: Viscosity, Pa*s (Liquid); method: Oscillating disk viscometry
Temperature, K	Mass fraction of N-(2-aminoethyl)ethanolamine	Viscosity, Pa*s	uncertainty
293.15	0.05	0.0012	0.00029
298.15	0.05	0.00111	0.00025
303.15	0.05	0.00095	0.00022
308.15	0.05	0.00085	0.00019
313.15	0.05	0.00076	0.00017
318.15	0.05	0.00069	0.00015
323.15	0.05	0.00064	0.00014
328.15	0.05	0.00059	0.00013
333.15	0.05	0.00055	0.00012
293.15	0.1	0.0016	0.00038
298.15	0.1	0.00136	0.00031
303.15	0.1	0.00118	0.00027
308.15	0.1	0.00106	0.00024
313.15	0.1	0.00094	0.00021
318.15	0.1	0.00084	0.00019
323.15	0.1	0.00077	0.00017
328.15	0.1	0.0007	0.00015
333.15	0.1	0.00064	0.00014
293.15	0.15	0.00202	0.00047
298.15	0.15	0.00174	0.00041
303.15	0.15	0.00148	0.00034
308.15	0.15	0.00132	0.0003
313.15	0.15	0.00117	0.00026
318.15	0.15	0.00103	0.00023
323.15	0.15	0.00092	0.0002
328.15	0.15	0.00082	0.00018
333.15	0.15	0.00074	0.00016
293.15	0.2	0.00258	0.00062
298.15	0.2	0.00222	0.00053
303.15	0.2	0.00189	0.00044
308.15	0.2	0.00163	0.00037
313.15	0.2	0.00141	0.00032
318.15	0.2	0.00124	0.00028
323.15	0.2	0.00108	0.00024
328.15	0.2	0.00095	0.0002
333.15	0.2	0.00087	0.00019
293.15	0.25	0.00347	0.00086
298.15	0.25	0.00298	0.00073
303.15	0.25	0.00237	0.00059
308.15	0.25	0.00208	0.00048
313.15	0.25	0.00176	0.0004
318.15	0.25	0.00153	0.00035
323.15	0.25	0.00128	0.00029
328.15	0.25	0.00111	0.00024
333.15	0.25	0.00102	0.00022
293.15	0.3	0.00473	0.00112
298.15	0.3	0.00395	0.00094
303.15	0.3	0.00332	0.00081
308.15	0.3	0.00261	0.00062
313.15	0.3	0.00219	0.0005
318.15	0.3	0.00186	0.00042
323.15	0.3	0.00159	0.00036
328.15	0.3	0.00135	0.0003
333.15	0.3	0.0012	0.00026

System: N-(2-aminoethyl)ethanolamine + water; phases: Liquid
Fixed: Pressure, kPa = 101.3
Property: Refractive index (Na D-line) (Liquid); method: Standard Abbe refractometry
Temperature, K	Mass fraction of N-(2-aminoethyl)ethanolamine	Refractive index (Na D-line)	uncertainty
293.15	0.05	1.3406	0.0027
298.15	0.05	1.3401	0.0027
303.15	0.05	1.3394	0.0027
308.15	0.05	1.3387	0.0027
313.15	0.05	1.3378	0.0027
318.15	0.05	1.3368	0.0027
323.15	0.05	1.3358	0.0026
328.15	0.05	1.3347	0.0026
333.15	0.05	1.3335	0.0025
293.15	0.1	1.3452	0.0029
298.15	0.1	1.3446	0.0029
303.15	0.1	1.3438	0.0029
308.15	0.1	1.343	0.0029
313.15	0.1	1.3421	0.0028
318.15	0.1	1.341	0.0028
323.15	0.1	1.3398	0.0028
328.15	0.1	1.3385	0.0027
333.15	0.1	1.3371	0.0027
293.15	0.15	1.351	0.0033
298.15	0.15	1.3504	0.0033
303.15	0.15	1.3496	0.0033
308.15	0.15	1.3487	0.0033
313.15	0.15	1.3476	0.0033
318.15	0.15	1.3464	0.0033
323.15	0.15	1.3451	0.0033
328.15	0.15	1.3436	0.0032
333.15	0.15	1.342	0.0032
293.15	0.2	1.3582	0.0036
298.15	0.2	1.3575	0.0036
303.15	0.2	1.3567	0.0036
308.15	0.2	1.3558	0.0036
313.15	0.2	1.3548	0.0036
318.15	0.2	1.3536	0.0036
323.15	0.2	1.3523	0.0036
328.15	0.2	1.3508	0.0036
333.15	0.2	1.3491	0.0036
293.15	0.25	1.366	0.004
298.15	0.25	1.3652	0.004
303.15	0.25	1.3643	0.0039
308.15	0.25	1.3633	0.0039
313.15	0.25	1.3622	0.0039
318.15	0.25	1.361	0.0039
323.15	0.25	1.3597	0.0038
328.15	0.25	1.3582	0.0038
333.15	0.25	1.3566	0.0038
293.15	0.3	1.3752	0.0042
298.15	0.3	1.3744	0.0042
303.15	0.3	1.3735	0.0042
308.15	0.3	1.3724	0.0042
313.15	0.3	1.3712	0.0041
318.15	0.3	1.3698	0.0041
323.15	0.3	1.3682	0.004
328.15	0.3	1.3664	0.0039
333.15	0.3	1.3648	0.0039

System: 2-(methylamino)ethanol + N-(2-aminoethyl)ethanolamine + water; phases: Liquid
Fixed: Pressure, kPa = 101.3
Property: Viscosity, Pa*s (Liquid); method: Capillary tube (Ostwald; Ubbelohde) method
Temperature, K	Mass fraction of 2-(methylamino)ethanol	Mass fraction of N-(2-aminoethyl)ethanolamine	Viscosity, Pa*s	uncertainty
293.15	0.25	0.05	0.00558	0.0012
298.15	0.25	0.05	0.00452	0.00098
303.15	0.25	0.05	0.00366	0.00079
308.15	0.25	0.05	0.0031	0.00065
313.15	0.25	0.05	0.00265	0.00056
318.15	0.25	0.05	0.00224	0.00047
323.15	0.25	0.05	0.00192	0.0004
328.15	0.25	0.05	0.00165	0.00035
333.15	0.25	0.05	0.00144	0.0003
293.15	0.2	0.1	0.0058	0.00124
298.15	0.2	0.1	0.00472	0.00103
303.15	0.2	0.1	0.00382	0.00082
308.15	0.2	0.1	0.00323	0.00068
313.15	0.2	0.1	0.00278	0.00059
318.15	0.2	0.1	0.00236	0.0005
323.15	0.2	0.1	0.00203	0.00043
328.15	0.2	0.1	0.00177	0.00037
333.15	0.2	0.1	0.00152	0.00032
293.15	0.15	0.15	0.00605	0.00129
298.15	0.15	0.15	0.00496	0.00107
303.15	0.15	0.15	0.00405	0.00087
308.15	0.15	0.15	0.00345	0.00073
313.15	0.15	0.15	0.00296	0.00063
318.15	0.15	0.15	0.00249	0.00053
323.15	0.15	0.15	0.00213	0.00045
328.15	0.15	0.15	0.00183	0.00038
333.15	0.15	0.15	0.00158	0.00033
293.15	0.1	0.2	0.00627	0.00133
298.15	0.1	0.2	0.00518	0.00112
303.15	0.1	0.2	0.00425	0.00091
308.15	0.1	0.2	0.00364	0.00077
313.15	0.1	0.2	0.0031	0.00066
318.15	0.1	0.2	0.0026	0.00055
323.15	0.1	0.2	0.00221	0.00047
328.15	0.1	0.2	0.00188	0.0004
333.15	0.1	0.2	0.00162	0.00034
293.15	0.05	0.25	0.00648	0.00137
298.15	0.05	0.25	0.00539	0.00116
303.15	0.05	0.25	0.00446	0.00095
308.15	0.05	0.25	0.00386	0.00081
313.15	0.05	0.25	0.00328	0.0007
318.15	0.05	0.25	0.00271	0.00058
323.15	0.05	0.25	0.0023	0.00049
328.15	0.05	0.25	0.00195	0.00041
333.15	0.05	0.25	0.00167	0.00035

System: 2-(methylamino)ethanol + N-(2-aminoethyl)ethanolamine + water; phases: Liquid
Fixed: Pressure, kPa = 101.3
Property: Refractive index (Na D-line) (Liquid); method: Standard Abbe refractometry
Temperature, K	Mass fraction of 2-(methylamino)ethanol	Mass fraction of N-(2-aminoethyl)ethanolamine	Refractive index (Na D-line)	uncertainty
293.15	0.25	0.05	1.3751	0.0021
298.15	0.25	0.05	1.3747	0.0021
303.15	0.25	0.05	1.3742	0.0021
308.15	0.25	0.05	1.3736	0.0021
313.15	0.25	0.05	1.373	0.0021
318.15	0.25	0.05	1.3724	0.0021
323.15	0.25	0.05	1.3716	0.0021
328.15	0.25	0.05	1.3709	0.0021
333.15	0.25	0.05	1.3701	0.0021
293.15	0.2	0.1	1.3764	0.0021
298.15	0.2	0.1	1.376	0.0021
303.15	0.2	0.1	1.3755	0.0021
308.15	0.2	0.1	1.375	0.0021
313.15	0.2	0.1	1.3744	0.0021
318.15	0.2	0.1	1.3738	0.0021
323.15	0.2	0.1	1.3731	0.0021
328.15	0.2	0.1	1.3724	0.0021
333.15	0.2	0.1	1.3716	0.0021
293.15	0.15	0.15	1.378	0.0021
298.15	0.15	0.15	1.3775	0.0021
303.15	0.15	0.15	1.3771	0.0021
308.15	0.15	0.15	1.3766	0.0021
313.15	0.15	0.15	1.376	0.0022
318.15	0.15	0.15	1.3754	0.0022
323.15	0.15	0.15	1.3747	0.0022
328.15	0.15	0.15	1.374	0.0021
333.15	0.15	0.15	1.3732	0.0021
293.15	0.1	0.2	1.3798	0.0022
298.15	0.1	0.2	1.3794	0.0022
303.15	0.1	0.2	1.3789	0.0022
308.15	0.1	0.2	1.3784	0.0022
313.15	0.1	0.2	1.3778	0.0022
318.15	0.1	0.2	1.3772	0.0022
323.15	0.1	0.2	1.3765	0.0022
328.15	0.1	0.2	1.3756	0.0022
333.15	0.1	0.2	1.3748	0.0022
293.15	0.05	0.25	1.382	0.0022
298.15	0.05	0.25	1.3815	0.0022
303.15	0.05	0.25	1.381	0.0022
308.15	0.05	0.25	1.3804	0.0022
313.15	0.05	0.25	1.3798	0.0022
318.15	0.05	0.25	1.3791	0.0022
323.15	0.05	0.25	1.3784	0.0022
328.15	0.05	0.25	1.3776	0.0022
333.15	0.05	0.25	1.3767	0.0022
