Measured thermophysical data. Temperature and Density Dependence of the Transport Properties of the Ionic Liquid Triethylpentylphosphonium Bis(trifluoromethanesulfonyl)amide, [P222,5][Tf2N]
Source: J. Chem. Eng. Data, 2018, 10.1021/acs.jced.8b00011
Compound 1: triethyl(pentyl)phosphonium bis((trifluoromethyl)sulfonyl)amide, C13H26F6NO4PS2, InChI=1S/C11H26P.C2F6NO4S2/c1-5-9-10-11-12(6-2,7-3)8-4;3-1(4,5)14(10,11)9-15(12,13)2(6,7)8/h5-11H2,1-4H3;/q+1;-1, purity 98%

System: triethyl(pentyl)phosphonium bis((trifluoromethyl)sulfonyl)amide; phases: Liquid
Fixed: Pressure, kPa = 100
Property: Mass density, kg/m3 (Liquid); method: Vibrating tube method
Temperature, K	Mass density, kg/m3	uncertainty
278.15	1319.92	1.86
283.15	1315.64	1.86
288.15	1311.35	1.85
293.15	1307.07	1.84
298.15	1302.8	1.83
303.15	1298.56	1.83
313.15	1290.13	1.81
323.15	1281.76	1.8
333.15	1273.44	1.78
343.15	1265.16	1.77
353.15	1256.92	1.76
363.15	1248.72	1.74

System: triethyl(pentyl)phosphonium bis((trifluoromethyl)sulfonyl)amide; phases: Liquid
Fixed: Pressure, kPa = 100
Property: Mass density, kg/m3 (Liquid); method: Vibrating tube method
Temperature, K	Mass density, kg/m3	uncertainty
273.15	1323.74	1.87
283.15	1315.04	1.85
293.15	1306.63	1.84
298.15	1302.45	1.83
303.15	1298.26	1.83
313.15	1289.89	1.81
323.15	1281.54	1.8
333.15	1273.23	1.78
343.15	1264.95	1.77
353.15	1256.71	1.76
363.15	1248.5	1.74

System: triethyl(pentyl)phosphonium bis((trifluoromethyl)sulfonyl)amide; phases: Liquid
Fixed: Pressure, kPa = 100
Property: Mass density, kg/m3 (Liquid); method: Vibrating tube method
Temperature, K	Mass density, kg/m3	uncertainty
273.15	1324	1.87
278.15	1319.6	1.86
283.15	1315.3	1.86
288.15	1311	1.85
293.15	1306.8	1.84
298.15	1302.6	1.83
303.15	1298.4	1.83
313.15	1290	1.81
323.15	1281.7	1.8
333.15	1273.4	1.78
343.15	1265.12	1.77
353.15	1256.92	1.76
363.15	1248.8	1.74

System: triethyl(pentyl)phosphonium bis((trifluoromethyl)sulfonyl)amide; phases: Liquid
Property: Viscosity, Pa*s (Liquid); method: Falling or rolling sphere viscometry
Temperature, K	Pressure, kPa	Viscosity, Pa*s	uncertainty
313.15	100	0.04372	0.00221
313.15	100	0.04368	0.0022
323.15	100	0.02989	0.00127
323.15	100	0.02998	0.00128
333.15	100	0.02143	0.00076
333.15	100	0.02145	0.00076
333.15	100	0.02117	0.00071
333.15	10400	0.0238	0.00057
333.15	19700	0.02633	0.00168
333.15	30600	0.02971	0.00071
333.15	40300	0.03265	0.00078
333.15	50400	0.03622	0.00086
333.15	60500	0.0401	0.00095
343.15	100	0.01589	0.00038
343.15	100	0.01589	0.00038
343.15	100	0.01597	0.00038
348.15	80600	0.02975	0.0007
348.15	89800	0.03225	0.00076
348.15	100500	0.03504	0.00148
348.15	126600	0.04388	0.0022
348.15	150800	0.05223	0.00119
353.15	100	0.012	0.00029
353.15	100	0.012	0.00029
353.15	100	0.01196	0.00029
363.15	100	0.009358	0.000224
363.15	100	0.009337	0.000223
363.15	100	0.009414	0.000224
363.15	9700	0.01037	0.00025
363.15	20100	0.01157	0.00028
363.15	20500	0.01152	0.00027
363.15	30200	0.01272	0.0003
363.15	39200	0.01383	0.00033
348.15	100	0.01386	0.00033
348.15	100	0.01382	0.00032
348.15	100	0.01367	0.00032
348.15	100	0.01384	0.00033
348.15	100	0.01381	0.00032
348.15	600	0.01391	0.00033
348.15	10500	0.01546	0.00037
348.15	20600	0.01736	0.00041
348.15	30600	0.01878	0.00045
348.15	40700	0.02072	0.00049
348.15	50700	0.02273	0.0011
348.15	60700	0.02533	0.0006
348.15	70400	0.02764	0.00065
363.15	49400	0.01521	0.00036
363.15	59100	0.01663	0.00039
363.15	80200	0.01984	0.00047
363.15	102200	0.02351	0.00056
363.15	102500	0.02347	0.00056
363.15	124000	0.02754	0.00065
363.15	125400	0.02786	0.00066
363.15	147300	0.03293	0.00078
363.15	149300	0.03343	0.00079
363.15	172900	0.03905	0.00092
363.15	200700	0.04756	0.00112
363.15	212300	0.05141	0.00116
273.15	100	0.3962	0.0279
273.15	100	0.396	0.0279
278.15	100	0.2783	0.0164
278.15	100	0.2782	0.0164
283.15	100	0.2013	0.0097
283.15	100	0.2013	0.0097
283.15	100	0.2004	0.0097
283.15	10600	0.2286	0.012
283.15	20600	0.263	0.015
313.15	100	0.04436	0.00235
313.15	100	0.04445	0.00236
313.15	700	0.0444	0.00282
313.15	10600	0.05022	0.00115
313.15	20600	0.05664	0.00131
313.15	30500	0.06364	0.00153
313.15	40500	0.07142	0.00181
313.15	50600	0.07995	0.00216
313.15	60600	0.08914	0.00257
283.15	30300	0.3024	0.0186
283.15	40800	0.3527	0.0235
283.15	50700	0.3989	0.0282
283.15	60900	0.4591	0.0346
283.15	71400	0.5271	0.0422
283.15	80400	0.5998	0.0506
283.15	88200	0.6677	0.0587
283.15	94700	0.7408	0.0677
293.15	100	0.1127	0.0038
293.15	100	0.1127	0.0038
298.15	100	0.08705	0.00333
298.15	100	0.08704	0.00333
298.15	100	0.08745	0.00341
298.15	600	0.08657	0.00244
298.15	10500	0.09967	0.00313
298.15	20500	0.1144	0.0039
298.15	30600	0.1304	0.0049
298.15	40500	0.148	0.006
298.15	50500	0.1674	0.0073
298.15	60200	0.1882	0.0088
298.15	80100	0.2376	0.0127
298.15	100600	0.2998	0.0184
298.15	120600	0.3746	0.0257
298.15	120900	0.3751	0.0258
313.15	80300	0.1099	0.0037
313.15	99900	0.1345	0.0051
323.15	100	0.03029	0.00135
323.15	100	0.02982	0.00125
323.15	100	0.02972	0.00123
323.15	700	0.0301	0.00158
323.15	10600	0.03385	0.00081
323.15	20500	0.03797	0.00091
323.15	30600	0.04253	0.00102
323.15	40300	0.04723	0.00113
323.15	50500	0.05272	0.0012
323.15	60300	0.0583	0.00135
323.15	80500	0.07143	0.0018
323.15	100200	0.08646	0.00244
323.15	120600	0.1047	0.0034
323.15	140600	0.1257	0.0046
323.15	160500	0.1496	0.006
323.15	180500	0.1785	0.008
323.15	200300	0.2101	0.0105
323.15	210900	0.2322	0.0122
333.15	100	0.02142	0.00076
333.15	700	0.02155	0.00051
333.15	10600	0.02411	0.00057
333.15	20300	0.02681	0.00168
298.15	140500	0.4642	0.0352
298.15	160800	0.5751	0.0477
298.15	180200	0.7038	0.0631
298.15	199500	0.8553	0.0822
303.15	100	0.06841	0.00244
303.15	100	0.06841	0.00244
303.15	700	0.06843	0.00229
303.15	10600	0.0781	0.00209
303.15	20600	0.08877	0.00257
303.15	30400	0.1003	0.0031
303.15	40600	0.1136	0.0039
303.15	50700	0.128	0.0047
303.15	60800	0.1441	0.0057
303.15	80300	0.1798	0.0082
303.15	100100	0.2232	0.0115
313.15	100	0.04435	0.00234
333.15	30600	0.02993	0.00071
333.15	40600	0.03321	0.00079
333.15	50600	0.03673	0.00087
333.15	60600	0.04052	0.00096
333.15	80200	0.04882	0.00116
333.15	99600	0.05836	0.00137
348.15	100	0.01364	0.00032
348.15	100	0.0135	0.00033
348.15	51400	0.02292	0.0011
348.15	99100	0.03486	0.00147
348.15	125700	0.04264	0.00219
348.15	150600	0.05208	0.00118
348.15	175600	0.06312	0.0015
348.15	199600	0.0755	0.00195
348.15	237000	0.0991	0.00307
348.15	242900	0.1049	0.0034

System: triethyl(pentyl)phosphonium bis((trifluoromethyl)sulfonyl)amide; phases: Liquid
Fixed: Pressure, kPa = 100
Property: Viscosity, Pa*s (Liquid); method: Concentric cylinders viscometry
Temperature, K	Viscosity, Pa*s	uncertainty
273.15	0.3911	0.0132
278.15	0.2756	0.0085
283.15	0.1996	0.0056
288.15	0.148	0.0039
293.15	0.1118	0.0027
293.15	0.1122	0.0028
293.15	0.112	0.0027
298.15	0.08633	0.00202
303.15	0.06786	0.00154
313.15	0.04397	0.00099
323.15	0.03006	0.00068
333.15	0.02151	0.00049
343.15	0.01599	0.00036
353.15	0.01227	0.00028
363.15	0.009672	0.000219

System: triethyl(pentyl)phosphonium bis((trifluoromethyl)sulfonyl)amide; phases: Liquid
Fixed: Pressure, kPa = 101.325
Property: Electrical conductivity, S/m (Liquid); method: electrochemical impedance spectroscopy
Temperature, K	Electrical conductivity, S/m	uncertainty
273.15	0.03992	0.0008
278.15	0.05558	0.00111
283.15	0.076	0.00152
283.15	0.07545	0.00151
288.16	0.1001	0.002
293.15	0.1299	0.0026
298.15	0.1652	0.0033
298.15	0.1648	0.0033
303.15	0.2071	0.0041
308.15	0.255	0.0051
313.15	0.3096	0.0062
318.15	0.3712	0.0074
323.15	0.4367	0.0087
323.15	0.4402	0.0088
328.15	0.5152	0.0103
333.15	0.5983	0.012
338.15	0.6869	0.0137
343.15	0.7839	0.0157
348.15	0.8852	0.0177
348.16	0.8775	0.0176
353.15	0.9989	0.02
273.15	0.04002	0.0008
278.15	0.05573	0.00112
283.15	0.07565	0.00152
288.16	0.1003	0.002
293.15	0.1303	0.0026
298.15	0.1657	0.0033
303.15	0.2076	0.0042
308.15	0.2557	0.0051
313.15	0.3105	0.0062
318.15	0.3721	0.0074
323.15	0.4414	0.0088
328.15	0.5165	0.0103
333.15	0.5999	0.012
338.15	0.6887	0.0138
343.15	0.7859	0.0157
348.15	0.8875	0.0178
353.15	1.002	0.02

System: triethyl(pentyl)phosphonium bis((trifluoromethyl)sulfonyl)amide; phases: Liquid
Fixed: Frequency, MHz = 0
Property: Electrical conductivity, S/m (Liquid); method: electrochemical impedance spectroscopy
Temperature, K	Pressure, kPa	Electrical conductivity, S/m	uncertainty
283.15	100	0.076	0.00153
283.15	1200	0.07491	0.0015
283.16	2100	0.07406	0.00149
283.15	3100	0.07277	0.00146
283.15	5100	0.07095	0.00142
283.16	10300	0.06614	0.00133
283.15	15400	0.0618	0.00124
283.15	20500	0.05785	0.00116
283.15	25600	0.05403	0.00108
283.15	30600	0.05069	0.00102
283.15	42000	0.04374	0.00088
283.15	50300	0.03945	0.00079
283.15	74900	0.02939	0.00059
283.15	99800	0.02185	0.00044
283.15	126100	0.01603	0.00032
283.14	149300	0.01229	0.00025
283.14	174300	0.009273	0.000187
283.16	199900	0.007032	0.000142
323.15	100	0.4367	0.0092
323.14	800	0.4336	0.0087
323.15	2200	0.4267	0.0086
323.14	3200	0.4226	0.0085
323.15	5900	0.4115	0.0082
323.15	10600	0.3926	0.0079
323.16	14400	0.3783	0.0076
323.16	20500	0.3557	0.0071
323.16	25800	0.3384	0.0068
323.16	30200	0.324	0.0065
323.16	40000	0.2955	0.0059
323.16	49900	0.2692	0.0054
323.15	77000	0.2108	0.0042
323.14	101600	0.17	0.0034
323.15	126900	0.1375	0.0028
323.14	150900	0.1125	0.0023
323.14	175500	0.09225	0.00185
323.15	201300	0.07506	0.0015
298.15	100	0.1648	0.0033
298.16	600	0.1642	0.0034
298.16	1600	0.1617	0.0032
298.15	3400	0.1588	0.0032
298.15	5100	0.155	0.0031
298.15	9800	0.1465	0.0029
298.15	15000	0.1383	0.0028
298.15	20900	0.1286	0.0026
298.15	25800	0.1219	0.0024
298.15	31200	0.1142	0.0023
298.15	41000	0.1022	0.002
298.15	51100	0.09136	0.00183
298.15	56700	0.08592	0.00172
298.15	76900	0.06913	0.00139
298.15	99300	0.05515	0.00111
298.15	126100	0.04133	0.00083
298.15	149100	0.03326	0.00067
298.14	176500	0.02545	0.00051
298.16	201000	0.02011	0.0004
298.15	225400	0.01595	0.00032
298.15	249800	0.01266	0.00026
323.15	225200	0.06251	0.00125
323.15	250100	0.0517	0.00104
348.16	100	0.8775	0.0176
348.15	1100	0.8705	0.0174
348.15	1700	0.8645	0.0173
348.15	3100	0.8548	0.0171
348.15	5100	0.8396	0.0168
348.14	10700	0.8001	0.016
348.15	15700	0.7661	0.0153
348.15	20800	0.7337	0.0147
348.15	25700	0.7039	0.0141
348.15	30800	0.6752	0.0135
348.15	40200	0.6248	0.0125
348.16	50000	0.5774	0.0116
348.15	76000	0.4734	0.0095
348.16	103000	0.384	0.0077
348.15	126600	0.3257	0.0065
348.15	152400	0.2716	0.0054
348.16	176100	0.231	0.0046
348.15	200900	0.1957	0.0039
348.14	225100	0.1669	0.0033
348.15	250900	0.1413	0.0028

System: triethyl(pentyl)phosphonium bis((trifluoromethyl)sulfonyl)amide; phases: Liquid
Fixed: Pressure, kPa = 100
Property: Mass density, kg/m3 (Liquid); method: Vibrating tube method
Temperature, K	Mass density, kg/m3	uncertainty
273.15	1323.6	1.29
278.15	1319.31	1.28
283.15	1315.01	1.28
288.15	1310.72	1.28
293.15	1306.43	1.28
298.15	1302.17	1.28
303.15	1297.92	1.28
313.15	1289.49	1.28
323.15	1281.12	1.27
333.15	1272.8	1.27
343.15	1264.54	1.27
353.15	1256.32	1.27
363.15	1248.15	1.26

System: triethyl(pentyl)phosphonium bis((trifluoromethyl)sulfonyl)amide; phases: Liquid
Fixed: Pressure, kPa = 100
Property: Mass density, kg/m3 (Liquid); method: Vibrating tube method
Temperature, K	Mass density, kg/m3	uncertainty
298.15	1302.2	1.3
303.15	1298.3	1.3
313.15	1290.4	1.3
323.15	1282.2	1.3
333.15	1273.7	1.3
343.15	1264.8	1.3
353.15	1255.7	1.3

System: triethyl(pentyl)phosphonium bis((trifluoromethyl)sulfonyl)amide; phases: Liquid
Property: Mass density, kg/m3 (Liquid); method: Vibrating tube method
Temperature, K	Pressure, kPa	Mass density, kg/m3	uncertainty
298.15	100	1302.15	1.28
298.15	1000	1302.82	1.28
298.15	5000	1305.75	1.3
298.15	10000	1309.28	1.32
298.15	15000	1312.76	1.35
298.15	20000	1316.13	1.38
298.15	25000	1319.42	1.41
298.15	30000	1322.62	1.44
298.15	35000	1325.82	1.48
298.15	40000	1328.9	1.52
298.15	45000	1331.96	1.56
298.15	50010	1334.83	1.6
303.15	100	1298.32	1.28
303.15	1000	1298.99	1.28
303.15	5000	1301.97	1.3
303.15	10000	1305.55	1.32
303.15	15000	1309.08	1.35
303.15	20000	1312.5	1.37
303.15	25000	1315.86	1.41
303.15	30000	1319.11	1.44
303.15	35000	1322.31	1.48
303.15	40000	1325.42	1.51
303.15	45000	1328.53	1.56
303.15	50000	1331.53	1.6
313.15	100	1290.44	1.28
313.15	1000	1291.1	1.28
313.15	5000	1294.18	1.29
313.15	10000	1297.91	1.32
313.15	15000	1301.54	1.34
313.15	20000	1305.07	1.37
313.15	25000	1308.48	1.4
313.15	30000	1311.85	1.43
313.15	35000	1315.16	1.47
313.15	40000	1318.37	1.5
313.15	45000	1321.53	1.54
313.15	50000	1324.64	1.59
323.15	100	1282.21	1.27
323.15	1000	1282.87	1.28
323.15	5000	1286.05	1.29
323.15	10000	1289.93	1.31
323.15	15000	1293.65	1.34
323.15	20000	1297.31	1.36
323.15	25000	1300.84	1.39
323.15	30000	1304.31	1.42
323.15	35000	1307.72	1.46
323.15	40000	1311.03	1.49
323.15	45000	1314.23	1.53
323.15	50000	1317.43	1.58
333.15	100	1273.66	1.27
333.15	1000	1274.41	1.27
333.15	5000	1277.68	1.29
333.15	10000	1281.66	1.31
333.15	15000	1285.53	1.33
333.15	20000	1289.3	1.36
333.15	25000	1292.91	1.39
333.15	30000	1296.47	1.42
333.15	35000	1299.98	1.45
333.15	40000	1303.38	1.48
333.15	45000	1306.68	1.52
333.15	50000	1309.96	1.56
343.15	100	1264.84	1.27
343.15	1000	1265.61	1.27
343.15	5000	1269.03	1.29
343.15	10000	1273.12	1.31
343.15	15000	1277.12	1.33
343.15	20000	1280.98	1.35
343.15	25000	1284.76	1.38
343.15	30000	1288.39	1.41
343.15	35000	1291.99	1.44
343.15	40000	1295.5	1.47
343.15	45000	1298.89	1.51
343.15	50000	1302.23	1.55
353.15	100	1255.68	1.27
353.15	1000	1256.5	1.27
353.15	5000	1260.01	1.28
353.15	10000	1264.27	1.3
353.15	15000	1268.38	1.32
353.15	20000	1272.39	1.35
353.15	25000	1276.24	1.37
353.15	30000	1280.04	1.4
353.15	35000	1283.68	1.43
353.15	40000	1287.28	1.46
353.15	45000	1290.77	1.5
353.15	50000	1294.22	1.54
