Measured thermophysical data. Determination and Correlation of Vapor Liquid Equilibria for the Phosphoric Acid + Water + Cyclohexane + Ethanol System
Source: J. Chem. Eng. Data, 2017, 10.1021/acs.jced.6b00293
Compound 1: phosphoric acid, H3O4P, InChI=1S/H3O4P/c1-5(2,3)4/h(H3,1,2,3,4), purity 95%
Compound 2: cyclohexane, C6H12, InChI=1S/C6H12/c1-2-4-6-5-3-1/h1-6H2, purity 99.5%
Compound 3: ethanol, C2H6O, InChI=1S/C2H6O/c1-2-3/h3H,2H2,1H3, purity 99.7%
Compound 4: water, H2O, InChI=1S/H2O/h1H2, purity 99.8%

System: cyclohexane; phases: Liquid, Gas
Property: Boiling temperature at pressure P, K (Liquid); method: Ebulliometric method (Recirculating still)
Pressure, kPa	Boiling temperature at pressure P, K	uncertainty
20	307.92	0.46
40	325.47	0.65
60	337.08	0.68
80	346.09	0.72
101.3	354.11	0.81

System: ethanol; phases: Liquid, Gas
Property: Vapor or sublimation pressure, kPa (Liquid); method: Ebulliometric method (Recirculating still)
Temperature, K	Vapor or sublimation pressure, kPa	uncertainty
315.14	20	1
329.42	40	1
338.61	60	1
345.53	80	2
351.62	101.3	1.8

System: ethanol + phosphoric acid + water; phases: Liquid, Gas
Property: Boiling temperature at pressure P, K (Liquid); method: Ebulliometric method (Recirculating still)
Pressure, kPa	Mole fraction of phosphoric acid	Mole fraction of ethanol	Boiling temperature at pressure P, K	uncertainty
20	0.0596	0	334.92	0.47
20	0.0579	0.0275	329.98	0.76
20	0.0564	0.0523	326.8	0.64
20	0.0553	0.0721	324.92	0.54
20	0.0536	0.0999	323.31	0.5
20	0.0504	0.1538	320.8	0.46
20	0.0475	0.2026	319.94	0.45
20	0.0419	0.2964	318.5	0.42
20	0.0353	0.4066	317.59	0.43
20	0.0294	0.5061	316.83	0.43
20	0.024	0.5973	316.32	0.42
20	0.018	0.6978	315.92	0.42
20	0.0128	0.785	315.56	0.42
20	0.0061	0.8973	315.26	0.44
20	0.0034	0.9425	315.21	0.42
20	0	1	315.14	0.42
40	0.0596	0	350.71	0.64
40	0.0579	0.0275	345.19	0.94
40	0.0564	0.0523	341.7	0.82
40	0.0553	0.0721	339.76	0.68
40	0.0536	0.0999	337.99	0.83
40	0.0504	0.1538	335.56	0.66
40	0.0475	0.2026	334.45	0.68
40	0.0419	0.2964	333.04	0.62
40	0.0353	0.4066	332.03	0.66
40	0.0294	0.5061	331.27	0.66
40	0.024	0.5973	330.62	0.64
40	0.018	0.6978	330.18	0.75
40	0.0128	0.785	329.83	0.86
40	0.0061	0.8973	329.58	1.52
40	0.0034	0.9425	329.48	1.27
40	0	1	329.42	0.56
60	0.0596	0	360.93	0.65
60	0.0579	0.0275	354.78	0.99
60	0.0564	0.0523	351.02	0.82
60	0.0553	0.0721	349.13	0.69
60	0.0536	0.0999	347.31	0.73
60	0.0504	0.1538	344.98	0.62
60	0.0475	0.2026	343.84	0.63
60	0.0419	0.2964	342.34	0.6
60	0.0353	0.4066	341.23	0.61
60	0.0294	0.5061	340.47	0.6
60	0.024	0.5973	339.81	0.59
60	0.018	0.6978	339.32	0.62
60	0.0128	0.785	338.97	0.65
60	0.0061	0.8973	338.71	0.86
60	0.0034	0.9425	338.66	0.79
60	0	1	338.61	0.57
80	0.0596	0	368.62	0.66
80	0.0579	0.0275	362.3	1.02
80	0.0564	0.0523	358.33	0.86
80	0.0553	0.0721	356.25	0.73
80	0.0536	0.0999	354.31	0.72
80	0.0504	0.1538	351.98	0.63
80	0.0475	0.2026	350.86	0.64
80	0.0419	0.2964	349.34	0.61
80	0.0353	0.4066	348.22	0.62
80	0.0294	0.5061	347.41	0.61
80	0.024	0.5973	346.75	0.6
80	0.018	0.6978	346.25	0.61
80	0.0128	0.785	345.9	0.63
80	0.0061	0.8973	345.64	0.7
80	0.0034	0.9425	345.59	0.68
80	0	1	345.53	0.59
101.3	0.0596	0	375.25	0.72
101.3	0.0579	0.0275	368.83	1.1
101.3	0.0564	0.0523	364.8	0.92
101.3	0.0553	0.0721	362.91	0.81
101.3	0.0536	0.0999	360.82	0.78
101.3	0.0504	0.1538	358.43	0.71
101.3	0.0475	0.2026	357.16	0.7
101.3	0.0419	0.2964	355.64	0.7
101.3	0.0353	0.4066	354.42	0.67
101.3	0.0294	0.5061	353.6	0.67
101.3	0.024	0.5973	352.94	0.68
101.3	0.018	0.6978	352.39	0.66
101.3	0.0128	0.785	352.03	0.66
101.3	0.0061	0.8973	351.78	0.66
101.3	0.0034	0.9425	351.73	0.67
101.3	0	1	351.62	0.66
20	0.1106	0	337.44	0.49
20	0.1088	0.0165	333.96	0.7
20	0.1065	0.0371	330.63	0.62
20	0.1029	0.07	327.18	0.46
20	0.0986	0.1081	324.61	0.45
20	0.0937	0.1525	322.65	0.48
20	0.0886	0.1985	321.47	0.46
20	0.0824	0.2548	320.21	0.45
20	0.0743	0.3282	318.98	0.44
20	0.0661	0.4022	318.28	0.43
20	0.0546	0.5063	317.34	0.43
20	0.0446	0.597	316.63	0.42
20	0.0323	0.708	316.08	0.42
20	0.0224	0.7975	315.7	0.42
20	0.011	0.9003	315.4	0.42
20	0.0063	0.9433	315.24	0.42
40	0.1106	0	353.34	0.62
40	0.1088	0.0165	349.33	0.9
40	0.1065	0.0371	346.14	0.76
40	0.1029	0.07	342.13	0.62
40	0.0986	0.1081	339.19	0.6
40	0.0937	0.1525	337.17	0.58
40	0.0886	0.1985	335.96	0.6
40	0.0824	0.2548	334.56	0.57
40	0.0743	0.3282	333.38	0.59
40	0.0661	0.4022	332.74	0.58
40	0.0546	0.5063	331.64	0.57
40	0.0446	0.597	330.74	0.57
40	0.0323	0.708	330.33	0.57
40	0.0224	0.7975	329.88	0.57
40	0.011	0.9003	329.68	0.58
40	0.0063	0.9433	329.52	1.08
60	0.1106	0	363.66	0.64
60	0.1088	0.0165	359.34	0.93
60	0.1065	0.0371	355.68	0.8
60	0.1029	0.07	351.61	0.63
60	0.0986	0.1081	348.82	0.62
60	0.0937	0.1525	346.64	0.61
60	0.0886	0.1985	345.32	0.61
60	0.0824	0.2548	343.81	0.59
60	0.0743	0.3282	342.64	0.6
60	0.0661	0.4022	341.99	0.59
60	0.0546	0.5063	340.77	0.58
60	0.0446	0.597	339.96	0.59
60	0.0323	0.708	339.47	0.58
60	0.0224	0.7975	339.06	0.58
60	0.011	0.9003	338.81	0.58
60	0.0063	0.9433	338.71	0.68
80	0.1106	0	371.16	0.69
80	0.1088	0.0165	366.93	0.92
80	0.1065	0.0371	363.1	0.81
80	0.1029	0.07	358.88	0.65
80	0.0986	0.1081	355.88	0.64
80	0.0937	0.1525	353.64	0.63
80	0.0886	0.1985	352.37	0.63
80	0.0824	0.2548	350.8	0.61
80	0.0743	0.3282	349.68	0.62
80	0.0661	0.4022	348.97	0.61
80	0.0546	0.5063	347.86	0.6
80	0.0446	0.597	347	0.61
80	0.0323	0.708	346.39	0.6
80	0.0224	0.7975	346.03	0.6
80	0.011	0.9003	345.73	0.6
80	0.0063	0.9433	345.63	0.63
101.3	0.1106	0	378.45	0.77
101.3	0.1088	0.0165	373.51	1.13
101.3	0.1065	0.0371	369.27	0.94
101.3	0.1029	0.07	365.14	0.82
101.3	0.0986	0.1081	362.39	0.77
101.3	0.0937	0.1525	360.05	0.79
101.3	0.0886	0.1985	358.78	0.73
101.3	0.0824	0.2548	357.09	0.74
101.3	0.0743	0.3282	355.93	0.72
101.3	0.0661	0.4022	355.16	0.68
101.3	0.0546	0.5063	353.9	0.67
101.3	0.0446	0.597	353.19	0.68
101.3	0.0323	0.708	352.53	0.67
101.3	0.0224	0.7975	352.12	0.66
101.3	0.011	0.9003	351.82	0.66
101.3	0.0063	0.9433	351.72	0.66
20	0.185	0	343.05	0.54
20	0.1796	0.0294	336.88	0.67
20	0.1749	0.0548	333.64	0.58
20	0.1708	0.0767	331.62	0.57
20	0.1665	0.1	329.71	0.59
20	0.157	0.1511	326.43	0.55
20	0.146	0.2107	324.01	0.49
20	0.1294	0.3007	321.39	0.59
20	0.1112	0.3989	319.52	0.44
20	0.092	0.5027	318.15	0.43
20	0.0741	0.5993	317.24	0.43
20	0.0556	0.6993	316.42	0.42
20	0.0362	0.8045	315.77	0.42
20	0.0195	0.8948	315.46	0.42
20	0.0093	0.9497	315.31	0.45
40	0.185	0	359.35	0.66
40	0.1796	0.0294	352.69	0.67
40	0.1749	0.0548	348.98	0.61
40	0.1708	0.0767	346.8	0.59
40	0.1665	0.1	344.82	0.9
40	0.157	0.1511	341.13	0.74
40	0.146	0.2107	338.7	0.64
40	0.1294	0.3007	336.02	0.67
40	0.1112	0.3989	334.05	0.58
40	0.092	0.5027	332.53	0.58
40	0.0741	0.5993	331.57	0.58
40	0.0556	0.6993	330.77	0.62
40	0.0362	0.8045	330.16	0.69
40	0.0195	0.8948	329.86	0.99
40	0.0093	0.9497	329.61	1.4
60	0.185	0	369.6	0.69
60	0.1796	0.0294	362.76	0.78
60	0.1749	0.0548	358.79	0.67
60	0.1708	0.0767	356.45	0.64
60	0.1665	0.1	354.47	0.8
60	0.157	0.1511	350.66	0.73
60	0.146	0.2107	348.07	0.64
60	0.1294	0.3007	345.28	0.72
60	0.1112	0.3989	343.25	0.59
60	0.092	0.5027	341.73	0.58
60	0.0741	0.5993	340.77	0.58
60	0.0556	0.6993	339.91	0.58
60	0.0362	0.8045	339.3	0.59
60	0.0195	0.8948	339	0.64
60	0.0093	0.9497	338.8	0.73
80	0.185	0	377.71	0.72
80	0.1796	0.0294	370.26	0.83
80	0.1749	0.0548	366.23	0.71
80	0.1708	0.0767	363.88	0.69
80	0.1665	0.1	361.84	0.79
80	0.157	0.1511	357.97	0.75
80	0.146	0.2107	355.08	0.66
80	0.1294	0.3007	352.28	0.76
80	0.1112	0.3989	350.25	0.61
80	0.092	0.5027	348.73	0.6
80	0.0741	0.5993	347.76	0.6
80	0.0556	0.6993	346.9	0.6
80	0.0362	0.8045	346.24	0.6
80	0.0195	0.8948	345.89	0.6
80	0.0093	0.9497	345.74	0.62
101.3	0.185	0	384.15	0.76
101.3	0.1796	0.0294	376.68	0.93
101.3	0.1749	0.0548	372.69	0.81
101.3	0.1708	0.0767	370.39	0.81
101.3	0.1665	0.1	368.3	0.82
101.3	0.157	0.1511	364.42	0.8
101.3	0.146	0.2107	361.42	0.73
101.3	0.1294	0.3007	358.67	0.85
101.3	0.1112	0.3989	356.53	0.69
101.3	0.092	0.5027	355.01	0.69
101.3	0.0741	0.5993	353.89	0.67
101.3	0.0556	0.6993	353.03	0.67
101.3	0.0362	0.8045	352.37	0.67
101.3	0.0195	0.8948	352.01	0.67
101.3	0.0093	0.9497	351.86	0.68
20	0.0137	0.9444	315.16	0.45
40	0.0137	0.9444	329.45	1.87
60	0.0137	0.9444	338.6	1.05
80	0.0137	0.9444	345.58	0.82
101.3	0.0137	0.9444	351.67	0.68

System: phosphoric acid + water; phases: Liquid, Gas
Property: Boiling temperature at pressure P, K (Liquid); method: Ebulliometric method (Recirculating still)
Pressure, kPa	Mole fraction of phosphoric acid	Boiling temperature at pressure P, K	uncertainty
20	0.0596	334.92	0.48
40	0.0596	350.71	0.7
60	0.0596	360.93	0.68
80	0.0596	368.62	0.68
101.3	0.0596	375.25	0.75
20	0.1106	337.44	0.51
40	0.1106	353.34	0.68
60	0.1106	363.66	0.68
80	0.1106	371.16	0.72
101.3	0.1106	378.45	0.84
20	0.185	343.05	0.54
40	0.185	359.35	0.66
60	0.185	369.6	0.69
80	0.185	377.71	0.72
101.3	0.185	384.15	0.76

System: cyclohexane + phosphoric acid + water; phases: Liquid mixture 1, Liquid mixture 2, Gas
Property: Triple point temperature, K (Liquid mixture 1); method: Ebulliometric method (Recirculating still)
Pressure, kPa	Mass fraction of phosphoric acid	Triple point temperature, K	uncertainty
20	0	302.55	0.51
20	0.1	302.77	0.51
20	0.2	302.97	0.51
20	0.3	303.27	0.51
20	0.4	303.77	0.51
20	0.5	304.59	0.52
20	0.6	305.19	0.52
40	0	318.45	0.59
40	0.1	318.65	0.59
40	0.2	318.75	0.59
40	0.3	318.85	0.59
40	0.4	319.67	0.59
40	0.5	320.48	0.59
40	0.6	321.85	0.6
60	0	328.5	0.59
60	0.1	328.7	0.59
60	0.2	328.8	0.59
60	0.3	329.05	0.6
60	0.4	330.01	0.6
60	0.5	330.92	0.6
60	0.6	332.45	0.6
80	0	335.97	0.6
80	0.1	336.27	0.6
80	0.2	336.47	0.6
80	0.3	336.65	0.61
80	0.4	337.85	0.61
80	0.5	338.7	0.61
80	0.6	340.15	0.62
101.3	0	342.55	0.64
101.3	0.1	342.75	0.63
101.3	0.2	343.05	0.64
101.3	0.3	343.65	0.66
101.3	0.4	344.65	0.65
101.3	0.5	345.48	0.67
101.3	0.6	347.5	0.68

System: cyclohexane + water; phases: Liquid mixture 1, Liquid mixture 2, Gas
Property: Triple point temperature, K (Liquid mixture 1); method: Ebulliometric method (Recirculating still)
Pressure, kPa	Triple point temperature, K	uncertainty
20	302.55	0.51
40	318.45	0.59
60	328.5	0.59
80	335.97	0.6
101.3	342.55	0.64
