Measured thermophysical data. The Viscosity and Density of Ionic Liquid + Tetraglyme Mixtures and the Effect of Tetraglyme on CO2 Solubility
Source: J. Chem. Eng. Data, 2017, 10.1021/acs.jced.6b00596
Compound 1: 2,5,8,11,14-pentaoxapentadecane, C10H22O5, InChI=1S/C10H22O5/c1-11-3-5-13-7-9-15-10-8-14-6-4-12-2/h3-10H2,1-2H3, purity 99%
Compound 2: carbon dioxide, CO2, InChI=1S/CO2/c2-1-3, purity 99.995%
Compound 3: trihexyl(tetradecyl)phosphonium 4-nitroimidazolide, C35H70N3O2P, InChI=1S/C32H68P.C3H2N3O2/c1-5-9-13-17-18-19-20-21-22-23-24-28-32-33(29-25-14-10-6-2,30-26-15-11-7-3)31-27-16-12-8-4;7-6(8)3-1-4-2-5-3/h5-32H2,1-4H3;1-2H/q+1;-1, purity 98%
Compound 4: trihexyl(tetradecyl)phosphonium 4,5-dicyanoimidazolide, C37H69N4P, InChI=1S/C32H68P.C5HN4/c1-5-9-13-17-18-19-20-21-22-23-24-28-32-33(29-25-14-10-6-2,30-26-15-11-7-3)31-27-16-12-8-4;6-1-4-5(2-7)9-3-8-4/h5-32H2,1-4H3;3H/q+1;-1, purity 99%
Compound 5: trihexyl(tetradecyl)phosphonium bis[(trifluoromethyl)sulfonyl]imide, C34H68F6NO4PS2, InChI=1S/C32H68P.C2F6NO4S2/c1-5-9-13-17-18-19-20-21-22-23-24-28-32-33(29-25-14-10-6-2,30-26-15-11-7-3)31-27-16-12-8-4;3-1(4,5)14(10,11)9-15(12,13)2(6,7)8/h5-32H2,1-4H3;/q+1;-1, purity 99%
Compound 6: trihexyl(tetradecyl)phosphonium 2-methyl-5-nitroimidazolide, C36H72N3O2P, InChI=1S/C32H68P.C4H4N3O2/c1-5-9-13-17-18-19-20-21-22-23-24-28-32-33(29-25-14-10-6-2,30-26-15-11-7-3)31-27-16-12-8-4;1-3-5-2-4(6-3)7(8)9/h5-32H2,1-4H3;2H,1H3/q+1;-1, purity 99%
Compound 7: tetradecyl(trihexyl)phosphonium dicyanamide, C34H68N3P, InChI=1S/C32H68P.C2N3/c1-5-9-13-17-18-19-20-21-22-23-24-28-32-33(29-25-14-10-6-2,30-26-15-11-7-3)31-27-16-12-8-4;3-1-5-2-4/h5-32H2,1-4H3;/q+1;-1, purity 95%
Compound 8: 1-hexyl-3-methylimidazolium bis[(trifluoromethyl)sulfonyl]imide, C12H19F6N3O4S2, InChI=1S/C10H19N2.C2F6NO4S2/c1-3-4-5-6-7-12-9-8-11(2)10-12;3-1(4,5)14(10,11)9-15(12,13)2(6,7)8/h8-10H,3-7H2,1-2H3;/q+1;-1, purity 99%
Compound 9: trihexyl(tetradecyl)phosphonium 5-bromobenzimidazolide, C39H72BrN2P, InChI=1S/C32H68P.C7H4BrN2/c1-5-9-13-17-18-19-20-21-22-23-24-28-32-33(29-25-14-10-6-2,30-26-15-11-7-3)31-27-16-12-8-4;8-5-1-2-6-7(3-5)10-4-9-6/h5-32H2,1-4H3;1-4H/q+1;-1, purity 99%
Compound 10: trihexyl(tetradecyl)phosphonium acetate, C34H71O2P, InChI=1S/C32H68P.C2H4O2/c1-5-9-13-17-18-19-20-21-22-23-24-28-32-33(29-25-14-10-6-2,30-26-15-11-7-3)31-27-16-12-8-4;1-2(3)4/h5-32H2,1-4H3;1H3,(H,3,4)/q+1;/p-1, purity 99%
Compound 11: 1-hexyl-2,3-dimethylimidazolium bis[(trifluoromethyl)sulfonyl]imide, C13H21F6N3O4S2, InChI=1S/C11H21N2.C2F6NO4S2/c1-4-5-6-7-8-13-10-9-12(3)11(13)2;3-1(4,5)14(10,11)9-15(12,13)2(6,7)8/h9-10H,4-8H2,1-3H3;/q+1;-1, purity 97%
Compound 12: trihexyl(tetradecyl)phosphonium 1,2,4-triazolide, C34H70N3P, InChI=1S/C32H68P.C2H2N3/c1-5-9-13-17-18-19-20-21-22-23-24-28-32-33(29-25-14-10-6-2,30-26-15-11-7-3)31-27-16-12-8-4;1-3-2-5-4-1/h5-32H2,1-4H3;1-2H/q+1;-1, purity 99%
Compound 13: trihexyl(tetradecyl)phosphonium 1,2,3-triazolide, C34H70N3P, InChI=1S/C32H68P.C2H2N3/c1-5-9-13-17-18-19-20-21-22-23-24-28-32-33(29-25-14-10-6-2,30-26-15-11-7-3)31-27-16-12-8-4;1-2-4-5-3-1/h5-32H2,1-4H3;1-2H/q+1;-1, purity 99%
Compound 14: tributyl(dodecyl)phosphonium 1,2,3-triazolide, C26H54N3P, InChI=1S/C24H52P.C2H2N3/c1-5-9-13-14-15-16-17-18-19-20-24-25(21-10-6-2,22-11-7-3)23-12-8-4;1-2-4-5-3-1/h5-24H2,1-4H3;1-2H/q+1;-1, purity 99%
Compound 15: triethyloctylphosphonium 4-nitropyrazolide, C17H34N3O2P, InChI=1S/C14H32P.C3H2N3O2/c1-5-9-10-11-12-13-14-15(6-2,7-3)8-4;7-6(8)3-1-4-5-2-3/h5-14H2,1-4H3;1-2H/q+1;-1, purity 97%
Compound 16: triethyloctylphosphonium 4-nitroimidazolide, C17H34N3O2P, InChI=1S/C14H32P.C3H2N3O2/c1-5-9-10-11-12-13-14-15(6-2,7-3)8-4;7-6(8)3-1-4-2-5-3/h5-14H2,1-4H3;1-2H/q+1;-1, purity 95%
Compound 17: triethyloctylphosphonium 2-methyl-5-nitroimidazolide, C18H36N3O2P, InChI=1S/C14H32P.C4H4N3O2/c1-5-9-10-11-12-13-14-15(6-2,7-3)8-4;1-3-5-2-4(6-3)7(8)9/h5-14H2,1-4H3;2H,1H3/q+1;-1, purity 99%
Compound 18: 1-but-1-enyl-2,3-dimethylimidazolium 4-nitropyrazolide, C12H17N5O2, InChI=1S/C9H15N2.C3H2N3O2/c1-4-5-6-11-8-7-10(3)9(11)2;7-6(8)3-1-4-5-2-3/h5-8H,4H2,1-3H3;1-2H/q+1;-1, purity 98%
Compound 19: 1,2-dimethyl-3-propylimidazolium 4-nitropyrazolide, C11H17N5O2, InChI=1S/C8H15N2.C3H2N3O2/c1-4-5-10-7-6-9(3)8(10)2;7-6(8)3-1-4-5-2-3/h6-7H,4-5H2,1-3H3;1-2H/q+1;-1, purity 97%
Compound 20: butyltriethylphosphonium 2-methyl-5-nitroimidazolide, C14H28N3O2P, InChI=1S/C10H24P.C4H4N3O2/c1-5-9-10-11(6-2,7-3)8-4;1-3-5-2-4(6-3)7(8)9/h5-10H2,1-4H3;2H,1H3/q+1;-1, purity 95%

System: 2,5,8,11,14-pentaoxapentadecane; phases: Liquid
Fixed: Pressure, kPa = 100
Property: Mass density, kg/m3 (Liquid); method: Vibrating tube method
Temperature, K	Mass density, kg/m3	uncertainty
283.15	1020.3	4
288.15	1015.6	4
293.15	1011	4
295.15	1009.2	4
298.15	1006.4	4
303.15	1001.8	4
308.15	997.2	4
313.15	992.6	4
318.15	988	4
323.15	983.4	4
328.15	978.8	4
333.15	974.2	4
338.15	969.6	4
343.15	965	4
348.15	960.4	4
353.15	955.8	4

System: tetradecyl(trihexyl)phosphonium dicyanamide; phases: Liquid
Fixed: Pressure, kPa = 100
Property: Viscosity, Pa*s (Liquid); method: Cone and plate viscometry
Temperature, K	Viscosity, Pa*s	uncertainty
278.15	1.75	0.135
283.15	1.21	0.085
288.15	0.842	0.054
293.15	0.603	0.035
298.15	0.442	0.023
303.15	0.331	0.016
308.15	0.253	0.011
313.15	0.196	0.008
318.15	0.155	0.005
323.15	0.124	0.004

System: 1-hexyl-3-methylimidazolium bis[(trifluoromethyl)sulfonyl]imide; phases: Liquid
Fixed: Pressure, kPa = 100
Property: Viscosity, Pa*s (Liquid); method: Cone and plate viscometry
Temperature, K	Viscosity, Pa*s	uncertainty
278.15	0.204	0.006
283.15	0.151	0.004
288.15	0.115	0.002
293.15	0.089	0.002

System: trihexyl(tetradecyl)phosphonium 5-bromobenzimidazolide; phases: Liquid
Fixed: Pressure, kPa = 100
Property: Viscosity, Pa*s (Liquid); method: Cone and plate viscometry
Temperature, K	Viscosity, Pa*s	uncertainty
278.15	7.87	0.814
283.15	4.76	0.449
288.15	2.96	0.251
293.15	1.91	0.145
298.15	1.27	0.086
303.15	0.872	0.052
308.15	0.613	0.032
313.15	0.441	0.02
318.15	0.325	0.013
323.15	0.246	0.009

System: 1-hexyl-2,3-dimethylimidazolium bis[(trifluoromethyl)sulfonyl]imide; phases: Liquid
Fixed: Pressure, kPa = 100
Property: Viscosity, Pa*s (Liquid); method: Cone and plate viscometry
Temperature, K	Viscosity, Pa*s	uncertainty
278.15	0.485	0.024
283.15	0.335	0.015
288.15	0.236	0.009
293.15	0.172	0.005
298.15	0.129	0.004
303.15	0.099	0.002
308.15	0.078	0.002
313.15	0.063	0.001

System: trihexyl(tetradecyl)phosphonium 1,2,4-triazolide; phases: Liquid
Fixed: Pressure, kPa = 100
Property: Viscosity, Pa*s (Liquid); method: Cone and plate viscometry
Temperature, K	Viscosity, Pa*s	uncertainty
278.15	4.64	0.43
283.15	2.98	0.252
288.15	1.96	0.149
293.15	1.32	0.09
298.15	0.918	0.056
303.15	0.654	0.035
308.15	0.477	0.023
313.15	0.354	0.015
318.15	0.269	0.01
323.15	0.209	0.007

System: trihexyl(tetradecyl)phosphonium 1,2,3-triazolide; phases: Liquid
Fixed: Pressure, kPa = 100
Property: Mass density, kg/m3 (Liquid); method: Vibrating tube method
Temperature, K	Mass density, kg/m3	uncertainty
283.15	906.6	4
288.15	903.5	4
293.15	900.5	4
295.15	899.3	4
298.15	897.5	4
303.15	894.5	4
308.15	891.5	4
313.15	888.5	4
318.15	885.5	4
323.15	882.6	4
328.15	879.6	4
333.15	876.7	4
338.15	873.8	4
343.15	870.8	4
348.15	867.9	4
353.15	865	4

System: triethyloctylphosphonium 4-nitropyrazolide; phases: Liquid
Fixed: Pressure, kPa = 100
Property: Viscosity, Pa*s (Liquid); method: Cone and plate viscometry
Temperature, K	Viscosity, Pa*s	uncertainty
278.15	1.34	0.093
283.15	0.868	0.054
288.15	0.578	0.031
293.15	0.398	0.019
298.15	0.282	0.011
303.15	0.207	0.007
308.15	0.155	0.005
313.15	0.119	0.003
318.15	0.094	0.002
323.15	0.075	0.002

System: triethyloctylphosphonium 4-nitroimidazolide; phases: Liquid
Fixed: Pressure, kPa = 100
Property: Viscosity, Pa*s (Liquid); method: Cone and plate viscometry
Temperature, K	Viscosity, Pa*s	uncertainty
278.15	1.27	0.091
283.15	0.838	0.054
288.15	0.569	0.033
293.15	0.398	0.02
298.15	0.286	0.013
303.15	0.212	0.009
308.15	0.16	0.006
313.15	0.124	0.004
318.15	0.098	0.003
323.15	0.078	0.002

System: triethyloctylphosphonium 2-methyl-5-nitroimidazolide; phases: Liquid
Fixed: Pressure, kPa = 100
Property: Viscosity, Pa*s (Liquid); method: Cone and plate viscometry
Temperature, K	Viscosity, Pa*s	uncertainty
278.15	3.66	0.323
283.15	2.24	0.178
288.15	1.41	0.099
293.15	0.92	0.057
298.15	0.623	0.033
303.15	0.435	0.02
308.15	0.313	0.012
313.15	0.231	0.008
318.15	0.174	0.005
323.15	0.135	0.003

System: 2,5,8,11,14-pentaoxapentadecane + trihexyl(tetradecyl)phosphonium 4-nitroimidazolide; phases: Liquid
Fixed: Pressure, kPa = 100
Property: Viscosity, Pa*s (Liquid); method: Cone and plate viscometry
Temperature, K	Mole fraction of trihexyl(tetradecyl)phosphonium 4-nitroimidazolide	Viscosity, Pa*s	uncertainty
278.15	0.811	1.503	0.106
283.15	0.811	1.036	0.066
288.15	0.811	0.726	0.041
293.15	0.811	0.522	0.026
298.15	0.811	0.384	0.017
303.15	0.811	0.29	0.011
308.15	0.811	0.222	0.007
313.15	0.811	0.173	0.005
318.15	0.811	0.138	0.003
323.15	0.811	0.111	0.007
278.15	0.596	0.443	0.021
283.15	0.596	0.324	0.013
288.15	0.596	0.24	0.008
293.15	0.596	0.18	0.005
298.15	0.596	0.135	0.003
303.15	0.596	0.107	0.002
308.15	0.596	0.085	0.001
313.15	0.596	0.07	0.001
318.15	0.596	0.057	0.001

System: 2,5,8,11,14-pentaoxapentadecane + trihexyl(tetradecyl)phosphonium 4,5-dicyanoimidazolide; phases: Liquid
Fixed: Pressure, kPa = 100
Property: Viscosity, Pa*s (Liquid); method: Cone and plate viscometry
Temperature, K	Mole fraction of trihexyl(tetradecyl)phosphonium 4,5-dicyanoimidazolide	Viscosity, Pa*s	uncertainty
278.15	0.799	1.051	0.066
283.15	0.799	0.723	0.041
288.15	0.799	0.507	0.025
293.15	0.799	0.365	0.016
298.15	0.799	0.269	0.01
303.15	0.799	0.203	0.006
308.15	0.799	0.156	0.004
313.15	0.799	0.123	0.003
318.15	0.799	0.098	0.005
323.15	0.799	0.079	0.005
278.15	0.599	0.389	0.017
283.15	0.599	0.283	0.011
288.15	0.599	0.209	0.007
293.15	0.599	0.158	0.004
298.15	0.599	0.122	0.003
303.15	0.599	0.097	0.002
308.15	0.599	0.077	0.001
313.15	0.599	0.063	0.001

System: 2,5,8,11,14-pentaoxapentadecane + trihexyl(tetradecyl)phosphonium bis[(trifluoromethyl)sulfonyl]imide; phases: Liquid
Fixed: Pressure, kPa = 100
Property: Viscosity, Pa*s (Liquid); method: Cone and plate viscometry
Temperature, K	Mole fraction of trihexyl(tetradecyl)phosphonium bis[(trifluoromethyl)sulfonyl]imide	Viscosity, Pa*s	uncertainty
278.15	0.809	0.589	0.03
283.15	0.809	0.414	0.019
288.15	0.809	0.299	0.012
293.15	0.809	0.221	0.007
298.15	0.809	0.168	0.005
303.15	0.809	0.13	0.003
313.15	0.809	0.083	0.001
323.15	0.809	0.06	0.001
278.15	0.634	0.281	0.011
283.15	0.634	0.207	0.007
288.15	0.634	0.157	0.004
293.15	0.634	0.121	0.003
298.15	0.634	0.096	0.002
303.15	0.634	0.077	0.001
313.15	0.634	0.052	0.001
278.15	0.441	0.111	0.003
283.15	0.441	0.085	0.001
288.15	0.441	0.067	0.001
293.15	0.441	0.054	0.001
278.15	0.336	0.064	0.001
283.15	0.336	0.051	0.001

System: 2,5,8,11,14-pentaoxapentadecane + trihexyl(tetradecyl)phosphonium 2-methyl-5-nitroimidazolide; phases: Liquid
Fixed: Pressure, kPa = 100
Property: Viscosity, Pa*s (Liquid); method: Cone and plate viscometry
Temperature, K	Mole fraction of trihexyl(tetradecyl)phosphonium 2-methyl-5-nitroimidazolide	Viscosity, Pa*s	uncertainty
278.15	0.849	2.535	0.204
283.15	0.849	1.685	0.123
288.15	0.849	1.14	0.074
293.15	0.849	0.791	0.046
298.15	0.849	0.563	0.029
303.15	0.849	0.411	0.018
308.15	0.849	0.306	0.012
313.15	0.849	0.232	0.008
318.15	0.849	0.179	0.005
323.15	0.849	0.141	0.003
278.15	0.601	0.595	0.031
283.15	0.601	0.425	0.019
288.15	0.601	0.308	0.012
293.15	0.601	0.228	0.008
298.15	0.601	0.173	0.005
303.15	0.601	0.134	0.003
308.15	0.601	0.106	0.002
313.15	0.601	0.085	0.001
318.15	0.601	0.069	0.001
323.15	0.601	0.057	0.001

System: 2,5,8,11,14-pentaoxapentadecane + tetradecyl(trihexyl)phosphonium dicyanamide; phases: Liquid
Fixed: Pressure, kPa = 100
Property: Viscosity, Pa*s (Liquid); method: Cone and plate viscometry
Temperature, K	Mole fraction of tetradecyl(trihexyl)phosphonium dicyanamide	Viscosity, Pa*s	uncertainty
278.15	1	1.75	0.135
283.15	1	1.21	0.085
288.15	1	0.842	0.054
293.15	1	0.603	0.035
298.15	1	0.442	0.023
303.15	1	0.331	0.016
308.15	1	0.253	0.011
313.15	1	0.196	0.008
318.15	1	0.155	0.005
323.15	1	0.124	0.004
278.15	0.901	1.13	0.078
283.15	0.901	0.794	0.049
288.15	0.901	0.566	0.032
293.15	0.901	0.413	0.021
298.15	0.901	0.308	0.014
303.15	0.901	0.234	0.009
308.15	0.901	0.182	0.007
313.15	0.901	0.143	0.005
318.15	0.901	0.115	0.003
323.15	0.901	0.093	0.003
278.15	0.797	0.708	0.042
283.15	0.797	0.508	0.027
288.15	0.797	0.37	0.018
293.15	0.797	0.275	0.012
298.15	0.797	0.209	0.008
303.15	0.797	0.162	0.005
308.15	0.797	0.128	0.004
313.15	0.797	0.103	0.003
318.15	0.797	0.083	0.002
323.15	0.797	0.069	0.002
278.15	0.701	0.479	0.025
283.15	0.701	0.348	0.016
288.15	0.701	0.258	0.01
293.15	0.701	0.195	0.007
298.15	0.701	0.151	0.005
303.15	0.701	0.119	0.003
308.15	0.701	0.096	0.002
313.15	0.701	0.078	0.002
318.15	0.701	0.064	0.001
323.15	0.701	0.054	0.001
278.15	0.499	0.16	0.006
283.15	0.499	0.122	0.003
288.15	0.499	0.095	0.002
293.15	0.499	0.075	0.002
298.15	0.499	0.061	0.001
278.15	0.348	0.073	0.001
283.15	0.348	0.057	0.001

System: 2,5,8,11,14-pentaoxapentadecane + 1-hexyl-3-methylimidazolium bis[(trifluoromethyl)sulfonyl]imide; phases: Liquid
Fixed: Pressure, kPa = 100
Property: Viscosity, Pa*s (Liquid); method: Cone and plate viscometry
Temperature, K	Mole fraction of 1-hexyl-3-methylimidazolium bis[(trifluoromethyl)sulfonyl]imide	Viscosity, Pa*s	uncertainty
278.15	1	0.204	0.006
283.15	1	0.151	0.004
288.15	1	0.115	0.002
293.15	1	0.089	0.002
278.15	0.901	0.171	0.005
283.15	0.901	0.126	0.003
288.15	0.901	0.096	0.002
293.15	0.901	0.074	0.001
278.15	0.81	0.13	0.003
283.15	0.81	0.097	0.002
288.15	0.81	0.074	0.001
293.15	0.81	0.057	0.001
278.15	0.724	0.109	0.002
283.15	0.724	0.081	0.001
288.15	0.724	0.063	0.001
278.15	0.587	0.078	0.001
283.15	0.587	0.06	0.001
278.15	0.456	0.05	0.001

System: 2,5,8,11,14-pentaoxapentadecane + trihexyl(tetradecyl)phosphonium 5-bromobenzimidazolide; phases: Liquid
Fixed: Pressure, kPa = 100
Property: Viscosity, Pa*s (Liquid); method: Cone and plate viscometry
Temperature, K	Mole fraction of trihexyl(tetradecyl)phosphonium 5-bromobenzimidazolide	Viscosity, Pa*s	uncertainty
278.15	1	7.87	0.814
283.15	1	4.76	0.449
288.15	1	2.96	0.251
293.15	1	1.91	0.145
298.15	1	1.27	0.086
303.15	1	0.872	0.052
308.15	1	0.613	0.032
313.15	1	0.441	0.02
318.15	1	0.325	0.013
323.15	1	0.246	0.009
278.15	0.898	4.4	0.404
283.15	0.898	2.78	0.232
288.15	0.898	1.78	0.133
293.15	0.898	1.19	0.079
298.15	0.898	0.813	0.048
303.15	0.898	0.572	0.029
308.15	0.898	0.413	0.019
313.15	0.898	0.304	0.012
318.15	0.898	0.23	0.008
323.15	0.898	0.177	0.005
278.15	0.862	3.39	0.294
283.15	0.862	2.19	0.172
288.15	0.862	1.44	0.101
293.15	0.862	0.972	0.06
298.15	0.862	0.675	0.037
303.15	0.862	0.481	0.023
308.15	0.862	0.351	0.015
313.15	0.862	0.261	0.009
318.15	0.862	0.199	0.006
323.15	0.862	0.155	0.004
278.15	0.782	2.07	0.161
283.15	0.782	1.36	0.094
288.15	0.782	0.913	0.056
293.15	0.782	0.631	0.034
298.15	0.782	0.449	0.021
303.15	0.782	0.326	0.013
308.15	0.782	0.243	0.008
313.15	0.782	0.185	0.005
318.15	0.782	0.143	0.003
323.15	0.782	0.114	0.002
278.15	0.654	0.954	0.061
283.15	0.654	0.597	0.032
288.15	0.654	0.42	0.019
293.15	0.654	0.301	0.012
298.15	0.654	0.222	0.007
303.15	0.654	0.167	0.005
308.15	0.654	0.129	0.003
313.15	0.654	0.101	0.002
318.15	0.654	0.081	0.001
323.15	0.654	0.066	0.001
278.15	0.522	0.426	0.021
283.15	0.522	0.304	0.012
288.15	0.522	0.22	0.007
293.15	0.522	0.164	0.005
298.15	0.522	0.125	0.003
303.15	0.522	0.098	0.002
308.15	0.522	0.077	0.001
313.15	0.522	0.063	0.001
318.15	0.522	0.051	0.001
278.15	0.362	0.138	0.003
283.15	0.362	0.103	0.002
288.15	0.362	0.08	0.001
293.15	0.362	0.062	0.001

System: 2,5,8,11,14-pentaoxapentadecane + trihexyl(tetradecyl)phosphonium acetate; phases: Liquid
Fixed: Pressure, kPa = 100
Property: Viscosity, Pa*s (Liquid); method: Cone and plate viscometry
Temperature, K	Mole fraction of trihexyl(tetradecyl)phosphonium acetate	Viscosity, Pa*s	uncertainty
278.15	0.897	1.16	0.075
283.15	0.897	0.789	0.046
288.15	0.897	0.549	0.028
293.15	0.897	0.392	0.017
298.15	0.897	0.287	0.011
303.15	0.897	0.216	0.007
308.15	0.897	0.166	0.005
313.15	0.897	0.13	0.003
318.15	0.897	0.103	0.002
323.15	0.897	0.084	0.001
278.15	0.793	0.651	0.035
283.15	0.793	0.462	0.022
288.15	0.793	0.332	0.014
293.15	0.793	0.244	0.008
298.15	0.793	0.184	0.005
303.15	0.793	0.142	0.003
308.15	0.793	0.112	0.002
313.15	0.793	0.089	0.001
318.15	0.793	0.073	0.001
323.15	0.793	0.06	0.001
278.15	0.701	0.401	0.018
283.15	0.701	0.291	0.011
288.15	0.701	0.215	0.007
293.15	0.701	0.162	0.004
298.15	0.701	0.125	0.003
303.15	0.701	0.099	0.002
308.15	0.701	0.079	0.001
313.15	0.701	0.064	0.001
318.15	0.701	0.053	0.001
278.15	0.6	0.257	0.009
283.15	0.6	0.191	0.006
288.15	0.6	0.145	0.004
293.15	0.6	0.111	0.002
298.15	0.6	0.088	0.001
303.15	0.6	0.07	0.001
308.15	0.6	0.057	0.001
278.15	0.501	0.176	0.005
283.15	0.501	0.121	0.003
288.15	0.501	0.092	0.002
293.15	0.501	0.073	0.001
298.15	0.501	0.058	0.001

System: 2,5,8,11,14-pentaoxapentadecane + 1-hexyl-2,3-dimethylimidazolium bis[(trifluoromethyl)sulfonyl]imide; phases: Liquid
Fixed: Pressure, kPa = 100
Property: Viscosity, Pa*s (Liquid); method: Cone and plate viscometry
Temperature, K	Mole fraction of 1-hexyl-2,3-dimethylimidazolium bis[(trifluoromethyl)sulfonyl]imide	Viscosity, Pa*s	uncertainty
278.15	1	0.485	0.024
283.15	1	0.335	0.015
288.15	1	0.236	0.009
293.15	1	0.172	0.005
298.15	1	0.129	0.004
303.15	1	0.099	0.002
308.15	1	0.078	0.002
313.15	1	0.063	0.001
278.15	0.898	0.37	0.016
283.15	0.898	0.258	0.01
288.15	0.898	0.184	0.006
293.15	0.898	0.135	0.004
298.15	0.898	0.103	0.002
303.15	0.898	0.08	0.002
308.15	0.898	0.064	0.001
313.15	0.898	0.052	0.001
278.15	0.795	0.251	0.009
283.15	0.795	0.177	0.006
288.15	0.795	0.129	0.003
293.15	0.795	0.096	0.002
298.15	0.795	0.074	0.001
303.15	0.795	0.058	0.001
278.15	0.694	0.161	0.005
283.15	0.694	0.116	0.003
288.15	0.694	0.086	0.002
293.15	0.694	0.066	0.001
298.15	0.694	0.051	0.001
278.15	0.601	0.109	0.003
283.15	0.601	0.081	0.002
288.15	0.601	0.061	0.001
278.15	0.501	0.07	0.001
283.15	0.501	0.053	0.001
278.15	0.401	0.048	0.001

System: 2,5,8,11,14-pentaoxapentadecane + trihexyl(tetradecyl)phosphonium 1,2,4-triazolide; phases: Liquid
Fixed: Pressure, kPa = 100
Property: Viscosity, Pa*s (Liquid); method: Cone and plate viscometry
Temperature, K	Mole fraction of trihexyl(tetradecyl)phosphonium 1,2,4-triazolide	Viscosity, Pa*s	uncertainty
278.15	1	4.64	0.43
283.15	1	2.98	0.252
288.15	1	1.96	0.149
293.15	1	1.32	0.09
298.15	1	0.918	0.056
303.15	1	0.654	0.035
308.15	1	0.477	0.023
313.15	1	0.354	0.015
318.15	1	0.269	0.01
323.15	1	0.209	0.007
278.15	0.954	3.29	0.284
283.15	0.954	2.15	0.168
288.15	0.954	1.44	0.101
293.15	0.954	0.994	0.062
298.15	0.954	0.706	0.039
303.15	0.954	0.512	0.025
308.15	0.954	0.382	0.016
313.15	0.954	0.289	0.011
318.15	0.954	0.223	0.007
323.15	0.954	0.176	0.005
278.15	0.874	2.08	0.16
283.15	0.874	1.4	0.097
288.15	0.874	0.961	0.059
293.15	0.874	0.679	0.037
298.15	0.874	0.491	0.024
303.15	0.874	0.364	0.015
308.15	0.874	0.275	0.01
313.15	0.874	0.212	0.007
318.15	0.874	0.166	0.004
323.15	0.874	0.133	0.003
278.15	0.804	1.47	0.102
283.15	0.804	1.01	0.063
288.15	0.804	0.708	0.039
293.15	0.804	0.508	0.025
298.15	0.804	0.374	0.016
303.15	0.804	0.281	0.01
308.15	0.804	0.217	0.007
313.15	0.804	0.169	0.005
318.15	0.804	0.135	0.003
323.15	0.804	0.109	0.002
278.15	0.751	0.989	0.062
283.15	0.751	0.691	0.038
288.15	0.751	0.493	0.024
293.15	0.751	0.36	0.015
298.15	0.751	0.269	0.01
303.15	0.751	0.205	0.006
308.15	0.751	0.16	0.004
313.15	0.751	0.126	0.003
318.15	0.751	0.102	0.002
323.15	0.751	0.083	0.001
278.15	0.694	0.709	0.039
283.15	0.694	0.504	0.025
288.15	0.694	0.366	0.016
293.15	0.694	0.272	0.01
298.15	0.694	0.208	0.007
303.15	0.694	0.162	0.004
308.15	0.694	0.129	0.003
313.15	0.694	0.104	0.002
318.15	0.694	0.086	0.001
323.15	0.694	0.071	0.001
278.15	0.61	0.415	0.019
283.15	0.61	0.299	0.012
288.15	0.61	0.22	0.007
293.15	0.61	0.167	0.005
298.15	0.61	0.128	0.003
303.15	0.61	0.101	0.002
308.15	0.61	0.081	0.001
313.15	0.61	0.066	0.001
318.15	0.61	0.054	0.001
278.15	0.516	0.259	0.009
283.15	0.516	0.191	0.006
288.15	0.516	0.145	0.004
293.15	0.516	0.111	0.002
298.15	0.516	0.088	0.001
303.15	0.516	0.07	0.001
308.15	0.516	0.057	0.001
278.15	0.418	0.163	0.005
283.15	0.418	0.11	0.002
288.15	0.418	0.085	0.001
293.15	0.418	0.066	0.001
298.15	0.418	0.053	0.001

System: 2,5,8,11,14-pentaoxapentadecane + trihexyl(tetradecyl)phosphonium 1,2,3-triazolide; phases: Liquid
Fixed: Pressure, kPa = 100
Property: Viscosity, Pa*s (Liquid); method: Cone and plate viscometry
Temperature, K	Mole fraction of trihexyl(tetradecyl)phosphonium 1,2,3-triazolide	Viscosity, Pa*s	uncertainty
278.15	0.917	1.18	0.077
283.15	0.917	0.803	0.047
288.15	0.917	0.562	0.029
293.15	0.917	0.4	0.018
298.15	0.917	0.294	0.011
303.15	0.917	0.221	0.007
308.15	0.917	0.17	0.005
313.15	0.917	0.133	0.003
318.15	0.917	0.106	0.002
323.15	0.917	0.086	0.001
278.15	0.878	1.03	0.064
283.15	0.878	0.707	0.039
288.15	0.878	0.497	0.024
293.15	0.878	0.358	0.015
298.15	0.878	0.266	0.01
303.15	0.878	0.201	0.006
308.15	0.878	0.156	0.004
313.15	0.878	0.123	0.003
318.15	0.878	0.099	0.002
323.15	0.878	0.081	0.001
278.15	0.793	0.665	0.036
283.15	0.793	0.469	0.022
288.15	0.793	0.339	0.014
293.15	0.793	0.25	0.009
298.15	0.793	0.19	0.006
303.15	0.793	0.147	0.004
308.15	0.793	0.116	0.002
313.15	0.793	0.093	0.002
318.15	0.793	0.076	0.001
323.15	0.793	0.063	0.001
278.15	0.69	0.42	0.019
283.15	0.69	0.306	0.012
288.15	0.69	0.226	0.008
293.15	0.69	0.172	0.005
298.15	0.69	0.134	0.003
303.15	0.69	0.106	0.002
308.15	0.69	0.085	0.001
313.15	0.69	0.069	0.001
318.15	0.69	0.057	0.001
278.15	0.602	0.271	0.01
283.15	0.602	0.201	0.006
288.15	0.602	0.152	0.004
293.15	0.602	0.118	0.003
298.15	0.602	0.093	0.002
303.15	0.602	0.074	0.001
308.15	0.602	0.062	0.001
313.15	0.602	0.051	0.001
278.15	0.499	0.173	0.005
283.15	0.499	0.132	0.003
288.15	0.499	0.102	0.002
293.15	0.499	0.08	0.001
298.15	0.499	0.065	0.001
303.15	0.499	0.053	0.001
278.15	0.3	0.053	0.001

System: 2,5,8,11,14-pentaoxapentadecane + trihexyl(tetradecyl)phosphonium 1,2,3-triazolide; phases: Liquid
Fixed: Pressure, kPa = 100
Property: Mass density, kg/m3 (Liquid); method: Vibrating tube method
Temperature, K	Mole fraction of trihexyl(tetradecyl)phosphonium 1,2,3-triazolide	Mass density, kg/m3	uncertainty
283.15	1	906.6	4
288.15	1	903.5	4
293.15	1	900.5	4
295.15	1	899.3	4
298.15	1	897.5	4
303.15	1	894.5	4
308.15	1	891.5	4
313.15	1	888.5	4
283.15	0.85	912.8	4
288.15	0.85	909.7	4
293.15	0.85	906.6	4
295.15	0.85	905.3	4
298.15	0.85	903.5	4
303.15	0.85	900.4	4
308.15	0.85	897.3	4
313.15	0.85	894.3	4
283.15	0.775	916.6	4
288.15	0.775	913.4	4
293.15	0.775	910.3	4
295.15	0.775	909	4
298.15	0.775	907.1	4
303.15	0.775	904	4
308.15	0.775	900.9	4
313.15	0.775	897.8	4
283.15	0.7	920.6	4
288.15	0.7	917.4	4
293.15	0.7	914.1	4
295.15	0.7	912.9	4
298.15	0.7	911	4
303.15	0.7	907.8	4
308.15	0.7	904.7	4
313.15	0.7	901.6	4
283.15	0.6	926.8	4
288.15	0.6	923.5	4
293.15	0.6	920.3	4
295.15	0.6	919	4
298.15	0.6	917	4
303.15	0.6	913.8	4
308.15	0.6	910.6	4
313.15	0.6	907.5	4
283.15	0.5	934.8	4
288.15	0.5	931.5	4
293.15	0.5	928.1	4
295.15	0.5	926.8	4
298.15	0.5	924.8	4
303.15	0.5	921.4	4
308.15	0.5	918	4
313.15	0.5	914.7	4
283.15	0.399	944.8	4
288.15	0.399	941.2	4
293.15	0.399	937.7	4
295.15	0.399	936.3	4
298.15	0.399	934.2	4
303.15	0.399	930.7	4
308.15	0.399	927.2	4
313.15	0.399	923.7	4
283.15	0.33	952.8	4
288.15	0.33	949.1	4
293.15	0.33	945.4	4
295.15	0.33	944	4
298.15	0.33	941.7	4
303.15	0.33	938.1	4
308.15	0.33	934.5	4
313.15	0.33	930.9	4
283.15	0.3	956.5	4
288.15	0.3	952.8	4
293.15	0.3	949.2	4
295.15	0.3	947.7	4
298.15	0.3	945.5	4
283.15	0.263	962	4
288.15	0.263	958.1	4
293.15	0.263	954.3	4
295.15	0.263	952.8	4
288.15	0.05	1000.8	4
293.15	0.05	996.4	4
295.15	0.05	994.6	4
283.15	0.04	1008.2	4
288.15	0.04	1003.7	4
293.15	0.04	999.2	4
295.15	0.04	997.5	4
283.15	0.019	1014.2	4
288.15	0.019	1009.6	4
293.15	0.019	1005.1	4
295.15	0.019	1003.3	4
298.15	0.019	1000.6	4
303.15	0.019	996.1	4
308.15	0.019	991.6	4
313.15	0.019	987.1	4
283.15	0	1020.3	4
288.15	0	1015.6	4
293.15	0	1011	4
295.15	0	1009.2	4
298.15	0	1006.4	4
303.15	0	1001.8	4
308.15	0	997.2	4
313.15	0	992.6	4
318.15	1	885.5	4
323.15	1	882.6	4
328.15	1	879.6	4
333.15	1	876.7	4
338.15	1	873.8	4
343.15	1	870.8	4
348.15	1	867.9	4
353.15	1	865	4
318.15	0.85	891.3	4
323.15	0.85	888.2	4
328.15	0.85	885.2	4
333.15	0.85	882.2	4
338.15	0.85	879.2	4
343.15	0.85	876.2	4
348.15	0.85	873.1	4
353.15	0.85	870.1	4
318.15	0.775	894.8	4
323.15	0.775	891.7	4
328.15	0.775	888.6	4
333.15	0.775	885.5	4
338.15	0.775	882.4	4
343.15	0.775	879.4	4
348.15	0.775	876.3	4
353.15	0.775	873.3	4
318.15	0.7	898.4	4
323.15	0.7	895.3	4
328.15	0.7	892.2	4
333.15	0.7	889	4
338.15	0.7	885.9	4
343.15	0.7	882.8	4
348.15	0.7	879.7	4
353.15	0.7	876.5	4
318.15	0.6	904.3	4
323.15	0.6	901.1	4
328.15	0.6	897.8	4
333.15	0.6	894.6	4
338.15	0.6	891.4	4
343.15	0.6	888.2	4
348.15	0.6	885	4
353.15	0.6	881.8	4
318.15	0.5	911.4	4
323.15	0.5	908	4
328.15	0.5	904.7	4
333.15	0.5	901.4	4
338.15	0.5	898.1	4
343.15	0.5	894.7	4
348.15	0.5	891.4	4
353.15	0.5	888.1	4
318.15	0.399	920.2	4
323.15	0.399	916.8	4
328.15	0.399	913.3	4
333.15	0.399	909.8	4
338.15	0.399	906.4	4
343.15	0.399	902.9	4
348.15	0.399	899.5	4
353.15	0.399	896	4
318.15	0.33	927.4	4
323.15	0.33	923.8	4
328.15	0.33	920.2	4
333.15	0.33	916.7	4
338.15	0.33	913.1	4
343.15	0.33	909.5	4
348.15	0.33	906	4
353.15	0.33	902.4	4
318.15	0.019	982.6	4
323.15	0.019	978.1	4
328.15	0.019	973.6	4
333.15	0.019	969.1	4
338.15	0.019	964.6	4
343.15	0.019	960.1	4
348.15	0.019	955.6	4
353.15	0.019	951.1	4
318.15	0	988	4
323.15	0	983.4	4
328.15	0	978.8	4
333.15	0	974.2	4
338.15	0	969.6	4
343.15	0	965	4
348.15	0	960.4	4
353.15	0	955.8	4

System: 2,5,8,11,14-pentaoxapentadecane + tributyl(dodecyl)phosphonium 1,2,3-triazolide; phases: Liquid
Fixed: Pressure, kPa = 100
Property: Viscosity, Pa*s (Liquid); method: Cone and plate viscometry
Temperature, K	Mole fraction of tributyl(dodecyl)phosphonium 1,2,3-triazolide	Viscosity, Pa*s	uncertainty
278.15	0.938	1.98	0.15
283.15	0.938	1.26	0.086
288.15	0.938	0.824	0.049
293.15	0.938	0.557	0.029
298.15	0.938	0.389	0.017
303.15	0.938	0.28	0.011
278.15	0.877	1.23	0.082
283.15	0.877	0.809	0.048
288.15	0.877	0.549	0.028
293.15	0.877	0.383	0.017
298.15	0.877	0.276	0.01
303.15	0.877	0.203	0.007
278.15	0.845	0.907	0.055
283.15	0.845	0.608	0.032
288.15	0.845	0.419	0.019
293.15	0.845	0.297	0.012
298.15	0.845	0.218	0.007
303.15	0.845	0.164	0.004
278.15	0.786	0.671	0.037
283.15	0.786	0.458	0.022
288.15	0.786	0.32	0.013
293.15	0.786	0.231	0.008
298.15	0.786	0.171	0.005
303.15	0.786	0.13	0.003
278.15	0.695	0.361	0.016
283.15	0.695	0.256	0.009
288.15	0.695	0.186	0.006
293.15	0.695	0.139	0.003
298.15	0.695	0.107	0.002
303.15	0.695	0.084	0.001
278.15	0.605	0.226	0.008
283.15	0.605	0.165	0.005
288.15	0.605	0.124	0.003
293.15	0.605	0.095	0.002
298.15	0.605	0.074	0.001
303.15	0.605	0.059	0.001
278.15	0.505	0.131	0.003
283.15	0.505	0.098	0.002
288.15	0.505	0.075	0.001
293.15	0.505	0.059	0.001
278.15	0.404	0.073	0.001
283.15	0.404	0.057	0.001

System: 2,5,8,11,14-pentaoxapentadecane + triethyloctylphosphonium 4-nitropyrazolide; phases: Liquid
Fixed: Pressure, kPa = 100
Property: Viscosity, Pa*s (Liquid); method: Cone and plate viscometry
Temperature, K	Mole fraction of triethyloctylphosphonium 4-nitropyrazolide	Viscosity, Pa*s	uncertainty
278.15	1	1.34	0.093
283.15	1	0.868	0.054
288.15	1	0.578	0.031
293.15	1	0.398	0.019
298.15	1	0.282	0.011
303.15	1	0.207	0.007
308.15	1	0.155	0.005
313.15	1	0.119	0.003
318.15	1	0.094	0.002
323.15	1	0.075	0.002
278.15	0.949	1.01	0.065
283.15	0.949	0.666	0.038
288.15	0.949	0.452	0.022
293.15	0.949	0.317	0.013
298.15	0.949	0.229	0.008
303.15	0.949	0.17	0.005
308.15	0.949	0.13	0.003
313.15	0.949	0.101	0.002
318.15	0.949	0.08	0.002
323.15	0.949	0.065	0.001
278.15	0.898	0.693	0.04
283.15	0.898	0.471	0.024
288.15	0.898	0.327	0.014
293.15	0.898	0.234	0.009
298.15	0.898	0.172	0.005
303.15	0.898	0.13	0.003
308.15	0.898	0.101	0.002
313.15	0.898	0.08	0.002
318.15	0.898	0.064	0.001
323.15	0.898	0.052	0.001
278.15	0.801	0.395	0.019
283.15	0.801	0.277	0.011
288.15	0.801	0.199	0.007
293.15	0.801	0.147	0.004
298.15	0.801	0.112	0.003
303.15	0.801	0.087	0.002
308.15	0.801	0.069	0.001
313.15	0.801	0.055	0.001
278.15	0.7	0.229	0.008
283.15	0.7	0.166	0.005
288.15	0.7	0.123	0.003
293.15	0.7	0.094	0.002
298.15	0.7	0.073	0.001
303.15	0.7	0.058	0.001
278.15	0.596	0.129	0.003
283.15	0.596	0.097	0.002
288.15	0.596	0.074	0.001
293.15	0.596	0.059	0.001
278.15	0.497	0.078	0.001
283.15	0.497	0.06	0.001

System: triethyloctylphosphonium 4-nitroimidazolide + 2,5,8,11,14-pentaoxapentadecane; phases: Liquid
Fixed: Pressure, kPa = 100
Property: Viscosity, Pa*s (Liquid); method: Cone and plate viscometry
Temperature, K	Mole fraction of triethyloctylphosphonium 4-nitroimidazolide	Viscosity, Pa*s	uncertainty
278.15	1	1.27	0.091
283.15	1	0.838	0.054
288.15	1	0.569	0.033
293.15	1	0.398	0.02
298.15	1	0.286	0.013
303.15	1	0.212	0.009
308.15	1	0.16	0.006
313.15	1	0.124	0.004
318.15	1	0.098	0.003
323.15	1	0.078	0.002
278.15	0.9	0.7	0.042
283.15	0.9	0.481	0.026
288.15	0.9	0.337	0.016
293.15	0.9	0.243	0.01
298.15	0.9	0.18	0.007
303.15	0.9	0.137	0.004
308.15	0.9	0.107	0.003
313.15	0.9	0.085	0.002
318.15	0.9	0.069	0.002
323.15	0.9	0.056	0.002
278.15	0.8	0.385	0.019
283.15	0.8	0.274	0.012
288.15	0.8	0.198	0.007
293.15	0.8	0.148	0.005
298.15	0.8	0.113	0.003
303.15	0.8	0.088	0.002
308.15	0.8	0.07	0.002
313.15	0.8	0.057	0.001
278.15	0.699	0.21	0.008
283.15	0.699	0.153	0.005
288.15	0.699	0.114	0.003
293.15	0.699	0.087	0.002
298.15	0.699	0.069	0.002
303.15	0.699	0.055	0.001
278.15	0.599	0.125	0.004
283.15	0.599	0.093	0.002
288.15	0.599	0.072	0.002
293.15	0.599	0.056	0.001
278.15	0.499	0.077	0.002
283.15	0.499	0.06	0.001

System: 2,5,8,11,14-pentaoxapentadecane + triethyloctylphosphonium 2-methyl-5-nitroimidazolide; phases: Liquid
Fixed: Pressure, kPa = 100
Property: Viscosity, Pa*s (Liquid); method: Cone and plate viscometry
Temperature, K	Mole fraction of triethyloctylphosphonium 2-methyl-5-nitroimidazolide	Viscosity, Pa*s	uncertainty
278.15	1	3.66	0.323
283.15	1	2.24	0.178
288.15	1	1.41	0.099
293.15	1	0.92	0.057
298.15	1	0.623	0.033
303.15	1	0.435	0.02
308.15	1	0.313	0.012
313.15	1	0.231	0.008
318.15	1	0.174	0.005
323.15	1	0.135	0.003
278.15	0.964	2.73	0.225
283.15	0.964	1.7	0.126
288.15	0.964	1.09	0.071
293.15	0.964	0.722	0.041
298.15	0.964	0.495	0.024
303.15	0.964	0.35	0.015
308.15	0.964	0.255	0.009
313.15	0.964	0.189	0.006
318.15	0.964	0.145	0.004
323.15	0.964	0.113	0.002
278.15	0.933	1.99	0.152
283.15	0.933	1.27	0.086
288.15	0.933	0.829	0.049
293.15	0.933	0.559	0.029
298.15	0.933	0.39	0.017
303.15	0.933	0.28	0.011
308.15	0.933	0.206	0.007
313.15	0.933	0.155	0.004
318.15	0.933	0.12	0.003
323.15	0.933	0.095	0.002
278.15	0.885	1.47	0.103
283.15	0.885	0.955	0.059
288.15	0.885	0.636	0.034
293.15	0.885	0.438	0.02
298.15	0.885	0.31	0.012
303.15	0.885	0.227	0.008
308.15	0.885	0.17	0.005
313.15	0.885	0.13	0.003
318.15	0.885	0.101	0.002
323.15	0.885	0.081	0.001
278.15	0.767	0.651	0.036
283.15	0.767	0.446	0.021
288.15	0.767	0.311	0.012
293.15	0.767	0.223	0.007
298.15	0.767	0.166	0.005
303.15	0.767	0.126	0.003
308.15	0.767	0.098	0.002
313.15	0.767	0.078	0.001
318.15	0.767	0.062	0.001
278.15	0.7	0.375	0.017
283.15	0.7	0.262	0.01
288.15	0.7	0.187	0.006
293.15	0.7	0.137	0.003
298.15	0.7	0.103	0.002
303.15	0.7	0.08	0.001
308.15	0.7	0.064	0.001
313.15	0.7	0.051	0.001
278.15	0.601	0.2	0.007
283.15	0.601	0.145	0.004
288.15	0.601	0.107	0.002
293.15	0.601	0.081	0.001
298.15	0.601	0.064	0.001
303.15	0.601	0.05	0.001
278.15	0.5	0.113	0.003
283.15	0.5	0.086	0.002
288.15	0.5	0.066	0.001
293.15	0.5	0.051	0.001
278.15	0.402	0.062	0.001

System: 1-but-1-enyl-2,3-dimethylimidazolium 4-nitropyrazolide + 2,5,8,11,14-pentaoxapentadecane; phases: Liquid
Fixed: Pressure, kPa = 100
Property: Viscosity, Pa*s (Liquid); method: Cone and plate viscometry
Temperature, K	Mole fraction of 1-but-1-enyl-2,3-dimethylimidazolium 4-nitropyrazolide	Viscosity, Pa*s	uncertainty
278.15	0.952	4.3	0.398
283.15	0.952	2.2	0.18
288.15	0.952	1.21	0.084
293.15	0.952	0.706	0.041
298.15	0.952	0.439	0.021
303.15	0.952	0.289	0.012
308.15	0.952	0.204	0.007
313.15	0.952	0.14	0.004
318.15	0.952	0.104	0.002
323.15	0.952	0.081	0.002
278.15	0.9	2.81	0.239
283.15	0.9	1.51	0.112
288.15	0.9	0.864	0.054
293.15	0.9	0.525	0.028
298.15	0.9	0.338	0.015
303.15	0.9	0.228	0.008
308.15	0.9	0.161	0.005
313.15	0.9	0.117	0.003
318.15	0.9	0.089	0.002
323.15	0.9	0.07	0.001
278.15	0.801	1.28	0.091
283.15	0.801	0.737	0.044
288.15	0.801	0.447	0.022
293.15	0.801	0.288	0.012
298.15	0.801	0.195	0.006
303.15	0.801	0.138	0.004
308.15	0.801	0.101	0.002
313.15	0.801	0.077	0.001
318.15	0.801	0.06	0.001
278.15	0.701	0.622	0.035
283.15	0.701	0.385	0.018
288.15	0.701	0.249	0.009
293.15	0.701	0.169	0.005
298.15	0.701	0.121	0.003
303.15	0.701	0.089	0.002
308.15	0.701	0.069	0.001
313.15	0.701	0.053	0.001
278.15	0.601	0.267	0.012
283.15	0.601	0.176	0.006
288.15	0.601	0.121	0.003
293.15	0.601	0.087	0.002
298.15	0.601	0.065	0.001
278.15	0.5	0.139	0.004
283.15	0.5	0.097	0.002
288.15	0.5	0.07	0.001
293.15	0.5	0.053	0.001
278.15	0.4	0.07	0.001
283.15	0.4	0.051	0.001

System: 2,5,8,11,14-pentaoxapentadecane + butyltriethylphosphonium 2-methyl-5-nitroimidazolide; phases: Liquid
Fixed: Pressure, kPa = 100
Property: Viscosity, Pa*s (Liquid); method: Cone and plate viscometry
Temperature, K	Mole fraction of butyltriethylphosphonium 2-methyl-5-nitroimidazolide	Viscosity, Pa*s	uncertainty
278.15	0.952	1.54	0.115
283.15	0.952	0.975	0.066
288.15	0.952	0.634	0.038
293.15	0.952	0.428	0.022
298.15	0.952	0.299	0.014
303.15	0.952	0.215	0.009
308.15	0.952	0.159	0.006
313.15	0.952	0.121	0.004
318.15	0.952	0.094	0.003
323.15	0.952	0.074	0.002
278.15	0.898	0.972	0.065
283.15	0.898	0.631	0.037
288.15	0.898	0.421	0.022
293.15	0.898	0.291	0.013
298.15	0.898	0.208	0.008
303.15	0.898	0.153	0.005
308.15	0.898	0.116	0.004
313.15	0.898	0.09	0.003
318.15	0.898	0.071	0.002
323.15	0.898	0.057	0.002
278.15	0.799	0.516	0.028
283.15	0.799	0.35	0.017
288.15	0.799	0.243	0.01
293.15	0.799	0.175	0.006
298.15	0.799	0.13	0.004
303.15	0.799	0.099	0.003
308.15	0.799	0.077	0.002
313.15	0.799	0.062	0.002
278.15	0.701	0.258	0.011
283.15	0.701	0.183	0.006
288.15	0.701	0.134	0.004
293.15	0.701	0.1	0.003
298.15	0.701	0.076	0.002
303.15	0.701	0.06	0.001
278.15	0.599	0.134	0.004
283.15	0.599	0.099	0.003
288.15	0.599	0.074	0.002
293.15	0.599	0.057	0.001
278.15	0.499	0.074	0.002
283.15	0.499	0.057	0.001

System: 2,5,8,11,14-pentaoxapentadecane + 1,2-dimethyl-3-propylimidazolium 4-nitropyrazolide; phases: Liquid
Fixed: Pressure, kPa = 100
Property: Viscosity, Pa*s (Liquid); method: Cone and plate viscometry
Temperature, K	Mole fraction of 1,2-dimethyl-3-propylimidazolium 4-nitropyrazolide	Viscosity, Pa*s	uncertainty
278.15	0.95	5.42	0.53
283.15	0.95	2.66	0.231
288.15	0.95	1.4	0.103
293.15	0.95	0.798	0.05
298.15	0.95	0.487	0.025
303.15	0.95	0.314	0.014
308.15	0.95	0.213	0.008
313.15	0.95	0.15	0.005
318.15	0.95	0.111	0.003
323.15	0.95	0.084	0.002
278.15	0.9	3.22	0.287
283.15	0.9	1.67	0.129
288.15	0.9	0.929	0.061
293.15	0.9	0.552	0.03
298.15	0.9	0.35	0.016
303.15	0.9	0.234	0.009
308.15	0.9	0.163	0.005
313.15	0.9	0.118	0.003
318.15	0.9	0.09	0.002
323.15	0.9	0.07	0.001
278.15	0.799	1.3	0.095
283.15	0.799	0.743	0.045
288.15	0.799	0.449	0.023
293.15	0.799	0.287	0.012
298.15	0.799	0.194	0.007
303.15	0.799	0.137	0.004
308.15	0.799	0.1	0.002
313.15	0.799	0.076	0.002
318.15	0.799	0.059	0.001
278.15	0.698	0.546	0.031
283.15	0.698	0.338	0.015
288.15	0.698	0.218	0.008
293.15	0.698	0.149	0.004
298.15	0.698	0.106	0.003
303.15	0.698	0.079	0.002
308.15	0.698	0.061	0.001
278.15	0.601	0.252	0.01
283.15	0.601	0.167	0.005
288.15	0.601	0.115	0.003
293.15	0.601	0.083	0.002
298.15	0.601	0.062	0.001
278.15	0.501	0.125	0.004
283.15	0.501	0.088	0.002
288.15	0.501	0.064	0.001
278.15	0.4	0.065	0.002

System: carbon dioxide + 2,5,8,11,14-pentaoxapentadecane + trihexyl(tetradecyl)phosphonium 1,2,3-triazolide; phases: Liquid, Gas
Fixed: Solvent: Mole fraction of trihexyl(tetradecyl)phosphonium 1,2,3-triazolide = 0.7
Property: Mole fraction of carbon dioxide (Liquid); method: Phase equilibration
Temperature, K	Pressure, kPa	Mole fraction of carbon dioxide	uncertainty
313.15	37	0.04	0.04
313.15	79	0.06	0.04
313.15	120	0.09	0.04
313.15	200	0.15	0.04
313.15	379	0.2	0.04
313.15	534	0.24	0.04
313.15	795	0.3	0.04
313.15	1231	0.38	0.04
313.15	1625	0.41	0.04
313.15	2005	0.45	0.04
313.15	2353	0.49	0.04
313.15	2682	0.52	0.04
333.3	40	0.05	0.04
333.3	82	0.06	0.04
333.3	123	0.08	0.04
333.3	200	0.12	0.04
333.3	383	0.16	0.04
333.3	538	0.2	0.04
333.3	800	0.25	0.04
333.3	1258	0.31	0.04
333.3	1639	0.34	0.04
333.3	2003	0.38	0.04
333.3	2360	0.41	0.04
333.3	2747	0.45	0.04
353.6	72	0.05	0.04
353.6	128	0.06	0.04
353.6	211	0.08	0.04
353.6	389	0.12	0.04
353.6	551	0.15	0.04
353.6	806	0.18	0.04
353.6	1244	0.24	0.04
353.6	1491	0.28	0.04

System: carbon dioxide + 2,5,8,11,14-pentaoxapentadecane + trihexyl(tetradecyl)phosphonium 1,2,4-triazolide; phases: Liquid, Gas
Fixed: Solvent: Mole fraction of trihexyl(tetradecyl)phosphonium 1,2,4-triazolide = 0.7
Property: Mole fraction of carbon dioxide (Liquid); method: Phase equilibration
Temperature, K	Pressure, kPa	Mole fraction of carbon dioxide	uncertainty
313.15	7	0.13	0.04
313.15	30	0.2	0.04
313.15	49	0.24	0.04
313.15	72	0.26	0.04
313.15	92	0.29	0.04
313.15	136	0.31	0.04
313.15	200	0.33	0.04
313.15	288	0.36	0.04
313.15	411	0.38	0.04
313.15	558	0.4	0.04
313.15	716	0.42	0.04
313.15	920	0.45	0.04
313.15	1120	0.47	0.04
313.15	1372	0.49	0.04
313.15	1702	0.52	0.04
313.15	2063	0.55	0.04
313.15	2533	0.58	0.04
313.15	3031	0.61	0.04
333.3	8	0.06	0.04
333.3	18	0.1	0.04
333.3	36	0.14	0.04
333.3	55	0.17	0.04
333.3	77	0.2	0.04
333.3	94	0.21	0.04
333.3	137	0.24	0.04
333.3	203	0.27	0.04
333.3	289	0.3	0.04
333.3	423	0.33	0.04
333.3	568	0.35	0.04
333.3	727	0.38	0.04
333.3	923	0.41	0.04
333.3	1131	0.43	0.04
333.3	1389	0.45	0.04
333.3	1715	0.47	0.04
333.3	2064	0.5	0.04
333.3	2540	0.53	0.04
333.3	3008	0.56	0.04
353.6	16	0.05	0.04
353.6	36	0.09	0.04
353.6	59	0.12	0.04
353.6	88	0.15	0.04
353.6	115	0.18	0.04
353.6	145	0.19	0.04
353.6	206	0.22	0.04
353.6	293	0.24	0.04
353.6	427	0.28	0.04
353.6	571	0.3	0.04
353.6	731	0.33	0.04
353.6	920	0.35	0.04
353.6	1138	0.37	0.04
353.6	1393	0.4	0.04
353.6	1708	0.42	0.04
353.6	2065	0.44	0.04
353.6	2535	0.47	0.04
353.6	3004	0.49	0.04

System: carbon dioxide + 2,5,8,11,14-pentaoxapentadecane; phases: Liquid, Gas
Property: Mole fraction of carbon dioxide (Liquid); method: Phase equilibration
Temperature, K	Pressure, kPa	Mole fraction of carbon dioxide	uncertainty
313.15	305	0.06	0.04
313.15	344	0.08	0.04
313.15	726	0.15	0.04
313.15	735	0.16	0.04
313.15	1130	0.22	0.04
313.15	1269	0.25	0.04
313.15	1612	0.29	0.04
313.15	1771	0.32	0.04
313.15	2190	0.37	0.04
313.15	2238	0.38	0.04
313.15	2775	0.44	0.04
313.15	3210	0.48	0.04
333.3	433	0.08	0.04
333.3	979	0.15	0.04
333.3	1512	0.22	0.04
333.3	2106	0.28	0.04
333.3	2730	0.34	0.04
333.3	3365	0.4	0.04
353.6	449	0.05	0.04
353.6	931	0.1	0.04
353.6	1419	0.15	0.04
353.6	1908	0.2	0.04
353.6	2548	0.25	0.04
353.6	3093	0.3	0.04

System: carbon dioxide + trihexyl(tetradecyl)phosphonium 1,2,3-triazolide; phases: Liquid, Gas
Property: Mole fraction of carbon dioxide (Liquid); method: Phase equilibration
Temperature, K	Pressure, kPa	Mole fraction of carbon dioxide	uncertainty
312.25	55	0.11	0.04
312.25	123	0.15	0.04
312.25	260	0.2	0.04
312.25	576	0.28	0.04
312.25	846	0.34	0.04
312.25	1275	0.41	0.04
312.25	1718	0.45	0.04
312.25	2036	0.49	0.04
312.25	2768	0.56	0.04
312.25	3377	0.6	0.04
333.15	86	0.07	0.04
333.15	230	0.12	0.04
333.15	412	0.17	0.04
333.15	640	0.24	0.04
333.15	974	0.3	0.04
333.15	1371	0.34	0.04
333.15	1908	0.4	0.04
333.15	2326	0.46	0.04
333.15	3134	0.52	0.04
353.3	132	0.06	0.04
353.3	375	0.12	0.04
353.3	749	0.18	0.04
353.3	1404	0.27	0.04
353.3	2120	0.36	0.04
353.3	2827	0.42	0.04
353.3	3358	0.47	0.04

System: carbon dioxide + trihexyl(tetradecyl)phosphonium 1,2,4-triazolide; phases: Liquid, Gas
Property: Mole fraction of carbon dioxide (Liquid); method: Phase equilibration
Temperature, K	Pressure, kPa	Mole fraction of carbon dioxide	uncertainty
313.15	5	0.16	0.01
313.15	15	0.25	0.01
313.15	31	0.31	0.01
313.15	61	0.35	0.01
313.15	123	0.4	0.01
313.15	243	0.44	0.01
313.15	369	0.47	0.01
313.15	504	0.48	0.01
313.15	695	0.51	0.01
313.15	1003	0.53	0.01
313.15	1509	0.57	0.01
333.15	6	0.1	0.01
333.15	16	0.17	0.01
333.15	31	0.22	0.01
333.15	61	0.28	0.01
333.15	94	0.31	0.01
333.15	121	0.33	0.01
333.15	243	0.38	0.01
333.15	502	0.44	0.01
333.15	696	0.47	0.01
333.15	1008	0.5	0.01
333.15	1516	0.54	0.01
