Measured thermophysical data. Measurement and Correlation of the Solubility of p-Coumaric Acid in Nine Pure and Water + Ethanol Mixed Solvents at Temperatures from 293.15 to 333.15 K
Source: J. Chem. Eng. Data, 2016, 10.1021/acs.jced.6b00361
Compound 1: 3-(4-hydroxyphenyl)-2-propenoic acid, C9H8O3, InChI=1S/C9H8O3/c10-8-4-1-7(2-5-8)3-6-9(11)12/h1-6,10H,(H,11,12), purity 99%
Compound 2: methanol, CH4O, InChI=1S/CH4O/c1-2/h2H,1H3, purity 99.7%
Compound 3: ethanol, C2H6O, InChI=1S/C2H6O/c1-2-3/h3H,2H2,1H3, purity 99.7%
Compound 4: propan-1-ol, C3H8O, InChI=1S/C3H8O/c1-2-3-4/h4H,2-3H2,1H3, purity 99.8%
Compound 5: propan-2-ol, C3H8O, InChI=1S/C3H8O/c1-3(2)4/h3-4H,1-2H3, purity 99.7%
Compound 6: butan-1-ol, C4H10O, InChI=1S/C4H10O/c1-2-3-4-5/h5H,2-4H2,1H3, purity 99.5%
Compound 7: 2-methyl-1-propanol, C4H10O, InChI=1S/C4H10O/c1-4(2)3-5/h4-5H,3H2,1-2H3, purity 99.5%
Compound 8: acetone, C3H6O, InChI=1S/C3H6O/c1-3(2)4/h1-2H3, purity 99.5%
Compound 9: methyl ethanoate, C3H6O2, InChI=1S/C3H6O2/c1-3(4)5-2/h1-2H3, purity 99.5%
Compound 10: ethyl acetate, C4H8O2, InChI=1S/C4H8O2/c1-3-6-4(2)5/h3H2,1-2H3, purity 99.5%
Compound 11: water, H2O, InChI=1S/H2O/h1H2, purity 99.9%

System: 3-(4-hydroxyphenyl)-2-propenoic acid; phases: Crystal, Liquid, Air at 1 atmosphere
Property: Normal melting temperature, K (Crystal); method: DTA
Normal melting temperature, K	uncertainty
494.3	0.5

System: 3-(4-hydroxyphenyl)-2-propenoic acid; phases: Crystal, Liquid, Air at 1 atmosphere
Property: Molar enthalpy of transition or fusion, kJ/mol (Crystal); method: DSC
Molar enthalpy of transition or fusion, kJ/mol	uncertainty
34.3	1

System: methanol + 3-(4-hydroxyphenyl)-2-propenoic acid; phases: Liquid, Crystal
Fixed: Pressure, kPa = 100
Property: Mole fraction of 3-(4-hydroxyphenyl)-2-propenoic acid (Liquid); method: Gravimetric
Temperature, K	Mole fraction of 3-(4-hydroxyphenyl)-2-propenoic acid	uncertainty
293.15	0.036	0.0014
298.15	0.0395	0.0016
303.15	0.0438	0.0018
308.15	0.0484	0.0019
313.15	0.053	0.0021
318.15	0.0573	0.0023
323.15	0.063	0.0025
328.15	0.0693	0.0028
333.15	0.0757	0.003

System: ethanol + 3-(4-hydroxyphenyl)-2-propenoic acid; phases: Liquid, Crystal
Fixed: Pressure, kPa = 100
Property: Mole fraction of 3-(4-hydroxyphenyl)-2-propenoic acid (Liquid); method: Gravimetric
Temperature, K	Mole fraction of 3-(4-hydroxyphenyl)-2-propenoic acid	uncertainty
293.15	0.0409	0.0016
298.15	0.0456	0.0018
303.15	0.0507	0.002
308.15	0.0552	0.0022
313.15	0.0614	0.0025
318.15	0.0666	0.0027
323.15	0.0725	0.0029
328.15	0.0785	0.0032
333.15	0.0861	0.0035

System: propan-1-ol + 3-(4-hydroxyphenyl)-2-propenoic acid; phases: Liquid, Crystal
Fixed: Pressure, kPa = 100
Property: Mole fraction of 3-(4-hydroxyphenyl)-2-propenoic acid (Liquid); method: Gravimetric
Temperature, K	Mole fraction of 3-(4-hydroxyphenyl)-2-propenoic acid	uncertainty
293.15	0.0334	0.0013
298.15	0.0373	0.0015
303.15	0.0429	0.0017
308.15	0.0478	0.0019
313.15	0.0525	0.0021
318.15	0.0588	0.0024
323.15	0.0652	0.0026
328.15	0.0714	0.0029
333.15	0.0791	0.0032

System: propan-2-ol + 3-(4-hydroxyphenyl)-2-propenoic acid; phases: Liquid, Crystal
Fixed: Pressure, kPa = 100
Property: Mole fraction of 3-(4-hydroxyphenyl)-2-propenoic acid (Liquid); method: Gravimetric
Temperature, K	Mole fraction of 3-(4-hydroxyphenyl)-2-propenoic acid	uncertainty
293.15	0.0294	0.0012
298.15	0.0331	0.0013
303.15	0.0373	0.0015
308.15	0.0417	0.0017
313.15	0.0462	0.0019
318.15	0.0511	0.0021
323.15	0.0562	0.0023
328.15	0.0617	0.0025
333.15	0.067	0.0027

System: butan-1-ol + 3-(4-hydroxyphenyl)-2-propenoic acid; phases: Liquid, Crystal
Fixed: Pressure, kPa = 100
Property: Mole fraction of 3-(4-hydroxyphenyl)-2-propenoic acid (Liquid); method: Gravimetric
Temperature, K	Mole fraction of 3-(4-hydroxyphenyl)-2-propenoic acid	uncertainty
293.15	0.0323	0.0013
298.15	0.0371	0.0015
303.15	0.0432	0.0018
308.15	0.0503	0.002
313.15	0.0582	0.0023
318.15	0.0647	0.0026
323.15	0.0731	0.0029
328.15	0.0823	0.0033
333.15	0.0924	0.0037

System: 2-methyl-1-propanol + 3-(4-hydroxyphenyl)-2-propenoic acid; phases: Liquid, Crystal
Fixed: Pressure, kPa = 100
Property: Mole fraction of 3-(4-hydroxyphenyl)-2-propenoic acid (Liquid); method: Gravimetric
Temperature, K	Mole fraction of 3-(4-hydroxyphenyl)-2-propenoic acid	uncertainty
293.15	0.0193	0.0008
298.15	0.0226	0.0009
303.15	0.0256	0.001
308.15	0.0295	0.0012
313.15	0.0332	0.0013
318.15	0.0371	0.0015
323.15	0.0425	0.0017
328.15	0.0483	0.0019
333.15	0.0535	0.0022

System: acetone + 3-(4-hydroxyphenyl)-2-propenoic acid; phases: Liquid, Crystal
Fixed: Pressure, kPa = 100
Property: Mole fraction of 3-(4-hydroxyphenyl)-2-propenoic acid (Liquid); method: Gravimetric
Temperature, K	Mole fraction of 3-(4-hydroxyphenyl)-2-propenoic acid	uncertainty
293.15	0.0383	0.0015
298.15	0.0428	0.0017
303.15	0.0468	0.0019
308.15	0.0516	0.0021
313.15	0.0574	0.0023
318.15	0.0619	0.0025
323.15	0.0685	0.0028
328.15	0.0756	0.003
333.15	0.0825	0.0033

System: methyl ethanoate + 3-(4-hydroxyphenyl)-2-propenoic acid; phases: Liquid, Crystal
Fixed: Pressure, kPa = 100
Property: Mole fraction of 3-(4-hydroxyphenyl)-2-propenoic acid (Liquid); method: Gravimetric
Temperature, K	Mole fraction of 3-(4-hydroxyphenyl)-2-propenoic acid	uncertainty
293.15	0.0146	0.0006
298.15	0.0176	0.0007
303.15	0.0205	0.0008
308.15	0.0244	0.001
313.15	0.0292	0.0012
318.15	0.034	0.0014
323.15	0.0394	0.0016
328.15	0.0457	0.0018
333.15	0.0519	0.0021

System: ethyl acetate + 3-(4-hydroxyphenyl)-2-propenoic acid; phases: Liquid, Crystal
Fixed: Pressure, kPa = 100
Property: Mole fraction of 3-(4-hydroxyphenyl)-2-propenoic acid (Liquid); method: Gravimetric
Temperature, K	Mole fraction of 3-(4-hydroxyphenyl)-2-propenoic acid	uncertainty
293.15	0.0113	0.0005
298.15	0.0128	0.0005
303.15	0.0144	0.0006
308.15	0.0162	0.0007
313.15	0.0183	0.0007
318.15	0.0205	0.0008
323.15	0.0229	0.0009
328.15	0.0256	0.001
333.15	0.0286	0.0012

System: ethanol + 3-(4-hydroxyphenyl)-2-propenoic acid + water; phases: Liquid, Crystal
Fixed: Pressure, kPa = 100
Property: Mole fraction of 3-(4-hydroxyphenyl)-2-propenoic acid (Liquid); method: Gravimetric
Solvent: Mass fraction of ethanol	Temperature, K	Mole fraction of 3-(4-hydroxyphenyl)-2-propenoic acid	uncertainty
0.1	293.15	0.0004	0.0001
0.1	298.15	0.0005	0.0001
0.1	303.15	0.0006	0.0001
0.1	308.15	0.0008	0.0001
0.1	313.15	0.0009	0.0001
0.1	318.15	0.0011	0.0001
0.1	323.15	0.0013	0.0001
0.1	328.15	0.0016	0.0001
0.1	333.15	0.0019	0.0001
0.2	293.15	0.001	0.0001
0.2	298.15	0.0012	0.0001
0.2	303.15	0.0014	0.0001
0.2	308.15	0.0017	0.0001
0.2	313.15	0.0021	0.0001
0.2	318.15	0.0025	0.0001
0.2	323.15	0.0029	0.0001
0.2	328.15	0.0034	0.0001
0.2	333.15	0.0041	0.0002
0.3	293.15	0.0021	0.0001
0.3	298.15	0.0025	0.0001
0.3	303.15	0.0029	0.0001
0.3	308.15	0.0035	0.0002
0.3	313.15	0.0041	0.0002
0.3	318.15	0.0048	0.0002
0.3	323.15	0.0056	0.0002
0.3	328.15	0.0065	0.0003
0.3	333.15	0.0075	0.0003
0.4	293.15	0.0044	0.0002
0.4	298.15	0.0051	0.0002
0.4	303.15	0.006	0.0002
0.4	308.15	0.0068	0.0003
0.4	313.15	0.0079	0.0003
0.4	318.15	0.0091	0.0004
0.4	323.15	0.0105	0.0004
0.4	328.15	0.012	0.0005
0.4	333.15	0.0136	0.0006
0.5	293.15	0.0085	0.0003
0.5	298.15	0.0098	0.0004
0.5	303.15	0.0111	0.0005
0.5	308.15	0.0127	0.0005
0.5	313.15	0.0145	0.0006
0.5	318.15	0.0164	0.0007
0.5	323.15	0.0188	0.0008
0.5	328.15	0.0213	0.0009
0.5	333.15	0.024	0.001
0.6	293.15	0.0159	0.0006
0.6	298.15	0.0179	0.0007
0.6	303.15	0.0206	0.0008
0.6	308.15	0.0234	0.0009
0.6	313.15	0.0265	0.0011
0.6	318.15	0.0296	0.0012
0.6	323.15	0.0331	0.0013
0.6	328.15	0.0368	0.0015
0.6	333.15	0.041	0.0016
0.7	293.15	0.0239	0.001
0.7	298.15	0.0269	0.0011
0.7	303.15	0.0302	0.0012
0.7	308.15	0.0337	0.0014
0.7	313.15	0.0375	0.0015
0.7	318.15	0.0415	0.0017
0.7	323.15	0.0458	0.0018
0.7	328.15	0.0504	0.002
0.7	333.15	0.0552	0.0022
0.8	293.15	0.0348	0.0014
0.8	298.15	0.0381	0.0015
0.8	303.15	0.0424	0.0017
0.8	308.15	0.0469	0.0019
0.8	313.15	0.0517	0.0021
0.8	318.15	0.0568	0.0023
0.8	323.15	0.0621	0.0025
0.8	328.15	0.0671	0.0027
0.8	333.15	0.0726	0.0029
0.9	293.15	0.0413	0.0017
0.9	298.15	0.0455	0.0018
0.9	303.15	0.0499	0.002
0.9	308.15	0.0546	0.0022
0.9	313.15	0.0596	0.0024
0.9	318.15	0.0649	0.0026
0.9	323.15	0.0706	0.0028
0.9	328.15	0.0749	0.003
0.9	333.15	0.082	0.0033
1	293.15	0.0409	0.0016
1	298.15	0.0456	0.0018
1	303.15	0.0507	0.002
1	308.15	0.0552	0.0022
1	313.15	0.0614	0.0025
1	318.15	0.0666	0.0027
1	323.15	0.0725	0.0029
1	328.15	0.0785	0.0032
1	333.15	0.0861	0.0035
