Measured thermophysical data. A New Test System for Distillation Efficiency Experiments at Elevated Liquid Viscosities: Vapor-Liquid Equilibrium and Liquid Viscosity Data for Cyclopentanol + Cyclohexanol
Source: J. Chem. Eng. Data, 2019, 10.1021/acs.jced.8b00929
Compound 1: cyclopentanol, C5H10O, InChI=1S/C5H10O/c6-5-3-1-2-4-5/h5-6H,1-4H2, purity 99.8%
Compound 2: cyclohexanol, C6H12O, InChI=1S/C6H12O/c7-6-4-2-1-3-5-6/h6-7H,1-5H2, purity 99.8%
Compound 3: cyclohexane, C6H12, InChI=1S/C6H12/c1-2-4-6-5-3-1/h1-6H2, purity 99.9%
Compound 4: heptane, C7H16, InChI=1S/C7H16/c1-3-5-7-6-4-2/h3-7H2,1-2H3, purity 99.6%

System: cyclopentanol; phases: Liquid, Gas
Property: Boiling temperature at pressure P, K (Liquid); method: Ebulliometric method (Recirculating still)
Pressure, kPa	Boiling temperature at pressure P, K	uncertainty
2	326.43	1.02
10	355.3	0.68
20	370.27	0.23
60	398.02	0.15
101.3	413.38	0.11

System: cyclopentanol; phases: Liquid
Fixed: Pressure, kPa = 100
Property: Viscosity, Pa*s (Liquid); method: Concentric cylinders viscometry
Temperature, K	Viscosity, Pa*s	uncertainty
303.15	0.0082	0.00017
308.15	0.00685	0.00017
313.15	0.00576	0.00017
318.16	0.00487	0.00016
323.16	0.00417	0.00016
328.15	0.00358	0.00016
333.16	0.00308	0.00016
338.16	0.00268	0.00016
343.16	0.00235	0.00016
348.16	0.00207	0.00016
353.16	0.00182	0.00016
358.16	0.00161	0.00016
363.16	0.00143	0.00016
368.17	0.00128	0.00016
373.15	0.00118	0.00016

System: cyclohexanol; phases: Liquid, Gas
Property: Boiling temperature at pressure P, K (Liquid); method: Ebulliometric method (Recirculating still)
Pressure, kPa	Boiling temperature at pressure P, K	uncertainty
2	341.68	1.07
10	372	0.71
20	387.67	0.24
60	417.16	0.16
101.3	433.73	0.12

System: cyclohexanol; phases: Liquid
Fixed: Pressure, kPa = 100
Property: Viscosity, Pa*s (Liquid); method: Concentric cylinders viscometry
Temperature, K	Viscosity, Pa*s	uncertainty
308.15	0.03366	0.00038
313.15	0.02552	0.00033
318.16	0.0195	0.00027
323.16	0.01504	0.00023
328.15	0.01184	0.0002
333.16	0.00948	0.00018
338.16	0.0076	0.00018
343.16	0.00608	0.00017
348.16	0.00498	0.00017
353.16	0.00408	0.00016
358.16	0.0034	0.00016
363.16	0.00286	0.00016
368.17	0.00247	0.00016
373.15	0.00215	0.00016

System: cyclohexane; phases: Liquid, Gas
Property: Vapor or sublimation pressure, kPa (Liquid); method: Ebulliometric method (Recirculating still)
Temperature, K	Vapor or sublimation pressure, kPa	uncertainty
353.82	101.3	0.2

System: heptane; phases: Liquid, Gas
Property: Vapor or sublimation pressure, kPa (Liquid); method: Ebulliometric method (Recirculating still)
Temperature, K	Vapor or sublimation pressure, kPa	uncertainty
370.97	101.3	0.2

System: cyclohexane + heptane; phases: Liquid, Gas
Fixed: Pressure, kPa = 101.3
Property: Boiling temperature at pressure P, K (Liquid); method: Ebulliometric method (Recirculating still)
Mole fraction of cyclohexane	Boiling temperature at pressure P, K	uncertainty
0	370.97	0.4
0.1192	368.67	0.42
0.2507	365.55	0.42
0.3498	363.57	0.42
0.418	362.17	0.41
0.515	360.95	0.41
0.5993	359.69	0.41
0.7535	357.05	0.41
0.8469	355.78	0.41
0.8804	355.19	0.41
1	353.82	0.4

System: cyclohexane + heptane; phases: Gas, Liquid
Fixed: Pressure, kPa = 101.3
Property: Mole fraction of cyclohexane (Gas); method: Chromatography
Mole fraction of cyclohexane	Mole fraction of cyclohexane	uncertainty
0	0	
0.1192	0.1879	0.0108
0.2507	0.3711	0.0102
0.3498	0.4798	0.0098
0.418	0.5543	0.009
0.515	0.634	0.009
0.5993	0.7181	0.008
0.7535	0.8263	0.0076
0.8469	0.9009	0.0076
0.8804	0.9236	0.0072
1	1	

System: cyclopentanol + cyclohexanol; phases: Liquid, Gas
Property: Boiling temperature at pressure P, K (Liquid); method: Ebulliometric method (Recirculating still)
Mole fraction of cyclopentanol	Pressure, kPa	Boiling temperature at pressure P, K	uncertainty
0	101.3	433.73	1.15
0.101	101.3	431.07	1.15
0.207	101.3	428.25	1.13
0.235	101.3	427.42	1.11
0.365	101.3	424.94	1.11
0.452	101.3	422.68	1.13
0.551	101.3	420.85	1.12
0.699	101.3	417.9	1.1
0.792	101.3	416.53	1.1
0.857	101.3	415.47	1.07
1	101.3	413.38	1.06
0	60	417.16	1.94
0.0794	60	415.22	1.96
0.1605	60	413.3	1.95
0.2666	60	410.6	1.85
0.3073	60	410	1.93
0.4512	60	406.72	1.9
0.5627	60	404.45	1.89
0.6371	60	403.5	1.9
0.7513	60	401.33	1.89
0.8695	60	399.86	1.86
1	60	398.02	1.83
0	10	372	10.72
0.1057	10	369.62	10.72
0.2041	10	367.5	10.73
0.3228	10	365.22	10.64
0.4264	10	363.5	10.59
0.4994	10	362.5	10.5
0.5669	10	361.19	10.49
0.6833	10	359.32	10.5
0.7625	10	358.14	2.89
0.8862	10	356.74	2.91
1	10	355.3	10.21
0	2	341.68	10.72
0.1011	2	339.45	10.7
0.1935	2	337.47	10.64
0.3189	2	335.3	10.58
0.4359	2	333.5	10.54
0.4936	2	332.77	10.57
0.5765	2	331.45	10.47
0.6851	2	329.65	10.4
0.7922	2	328.55	10.41
0.8452	2	327.47	10.37
1	2	326.43	10.21

System: cyclopentanol + cyclohexanol; phases: Gas, Liquid
Property: Mole fraction of cyclopentanol (Gas); method: Chromatography
Mole fraction of cyclopentanol	Pressure, kPa	Mole fraction of cyclopentanol	uncertainty
0	101.3	0	
0.101	101.3	0.188	0.012
0.207	101.3	0.357	0.011
0.235	101.3	0.389	0.01
0.365	101.3	0.533	0.01
0.452	101.3	0.643	0.009
0.551	101.3	0.726	0.008
0.699	101.3	0.84	0.007
0.792	101.3	0.888	0.007
0.857	101.3	0.924	0.007
1	101.3	1	
0	60	0	
0.0794	60	0.1415	0.0124
0.1605	60	0.283	0.012
0.2666	60	0.4551	0.011
0.3073	60	0.4817	0.0098
0.4512	60	0.6526	0.0094
0.5627	60	0.7621	0.008
0.6371	60	0.8007	0.0074
0.7513	60	0.8843	0.007
0.8695	60	0.9342	0.0066
1	60	1	
0	10	0	
0.1057	10	0.2085	0.0125
0.2041	10	0.3662	0.0109
0.3228	10	0.5153	0.0104
0.4264	10	0.6381	0.0092
0.4994	10	0.6946	0.0083
0.5669	10	0.7576	0.008
0.6833	10	0.8454	0.0073
0.7625	10	0.8854	0.0067
0.8862	10	0.9382	0.0067
1	10	1	
0	2	0	
0.1011	2	0.2199	0.0132
0.1935	2	0.375	0.011
0.3189	2	0.5347	0.01
0.4359	2	0.656	0.009
0.4936	2	0.717	0.008
0.5765	2	0.7839	0.0077
0.6851	2	0.858	0.007
0.7922	2	0.9108	0.0066
0.8452	2	0.9293	0.0066
1	2	1	

System: cyclopentanol + cyclohexanol; phases: Liquid
Fixed: Pressure, kPa = 100
Property: Viscosity, Pa*s (Liquid); method: Concentric cylinders viscometry
Temperature, K	Mole fraction of cyclopentanol	Viscosity, Pa*s	uncertainty
308.15	0	0.03366	0.00038
313.15	0	0.02552	0.00033
318.16	0	0.0195	0.00027
323.16	0	0.01504	0.00023
328.15	0	0.01184	0.0002
333.16	0	0.00948	0.00018
338.16	0	0.0076	0.00018
343.16	0	0.00608	0.00017
348.16	0	0.00498	0.00017
353.16	0	0.00408	0.00016
358.16	0	0.0034	0.00016
363.16	0	0.00286	0.00016
368.17	0	0.00247	0.00016
373.15	0	0.00215	0.00016
303.15	0.1	0.03492	0.00036
308.15	0.1	0.02786	0.00034
313.15	0.1	0.02132	0.00029
318.16	0.1	0.01648	0.00024
323.16	0.1	0.01292	0.00021
328.15	0.1	0.01027	0.00019
333.16	0.1	0.00826	0.00018
338.16	0.1	0.00673	0.00017
343.16	0.1	0.00554	0.00017
348.16	0.1	0.00461	0.00016
353.16	0.1	0.00388	0.00016
358.16	0.1	0.00329	0.00016
363.16	0.1	0.00281	0.00016
368.17	0.1	0.00244	0.00016
373.15	0.1	0.00213	0.00016
303.15	0.3	0.02318	0.0003
308.15	0.3	0.01917	0.00025
313.15	0.3	0.01513	0.00023
318.16	0.3	0.01196	0.0002
323.16	0.3	0.00964	0.00018
328.15	0.3	0.00791	0.00018
333.16	0.3	0.00648	0.00017
338.16	0.3	0.0054	0.00017
343.16	0.3	0.00451	0.00016
348.16	0.3	0.00385	0.00016
353.16	0.3	0.00329	0.00016
358.16	0.3	0.00283	0.00016
363.16	0.3	0.00246	0.00016
368.17	0.3	0.00213	0.00016
373.15	0.3	0.00189	0.00016
303.15	0.5	0.01654	0.00023
308.15	0.5	0.01378	0.0002
313.15	0.5	0.01111	0.00019
318.16	0.5	0.00904	0.00018
323.16	0.5	0.00741	0.00017
328.15	0.5	0.00614	0.00017
333.16	0.5	0.00514	0.00017
338.16	0.5	0.00434	0.00016
343.16	0.5	0.0037	0.00016
348.16	0.5	0.00317	0.00016
353.16	0.5	0.00273	0.00016
358.16	0.5	0.00237	0.00016
363.16	0.5	0.00208	0.00016
368.17	0.5	0.00185	0.00016
373.15	0.5	0.00163	0.00016
303.15	0.7	0.01251	0.00019
308.15	0.7	0.01067	0.00018
313.15	0.7	0.00878	0.00018
318.16	0.7	0.0072	0.00017
323.16	0.7	0.00601	0.00017
328.15	0.7	0.00511	0.00017
333.16	0.7	0.00428	0.00016
338.16	0.7	0.00365	0.00016
343.16	0.7	0.00314	0.00016
348.16	0.7	0.00275	0.00016
353.16	0.7	0.00238	0.00016
358.16	0.7	0.00208	0.00016
363.16	0.7	0.00184	0.00016
368.17	0.7	0.00161	0.00016
373.15	0.7	0.00146	0.00016
303.15	0.9	0.0092	0.00018
308.15	0.9	0.00788	0.00017
313.15	0.9	0.00657	0.00017
318.16	0.9	0.00549	0.00017
323.16	0.9	0.00465	0.00016
328.15	0.9	0.00396	0.00016
333.16	0.9	0.00339	0.00016
338.16	0.9	0.00292	0.00016
343.16	0.9	0.00254	0.00016
348.16	0.9	0.00223	0.00016
353.16	0.9	0.00196	0.00016
358.16	0.9	0.00174	0.00016
363.16	0.9	0.00155	0.00016
368.17	0.9	0.0014	0.00016
373.15	0.9	0.00125	0.00016
303.15	1	0.0082	0.00017
308.15	1	0.00685	0.00017
313.15	1	0.00576	0.00017
318.16	1	0.00487	0.00016
323.16	1	0.00417	0.00016
328.15	1	0.00358	0.00016
333.16	1	0.00308	0.00016
338.16	1	0.00268	0.00016
343.16	1	0.00235	0.00016
348.16	1	0.00207	0.00016
353.16	1	0.00182	0.00016
358.16	1	0.00161	0.00016
363.16	1	0.00143	0.00016
368.17	1	0.00128	0.00016
373.15	1	0.00118	0.00016
