Measured thermophysical data. Speed of Sound Measurement in 1-Methoxy-2-propanol from (306.81 to 648.29) K and up to 10 MPa
Source: J. Chem. Eng. Data, 2019, 10.1021/acs.jced.8b00845
Compound 1: 1-methoxy-2-propanol, C4H10O2, InChI=1S/C4H10O2/c1-4(5)3-6-2/h4-5H,3H2,1-2H3, purity 99.7%

System: 1-methoxy-2-propanol; phases: Liquid, Gas
Property: Speed of sound, m/s (Liquid); method: Brillouin light scattering
Temperature, K	Speed of sound, m/s	uncertainty
412.24	828.2	18.2
434.19	744.5	15.6
453.43	670.7	13.4
479.45	572.3	10.9
500.92	486.9	8.8
524.99	384.1	6.5
542.86	304.1	4.9
553.7	260.7	4.2
558.23	231.8	3.5
563.74	204.2	3.1
570.21	158.1	2.4
573.29	138.7	2.1
577.92	104.8	1.6

System: 1-methoxy-2-propanol; phases: Gas, Liquid
Property: Speed of sound, m/s (Gas); method: Brillouin light scattering
Temperature, K	Speed of sound, m/s	uncertainty
412.88	273.9	4.4
434.16	257.5	4.1
452.85	242.1	3.9
478.87	218.7	3.3
501.13	197.1	3
524.3	173	2.6
542.95	152.2	2.3
553.72	141.6	2.1
558.52	133.8	2
564.83	126.1	1.9
569.07	120.5	1.8
572.01	116.5	1.8
578.57	105.7	1.6

System: 1-methoxy-2-propanol; phases: Liquid, Gas
Property: Vapor or sublimation pressure, kPa (Liquid); method: Closed cell (Static) method
Temperature, K	Vapor or sublimation pressure, kPa	uncertainty
412.24	150	200
434.19	300	200
453.43	480	200
479.45	810	200
500.92	1230	200
524.99	1860	200
542.86	2410	200
553.7	2820	200
558.23	3040	200
563.74	3510	200
570.21	3830	200
573.29	4140	200
577.92	4400	200
412.88	160	200
434.16	290	200
452.85	470	200
478.87	810	200
501.13	1230	200
524.3	1850	200
542.95	2410	200
553.72	2820	200
558.52	3030	200
564.83	3530	200
569.07	3830	200
572.01	4140	200
578.57	4410	200

System: 1-methoxy-2-propanol; phases: Liquid
Property: Speed of sound, m/s (Liquid); method: Brillouin light scattering
Temperature, K	Pressure, kPa	Speed of sound, m/s	uncertainty
306.85	100	1231.3	37
327.49	100	1157.7	33.6
347.53	100	1079.8	30.3
373.76	100	984.6	25.6
389.48	100	922.8	24
307.08	2000	1240.7	38.5
328.31	2000	1159.7	33.6
347.86	2000	1089.8	30.5
372.49	2000	999.4	27
388.94	2000	935.6	24.4
412.81	2000	840.6	20.2
430.51	2000	774.5	17.9
454.46	2000	686	15.3
481.15	2000	584.3	12.6
506.01	2000	473.6	10.3
524.77	2000	384.8	8.8
307.08	4000	1251.1	38.8
328.12	4000	1173.9	34.1
347.91	4000	1100.1	30.9
388.21	5000	961.7	25
412.72	5000	867.8	21.7
431.39	5000	804.5	19.4
454.51	5000	718.4	16.6
479.35	5000	631.2	14
506.89	5000	528.3	11.1
524.2	5000	459.2	10.3
541.77	5000	380.1	8.9
306.94	6000	1260	39.1
328.38	6000	1181.3	35.5
348.27	6000	1114.7	31.2
374.51	6000	1016.6	27.5
388.51	6000	968.9	25.2
412.64	6000	871.5	21.8
431.82	6000	808.7	19.4
455.14	6000	725.1	16.8
480.1	6000	639.4	14.3
507.39	6000	540.2	11.7
525.63	6000	474	10
374.38	4000	1004.3	27.1
388.6	4000	954.8	24.9
412.68	4000	857.4	21.5
431.93	4000	789.5	19
454.44	4000	711.3	16.5
476.94	4000	626.2	14
506.37	4000	509.1	10.8
522.4	4000	445	10
540.69	4000	359.3	8.3
307.04	4500	1253.5	38.9
328.88	4500	1176.9	35.3
347.92	4500	1105.7	31
374.52	4500	1006	27.2
388.38	4500	960.4	25
412.71	4500	863.9	21.7
432.21	4500	791.9	19.2
454.2	4500	714.4	16.5
478.67	4500	631	14.2
506.81	4500	515.7	11.2
522	4500	454.3	9.3
539.7	6000	414.8	9.2
306.89	8000	1268.8	39.4
328.95	8000	1195.3	35.9
348.44	8000	1120.3	32.5
374.6	8000	1030	27.9
388.36	8000	982.7	25.6
412.76	8000	890.3	22.3
431.7	8000	820.8	19.8
455.54	8000	743.3	17.2
478.83	8000	667.7	14.9
508.45	8000	566.7	12.2
524.18	8000	508.5	10.6
540.36	8000	456.3	9.9
306.81	10000	1284.2	39.8
329.19	10000	1202.9	36.1
351.77	10000	1124.8	32.7
374.22	10000	1051.8	29.5
388.73	10000	996.8	27
412.76	10000	906.3	22.8
431.58	10000	848.9	20.5
540.07	4500	374.1	8.8
306.99	5000	1256.1	38.9
328.89	5000	1178.4	35.4
348.2	5000	1110.2	31.1
374.29	5000	1007.9	27.2
457.02	10000	759.2	17.6
480.18	10000	683.7	15.2
507.92	10000	592.8	12.7
524.03	10000	538.8	11.7
541.55	10000	484.9	10.2

System: 1-methoxy-2-propanol; phases: Fluid (supercritical or subcritical phases)
Property: Speed of sound, m/s (Fluid (supercritical or subcritical phases)); method: Brillouin light scattering
Temperature, K	Pressure, kPa	Speed of sound, m/s	uncertainty
551.23	4500	314.2	7.3
556.97	4500	282.7	7.5
564.22	4500	247.6	8.3
568.5	4500	220.1	9.5
573.31	4500	176	15.3
577.72	4500	127.4	3.3
581.87	4500	145.6	7.9
587.5	4500	155.3	19.6
596.65	4500	168	16.8
605.83	4500	183.4	16.6
627.77	4500	227	22.2
648.22	4500	316.7	14.1
551.41	5000	326.4	8.1
555.33	5000	307.5	8.5
562.82	5000	270.6	8.4
567.82	5000	243.5	8.1
574.15	5000	202.4	9.9
577.95	5000	155.3	14.5
580.58	5000	118.9	9.1
580.29	6000	207	10.5
588.14	6000	163.8	10.3
596.04	6000	132.9	6.8
606.97	6000	132.7	2.9
629.04	6000	171.8	3.5
647.4	6000	260.4	4.8
553.35	8000	405.1	8.2
558.48	8000	388.2	8.4
562.63	8000	365.4	7.7
569.03	8000	342.6	7.9
574.53	8000	320.1	7.9
579.92	8000	291.6	8.2
584.24	8000	271.7	8.6
589.8	8000	252	8.6
596.55	8000	218	8.3
608.15	8000	172.4	6
628.94	8000	160.3	2.7
646.36	8000	236.9	3.7
553.33	10000	443.7	8.5
588.1	5000	106.7	3.6
595.66	5000	125.9	3.5
605.37	5000	142.9	6.4
629.23	5000	193.6	8.4
648.29	5000	284.1	7.9
551.75	6000	357.2	8.1
555.57	6000	341	8
561.75	6000	313.4	8
566.52	6000	285.1	8.4
572.2	6000	256.5	9
579.26	6000	212.6	9.1
557.57	10000	436.8	8.5
561.36	10000	416.4	8.6
567.77	10000	393.6	8.1
574.25	10000	366.9	7.4
579.21	10000	346.6	7.6
579.85	10000	343.5	7.5
591.13	10000	303	7.3
597.96	10000	276.3	7.8
608.35	10000	238.7	8
627.6	10000	191.8	6.1
641.59	10000	217	3.5
