Measured thermophysical data. A Low-Temperature Thermodynamic Model for the Na-K-Ca-Mg-Cl System Incorporating New Experimental Heat Capacities in KCl, MgCl2, and CaCl2 Solutions
Source: J. Chem. Eng. Data, 2017, 10.1021/acs.jced.6b00812
Compound 1: potassium chloride, ClK, InChI=1S/ClH.K/h1H;/q;+1/p-1, purity 99%
Compound 2: calcium chloride, CaCl2, InChI=1S/Ca.2ClH/h;2*1H/q+2;;/p-2, purity 99%
Compound 3: magnesium chloride, Cl2Mg, InChI=1S/2ClH.Mg/h2*1H;/q;;+2/p-2, purity 99%
Compound 4: water, H2O, InChI=1S/H2O/h1H2, purity 99.8%

System: potassium chloride + water; phases: Liquid
Fixed: Pressure, kPa = 100
Property: Molar heat capacity at constant pressure, J/K/mol (Liquid); method: Small sample (50 mg) DSC
Temperature, K	Molality, mol/kg of potassium chloride	Molar heat capacity at constant pressure, J/K/mol	uncertainty
298.15	0.53	73.8289332105359	1.85499832187276
298.15	0.97	72.717390551042	1.70876374663023
298.15	1.41	71.6442993113383	1.74742193442289
298.15	1.86	70.8583656817817	1.78634535332223
298.15	2.34	70.0425209199165	1.62417439814299
298.15	2.79	69.4150866521668	1.65767371109652
298.15	3.25	68.7126015737844	1.69138711566238
298.15	3.72	68.1490556181155	1.72529254729406
298.15	4.15	67.6000112611547	1.75584444834168
298.15	4.62	67.0776955338207	1.56514622912248
288.15	0.53	73.8289332105359	1.85499832187276
288.15	0.97	72.717390551042	1.70876374663023
288.15	1.41	71.6442993113383	1.74742193442289
288.15	1.86	70.6598828647459	1.78634535332223
288.15	2.34	69.8394991201487	1.62417439814299
288.15	2.79	69.2078774382797	1.65767371109652
288.15	3.25	68.7126015737844	1.69138711566238
288.15	3.72	67.9333940497038	1.72529254729406
288.15	4.15	67.6000112611547	1.75584444834168
288.15	4.62	67.0776955338207	1.56514622912248
278.15	0.53	73.8289332105359	1.85499832187276
278.15	0.97	72.717390551042	1.70876374663023
278.15	1.41	71.6442993113383	1.74742193442289
278.15	1.86	70.6598828647459	1.78634535332223
278.15	2.34	69.8394991201487	1.62417439814299
278.15	2.79	69.0006682243927	1.65767371109652
278.15	3.25	68.5011781843266	1.69138711566238
278.15	3.72	67.9333940497038	1.72529254729406
278.15	4.15	67.380530705112	1.75584444834168
278.15	4.62	66.8541032153746	1.56514622912248
268.15	0.53	74.1999328749104	1.85499832187276
268.15	0.97	72.717390551042	1.70876374663023
268.15	1.41	71.4501413186247	1.74742193442289
268.15	1.86	70.4614000477101	1.78634535332223
268.15	2.34	69.6364773203808	1.62417439814299
268.15	2.79	68.7934590105056	1.65767371109652
268.15	3.25	68.2897547948688	1.69138711566238
268.15	3.72	67.717732481292	1.72529254729406
268.15	4.15	67.1610501490693	1.75584444834168
268.15	4.62	66.6305108969286	1.56514622912248
258.15	0.53	74.7564323714722	1.85499832187276
258.15	0.97	72.9072531895565	1.70876374663023
258.15	1.41	71.4501413186247	1.74742193442289
258.15	1.86	70.2629172306743	1.78634535332223
258.15	2.34	69.4334555206129	1.62417439814299
258.15	2.79	68.5862497966185	1.65767371109652
258.15	3.25	68.078331405411	1.69138711566238
258.15	3.72	67.2864093444685	1.72529254729406
258.15	4.15	66.9415695930266	1.53636389229897
248.15	1.86	70.0644344136385	1.78634535332223
248.15	2.79	68.1718313688444	1.65767371109652
248.15	3.25	67.4440612370376	1.69138711566238
248.15	3.72	66.855086207645	1.72529254729406
248.15	4.15	66.5026084809411	1.53636389229897
238.15	4.15	65.844166812813	1.53636389229897

System: water + calcium chloride; phases: Liquid
Fixed: Pressure, kPa = 100
Property: Molar heat capacity at constant pressure, J/K/mol (Liquid); method: Small sample (50 mg) DSC
Temperature, K	Molality, mol/kg of calcium chloride	Molar heat capacity at constant pressure, J/K/mol	uncertainty
298.15	0.49	72.8673545415579	1.88287737833483
298.15	1.17	70.3684308854293	1.79409597158318
298.15	1.83	68.6125416520401	1.67859429118141
298.15	2.51	67.4340681177133	1.76298217301211
298.15	3.14	66.9088563919151	1.60949139087081
298.15	3.8	66.6419310083306	1.67803423402271
298.15	4.41	67.1158941259525	1.74004169956173
298.15	5.1	67.6961909116597	1.55029444835862
298.15	5.76	68.4939450274455	1.60532683658075
298.15	6.39	68.7556635558145	1.65676297724854
288.15	0.49	72.6790668037244	1.88287737833483
288.15	1.17	69.9697428917442	1.79409597158318
288.15	1.83	68.1928930792447	1.67859429118141
288.15	2.51	66.9933225744603	1.5426094013856
288.15	3.14	66.2190743672562	1.60949139087081
288.15	3.8	66.1624926557527	1.67803423402271
288.15	4.41	66.3701619689975	1.74004169956173
288.15	5.1	67.1794260955402	1.55029444835862
288.15	5.76	67.9588360819186	1.60532683658075
288.15	6.39	68.203409230065	1.65676297724854
278.15	0.49	72.6790668037244	1.88287737833483
278.15	1.17	69.7703988949016	1.79409597158318
278.15	1.83	67.7732445064493	1.67859429118141
278.15	2.51	66.5525770312072	1.5426094013856
278.15	3.14	65.7592196841503	1.60949139087081
278.15	3.8	65.6830543031748	1.67803423402271
278.15	4.41	65.8730071976941	1.74004169956173
278.15	5.1	66.6626612794207	1.55029444835862
278.15	5.76	67.4237271363917	1.60532683658075
278.15	6.39	67.9272820671902	1.65676297724854
268.15	0.49	72.490779065891	1.88287737833483
268.15	1.17	69.3717109012164	1.79409597158318
268.15	1.83	67.1437716472563	1.67859429118141
268.15	2.51	65.8914587163277	1.5426094013856
268.15	3.14	65.2993650010443	1.60949139087081
268.15	3.8	65.2036159505968	1.67803423402271
268.15	4.41	65.3758524263908	1.49146431391006
268.15	5.1	65.8875140552414	1.55029444835862
268.15	5.76	66.6210637181013	1.60532683658075
258.15	0.49	72.6790668037244	1.88287737833483
258.15	1.17	68.7736789106887	1.79409597158318
258.15	1.83	66.5142987880633	1.67859429118141
258.15	2.51	65.2303404014481	1.5426094013856
258.15	3.14	64.6095829763854	1.60949139087081
258.15	3.8	64.48445842173	1.67803423402271
258.15	4.41	64.6301202694358	1.49146431391006
258.15	5.1	65.3707492391218	1.55029444835862
258.15	5.76	66.0859547725744	1.60532683658075
248.15	1.17	68.175646920161	1.59475197474061
248.15	1.83	65.6750016424726	1.67859429118141
248.15	2.51	64.3488493149421	1.5426094013856
248.15	3.14	63.9198009517265	1.60949139087081
248.15	3.8	63.7653008928631	1.67803423402271
248.15	4.41	64.1329654981324	1.49146431391006
248.15	5.1	64.5956020149425	1.55029444835862
238.15	2.51	63.467358228436	1.5426094013856
238.15	3.14	63.0000915855146	1.60949139087081
238.15	3.8	63.0461433639962	1.43831505773375
238.15	4.41	63.3872333411774	1.49146431391006
238.15	5.1	64.078837198823	1.55029444835862
228.15	3.14	62.0803822193027	1.60949139087081
228.15	3.8	62.0872666588404	1.43831505773375
228.15	4.41	62.6415011842224	1.49146431391006
218.15	3.8	61.3681091299735	1.43831505773375
218.15	4.41	61.8957690272673	1.49146431391006
208.15	3.8	60.4092324248177	1.43831505773375
208.15	4.41	61.1500368703123	1.49146431391006
198.15	3.8	59.4503557196618	1.43831505773375
198.15	4.41	60.4043047133573	1.49146431391006
188.15	3.8	58.491479014506	1.43831505773375
188.15	4.41	59.6585725564022	1.49146431391006
178.15	3.8	57.7723214856391	1.43831505773375
178.15	4.41	59.1614177850989	1.49146431391006
168.15	3.8	56.8134447804833	1.43831505773375
168.15	4.41	58.4156856281439	1.49146431391006

System: water + magnesium chloride; phases: Liquid
Fixed: Pressure, kPa = 100
Property: Molar heat capacity at constant pressure, J/K/mol (Liquid); method: Small sample (50 mg) DSC
Temperature, K	Molality, mol/kg of magnesium chloride	Molar heat capacity at constant pressure, J/K/mol	uncertainty
298.15	0.58	72.4321300589733	1.69321862475522
298.15	1.12	70.5467965858633	1.75878440241764
298.15	1.67	68.7149732809923	1.62159228981693
298.15	2.19	67.4438517188985	1.67562364519002
298.15	2.74	66.4548470463392	1.73172239860167
298.15	3.36	65.4702010072878	1.56949112003772
298.15	3.88	64.7947693034208	1.61410457339482
298.15	4.46	64.1424714991565	1.66295296479295
298.15	5.04	63.5464331600535	1.46645614984739
298.15	5.63	63.5634100322046	1.50743264898509
288.15	0.58	72.4321300589733	1.69321862475522
288.15	1.12	70.1559556075482	1.75878440241764
288.15	1.67	68.3095752085381	1.62159228981693
288.15	2.19	67.2343987632497	1.67562364519002
288.15	2.74	66.0219164466887	1.73172239860167
288.15	3.36	65.0217749729913	1.56949112003772
288.15	3.88	64.3335965681651	1.61410457339482
288.15	4.46	63.6673420806442	1.66295296479295
288.15	5.04	63.3020238017456	1.46645614984739
288.15	5.63	63.0609324825428	1.50743264898509
278.15	0.58	72.2439946562227	1.69321862475522
278.15	1.12	69.9605351183907	1.75878440241764
278.15	1.67	67.9041771360839	1.62159228981693
278.15	2.19	66.6060398963035	1.67562364519002
278.15	2.74	65.5889858470383	1.51525709877646
278.15	3.36	64.5733489386948	1.56949112003772
278.15	3.88	63.8724238329095	1.61410457339482
278.15	4.46	63.1922126621319	1.66295296479295
278.15	5.04	62.8132050851298	1.46645614984739
278.15	5.63	62.5584549328812	1.50743264898509
268.15	0.58	72.2439946562227	1.69321862475522
268.15	1.12	69.5696941400757	1.75878440241764
268.15	1.67	67.4987790636296	1.62159228981693
268.15	2.19	66.1871339850059	1.67562364519002
268.15	2.74	65.1560552473879	1.51525709877646
268.15	3.36	64.1249229043984	1.56949112003772
268.15	3.88	63.4112510976538	1.61410457339482
268.15	4.46	62.7170832436196	1.66295296479295
268.15	5.04	62.0799770102061	1.46645614984739
268.15	5.63	62.0559773832194	1.50743264898509
258.15	0.58	72.2439946562227	1.69321862475522
258.15	1.12	68.9834326726032	1.75878440241764
258.15	1.67	66.6879829187212	1.62159228981693
258.15	2.19	65.3493221624109	1.67562364519002
258.15	2.74	64.2901940480871	1.51525709877646
258.15	3.36	63.2280708358054	1.56949112003772
258.15	3.88	62.4889056271425	1.61410457339482
258.15	4.46	62.0043891158512	1.42538825553681
258.15	5.04	61.5911582935903	1.46645614984739
258.15	5.63	61.3022610587269	1.50743264898509
248.15	1.12	68.5925916942881	1.75878440241764
248.15	1.67	65.8771867738127	1.62159228981693
248.15	2.19	64.3020573841672	1.67562364519002
248.15	2.74	63.4243328487862	1.51525709877646
248.15	3.36	62.3312187672124	1.56949112003772
248.15	3.88	61.797146524259	1.61410457339482
248.15	4.46	61.2916949880828	1.42538825553681
248.15	5.04	60.6135208603587	1.46645614984739
248.15	5.63	60.5485447342344	1.50743264898509
238.15	1.67	65.0663906289042	1.62159228981693
238.15	2.19	63.4642455615721	1.46617068954127
238.15	2.74	62.3420063496602	1.51525709877646
238.15	3.36	61.4343666986194	1.56949112003772
238.15	3.88	60.8748010537476	1.61410457339482
238.15	4.46	60.3414361510583	1.42538825553681
238.15	5.04	59.880292785435	1.46645614984739
238.15	5.63	59.543589634911	1.50743264898509
228.15	2.19	61.9980748720309	1.46617068954127
228.15	2.74	61.0432145507089	1.51525709877646
228.15	3.36	60.0890885957299	1.56949112003772
228.15	3.88	59.4912828479807	1.38351820576699
228.15	4.46	59.1536126047776	1.42538825553681
228.15	5.04	58.6582459938955	1.46645614984739
228.15	5.63	58.5386345355876	1.50743264898509
218.15	3.36	58.7438104928405	1.34527810288948
218.15	3.88	58.3383510098415	1.38351820576699
218.15	4.46	57.9657890584969	1.42538825553681
218.15	5.04	57.6806085606639	1.46645614984739
218.15	5.63	57.2824406614334	1.50743264898509
208.15	3.36	57.1743193728027	1.34527810288948
208.15	3.88	56.7242464364467	1.38351820576699
208.15	4.46	56.5404008029601	1.42538825553681
198.15	3.36	55.3806152356168	1.34527810288948
198.15	3.88	55.1101418630518	1.38351820576699
198.15	4.46	54.8774478381672	1.42538825553681
188.15	3.36	53.3626980812825	1.34527810288948
188.15	3.88	53.2654509220292	1.38351820576699
188.15	4.46	53.2144948733742	1.42538825553681
178.15	3.36	51.3447809269483	1.34527810288948
178.15	3.88	51.4207599810065	1.15293183813916
178.15	4.46	51.5515419085813	1.18782354628067
168.15	3.36	49.3268637726141	1.12106508574123
168.15	3.88	49.345482672356	1.15293183813916
