Measured thermophysical data. Phase Equilibria in the Ternary System CaCl2-SrCl2-H2O and the Quaternary System KCl-CaCl2-SrCl2-H2O at 373 K
Source: J. Chem. Eng. Data, 2018, 10.1021/acs.jced.8b00087
Compound 1: water, H2O, InChI=1S/H2O/h1H2, purity 99.9%
Compound 2: potassium chloride, ClK, InChI=1S/ClH.K/h1H;/q;+1/p-1, purity 99.5%
Compound 3: strontium chloride, Cl2Sr, InChI=1S/2ClH.Sr/h2*1H;/q;;+2/p-2, purity 99.5%
Compound 4: calcium chloride, CaCl2, InChI=1S/Ca.2ClH/h;2*1H/q+2;;/p-2, purity 96%

System: strontium chloride + calcium chloride + water; phases: Liquid, Crystal of intercomponent compound 1
Fixed: Temperature, K = 373
Fixed: Pressure, kPa = 94.77
Property: Mass fraction of calcium chloride (Liquid); method: Titration method
Mass fraction of strontium chloride	Mass fraction of calcium chloride	uncertainty
0	0.6139	0.0117
0.0132	0.5996	0.0121
0.0213	0.5903	0.0124
0.0248	0.5893	0.0124
0.0255	0.5896	0.0124

System: strontium chloride + calcium chloride + water; phases: Liquid, Crystal of intercomponent compound 2
Fixed: Temperature, K = 373
Fixed: Pressure, kPa = 94.77
Property: Mass fraction of calcium chloride (Liquid); method: Titration method
Mass fraction of strontium chloride	Mass fraction of calcium chloride	uncertainty
0.0255	0.5896	0.0126
0.0291	0.5794	0.0139
0.0348	0.5317	0.0145
0.0507	0.5003	0.0152
0.0671	0.478	0.0149
0.1011	0.4045	0.0135
0.1242	0.3682	0.0122
0.159	0.3255	0.011
0.2366	0.2484	0.0101
0.3096	0.1808	0.01
0.4679	0.0386	0.0127

System: strontium chloride + calcium chloride + water; phases: Liquid, Crystal of intercomponent compound 3
Property: Mass fraction of calcium chloride (Liquid); method: Titration method
Mass fraction of strontium chloride	Temperature, K	Pressure, kPa	Mass fraction of calcium chloride	uncertainty
0.5025	373	94.77	0	

System: calcium chloride + water; phases: Liquid, Crystal of intercomponent compound 1
Property: Mass fraction of calcium chloride (Liquid); method: Titration method
Temperature, K	Pressure, kPa	Mass fraction of calcium chloride	uncertainty
373	94.77	0.6139	0.0117

System: strontium chloride + water; phases: Liquid, Crystal of intercomponent compound 3
Property: Mass fraction of strontium chloride (Liquid); method: Titration method
Temperature, K	Pressure, kPa	Mass fraction of strontium chloride	uncertainty
373	94.77	0.5025	0.015

System: potassium chloride + calcium chloride + water; phases: Liquid, Crystal of intercomponent compound 1
Property: Mass fraction of calcium chloride (Liquid); method: Titration method
Mass fraction of potassium chloride	Temperature, K	Pressure, kPa	Mass fraction of calcium chloride	uncertainty
0.0313	373	94.77	0.5987	0.0121

System: potassium chloride + calcium chloride + water; phases: Liquid, Crystal of intercomponent compound 2
Fixed: Temperature, K = 373
Fixed: Pressure, kPa = 94.77
Property: Mass fraction of calcium chloride (Liquid); method: Titration method
Mass fraction of potassium chloride	Mass fraction of calcium chloride	uncertainty
0.0313	0.5987	0.0122
0.1297	0.4899	0.0153

System: potassium chloride + calcium chloride + water; phases: Liquid, Crystal
Property: Mass fraction of calcium chloride (Liquid); method: Titration method
Mass fraction of potassium chloride	Temperature, K	Pressure, kPa	Mass fraction of calcium chloride	uncertainty
0.1297	373	94.77	0.4899	0.0147
