Measured thermophysical data. Interfacial Tension Measurement and Calculation of (Carbon Dioxide + n-Alkane) Binary Mixtures
Source: J. Chem. Eng. Data, 2017, 10.1021/acs.jced.7b00159
Compound 1: decane, C10H22, InChI=1S/C10H22/c1-3-5-7-9-10-8-6-4-2/h3-10H2,1-2H3, purity 99%
Compound 2: undecane, C11H24, InChI=1S/C11H24/c1-3-5-7-9-11-10-8-6-4-2/h3-11H2,1-2H3, purity 99%
Compound 3: dodecane, C12H26, InChI=1S/C12H26/c1-3-5-7-9-11-12-10-8-6-4-2/h3-12H2,1-2H3, purity 99.6%
Compound 4: tridecane, C13H28, InChI=1S/C13H28/c1-3-5-7-9-11-13-12-10-8-6-4-2/h3-13H2,1-2H3, purity 99%
Compound 5: tetradecane, C14H30, InChI=1S/C14H30/c1-3-5-7-9-11-13-14-12-10-8-6-4-2/h3-14H2,1-2H3, purity 99%
Compound 6: pentadecane, C15H32, InChI=1S/C15H32/c1-3-5-7-9-11-13-15-14-12-10-8-6-4-2/h3-15H2,1-2H3, purity 99%
Compound 7: hexadecane, C16H34, InChI=1S/C16H34/c1-3-5-7-9-11-13-15-16-14-12-10-8-6-4-2/h3-16H2,1-2H3, purity 99.56%
Compound 8: heptadecane, C17H36, InChI=1S/C17H36/c1-3-5-7-9-11-13-15-17-16-14-12-10-8-6-4-2/h3-17H2,1-2H3, purity 99%
Compound 9: octadecane, C18H38, InChI=1S/C18H38/c1-3-5-7-9-11-13-15-17-18-16-14-12-10-8-6-4-2/h3-18H2,1-2H3, purity 99%
Compound 10: nonadecane, C19H40, InChI=1S/C19H40/c1-3-5-7-9-11-13-15-17-19-18-16-14-12-10-8-6-4-2/h3-19H2,1-2H3, purity 99%
Compound 11: eicosane, C20H42, InChI=1S/C20H42/c1-3-5-7-9-11-13-15-17-19-20-18-16-14-12-10-8-6-4-2/h3-20H2,1-2H3, purity 99%
Compound 12: carbon dioxide, CO2, InChI=1S/CO2/c2-1-3, purity 99.95%

System: carbon dioxide + decane; phases: Liquid, Gas
Property: Interfacial tension, N/m (Liquid); method: Pendant drop shape
Temperature, K	Pressure, kPa	Interfacial tension, N/m	uncertainty
323.15	900	0.01882	0.001
323.15	2100	0.01635	0.001
323.15	2990	0.01477	0.001
323.15	4100	0.01256	0.001
323.15	6100	0.00843	0.001
323.15	7100	0.00685	0.001
323.15	8100	0.00489	0.001
353.15	1200	0.01645	0.001
353.15	2100	0.01525	0.001
353.15	3020	0.01407	0.001
353.15	4100	0.01252	0.001
353.15	5100	0.01128	0.001
353.15	6100	0.00986	0.001
353.15	7110	0.0086	0.001
353.15	8100	0.00785	0.001
353.15	9100	0.00591	0.001
353.15	10100	0.00465	0.001

System: carbon dioxide + undecane; phases: Liquid, Gas
Property: Interfacial tension, N/m (Liquid); method: Pendant drop shape
Temperature, K	Pressure, kPa	Interfacial tension, N/m	uncertainty
323.15	1030	0.01926	0.001
323.15	2100	0.01725	0.001
323.15	3100	0.01505	0.001
323.15	4100	0.01312	0.001
323.15	5100	0.01098	0.001
323.15	6100	0.00868	0.001
323.15	7100	0.0072	0.001
323.15	8100	0.00495	0.001
353.15	1100	0.01709	0.001
353.15	2100	0.01583	0.001
353.15	3100	0.01438	0.001
353.15	4100	0.01317	0.001
353.15	5100	0.01169	0.001
353.15	6100	0.01045	0.001
353.15	7100	0.00931	0.001
353.15	8100	0.00745	0.001
353.15	9100	0.00645	0.001
353.15	10100	0.00559	0.001
353.15	11100	0.00437	0.001
353.15	12100	0.00339	0.001

System: carbon dioxide + dodecane; phases: Liquid, Gas
Property: Interfacial tension, N/m (Liquid); method: Pendant drop shape
Temperature, K	Pressure, kPa	Interfacial tension, N/m	uncertainty
323.15	1100	0.01927	0.001
323.15	2100	0.01729	0.001
323.15	3600	0.01447	0.001
323.15	4100	0.01355	0.001
323.15	6100	0.00951	0.001
323.15	7100	0.00768	0.001
323.15	8100	0.00557	0.001
353.15	1100	0.01694	0.001
353.15	2100	0.01602	0.001
353.15	3100	0.01466	0.001
353.15	4100	0.0134	0.001
353.15	5100	0.01199	0.001
353.15	6100	0.01069	0.001
353.15	7100	0.00944	0.001
353.15	8100	0.00832	0.001
353.15	9100	0.00696	0.001
353.15	10100	0.00588	0.001
353.15	11100	0.0048	0.001

System: carbon dioxide + tridecane; phases: Liquid, Gas
Property: Interfacial tension, N/m (Liquid); method: Pendant drop shape
Temperature, K	Pressure, kPa	Interfacial tension, N/m	uncertainty
323.15	1100	0.02	0.001
323.15	2100	0.01827	0.001
323.15	4100	0.01442	0.001
323.15	5100	0.01293	0.001
323.15	6100	0.01147	0.001
323.15	7100	0.00942	0.001
323.15	8600	0.00683	0.001
323.15	9600	0.00491	0.001
323.15	10600	0.00283	0.001
353.15	1500	0.01772	0.001
353.15	2600	0.01609	0.001
353.15	4100	0.01409	0.001
353.15	5100	0.01285	0.001
353.15	6100	0.01202	0.001
353.15	7100	0.01041	0.001
353.15	8100	0.00958	0.001
353.15	9100	0.00818	0.001
353.15	10100	0.00707	0.001
353.15	11100	0.0061	0.001
353.15	12100	0.00484	0.001
353.15	13100	0.00389	0.001
353.15	14100	0.00314	0.001
353.15	15100	0.00221	0.001
353.15	16100	0.00168	0.001
353.15	17100	0.00114	0.001

System: carbon dioxide + tetradecane; phases: Liquid, Gas
Property: Interfacial tension, N/m (Liquid); method: Pendant drop shape
Temperature, K	Pressure, kPa	Interfacial tension, N/m	uncertainty
323.15	1050	0.02079	0.001
323.15	2110	0.01889	0.001
323.15	3050	0.01705	0.001
323.15	3950	0.01541	0.001
323.15	5020	0.01351	0.001
323.15	5960	0.01159	0.001
323.15	7030	0.00979	0.001
323.15	8000	0.00827	0.001
323.15	8940	0.0065	0.001
323.15	9020	0.00635	0.001
323.15	10050	0.00398	0.001
353.15	1200	0.01819	0.001
353.15	2100	0.01701	0.001
353.15	3200	0.01562	0.001
353.15	4040	0.01448	0.001
353.15	5120	0.01321	0.001
353.15	6110	0.0122	0.001
353.15	7090	0.01094	0.001
353.15	8090	0.0099	0.001
353.15	10050	0.00761	0.001
353.15	11120	0.0065	0.001
353.15	12010	0.0055	0.001

System: carbon dioxide + pentadecane; phases: Liquid, Gas
Property: Interfacial tension, N/m (Liquid); method: Pendant drop shape
Temperature, K	Pressure, kPa	Interfacial tension, N/m	uncertainty
323.15	1050	0.02131	0.001
323.15	2130	0.01932	0.001
323.15	3100	0.01753	0.001
323.15	4050	0.01563	0.001
323.15	5130	0.01349	0.001
323.15	6100	0.01198	0.001
323.15	7100	0.01016	0.001
323.15	8100	0.00846	0.001
323.15	9000	0.00666	0.001
323.15	9600	0.00532	0.001
323.15	10100	0.00472	0.001
353.15	1500	0.01819	0.001
353.15	2100	0.01727	0.001
353.15	3100	0.01623	0.001
353.15	4200	0.01466	0.001
353.15	5400	0.01329	0.001
353.15	6100	0.01236	0.001
353.15	7900	0.0102	0.001
353.15	8900	0.0089	0.001
353.15	10000	0.00787	0.001
353.15	11100	0.00678	0.001
353.15	12100	0.00582	0.001
353.15	13100	0.00466	0.001
353.15	14100	0.00375	0.001
353.15	15100	0.00306	0.001

System: carbon dioxide + hexadecane; phases: Liquid, Gas
Property: Interfacial tension, N/m (Liquid); method: Pendant drop shape
Temperature, K	Pressure, kPa	Interfacial tension, N/m	uncertainty
323.15	1030	0.0215	0.001
323.15	2050	0.01961	0.001
323.15	2960	0.01795	0.001
323.15	4010	0.01594	0.001
323.15	5020	0.01412	0.001
323.15	5960	0.01243	0.001
323.15	7000	0.01052	0.001
323.15	8020	0.00871	0.001
323.15	8960	0.00698	0.00101
323.15	9040	0.0075	0.00101
323.15	10020	0.00502	0.001
353.15	1200	0.01868	0.001
353.15	2100	0.01748	0.001
353.15	3200	0.01605	0.001
353.15	4040	0.01499	0.001
353.15	5120	0.01367	0.001
353.15	6110	0.0125	0.001
353.15	7090	0.01137	0.001
353.15	8090	0.01025	0.001
353.15	8990	0.00928	0.001
353.15	10050	0.0081	0.001
353.15	11120	0.00711	0.001
353.15	12010	0.00612	0.001

System: carbon dioxide + heptadecane; phases: Liquid, Gas
Property: Interfacial tension, N/m (Liquid); method: Pendant drop shape
Temperature, K	Pressure, kPa	Interfacial tension, N/m	uncertainty
323.15	1200	0.02095	0.001
323.15	2600	0.0183	0.001
323.15	3300	0.01699	0.001
323.15	4100	0.01549	0.001
323.15	5100	0.01395	0.001
323.15	6100	0.01178	0.001
323.15	7300	0.00969	0.001
323.15	8120	0.00852	0.001
323.15	10100	0.00508	0.001
353.15	1100	0.01847	0.001
353.15	2100	0.01715	0.001
353.15	3300	0.01548	0.001
353.15	4100	0.01462	0.001
353.15	5200	0.01338	0.001
353.15	6720	0.01171	0.001
353.15	7100	0.01126	0.001
353.15	8150	0.01009	0.001
353.15	9300	0.00914	0.001
353.15	10600	0.00778	0.001
353.15	12600	0.00578	0.001
353.15	14100	0.0043	0.001
353.15	15100	0.00357	0.001
353.15	16200	0.00281	0.001

System: carbon dioxide + octadecane; phases: Liquid, Gas
Property: Interfacial tension, N/m (Liquid); method: Pendant drop shape
Temperature, K	Pressure, kPa	Interfacial tension, N/m	uncertainty
323.15	410	0.02335	0.001
323.15	1300	0.02123	0.001
323.15	2000	0.01853	0.001
323.15	2670	0.01713	0.001
323.15	3200	0.01563	0.001
323.15	4000	0.01412	0.001
323.15	5100	0.01194	0.001
323.15	6250	0.00984	0.001
323.15	7000	0.00865	0.001
323.15	8150	0.00507	0.001
323.15	9100	0.00315	0.001
323.15	10100	0.00183	0.001
353.15	400	0.02005	0.001
353.15	1100	0.01916	0.001
353.15	2200	0.01773	0.001
353.15	3300	0.01622	0.001
353.15	4180	0.01513	0.001
353.15	5300	0.01386	0.001
353.15	6150	0.01292	0.001
353.15	7200	0.0118	0.001
353.15	8100	0.01068	0.001
353.15	9300	0.00966	0.001
353.15	10100	0.00887	0.001
353.15	11100	0.00766	0.001
353.15	12100	0.00663	0.001
353.15	13000	0.00574	0.001
353.15	14000	0.00491	0.001
353.15	15000	0.00405	0.001
353.15	16300	0.00308	0.001
353.15	17400	0.00249	0.001

System: carbon dioxide + nonadecane; phases: Liquid, Gas
Property: Interfacial tension, N/m (Liquid); method: Pendant drop shape
Temperature, K	Pressure, kPa	Interfacial tension, N/m	uncertainty
323.15	2400	0.02057	0.001
323.15	3200	0.01891	0.001
323.15	4200	0.01725	0.001
323.15	5050	0.01527	0.001
323.15	6150	0.01293	0.001
323.15	7100	0.01135	0.001
323.15	8200	0.00961	0.001
323.15	9200	0.00778	0.001
323.15	10000	0.00639	0.001
353.15	1100	0.01952	0.001
353.15	2060	0.01823	0.001
353.15	3100	0.01688	0.001
353.15	4140	0.01558	0.001
353.15	5140	0.01435	0.001
353.15	6060	0.01327	0.001
353.15	7120	0.01206	0.001
353.15	8050	0.01103	0.001
353.15	9200	0.00976	0.001
353.15	10020	0.00894	0.001
353.15	11100	0.00787	0.001
353.15	12000	0.007	0.001
353.15	13070	0.00597	0.001
353.15	14040	0.00508	0.001

System: carbon dioxide + eicosane; phases: Liquid, Gas
Fixed: Temperature, K = 353.15
Property: Interfacial tension, N/m (Liquid); method: Pendant drop shape
Pressure, kPa	Interfacial tension, N/m	uncertainty
1000	0.02035	0.001
2000	0.01899	0.001
4000	0.01613	0.001
6000	0.01337	0.001
8000	0.01034	0.001
10000	0.00785	0.001
12000	0.00555	0.001
14000	0.00371	0.001
16000	0.00238	0.001
