Measured thermophysical data. Measurement and Correlation of Isobaric Vapor-Liquid Equilibrium for Camphene, (+)-3-Carene, and (+-)-Limonene Systems
Source: J. Chem. Eng. Data, 2019, 10.1021/acs.jced.8b00672
Compound 1: 2,2-dimethyl-3-methylenebicyclo[2.2.1]heptane, C10H16, InChI=1S/C10H16/c1-7-8-4-5-9(6-8)10(7,2)3/h8-9H,1,4-6H2,2-3H3, purity 97.68%
Compound 2: 3,7,7-trimethylbicyclo[4.1.0]hept-3-ene, C10H16, InChI=1S/C10H16/c1-7-4-5-8-9(6-7)10(8,2)3/h4,8-9H,5-6H2,1-3H3, purity 97.69%
Compound 3: 1-methyl-4-(1-methylethenyl)cyclohexene, C10H16, InChI=1S/C10H16/c1-8(2)10-6-4-9(3)5-7-10/h4,10H,1,5-7H2,2-3H3, purity 97.52%

System: 2,2-dimethyl-3-methylenebicyclo[2.2.1]heptane; phases: Liquid, Gas
Property: Vapor or sublimation pressure, kPa (Liquid); method: Ebulliometric method (Recirculating still)
Temperature, K	Vapor or sublimation pressure, kPa	uncertainty
432.58	101.33	1.21
432.72	101.33	0.99
432.16	99.87	1.21
430.74	94.89	1.21
425.03	80.81	0.94
422.41	75.01	0.83
413.19	58.03	0.8
407.39	48.91	0.74
399.98	38.82	0.7
390.11	28.37	0.66
378.08	18.33	0.63
357.01	8.36	0.62

System: 3,7,7-trimethylbicyclo[4.1.0]hept-3-ene; phases: Liquid, Gas
Property: Vapor or sublimation pressure, kPa (Liquid); method: Ebulliometric method (Recirculating still)
Temperature, K	Vapor or sublimation pressure, kPa	uncertainty
442.62	101.33	1.64
442.56	101.33	1.64

System: 1-methyl-4-(1-methylethenyl)cyclohexene; phases: Liquid, Gas
Property: Vapor or sublimation pressure, kPa (Liquid); method: Ebulliometric method (Recirculating still)
Temperature, K	Vapor or sublimation pressure, kPa	uncertainty
449.33	101.33	1.64
449.57	101.33	1.64

System: 2,2-dimethyl-3-methylenebicyclo[2.2.1]heptane + 1-methyl-4-(1-methylethenyl)cyclohexene; phases: Liquid, Gas
Fixed: Pressure, kPa = 101.33
Property: Boiling temperature at pressure P, K (Liquid); method: Ebulliometric method (Recirculating still)
Mole fraction of 2,2-dimethyl-3-methylenebicyclo[2.2.1]heptane	Boiling temperature at pressure P, K	uncertainty
0	449.33	0.33
0.038	448.15	0.36
0.074	446.86	0.36
0.1073	445.81	0.36
0.1583	444.23	0.35
0.1973	443.14	0.35
0.2368	442.28	0.34
0.2565	441.81	0.34
0.2891	441.1	0.35
0.329	440.15	0.34
0.3612	439.53	0.34
0.4419	438.08	0.34
0.4728	437.7	0.34
0.5472	436.55	0.34
0.5991	435.89	0.34
0.6269	435.58	0.34
0.6703	435.13	0.34
0.7086	434.78	0.34
0.7582	434.3	0.34
0.7895	433.99	0.33
0.8096	433.89	0.33
0.8613	433.45	0.33
0.9425	432.89	0.33
1	432.58	0.33

System: 2,2-dimethyl-3-methylenebicyclo[2.2.1]heptane + 1-methyl-4-(1-methylethenyl)cyclohexene; phases: Gas, Liquid
Fixed: Pressure, kPa = 101.33
Property: Mole fraction of 2,2-dimethyl-3-methylenebicyclo[2.2.1]heptane (Gas); method: Chromatography
Mole fraction of 2,2-dimethyl-3-methylenebicyclo[2.2.1]heptane	Mole fraction of 2,2-dimethyl-3-methylenebicyclo[2.2.1]heptane	uncertainty
0	0	
0.038	0.073	0.0083
0.074	0.1339	0.0077
0.1073	0.1856	0.0073
0.1583	0.2573	0.0071
0.1973	0.3071	0.0069
0.2368	0.3536	0.0069
0.2565	0.3758	0.0068
0.2891	0.4096	0.0069
0.329	0.451	0.0071
0.3612	0.4819	0.0072
0.4419	0.5546	0.007
0.4728	0.581	0.0068
0.5472	0.6427	0.0064
0.5991	0.6833	0.0061
0.6269	0.7041	0.006
0.6703	0.7383	0.0058
0.7086	0.7674	0.0057
0.7582	0.8055	0.0055
0.7895	0.8299	0.0054
0.8096	0.8454	0.0054
0.8613	0.8868	0.0053
0.9425	0.9528	0.0052
1	1	

System: 2,2-dimethyl-3-methylenebicyclo[2.2.1]heptane + 3,7,7-trimethylbicyclo[4.1.0]hept-3-ene; phases: Liquid, Gas
Fixed: Pressure, kPa = 101.33
Property: Boiling temperature at pressure P, K (Liquid); method: Ebulliometric method (Recirculating still)
Mole fraction of 2,2-dimethyl-3-methylenebicyclo[2.2.1]heptane	Boiling temperature at pressure P, K	uncertainty
0	442.62	0.33
0.0491	441.9	0.34
0.0988	441.24	0.34
0.1402	440.73	0.34
0.1721	440.34	0.34
0.1951	440.06	0.34
0.2841	439.04	0.34
0.3241	438.61	0.34
0.3804	438.02	0.34
0.4299	437.52	0.34
0.4934	436.9	0.34
0.56	436.28	0.33
0.6271	435.69	0.33
0.697	435.09	0.33
0.7347	434.78	0.33
0.8079	434.19	0.33
0.8681	433.72	0.33
0.9299	433.25	0.33
0.9733	432.92	0.33
1	432.72	0.33

System: 2,2-dimethyl-3-methylenebicyclo[2.2.1]heptane + 3,7,7-trimethylbicyclo[4.1.0]hept-3-ene; phases: Gas, Liquid
Fixed: Pressure, kPa = 101.33
Property: Mole fraction of 2,2-dimethyl-3-methylenebicyclo[2.2.1]heptane (Gas); method: Chromatography
Mole fraction of 2,2-dimethyl-3-methylenebicyclo[2.2.1]heptane	Mole fraction of 2,2-dimethyl-3-methylenebicyclo[2.2.1]heptane	uncertainty
0	0	
0.0491	0.0661	0.0066
0.0988	0.129	0.0064
0.1402	0.1783	0.0064
0.1721	0.216	0.0064
0.1951	0.2425	0.0064
0.2841	0.3413	0.0067
0.3241	0.3838	0.0068
0.3804	0.4419	0.0071
0.4299	0.4917	0.0074
0.4934	0.5537	0.0071
0.56	0.6167	0.0068
0.6271	0.6788	0.0064
0.697	0.7416	0.0061
0.7347	0.7751	0.0059
0.8079	0.8388	0.0056
0.8681	0.8902	0.0054
0.9299	0.942	0.0053
0.9733	0.978	0.0052
1	1	

System: 3,7,7-trimethylbicyclo[4.1.0]hept-3-ene + 1-methyl-4-(1-methylethenyl)cyclohexene; phases: Liquid, Gas
Fixed: Pressure, kPa = 101.33
Property: Boiling temperature at pressure P, K (Liquid); method: Ebulliometric method (Recirculating still)
Mole fraction of 1-methyl-4-(1-methylethenyl)cyclohexene	Boiling temperature at pressure P, K	uncertainty
0	442.56	0.33
0.0395	442.79	0.33
0.0815	443.01	0.33
0.1704	443.45	0.33
0.2312	443.75	0.33
0.2986	444.15	0.33
0.3338	444.35	0.33
0.3819	444.63	0.33
0.4168	444.85	0.33
0.4633	445.15	0.33
0.4948	445.35	0.33
0.567	445.88	0.33
0.6279	446.33	0.33
0.642	446.43	0.33
0.6693	446.65	0.33
0.7249	447.08	0.33
0.788	447.63	0.33
0.8112	447.82	0.33
0.8467	448.15	0.33
0.892	448.55	0.33
0.9405	449.01	0.34
0.9711	449.32	0.34
1	449.57	0.33

System: 3,7,7-trimethylbicyclo[4.1.0]hept-3-ene + 1-methyl-4-(1-methylethenyl)cyclohexene; phases: Gas, Liquid
Fixed: Pressure, kPa = 101.33
Property: Mole fraction of 1-methyl-4-(1-methylethenyl)cyclohexene (Gas); method: Chromatography
Mole fraction of 1-methyl-4-(1-methylethenyl)cyclohexene	Mole fraction of 1-methyl-4-(1-methylethenyl)cyclohexene	uncertainty
0	0	
0.0395	0.0351	0.0054
0.0815	0.0725	0.0054
0.1704	0.1518	0.0055
0.2312	0.2065	0.0057
0.2986	0.2678	0.0059
0.3338	0.3009	0.0061
0.3819	0.3447	0.0063
0.4168	0.3775	0.0065
0.4633	0.4216	0.0068
0.4948	0.4519	0.0071
0.567	0.5227	0.0074
0.6279	0.5839	0.0071
0.642	0.5983	0.0071
0.6693	0.6264	0.007
0.7249	0.6848	0.0068
0.788	0.753	0.0065
0.8112	0.7787	0.0065
0.8467	0.8185	0.0064
0.892	0.8705	0.0063
0.9405	0.9276	0.0063
0.9711	0.9645	0.0063
1	1	

System: 2,2-dimethyl-3-methylenebicyclo[2.2.1]heptane + 3,7,7-trimethylbicyclo[4.1.0]hept-3-ene + 1-methyl-4-(1-methylethenyl)cyclohexene; phases: Liquid, Gas
Fixed: Pressure, kPa = 101.33
Property: Mole fraction of 3,7,7-trimethylbicyclo[4.1.0]hept-3-ene (Liquid); method: Chromatography
Property: Mole fraction of 3,7,7-trimethylbicyclo[4.1.0]hept-3-ene (Gas); method: Chromatography
Property: Mole fraction of 2,2-dimethyl-3-methylenebicyclo[2.2.1]heptane (Gas); method: Chromatography
Temperature, K	Mole fraction of 2,2-dimethyl-3-methylenebicyclo[2.2.1]heptane	Mole fraction of 3,7,7-trimethylbicyclo[4.1.0]hept-3-ene	uncertainty	Mole fraction of 3,7,7-trimethylbicyclo[4.1.0]hept-3-ene	uncertainty	Mole fraction of 2,2-dimethyl-3-methylenebicyclo[2.2.1]heptane	uncertainty
434.15	0.8035	0.1121	0.0041	0.0914	0.0041	0.8383	
434.66	0.7453	0.1635	0.0042	0.1347	0.0042	0.7901	
435.36	0.6705	0.2029	0.0043	0.1685	0.0043	0.7284	
435.91	0.6172	0.2293	0.0043	0.1919	0.0043	0.6838	
436.39	0.5721	0.2665	0.0044	0.2257	0.0045	0.6439	
436.69	0.549	0.2404	0.0044	0.203	0.0044	0.6272	
437.37	0.4954	0.2445	0.0044	0.2085	0.0044	0.5817	
438.1	0.4421	0.2514	0.0044	0.2173	0.0044	0.5346	
438.77	0.3949	0.2761	0.0045	0.2429	0.0045	0.4893	
439.55	0.3421	0.3126	0.0046	0.2813	0.0047	0.4352	
440.09	0.3137	0.2951	0.0045	0.2681	0.0047	0.4085	
440.83	0.2609	0.3681	0.0048	0.3439	0.0051	0.3463	
441.4	0.2349	0.3491	0.0047	0.3301	0.005	0.3193	
442.65	0.1685	0.381	0.0049	0.3737	0.0053	0.2387	
443.03	0.1456	0.4077	0.005	0.405	0.0055	0.2082	
445.69	0.0739	0.2312	0.0043	0.2443	0.0045	0.12	
443.03	0.0954	0.6121	0.005	0.6156	0.0057	0.1332	
440.85	0.2808	0.2317	0.0043	0.2125	0.0044	0.3803	
443.21	0.0586	0.7137	0.0046	0.723	0.005	0.0817	
442.71	0.1961	0.2031	0.0043	0.1953	0.0043	0.2869	
442.74	0.1331	0.5199	0.0054	0.5167	0.0062	0.1857	
443.23	0.1299	0.4367	0.0051	0.4373	0.0058	0.1863	
445.08	0.1129	0.1294	0.0041	0.1326	0.0042	0.1837	
446.52	0.0655	0.1197	0.0041	0.1284	0.0041	0.1128	
445.22	0.0257	0.5179	0.0054	0.5502	0.006	0.0389	
444	0.0814	0.4986	0.0055	0.5118	0.0063	0.1188	
442.64	0.0353	0.8817	0.0041	0.882	0.0043	0.0481	
442.39	0.0714	0.8017	0.0043	0.7968	0.0046	0.0966	
443.17	0.0347	0.8009	0.0043	0.8114	0.0046	0.0481	
443.62	0.0264	0.7592	0.0044	0.7776	0.0047	0.0372	
444.2	0.0514	0.5817	0.0051	0.6024	0.0057	0.0747	
447.23	0.0554	0.0485	0.004	0.0528	0.004	0.1	
445.63	0.1071	0.0334	0.004	0.0344	0.004	0.1827	
