Measured thermophysical data. Influence of Temperature on the Liquid Liquid Phase Equilibria of Ternary (Water + Alcohol + Entrainer) Systems
Source: J. Chem. Eng. Data, 2017, 10.1021/acs.jced.7b00110
Compound 1: ethanol, C2H6O, InChI=1S/C2H6O/c1-2-3/h3H,2H2,1H3, purity 99.92%
Compound 2: propan-2-ol, C3H8O, InChI=1S/C3H8O/c1-3(2)4/h3-4H,1-2H3, purity 99.83%
Compound 3: propan-1-ol, C3H8O, InChI=1S/C3H8O/c1-2-3-4/h4H,2-3H2,1H3, purity 99.8%
Compound 4: cyclohexane, C6H12, InChI=1S/C6H12/c1-2-4-6-5-3-1/h1-6H2, purity 99.12%
Compound 5: 2,2,4-trimethylpentane, C8H18, InChI=1S/C8H18/c1-7(2)6-8(3,4)5/h7H,6H2,1-5H3, purity 99.12%
Compound 6: water, H2O, InChI=1S/H2O/h1H2, purity 99.9%

System: water + propan-2-ol + cyclohexane; phases: Liquid mixture 2, Liquid mixture 1
Fixed: Pressure, kPa = 100
Property: Mole fraction of propan-2-ol (Liquid mixture 2); method: Chromatography
Property: Mole fraction of cyclohexane (Liquid mixture 1); method: Chromatography
Property: Mole fraction of propan-2-ol (Liquid mixture 1); method: Chromatography
Temperature, K	Mole fraction of cyclohexane	Mole fraction of propan-2-ol	uncertainty	Mole fraction of cyclohexane	uncertainty	Mole fraction of propan-2-ol	uncertainty
308.2	0.952	0.041	0.033	0		0.051	
308.2	0.745	0.206	0.032	0.001	0.001	0.119	
308.2	0.619	0.288	0.029	0.005	0.005	0.175	
308.2	0.509	0.329	0.028	0.025	0.025	0.271	
308.2	0.372	0.376	0.028	0.069	0.03	0.35	
318.2	0.941	0.05	0.033	0		0.048	
318.2	0.709	0.233	0.032	0.001	0.001	0.114	
318.2	0.576	0.309	0.029	0.005	0.005	0.159	
318.2	0.401	0.39	0.027	0.017	0.017	0.235	
318.2	0.288	0.387	0.026	0.049	0.029	0.302	

System: water + propan-1-ol + cyclohexane; phases: Liquid mixture 2, Liquid mixture 1
Fixed: Pressure, kPa = 100
Property: Mole fraction of propan-1-ol (Liquid mixture 2); method: Chromatography
Property: Mole fraction of cyclohexane (Liquid mixture 1); method: Chromatography
Property: Mole fraction of propan-1-ol (Liquid mixture 1); method: Chromatography
Temperature, K	Mole fraction of cyclohexane	Mole fraction of propan-1-ol	uncertainty	Mole fraction of cyclohexane	uncertainty	Mole fraction of propan-1-ol	uncertainty
298.2	0.289	0.435	0.029	0.001	0.001	0.08	
298.2	0.449	0.363	0.029	0		0.078	
298.2	0.71	0.224	0.031	0		0.061	
298.2	0.908	0.08	0.033	0		0.047	
298.2	0.989	0.002	0.002	0		0.006	
318.2	0.971	0.02	0.02	0		0.015	
318.2	0.89	0.091	0.035	0		0.036	
318.2	0.777	0.191	0.031	0		0.05	
318.2	0.584	0.3	0.029	0		0.055	
318.2	0.341	0.405	0.028	0		0.061	

System: water + ethanol + 2,2,4-trimethylpentane; phases: Liquid mixture 2, Liquid mixture 1
Fixed: Temperature, K = 318.2
Fixed: Pressure, kPa = 100
Property: Mole fraction of 2,2,4-trimethylpentane (Liquid mixture 2); method: Chromatography
Property: Mole fraction of 2,2,4-trimethylpentane (Liquid mixture 1); method: Chromatography
Property: Mole fraction of ethanol (Liquid mixture 1); method: Chromatography
Mole fraction of ethanol	Mole fraction of 2,2,4-trimethylpentane	uncertainty	Mole fraction of 2,2,4-trimethylpentane	uncertainty	Mole fraction of ethanol	uncertainty
0.028	0.961	0.039	0		0.162	
0.048	0.936	0.039	0.003	0.003	0.36	
0.086	0.894	0.039	0.014	0.014	0.5	
0.149	0.824	0.041	0.046	0.046	0.616	
0.295	0.643	0.041	0.135	0.09	0.643	

System: water + propan-2-ol + 2,2,4-trimethylpentane; phases: Liquid mixture 2, Liquid mixture 1
Fixed: Pressure, kPa = 100
Property: Mole fraction of 2,2,4-trimethylpentane (Liquid mixture 2); method: Chromatography
Property: Mole fraction of 2,2,4-trimethylpentane (Liquid mixture 1); method: Chromatography
Property: Mole fraction of propan-2-ol (Liquid mixture 1); method: Chromatography
Temperature, K	Mole fraction of propan-2-ol	Mole fraction of 2,2,4-trimethylpentane	uncertainty	Mole fraction of 2,2,4-trimethylpentane	uncertainty	Mole fraction of propan-2-ol	uncertainty
308.2	0.012	0.979	0.021	0		0.024	
308.2	0.114	0.858	0.041	0		0.089	
308.2	0.183	0.772	0.043	0.002	0.002	0.168	
308.2	0.225	0.709	0.048	0.008	0.008	0.248	
308.2	0.296	0.599	0.048	0.031	0.027	0.354	
318.2	0.016	0.967	0.032	0		0.023	
318.2	0.14	0.826	0.04	0		0.099	
318.2	0.202	0.746	0.044	0.002	0.002	0.169	
318.2	0.245	0.682	0.048	0.008	0.008	0.245	
318.2	0.317	0.568	0.049	0.032	0.027	0.347	

System: water + propan-1-ol + 2,2,4-trimethylpentane; phases: Liquid mixture 2, Liquid mixture 1
Fixed: Pressure, kPa = 100
Property: Mole fraction of 2,2,4-trimethylpentane (Liquid mixture 2); method: Chromatography
Property: Mole fraction of 2,2,4-trimethylpentane (Liquid mixture 1); method: Chromatography
Property: Mole fraction of propan-1-ol (Liquid mixture 1); method: Chromatography
Temperature, K	Mole fraction of propan-1-ol	Mole fraction of 2,2,4-trimethylpentane	uncertainty	Mole fraction of 2,2,4-trimethylpentane	uncertainty	Mole fraction of propan-1-ol	uncertainty
308.2	0.022	0.964	0.036	0		0.026	
308.2	0.117	0.854	0.041	0		0.068	
308.2	0.191	0.755	0.044	0.001	0.001	0.106	
308.2	0.225	0.709	0.044	0.003	0.003	0.155	
308.2	0.244	0.682	0.044	0.008	0.008	0.211	
318.2	0.023	0.967	0.033	0		0.025	
318.2	0.123	0.85	0.041	0		0.057	
318.2	0.221	0.723	0.044	0.001	0.001	0.093	
318.2	0.251	0.674	0.047	0.003	0.003	0.141	
318.2	0.28	0.635	0.044	0.009	0.009	0.206	
