Measured thermophysical data. Volumetric, Viscometric, and 1H NMR Studies on Caffeine, Theophylline, and Theobromine in Aqueous Solutions of MgCl2 at Temperatures T = (288.15 to 318.15) K and at Pressure p = 101.3 kPa
Source: J. Chem. Eng. Data, 2017, 10.1021/acs.jced.7b00520
Compound 1: caffeine, C8H10N4O2, InChI=1S/C8H10N4O2/c1-10-4-9-6-5(10)7(13)12(3)8(14)11(6)2/h4H,1-3H3, purity 99%
Compound 2: 3,7-dihydro-1,3-dimethyl-1H-purine-2,6-dione, C7H8N4O2, InChI=1S/C7H8N4O2/c1-10-5-4(8-3-9-5)6(12)11(2)7(10)13/h3H,1-2H3,(H,8,9), purity 99%
Compound 3: 1H-purine-2,6-dione, 3,7-dihydro-3,7-dimethyl-, C7H8N4O2, InChI=1S/C7H8N4O2/c1-10-3-8-5-4(10)6(12)9-7(13)11(5)2/h3H,1-2H3,(H,9,12,13), purity 93%
Compound 4: magnesium chloride, Cl2Mg, InChI=1S/2ClH.Mg/h2*1H;/q;;+2/p-2, purity 99%
Compound 5: water, H2O, InChI=1S/H2O/h1H2, purity 99.9%

System: water; phases: Liquid
Fixed: Pressure, kPa = 101.3
Property: Mass density, kg/m3 (Liquid); method: Vibrating tube method
Temperature, K	Mass density, kg/m3	uncertainty
288.15	999.129	8
298.15	997.047	8
308.15	994.063	8
318.15	990.244	8

System: water; phases: Liquid
Fixed: Pressure, kPa = 101.3
Property: Viscosity, Pa*s (Liquid); method: Capillary tube (Ostwald; Ubbelohde) method
Temperature, K	Viscosity, Pa*s	uncertainty
288.15	0.001138	2.5e-05
298.15	0.00089	2.5e-05
308.15	0.000719	2.4e-05
318.15	0.000596	2.4e-05

System: caffeine + magnesium chloride + water; phases: Liquid
Fixed: Pressure, kPa = 101.3
Property: Mass density, kg/m3 (Liquid); method: Vibrating tube method
Solvent: Molality, mol/kg of magnesium chloride	Molality, mol/kg of caffeine	Temperature, K	Mass density, kg/m3	uncertainty
0	0	288.15	999.129	8.001
0	0.0051	288.15	999.404	8.001
0	0.00695	288.15	999.505	8.001
0	0.00902	288.15	999.619	8.001
0	0.01993	288.15	1000.215	8.001
0	0.02992	288.15	1000.769	8.001
0	0.03531	288.15	1001.071	8.001
0	0.04008	288.15	1001.338	8.001
0	0.04992	288.15	1001.886	8.001
0	0	298.15	997.047	8.001
0	0.0051	298.15	997.304	8.001
0	0.00695	298.15	997.399	8.001
0	0.00902	298.15	997.504	8.001
0	0.01993	298.15	998.06	8.001
0	0.02992	298.15	998.576	8.001
0	0.03531	298.15	998.853	8.001
0	0.04008	298.15	999.101	8.001
0	0.04992	298.15	999.619	8.001
0	0	308.15	994.063	8.001
0	0.0051	308.15	994.303	8.001
0	0.00695	308.15	994.39	8.001
0	0.00902	308.15	994.488	8.001
0	0.01993	308.15	995.013	8.001
0	0.02992	308.15	995.497	8.001
0	0.03531	308.15	995.759	8.001
0	0.04008	308.15	996.001	8.001
0	0.04992	308.15	996.484	8.001
0	0	318.15	990.244	8.001
0	0.0051	318.15	990.464	8.001
0	0.00695	318.15	990.545	8.001
0	0.00902	318.15	990.637	8.001
0	0.01993	318.15	991.121	8.001
0	0.02992	318.15	991.571	8.001
0	0.03531	318.15	991.812	8.001
0	0.04008	318.15	992.025	8.001
0	0.04992	318.15	992.483	8.001
0.09999	0	288.15	1006.865	8.001
0.09999	0.00316	288.15	1006.984	8.001
0.09999	0.00497	288.15	1007.053	8.001
0.09999	0.00697	288.15	1007.128	8.001
0.09999	0.00902	288.15	1007.206	8.001
0.09999	0.00991	288.15	1007.24	8.001
0.09999	0.01969	288.15	1007.611	8.001
0.09999	0.02509	288.15	1007.818	8.001
0.09999	0.03033	288.15	1008.022	8.001
0.09999	0	298.15	1004.61	8
0.09999	0.00316	298.15	1004.722	8.001
0.09999	0.00497	298.15	1004.786	8.001
0.09999	0.00697	298.15	1004.856	8.001
0.09999	0.00902	298.15	1004.929	8.001
0.09999	0.00991	298.15	1004.961	8.001
0.09999	0.01969	298.15	1005.307	8.001
0.09999	0.02509	298.15	1005.498	8.001
0.09999	0.03033	298.15	1005.685	8.001
0.09999	0	308.15	1001.625	8.001
0.09999	0.00316	308.15	1001.728	8.001
0.09999	0.00497	308.15	1001.787	8.001
0.09999	0.00697	308.15	1001.852	8.001
0.09999	0.00902	308.15	1001.919	8.001
0.09999	0.00991	308.15	1001.948	8.001
0.09999	0.01969	308.15	1002.268	8.001
0.09999	0.02509	308.15	1002.445	8.001
0.09999	0.03033	308.15	1002.616	8.001
0.09999	0	318.15	997.848	8.001
0.09999	0.00316	318.15	997.94	8.001
0.09999	0.00497	318.15	997.995	8.001
0.09999	0.00697	318.15	998.054	8.001
0.09999	0.00902	318.15	998.115	8.001
0.09999	0.00991	318.15	998.143	8.001
0.09999	0.01969	318.15	998.435	8.001
0.09999	0.02509	318.15	998.598	8.001
0.09999	0.03033	318.15	998.759	8.001
0.24999	0	288.15	1017.79	8
0.24999	0.00314	288.15	1017.91	8.001
0.24999	0.00494	288.15	1017.978	8.001
0.24999	0.00701	288.15	1018.056	8.001
0.24999	0.00882	288.15	1018.125	8.001
0.24999	0.00996	288.15	1018.168	8.001
0.24999	0.01992	288.15	1018.543	8.001
0.24999	0.02555	288.15	1018.759	8.001
0.24999	0.02999	288.15	1018.929	8.001
0.24999	0	298.15	1015.321	8.001
0.24999	0.00314	298.15	1015.431	8.001
0.24999	0.00494	298.15	1015.494	8.001
0.24999	0.00701	298.15	1015.566	8.001
0.24999	0.00882	298.15	1015.63	8.001
0.24999	0.00996	298.15	1015.671	8.001
0.24999	0.01992	298.15	1016.02	8.001
0.24999	0.02555	298.15	1016.218	8.001
0.24999	0.02999	298.15	1016.375	8.001
0.24999	0	308.15	1012.53	8
0.24999	0.00314	308.15	1012.632	8.001
0.24999	0.00494	308.15	1012.69	8.001
0.24999	0.00701	308.15	1012.757	8.001
0.24999	0.00882	308.15	1012.816	8.001
0.24999	0.00996	308.15	1012.853	8.001
0.24999	0.01992	308.15	1013.175	8.001
0.24999	0.02555	308.15	1013.359	8.001
0.24999	0.02999	308.15	1013.503	8.001
0.24999	0	318.15	1008.92	8
0.24999	0.00314	318.15	1009.012	8.001
0.24999	0.00494	318.15	1009.065	8.001
0.24999	0.00701	318.15	1009.126	8.001
0.24999	0.00882	318.15	1009.18	8.001
0.24999	0.00996	318.15	1009.215	8.001
0.24999	0.01992	318.15	1009.512	8.001
0.24999	0.02555	318.15	1009.681	8.001
0.24999	0.02999	318.15	1009.815	8.001
0.49995	0	288.15	1034.95	8
0.49995	0.00299	288.15	1035.067	8.001
0.49995	0.00476	288.15	1035.131	8.001
0.49995	0.00671	288.15	1035.203	8.001
0.49995	0.00866	288.15	1035.274	8.001
0.49995	0.00973	288.15	1035.314	8.001
0.49995	0.01928	288.15	1035.666	8.001
0.49995	0.02519	288.15	1035.883	8.001
0.49995	0.02853	288.15	1036.007	8.001
0.49995	0	298.15	1032.22	8
0.49995	0.00299	298.15	1032.321	8.001
0.49995	0.00476	298.15	1032.381	8.001
0.49995	0.00671	298.15	1032.447	8.001
0.49995	0.00866	298.15	1032.513	8.001
0.49995	0.00973	298.15	1032.549	8.001
0.49995	0.01928	298.15	1032.874	8.001
0.49995	0.02519	298.15	1033.075	8.001
0.49995	0.02853	298.15	1033.189	8.001
0.49995	0	308.15	1029.55	8
0.49995	0.00299	308.15	1029.626	8.001
0.49995	0.00476	308.15	1029.681	8.001
0.49995	0.00671	308.15	1029.741	8.001
0.49995	0.00866	308.15	1029.802	8.001
0.49995	0.00973	308.15	1029.835	8.001
0.49995	0.01928	308.15	1030.132	8.001
0.49995	0.02519	308.15	1030.316	8.001
0.49995	0.02853	308.15	1030.42	8.001
0.49995	0	318.15	1026.01	8
0.49995	0.00299	318.15	1026.101	8.001
0.49995	0.00476	318.15	1026.151	8.001
0.49995	0.00671	318.15	1026.207	8.001
0.49995	0.00866	318.15	1026.262	8.001
0.49995	0.00973	318.15	1026.293	8.001
0.49995	0.01928	318.15	1026.564	8.001
0.49995	0.02519	318.15	1026.734	8.001
0.49995	0.02853	318.15	1026.832	8.001
0.74994	0	288.15	1050.837	8.001
0.74994	0.00294	288.15	1050.943	8.001
0.74994	0.0048	288.15	1051.011	8.001
0.74994	0.00681	288.15	1051.085	8.001
0.74994	0.00859	288.15	1051.151	8.001
0.74994	0.00954	288.15	1051.187	8.001
0.74994	0.01892	288.15	1051.531	8.001
0.74994	0.02519	288.15	1051.764	8.001
0.74994	0.02888	288.15	1051.903	8.001
0.74994	0	298.15	1048.21	8
0.74994	0.00294	298.15	1048.162	8.001
0.74994	0.0048	298.15	1048.225	8.001
0.74994	0.00681	298.15	1048.293	8.001
0.74994	0.00859	298.15	1048.354	8.001
0.74994	0.00954	298.15	1048.386	8.001
0.74994	0.01892	298.15	1048.704	8.001
0.74994	0.02519	298.15	1048.917	8.001
0.74994	0.02888	298.15	1049.044	8.001
0.74994	0	308.15	1045.263	8.001
0.74994	0.00294	308.15	1045.354	8.001
0.74994	0.0048	308.15	1045.411	8.001
0.74994	0.00681	308.15	1045.473	8.001
0.74994	0.00859	308.15	1045.528	8.001
0.74994	0.00954	308.15	1045.558	8.001
0.74994	0.01892	308.15	1045.848	8.001
0.74994	0.02519	308.15	1046.042	8.001
0.74994	0.02888	308.15	1046.158	8.001
0.74994	0	318.15	1041.401	8.001
0.74994	0.00294	318.15	1041.483	8.001
0.74994	0.0048	318.15	1041.535	8.001
0.74994	0.00681	318.15	1041.592	8.001
0.74994	0.00859	318.15	1041.643	8.001
0.74994	0.00954	318.15	1041.67	8.001
0.74994	0.01892	318.15	1041.935	8.001
0.74994	0.02519	318.15	1042.112	8.001
0.74994	0.02888	318.15	1042.22	8.001
0.99989	0	288.15	1065.458	8.001
0.99989	0.00291	288.15	1065.566	8.001
0.99989	0.00488	288.15	1065.639	8.001
0.99989	0.00634	288.15	1065.694	8.001
0.99989	0.00842	288.15	1065.772	8.001
0.99989	0.00942	288.15	1065.81	8.001
0.99989	0.01809	288.15	1066.136	8.001
0.99989	0.02282	288.15	1066.314	8.001
0.99989	0.02892	288.15	1066.543	8.001
0.99989	0	298.15	1062.645	8.001
0.99989	0.00291	298.15	1062.744	8.001
0.99989	0.00488	298.15	1062.811	8.001
0.99989	0.00634	298.15	1062.862	8.001
0.99989	0.00842	298.15	1062.933	8.001
0.99989	0.00942	298.15	1062.968	8.001
0.99989	0.01809	298.15	1063.266	8.001
0.99989	0.02282	298.15	1063.43	8.001
0.99989	0.02892	298.15	1063.642	8.001
0.99989	0	308.15	1059.402	8.001
0.99989	0.00291	308.15	1059.492	8.001
0.99989	0.00488	308.15	1059.553	8.001
0.99989	0.00634	308.15	1059.599	8.001
0.99989	0.00842	308.15	1059.664	8.001
0.99989	0.00942	308.15	1059.696	8.001
0.99989	0.01809	308.15	1059.967	8.001
0.99989	0.02282	308.15	1060.117	8.001
0.99989	0.02892	308.15	1060.309	8.001
0.99989	0	318.15	1055.251	8.001
0.99989	0.00291	318.15	1055.334	8.001
0.99989	0.00488	318.15	1055.39	8.001
0.99989	0.00634	318.15	1055.432	8.001
0.99989	0.00842	318.15	1055.491	8.001
0.99989	0.00942	318.15	1055.52	8.001
0.99989	0.01809	318.15	1055.77	8.001
0.99989	0.02282	318.15	1055.905	8.001
0.99989	0.02892	318.15	1056.081	8.001

System: caffeine + magnesium chloride + water; phases: Liquid
Fixed: Pressure, kPa = 101.3
Property: Viscosity, Pa*s (Liquid); method: Capillary tube (Ostwald; Ubbelohde) method
Solvent: Molality, mol/kg of magnesium chloride	Molality, mol/kg of caffeine	Temperature, K	Viscosity, Pa*s	uncertainty
0	0	288.15	0.001138	2.5e-05
0	0.00508	288.15	0.00114	2.5e-05
0	0.00693	288.15	0.001142	2.5e-05
0	0.009	288.15	0.001144	2.5e-05
0	0.01986	288.15	0.001147	2.5e-05
0	0.02978	288.15	0.001152	2.5e-05
0	0.03533	288.15	0.001154	2.5e-05
0	0.03983	288.15	0.001156	2.5e-05
0	0.04953	288.15	0.001162	2.5e-05
0	0	298.15	0.00089	2.5e-05
0	0.00508	298.15	0.000895	2.5e-05
0	0.00693	298.15	0.000896	2.5e-05
0	0.009	298.15	0.000896	2.5e-05
0	0.01986	298.15	0.0009	2.5e-05
0	0.02978	298.15	0.000905	2.5e-05
0	0.03533	298.15	0.000907	2.5e-05
0	0.03983	298.15	0.00091	2.5e-05
0	0.04953	298.15	0.000914	2.5e-05
0	0	308.15	0.000719	2.4e-05
0	0.00508	308.15	0.000723	2.4e-05
0	0.00693	308.15	0.000724	2.4e-05
0	0.009	308.15	0.000724	2.4e-05
0	0.01986	308.15	0.000728	2.4e-05
0	0.02978	308.15	0.000732	2.4e-05
0	0.03533	308.15	0.000735	2.4e-05
0	0.03983	308.15	0.000737	2.4e-05
0	0.04953	308.15	0.000741	2.5e-05
0	0	318.15	0.000596	2.4e-05
0	0.00508	318.15	0.000599	2.4e-05
0	0.00693	318.15	0.0006	2.4e-05
0	0.009	318.15	0.000601	2.4e-05
0	0.01986	318.15	0.000606	2.4e-05
0	0.02978	318.15	0.000609	2.4e-05
0	0.03533	318.15	0.000611	2.4e-05
0	0.03983	318.15	0.000613	2.4e-05
0	0.04953	318.15	0.000617	2.4e-05
0.0999	0	288.15	0.00121	2.5e-05
0.0999	0.00316	288.15	0.001213	2.5e-05
0.0999	0.00497	288.15	0.001213	2.5e-05
0.0999	0.00697	288.15	0.001214	2.5e-05
0.0999	0.00902	288.15	0.001216	2.5e-05
0.0999	0.00991	288.15	0.00122	2.5e-05
0.0999	0.01969	288.15	0.001222	2.5e-05
0.0999	0.02509	288.15	0.001223	2.5e-05
0.0999	0.03033	288.15	0.001224	2.5e-05
0.0999	0	298.15	0.000934	2.5e-05
0.0999	0.00316	298.15	0.000936	2.5e-05
0.0999	0.00497	298.15	0.000938	2.5e-05
0.0999	0.00697	298.15	0.000939	2.5e-05
0.0999	0.00902	298.15	0.000942	2.5e-05
0.0999	0.00991	298.15	0.000943	2.5e-05
0.0999	0.01969	298.15	0.000946	2.5e-05
0.0999	0.02509	298.15	0.000947	2.5e-05
0.0999	0.03033	298.15	0.000948	2.5e-05
0.0999	0	308.15	0.000751	2.5e-05
0.0999	0.00316	308.15	0.000752	2.5e-05
0.0999	0.00497	308.15	0.000753	2.5e-05
0.0999	0.00697	308.15	0.000755	2.5e-05
0.0999	0.00902	308.15	0.000758	2.5e-05
0.0999	0.00991	308.15	0.000759	2.5e-05
0.0999	0.01969	308.15	0.000762	2.5e-05
0.0999	0.02509	308.15	0.000763	2.5e-05
0.0999	0.03033	308.15	0.000764	2.5e-05
0.0999	0	318.15	0.000624	2.4e-05
0.0999	0.00316	318.15	0.000625	2.4e-05
0.0999	0.00497	318.15	0.000626	2.4e-05
0.0999	0.00697	318.15	0.000627	2.4e-05
0.0999	0.00902	318.15	0.000629	2.4e-05
0.0999	0.00991	318.15	0.000632	2.4e-05
0.0999	0.01969	318.15	0.000634	2.4e-05
0.0999	0.02509	318.15	0.000636	2.4e-05
0.0999	0.03033	318.15	0.000637	2.4e-05
0.24999	0	288.15	0.00125	2.5e-05
0.24999	0.00314	288.15	0.001253	2.5e-05
0.24999	0.00494	288.15	0.001255	2.5e-05
0.24999	0.00701	288.15	0.001256	2.5e-05
0.24999	0.00882	288.15	0.001257	2.5e-05
0.24999	0.00996	288.15	0.00126	2.5e-05
0.24999	0.01992	288.15	0.001262	2.5e-05
0.24999	0.02555	288.15	0.001263	2.5e-05
0.24999	0.02999	288.15	0.001264	2.5e-05
0.24999	0	298.15	0.000981	2.5e-05
0.24999	0.00314	298.15	0.000984	2.5e-05
0.24999	0.00494	298.15	0.000986	2.5e-05
0.24999	0.00701	298.15	0.000987	2.5e-05
0.24999	0.00882	298.15	0.000989	2.5e-05
0.24999	0.00996	298.15	0.000992	2.5e-05
0.24999	0.01992	298.15	0.000993	2.5e-05
0.24999	0.02555	298.15	0.000994	2.5e-05
0.24999	0.02999	298.15	0.000995	2.5e-05
0.24999	0	308.15	0.000794	2.5e-05
0.24999	0.00314	308.15	0.000797	2.5e-05
0.24999	0.00494	308.15	0.000798	2.5e-05
0.24999	0.00701	308.15	0.000799	2.5e-05
0.24999	0.00882	308.15	0.000801	2.5e-05
0.24999	0.00996	308.15	0.000803	2.5e-05
0.24999	0.01992	308.15	0.000805	2.5e-05
0.24999	0.02555	308.15	0.000806	2.5e-05
0.24999	0.02999	308.15	0.000807	2.5e-05
0.24999	0	318.15	0.000659	2.4e-05
0.24999	0.00314	318.15	0.000662	2.4e-05
0.24999	0.00494	318.15	0.000663	2.4e-05
0.24999	0.00701	318.15	0.000665	2.4e-05
0.24999	0.00882	318.15	0.000667	2.4e-05
0.24999	0.00996	318.15	0.000668	2.4e-05
0.24999	0.01992	318.15	0.00067	2.4e-05
0.24999	0.02555	318.15	0.00067	2.4e-05
0.24999	0.02999	318.15	0.000671	2.4e-05
0.49995	0	288.15	0.001355	2.5e-05
0.49995	0.00299	288.15	0.001358	2.5e-05
0.49995	0.00476	288.15	0.001359	2.5e-05
0.49995	0.00671	288.15	0.001361	2.5e-05
0.49995	0.00866	288.15	0.001363	2.5e-05
0.49995	0.00973	288.15	0.001365	2.5e-05
0.49995	0.01928	288.15	0.001367	2.5e-05
0.49995	0.02519	288.15	0.001369	2.5e-05
0.49995	0.02853	288.15	0.00137	2.5e-05
0.49995	0	298.15	0.001072	2.5e-05
0.49995	0.00299	298.15	0.001075	2.5e-05
0.49995	0.00476	298.15	0.001076	2.5e-05
0.49995	0.00671	298.15	0.001079	2.5e-05
0.49995	0.00866	298.15	0.00108	2.5e-05
0.49995	0.00973	298.15	0.001083	2.5e-05
0.49995	0.01928	298.15	0.001085	2.5e-05
0.49995	0.02519	298.15	0.001086	2.5e-05
0.49995	0.02853	298.15	0.001087	2.5e-05
0.49995	0	308.15	0.000862	2.5e-05
0.49995	0.00299	308.15	0.000864	2.5e-05
0.49995	0.00476	308.15	0.000866	2.5e-05
0.49995	0.00671	308.15	0.000868	2.5e-05
0.49995	0.00866	308.15	0.00087	2.5e-05
0.49995	0.00973	308.15	0.000872	2.5e-05
0.49995	0.01928	308.15	0.000874	2.5e-05
0.49995	0.02519	308.15	0.000875	2.5e-05
0.49995	0.02853	308.15	0.000875	2.5e-05
0.49995	0	318.15	0.000715	2.4e-05
0.49995	0.00299	318.15	0.000717	2.4e-05
0.49995	0.00476	318.15	0.000718	2.4e-05
0.49995	0.00671	318.15	0.00072	2.4e-05
0.49995	0.00866	318.15	0.000722	2.4e-05
0.49995	0.00973	318.15	0.000724	2.4e-05
0.49995	0.01928	318.15	0.000726	2.4e-05
0.49995	0.02519	318.15	0.000728	2.4e-05
0.49995	0.02853	318.15	0.000729	2.4e-05
0.74994	0	288.15	0.001445	2.6e-05
0.74994	0.00294	288.15	0.001447	2.6e-05
0.74994	0.0048	288.15	0.001448	2.6e-05
0.74994	0.00681	288.15	0.001449	2.6e-05
0.74994	0.00859	288.15	0.001451	2.6e-05
0.74994	0.00954	288.15	0.001453	2.6e-05
0.74994	0.01892	288.15	0.001456	2.6e-05
0.74994	0.02519	288.15	0.001458	2.6e-05
0.74994	0.02888	288.15	0.001459	2.6e-05
0.74994	0	298.15	0.001147	2.5e-05
0.74994	0.00294	298.15	0.00115	2.5e-05
0.74994	0.0048	298.15	0.001151	2.5e-05
0.74994	0.00681	298.15	0.001152	2.5e-05
0.74994	0.00859	298.15	0.001154	2.5e-05
0.74994	0.00954	298.15	0.001155	2.5e-05
0.74994	0.01892	298.15	0.001157	2.5e-05
0.74994	0.02519	298.15	0.001161	2.5e-05
0.74994	0.02888	298.15	0.001162	2.5e-05
0.74994	0	308.15	0.000934	2.5e-05
0.74994	0.00294	308.15	0.000937	2.5e-05
0.74994	0.0048	308.15	0.000938	2.5e-05
0.74994	0.00681	308.15	0.000939	2.5e-05
0.74994	0.00859	308.15	0.00094	2.5e-05
0.74994	0.00954	308.15	0.000941	2.5e-05
0.74994	0.01892	308.15	0.000944	2.5e-05
0.74994	0.02519	308.15	0.000946	2.5e-05
0.74994	0.02888	308.15	0.000947	2.5e-05
0.74994	0	318.15	0.000762	2.5e-05
0.74994	0.00294	318.15	0.000765	2.5e-05
0.74994	0.0048	318.15	0.000766	2.5e-05
0.74994	0.00681	318.15	0.000767	2.5e-05
0.74994	0.00859	318.15	0.000768	2.5e-05
0.74994	0.00954	318.15	0.00077	2.5e-05
0.74994	0.01892	318.15	0.000772	2.5e-05
0.74994	0.02519	318.15	0.000773	2.5e-05
0.74994	0.02888	318.15	0.000775	2.5e-05
0.99989	0	288.15	0.001534	2.6e-05
0.99989	0.00291	288.15	0.001537	2.6e-05
0.99989	0.00488	288.15	0.001539	2.6e-05
0.99989	0.00634	288.15	0.001541	2.6e-05
0.99989	0.00842	288.15	0.001542	2.6e-05
0.99989	0.00942	288.15	0.001544	2.6e-05
0.99989	0.01809	288.15	0.001547	2.6e-05
0.99989	0.02282	288.15	0.001549	2.6e-05
0.99989	0.02892	288.15	0.001552	2.6e-05
0.99989	0	298.15	0.001214	2.5e-05
0.99989	0.00291	298.15	0.001218	2.5e-05
0.99989	0.00488	298.15	0.00122	2.5e-05
0.99989	0.00634	298.15	0.00122	2.5e-05
0.99989	0.00842	298.15	0.001222	2.5e-05
0.99989	0.00942	298.15	0.001225	2.5e-05
0.99989	0.01809	298.15	0.001227	2.5e-05
0.99989	0.02282	298.15	0.00123	2.5e-05
0.99989	0.02892	298.15	0.001233	2.5e-05
0.99989	0	308.15	0.00101	2.5e-05
0.99989	0.00291	308.15	0.001013	2.5e-05
0.99989	0.00488	308.15	0.001016	2.5e-05
0.99989	0.00634	308.15	0.001018	2.5e-05
0.99989	0.00842	308.15	0.001018	2.5e-05
0.99989	0.00942	308.15	0.00102	2.5e-05
0.99989	0.01809	308.15	0.001022	2.5e-05
0.99989	0.02282	308.15	0.001025	2.5e-05
0.99989	0.02892	308.15	0.001027	2.5e-05
0.99989	0	318.15	0.000814	2.5e-05
0.99989	0.00291	318.15	0.000817	2.5e-05
0.99989	0.00488	318.15	0.000819	2.5e-05
0.99989	0.00634	318.15	0.000821	2.5e-05
0.99989	0.00842	318.15	0.000822	2.5e-05
0.99989	0.00942	318.15	0.000824	2.5e-05
0.99989	0.01809	318.15	0.000826	2.5e-05
0.99989	0.02282	318.15	0.000829	2.5e-05
0.99989	0.02892	318.15	0.000831	2.5e-05

System: 3,7-dihydro-1,3-dimethyl-1H-purine-2,6-dione + magnesium chloride + water; phases: Liquid
Fixed: Pressure, kPa = 101.3
Property: Mass density, kg/m3 (Liquid); method: Vibrating tube method
Solvent: Molality, mol/kg of magnesium chloride	Molality, mol/kg of 3,7-dihydro-1,3-dimethyl-1H-purine-2,6-dione	Temperature, K	Mass density, kg/m3	uncertainty
0	0.00208	288.15	999.241	8.001
0	0.00285	288.15	999.283	8.001
0	0.00378	288.15	999.333	8.001
0	0.00479	288.15	999.388	8.001
0	0.00578	288.15	999.443	8.001
0	0.00699	288.15	999.509	8.001
0	0.00776	288.15	999.551	8.001
0	0.00934	288.15	999.638	8.001
0	0.00986	288.15	999.667	8.001
0	0.00208	298.15	997.153	8.001
0	0.00285	298.15	997.192	8.001
0	0.00378	298.15	997.239	8.001
0	0.00479	298.15	997.291	8.001
0	0.00578	298.15	997.341	8.001
0	0.00699	298.15	997.404	8.001
0	0.00776	298.15	997.443	8.001
0	0.00934	298.15	997.526	8.001
0	0.00986	298.15	997.554	8.001
0	0.00208	308.15	994.165	8.001
0	0.00285	308.15	994.204	8.001
0	0.00378	308.15	994.25	8.001
0	0.00479	308.15	994.3	8.001
0	0.00578	308.15	994.35	8.001
0	0.00699	308.15	994.41	8.001
0	0.00776	308.15	994.448	8.001
0	0.00934	308.15	994.528	8.001
0	0.00986	308.15	994.554	8.001
0	0.00208	318.15	990.343	8.001
0	0.00285	318.15	990.379	8.001
0	0.00378	318.15	990.423	8.001
0	0.00479	318.15	990.472	8.001
0	0.00578	318.15	990.519	8.001
0	0.00699	318.15	990.578	8.001
0	0.00776	318.15	990.614	8.001
0	0.00934	318.15	990.691	8.001
0	0.00986	318.15	990.716	8.001
0.09999	0.00201	288.15	1006.943	8.001
0.09999	0.00412	288.15	1007.025	8.001
0.09999	0.00608	288.15	1007.102	8.001
0.09999	0.00794	288.15	1007.175	8.001
0.09999	0.00913	288.15	1007.222	8.001
0.09999	0.01018	288.15	1007.264	8.001
0.09999	0.01489	288.15	1007.449	8.001
0.09999	0.02067	288.15	1007.676	8.001
0.09999	0.00201	298.15	1004.68	8.001
0.09999	0.00412	298.15	1004.754	8.001
0.09999	0.00608	298.15	1004.823	8.001
0.09999	0.00794	298.15	1004.889	8.001
0.09999	0.00913	298.15	1004.931	8.001
0.09999	0.01018	298.15	1004.968	8.001
0.09999	0.01489	298.15	1005.135	8.001
0.09999	0.02067	298.15	1005.339	8.001
0.09999	0.00201	308.15	1001.691	8.001
0.09999	0.00412	308.15	1001.76	8.001
0.09999	0.00608	308.15	1001.826	8.001
0.09999	0.00794	308.15	1001.888	8.001
0.09999	0.00913	308.15	1001.928	8.001
0.09999	0.01018	308.15	1001.963	8.001
0.09999	0.01489	308.15	1002.123	8.001
0.09999	0.02067	308.15	1002.317	8.001
0.09999	0.00201	318.15	997.908	8.001
0.09999	0.00412	318.15	997.973	8.001
0.09999	0.00608	318.15	998.033	8.001
0.09999	0.00794	318.15	998.091	8.001
0.09999	0.00913	318.15	998.127	8.001
0.09999	0.01018	318.15	998.161	8.001
0.09999	0.01489	318.15	998.307	8.001
0.09999	0.02067	318.15	998.489	8.001
0.24999	0.002	288.15	1017.869	8.001
0.24999	0.00406	288.15	1017.948	8.001
0.24999	0.00602	288.15	1018.023	8.001
0.24999	0.00806	288.15	1018.103	8.001
0.24999	0.00882	288.15	1018.132	8.001
0.24999	0.0099	288.15	1018.174	8.001
0.24999	0.01477	288.15	1018.363	8.001
0.24999	0.02056	288.15	1018.592	8.001
0.24999	0.002	298.15	1015.391	8.001
0.24999	0.00406	298.15	1015.463	8.001
0.24999	0.00602	298.15	1015.53	8.001
0.24999	0.00806	298.15	1015.601	8.001
0.24999	0.00882	298.15	1015.628	8.001
0.24999	0.0099	298.15	1015.666	8.001
0.24999	0.01477	298.15	1015.838	8.001
0.24999	0.02056	298.15	1016.044	8.001
0.24999	0.002	308.15	1012.596	8.001
0.24999	0.00406	308.15	1012.662	8.001
0.24999	0.00602	308.15	1012.725	8.001
0.24999	0.00806	308.15	1012.791	8.001
0.24999	0.00882	308.15	1012.816	8.001
0.24999	0.0099	308.15	1012.851	8.001
0.24999	0.01477	308.15	1013.009	8.001
0.24999	0.02056	308.15	1013.201	8.001
0.24999	0.002	318.15	1008.979	8.001
0.24999	0.00406	318.15	1009.04	8.001
0.24999	0.00602	318.15	1009.098	8.001
0.24999	0.00806	318.15	1009.159	8.001
0.24999	0.00882	318.15	1009.182	8.001
0.24999	0.0099	318.15	1009.215	8.001
0.24999	0.01477	318.15	1009.36	8.001
0.24999	0.02056	318.15	1009.535	8.001
0.49995	0.0021	288.15	1035.038	8.001
0.49995	0.00371	288.15	1035.1	8.001
0.49995	0.00561	288.15	1035.173	8.001
0.49995	0.00772	288.15	1035.254	8.001
0.49995	0.0088	288.15	1035.296	8.001
0.49995	0.00993	288.15	1035.34	8.001
0.49995	0.01358	288.15	1035.482	8.001
0.49995	0.01731	288.15	1035.63	8.001
0.49995	0.0021	298.15	1032.292	8.001
0.49995	0.00371	298.15	1032.347	8.001
0.49995	0.00561	298.15	1032.412	8.001
0.49995	0.00772	298.15	1032.485	8.001
0.49995	0.0088	298.15	1032.522	8.001
0.49995	0.00993	298.15	1032.562	8.001
0.49995	0.01358	298.15	1032.687	8.001
0.49995	0.01731	298.15	1032.816	8.001
0.49995	0.0021	308.15	1029.6	8.001
0.49995	0.00371	308.15	1029.65	8.001
0.49995	0.00561	308.15	1029.71	8.001
0.49995	0.00772	308.15	1029.777	8.001
0.49995	0.0088	308.15	1029.812	8.001
0.49995	0.00993	308.15	1029.849	8.001
0.49995	0.01358	308.15	1029.966	8.001
0.49995	0.01731	308.15	1030.088	8.001
0.49995	0.0021	318.15	1026.077	8.001
0.49995	0.00371	318.15	1026.123	8.001
0.49995	0.00561	318.15	1026.179	8.001
0.49995	0.00772	318.15	1026.24	8.001
0.49995	0.0088	318.15	1026.272	8.001
0.49995	0.00993	318.15	1026.305	8.001
0.49995	0.01358	318.15	1026.413	8.001
0.49995	0.01731	318.15	1026.526	8.001
0.74994	0.00206	288.15	1050.916	8.001
0.74994	0.00391	288.15	1050.988	8.001
0.74994	0.00582	288.15	1051.062	8.001
0.74994	0.00749	288.15	1051.128	8.001
0.74994	0.00858	288.15	1051.171	8.001
0.74994	0.00944	288.15	1051.204	8.001
0.74994	0.01417	288.15	1051.389	8.001
0.74994	0.01957	288.15	1051.6	8.001
0.74994	0.00206	298.15	1048.134	8.001
0.74994	0.00391	298.15	1048.199	8.001
0.74994	0.00582	298.15	1048.266	8.001
0.74994	0.00749	298.15	1048.324	8.001
0.74994	0.00858	298.15	1048.363	8.001
0.74994	0.00944	298.15	1048.393	8.001
0.74994	0.01417	298.15	1048.559	8.001
0.74994	0.01957	298.15	1048.751	8.001
0.74994	0.00206	308.15	1045.328	8.001
0.74994	0.00391	308.15	1045.387	8.001
0.74994	0.00582	308.15	1045.448	8.001
0.74994	0.00749	308.15	1045.501	8.001
0.74994	0.00858	308.15	1045.536	8.001
0.74994	0.00944	308.15	1045.564	8.001
0.74994	0.01417	308.15	1045.715	8.001
0.74994	0.01957	308.15	1045.888	8.001
0.74994	0.00206	318.15	1041.46	8.001
0.74994	0.00391	318.15	1041.513	8.001
0.74994	0.00582	318.15	1041.568	8.001
0.74994	0.00749	318.15	1041.616	8.001
0.74994	0.00858	318.15	1041.648	8.001
0.74994	0.00944	318.15	1041.673	8.001
0.74994	0.01417	318.15	1041.811	8.001
0.74994	0.01957	318.15	1041.968	8.001
0.99989	0.002	288.15	1065.537	8.001
0.99989	0.00374	288.15	1065.605	8.001
0.99989	0.00579	288.15	1065.686	8.001
0.99989	0.00783	288.15	1065.767	8.001
0.99989	0.00851	288.15	1065.794	8.001
0.99989	0.00936	288.15	1065.829	8.001
0.99989	0.01399	288.15	1066.014	8.001
0.99989	0.01924	288.15	1066.222	8.001
0.99989	0.002	298.15	1062.715	8.001
0.99989	0.00374	298.15	1062.776	8.001
0.99989	0.00579	298.15	1062.848	8.001
0.99989	0.00783	298.15	1062.92	8.001
0.99989	0.00851	298.15	1062.944	8.001
0.99989	0.00936	298.15	1062.976	8.001
0.99989	0.01399	298.15	1063.14	8.001
0.99989	0.01924	298.15	1063.329	8.001
0.99989	0.002	308.15	1059.466	8.001
0.99989	0.00374	308.15	1059.522	8.001
0.99989	0.00579	308.15	1059.588	8.001
0.99989	0.00783	308.15	1059.654	8.001
0.99989	0.00851	308.15	1059.677	8.001
0.99989	0.00936	308.15	1059.705	8.001
0.99989	0.01399	308.15	1059.855	8.001
0.99989	0.01924	308.15	1060.029	8.001
0.99989	0.002	318.15	1055.31	8.001
0.99989	0.00374	318.15	1055.361	8.001
0.99989	0.00579	318.15	1055.421	8.001
0.99989	0.00783	318.15	1055.482	8.001
0.99989	0.00851	318.15	1055.503	8.001
0.99989	0.00936	318.15	1055.529	8.001
0.99989	0.01399	318.15	1055.667	8.001
0.99989	0.01924	318.15	1055.825	8.001

System: 3,7-dihydro-1,3-dimethyl-1H-purine-2,6-dione + magnesium chloride + water; phases: Liquid
Fixed: Pressure, kPa = 101.3
Property: Viscosity, Pa*s (Liquid); method: Capillary tube (Ostwald; Ubbelohde) method
Solvent: Molality, mol/kg of magnesium chloride	Molality, mol/kg of 3,7-dihydro-1,3-dimethyl-1H-purine-2,6-dione	Temperature, K	Viscosity, Pa*s	uncertainty
0	0.00213	288.15	0.001139	2.5e-05
0	0.00284	288.15	0.001139	2.5e-05
0	0.00394	288.15	0.00114	2.5e-05
0	0.00519	288.15	0.00114	2.5e-05
0	0.00617	288.15	0.001141	2.5e-05
0	0.00689	288.15	0.001141	2.5e-05
0	0.00819	288.15	0.001142	2.5e-05
0	0.00921	288.15	0.001142	2.5e-05
0	0.00213	298.15	0.000891	2.5e-05
0	0.00284	298.15	0.000892	2.5e-05
0	0.00394	298.15	0.000892	2.5e-05
0	0.00519	298.15	0.000892	2.5e-05
0	0.00617	298.15	0.000893	2.5e-05
0	0.00689	298.15	0.000893	2.5e-05
0	0.00819	298.15	0.000894	2.5e-05
0	0.00921	298.15	0.000895	2.5e-05
0	0.00213	308.15	0.000719	2.5e-05
0	0.00284	308.15	0.00072	2.4e-05
0	0.00394	308.15	0.00072	2.4e-05
0	0.00519	308.15	0.000721	2.4e-05
0	0.00617	308.15	0.000722	2.4e-05
0	0.00689	308.15	0.000722	2.4e-05
0	0.00819	308.15	0.000723	2.4e-05
0	0.00921	308.15	0.000723	2.4e-05
0	0.00213	318.15	0.000597	2.4e-05
0	0.00284	318.15	0.000597	2.4e-05
0	0.00394	318.15	0.000598	2.4e-05
0	0.00519	318.15	0.000598	2.4e-05
0	0.00617	318.15	0.000599	2.4e-05
0	0.00689	318.15	0.000599	2.4e-05
0	0.00819	318.15	0.000599	2.4e-05
0	0.00921	318.15	0.0006	2.4e-05
0.09999	0.00201	288.15	0.00121	2.5e-05
0.09999	0.00412	288.15	0.001211	2.5e-05
0.09999	0.00608	288.15	0.001212	2.5e-05
0.09999	0.00794	288.15	0.001213	2.5e-05
0.09999	0.00913	288.15	0.001214	2.5e-05
0.09999	0.01018	288.15	0.001215	2.5e-05
0.09999	0.01489	288.15	0.001216	2.5e-05
0.09999	0.02067	288.15	0.001217	2.5e-05
0.09999	0.00201	298.15	0.000934	2.5e-05
0.09999	0.00412	298.15	0.000935	2.5e-05
0.09999	0.00608	298.15	0.000936	2.5e-05
0.09999	0.00794	298.15	0.000937	2.5e-05
0.09999	0.00913	298.15	0.000937	2.5e-05
0.09999	0.01018	298.15	0.000939	2.5e-05
0.09999	0.01489	298.15	0.00094	2.5e-05
0.09999	0.02067	298.15	0.000941	2.5e-05
0.09999	0.00201	308.15	0.00075	2.5e-05
0.09999	0.00412	308.15	0.000751	2.5e-05
0.09999	0.00608	308.15	0.000752	2.5e-05
0.09999	0.00794	308.15	0.000754	2.5e-05
0.09999	0.00913	308.15	0.000755	2.5e-05
0.09999	0.01018	308.15	0.000755	2.5e-05
0.09999	0.01489	308.15	0.000756	2.5e-05
0.09999	0.02067	308.15	0.000757	2.5e-05
0.09999	0.00201	318.15	0.000624	2.4e-05
0.09999	0.00412	318.15	0.000625	2.4e-05
0.09999	0.00608	318.15	0.000625	2.4e-05
0.09999	0.00794	318.15	0.000627	2.4e-05
0.09999	0.00913	318.15	0.000627	2.4e-05
0.09999	0.01018	318.15	0.000628	2.4e-05
0.09999	0.01489	318.15	0.000629	2.4e-05
0.09999	0.02067	318.15	0.00063	2.4e-05
0.24999	0.002	288.15	0.001251	2.5e-05
0.24999	0.00406	288.15	0.001251	2.5e-05
0.24999	0.00602	288.15	0.001252	2.5e-05
0.24999	0.00806	288.15	0.001253	2.5e-05
0.24999	0.00882	288.15	0.001254	2.5e-05
0.24999	0.0099	288.15	0.001255	2.5e-05
0.24999	0.01477	288.15	0.001256	2.5e-05
0.24999	0.02056	288.15	0.001257	2.5e-05
0.24999	0.002	298.15	0.00098	2.5e-05
0.24999	0.00406	298.15	0.000981	2.5e-05
0.24999	0.00602	298.15	0.000983	2.5e-05
0.24999	0.00806	298.15	0.000984	2.5e-05
0.24999	0.00882	298.15	0.000985	2.5e-05
0.24999	0.0099	298.15	0.000986	2.5e-05
0.24999	0.01477	298.15	0.000987	2.5e-05
0.24999	0.02056	298.15	0.000988	2.5e-05
0.24999	0.002	308.15	0.000795	2.5e-05
0.24999	0.00406	308.15	0.000795	2.5e-05
0.24999	0.00602	308.15	0.000796	2.5e-05
0.24999	0.00806	308.15	0.000797	2.5e-05
0.24999	0.00882	308.15	0.000797	2.5e-05
0.24999	0.0099	308.15	0.000798	2.5e-05
0.24999	0.01477	308.15	0.0008	2.5e-05
0.24999	0.02056	308.15	0.000801	2.5e-05
0.24999	0.002	318.15	0.000658	2.4e-05
0.24999	0.00406	318.15	0.000659	2.4e-05
0.24999	0.00602	318.15	0.00066	2.4e-05
0.24999	0.00806	318.15	0.000661	2.4e-05
0.24999	0.00882	318.15	0.000663	2.4e-05
0.24999	0.0099	318.15	0.000664	2.4e-05
0.24999	0.01477	318.15	0.000664	2.4e-05
0.24999	0.02056	318.15	0.000665	2.4e-05
0.49995	0.0021	288.15	0.001356	2.5e-05
0.49995	0.00371	288.15	0.001357	2.5e-05
0.49995	0.00561	288.15	0.001357	2.5e-05
0.49995	0.00772	288.15	0.001358	2.5e-05
0.49995	0.0088	288.15	0.001359	2.5e-05
0.49995	0.00993	288.15	0.00136	2.5e-05
0.49995	0.01358	288.15	0.00136	2.5e-05
0.49995	0.01731	288.15	0.001362	2.5e-05
0.49995	0.0021	298.15	0.001072	2.5e-05
0.49995	0.00371	298.15	0.001073	2.5e-05
0.49995	0.00561	298.15	0.001074	2.5e-05
0.49995	0.00772	298.15	0.001075	2.5e-05
0.49995	0.0088	298.15	0.001076	2.5e-05
0.49995	0.00993	298.15	0.001077	2.5e-05
0.49995	0.01358	298.15	0.001078	2.5e-05
0.49995	0.01731	298.15	0.001079	2.5e-05
0.49995	0.0021	308.15	0.000863	2.5e-05
0.49995	0.00371	308.15	0.000864	2.5e-05
0.49995	0.00561	308.15	0.000864	2.5e-05
0.49995	0.00772	308.15	0.000865	2.5e-05
0.49995	0.0088	308.15	0.000866	2.5e-05
0.49995	0.00993	308.15	0.000866	2.5e-05
0.49995	0.01358	308.15	0.000868	2.5e-05
0.49995	0.01731	308.15	0.000869	2.5e-05
0.49995	0.0021	318.15	0.000715	2.4e-05
0.49995	0.00371	318.15	0.000716	2.4e-05
0.49995	0.00561	318.15	0.000717	2.4e-05
0.49995	0.00772	318.15	0.000718	2.4e-05
0.49995	0.0088	318.15	0.000719	2.4e-05
0.49995	0.00993	318.15	0.000719	2.4e-05
0.49995	0.01358	318.15	0.00072	2.4e-05
0.49995	0.01731	318.15	0.000721	2.4e-05
0.74994	0.00206	288.15	0.001446	2.6e-05
0.74994	0.00391	288.15	0.001447	2.6e-05
0.74994	0.00582	288.15	0.001448	2.6e-05
0.74994	0.00749	288.15	0.001449	2.6e-05
0.74994	0.00858	288.15	0.00145	2.6e-05
0.74994	0.00944	288.15	0.00145	2.6e-05
0.74994	0.01417	288.15	0.001451	2.6e-05
0.74994	0.01957	288.15	0.001452	2.6e-05
0.74994	0.00206	298.15	0.001149	2.5e-05
0.74994	0.00391	298.15	0.00115	2.5e-05
0.74994	0.00582	298.15	0.001151	2.5e-05
0.74994	0.00749	298.15	0.001151	2.5e-05
0.74994	0.00858	298.15	0.001152	2.5e-05
0.74994	0.00944	298.15	0.001153	2.5e-05
0.74994	0.01417	298.15	0.001153	2.5e-05
0.74994	0.01957	298.15	0.001155	2.5e-05
0.74994	0.00206	308.15	0.000936	2.5e-05
0.74994	0.00391	308.15	0.000937	2.5e-05
0.74994	0.00582	308.15	0.000937	2.5e-05
0.74994	0.00749	308.15	0.000938	2.5e-05
0.74994	0.00858	308.15	0.000939	2.5e-05
0.74994	0.00944	308.15	0.000939	2.5e-05
0.74994	0.01417	308.15	0.00094	2.5e-05
0.74994	0.01957	308.15	0.000941	2.5e-05
0.74994	0.00206	318.15	0.000763	2.5e-05
0.74994	0.00391	318.15	0.000764	2.5e-05
0.74994	0.00582	318.15	0.000765	2.5e-05
0.74994	0.00749	318.15	0.000765	2.5e-05
0.74994	0.00858	318.15	0.000766	2.5e-05
0.74994	0.00944	318.15	0.000767	2.5e-05
0.74994	0.01417	318.15	0.000768	2.5e-05
0.74994	0.01957	318.15	0.000769	2.5e-05
0.99989	0.002	288.15	0.001535	2.6e-05
0.99989	0.00374	288.15	0.001536	2.6e-05
0.99989	0.00579	288.15	0.001537	2.6e-05
0.99989	0.00783	288.15	0.001538	2.6e-05
0.99989	0.00851	288.15	0.001538	2.6e-05
0.99989	0.00936	288.15	0.001539	2.6e-05
0.99989	0.01399	288.15	0.00154	2.6e-05
0.99989	0.01924	288.15	0.001541	2.6e-05
0.99989	0.002	298.15	0.001215	2.5e-05
0.99989	0.00374	298.15	0.001216	2.5e-05
0.99989	0.00579	298.15	0.001217	2.5e-05
0.99989	0.00783	298.15	0.001217	2.5e-05
0.99989	0.00851	298.15	0.001219	2.5e-05
0.99989	0.00936	298.15	0.00122	2.5e-05
0.99989	0.01399	298.15	0.00122	2.5e-05
0.99989	0.01924	298.15	0.001223	2.5e-05
0.99989	0.002	308.15	0.001011	2.5e-05
0.99989	0.00374	308.15	0.001012	2.5e-05
0.99989	0.00579	308.15	0.001013	2.5e-05
0.99989	0.00783	308.15	0.001014	2.5e-05
0.99989	0.00851	308.15	0.001015	2.5e-05
0.99989	0.00936	308.15	0.001015	2.5e-05
0.99989	0.01399	308.15	0.001016	2.5e-05
0.99989	0.01924	308.15	0.001017	2.5e-05
0.99989	0.002	318.15	0.000815	2.5e-05
0.99989	0.00374	318.15	0.000816	2.5e-05
0.99989	0.00579	318.15	0.000816	2.5e-05
0.99989	0.00783	318.15	0.000818	2.5e-05
0.99989	0.00851	318.15	0.000818	2.5e-05
0.99989	0.00936	318.15	0.000819	2.5e-05
0.99989	0.01399	318.15	0.00082	2.5e-05
0.99989	0.01924	318.15	0.000821	2.5e-05

System: 1H-purine-2,6-dione, 3,7-dihydro-3,7-dimethyl- + magnesium chloride + water; phases: Liquid
Fixed: Pressure, kPa = 101.3
Property: Mass density, kg/m3 (Liquid); method: Vibrating tube method
Solvent: Molality, mol/kg of magnesium chloride	Molality, mol/kg of 1H-purine-2,6-dione, 3,7-dihydro-3,7-dimethyl-	Temperature, K	Mass density, kg/m3	uncertainty
0	0.00051	288.15	999.157	8.032
0	0.0007	288.15	999.167	8.032
0	0.0009	288.15	999.177	8.032
0	0.00098	288.15	999.182	8.032
0	0.00123	288.15	999.195	8.032
0	0.00148	288.15	999.209	8.032
0	0.00183	288.15	999.228	8.032
0	0.00213	288.15	999.244	8.032
0	0.00051	298.15	997.073	8.032
0	0.0007	298.15	997.083	8.032
0	0.0009	298.15	997.093	8.032
0	0.00098	298.15	997.097	8.032
0	0.00123	298.15	997.11	8.032
0	0.00148	298.15	997.123	8.032
0	0.00183	298.15	997.141	8.032
0	0.00213	298.15	997.156	8.032
0	0.00051	308.15	994.088	8.032
0	0.0007	308.15	994.097	8.031
0	0.0009	308.15	994.107	8.031
0	0.00098	308.15	994.111	8.031
0	0.00123	308.15	994.123	8.031
0	0.00148	308.15	994.135	8.031
0	0.00183	308.15	994.152	8.031
0	0.00213	308.15	994.167	8.032
0	0.00051	318.15	990.268	8.031
0	0.0007	318.15	990.277	8.031
0	0.0009	318.15	990.287	8.031
0	0.00098	318.15	990.291	8.031
0	0.00123	318.15	990.303	8.031
0	0.00148	318.15	990.314	8.031
0	0.00183	318.15	990.331	8.031
0	0.00213	318.15	990.346	8.031
0.09999	0.00049	288.15	1006.884	8.034
0.09999	0.00058	288.15	1006.887	8.033
0.09999	0.00079	288.15	1006.895	8.033
0.09999	0.00104	288.15	1006.905	8.033
0.09999	0.00118	288.15	1006.911	8.033
0.09999	0.00145	288.15	1006.921	8.033
0.09999	0.00182	288.15	1006.936	8.033
0.09999	0.00208	288.15	1006.946	8.033
0.09999	0.00049	298.15	1004.628	8.034
0.09999	0.00058	298.15	1004.631	8.033
0.09999	0.00079	298.15	1004.639	8.033
0.09999	0.00104	298.15	1004.648	8.033
0.09999	0.00118	298.15	1004.652	8.033
0.09999	0.00145	298.15	1004.662	8.033
0.09999	0.00182	298.15	1004.675	8.033
0.09999	0.00208	298.15	1004.684	8.033
0.09999	0.00049	308.15	1001.64	8.034
0.09999	0.00058	308.15	1001.643	8.032
0.09999	0.00079	308.15	1001.649	8.032
0.09999	0.00104	308.15	1001.657	8.032
0.09999	0.00118	308.15	1001.661	8.032
0.09999	0.00145	308.15	1001.669	8.032
0.09999	0.00182	308.15	1001.681	8.032
0.09999	0.00208	308.15	1001.689	8.032
0.09999	0.00049	318.15	997.862	8.032
0.09999	0.00058	318.15	997.864	8.032
0.09999	0.00079	318.15	997.87	8.032
0.09999	0.00104	318.15	997.877	8.032
0.09999	0.00118	318.15	997.881	8.032
0.09999	0.00145	318.15	997.889	8.032
0.09999	0.00182	318.15	997.899	8.032
0.09999	0.00208	318.15	997.907	8.032
0.24999	0.00048	288.15	1017.811	8.036
0.24999	0.00058	288.15	1017.814	8.035
0.24999	0.00079	288.15	1017.822	8.035
0.24999	0.0009	288.15	1017.827	8.035
0.24999	0.00125	288.15	1017.84	8.035
0.24999	0.00146	288.15	1017.848	8.035
0.24999	0.00173	288.15	1017.859	8.035
0.24999	0.00199	288.15	1017.869	8.035
0.24999	0.00048	298.15	1015.339	8.035
0.24999	0.00058	298.15	1015.342	8.034
0.24999	0.00079	298.15	1015.35	8.034
0.24999	0.0009	298.15	1015.353	8.034
0.24999	0.00125	298.15	1015.366	8.034
0.24999	0.00146	298.15	1015.373	8.034
0.24999	0.00173	298.15	1015.382	8.034
0.24999	0.00199	298.15	1015.391	8.035
0.24999	0.00048	308.15	1012.547	8.036
0.24999	0.00058	308.15	1012.55	8.034
0.24999	0.00079	308.15	1012.557	8.034
0.24999	0.0009	308.15	1012.56	8.034
0.24999	0.00125	308.15	1012.571	8.034
0.24999	0.00146	308.15	1012.578	8.034
0.24999	0.00173	308.15	1012.586	8.034
0.24999	0.00199	308.15	1012.595	8.034
0.24999	0.00048	318.15	1008.934	8.035
0.24999	0.00058	318.15	1008.937	8.033
0.24999	0.00079	318.15	1008.943	8.033
0.24999	0.0009	318.15	1008.946	8.033
0.24999	0.00125	318.15	1008.957	8.033
0.24999	0.00146	318.15	1008.963	8.033
0.24999	0.00173	318.15	1008.971	8.033
0.24999	0.00199	318.15	1008.979	8.034
0.49995	0.00047	288.15	1034.976	8.041
0.49995	0.00058	288.15	1034.98	8.038
0.49995	0.00079	288.15	1034.988	8.038
0.49995	0.00085	288.15	1034.99	8.047
0.49995	0.00127	288.15	1035.006	8.038
0.49995	0.00149	288.15	1035.015	8.038
0.49995	0.00179	288.15	1035.026	8.038
0.49995	0.00199	288.15	1035.034	8.039
0.49995	0.00047	298.15	1032.237	8.038
0.49995	0.00058	298.15	1032.24	8.037
0.49995	0.00079	298.15	1032.248	8.037
0.49995	0.00085	298.15	1032.25	8.044
0.49995	0.00127	298.15	1032.264	8.037
0.49995	0.00149	298.15	1032.272	8.037
0.49995	0.00179	298.15	1032.282	8.037
0.49995	0.00199	298.15	1032.289	8.038
0.49995	0.00047	308.15	1029.548	8.04
0.49995	0.00058	308.15	1029.551	8.037
0.49995	0.00079	308.15	1029.558	8.037
0.49995	0.00085	308.15	1029.56	8.046
0.49995	0.00127	308.15	1029.573	8.037
0.49995	0.00149	308.15	1029.579	8.037
0.49995	0.00179	308.15	1029.589	8.037
0.49995	0.00199	308.15	1029.595	8.038
0.49995	0.00047	318.15	1026.031	8.042
0.49995	0.00058	318.15	1026.034	8.036
0.49995	0.00079	318.15	1026.04	8.036
0.49995	0.00085	318.15	1026.042	8.054
0.49995	0.00127	318.15	1026.054	8.036
0.49995	0.00149	318.15	1026.06	8.036
0.49995	0.00179	318.15	1026.069	8.036
0.49995	0.00199	318.15	1026.075	8.038
0.74994	0.00045	288.15	1050.854	8.041
0.74994	0.00058	288.15	1050.859	8.04
0.74994	0.00079	288.15	1050.867	8.041
0.74994	0.00086	288.15	1050.87	8.047
0.74994	0.0012	288.15	1050.883	8.04
0.74994	0.00144	288.15	1050.893	8.04
0.74994	0.00183	288.15	1050.907	8.04
0.74994	0.00204	288.15	1050.916	8.041
0.74994	0.00045	298.15	1048.079	8.04
0.74994	0.00058	298.15	1048.083	8.04
0.74994	0.00079	298.15	1048.09	8.04
0.74994	0.00086	298.15	1048.093	8.042
0.74994	0.0012	298.15	1048.104	8.04
0.74994	0.00144	298.15	1048.113	8.04
0.74994	0.00183	298.15	1048.126	8.04
0.74994	0.00204	298.15	1048.133	8.04
0.74994	0.00045	308.15	1045.277	8.041
0.74994	0.00058	308.15	1045.281	8.039
0.74994	0.00079	308.15	1045.287	8.04
0.74994	0.00086	308.15	1045.29	8.05
0.74994	0.0012	308.15	1045.3	8.039
0.74994	0.00144	308.15	1045.307	8.039
0.74994	0.00183	308.15	1045.319	8.039
0.74994	0.00204	308.15	1045.326	8.04
0.74994	0.00045	318.15	1041.414	8.04
0.74994	0.00058	318.15	1041.418	8.039
0.74994	0.00079	318.15	1041.424	8.039
0.74994	0.00086	318.15	1041.426	8.049
0.74994	0.0012	318.15	1041.435	8.039
0.74994	0.00144	318.15	1041.442	8.039
0.74994	0.00183	318.15	1041.453	8.039
0.74994	0.00204	318.15	1041.459	8.039
0.99989	0.00049	288.15	1065.478	8.043
0.99989	0.00058	288.15	1065.481	8.043
0.99989	0.00079	288.15	1065.49	8.043
0.99989	0.00087	288.15	1065.493	8.043
0.99989	0.00111	288.15	1065.503	8.043
0.99989	0.00151	288.15	1065.519	8.043
0.99989	0.00174	288.15	1065.528	8.043
0.99989	0.00202	288.15	1065.539	8.043
0.99989	0.00049	298.15	1062.662	8.043
0.99989	0.00058	298.15	1062.665	8.043
0.99989	0.00079	298.15	1062.673	8.043
0.99989	0.00087	298.15	1062.676	8.043
0.99989	0.00111	298.15	1062.684	8.043
0.99989	0.00151	298.15	1062.698	8.043
0.99989	0.00174	298.15	1062.706	8.043
0.99989	0.00202	298.15	1062.716	8.043
0.99989	0.00049	308.15	1059.417	8.044
0.99989	0.00058	308.15	1059.419	8.042
0.99989	0.00079	308.15	1059.426	8.042
0.99989	0.00087	308.15	1059.429	8.042
0.99989	0.00111	308.15	1059.436	8.042
0.99989	0.00151	308.15	1059.448	8.042
0.99989	0.00174	308.15	1059.455	8.042
0.99989	0.00202	308.15	1059.464	8.042
0.99989	0.00049	318.15	1055.265	8.041
0.99989	0.00058	318.15	1055.267	8.041
0.99989	0.00079	318.15	1055.273	8.041
0.99989	0.00087	318.15	1055.276	8.041
0.99989	0.00111	318.15	1055.282	8.041
0.99989	0.00151	318.15	1055.294	8.041
0.99989	0.00174	318.15	1055.3	8.041
0.99989	0.00202	318.15	1055.308	8.041

System: 1H-purine-2,6-dione, 3,7-dihydro-3,7-dimethyl- + magnesium chloride + water; phases: Liquid
Fixed: Pressure, kPa = 101.3
Property: Viscosity, Pa*s (Liquid); method: Capillary tube (Ostwald; Ubbelohde) method
Solvent: Molality, mol/kg of magnesium chloride	Molality, mol/kg of 1H-purine-2,6-dione, 3,7-dihydro-3,7-dimethyl-	Temperature, K	Viscosity, Pa*s	uncertainty
0	0.00051	288.15	0.001138	2.7e-05
0	0.0007	288.15	0.001139	2.7e-05
0	0.0009	288.15	0.001139	2.7e-05
0	0.00098	288.15	0.001139	2.7e-05
0	0.00123	288.15	0.001139	2.7e-05
0	0.00147	288.15	0.001139	2.7e-05
0	0.00182	288.15	0.001139	2.7e-05
0	0.00212	288.15	0.001139	2.7e-05
0	0.00051	298.15	0.000891	2.7e-05
0	0.0007	298.15	0.000891	2.6e-05
0	0.0009	298.15	0.000891	2.6e-05
0	0.00098	298.15	0.000891	2.6e-05
0	0.00123	298.15	0.000891	2.6e-05
0	0.00147	298.15	0.000891	2.6e-05
0	0.00182	298.15	0.000891	2.6e-05
0	0.00212	298.15	0.000891	2.6e-05
0	0.00051	308.15	0.00072	2.6e-05
0	0.0007	308.15	0.00072	2.5e-05
0	0.0009	308.15	0.00072	2.5e-05
0	0.00098	308.15	0.00072	2.5e-05
0	0.00123	308.15	0.00072	2.5e-05
0	0.00147	308.15	0.00072	2.5e-05
0	0.00182	308.15	0.00072	2.5e-05
0	0.00212	308.15	0.00072	2.6e-05
0	0.00051	318.15	0.000597	2.5e-05
0	0.0007	318.15	0.000597	2.5e-05
0	0.0009	318.15	0.000597	2.5e-05
0	0.00098	318.15	0.000597	2.5e-05
0	0.00123	318.15	0.000597	2.5e-05
0	0.00147	318.15	0.000597	2.5e-05
0	0.00182	318.15	0.000597	2.5e-05
0	0.00212	318.15	0.000597	2.5e-05
0.09999	0.00049	288.15	0.00121	2.9e-05
0.09999	0.00058	288.15	0.00121	2.8e-05
0.09999	0.00079	288.15	0.00121	2.8e-05
0.09999	0.00104	288.15	0.00121	2.8e-05
0.09999	0.00118	288.15	0.00121	2.8e-05
0.09999	0.00145	288.15	0.00121	2.8e-05
0.09999	0.00182	288.15	0.001211	2.8e-05
0.09999	0.00208	288.15	0.001211	2.8e-05
0.09999	0.00049	298.15	0.000934	2.9e-05
0.09999	0.00058	298.15	0.000934	2.6e-05
0.09999	0.00079	298.15	0.000934	2.6e-05
0.09999	0.00104	298.15	0.000934	2.6e-05
0.09999	0.00118	298.15	0.000934	2.6e-05
0.09999	0.00145	298.15	0.000934	2.6e-05
0.09999	0.00182	298.15	0.000935	2.6e-05
0.09999	0.00208	298.15	0.000935	2.6e-05
0.09999	0.00049	308.15	0.000751	2.7e-05
0.09999	0.00058	308.15	0.000751	2.6e-05
0.09999	0.00079	308.15	0.000751	2.5e-05
0.09999	0.00104	308.15	0.000751	2.5e-05
0.09999	0.00118	308.15	0.000751	2.5e-05
0.09999	0.00145	308.15	0.000751	2.5e-05
0.09999	0.00182	308.15	0.000752	2.5e-05
0.09999	0.00208	308.15	0.000752	2.6e-05
0.09999	0.00049	318.15	0.000624	2.5e-05
0.09999	0.00058	318.15	0.000624	2.5e-05
0.09999	0.00079	318.15	0.000624	2.5e-05
0.09999	0.00104	318.15	0.000624	2.5e-05
0.09999	0.00118	318.15	0.000624	2.5e-05
0.09999	0.00145	318.15	0.000624	2.5e-05
0.09999	0.00182	318.15	0.000624	2.5e-05
0.09999	0.00208	318.15	0.000625	2.5e-05
0.24999	0.00048	288.15	0.00125	2.8e-05
0.24999	0.00058	288.15	0.00125	2.8e-05
0.24999	0.00079	288.15	0.00125	2.8e-05
0.24999	0.0009	288.15	0.00125	2.8e-05
0.24999	0.00125	288.15	0.00125	2.8e-05
0.24999	0.00146	288.15	0.00125	2.8e-05
0.24999	0.00173	288.15	0.001251	2.8e-05
0.24999	0.00199	288.15	0.001251	2.8e-05
0.24999	0.00048	298.15	0.000981	2.9e-05
0.24999	0.00058	298.15	0.000981	2.6e-05
0.24999	0.00079	298.15	0.000981	2.6e-05
0.24999	0.0009	298.15	0.000981	2.6e-05
0.24999	0.00125	298.15	0.000981	2.6e-05
0.24999	0.00146	298.15	0.000982	2.6e-05
0.24999	0.00173	298.15	0.000982	2.6e-05
0.24999	0.00199	298.15	0.000982	2.7e-05
0.24999	0.00048	308.15	0.000794	2.6e-05
0.24999	0.00058	308.15	0.000794	2.6e-05
0.24999	0.00079	308.15	0.000794	2.6e-05
0.24999	0.0009	308.15	0.000794	2.6e-05
0.24999	0.00125	308.15	0.000794	2.6e-05
0.24999	0.00146	308.15	0.000794	2.6e-05
0.24999	0.00173	308.15	0.000794	2.6e-05
0.24999	0.00199	308.15	0.000795	2.6e-05
0.24999	0.00048	318.15	0.000659	2.5e-05
0.24999	0.00058	318.15	0.000659	2.5e-05
0.24999	0.00079	318.15	0.000659	2.5e-05
0.24999	0.0009	318.15	0.000659	2.5e-05
0.24999	0.00125	318.15	0.000659	2.5e-05
0.24999	0.00146	318.15	0.000659	2.5e-05
0.24999	0.00173	318.15	0.000659	2.5e-05
0.24999	0.00199	318.15	0.00066	2.5e-05
0.49995	0.00047	288.15	0.001355	2.8e-05
0.49995	0.00058	288.15	0.001355	2.8e-05
0.49995	0.00079	288.15	0.001355	2.8e-05
0.49995	0.00085	288.15	0.001355	2.9e-05
0.49995	0.00127	288.15	0.001355	2.8e-05
0.49995	0.00149	288.15	0.001355	2.8e-05
0.49995	0.00179	288.15	0.001356	2.8e-05
0.49995	0.00199	288.15	0.001356	2.8e-05
0.49995	0.00047	298.15	0.001072	2.7e-05
0.49995	0.00058	298.15	0.001072	2.7e-05
0.49995	0.00079	298.15	0.001072	2.7e-05
0.49995	0.00085	298.15	0.001072	2.7e-05
0.49995	0.00127	298.15	0.001072	2.7e-05
0.49995	0.00149	298.15	0.001072	2.7e-05
0.49995	0.00179	298.15	0.001073	2.7e-05
0.49995	0.00199	298.15	0.001073	2.7e-05
0.49995	0.00047	308.15	0.000862	2.7e-05
0.49995	0.00058	308.15	0.000862	2.6e-05
0.49995	0.00079	308.15	0.000862	2.6e-05
0.49995	0.00085	308.15	0.000862	2.6e-05
0.49995	0.00127	308.15	0.000862	2.6e-05
0.49995	0.00149	308.15	0.000862	2.6e-05
0.49995	0.00179	308.15	0.000863	2.6e-05
0.49995	0.00199	308.15	0.000863	2.6e-05
0.49995	0.00047	318.15	0.000715	2.5e-05
0.49995	0.00058	318.15	0.000715	2.5e-05
0.49995	0.00079	318.15	0.000715	2.5e-05
0.49995	0.00085	318.15	0.000715	2.5e-05
0.49995	0.00127	318.15	0.000715	2.5e-05
0.49995	0.00149	318.15	0.000715	2.5e-05
0.49995	0.00179	318.15	0.000715	2.5e-05
0.49995	0.00199	318.15	0.000716	2.5e-05
0.74994	0.00045	288.15	0.001445	2.9e-05
0.74994	0.00058	288.15	0.001445	2.9e-05
0.74994	0.00079	288.15	0.001445	2.9e-05
0.74994	0.00086	288.15	0.001445	2.9e-05
0.74994	0.0012	288.15	0.001445	2.9e-05
0.74994	0.00144	288.15	0.001445	2.9e-05
0.74994	0.00183	288.15	0.001446	2.9e-05
0.74994	0.00204	288.15	0.001446	2.9e-05
0.74994	0.00045	298.15	0.001147	3e-05
0.74994	0.00058	298.15	0.001147	2.7e-05
0.74994	0.00079	298.15	0.001147	2.7e-05
0.74994	0.00086	298.15	0.001147	3e-05
0.74994	0.0012	298.15	0.001147	2.7e-05
0.74994	0.00144	298.15	0.001148	2.7e-05
0.74994	0.00183	298.15	0.001148	2.7e-05
0.74994	0.00204	298.15	0.001148	2.8e-05
0.74994	0.00045	308.15	0.000934	2.7e-05
0.74994	0.00058	308.15	0.000934	2.6e-05
0.74994	0.00079	308.15	0.000934	2.6e-05
0.74994	0.00086	308.15	0.000934	2.7e-05
0.74994	0.0012	308.15	0.000934	2.6e-05
0.74994	0.00144	308.15	0.000934	2.6e-05
0.74994	0.00183	308.15	0.000935	2.6e-05
0.74994	0.00204	308.15	0.000935	2.6e-05
0.74994	0.00045	318.15	0.000762	2.6e-05
0.74994	0.00058	318.15	0.000762	2.6e-05
0.74994	0.00079	318.15	0.000762	2.6e-05
0.74994	0.00086	318.15	0.000762	2.6e-05
0.74994	0.0012	318.15	0.000762	2.6e-05
0.74994	0.00144	318.15	0.000762	2.6e-05
0.74994	0.00183	318.15	0.000763	2.6e-05
0.74994	0.00204	318.15	0.000763	2.6e-05
0.99989	0.00049	288.15	0.001534	2.9e-05
0.99989	0.00058	288.15	0.001534	2.9e-05
0.99989	0.00079	288.15	0.001534	2.9e-05
0.99989	0.00087	288.15	0.001534	2.9e-05
0.99989	0.00111	288.15	0.001534	2.9e-05
0.99989	0.00151	288.15	0.001535	2.9e-05
0.99989	0.00174	288.15	0.001535	2.9e-05
0.99989	0.00202	288.15	0.001535	2.9e-05
0.99989	0.00049	298.15	0.001214	3.7e-05
0.99989	0.00058	298.15	0.001214	2.8e-05
0.99989	0.00079	298.15	0.001214	2.8e-05
0.99989	0.00087	298.15	0.001214	2.8e-05
0.99989	0.00111	298.15	0.001214	2.8e-05
0.99989	0.00151	298.15	0.001215	2.8e-05
0.99989	0.00174	298.15	0.001215	2.8e-05
0.99989	0.00202	298.15	0.001215	2.9e-05
0.99989	0.00049	308.15	0.00101	2.7e-05
0.99989	0.00058	308.15	0.00101	2.7e-05
0.99989	0.00079	308.15	0.00101	2.7e-05
0.99989	0.00087	308.15	0.00101	2.7e-05
0.99989	0.00111	308.15	0.00101	2.7e-05
0.99989	0.00151	308.15	0.001011	2.7e-05
0.99989	0.00174	308.15	0.001011	2.7e-05
0.99989	0.00202	308.15	0.001011	2.7e-05
0.99989	0.00049	318.15	0.000814	2.6e-05
0.99989	0.00058	318.15	0.000814	2.6e-05
0.99989	0.00079	318.15	0.000814	2.6e-05
0.99989	0.00087	318.15	0.000814	2.6e-05
0.99989	0.00111	318.15	0.000814	2.6e-05
0.99989	0.00151	318.15	0.000814	2.6e-05
0.99989	0.00174	318.15	0.000815	2.6e-05
0.99989	0.00202	318.15	0.000815	2.6e-05

System: caffeine + water; phases: Liquid
Fixed: Pressure, kPa = 101.3
Property: Mass density, kg/m3 (Liquid); method: Vibrating tube method
Molality, mol/kg of caffeine	Temperature, K	Mass density, kg/m3	uncertainty
0.0051	288.15	999.404	8
0.00695	288.15	999.505	8
0.00902	288.15	999.619	8
0.01993	288.15	1000.215	8
0.02992	288.15	1000.769	8
0.03531	288.15	1001.071	8
0.04008	288.15	1001.338	8
0.04992	288.15	1001.886	8
0.0051	298.15	997.304	8
0.00695	298.15	997.399	8
0.00902	298.15	997.504	8
0.01993	298.15	998.06	8
0.02992	298.15	998.576	8
0.03531	298.15	998.853	8
0.04008	298.15	999.101	8
0.04992	298.15	999.619	8
0.0051	308.15	994.303	8
0.00695	308.15	994.39	8
0.00902	308.15	994.488	8
0.01993	308.15	995.013	8
0.02992	308.15	995.497	8
0.03531	308.15	995.759	8
0.04008	308.15	996.001	8
0.04992	308.15	996.484	8
0.0051	318.15	990.464	8
0.00695	318.15	990.545	8
0.00902	318.15	990.637	8
0.01993	318.15	991.121	8
0.02992	318.15	991.571	8
0.03531	318.15	991.812	8
0.04008	318.15	992.025	8
0.04992	318.15	992.483	8

System: caffeine + water; phases: Liquid
Fixed: Pressure, kPa = 101.3
Property: Viscosity, Pa*s (Liquid); method: Capillary tube (Ostwald; Ubbelohde) method
Molality, mol/kg of caffeine	Temperature, K	Viscosity, Pa*s	uncertainty
0.00508	288.15	0.00114	2.5e-05
0.00693	288.15	0.001142	2.5e-05
0.009	288.15	0.001144	2.5e-05
0.01986	288.15	0.001147	2.5e-05
0.02978	288.15	0.001152	2.5e-05
0.03533	288.15	0.001154	2.5e-05
0.03983	288.15	0.001156	2.5e-05
0.04953	288.15	0.001162	2.5e-05
0.00508	298.15	0.000895	2.5e-05
0.00693	298.15	0.000896	2.5e-05
0.009	298.15	0.000896	2.5e-05
0.01986	298.15	0.0009	2.5e-05
0.02978	298.15	0.000905	2.5e-05
0.03533	298.15	0.000907	2.5e-05
0.03983	298.15	0.00091	2.5e-05
0.04953	298.15	0.000914	2.5e-05
0.00508	308.15	0.000723	2.4e-05
0.00693	308.15	0.000724	2.4e-05
0.009	308.15	0.000724	2.4e-05
0.01986	308.15	0.000728	2.4e-05
0.02978	308.15	0.000732	2.4e-05
0.03533	308.15	0.000735	2.4e-05
0.03983	308.15	0.000737	2.4e-05
0.04953	308.15	0.000741	2.4e-05
0.00508	318.15	0.000599	2.4e-05
0.00693	318.15	0.0006	2.4e-05
0.009	318.15	0.000601	2.4e-05
0.01986	318.15	0.000606	2.4e-05
0.02978	318.15	0.000609	2.4e-05
0.03533	318.15	0.000611	2.4e-05
0.03983	318.15	0.000613	2.4e-05
0.04953	318.15	0.000617	2.4e-05

System: magnesium chloride + water; phases: Liquid
Fixed: Pressure, kPa = 101.3
Property: Mass density, kg/m3 (Liquid); method: Vibrating tube method
Molality, mol/kg of magnesium chloride	Temperature, K	Mass density, kg/m3	uncertainty
0.09999	288.15	1006.865	8
0.09999	298.15	1004.61	8
0.09999	308.15	1001.625	8
0.09999	318.15	997.848	8
0.24999	288.15	1017.79	8
0.24999	298.15	1015.321	8
0.24999	308.15	1012.53	8
0.24999	318.15	1008.92	8
0.49995	288.15	1034.95	8
0.49995	298.15	1032.22	8
0.49995	308.15	1029.55	8
0.49995	318.15	1026.01	8
0.74994	288.15	1050.837	8
0.74994	298.15	1048.21	8
0.74994	308.15	1045.263	8
0.74994	318.15	1041.401	8
0.99989	288.15	1065.458	8
0.99989	298.15	1062.645	8
0.99989	308.15	1059.402	8
0.99989	318.15	1055.251	8

System: magnesium chloride + water; phases: Liquid
Fixed: Pressure, kPa = 101.3
Property: Viscosity, Pa*s (Liquid); method: Capillary tube (Ostwald; Ubbelohde) method
Molality, mol/kg of magnesium chloride	Temperature, K	Viscosity, Pa*s	uncertainty
0.0999	288.15	0.00121	2.5e-05
0.0999	298.15	0.000934	2.5e-05
0.0999	308.15	0.000751	2.4e-05
0.0999	318.15	0.000624	2.4e-05
0.24999	288.15	0.00125	2.5e-05
0.24999	298.15	0.000981	2.5e-05
0.24999	308.15	0.000794	2.4e-05
0.24999	318.15	0.000659	2.4e-05
0.49995	288.15	0.001355	2.5e-05
0.49995	298.15	0.001072	2.5e-05
0.49995	308.15	0.000862	2.5e-05
0.49995	318.15	0.000715	2.4e-05
0.74994	288.15	0.001445	2.5e-05
0.74994	298.15	0.001147	2.5e-05
0.74994	308.15	0.000934	2.5e-05
0.74994	318.15	0.000762	2.4e-05
0.99989	288.15	0.001534	2.5e-05
0.99989	298.15	0.001214	2.5e-05
0.99989	308.15	0.00101	2.5e-05
0.99989	318.15	0.000814	2.4e-05

System: 3,7-dihydro-1,3-dimethyl-1H-purine-2,6-dione + water; phases: Liquid
Fixed: Pressure, kPa = 101.3
Property: Mass density, kg/m3 (Liquid); method: Vibrating tube method
Molality, mol/kg of 3,7-dihydro-1,3-dimethyl-1H-purine-2,6-dione	Temperature, K	Mass density, kg/m3	uncertainty
0.00208	288.15	999.241	8
0.00285	288.15	999.283	8
0.00378	288.15	999.333	8
0.00479	288.15	999.388	8
0.00578	288.15	999.443	8
0.00699	288.15	999.509	8
0.00776	288.15	999.551	8
0.00934	288.15	999.638	8
0.00986	288.15	999.667	8
0.00208	298.15	997.153	8
0.00285	298.15	997.192	8
0.00378	298.15	997.239	8
0.00479	298.15	997.291	8
0.00578	298.15	997.341	8
0.00699	298.15	997.404	8
0.00776	298.15	997.443	8
0.00934	298.15	997.526	8
0.00986	298.15	997.554	8
0.00208	308.15	994.165	8
0.00285	308.15	994.204	8
0.00378	308.15	994.25	8
0.00479	308.15	994.3	8
0.00578	308.15	994.35	8
0.00699	308.15	994.41	8
0.00776	308.15	994.448	8
0.00934	308.15	994.528	8
0.00986	308.15	994.554	8
0.00208	318.15	990.343	8
0.00285	318.15	990.379	8
0.00378	318.15	990.423	8
0.00479	318.15	990.472	8
0.00578	318.15	990.519	8
0.00699	318.15	990.578	8
0.00776	318.15	990.614	8
0.00934	318.15	990.691	8
0.00986	318.15	990.716	8

System: 3,7-dihydro-1,3-dimethyl-1H-purine-2,6-dione + water; phases: Liquid
Fixed: Pressure, kPa = 101.3
Property: Viscosity, Pa*s (Liquid); method: Capillary tube (Ostwald; Ubbelohde) method
Molality, mol/kg of 3,7-dihydro-1,3-dimethyl-1H-purine-2,6-dione	Temperature, K	Viscosity, Pa*s	uncertainty
0.00213	288.15	0.001139	2.5e-05
0.00284	288.15	0.001139	2.5e-05
0.00394	288.15	0.00114	2.5e-05
0.00519	288.15	0.00114	2.5e-05
0.00617	288.15	0.001141	2.5e-05
0.00689	288.15	0.001141	2.5e-05
0.00819	288.15	0.001142	2.5e-05
0.00921	288.15	0.001142	2.5e-05
0.00213	298.15	0.000891	2.5e-05
0.00284	298.15	0.000892	2.5e-05
0.00394	298.15	0.000892	2.5e-05
0.00519	298.15	0.000892	2.5e-05
0.00617	298.15	0.000893	2.5e-05
0.00689	298.15	0.000893	2.5e-05
0.00819	298.15	0.000894	2.5e-05
0.00921	298.15	0.000895	2.5e-05
0.00213	308.15	0.000719	2.4e-05
0.00284	308.15	0.00072	2.4e-05
0.00394	308.15	0.00072	2.4e-05
0.00519	308.15	0.000721	2.4e-05
0.00617	308.15	0.000722	2.4e-05
0.00689	308.15	0.000722	2.4e-05
0.00819	308.15	0.000723	2.4e-05
0.00921	308.15	0.000723	2.4e-05
0.00213	318.15	0.000597	2.4e-05
0.00284	318.15	0.000597	2.4e-05
0.00394	318.15	0.000598	2.4e-05
0.00519	318.15	0.000598	2.4e-05
0.00617	318.15	0.000599	2.4e-05
0.00689	318.15	0.000599	2.4e-05
0.00819	318.15	0.000599	2.4e-05
0.00921	318.15	0.0006	2.4e-05

System: 1H-purine-2,6-dione, 3,7-dihydro-3,7-dimethyl- + water; phases: Liquid
Fixed: Pressure, kPa = 101.3
Property: Mass density, kg/m3 (Liquid); method: Vibrating tube method
Molality, mol/kg of 1H-purine-2,6-dione, 3,7-dihydro-3,7-dimethyl-	Temperature, K	Mass density, kg/m3	uncertainty
0.00051	288.15	999.157	8
0.0007	288.15	999.167	8
0.0009	288.15	999.177	8
0.00098	288.15	999.182	8
0.00123	288.15	999.195	8
0.00148	288.15	999.209	8
0.00183	288.15	999.228	8
0.00213	288.15	999.244	8
0.00051	298.15	997.073	8.001
0.0007	298.15	997.083	8
0.0009	298.15	997.093	8
0.00098	298.15	997.097	8
0.00123	298.15	997.11	8
0.00148	298.15	997.123	8
0.00183	298.15	997.141	8
0.00213	298.15	997.156	8
0.00051	308.15	994.088	8.001
0.0007	308.15	994.097	8
0.0009	308.15	994.107	8
0.00098	308.15	994.111	8
0.00123	308.15	994.123	8
0.00148	308.15	994.135	8
0.00183	308.15	994.152	8
0.00213	308.15	994.167	8
0.00051	318.15	990.268	8
0.0007	318.15	990.277	8
0.0009	318.15	990.287	8
0.00098	318.15	990.291	8
0.00123	318.15	990.303	8
0.00148	318.15	990.314	8
0.00183	318.15	990.331	8
0.00213	318.15	990.346	8

System: 1H-purine-2,6-dione, 3,7-dihydro-3,7-dimethyl- + water; phases: Liquid
Fixed: Pressure, kPa = 101.3
Property: Viscosity, Pa*s (Liquid); method: Capillary tube (Ostwald; Ubbelohde) method
Molality, mol/kg of 1H-purine-2,6-dione, 3,7-dihydro-3,7-dimethyl-	Temperature, K	Viscosity, Pa*s	uncertainty
0.00051	288.15	0.001138	2.5e-05
0.0007	288.15	0.001139	2.5e-05
0.0009	288.15	0.001139	2.5e-05
0.00098	288.15	0.001139	2.5e-05
0.00123	288.15	0.001139	2.5e-05
0.00147	288.15	0.001139	2.5e-05
0.00182	288.15	0.001139	2.5e-05
0.00212	288.15	0.001139	2.5e-05
0.00051	298.15	0.000891	2.6e-05
0.0007	298.15	0.000891	2.5e-05
0.0009	298.15	0.000891	2.5e-05
0.00098	298.15	0.000891	2.5e-05
0.00123	298.15	0.000891	2.5e-05
0.00147	298.15	0.000891	2.5e-05
0.00182	298.15	0.000891	2.5e-05
0.00212	298.15	0.000891	2.5e-05
0.00051	308.15	0.00072	2.5e-05
0.0007	308.15	0.00072	2.4e-05
0.0009	308.15	0.00072	2.4e-05
0.00098	308.15	0.00072	2.4e-05
0.00123	308.15	0.00072	2.4e-05
0.00147	308.15	0.00072	2.4e-05
0.00182	308.15	0.00072	2.4e-05
0.00212	308.15	0.00072	2.5e-05
0.00051	318.15	0.000597	2.4e-05
0.0007	318.15	0.000597	2.4e-05
0.0009	318.15	0.000597	2.4e-05
0.00098	318.15	0.000597	2.4e-05
0.00123	318.15	0.000597	2.4e-05
0.00147	318.15	0.000597	2.4e-05
0.00182	318.15	0.000597	2.4e-05
0.00212	318.15	0.000597	2.4e-05
