Measured thermophysical data. Investigation of the Thermophysical Properties of AMPS-Based Aprotic Ionic Liquids for Potential Application in CO2 Sorption Processes
Source: J. Chem. Eng. Data, 2017, 10.1021/acs.jced.7b00552
Compound 1: 1-ethyl-3-methylimidazolium 2-acrylamido-2-methylpropanesulfonate, C13H23N3O4S, InChI=1S/C7H13NO4S.C6H11N2/c1-4-6(9)8-7(2,3)5-13(10,11)12;1-3-8-5-4-7(2)6-8/h4H,1,5H2,2-3H3,(H,8,9)(H,10,11,12);4-6H,3H2,1-2H3/q;+1/p-1, purity 95%
Compound 2: 1-butyl-3-methylimidazolium 2-acrylamido-2-methylpropanesulfonate, C15H27N3O4S, InChI=1S/C8H15N2.C7H13NO4S/c1-3-4-5-10-7-6-9(2)8-10;1-4-6(9)8-7(2,3)5-13(10,11)12/h6-8H,3-5H2,1-2H3;4H,1,5H2,2-3H3,(H,8,9)(H,10,11,12)/q+1;/p-1, purity 95%
Compound 3: 1-benzyl-3-methylimidazolium 2-acrylamido-2-methylpropanesulfonate, C18H25N3O4S, InChI=1S/C11H13N2.C7H13NO4S/c1-12-7-8-13(10-12)9-11-5-3-2-4-6-11;1-4-6(9)8-7(2,3)5-13(10,11)12/h2-8,10H,9H2,1H3;4H,1,5H2,2-3H3,(H,8,9)(H,10,11,12)/q+1;/p-1, purity 95%
Compound 4: 1-butyl-1-methylpyrrolidinium 2-acrylamido-2-methylpropanesulfonate, C16H32N2O4S, InChI=1S/C9H20N.C7H13NO4S/c1-3-4-7-10(2)8-5-6-9-10;1-4-6(9)8-7(2,3)5-13(10,11)12/h3-9H2,1-2H3;4H,1,5H2,2-3H3,(H,8,9)(H,10,11,12)/q+1;/p-1, purity 95%
Compound 5: 1-butylpyridinium 2-acrylamido-2-methylpropanesulfonate, C16H26N2O4S, InChI=1S/C9H14N.C7H13NO4S/c1-2-3-7-10-8-5-4-6-9-10;1-4-6(9)8-7(2,3)5-13(10,11)12/h4-6,8-9H,2-3,7H2,1H3;4H,1,5H2,2-3H3,(H,8,9)(H,10,11,12)/q+1;/p-1, purity 95%
Compound 6: carbon dioxide, CO2, InChI=1S/CO2/c2-1-3, purity 99.9%

System: 1-ethyl-3-methylimidazolium 2-acrylamido-2-methylpropanesulfonate; phases: Liquid
Fixed: Pressure, kPa = 101.325
Property: Mass density, kg/m3 (Liquid); method: Vibrating tube method
Temperature, K	Mass density, kg/m3	uncertainty
293.15	1199.65	10.73
298.15	1195.88	10.7
303.15	1192.26	10.67
308.15	1188.67	10.64
313.15	1185.19	10.61
318.15	1181.69	10.59
323.15	1178.23	10.56
328.15	1174.74	10.53
333.15	1171.24	10.5
338.15	1167.67	10.48
343.15	1164.16	10.45
348.15	1160.56	10.42
353.15	1157.22	10.4
358.15	1153.71	10.37
363.15	1150.33	10.35

System: 1-ethyl-3-methylimidazolium 2-acrylamido-2-methylpropanesulfonate; phases: Liquid
Fixed: Pressure, kPa = 101.325
Property: Refractive index (Na D-line) (Liquid); method: Standard Abbe refractometry
Temperature, K	Refractive index (Na D-line)	uncertainty
288.15	1.49747	0.00108
293.15	1.49594	0.00108
298.15	1.49442	0.00108
303.15	1.49293	0.00108
308.15	1.49151	0.00108
313.15	1.49017	0.00108
318.15	1.48873	0.00108
323.15	1.48725	0.00108
328.15	1.48572	0.00108
333.15	1.48411	0.00108

System: 1-ethyl-3-methylimidazolium 2-acrylamido-2-methylpropanesulfonate; phases: Liquid
Fixed: Pressure, kPa = 101.325
Property: Viscosity, Pa*s (Liquid); method: Concentric cylinders viscometry
Temperature, K	Viscosity, Pa*s	uncertainty
293.15	0.99909	0.05365
303.15	0.395	0.01843
313.15	0.18199	0.00768
323.15	0.09474	0.00378
333.15	0.05448	0.00213
343.15	0.03398	0.00133
353.15	0.02345	0.00092
363.15	0.01662	0.00065

System: 1-butyl-3-methylimidazolium 2-acrylamido-2-methylpropanesulfonate; phases: Liquid
Fixed: Pressure, kPa = 101.325
Property: Mass density, kg/m3 (Liquid); method: Vibrating tube method
Temperature, K	Mass density, kg/m3	uncertainty
293.15	1159.92	10.42
298.15	1155.67	10.39
303.15	1152.62	10.36
308.15	1149.23	10.34
313.15	1145.76	10.31
318.15	1142.21	10.29
323.15	1138.76	10.26
328.15	1135.33	10.24
333.15	1131.94	10.21
338.15	1128.49	10.19
343.15	1125.05	10.17
348.15	1121.61	10.14
353.15	1118.09	10.12
358.15	1114.66	10.09
363.15	1111.47	10.07

System: 1-butyl-3-methylimidazolium 2-acrylamido-2-methylpropanesulfonate; phases: Liquid
Fixed: Pressure, kPa = 101.325
Property: Refractive index (Na D-line) (Liquid); method: Standard Abbe refractometry
Temperature, K	Refractive index (Na D-line)	uncertainty
288.15	1.50711	0.00108
293.15	1.50537	0.00108
298.15	1.50401	0.00108
303.15	1.50248	0.00108
308.15	1.50093	0.00108
313.15	1.49935	0.00108
318.15	1.49778	0.00108
323.15	1.49619	0.00108
328.15	1.49458	0.00108
333.15	1.49289	0.00108

System: 1-butyl-3-methylimidazolium 2-acrylamido-2-methylpropanesulfonate; phases: Liquid
Fixed: Pressure, kPa = 101.325
Property: Viscosity, Pa*s (Liquid); method: Concentric cylinders viscometry
Temperature, K	Viscosity, Pa*s	uncertainty
293.15	7.4441	0.5422
303.15	2.3582	0.14491
313.15	0.8863	0.04674
323.15	0.38883	0.0181
333.15	0.19288	0.0082
343.15	0.1059	0.00425
353.15	0.06311	0.00247
363.15	0.03744	0.00147

System: 1-benzyl-3-methylimidazolium 2-acrylamido-2-methylpropanesulfonate; phases: Liquid
Fixed: Pressure, kPa = 101.325
Property: Mass density, kg/m3 (Liquid); method: Vibrating tube method
Temperature, K	Mass density, kg/m3	uncertainty
293.15	1152.21	10.36
298.15	1148.18	10.33
303.15	1143.87	10.3
308.15	1140.57	10.28
313.15	1136.78	10.25
318.15	1132.96	10.22
323.15	1128.71	10.19
328.15	1124.92	10.16
333.15	1121.09	10.14
338.15	1117.31	10.11
343.15	1113.49	10.09
348.15	1109.87	10.06
353.15	1105.88	10.03
358.15	1102.23	10.01
363.15	1098.28	9.98

System: 1-benzyl-3-methylimidazolium 2-acrylamido-2-methylpropanesulfonate; phases: Liquid
Fixed: Pressure, kPa = 101.325
Property: Refractive index (Na D-line) (Liquid); method: Standard Abbe refractometry
Temperature, K	Refractive index (Na D-line)	uncertainty
288.15	1.5438	0.00108
293.15	1.54253	0.00108
298.15	1.54119	0.00108
303.15	1.54007	0.00108
308.15	1.53884	0.00108
313.15	1.53763	0.00108
318.15	1.53663	0.00108
323.15	1.53558	0.00108
328.15	1.53436	0.00108
333.15	1.53314	0.00108

System: 1-butyl-1-methylpyrrolidinium 2-acrylamido-2-methylpropanesulfonate; phases: Liquid
Fixed: Pressure, kPa = 101.325
Property: Mass density, kg/m3 (Liquid); method: Vibrating tube method
Temperature, K	Mass density, kg/m3	uncertainty
293.15	1109.46	10.06
298.15	1105.75	10.03
303.15	1102.39	10.01
308.15	1098.78	9.99
313.15	1095.14	9.96
318.15	1091.61	9.94
323.15	1088.07	9.92
328.15	1084.64	9.89
333.15	1080.82	9.87
338.15	1077.46	9.85
343.15	1074.11	9.83
348.15	1070.71	9.8
353.15	1066.81	9.78
358.15	1063.32	9.76
363.15	1059.61	9.74

System: 1-butyl-1-methylpyrrolidinium 2-acrylamido-2-methylpropanesulfonate; phases: Liquid
Fixed: Pressure, kPa = 101.325
Property: Refractive index (Na D-line) (Liquid); method: Standard Abbe refractometry
Temperature, K	Refractive index (Na D-line)	uncertainty
288.15	1.49533	0.00108
293.15	1.49382	0.00108
298.15	1.49222	0.00108
303.15	1.49061	0.00108
308.15	1.48901	0.00108
313.15	1.48738	0.00108
318.15	1.48579	0.00108
323.15	1.48419	0.00108
328.15	1.48261	0.00108
333.15	1.48101	0.00108

System: 1-butyl-1-methylpyrrolidinium 2-acrylamido-2-methylpropanesulfonate; phases: Liquid
Fixed: Pressure, kPa = 101.325
Property: Viscosity, Pa*s (Liquid); method: Concentric cylinders viscometry
Temperature, K	Viscosity, Pa*s	uncertainty
293.15	3.8457	0.25434
303.15	1.3876	0.07849
313.15	0.58011	0.02865
323.15	0.27546	0.01223
333.15	0.14655	0.00605
343.15	0.0854	0.00338
353.15	0.05271	0.00206
363.15	0.03756	0.00147

System: 1-butylpyridinium 2-acrylamido-2-methylpropanesulfonate; phases: Liquid
Fixed: Pressure, kPa = 101.325
Property: Mass density, kg/m3 (Liquid); method: Vibrating tube method
Temperature, K	Mass density, kg/m3	uncertainty
293.15	1199.65	10.73
298.15	1195.88	10.7
303.15	1192.26	10.67
308.15	1188.67	10.64
313.15	1185.19	10.61
318.15	1181.69	10.59
323.15	1178.23	10.56
328.15	1174.74	10.53
333.15	1171.24	10.5
338.15	1167.67	10.48
343.15	1164.16	10.45
348.15	1160.56	10.42
353.15	1157.22	10.4
358.15	1153.71	10.37
363.15	1150.33	10.35

System: 1-butylpyridinium 2-acrylamido-2-methylpropanesulfonate; phases: Liquid
Fixed: Pressure, kPa = 101.325
Property: Refractive index (Na D-line) (Liquid); method: Standard Abbe refractometry
Temperature, K	Refractive index (Na D-line)	uncertainty
288.15	1.52465	0.00108
293.15	1.52325	0.00108
298.15	1.52177	0.00108
303.15	1.52021	0.00108
308.15	1.51862	0.00108
313.15	1.51701	0.00108
318.15	1.51543	0.00108
323.15	1.51382	0.00108
328.15	1.51224	0.00108
333.15	1.51068	0.00108

System: 1-butylpyridinium 2-acrylamido-2-methylpropanesulfonate; phases: Liquid
Fixed: Pressure, kPa = 101.325
Property: Viscosity, Pa*s (Liquid); method: Concentric cylinders viscometry
Temperature, K	Viscosity, Pa*s	uncertainty
293.15	7.6164	0.55656
303.15	2.3697	0.14573
313.15	0.88348	0.04657
323.15	0.38711	0.01801
333.15	0.19249	0.00818
343.15	0.1062	0.00427
353.15	0.06386	0.0025
363.15	0.04103	0.00161

System: 1-ethyl-3-methylimidazolium 2-acrylamido-2-methylpropanesulfonate + carbon dioxide; phases: Liquid, Gas
Property: Mole fraction of carbon dioxide (Liquid); method: Phase equilibration
Temperature, K	Pressure, kPa	Mole fraction of carbon dioxide	uncertainty
293.15	1000	0.4	0.028
293.15	1500	0.46	0.026
293.15	2000	0.5153	0.0265
293.15	2500	0.539	0.027
293.15	3000	0.5632	0.0252
293.15	3500	0.573	0.024
293.15	4000	0.5858	0.0228
313.15	1000	0.315	0.011
313.15	1500	0.3862	0.0127
313.15	2000	0.43141	0.01456
313.15	2500	0.4624	0.0152
313.15	3000	0.48653	0.01594
313.15	3500	0.5045	0.016
313.15	4000	0.5225	0.0153
333.15	1000	0.3675	0.021
333.15	1500	0.4387	0.0202
333.15	2000	0.48391	0.02214
333.15	2500	0.5149	0.0228
333.15	3000	0.53903	0.02231
333.15	3500	0.557	0.022
333.15	4000	0.575	0.022

System: 1-butyl-3-methylimidazolium 2-acrylamido-2-methylpropanesulfonate + carbon dioxide; phases: Liquid, Gas
Fixed: Temperature, K = 293.15
Property: Mole fraction of carbon dioxide (Liquid); method: Phase equilibration
Pressure, kPa	Mole fraction of carbon dioxide	uncertainty
1000	0.15177	0.00548
1500	0.22289	0.00782
2000	0.27189	0.00908
2500	0.30177	0.01036
3000	0.35497	0.01216
3500	0.38007	0.01264
4000	0.41028	0.01389

System: 1-benzyl-3-methylimidazolium 2-acrylamido-2-methylpropanesulfonate + carbon dioxide; phases: Liquid, Gas
Fixed: Temperature, K = 293.15
Property: Mole fraction of carbon dioxide (Liquid); method: Phase equilibration
Pressure, kPa	Mole fraction of carbon dioxide	uncertainty
1000	0.19884	0.0067
1500	0.26406	0.00898
2000	0.31598	0.01065
2500	0.35889	0.01192
3000	0.38883	0.01263
3500	0.40508	0.01311
4000	0.42598	0.01394

System: 1-butyl-1-methylpyrrolidinium 2-acrylamido-2-methylpropanesulfonate + carbon dioxide; phases: Liquid, Gas
Fixed: Temperature, K = 293.15
Property: Mole fraction of carbon dioxide (Liquid); method: Phase equilibration
Pressure, kPa	Mole fraction of carbon dioxide	uncertainty
1000	0.225	0.008
1500	0.2975	0.0101
2000	0.3488	0.012
2500	0.41805	0.01423
3000	0.4513	0.015
3500	0.49013	0.01635
4000	0.5212	0.016

System: 1-butylpyridinium 2-acrylamido-2-methylpropanesulfonate + carbon dioxide; phases: Liquid, Gas
Fixed: Temperature, K = 293.15
Property: Mole fraction of carbon dioxide (Liquid); method: Phase equilibration
Pressure, kPa	Mole fraction of carbon dioxide	uncertainty
1000	0.32285	0.01045
1500	0.38217	0.01252
2000	0.4292	0.014
2500	0.46227	0.015
3000	0.4882	0.0157
3500	0.5049	0.0159
4000	0.5143	0.0155
