Measured thermophysical data. Density, Viscosity, and Structure of Equilibrium Solvent Phases in Butyric Acid Extraction by Phosphonium Ionic Liquid
Source: J. Chem. Eng. Data, 2017, 10.1021/acs.jced.7b00039
Compound 1: trihexyltetradecylphosphonium bis(2,4,4-trimethylpentyl)phosphinate, C48H102O2P2, InChI=1S/C32H68P.C16H35O2P/c1-5-9-13-17-18-19-20-21-22-23-24-28-32-33(29-25-14-10-6-2,30-26-15-11-7-3)31-27-16-12-8-4;1-13(9-15(3,4)5)11-19(17,18)12-14(2)10-16(6,7)8/h5-32H2,1-4H3;13-14H,9-12H2,1-8H3,(H,17,18)/q+1;/p-1, purity 95%
Compound 2: dodecane, C12H26, InChI=1S/C12H26/c1-3-5-7-9-11-12-10-8-6-4-2/h3-12H2,1-2H3, purity 99%
Compound 3: butanoic acid, C4H8O2, InChI=1S/C4H8O2/c1-2-3-4(5)6/h2-3H2,1H3,(H,5,6), purity 99.1%
Compound 4: water, H2O, InChI=1S/H2O/h1H2, purity 99.8%

System: trihexyltetradecylphosphonium bis(2,4,4-trimethylpentyl)phosphinate; phases: Liquid
Fixed: Pressure, kPa = 100
Property: Mass density, kg/m3 (Liquid); method: Vibrating tube method
Temperature, K	Mass density, kg/m3	uncertainty
298	883.68	9.66
310	876.52	9.57
318	871.79	9.51

System: trihexyltetradecylphosphonium bis(2,4,4-trimethylpentyl)phosphinate; phases: Liquid
Fixed: Pressure, kPa = 100
Property: Viscosity, Pa*s (Liquid); method: Cone and plate viscometry
Temperature, K	Viscosity, Pa*s	uncertainty
298	1.023	0.12
310	0.521	0.059
318	0.345	0.038

System: water; phases: Liquid
Fixed: Pressure, kPa = 100
Property: Mass density, kg/m3 (Liquid); method: Vibrating tube method
Temperature, K	Mass density, kg/m3	uncertainty
298	997.04	9.97
310	993.35	9.93
318	990.21	9.9

System: water; phases: Liquid
Fixed: Pressure, kPa = 100
Property: Viscosity, Pa*s (Liquid); method: Cone and plate viscometry
Temperature, K	Viscosity, Pa*s	uncertainty
298	0.00089	8.9e-05
310	0.000686	6.9e-05
318	0.000581	5.8e-05

System: trihexyltetradecylphosphonium bis(2,4,4-trimethylpentyl)phosphinate + dodecane + water; phases: Liquid mixture 1, Liquid mixture 2
Fixed: Pressure, kPa = 100
Property: Viscosity, Pa*s (Liquid mixture 1); method: Cone and plate viscometry
Temperature, K	Mass fraction of water	Viscosity, Pa*s	uncertainty
298	0.0517	0.0084	0.00093
298	0.0596	0.0104	0.0011
298	0.0171	0.0158	0.0016
298	0.0977	0.0259	0.0051
298	0.104	0.0352	0.0058
310	0.095	0.0158	0.0019
318	0.0896	0.0112	0.0014

System: trihexyltetradecylphosphonium bis(2,4,4-trimethylpentyl)phosphinate + water; phases: Liquid mixture 1, Liquid mixture 2
Fixed: Pressure, kPa = 100
Property: Mass fraction of water (Liquid mixture 1); method: Titration method
Temperature, K	Mass fraction of water	uncertainty
298	0.154	0.005
310	0.146	0.005
318	0.142	0.005

System: trihexyltetradecylphosphonium bis(2,4,4-trimethylpentyl)phosphinate + water; phases: Liquid
Fixed: Pressure, kPa = 100
Property: Mass density, kg/m3 (Liquid); method: Vibrating tube method
Temperature, K	Mass fraction of water	Mass density, kg/m3	uncertainty
298	0.00047	884.09	9.66
298	0.00122	884.98	9.67
298	0.00289	886.11	9.68
298	0.00582	886.78	9.68
298	0.0147	887.75	9.66
298	0.0317	890.65	9.65
298	0.081	898.06	9.61
298	0.156	909.07	9.58
298	1	997.04	9.97
310	0.00047	876.93	9.57
310	0.00122	877.82	9.58
310	0.00289	878.88	9.59
310	0.00582	879.48	9.59
310	0.0147	880.36	9.57
310	0.0317	883.04	9.56
310	0.081	890.2	9.52
310	0.146	900.11	9.5
310	1	993.35	9.93
318	0.00047	872.2	9.51
318	0.00122	873.07	9.52
318	0.00289	874.07	9.53
318	0.00582	874.64	9.53
318	0.0147	875.46	9.51
318	0.0317	878.08	9.5
318	0.081	884.95	9.45
318	0.142	893.78	9.43
318	1	990.21	9.9

System: trihexyltetradecylphosphonium bis(2,4,4-trimethylpentyl)phosphinate + water; phases: Liquid
Fixed: Pressure, kPa = 100
Property: Viscosity, Pa*s (Liquid); method: Cone and plate viscometry
Temperature, K	Mass fraction of water	Viscosity, Pa*s	uncertainty
298	0.154	0.142	0.015
310	0.146	0.0797	0.0086
318	0.142	0.0556	0.006
298	0.00047	1.023	0.12
298	0.00122	0.996	0.117
298	0.00289	0.924	0.108
298	0.00582	0.796	0.092
298	0.0147	0.646	0.074
298	0.0317	0.431	0.048
298	0.081	0.261	0.029
298	0.156	0.142	0.015
298	1	0.00089	8.9e-05
310	0.00047	0.521	0.059
310	0.00122	0.512	0.058
310	0.00289	0.476	0.053
310	0.00582	0.401	0.045
310	0.0147	0.321	0.035
310	0.0317	0.211	0.023
310	0.081	0.125	0.013
310	0.146	0.0797	0.0086
310	1	0.000686	6.9e-05
318	0.00047	0.345	0.038
318	0.00122	0.337	0.037
318	0.00289	0.313	0.034
318	0.00582	0.263	0.028
318	0.0147	0.21	0.023
318	0.0317	0.137	0.014
318	0.081	0.0816	0.0086
318	0.142	0.0556	0.006
318	1	0.000581	5.8e-05

System: trihexyltetradecylphosphonium bis(2,4,4-trimethylpentyl)phosphinate + butanoic acid + water; phases: Liquid mixture 1, Liquid mixture 2
Fixed: Pressure, kPa = 100
Property: Mass fraction of water (Liquid mixture 1); method: Titration method
Temperature, K	Mass fraction of butanoic acid	Mass fraction of water	uncertainty
298	0.0502	0.1088	0.0051
298	0.0949	0.0769	0.0052
298	0.148	0.0476	0.0053
298	0.193	0.0306	0.0038
298	0.231	0.0259	0.0012
298	0.263	0.0286	0.0021
298	0.325	0.0349	0.0026
298	0.358	0.0375	0.0024
298	0.397	0.0401	0.0032
298	0.413	0.0434	0.0062
310	0.051	0.1127	0.0053
310	0.0975	0.0759	0.0056
310	0.141	0.051	0.0049
310	0.189	0.0354	0.0039
310	0.222	0.0298	0.002
310	0.253	0.0287	0.0014
310	0.316	0.0329	0.0021
310	0.359	0.0363	0.0036
310	0.419	0.0461	0.0052
318	0.0509	0.106	0.005
318	0.0997	0.0748	0.0053
318	0.143	0.0499	0.0053
318	0.184	0.0342	0.0037
318	0.215	0.0311	0.0018
318	0.245	0.029	0.0016
318	0.308	0.0361	0.0023
318	0.354	0.0377	0.003
318	0.412	0.0464	0.0047

System: trihexyltetradecylphosphonium bis(2,4,4-trimethylpentyl)phosphinate + butanoic acid + water; phases: Liquid
Fixed: Pressure, kPa = 100
Property: Viscosity, Pa*s (Liquid); method: Cone and plate viscometry
Temperature, K	Mass fraction of butanoic acid	Mass fraction of water	Viscosity, Pa*s	uncertainty
298	0.0502	0.1088	0.147	0.015
298	0.0949	0.0769	0.156	0.017
298	0.148	0.0476	0.166	0.018
298	0.193	0.0306	0.167	0.019
298	0.231	0.0259	0.158	0.018
298	0.263	0.0286	0.138	0.017
298	0.325	0.0349	0.104	0.014
298	0.358	0.0375	0.0831	0.0131
298	0.397	0.0401	0.0544	0.0299
298	0.413	0.0434	0.0528	0.0311
310	0.051	0.1127	0.0817	0.0121
310	0.0975	0.0759	0.0835	0.0108
310	0.141	0.051	0.0904	0.0101
310	0.189	0.0354	0.0912	0.0131
310	0.222	0.0298	0.0871	0.0156
310	0.253	0.0287	0.0772	0.0079
310	0.316	0.0329	0.0575	0.0148
310	0.359	0.0363	0.0469	0.0104
310	0.419	0.0461	0.0305	0.1046
318	0.0509	0.106	0.0575	0.0097
318	0.0997	0.0748	0.0598	0.0065
318	0.143	0.0499	0.0695	0.0075
318	0.184	0.0342	0.0733	0.0081
318	0.215	0.0311	0.0688	0.0086
318	0.245	0.029	0.0617	0.0083
318	0.308	0.0361	0.0445	0.0152
318	0.354	0.0377	0.0354	0.0433
318	0.412	0.0464	0.0244	0.0362

System: trihexyltetradecylphosphonium bis(2,4,4-trimethylpentyl)phosphinate + butanoic acid; phases: Liquid
Fixed: Pressure, kPa = 100
Property: Mass density, kg/m3 (Liquid); method: Vibrating tube method
Temperature, K	Mass fraction of butanoic acid	Mass density, kg/m3	uncertainty
298	0	884.09	9.66
298	0.0122	886.44	9.66
298	0.0346	892.23	9.67
298	0.0349	889.81	9.64
298	0.0684	893.84	9.61
298	0.14	899.77	9.53
298	0.242	909.13	9.46
298	0.301	914.05	9.43
298	0.375	919.8	9.41
298	0.44	924.13	9.4
298	0.491	927.26	9.39
298	0.715	939.25	9.42
298	0.991	953.5	9.54
310	0	876.93	9.57
310	0.0122	879.26	9.57
310	0.0346	884.71	9.58
310	0.0349	882.5	9.55
310	0.0684	886.39	9.52
310	0.14	892.33	9.44
310	0.242	901.49	9.37
310	0.301	906.22	9.35
310	0.375	911.62	9.32
310	0.44	915.64	9.31
310	0.491	918.52	9.3
310	0.715	929.27	9.32
310	0.991	941.63	9.42
318	0	872.2	9.51
318	0.0122	874.5	9.51
318	0.0346	879.8	9.52
318	0.0349	877.64	9.49
318	0.0684	881.5	9.46
318	0.14	887.48	9.39
318	0.242	896.4	9.32
318	0.301	901	9.29
318	0.375	906.17	9.27
318	0.44	909.99	9.25
318	0.491	912.71	9.24
318	0.715	922.63	9.26
318	0.991	933.77	9.34

System: trihexyltetradecylphosphonium bis(2,4,4-trimethylpentyl)phosphinate + butanoic acid; phases: Liquid
Fixed: Pressure, kPa = 100
Property: Viscosity, Pa*s (Liquid); method: Cone and plate viscometry
Temperature, K	Mass fraction of butanoic acid	Viscosity, Pa*s	uncertainty
298	0	1.023	0.12
298	0.0122	0.952	0.111
298	0.0346	0.785	0.09
298	0.0349	0.787	0.091
298	0.0684	0.562	0.063
298	0.14	0.348	0.038
298	0.242	0.216	0.023
298	0.301	0.159	0.017
298	0.375	0.0927	0.0096
298	0.44	0.0569	0.0059
298	0.491	0.0388	0.004
298	0.715	0.00755	0.00079
298	0.991	0.00169	0.00017
310	0	0.521	0.059
310	0.0122	0.465	0.052
310	0.0346	0.389	0.043
310	0.0349	0.388	0.043
310	0.0684	0.278	0.03
310	0.14	0.181	0.019
310	0.242	0.118	0.012
310	0.301	0.0879	0.0091
310	0.375	0.0535	0.0055
310	0.44	0.0344	0.0035
310	0.491	0.0246	0.0025
310	0.715	0.00551	0.00056
310	0.991	0.00139	0.00014
318	0	0.345	0.038
318	0.0122	0.304	0.033
318	0.0346	0.257	0.028
318	0.0349	0.255	0.028
318	0.0684	0.185	0.02
318	0.14	0.123	0.013
318	0.242	0.0822	0.0085
318	0.301	0.0621	0.0064
318	0.375	0.0389	0.004
318	0.44	0.0255	0.0026
318	0.491	0.0188	0.0019
318	0.715	0.00456	0.00047
318	0.991	0.00123	0.00012
