Measured thermophysical data. Isobaric Vapor Liquid Equilibrium for Two Binary Systems (n-Butanol + 1,4-Butanediol and .gamma.-Butyrolactone + 1,4-Butanediol) at p = (30.0, 50.0, and 70.0) kPa
Source: J. Chem. Eng. Data, 2016, 10.1021/acs.jced.6b00088
Compound 1: 1,4-butanediol, C4H10O2, InChI=1S/C4H10O2/c5-3-1-2-4-6/h5-6H,1-4H2, purity 98%
Compound 2: butan-1-ol, C4H10O, InChI=1S/C4H10O/c1-2-3-4-5/h5H,2-4H2,1H3, purity 99.5%
Compound 3: .gamma.-butyrolactone, C4H6O2, InChI=1S/C4H6O2/c5-4-2-1-3-6-4/h1-3H2, purity 98%

System: 1,4-butanediol; phases: Liquid, Gas
Property: Normal boiling temperature, K (Liquid); method: Ebulliometric method (Recirculating still)
Normal boiling temperature, K	uncertainty
501.05	4

System: 1,4-butanediol; phases: Liquid
Property: Mass density, kg/m3 (Liquid); method: Vibrating tube method
Temperature, K	Pressure, kPa	Mass density, kg/m3	uncertainty
298.15	101.325	1013.04	10

System: 1,4-butanediol; phases: Liquid
Property: Refractive index (Na D-line) (Liquid); method: Standard Abbe refractometry
Temperature, K	Pressure, kPa	Refractive index (Na D-line)	uncertainty
298.15	101.325	1.4449	0.01

System: 1,4-butanediol; phases: Liquid, Gas
Property: Vapor or sublimation pressure, kPa (Liquid); method: Ebulliometric method (Recirculating still)
Temperature, K	Vapor or sublimation pressure, kPa	uncertainty
465.51	30	1
479.79	50	1
489.72	70	1

System: butan-1-ol; phases: Liquid, Gas
Property: Normal boiling temperature, K (Liquid); method: Ebulliometric method (Recirculating still)
Normal boiling temperature, K	uncertainty
390.82	4

System: butan-1-ol; phases: Liquid
Property: Mass density, kg/m3 (Liquid); method: Vibrating tube method
Temperature, K	Pressure, kPa	Mass density, kg/m3	uncertainty
298.15	101.325	805.94	10

System: butan-1-ol; phases: Liquid
Property: Refractive index (Na D-line) (Liquid); method: Standard Abbe refractometry
Temperature, K	Pressure, kPa	Refractive index (Na D-line)	uncertainty
298.15	101.325	1.3971	0.01

System: butan-1-ol; phases: Liquid, Gas
Property: Vapor or sublimation pressure, kPa (Liquid); method: Ebulliometric method (Recirculating still)
Temperature, K	Vapor or sublimation pressure, kPa	uncertainty
360.31	30	1
372.46	50	1
381.07	70	1

System: .gamma.-butyrolactone; phases: Liquid, Gas
Property: Normal boiling temperature, K (Liquid); method: Ebulliometric method (Recirculating still)
Normal boiling temperature, K	uncertainty
477.8	4

System: .gamma.-butyrolactone; phases: Liquid
Property: Mass density, kg/m3 (Liquid); method: Vibrating tube method
Temperature, K	Pressure, kPa	Mass density, kg/m3	uncertainty
298.15	101.325	1124.54	10

System: .gamma.-butyrolactone; phases: Liquid
Property: Refractive index (Na D-line) (Liquid); method: Standard Abbe refractometry
Temperature, K	Pressure, kPa	Refractive index (Na D-line)	uncertainty
298.15	101.325	1.435	0.01

System: .gamma.-butyrolactone; phases: Liquid, Gas
Property: Vapor or sublimation pressure, kPa (Liquid); method: Ebulliometric method (Recirculating still)
Temperature, K	Vapor or sublimation pressure, kPa	uncertainty
432.99	30	1
450.33	50	1
462.61	70	1

System: butan-1-ol + 1,4-butanediol; phases: Liquid, Gas
Property: Boiling temperature at pressure P, K (Liquid); method: Ebulliometric method (Recirculating still)
Pressure, kPa	Mole fraction of 1,4-butanediol	Boiling temperature at pressure P, K	uncertainty
30	1	465.51	4.01
30	0.986	457.08	4.49
30	0.945	437.46	4.33
30	0.907	424.78	4.16
30	0.853	412.18	4.07
30	0.731	394.97	4.04
30	0.658	388.12	4.02
30	0.543	380.22	4.02
30	0.482	376.75	4.01
30	0.403	373.06	4.01
30	0.301	368.92	4.01
30	0.204	365.73	4.01
30	0	360.31	4.01
50	1	479.79	4.01
50	0.99	474.92	4.37
50	0.961	462.29	4.25
50	0.895	440.61	4.15
50	0.827	425.88	4.06
50	0.732	412.11	4.05
50	0.667	405.2	4.03
50	0.558	396.11	4.02
50	0.461	389.97	4.02
50	0.39	386.19	4.01
50	0.329	383.29	4.01
50	0.215	378.83	4.01
50	0.12	375.79	4.01
50	0	372.46	4.01
70	1	489.71	4.01
70	0.985	482.58	4.39
70	0.958	470.92	4.32
70	0.935	462.32	4.22
70	0.902	452.16	4.14
70	0.843	438.26	4.1
70	0.797	430.07	4.05
70	0.732	421.08	4.03
70	0.612	409.26	4.02
70	0.4	395.67	4.01
70	0.306	391.25	4.01
70	0.222	387.98	4.01
70	0.132	384.84	4.01
70	0	381.07	4.01

System: butan-1-ol + 1,4-butanediol; phases: Gas, Liquid
Property: Mole fraction of 1,4-butanediol (Gas); method: Chromatography
Mole fraction of 1,4-butanediol	Temperature, K	Mole fraction of 1,4-butanediol	uncertainty
1	465.51	1	
0.986	457.08	0.716	0.02
0.945	437.46	0.322	0.013
0.907	424.78	0.18	0.011
0.853	412.18	0.1	0.01
0.731	394.97	0.042	0.01
0.658	388.12	0.022	0.01
0.543	380.22	0.018	0.01
0.482	376.75	0.013	0.01
0.403	373.06	0.009	0.009
0.301	368.92	0.007	0.007
0.204	365.73	0.003	0.003
0	360.31	0	
1	479.79	1	
0.99	474.92	0.839	0.048
0.961	462.29	0.521	0.027
0.895	440.61	0.208	0.011
0.827	425.88	0.107	0.011
0.732	412.11	0.054	0.01
0.667	405.2	0.039	0.01
0.558	396.11	0.024	0.01
0.461	389.97	0.017	0.01
0.39	386.19	0.013	0.01
0.329	383.29	0.01	0.01
0.215	378.83	0.006	0.006
0.12	375.79	0.001	0.001
0	372.46	0	
1	489.71	1	
0.985	482.58	0.784	0.06
0.958	470.92	0.504	0.043
0.935	462.32	0.362	0.027
0.902	452.16	0.241	0.025
0.843	438.26	0.134	0.012
0.797	430.07	0.091	0.011
0.732	421.08	0.059	0.01
0.612	409.26	0.032	0.01
0.4	395.67	0.01	0.01
0.306	391.25	0.007	0.007
0.222	387.98	0.004	0.004
0.132	384.84	0.001	0.001
0	381.07	0	

System: .gamma.-butyrolactone + 1,4-butanediol; phases: Liquid, Gas
Property: Boiling temperature at pressure P, K (Liquid); method: Ebulliometric method (Recirculating still)
Pressure, kPa	Mole fraction of 1,4-butanediol	Boiling temperature at pressure P, K	uncertainty
30	1	465.51	4.01
30	0.871	460.76	4.01
30	0.814	458.6	4.02
30	0.721	455.21	4.02
30	0.654	452.88	4.02
30	0.523	448.21	4.02
30	0.448	445.63	4.02
30	0.381	443.48	4.02
30	0.319	441.56	4.02
30	0.262	439.81	4.02
30	0.178	437.37	4.02
30	0	432.99	4.01
50	1	479.79	4.01
50	0.889	477.23	4.01
50	0.848	476.28	4.01
50	0.734	473.18	4.01
50	0.633	470.06	4.01
50	0.527	466.63	4.01
50	0.449	463.98	4.01
50	0.388	461.99	4.01
50	0.324	459.93	4.01
50	0.267	458	4.01
50	0.179	455.28	4.01
50	0	450.33	4.01
70	1	489.72	4.01
70	0.898	484.33	4.01
70	0.82	481.02	4.01
70	0.722	477.58	4
70	0.628	474.81	4
70	0.483	471.29	4
70	0.411	469.72	4
70	0.348	468.48	4.01
70	0.321	467.99	4.01
70	0.275	467.07	4.01
70	0.178	465.35	4.01
70	0	462.61	4.01

System: .gamma.-butyrolactone + 1,4-butanediol; phases: Gas, Liquid
Property: Mole fraction of 1,4-butanediol (Gas); method: Chromatography
Mole fraction of 1,4-butanediol	Temperature, K	Mole fraction of 1,4-butanediol	uncertainty
1	465.51	1	
0.871	460.76	0.718	0.012
0.814	458.6	0.625	0.011
0.721	455.21	0.484	0.012
0.654	452.88	0.393	0.011
0.523	448.21	0.271	0.011
0.448	445.63	0.201	0.011
0.381	443.48	0.152	0.01
0.319	441.56	0.129	0.01
0.262	439.81	0.093	0.01
0.178	437.37	0.063	0.01
0	432.99	0	
1	479.79	1	
0.889	477.23	0.812	0.01
0.848	476.28	0.74	0.012
0.734	473.18	0.567	0.012
0.633	470.06	0.43	0.011
0.527	466.63	0.318	0.011
0.449	463.98	0.239	0.011
0.388	461.99	0.192	0.01
0.324	459.93	0.145	0.01
0.267	458	0.114	0.01
0.179	455.28	0.068	0.01
0	450.33	0	
1	489.72	1	
0.898	484.33	0.749	0.013
0.82	481.02	0.621	0.013
0.722	477.58	0.49	0.013
0.628	474.81	0.393	0.012
0.483	471.29	0.278	0.011
0.411	469.72	0.232	0.01
0.348	468.48	0.194	0.01
0.321	467.99	0.177	0.01
0.275	467.07	0.162	0.01
0.178	465.35	0.107	0.01
0	462.61	0	
