Measured thermophysical data. Measurement and Correlation of Ternary (Liquid + Liquid) Equilibria for Separation of Cyclohexanone from Water via Isophorone or Mesityl Oxide
Source: J. Chem. Eng. Data, 2018, 10.1021/acs.jced.7b00787
Compound 1: cyclohexanone, C6H10O, InChI=1S/C6H10O/c7-6-4-2-1-3-5-6/h1-5H2, purity 99.5%
Compound 2: 3,5,5-trimethyl-2-cyclohexen-1-one, C9H14O, InChI=1S/C9H14O/c1-7-4-8(10)6-9(2,3)5-7/h4H,5-6H2,1-3H3, purity 99%
Compound 3: 4-methyl-3-penten-2-one, C6H10O, InChI=1S/C6H10O/c1-5(2)4-6(3)7/h4H,1-3H3, purity 98.5%
Compound 4: water, H2O, InChI=1S/H2O/h1H2, purity 99.8%

System: water + cyclohexanone + 3,5,5-trimethyl-2-cyclohexen-1-one; phases: Liquid mixture 2, Liquid mixture 1
Fixed: Pressure, kPa = 101.3
Property: Mass fraction of water (Liquid mixture 2); method: Chromatography
Property: Mass fraction of water (Liquid mixture 1); method: Chromatography
Property: Mass fraction of cyclohexanone (Liquid mixture 1); method: Chromatography
Temperature, K	Mass fraction of cyclohexanone	Mass fraction of water	uncertainty	Mass fraction of water	uncertainty	Mass fraction of cyclohexanone	uncertainty
308.15	0.0198	0.9517	0.0088	0.0431	0.0064	0.1821	
328.15	0.0097	0.955	0.0089	0.0415	0.0064	0.0915	
328.15	0.0194	0.9457	0.0082	0.043	0.0064	0.1807	
308.15	0.025	0.9474	0.009	0.0442	0.0064	0.2293	
328.15	0.0244	0.942	0.0077	0.0457	0.0064	0.2235	
328.15	0.0289	0.9397	0.0071	0.0487	0.0064	0.2711	
328.15	0.0375	0.9369	0.0072	0.0521	0.0064	0.3685	
328.15	0.0457	0.9314	0.0083	0.0549	0.0064	0.4469	
328.15	0.0547	0.9229	0.0088	0.0553	0.0064	0.5064	
308.15	0.0363	0.9363	0.0084	0.0466	0.0064	0.3234	
308.15	0.0406	0.934	0.0084	0.0492	0.0064	0.3692	
318.15	0.0132	0.9612	0.0079	0.0453	0.0064	0.1385	
308.15	0.0511	0.9252	0.0082	0.0517	0.0064	0.4494	
308.15	0.0564	0.9209	0.0082	0.0526	0.0064	0.4923	
308.15	0.061	0.9177	0.0081	0.0528	0.0064	0.5255	
308.15	0.0655	0.914	0.0081	0.0528	0.0064	0.5532	
318.15	0.0088	0.9642	0.0082	0.0426	0.0064	0.0923	
318.15	0.0174	0.9574	0.0084	0.0458	0.0064	0.1819	
318.15	0.0263	0.9516	0.0073	0.0471	0.0064	0.2778	
318.15	0.0303	0.9493	0.0075	0.0484	0.0064	0.3262	
318.15	0.0349	0.9464	0.0079	0.0486	0.0064	0.3771	
318.15	0.0404	0.9415	0.0099	0.0488	0.0064	0.4236	
318.15	0.0444	0.9404	0.0098	0.0507	0.0064	0.4717	
328.15	0.0046	0.9558	0.0071	0.0406	0.0064	0.0441	

System: water + cyclohexanone + 4-methyl-3-penten-2-one; phases: Liquid mixture 2, Liquid mixture 1
Fixed: Pressure, kPa = 101.3
Property: Mass fraction of cyclohexanone (Liquid mixture 2); method: Chromatography
Property: Mass fraction of water (Liquid mixture 1); method: Chromatography
Property: Mass fraction of cyclohexanone (Liquid mixture 1); method: Chromatography
Temperature, K	Mass fraction of water	Mass fraction of cyclohexanone	uncertainty	Mass fraction of water	uncertainty	Mass fraction of cyclohexanone	uncertainty
308.15	0.961	0.0039	0.0039	0.0356	0.0116	0.0485	
308.15	0.9587	0.0085	0.0085	0.039	0.0116	0.1049	
308.15	0.955	0.0124	0.0116	0.0405	0.0116	0.1486	
308.15	0.9501	0.0208	0.0116	0.0448	0.0116	0.2486	
308.15	0.9487	0.0248	0.0116	0.0486	0.0117	0.2952	
308.15	0.9467	0.0285	0.0116	0.0538	0.0116	0.3372	
308.15	0.9398	0.0377	0.0116	0.0541	0.0116	0.4305	
308.15	0.9385	0.0409	0.0116	0.0577	0.0117	0.4684	
318.15	0.9673	0.0032	0.0032	0.0392	0.0116	0.0463	
318.15	0.9587	0.0144	0.0116	0.0394	0.0116	0.1951	
318.15	0.9559	0.0183	0.0116	0.0415	0.0116	0.2422	
318.15	0.9536	0.0221	0.0116	0.0442	0.0116	0.2929	
318.15	0.9481	0.0302	0.0116	0.0471	0.0116	0.3867	
318.15	0.9457	0.0342	0.0116	0.0509	0.0116	0.4342	
318.15	0.9422	0.0387	0.0116	0.0514	0.0116	0.4771	
318.15	0.9398	0.044	0.0116	0.0531	0.0116	0.5428	
328.15	0.9542	0.0038	0.0038	0.0431	0.0116	0.047	
328.15	0.9526	0.0119	0.0116	0.0451	0.0116	0.1488	
328.15	0.9495	0.0167	0.0116	0.0478	0.0116	0.2004	
328.15	0.9481	0.0204	0.0116	0.0522	0.0116	0.2469	
328.15	0.9443	0.0285	0.0116	0.0531	0.0116	0.3441	
328.15	0.941	0.0354	0.0116	0.0578	0.0116	0.4251	
328.15	0.9378	0.0393	0.0116	0.0633	0.0117	0.4579	
328.15	0.9326	0.0447	0.0116	0.0652	0.0116	0.4932	
