Measured thermophysical data. Viscometric Studies of Molecular Interactions in Binary Liquid Mixtures of Isomeric Xylenes with Methanol
Source: J. Chem. Eng. Data, 2018, 10.1021/acs.jced.7b00971
Compound 1: methanol, CH4O, InChI=1S/CH4O/c1-2/h2H,1H3, purity 99%
Compound 2: 1,2-dimethylbenzene, C8H10, InChI=1S/C8H10/c1-7-5-3-4-6-8(7)2/h3-6H,1-2H3, purity 99%
Compound 3: 1,3-dimethylbenzene, C8H10, InChI=1S/C8H10/c1-7-4-3-5-8(2)6-7/h3-6H,1-2H3, purity 99%
Compound 4: 1,4-dimethylbenzene, C8H10, InChI=1S/C8H10/c1-7-3-5-8(2)6-4-7/h3-6H,1-2H3, purity 99%

System: methanol; phases: Liquid
Fixed: Pressure, kPa = 101
Property: Viscosity, Pa*s (Liquid); method: Capillary tube (Ostwald; Ubbelohde) method
Temperature, K	Viscosity, Pa*s	uncertainty
303.15	0.000513	1.7e-05
308.15	0.00048	1.7e-05
313.15	0.00045	1.7e-05
318.15	0.000422	1.7e-05
323.15	0.000397	1.7e-05

System: 1,2-dimethylbenzene; phases: Liquid
Fixed: Pressure, kPa = 101
Property: Viscosity, Pa*s (Liquid); method: Capillary tube (Ostwald; Ubbelohde) method
Temperature, K	Viscosity, Pa*s	uncertainty
303.15	0.00071	1.8e-05
308.15	0.000666	1.7e-05
313.15	0.000628	1.7e-05
318.15	0.000591	1.7e-05
323.15	0.00056	1.7e-05

System: 1,3-dimethylbenzene; phases: Liquid
Fixed: Pressure, kPa = 101
Property: Viscosity, Pa*s (Liquid); method: Capillary tube (Ostwald; Ubbelohde) method
Temperature, K	Viscosity, Pa*s	uncertainty
303.15	0.000554	1.7e-05
308.15	0.000524	1.7e-05
313.15	0.000498	1.7e-05
318.15	0.000472	1.7e-05
323.15	0.000452	1.7e-05

System: 1,4-dimethylbenzene; phases: Liquid
Fixed: Pressure, kPa = 101
Property: Viscosity, Pa*s (Liquid); method: Capillary tube (Ostwald; Ubbelohde) method
Temperature, K	Viscosity, Pa*s	uncertainty
303.15	0.000574	1.7e-05
308.15	0.000542	1.7e-05
313.15	0.000514	1.7e-05
318.15	0.000486	1.7e-05
323.15	0.000461	1.7e-05

System: methanol + 1,2-dimethylbenzene; phases: Liquid
Fixed: Pressure, kPa = 101
Property: Viscosity, Pa*s (Liquid); method: Capillary tube (Ostwald; Ubbelohde) method
Temperature, K	Mole fraction of methanol	Viscosity, Pa*s	uncertainty
303.15	0	0.00071	1.8e-05
303.15	0.1007	0.000684	1.7e-05
303.15	0.2013	0.000674	1.7e-05
303.15	0.2961	0.000671	1.7e-05
303.15	0.403	0.000666	1.7e-05
303.15	0.5003	0.000663	1.7e-05
303.15	0.601	0.000655	1.7e-05
303.15	0.7025	0.000638	1.7e-05
303.15	0.8006	0.00061	1.7e-05
303.15	0.9013	0.000567	1.7e-05
303.15	1	0.000513	1.7e-05
308.15	0	0.000666	1.7e-05
308.15	0.1007	0.000641	1.7e-05
308.15	0.2013	0.000631	1.7e-05
308.15	0.2961	0.000626	1.7e-05
308.15	0.403	0.000621	1.7e-05
308.15	0.5003	0.000617	1.7e-05
308.15	0.601	0.000607	1.7e-05
308.15	0.7025	0.000595	1.7e-05
308.15	0.8006	0.000567	1.7e-05
308.15	0.9013	0.00053	1.7e-05
308.15	1	0.00048	1.7e-05
313.15	0	0.000628	1.7e-05
313.15	0.1007	0.000603	1.7e-05
313.15	0.2013	0.000591	1.7e-05
313.15	0.2961	0.000587	1.7e-05
313.15	0.403	0.000582	1.7e-05
313.15	0.5003	0.000577	1.7e-05
313.15	0.601	0.000569	1.7e-05
313.15	0.7025	0.000554	1.7e-05
313.15	0.8006	0.000531	1.7e-05
313.15	0.9013	0.000495	1.7e-05
313.15	1	0.00045	1.7e-05
318.15	0	0.000591	1.7e-05
318.15	0.1007	0.000566	1.7e-05
318.15	0.2013	0.000555	1.7e-05
318.15	0.2961	0.00055	1.7e-05
318.15	0.403	0.000543	1.7e-05
318.15	0.5003	0.000538	1.7e-05
318.15	0.601	0.000531	1.7e-05
318.15	0.7025	0.000516	1.7e-05
318.15	0.8006	0.000494	1.7e-05
318.15	0.9013	0.000462	1.7e-05
318.15	1	0.000422	1.7e-05
323.15	0	0.00056	1.7e-05
323.15	0.1007	0.000535	1.7e-05
323.15	0.2013	0.000523	1.7e-05
323.15	0.2961	0.000517	1.7e-05
323.15	0.403	0.000511	1.7e-05
323.15	0.5003	0.000506	1.7e-05
323.15	0.601	0.000496	1.7e-05
323.15	0.7025	0.000484	1.7e-05
323.15	0.8006	0.000462	1.7e-05
323.15	0.9013	0.000434	1.7e-05
323.15	1	0.000397	1.7e-05

System: methanol + 1,3-dimethylbenzene; phases: Liquid
Fixed: Pressure, kPa = 101
Property: Viscosity, Pa*s (Liquid); method: Capillary tube (Ostwald; Ubbelohde) method
Temperature, K	Mole fraction of methanol	Viscosity, Pa*s	uncertainty
303.15	0	0.000554	1.7e-05
303.15	0.1008	0.000539	1.7e-05
303.15	0.2003	0.000542	1.7e-05
303.15	0.2999	0.000548	1.7e-05
303.15	0.4	0.000553	1.7e-05
303.15	0.4997	0.00056	1.7e-05
303.15	0.6003	0.000566	1.7e-05
303.15	0.7001	0.00057	1.7e-05
303.15	0.8001	0.000565	1.7e-05
303.15	0.9012	0.000546	1.7e-05
303.15	1	0.000513	1.7e-05
308.15	0	0.000524	1.7e-05
308.15	0.1008	0.00051	1.7e-05
308.15	0.2003	0.00051	1.7e-05
308.15	0.2999	0.000514	1.7e-05
308.15	0.4	0.000519	1.7e-05
308.15	0.4997	0.000526	1.7e-05
308.15	0.6003	0.00053	1.7e-05
308.15	0.7001	0.000532	1.7e-05
308.15	0.8001	0.000526	1.7e-05
308.15	0.9012	0.000509	1.7e-05
308.15	1	0.00048	1.7e-05
313.15	0	0.000498	1.7e-05
313.15	0.1008	0.000483	1.7e-05
313.15	0.2003	0.000483	1.7e-05
313.15	0.2999	0.000485	1.7e-05
313.15	0.4	0.000488	1.7e-05
313.15	0.4997	0.000493	1.7e-05
313.15	0.6003	0.000496	1.7e-05
313.15	0.7001	0.000497	1.7e-05
313.15	0.8001	0.000492	1.7e-05
313.15	0.9012	0.000477	1.7e-05
313.15	1	0.00045	1.7e-05
318.15	0	0.000472	1.7e-05
318.15	0.1008	0.000456	1.7e-05
318.15	0.2003	0.000456	1.7e-05
318.15	0.2999	0.000457	1.7e-05
318.15	0.4	0.00046	1.7e-05
318.15	0.4997	0.000462	1.7e-05
318.15	0.6003	0.000465	1.7e-05
318.15	0.7001	0.000466	1.7e-05
318.15	0.8001	0.00046	1.7e-05
318.15	0.9012	0.000445	1.7e-05
318.15	1	0.000422	1.7e-05
323.15	0	0.000452	1.7e-05
323.15	0.1008	0.000435	1.7e-05
323.15	0.2003	0.000433	1.7e-05
323.15	0.2999	0.000433	1.7e-05
323.15	0.4	0.000434	1.7e-05
323.15	0.4997	0.000437	1.7e-05
323.15	0.6003	0.000437	1.7e-05
323.15	0.7001	0.000437	1.7e-05
323.15	0.8001	0.000432	1.7e-05
323.15	0.9012	0.000419	1.7e-05
323.15	1	0.000397	1.7e-05

System: methanol + 1,4-dimethylbenzene; phases: Liquid
Fixed: Pressure, kPa = 101
Property: Viscosity, Pa*s (Liquid); method: Capillary tube (Ostwald; Ubbelohde) method
Temperature, K	Mole fraction of methanol	Viscosity, Pa*s	uncertainty
303.15	0	0.000574	1.7e-05
303.15	0.1001	0.000559	1.7e-05
303.15	0.1998	0.000556	1.7e-05
303.15	0.3015	0.000563	1.7e-05
303.15	0.4005	0.000567	1.7e-05
303.15	0.5	0.000573	1.7e-05
303.15	0.5999	0.000576	1.7e-05
303.15	0.7005	0.000577	1.7e-05
303.15	0.8	0.000568	1.7e-05
303.15	0.8984	0.000549	1.7e-05
303.15	1	0.000513	1.7e-05
308.15	0	0.000542	1.7e-05
308.15	0.1001	0.000527	1.7e-05
308.15	0.1998	0.000524	1.7e-05
308.15	0.3015	0.000527	1.7e-05
308.15	0.4005	0.000529	1.7e-05
308.15	0.5	0.000533	1.7e-05
308.15	0.5999	0.000536	1.7e-05
308.15	0.7005	0.000536	1.7e-05
308.15	0.8	0.000529	1.7e-05
308.15	0.8984	0.000512	1.7e-05
308.15	1	0.00048	1.7e-05
313.15	0	0.000514	1.7e-05
313.15	0.1001	0.000498	1.7e-05
313.15	0.1998	0.000494	1.7e-05
313.15	0.3015	0.000496	1.7e-05
313.15	0.4005	0.000498	1.7e-05
313.15	0.5	0.000501	1.7e-05
313.15	0.5999	0.000504	1.7e-05
313.15	0.7005	0.000502	1.7e-05
313.15	0.8	0.000495	1.7e-05
313.15	0.8984	0.000479	1.7e-05
313.15	1	0.00045	1.7e-05
318.15	0	0.000486	1.7e-05
318.15	0.1001	0.000469	1.7e-05
318.15	0.1998	0.000465	1.7e-05
318.15	0.3015	0.000466	1.7e-05
318.15	0.4005	0.000467	1.7e-05
318.15	0.5	0.000469	1.7e-05
318.15	0.5999	0.000469	1.7e-05
318.15	0.7005	0.000469	1.7e-05
318.15	0.8	0.000462	1.7e-05
318.15	0.8984	0.000447	1.7e-05
318.15	1	0.000422	1.7e-05
323.15	0	0.000461	1.7e-05
323.15	0.1001	0.000445	1.7e-05
323.15	0.1998	0.000439	1.7e-05
323.15	0.3015	0.00044	1.7e-05
323.15	0.4005	0.00044	1.7e-05
323.15	0.5	0.000443	1.7e-05
323.15	0.5999	0.000443	1.7e-05
323.15	0.7005	0.000441	1.7e-05
323.15	0.8	0.000434	1.7e-05
323.15	0.8984	0.00042	1.7e-05
323.15	1	0.000397	1.7e-05
