Measured thermophysical data. Vapor-Liquid Equilibria for 2-Propanol Dehydration through Extractive Distillation Using Mixed Solvent of Ethylene Glycol and Choline Chloride
Source: J. Chem. Eng. Data, 2018, 10.1021/acs.jced.8b00162
Compound 1: water, H2O, InChI=1S/H2O/h1H2, purity 99.8%
Compound 2: propan-2-ol, C3H8O, InChI=1S/C3H8O/c1-3(2)4/h3-4H,1-2H3, purity 99.7%
Compound 3: choline chloride, C5H14ClNO, InChI=1S/C5H14NO.ClH/c1-6(2,3)4-5-7;/h7H,4-5H2,1-3H3;1H/q+1;/p-1, purity 98%

System: water + propan-2-ol + choline chloride; phases: Liquid, Gas
Fixed: Pressure, kPa = 101.3
Property: Boiling temperature at pressure P, K (Liquid); method: Ebulliometric method (Recirculating still)
Solvent: Mole fraction of propan-2-ol	Mole fraction of choline chloride	Boiling temperature at pressure P, K	uncertainty
0.1009	0.1981	356.95	0.57
0.0997	0.1412	355.55	0.62
0.1008	0.0965	354.99	1.45
0.0997	0.0653	355.15	0.62
0.101	0.0387	355.36	1.02
0.1005	0.0177	355.78	1.02

System: water + propan-2-ol + choline chloride; phases: Gas, Liquid
Property: Mole fraction of propan-2-ol (Gas); method: Chromatography
Temperature, K	Solvent: Mole fraction of propan-2-ol	Mole fraction of choline chloride	Mole fraction of propan-2-ol	uncertainty
356.95	0.1009	0.1981	0.7293	0.0063
355.55	0.0997	0.1412	0.681	0.0074
354.99	0.1008	0.0965	0.633	0.0084
355.15	0.0997	0.0653	0.588	0.0094
355.36	0.101	0.0387	0.5571	0.0101
355.78	0.1005	0.0177	0.5234	0.0108

System: water + propan-2-ol + choline chloride; phases: Gas, Liquid
Property: Mole fraction of choline chloride (Gas); method: Chromatography
Temperature, K	Solvent: Mole fraction of propan-2-ol	Mole fraction of choline chloride	Mole fraction of choline chloride	uncertainty
356.95	0.1009	0.1981	0	
355.55	0.0997	0.1412	0	
354.99	0.1008	0.0965	0	
355.15	0.0997	0.0653	0	
355.36	0.101	0.0387	0	
355.78	0.1005	0.0177	0	
