Measured thermophysical data. Liquid Density of Mixtures of Methyl Nonafluorobutyl Ether (HFE-7100) + n-Heptane at Pressures up to 80 MPa and Temperatures from 298.15 to 393.15 K
Source: J. Chem. Eng. Data, 2018, 10.1021/acs.jced.8b00245
Compound 1: methyl nonafluoroisobutyl ether, C5H3F9O, InChI=1S/C5H3F9O/c1-15-5(13,14)2(6,3(7,8)9)4(10,11)12/h1H3, purity 99.5%
Compound 2: 1-methoxy-nonafluorobutane, C5H3F9O, InChI=1S/C5H3F9O/c1-15-5(13,14)3(8,9)2(6,7)4(10,11)12/h1H3, purity 99.5%
Compound 3: heptane, C7H16, InChI=1S/C7H16/c1-3-5-7-6-4-2/h3-7H2,1-2H3, purity 99.8%

System: methyl nonafluoroisobutyl ether + 1-methoxy-nonafluorobutane + heptane; phases: Liquid
Fixed: Solvent: Mass ratio of component to other component of binary solvent of methyl nonafluoroisobutyl ether = 0.5
Property: Mass density, kg/m3 (Liquid); method: Vibrating tube method
Temperature, K	Pressure, kPa	Mole fraction of heptane	Mass density, kg/m3	uncertainty
298.15	100	0.8491	808.5	1.6
298.15	1000	0.8491	809.6	1.6
298.15	5000	0.8491	814.9	1.6
298.15	10000	0.8491	820.8	1.7
298.15	15000	0.8491	826.4	1.7
298.15	20000	0.8491	831.6	1.7
298.15	25000	0.8491	836.6	1.7
298.15	30000	0.8491	841.3	1.7
298.15	35000	0.8491	845.7	1.7
298.15	40000	0.8491	850	1.7
298.15	45000	0.8491	854	1.7
298.15	50000	0.8491	858	1.7
298.15	55000	0.8491	861.8	1.7
298.15	60000	0.8491	865.4	1.7
298.15	65000	0.8491	869	1.7
298.15	70000	0.8491	872.3	1.7
298.15	80000	0.8491	878.8	1.8
313.15	100	0.8491	791.8	1.6
313.15	1000	0.8491	793.3	1.6
313.15	5000	0.8491	799.1	1.6
313.15	10000	0.8491	805.7	1.6
313.15	15000	0.8491	811.9	1.7
313.15	20000	0.8491	817.7	1.7
313.15	25000	0.8491	823.1	1.7
313.15	30000	0.8491	828.1	1.7
313.15	35000	0.8491	832.9	1.7
313.15	40000	0.8491	837.4	1.7
313.15	45000	0.8491	841.8	1.7
313.15	50000	0.8491	845.9	1.7
313.15	55000	0.8491	850	1.7
313.15	60000	0.8491	853.8	1.7
313.15	65000	0.8491	857.6	1.7
313.15	70000	0.8491	861.2	1.7
313.15	80000	0.8491	868	1.8
333.15	1000	0.8491	770.6	1.6
333.15	5000	0.8491	777.5	1.6
333.15	10000	0.8491	785.2	1.6
333.15	15000	0.8491	792.2	1.6
333.15	20000	0.8491	798.7	1.7
333.15	25000	0.8491	804.8	1.7
333.15	30000	0.8491	810.5	1.7
333.15	35000	0.8491	815.8	1.7
333.15	40000	0.8491	820.9	1.7
333.15	45000	0.8491	825.6	1.7
333.15	50000	0.8491	830.2	1.7
333.15	55000	0.8491	834.5	1.7
333.15	60000	0.8491	838.7	1.7
333.15	65000	0.8491	842.8	1.7
333.15	70000	0.8491	846.6	1.7
333.15	80000	0.8491	853.9	1.8
353.15	1000	0.8491	747.2	1.6
353.15	5000	0.8491	755.3	1.6
353.15	10000	0.8491	764.4	1.6
353.15	15000	0.8491	772.6	1.6
353.15	20000	0.8491	779.9	1.6
353.15	25000	0.8491	786.7	1.7
353.15	30000	0.8491	793	1.7
353.15	35000	0.8491	798.9	1.7
353.15	40000	0.8491	804.4	1.7
353.15	45000	0.8491	809.6	1.7
353.15	50000	0.8491	814.6	1.7
353.15	55000	0.8491	819.3	1.7
353.15	60000	0.8491	823.9	1.7
353.15	65000	0.8491	828.2	1.7
353.15	70000	0.8491	832.5	1.7
353.15	80000	0.8491	840.2	1.8
373.15	1000	0.8491	722.6	1.6
373.15	5000	0.8491	732.5	1.6
373.15	10000	0.8491	743.2	1.6
373.15	15000	0.8491	752.6	1.6
373.15	20000	0.8491	761	1.6
373.15	25000	0.8491	768.6	1.6
373.15	30000	0.8491	775.7	1.7
373.15	35000	0.8491	782.2	1.7
373.15	40000	0.8491	788.3	1.7
373.15	45000	0.8491	794	1.7
373.15	50000	0.8491	799.5	1.7
373.15	55000	0.8491	804.7	1.7
373.15	60000	0.8491	809.6	1.7
373.15	65000	0.8491	814.3	1.7
373.15	70000	0.8491	818.7	1.7
373.15	80000	0.8491	827.2	1.8
393.15	1000	0.8491	696.5	1.6
393.15	5000	0.8491	708.7	1.6
393.15	10000	0.8491	721.5	1.6
393.15	15000	0.8491	732.4	1.6
393.15	20000	0.8491	741.9	1.6
393.15	25000	0.8491	750.5	1.6
393.15	30000	0.8491	758.3	1.7
393.15	35000	0.8491	765.5	1.7
393.15	40000	0.8491	772.2	1.7
393.15	45000	0.8491	778.3	1.7
393.15	50000	0.8491	784.2	1.7
393.15	55000	0.8491	789.7	1.7
393.15	60000	0.8491	794.9	1.7
393.15	65000	0.8491	799.9	1.7
393.15	70000	0.8491	805.1	1.8
393.15	80000	0.8491	814.1	1.8
298.15	100	0.673	955.3	1.6
298.15	1000	0.673	956.9	1.6
298.15	5000	0.673	963.9	1.6
298.15	10000	0.673	971.9	1.6
298.15	15000	0.673	979.3	1.7
298.15	20000	0.673	986.2	1.7
298.15	25000	0.673	992.6	1.7
298.15	30000	0.673	998.8	1.7
298.15	35000	0.673	1004.4	1.7
298.15	40000	0.673	1009.9	1.7
298.15	45000	0.673	1015.2	1.7
298.15	50000	0.673	1020.2	1.7
298.15	55000	0.673	1025	1.7
298.15	60000	0.673	1029.7	1.7
298.15	65000	0.673	1034.2	1.7
298.15	70000	0.673	1038.5	1.7
298.15	80000	0.673	1046.8	1.7
313.15	100	0.673	933.9	1.6
313.15	1000	0.673	935.9	1.6
313.15	5000	0.673	943.7	1.6
313.15	10000	0.673	952.8	1.6
313.15	15000	0.673	960.9	1.6
313.15	20000	0.673	968.5	1.6
313.15	25000	0.673	975.6	1.7
313.15	30000	0.673	982.1	1.7
313.15	35000	0.673	988.3	1.7
313.15	40000	0.673	994.2	1.7
313.15	45000	0.673	999.8	1.7
313.15	50000	0.673	1005.1	1.7
313.15	55000	0.673	1010.3	1.7
313.15	60000	0.673	1015.1	1.7
313.15	65000	0.673	1020	1.7
313.15	70000	0.673	1024.5	1.7
313.15	80000	0.673	1033.2	1.7
333.15	1000	0.673	906.8	1.6
333.15	5000	0.673	916.2	1.6
333.15	10000	0.673	926.7	1.6
333.15	15000	0.673	936.2	1.6
333.15	20000	0.673	944.8	1.6
333.15	25000	0.673	952.7	1.6
333.15	30000	0.673	960.1	1.6
333.15	35000	0.673	967.1	1.6
333.15	40000	0.673	973.5	1.7
333.15	45000	0.673	979.7	1.7
333.15	50000	0.673	985.5	1.7
333.15	55000	0.673	991	1.7
333.15	60000	0.673	996.3	1.7
333.15	65000	0.673	1001.5	1.7
333.15	70000	0.673	1006.5	1.7
333.15	80000	0.673	1015.7	1.7
353.15	1000	0.673	876.3	1.6
353.15	5000	0.673	887.8	1.6
353.15	10000	0.673	900.2	1.6
353.15	15000	0.673	911.1	1.6
353.15	20000	0.673	920.9	1.6
353.15	25000	0.673	929.9	1.6
353.15	30000	0.673	938.2	1.6
353.15	35000	0.673	945.9	1.6
353.15	40000	0.673	953	1.6
353.15	45000	0.673	959.8	1.6
353.15	50000	0.673	966.2	1.6
353.15	55000	0.673	972.2	1.7
353.15	60000	0.673	977.9	1.7
353.15	65000	0.673	983.4	1.7
353.15	70000	0.673	988.8	1.7
353.15	80000	0.673	998.6	1.7
373.15	1000	0.673	844.2	1.6
373.15	5000	0.673	858.3	1.6
373.15	10000	0.673	873.3	1.6
373.15	15000	0.673	886.1	1.6
373.15	20000	0.673	897.3	1.6
373.15	25000	0.673	907.4	1.6
373.15	30000	0.673	916.8	1.6
373.15	35000	0.673	925.4	1.6
373.15	40000	0.673	933.2	1.6
373.15	45000	0.673	940.5	1.6
373.15	50000	0.673	947.6	1.6
373.15	55000	0.673	954.1	1.6
373.15	60000	0.673	960.4	1.7
373.15	65000	0.673	966.4	1.7
373.15	70000	0.673	972	1.7
373.15	80000	0.673	982.7	1.7
393.15	1000	0.673	809.2	1.6
393.15	5000	0.673	827.2	1.6
393.15	10000	0.673	845.3	1.6
393.15	15000	0.673	860.3	1.6
393.15	20000	0.673	873.3	1.6
393.15	25000	0.673	884.9	1.6
393.15	30000	0.673	895.3	1.6
393.15	35000	0.673	904.9	1.6
393.15	40000	0.673	913.7	1.6
393.15	45000	0.673	921.7	1.6
393.15	50000	0.673	929.4	1.6
393.15	55000	0.673	936.5	1.6
393.15	60000	0.673	943.3	1.6
393.15	65000	0.673	949.7	1.7
393.15	70000	0.673	955.9	1.7
393.15	80000	0.673	967.3	1.7
298.15	100	0.4982	1098.5	1.6
298.15	1000	0.4982	1100.4	1.6
298.15	5000	0.4982	1109.2	1.6
298.15	10000	0.4982	1119.3	1.7
298.15	15000	0.4982	1128.5	1.7
298.15	20000	0.4982	1136.9	1.7
298.15	25000	0.4982	1144.9	1.7
298.15	30000	0.4982	1152.4	1.7
298.15	35000	0.4982	1159.4	1.7
298.15	40000	0.4982	1166.1	1.7
298.15	45000	0.4982	1172.5	1.7
298.15	50000	0.4982	1178.6	1.7
298.15	55000	0.4982	1184.5	1.7
298.15	60000	0.4982	1190.1	1.8
298.15	65000	0.4982	1195.5	1.8
298.15	70000	0.4982	1200.7	1.8
298.15	80000	0.4982	1210.7	1.8
313.15	100	0.4982	1072.2	1.6
313.15	1000	0.4982	1074.6	1.6
313.15	5000	0.4982	1084.6	1.6
313.15	10000	0.4982	1095.9	1.6
313.15	15000	0.4982	1106.1	1.6
313.15	20000	0.4982	1115.5	1.7
313.15	25000	0.4982	1124.3	1.7
313.15	30000	0.4982	1132.4	1.7
313.15	35000	0.4982	1140	1.7
313.15	40000	0.4982	1147.2	1.7
313.15	45000	0.4982	1154	1.7
313.15	50000	0.4982	1160.5	1.7
313.15	55000	0.4982	1166.7	1.7
313.15	60000	0.4982	1172.7	1.7
313.15	65000	0.4982	1178.5	1.8
313.15	70000	0.4982	1183.9	1.8
313.15	80000	0.4982	1194.4	1.8
333.15	1000	0.4982	1038.8	1.6
333.15	5000	0.4982	1051	1.6
333.15	10000	0.4982	1064.4	1.6
333.15	15000	0.4982	1076.4	1.6
333.15	20000	0.4982	1087.2	1.6
333.15	25000	0.4982	1097.1	1.6
333.15	30000	0.4982	1106.3	1.7
333.15	35000	0.4982	1114.8	1.7
333.15	40000	0.4982	1122.9	1.7
333.15	45000	0.4982	1130.3	1.7
333.15	50000	0.4982	1137.5	1.7
333.15	55000	0.4982	1144.3	1.7
333.15	60000	0.4982	1150.8	1.7
333.15	65000	0.4982	1157.1	1.7
333.15	70000	0.4982	1163.1	1.7
333.15	80000	0.4982	1174.3	1.8
353.15	1000	0.4982	1000.9	1.6
353.15	5000	0.4982	1015.9	1.6
353.15	10000	0.4982	1032	1.6
353.15	15000	0.4982	1045.9	1.6
353.15	20000	0.4982	1058.2	1.6
353.15	25000	0.4982	1069.4	1.6
353.15	30000	0.4982	1079.6	1.6
353.15	35000	0.4982	1089.1	1.6
353.15	40000	0.4982	1097.9	1.7
353.15	45000	0.4982	1106.2	1.7
353.15	50000	0.4982	1114	1.7
353.15	55000	0.4982	1121.3	1.7
353.15	60000	0.4982	1128.4	1.7
353.15	65000	0.4982	1135	1.7
353.15	70000	0.4982	1141.5	1.7
353.15	80000	0.4982	1153.4	1.7
373.15	1000	0.4982	960.8	1.6
373.15	5000	0.4982	979.9	1.6
373.15	10000	0.4982	999.3	1.6
373.15	15000	0.4982	1015.9	1.6
373.15	20000	0.4982	1030.3	1.6
373.15	25000	0.4982	1043	1.6
373.15	30000	0.4982	1054.8	1.6
373.15	35000	0.4982	1065.4	1.6
373.15	40000	0.4982	1075.2	1.6
373.15	45000	0.4982	1084.4	1.6
373.15	50000	0.4982	1093.1	1.7
373.15	55000	0.4982	1101.1	1.7
373.15	60000	0.4982	1108.8	1.7
373.15	65000	0.4982	1116.1	1.7
373.15	70000	0.4982	1123	1.7
373.15	80000	0.4982	1136	1.7
393.15	1000	0.4982	917	1.6
393.15	5000	0.4982	942	1.6
393.15	10000	0.4982	966.2	1.6
393.15	15000	0.4982	985.8	1.6
393.15	20000	0.4982	1002.5	1.6
393.15	25000	0.4982	1017.1	1.6
393.15	30000	0.4982	1030.2	1.6
393.15	35000	0.4982	1042.1	1.6
393.15	40000	0.4982	1053	1.6
393.15	45000	0.4982	1062.9	1.6
393.15	50000	0.4982	1072.3	1.6
393.15	55000	0.4982	1081	1.6
393.15	60000	0.4982	1089.3	1.7
393.15	65000	0.4982	1097.1	1.7
393.15	70000	0.4982	1104.6	1.7
393.15	80000	0.4982	1118.4	1.7
298.15	100	0.3233	1240.7	1.6
298.15	1000	0.3233	1243.2	1.7
298.15	5000	0.3233	1253.7	1.7
298.15	10000	0.3233	1265.7	1.7
298.15	15000	0.3233	1276.7	1.7
298.15	20000	0.3233	1286.7	1.7
298.15	25000	0.3233	1296.1	1.7
298.15	30000	0.3233	1304.9	1.7
298.15	35000	0.3233	1313.2	1.8
298.15	40000	0.3233	1321	1.8
298.15	45000	0.3233	1328.5	1.8
298.15	50000	0.3233	1335.6	1.8
298.15	55000	0.3233	1342.4	1.9
298.15	60000	0.3233	1349	1.9
298.15	65000	0.3233	1355.2	2
298.15	70000	0.3233	1361.2	2
298.15	80000	0.3233	1372.7	2.1
313.15	100	0.3233	1209.7	1.6
313.15	1000	0.3233	1212.6	1.6
313.15	5000	0.3233	1224.7	1.6
313.15	10000	0.3233	1238.3	1.7
313.15	15000	0.3233	1250.6	1.7
313.15	20000	0.3233	1261.8	1.7
313.15	25000	0.3233	1272.1	1.7
313.15	30000	0.3233	1281.7	1.7
313.15	35000	0.3233	1290.6	1.7
313.15	40000	0.3233	1299.1	1.8
313.15	45000	0.3233	1307.1	1.8
313.15	50000	0.3233	1314.7	1.8
313.15	55000	0.3233	1322	1.9
313.15	60000	0.3233	1328.8	1.9
313.15	65000	0.3233	1335.6	1.9
313.15	70000	0.3233	1342	2
313.15	80000	0.3233	1354	2.1
333.15	1000	0.3233	1170	1.6
333.15	5000	0.3233	1185	1.6
333.15	10000	0.3233	1201.2	1.6
333.15	15000	0.3233	1215.5	1.7
333.15	20000	0.3233	1228.3	1.7
333.15	25000	0.3233	1240.1	1.7
333.15	30000	0.3233	1250.9	1.7
333.15	35000	0.3233	1260.9	1.7
333.15	40000	0.3233	1270.3	1.7
333.15	45000	0.3233	1279.1	1.8
333.15	50000	0.3233	1287.4	1.8
333.15	55000	0.3233	1295.3	1.8
333.15	60000	0.3233	1302.9	1.9
333.15	65000	0.3233	1310.1	1.9
333.15	70000	0.3233	1317	1.9
333.15	80000	0.3233	1330	2
353.15	1000	0.3233	1125	1.6
353.15	5000	0.3233	1143.6	1.6
353.15	10000	0.3233	1163.2	1.6
353.15	15000	0.3233	1180.1	1.6
353.15	20000	0.3233	1194.9	1.6
353.15	25000	0.3233	1208.3	1.7
353.15	30000	0.3233	1220.5	1.7
353.15	35000	0.3233	1231.7	1.7
353.15	40000	0.3233	1242.1	1.7
353.15	45000	0.3233	1251.9	1.7
353.15	50000	0.3233	1261.1	1.8
353.15	55000	0.3233	1269.7	1.8
353.15	60000	0.3233	1277.9	1.8
353.15	65000	0.3233	1285.7	1.9
353.15	70000	0.3233	1293.2	1.9
353.15	80000	0.3233	1307.1	2
373.15	1000	0.3233	1076.4	1.6
373.15	5000	0.3233	1100.2	1.6
373.15	10000	0.3233	1124.2	1.6
373.15	15000	0.3233	1144.1	1.6
373.15	20000	0.3233	1161.3	1.6
373.15	25000	0.3233	1176.5	1.6
373.15	30000	0.3233	1190.4	1.7
373.15	35000	0.3233	1202.9	1.7
373.15	40000	0.3233	1214.4	1.7
373.15	45000	0.3233	1225.1	1.7
373.15	50000	0.3233	1235.2	1.7
373.15	55000	0.3233	1244.6	1.8
373.15	60000	0.3233	1253.5	1.8
373.15	65000	0.3233	1262	1.8
373.15	70000	0.3233	1270	1.8
373.15	80000	0.3233	1285.1	1.9
393.15	1000	0.3233	1022.5	1.7
393.15	5000	0.3233	1054.4	1.6
393.15	10000	0.3233	1084.1	1.6
393.15	15000	0.3233	1107.9	1.6
393.15	20000	0.3233	1127.9	1.6
393.15	25000	0.3233	1145.3	1.6
393.15	30000	0.3233	1160.7	1.6
393.15	35000	0.3233	1174.7	1.7
393.15	40000	0.3233	1187.5	1.7
393.15	45000	0.3233	1199.2	1.7
393.15	50000	0.3233	1210.1	1.7
393.15	55000	0.3233	1220.3	1.7
393.15	60000	0.3233	1229.9	1.7
393.15	65000	0.3233	1239	1.8
393.15	70000	0.3233	1247.6	1.8
393.15	80000	0.3233	1263.7	1.9
298.15	100	0.1485	1385.7	1.7
298.15	1000	0.1485	1388.6	1.7
298.15	5000	0.1485	1400.7	1.7
298.15	10000	0.1485	1414.5	1.7
298.15	15000	0.1485	1427	1.7
298.15	20000	0.1485	1438.4	1.8
298.15	25000	0.1485	1449.2	1.8
298.15	30000	0.1485	1459.1	1.8
298.15	35000	0.1485	1468.5	1.9
298.15	40000	0.1485	1477.4	1.9
298.15	45000	0.1485	1485.8	2
298.15	50000	0.1485	1493.8	2
298.15	55000	0.1485	1501.5	2.1
298.15	60000	0.1485	1508.9	2.2
298.15	65000	0.1485	1515.9	2.2
298.15	70000	0.1485	1522.7	2.3
298.15	80000	0.1485	1535.6	2.5
313.15	100	0.1485	1350	1.7
313.15	1000	0.1485	1353.4	1.7
313.15	5000	0.1485	1367.5	1.7
313.15	10000	0.1485	1383.2	1.7
313.15	15000	0.1485	1397.2	1.7
313.15	20000	0.1485	1410	1.7
313.15	25000	0.1485	1421.8	1.8
313.15	30000	0.1485	1432.7	1.8
313.15	35000	0.1485	1442.9	1.8
313.15	40000	0.1485	1452.5	1.9
313.15	45000	0.1485	1461.6	1.9
313.15	50000	0.1485	1470.2	2
313.15	55000	0.1485	1478.4	2.1
313.15	60000	0.1485	1486.2	2.1
313.15	65000	0.1485	1493.8	2.2
313.15	70000	0.1485	1501	2.3
313.15	80000	0.1485	1514.5	2.4
333.15	1000	0.1485	1304.6	1.7
333.15	5000	0.1485	1322	1.7
333.15	10000	0.1485	1340.8	1.7
333.15	15000	0.1485	1357.3	1.7
333.15	20000	0.1485	1372	1.7
333.15	25000	0.1485	1385.5	1.7
333.15	30000	0.1485	1397.9	1.8
333.15	35000	0.1485	1409.4	1.8
333.15	40000	0.1485	1420	1.9
333.15	45000	0.1485	1430.1	1.9
333.15	50000	0.1485	1439.6	2
333.15	55000	0.1485	1448.5	2
333.15	60000	0.1485	1457.1	2.1
333.15	65000	0.1485	1465.2	2.1
333.15	70000	0.1485	1473.1	2.2
333.15	80000	0.1485	1487.8	2.3
353.15	1000	0.1485	1252.5	1.7
353.15	5000	0.1485	1274.3	1.7
353.15	10000	0.1485	1297.2	1.7
353.15	15000	0.1485	1316.7	1.7
353.15	20000	0.1485	1333.7	1.7
353.15	25000	0.1485	1349.1	1.7
353.15	30000	0.1485	1363	1.8
353.15	35000	0.1485	1375.8	1.8
353.15	40000	0.1485	1387.7	1.8
353.15	45000	0.1485	1398.7	1.9
353.15	50000	0.1485	1409.1	1.9
353.15	55000	0.1485	1418.9	2
353.15	60000	0.1485	1428.1	2
353.15	65000	0.1485	1436.9	2.1
353.15	70000	0.1485	1445.4	2.1
353.15	80000	0.1485	1461.1	2.3
373.15	1000	0.1485	1195.8	1.7
373.15	5000	0.1485	1224.2	1.7
373.15	10000	0.1485	1252.2	1.7
373.15	15000	0.1485	1275.3	1.7
373.15	20000	0.1485	1295.1	1.7
373.15	25000	0.1485	1312.4	1.7
373.15	30000	0.1485	1328.3	1.7
373.15	35000	0.1485	1342.6	1.8
373.15	40000	0.1485	1355.6	1.8
373.15	45000	0.1485	1367.8	1.8
373.15	50000	0.1485	1379.3	1.9
373.15	55000	0.1485	1389.8	1.9
373.15	60000	0.1485	1399.9	2
373.15	65000	0.1485	1409.5	2
373.15	70000	0.1485	1418.5	2.1
373.15	80000	0.1485	1435.4	2.2
393.15	1000	0.1485	1132.5	1.7
393.15	5000	0.1485	1170.6	1.7
393.15	10000	0.1485	1205.8	1.7
393.15	15000	0.1485	1233.4	1.7
393.15	20000	0.1485	1256.4	1.7
393.15	25000	0.1485	1276.4	1.7
393.15	30000	0.1485	1294	1.7
393.15	35000	0.1485	1310	1.7
393.15	40000	0.1485	1324.5	1.8
393.15	45000	0.1485	1337.8	1.8
393.15	50000	0.1485	1350.3	1.8
393.15	55000	0.1485	1361.8	1.9
393.15	60000	0.1485	1372.7	1.9
393.15	65000	0.1485	1382.9	2
393.15	70000	0.1485	1392.7	2
393.15	80000	0.1485	1410.8	2.2
298.15	100	0.1116	1417	1.7
298.15	1000	0.1116	1420	1.7
298.15	5000	0.1116	1432.4	1.7
298.15	10000	0.1116	1446.5	1.7
298.15	15000	0.1116	1459.3	1.7
298.15	20000	0.1116	1471	1.8
298.15	25000	0.1116	1482	1.8
298.15	30000	0.1116	1492.2	1.8
298.15	35000	0.1116	1501.8	1.9
298.15	40000	0.1116	1510.9	1.9
298.15	45000	0.1116	1519.4	2
298.15	50000	0.1116	1527.7	2.1
298.15	55000	0.1116	1535.5	2.1
298.15	60000	0.1116	1543.1	2.2
298.15	65000	0.1116	1550.3	2.3
298.15	70000	0.1116	1557.1	2.4
298.15	80000	0.1116	1570.3	2.6
313.15	100	0.1116	1380.4	1.7
313.15	1000	0.1116	1383.9	1.7
313.15	5000	0.1116	1398.3	1.7
313.15	10000	0.1116	1414.4	1.7
313.15	15000	0.1116	1428.7	1.7
313.15	20000	0.1116	1441.9	1.7
313.15	25000	0.1116	1454	1.8
313.15	30000	0.1116	1465.1	1.8
313.15	35000	0.1116	1475.5	1.9
313.15	40000	0.1116	1485.3	1.9
313.15	45000	0.1116	1494.6	2
313.15	50000	0.1116	1503.4	2
313.15	55000	0.1116	1511.8	2.1
313.15	60000	0.1116	1519.8	2.2
313.15	65000	0.1116	1527.6	2.2
313.15	70000	0.1116	1534.9	2.3
313.15	80000	0.1116	1548.8	2.5
333.15	1000	0.1116	1333.6	1.7
333.15	5000	0.1116	1351.4	1.7
333.15	10000	0.1116	1370.7	1.7
333.15	15000	0.1116	1387.6	1.7
333.15	20000	0.1116	1402.8	1.7
333.15	25000	0.1116	1416.6	1.8
333.15	30000	0.1116	1429.2	1.8
333.15	35000	0.1116	1441	1.8
333.15	40000	0.1116	1451.9	1.9
333.15	45000	0.1116	1462.1	1.9
333.15	50000	0.1116	1472.2	2
333.15	55000	0.1116	1481	2
333.15	60000	0.1116	1489.7	2.1
333.15	65000	0.1116	1498.1	2.2
333.15	70000	0.1116	1506.1	2.3
333.15	80000	0.1116	1521.1	2.4
353.15	1000	0.1116	1280.1	1.7
353.15	5000	0.1116	1302.5	1.7
353.15	10000	0.1116	1326	1.7
353.15	15000	0.1116	1346	1.7
353.15	20000	0.1116	1363.5	1.7
353.15	25000	0.1116	1379.2	1.7
353.15	30000	0.1116	1393.5	1.8
353.15	35000	0.1116	1406.6	1.8
353.15	40000	0.1116	1418.7	1.8
353.15	45000	0.1116	1429.9	1.9
353.15	50000	0.1116	1440.6	1.9
353.15	55000	0.1116	1450.6	2
353.15	60000	0.1116	1460	2.1
353.15	65000	0.1116	1469	2.1
353.15	70000	0.1116	1477.7	2.2
353.15	80000	0.1116	1493.7	2.4
373.15	1000	0.1116	1221.8	1.7
373.15	5000	0.1116	1251	1.7
373.15	10000	0.1116	1279.8	1.7
373.15	15000	0.1116	1303.6	1.7
373.15	20000	0.1116	1323.9	1.7
373.15	25000	0.1116	1341.7	1.7
373.15	30000	0.1116	1357.8	1.7
373.15	35000	0.1116	1372.5	1.8
373.15	40000	0.1116	1385.8	1.8
373.15	45000	0.1116	1398.3	1.9
373.15	50000	0.1116	1410	1.9
373.15	55000	0.1116	1420.8	2
373.15	60000	0.1116	1431.1	2
373.15	65000	0.1116	1440.9	2.1
373.15	70000	0.1116	1450.2	2.1
373.15	80000	0.1116	1467.4	2.3
393.15	1000	0.1116	1156.4	1.8
393.15	5000	0.1116	1196	1.7
393.15	10000	0.1116	1232.1	1.6
393.15	15000	0.1116	1260.4	1.7
393.15	20000	0.1116	1284.1	1.7
393.15	25000	0.1116	1304.5	1.7
393.15	30000	0.1116	1322.6	1.7
393.15	35000	0.1116	1339	1.7
393.15	40000	0.1116	1353.8	1.8
393.15	45000	0.1116	1367.4	1.8
393.15	50000	0.1116	1380.1	1.9
393.15	55000	0.1116	1391.9	1.9
393.15	60000	0.1116	1403.1	2
393.15	65000	0.1116	1413.6	2
393.15	70000	0.1116	1423.5	2.1
393.15	80000	0.1116	1442.1	2.2
