Measured thermophysical data. Measurement and Correlation of Paeonol Solubility in Supercritical Carbon Dioxide
Source: J. Chem. Eng. Data, 2019, 10.1021/acs.jced.9b00483
Compound 1: 1-(2-hydroxy-4-methoxyphenyl)ethan-1-one, C9H10O3, InChI=1S/C9H10O3/c1-6(10)8-4-3-7(12-2)5-9(8)11/h3-5,11H,1-2H3, purity 99%
Compound 2: carbon dioxide, CO2, InChI=1S/CO2/c2-1-3, purity 99.9%

System: 1-(2-hydroxy-4-methoxyphenyl)ethan-1-one + carbon dioxide; phases: Gas, Crystal
Property: Vapor or sublimation pressure, kPa (Gas); method: visual determination in a variable-volume cell
Temperature, K	Mole fraction of 1-(2-hydroxy-4-methoxyphenyl)ethan-1-one	Vapor or sublimation pressure, kPa	uncertainty
313.2	0.0031	8600	700
313.2	0.00504	8900	700
313.2	0.00734	9000	700
313.2	0.00852	9200	700
313.2	0.01029	9500	700
313.2	0.0122	9600	700
318.2	0.00279	9500	700
318.2	0.00488	9800	800
318.2	0.00689	10000	800
318.2	0.00831	10300	800
318.2	0.01026	10700	800
318.2	0.01229	10900	800
323.2	0.00283	10200	800
323.2	0.00482	10700	800
323.2	0.00706	11000	900
323.2	0.00824	11400	900
323.2	0.0103	11900	900
323.2	0.01246	12100	900
328.2	0.00292	10800	800
328.2	0.0048	11600	900
328.2	0.00727	11900	900
328.2	0.00823	12500	1000
328.2	0.01046	13000	1000
328.2	0.01289	13300	1000
333.2	0.00311	11200	900
333.2	0.00496	12300	1000
333.2	0.00743	12800	1000
333.2	0.00832	13500	1100
333.2	0.01071	14000	1100
333.2	0.0132	14300	1100
