Measured thermophysical data. L(+)-tartaric Acid Separations Using Aliquat 336 in n-Heptane, Kerosene, and 1-Octanol at 300 +- 1 K
Source: J. Chem. Eng. Data, 2017, 10.1021/acs.jced.6b01070
Compound 1: (2R,3R)-2,3-dihydroxybutanedioic acid, C4H6O6, InChI=1S/C4H6O6/c5-1(3(7)8)2(6)4(9)10/h1-2,5-6H,(H,7,8)(H,9,10)/t1-,2-/m1/s1, purity 96%
Compound 2: heptane, C7H16, InChI=1S/C7H16/c1-3-5-7-6-4-2/h3-7H2,1-2H3, purity 98%
Compound 3: octan-1-ol, C8H18O, InChI=1S/C8H18O/c1-2-3-4-5-6-7-8-9/h9H,2-8H2,1H3, purity 99.8%
Compound 4: water, H2O, InChI=1S/H2O/h1H2, purity 99.8%

System: (2R,3R)-2,3-dihydroxybutanedioic acid + water + heptane; phases: Liquid mixture 1, Liquid mixture 2
Fixed: Temperature, K = 300
Fixed: Pressure, kPa = 100
Property: Molality, mol/kg of (2R,3R)-2,3-dihydroxybutanedioic acid (Liquid mixture 1); method: titration
Molality, mol/kg of (2R,3R)-2,3-dihydroxybutanedioic acid	Molality, mol/kg of (2R,3R)-2,3-dihydroxybutanedioic acid	uncertainty
0.102	0.004	0.004
0.245	0.005	0.005
0.498	0.002	0.002
0.762	0.038	0.02
0.989	0.019	0.019

System: (2R,3R)-2,3-dihydroxybutanedioic acid + water + octan-1-ol; phases: Liquid mixture 1, Liquid mixture 2
Fixed: Temperature, K = 300
Fixed: Pressure, kPa = 100
Property: Molality, mol/kg of (2R,3R)-2,3-dihydroxybutanedioic acid (Liquid mixture 1); method: titration
Molality, mol/kg of (2R,3R)-2,3-dihydroxybutanedioic acid	Molality, mol/kg of (2R,3R)-2,3-dihydroxybutanedioic acid	uncertainty
0.098	0.004	0.004
0.235	0.015	0.015
0.478	0.022	0.02
0.784	0.016	0.016
0.98	0.04	0.02
