Measured thermophysical data. Solubilities, Densities, and Refractive Indices in the Ternary Systems (LiBO2 + NaBO2 + H2O) and (LiBO2 + KBO2 + H2O) at 298.15 K and 0.1 MPa
Source: J. Chem. Eng. Data, 2019, 10.1021/acs.jced.9b00218
Compound 1: lithium metaborate, BLiO2, InChI=1S/BO2.Li/c2-1-3;/q-1;+1, purity 99%
Compound 2: sodium metaborate, BNaO2, InChI=1S/BO2.Na/c2-1-3;/q-1;+1, purity 99%
Compound 3: potassium metaborate, BKO2, InChI=1S/BO2.K/c2-1-3;/q-1;+1, purity 99%
Compound 4: water, H2O, InChI=1S/H2O/h1H2, purity 99.9%

System: lithium metaborate + sodium metaborate + water; phases: Liquid, Crystal of intercomponent compound 1
Fixed: Temperature, K = 298.15
Fixed: Pressure, kPa = 100
Property: Mass fraction of lithium metaborate (Liquid); method: Inductively Coupled Plasma Optical Emission Spectrometer, alkali titration method
Mass fraction of sodium metaborate	Mass fraction of lithium metaborate	uncertainty
0	0.0336	0.0003
0.0067	0.0356	0.0004
0.0305	0.0317	0.0003
0.0555	0.0317	0.0003
0.0987	0.0299	0.0003
0.1273	0.0294	0.0003
0.148	0.0301	0.0003
0.1653	0.0334	0.0004
0.1911	0.0358	0.0004
0.2051	0.0377	0.0004

System: lithium metaborate + sodium metaborate + water; phases: Liquid, Crystal of intercomponent compound 2
Fixed: Temperature, K = 298.15
Fixed: Pressure, kPa = 100
Property: Mass fraction of sodium metaborate (Liquid); method: charge balance of ions and alkali titration method
Mass fraction of lithium metaborate	Mass fraction of sodium metaborate	uncertainty
0.0377	0.2051	0.0028
0.0369	0.1999	0.0027
0.0299	0.201	0.0013
0.0217	0.2056	0.0013
0.0105	0.2143	0.0014
0	0.2259	0.0014

System: lithium metaborate + sodium metaborate + water; phases: Liquid
Fixed: Temperature, K = 298.15
Fixed: Pressure, kPa = 100
Property: Mass density, kg/m3 (Liquid); method: Vibrating tube method
Mass fraction of lithium metaborate	Mass fraction of sodium metaborate	Mass density, kg/m3	uncertainty
0.0336	0	1035.63	12
0.0356	0.0067	1043.11	14.77
0.0317	0.0305	1063.58	39.22
0.0317	0.0555	1091.74	49.25
0.0299	0.0987	1143.06	63.56
0.0294	0.1273	1193.9	54.3
0.0301	0.148	1220.45	59.5
0.0334	0.1653	1248.01	57.59
0.0358	0.1911	1286.14	57.8
0.0377	0.2051	1303.4	55.35
0.0369	0.1999	1299.31	60.94
0.0299	0.201	1292.29	55.33
0.0217	0.2056	1286.24	59.77
0.0105	0.2143	1278.25	53.39
0	0.2259	1280.56	51.74

System: lithium metaborate + sodium metaborate + water; phases: Liquid
Fixed: Temperature, K = 298.15
Fixed: Pressure, kPa = 100
Property: Refractive index (Na D-line) (Liquid); method: Standard Abbe refractometry
Mass fraction of lithium metaborate	Mass fraction of sodium metaborate	Refractive index (Na D-line)	uncertainty
0.0336	0	1.3448	0.002021
0.0356	0.0067	1.345282	0.002022
0.0317	0.0305	1.349527	0.002023
0.0317	0.0555	1.356197	0.002026
0.0299	0.0987	1.366119	0.003546
0.0294	0.1273	1.374241	0.002033
0.0301	0.148	1.379847	0.002034
0.0334	0.1653	1.385527	0.002035
0.0358	0.1911	1.392325	0.002036
0.0377	0.2051	1.395495	0.002029
0.0369	0.1999	1.394514	0.002037
0.0299	0.201	1.392322	0.002042
0.0217	0.2056	1.391031	0.002044
0.0105	0.2143	1.389091	0.002046
0	0.2259	1.388976	0.002046

System: lithium metaborate + potassium metaborate + water; phases: Liquid, Crystal of intercomponent compound 1
Fixed: Temperature, K = 298.15
Fixed: Pressure, kPa = 100
Property: Mass fraction of lithium metaborate (Liquid); method: Inductively Coupled Plasma Optical Emission Spectrometer, alkali titration method
Solvent: Mass fraction of potassium metaborate	Mass fraction of lithium metaborate	uncertainty
0	0.0336	0.0003
0.0403	0.0251	0.0003
0.0893	0.0202	0.0002
0.1294	0.0212	0.0002
0.182	0.0247	0.0003
0.2328	0.0292	0.0003
0.3109	0.0331	0.0004
0.3671	0.0349	0.0004
0.4211	0.0397	0.0005

System: lithium metaborate + potassium metaborate + water; phases: Liquid, Crystal of intercomponent compound 2
Fixed: Temperature, K = 298.15
Fixed: Pressure, kPa = 100
Property: Mass fraction of potassium metaborate (Liquid); method: gravimetric method and alkali titration method
Solvent: Mass fraction of lithium metaborate	Mass fraction of potassium metaborate	uncertainty
0.0397	0.4211	0.0027
0.0216	0.4303	0.0027
0.0164	0.4344	0.0028
0.0139	0.4358	0.0028
0	0.4388	0.0028

System: lithium metaborate + potassium metaborate + water; phases: Liquid
Fixed: Temperature, K = 298.15
Fixed: Pressure, kPa = 100
Property: Mass density, kg/m3 (Liquid); method: Vibrating tube method
Mass fraction of lithium metaborate	Mass fraction of potassium metaborate	Mass density, kg/m3	uncertainty
0.0336	0	1035.63	12
0.0251	0.0403	1072.82	46.74
0.0202	0.0893	1120.05	39.89
0.0212	0.1294	1158.06	29.33
0.0247	0.182	1232.47	46.98
0.0292	0.2328	1304.17	46.98
0.0331	0.3109	1400.78	61.36
0.0349	0.3671	1488.54	61.26
0.0397	0.4211	1576.95	60.9
0.0216	0.4303	1558.62	54.7
0.0164	0.4344	1555.03	54.47
0.0139	0.4358	1554.44	54.03
0	0.4388	1539.08	51.52

System: lithium metaborate + potassium metaborate + water; phases: Liquid
Fixed: Temperature, K = 298.15
Fixed: Pressure, kPa = 100
Property: Refractive index (Na D-line) (Liquid); method: Standard Abbe refractometry
Mass fraction of lithium metaborate	Mass fraction of potassium metaborate	Refractive index (Na D-line)	uncertainty
0.0336	0	1.3448	0.002022
0.0251	0.0403	1.349826	0.002022
0.0202	0.0893	1.358583	0.002023
0.0212	0.1294	1.366575	0.002026
0.0247	0.182	1.378113	0.002035
0.0292	0.2328	1.391524	0.002044
0.0331	0.3109	1.407198	0.002069
0.0349	0.3671	1.42101	0.002087
0.0397	0.4211	1.431953	0.002092
0.0216	0.4303	1.429583	0.002094
0.0164	0.4344	1.429092	0.002096
0.0139	0.4358	1.427044	0.002104
0	0.4388	1.425427	0.002087

System: lithium metaborate + water; phases: Liquid, Crystal of intercomponent compound 1
Property: Mass fraction of lithium metaborate (Liquid); method: Inductively Coupled Plasma Optical Emission Spectrometer, alkali titration method
Temperature, K	Pressure, kPa	Mass fraction of lithium metaborate	uncertainty
298.15	100	0.0336	0.0003

System: lithium metaborate + water; phases: Liquid
Property: Mass density, kg/m3 (Liquid); method: Vibrating tube method
Mass fraction of lithium metaborate	Temperature, K	Pressure, kPa	Mass density, kg/m3	uncertainty
0.0336	298.15	100	1035.63	12

System: lithium metaborate + water; phases: Liquid
Property: Refractive index (Na D-line) (Liquid); method: Standard Abbe refractometry
Mass fraction of lithium metaborate	Temperature, K	Pressure, kPa	Refractive index (Na D-line)	uncertainty
0.0336	298.15	100	1.3448	0.00202

System: sodium metaborate + water; phases: Liquid, Crystal of intercomponent compound 2
Property: Mass fraction of sodium metaborate (Liquid); method: charge balance of ions and alkali titration method
Temperature, K	Pressure, kPa	Mass fraction of sodium metaborate	uncertainty
298.15	100	0.2259	0.0014

System: sodium metaborate + water; phases: Liquid
Property: Mass density, kg/m3 (Liquid); method: Vibrating tube method
Mass fraction of sodium metaborate	Temperature, K	Pressure, kPa	Mass density, kg/m3	uncertainty
0.2259	298.15	100	1280.56	12

System: sodium metaborate + water; phases: Liquid
Property: Refractive index (Na D-line) (Liquid); method: Standard Abbe refractometry
Mass fraction of sodium metaborate	Temperature, K	Pressure, kPa	Refractive index (Na D-line)	uncertainty
0.2259	298.15	100	1.388976	0.002021

System: potassium metaborate + water; phases: Liquid, Crystal of intercomponent compound 2
Property: Mass fraction of potassium metaborate (Liquid); method: gravimetric method and alkali titration method
Temperature, K	Pressure, kPa	Mass fraction of potassium metaborate	uncertainty
298.15	100	0.4388	0.0028

System: potassium metaborate + water; phases: Liquid
Property: Mass density, kg/m3 (Liquid); method: Vibrating tube method
Mass fraction of potassium metaborate	Temperature, K	Pressure, kPa	Mass density, kg/m3	uncertainty
0.4388	298.15	100	1539.08	12.01

System: potassium metaborate + water; phases: Liquid
Property: Refractive index (Na D-line) (Liquid); method: Standard Abbe refractometry
Mass fraction of potassium metaborate	Temperature, K	Pressure, kPa	Refractive index (Na D-line)	uncertainty
0.4388	298.15	100	1.425427	0.002022
