Measured thermophysical data. Liquid-Liquid Equilibria of Formic Acid and Furfural in a Biphasic Aqueous-Organic System: Optimization of Solvent and Amine Extractant
Source: J. Chem. Eng. Data, 2018, 10.1021/acs.jced.8b00335
Compound 1: 2-furaldehyde, C5H4O2, InChI=1S/C5H4O2/c6-4-5-2-1-3-7-5/h1-4H, purity 99%
Compound 2: formic acid, CH2O2, InChI=1S/CH2O2/c2-1-3/h1H,(H,2,3), purity 99%
Compound 3: dodecylbenzene, C18H30, InChI=1S/C18H30/c1-2-3-4-5-6-7-8-9-10-12-15-18-16-13-11-14-17-18/h11,13-14,16-17H,2-10,12,15H2,1H3, purity 98%
Compound 4: 1,3-dichloro-2-methylbenzene, C7H6Cl2, InChI=1S/C7H6Cl2/c1-5-6(8)3-2-4-7(5)9/h2-4H,1H3, purity 99%
Compound 5: 1,2-dimethoxybenzene, C8H10O2, InChI=1S/C8H10O2/c1-9-7-5-3-4-6-8(7)10-2/h3-6H,1-2H3, purity 99%
Compound 6: 1,3-dimethyl-4-nitrobenzene, C8H9NO2, InChI=1S/C8H9NO2/c1-6-3-4-8(9(10)11)7(2)5-6/h3-5H,1-2H3, purity 99%
Compound 7: dodecane, C12H26, InChI=1S/C12H26/c1-3-5-7-9-11-12-10-8-6-4-2/h3-12H2,1-2H3, purity 99.5%
Compound 8: diethyl phthalate, C12H14O4, InChI=1S/C12H14O4/c1-3-15-11(13)9-7-5-6-8-10(9)12(14)16-4-2/h5-8H,3-4H2,1-2H3, purity 99.5%
Compound 9: di-n-octyl adipate, C22H42O4, InChI=1S/C22H42O4/c1-3-5-7-9-11-15-19-25-21(23)17-13-14-18-22(24)26-20-16-12-10-8-6-4-2/h3-20H2,1-2H3, purity 99%
Compound 10: glyceryl triethanoate, C9H14O6, InChI=1S/C9H14O6/c1-6(10)13-4-9(15-8(3)12)5-14-7(2)11/h9H,4-5H2,1-3H3, purity 99%
Compound 11: tributyl phosphate, C12H27O4P, InChI=1S/C12H27O4P/c1-4-7-10-14-17(13,15-11-8-5-2)16-12-9-6-3/h4-12H2,1-3H3, purity 98.5%
Compound 12: dibutyl phthalate, C16H22O4, InChI=1S/C16H22O4/c1-3-5-11-19-15(17)13-9-7-8-10-14(13)16(18)20-12-6-4-2/h7-10H,3-6,11-12H2,1-2H3, purity 99.5%
Compound 13: dioctyl 1,2-benzenedicarboxylate, C24H38O4, InChI=1S/C24H38O4/c1-3-5-7-9-11-15-19-27-23(25)21-17-13-14-18-22(21)24(26)28-20-16-12-10-8-6-4-2/h13-14,17-18H,3-12,15-16,19-20H2,1-2H3, purity 99%
Compound 14: dibutyl decanedioate, C18H34O4, InChI=1S/C18H34O4/c1-3-5-15-21-17(19)13-11-9-7-8-10-12-14-18(20)22-16-6-4-2/h3-16H2,1-2H3, purity 98%
Compound 15: dimethyl pentanedioate, C7H12O4, InChI=1S/C7H12O4/c1-10-6(8)4-3-5-7(9)11-2/h3-5H2,1-2H3, purity 98%
Compound 16: 1,2,3,4-tetrahydronaphthalene, C10H12, InChI=1S/C10H12/c1-2-6-10-8-4-3-7-9(10)5-1/h1-2,5-6H,3-4,7-8H2, purity 98%
Compound 17: water, H2O, InChI=1S/H2O/h1H2, purity 99.9%
Compound 18: 4-oxopentanoic acid, C5H8O3, InChI=1S/C5H8O3/c1-4(6)2-3-5(7)8/h2-3H2,1H3,(H,7,8), purity 99%

System: dodecylbenzene + water + 2-furaldehyde; phases: Liquid mixture 1, Liquid mixture 2
Fixed: Temperature, K = 298.15
Fixed: Pressure, kPa = 2500
Property: Mass fraction of 2-furaldehyde (Liquid mixture 1); method: Chromatography
Mass fraction of 2-furaldehyde	Mass fraction of 2-furaldehyde	uncertainty
0.004538	0.005603	0.005603
0.009254	0.011143	0.011143
0.011936	0.017071	0.017071
0.017583	0.022598	0.022598
0.021852	0.028511	0.024801
0.026265	0.033601	0.024801
0.030892	0.038601	0.024802
0.034982	0.043921	0.024802

System: 1,3-dichloro-2-methylbenzene + water + 2-furaldehyde; phases: Liquid mixture 1, Liquid mixture 2
Fixed: Temperature, K = 298.15
Fixed: Pressure, kPa = 2500
Property: Mass fraction of 2-furaldehyde (Liquid mixture 1); method: Chromatography
Mass fraction of 2-furaldehyde	Mass fraction of 2-furaldehyde	uncertainty
0.002351	0.007451	0.007451
0.004566	0.014835	0.014835
0.006408	0.023391	0.023391
0.009413	0.030947	0.024801
0.010965	0.037654	0.024801
0.013452	0.046451	0.024802
0.016462	0.055412	0.024803
0.017754	0.062987	0.024804

System: 1,2-dimethoxybenzene + water + 2-furaldehyde; phases: Liquid mixture 1, Liquid mixture 2
Fixed: Temperature, K = 298.15
Fixed: Pressure, kPa = 2500
Property: Mass fraction of 2-furaldehyde (Liquid mixture 1); method: Chromatography
Mass fraction of 2-furaldehyde	Mass fraction of 2-furaldehyde	uncertainty
0.001385	0.008512	0.008512
0.002451	0.017736	0.017736
0.003864	0.025842	0.024801
0.005824	0.033415	0.024801
0.006527	0.043504	0.024802
0.007254	0.052612	0.024803
0.008624	0.062354	0.024804
0.010548	0.068954	0.024805

System: 1,3-dimethyl-4-nitrobenzene + water + 2-furaldehyde; phases: Liquid mixture 1, Liquid mixture 2
Fixed: Temperature, K = 298.15
Fixed: Pressure, kPa = 2500
Property: Mass fraction of 2-furaldehyde (Liquid mixture 1); method: Chromatography
Mass fraction of 2-furaldehyde	Mass fraction of 2-furaldehyde	uncertainty
0.000884	0.008745	0.008745
0.001602	0.017846	0.017846
0.002451	0.027348	0.024801
0.003189	0.037014	0.024801
0.004325	0.045631	0.024802
0.004518	0.055142	0.024803
0.005218	0.064351	0.024804
0.005846	0.072954	0.024805

System: 1,2,3,4-tetrahydronaphthalene + water + 2-furaldehyde; phases: Liquid mixture 1, Liquid mixture 2
Fixed: Temperature, K = 298.15
Fixed: Pressure, kPa = 2500
Property: Mass fraction of 2-furaldehyde (Liquid mixture 1); method: Chromatography
Mass fraction of 2-furaldehyde	Mass fraction of 2-furaldehyde	uncertainty
0.005203	0.004624	0.004624
0.011025	0.009524	0.009524
0.014821	0.014421	0.014421
0.020842	0.019534	0.019534
0.025874	0.024121	0.024121
0.031154	0.028875	0.024801
0.035412	0.034035	0.024801
0.041352	0.038954	0.024802

System: diethyl phthalate + water + 2-furaldehyde; phases: Liquid mixture 1, Liquid mixture 2
Fixed: Temperature, K = 298.15
Fixed: Pressure, kPa = 2500
Property: Mass fraction of 2-furaldehyde (Liquid mixture 1); method: Chromatography
Mass fraction of 2-furaldehyde	Mass fraction of 2-furaldehyde	uncertainty
0.001354	0.008819	0.008819
0.002415	0.017824	0.017824
0.003188	0.027036	0.024801
0.004439	0.035913	0.024801
0.005436	0.043951	0.024802
0.006524	0.053172	0.024803
0.007834	0.061844	0.024804
0.009021	0.071354	0.024805

System: dibutyl phthalate + water + 2-furaldehyde; phases: Liquid mixture 1, Liquid mixture 2
Fixed: Temperature, K = 298.15
Fixed: Pressure, kPa = 2500
Property: Mass fraction of 2-furaldehyde (Liquid mixture 1); method: Chromatography
Mass fraction of 2-furaldehyde	Mass fraction of 2-furaldehyde	uncertainty
0.001195	0.008615	0.008615
0.002498	0.017514	0.017514
0.003688	0.025918	0.024801
0.004876	0.034816	0.024801
0.006514	0.043916	0.024802
0.007508	0.052845	0.024803
0.008415	0.061814	0.024804
0.010825	0.070025	0.024805

System: dioctyl 1,2-benzenedicarboxylate + water + 2-furaldehyde; phases: Liquid mixture 1, Liquid mixture 2
Fixed: Temperature, K = 298.15
Fixed: Pressure, kPa = 2500
Property: Mass fraction of 2-furaldehyde (Liquid mixture 1); method: Chromatography
Mass fraction of 2-furaldehyde	Mass fraction of 2-furaldehyde	uncertainty
0.002752	0.007569	0.007569
0.005203	0.015075	0.015075
0.007542	0.023015	0.023015
0.011254	0.029234	0.024801
0.012769	0.036412	0.024801
0.016913	0.042857	0.024802
0.019324	0.050561	0.024803
0.019856	0.059745	0.024804

System: dodecane + water + 2-furaldehyde; phases: Liquid mixture 1, Liquid mixture 2
Fixed: Temperature, K = 298.15
Fixed: Pressure, kPa = 2500
Property: Mass fraction of 2-furaldehyde (Liquid mixture 1); method: Chromatography
Mass fraction of 2-furaldehyde	Mass fraction of 2-furaldehyde	uncertainty
0.008654	0.001498	0.001498
0.015962	0.003473	0.003473
0.023984	0.005294	0.005294
0.033029	0.006741	0.006741
0.041847	0.007759	0.007759
0.049847	0.009854	0.009854
0.059235	0.010421	0.010421
0.067959	0.011829	0.011829

System: di-n-octyl adipate + water + 2-furaldehyde; phases: Liquid mixture 1, Liquid mixture 2
Fixed: Temperature, K = 298.15
Fixed: Pressure, kPa = 2500
Property: Mass fraction of 2-furaldehyde (Liquid mixture 1); method: Chromatography
Mass fraction of 2-furaldehyde	Mass fraction of 2-furaldehyde	uncertainty
0.003184	0.006549	0.006549
0.006532	0.013792	0.013792
0.009764	0.020196	0.018801
0.012658	0.026634	0.018801
0.016158	0.034027	0.018802
0.019543	0.040127	0.018802
0.022958	0.046519	0.018803
0.025137	0.054127	0.018804

System: glyceryl triethanoate + water + 2-furaldehyde; phases: Liquid mixture 1, Liquid mixture 2
Fixed: Temperature, K = 298.15
Fixed: Pressure, kPa = 2500
Property: Mass fraction of 2-furaldehyde (Liquid mixture 1); method: Chromatography
Mass fraction of 2-furaldehyde	Mass fraction of 2-furaldehyde	uncertainty
0.001149	0.008746	0.008746
0.002167	0.017627	0.017627
0.002756	0.026549	0.018801
0.004419	0.036018	0.018802
0.005328	0.045127	0.018803
0.006486	0.053679	0.018804
0.006948	0.062476	0.018805
0.008146	0.072154	0.018807

System: tributyl phosphate + water + 2-furaldehyde; phases: Liquid mixture 1, Liquid mixture 2
Fixed: Temperature, K = 298.15
Fixed: Pressure, kPa = 2500
Property: Mass fraction of 2-furaldehyde (Liquid mixture 1); method: Chromatography
Mass fraction of 2-furaldehyde	Mass fraction of 2-furaldehyde	uncertainty
0.001342	0.008642	0.008642
0.002418	0.017649	0.017649
0.003627	0.026349	0.018801
0.004416	0.035148	0.018802
0.005984	0.044657	0.018803
0.006543	0.053649	0.018804
0.007843	0.062341	0.018805
0.008849	0.071544	0.018807

System: dibutyl decanedioate + water + 2-furaldehyde; phases: Liquid mixture 1, Liquid mixture 2
Fixed: Temperature, K = 298.15
Fixed: Pressure, kPa = 2500
Property: Mass fraction of 2-furaldehyde (Liquid mixture 1); method: Chromatography
Mass fraction of 2-furaldehyde	Mass fraction of 2-furaldehyde	uncertainty
0.002016	0.008143	0.008143
0.003941	0.015748	0.015748
0.005743	0.024318	0.018801
0.007346	0.032546	0.018801
0.009482	0.040719	0.018802
0.011873	0.048851	0.018803
0.013849	0.056372	0.018804
0.015248	0.065344	0.018806

System: dimethyl pentanedioate + water + 2-furaldehyde; phases: Liquid mixture 1, Liquid mixture 2
Fixed: Temperature, K = 298.15
Fixed: Pressure, kPa = 2500
Property: Mass fraction of 2-furaldehyde (Liquid mixture 1); method: Chromatography
Mass fraction of 2-furaldehyde	Mass fraction of 2-furaldehyde	uncertainty
0.001135	0.008842	0.008842
0.002147	0.017624	0.017624
0.003341	0.026457	0.018801
0.004276	0.035642	0.018802
0.005248	0.045017	0.018803
0.005973	0.054418	0.018804
0.007346	0.063048	0.018805
0.008245	0.072217	0.018807

System: 1,3-dimethyl-4-nitrobenzene + water + formic acid; phases: Liquid mixture 1, Liquid mixture 2
Fixed: Temperature, K = 298.15
Fixed: Pressure, kPa = 2500
Property: Mass fraction of formic acid (Liquid mixture 1); method: Chromatography
Mass fraction of formic acid	Mass fraction of formic acid	uncertainty
0.047953	0.001257	0.001257
0.123875	0.003361	0.003361
0.214973	0.004371	0.004371
0.282846	0.006729	0.006729
0.351867	0.009234	0.009234

System: diethyl phthalate + water + formic acid; phases: Liquid mixture 1, Liquid mixture 2
Fixed: Temperature, K = 298.15
Fixed: Pressure, kPa = 2500
Property: Mass fraction of formic acid (Liquid mixture 1); method: Chromatography
Mass fraction of formic acid	Mass fraction of formic acid	uncertainty
0.04795	0.001463	0.001463
0.127832	0.002946	0.002946
0.205486	0.004689	0.004689
0.269543	0.006943	0.006943
0.350154	0.014841	0.014841

System: dibutyl decanedioate + water + formic acid; phases: Liquid mixture 1, Liquid mixture 2
Fixed: Temperature, K = 298.15
Fixed: Pressure, kPa = 2500
Property: Mass fraction of formic acid (Liquid mixture 1); method: Chromatography
Mass fraction of formic acid	Mass fraction of formic acid	uncertainty
0.044895	0.004681	0.004681
0.119548	0.013307	0.013307
0.179643	0.025018	0.020482
0.275491	0.025746	0.02054
0.332976	0.041165	0.021476

System: 1,2-dimethoxybenzene + water + formic acid; phases: Liquid mixture 1, Liquid mixture 2
Fixed: Temperature, K = 298.15
Fixed: Pressure, kPa = 2500
Property: Mass fraction of formic acid (Liquid mixture 1); method: Chromatography
Mass fraction of formic acid	Mass fraction of formic acid	uncertainty
0.041425	0.008579	0.008579
0.105643	0.023547	0.02159
0.168856	0.044625	0.020634
0.247624	0.041976	0.020561
0.295787	0.05946	0.02233

System: tributyl phosphate + water + formic acid; phases: Liquid mixture 1, Liquid mixture 2
Fixed: Temperature, K = 298.15
Fixed: Pressure, kPa = 2500
Property: Mass fraction of formic acid (Liquid mixture 1); method: Chromatography
Mass fraction of formic acid	Mass fraction of formic acid	uncertainty
0.021475	0.028624	0.028624
0.06068	0.068942	0.03897
0.088945	0.119567	0.035501
0.134879	0.157754	0.034014
0.164954	0.20401	0.04355

System: dimethyl pentanedioate + water + formic acid; phases: Liquid mixture 1, Liquid mixture 2
Fixed: Temperature, K = 298.15
Fixed: Pressure, kPa = 2500
Property: Mass fraction of formic acid (Liquid mixture 1); method: Chromatography
Mass fraction of formic acid	Mass fraction of formic acid	uncertainty
0.018956	0.031118	0.020401
0.049536	0.080014	0.020408
0.081627	0.129246	0.02042
0.110125	0.179645	0.02044
0.142146	0.240846	0.020471

System: glyceryl triethanoate + water + formic acid; phases: Liquid mixture 1, Liquid mixture 2
Fixed: Temperature, K = 298.15
Fixed: Pressure, kPa = 2500
Property: Mass fraction of formic acid (Liquid mixture 1); method: Chromatography
Mass fraction of formic acid	Mass fraction of formic acid	uncertainty
0.023248	0.02914	0.02914
0.056472	0.075412	0.040596
0.089127	0.12162	0.03972
0.12395	0.16742	0.04075
0.160027	0.221575	0.042742

System: dibutyl phthalate + water + formic acid; phases: Liquid mixture 1, Liquid mixture 2
Fixed: Temperature, K = 298.15
Fixed: Pressure, kPa = 2500
Property: Mass fraction of formic acid (Liquid mixture 1); method: Chromatography
Mass fraction of formic acid	Mass fraction of formic acid	uncertainty
0.025648	0.026748	0.026748
0.065834	0.067634	0.034395
0.102967	0.112478	0.037736
0.139647	0.161347	0.029632
0.192645	0.191452	0.024893

System: 1,2-dimethoxybenzene + water; phases: Liquid mixture 1, Liquid mixture 2
Property: Mass fraction of water (Liquid mixture 1); method: OTHER
Temperature, K	Pressure, kPa	Mass fraction of water	uncertainty
293.15	2500	0.013556	0.001386

System: 1,2-dimethoxybenzene + water; phases: Liquid mixture 2, Liquid mixture 1
Property: Mass fraction of 1,2-dimethoxybenzene (Liquid mixture 2); method: OTHER
Temperature, K	Pressure, kPa	Mass fraction of 1,2-dimethoxybenzene	uncertainty
293.15	2500	0.006519	0.000666

System: 1,3-dimethyl-4-nitrobenzene + water; phases: Liquid mixture 1, Liquid mixture 2
Property: Mass fraction of water (Liquid mixture 1); method: OTHER
Temperature, K	Pressure, kPa	Mass fraction of water	uncertainty
293.15	2500	0.014596	0.001492

System: 1,3-dimethyl-4-nitrobenzene + water; phases: Liquid mixture 2, Liquid mixture 1
Property: Mass fraction of 1,3-dimethyl-4-nitrobenzene (Liquid mixture 2); method: OTHER
Temperature, K	Pressure, kPa	Mass fraction of 1,3-dimethyl-4-nitrobenzene	uncertainty
293.15	2500	0.002174	0.000222

System: diethyl phthalate + water; phases: Liquid mixture 1, Liquid mixture 2
Property: Mass fraction of water (Liquid mixture 1); method: OTHER
Temperature, K	Pressure, kPa	Mass fraction of water	uncertainty
293.15	2500	0.009436	0.000965

System: diethyl phthalate + water; phases: Liquid mixture 2, Liquid mixture 1
Property: Mass fraction of diethyl phthalate (Liquid mixture 2); method: OTHER
Temperature, K	Pressure, kPa	Mass fraction of diethyl phthalate	uncertainty
293.15	2500	0.001046	0.000107

System: tributyl phosphate + water; phases: Liquid mixture 1, Liquid mixture 2
Property: Mass fraction of water (Liquid mixture 1); method: OTHER
Temperature, K	Pressure, kPa	Mass fraction of water	uncertainty
293.15	2500	0.061708	0.006308

System: tributyl phosphate + water; phases: Liquid mixture 2, Liquid mixture 1
Property: Mass fraction of tributyl phosphate (Liquid mixture 2); method: OTHER
Temperature, K	Pressure, kPa	Mass fraction of tributyl phosphate	uncertainty
293.15	2500	3e-05	1e-05

System: dibutyl phthalate + water; phases: Liquid mixture 1, Liquid mixture 2
Property: Mass fraction of water (Liquid mixture 1); method: OTHER
Temperature, K	Pressure, kPa	Mass fraction of water	uncertainty
293.15	2500	0.007379	0.000754

System: dibutyl phthalate + water; phases: Liquid mixture 2, Liquid mixture 1
Property: Mass fraction of dibutyl phthalate (Liquid mixture 2); method: OTHER
Temperature, K	Pressure, kPa	Mass fraction of dibutyl phthalate	uncertainty
293.15	2500	3.7e-05	4e-06

System: dibutyl decanedioate + water; phases: Liquid mixture 1, Liquid mixture 2
Property: Mass fraction of water (Liquid mixture 1); method: OTHER
Temperature, K	Pressure, kPa	Mass fraction of water	uncertainty
293.15	2500	0.00614	0.000628

System: dibutyl decanedioate + water; phases: Liquid mixture 2, Liquid mixture 1
Property: Mass fraction of dibutyl decanedioate (Liquid mixture 2); method: OTHER
Temperature, K	Pressure, kPa	Mass fraction of dibutyl decanedioate	uncertainty
293.15	2500	0.000151	1.5e-05

System: 4-oxopentanoic acid + water + dodecylbenzene; phases: Liquid mixture 1, Liquid mixture 2
Property: Mass fraction of 4-oxopentanoic acid (Liquid mixture 1); method: Chromatography
Mass fraction of 4-oxopentanoic acid	Temperature, K	Pressure, kPa	Mass fraction of 4-oxopentanoic acid	uncertainty
0.048155	298.15	2500	0.001534	0.001534

System: 4-oxopentanoic acid + water + 1,3-dichloro-2-methylbenzene; phases: Liquid mixture 1, Liquid mixture 2
Property: Mass fraction of 4-oxopentanoic acid (Liquid mixture 1); method: Chromatography
Mass fraction of 4-oxopentanoic acid	Temperature, K	Pressure, kPa	Mass fraction of 4-oxopentanoic acid	uncertainty
0.048882	298.15	2500	0.000827	0.000827

System: 4-oxopentanoic acid + water + 1,2-dimethoxybenzene; phases: Liquid mixture 1, Liquid mixture 2
Property: Mass fraction of 4-oxopentanoic acid (Liquid mixture 1); method: Chromatography
Mass fraction of 4-oxopentanoic acid	Temperature, K	Pressure, kPa	Mass fraction of 4-oxopentanoic acid	uncertainty
0.046835	298.15	2500	0.002913	0.002913

System: 4-oxopentanoic acid + water + 1,3-dimethyl-4-nitrobenzene; phases: Liquid mixture 1, Liquid mixture 2
Property: Mass fraction of 4-oxopentanoic acid (Liquid mixture 1); method: Chromatography
Mass fraction of 4-oxopentanoic acid	Temperature, K	Pressure, kPa	Mass fraction of 4-oxopentanoic acid	uncertainty
0.047313	298.15	2500	0.002415	0.002415

System: 4-oxopentanoic acid + water + 1,2,3,4-tetrahydronaphthalene; phases: Liquid mixture 1, Liquid mixture 2
Property: Mass fraction of 4-oxopentanoic acid (Liquid mixture 1); method: Chromatography
Mass fraction of 4-oxopentanoic acid	Temperature, K	Pressure, kPa	Mass fraction of 4-oxopentanoic acid	uncertainty
0.048105	298.15	2500	0.001635	0.001635

System: 4-oxopentanoic acid + water + diethyl phthalate; phases: Liquid mixture 1, Liquid mixture 2
Property: Mass fraction of 4-oxopentanoic acid (Liquid mixture 1); method: Chromatography
Mass fraction of 4-oxopentanoic acid	Temperature, K	Pressure, kPa	Mass fraction of 4-oxopentanoic acid	uncertainty
0.045579	298.15	2500	0.004186	0.004186

System: 4-oxopentanoic acid + water + dibutyl phthalate; phases: Liquid mixture 1, Liquid mixture 2
Property: Mass fraction of 4-oxopentanoic acid (Liquid mixture 1); method: Chromatography
Mass fraction of 4-oxopentanoic acid	Temperature, K	Pressure, kPa	Mass fraction of 4-oxopentanoic acid	uncertainty
0.045552	298.15	2500	0.004206	0.004206

System: 4-oxopentanoic acid + water + dioctyl 1,2-benzenedicarboxylate; phases: Liquid mixture 1, Liquid mixture 2
Property: Mass fraction of 4-oxopentanoic acid (Liquid mixture 1); method: Chromatography
Mass fraction of 4-oxopentanoic acid	Temperature, K	Pressure, kPa	Mass fraction of 4-oxopentanoic acid	uncertainty
0.046237	298.15	2500	0.003517	0.003517

System: 4-oxopentanoic acid + water + dodecane; phases: Liquid mixture 1, Liquid mixture 2
Property: Mass fraction of 4-oxopentanoic acid (Liquid mixture 1); method: Chromatography
Mass fraction of 4-oxopentanoic acid	Temperature, K	Pressure, kPa	Mass fraction of 4-oxopentanoic acid	uncertainty
0.044755	298.15	2500	0.005035	0.005035

System: 4-oxopentanoic acid + water + di-n-octyl adipate; phases: Liquid mixture 1, Liquid mixture 2
Property: Mass fraction of 4-oxopentanoic acid (Liquid mixture 1); method: Chromatography
Mass fraction of 4-oxopentanoic acid	Temperature, K	Pressure, kPa	Mass fraction of 4-oxopentanoic acid	uncertainty
0.042986	298.15	2500	0.006787	0.006787

System: 4-oxopentanoic acid + water + glyceryl triethanoate; phases: Liquid mixture 1, Liquid mixture 2
Property: Mass fraction of 4-oxopentanoic acid (Liquid mixture 1); method: Chromatography
Mass fraction of 4-oxopentanoic acid	Temperature, K	Pressure, kPa	Mass fraction of 4-oxopentanoic acid	uncertainty
0.044438	298.15	2500	0.00531	0.00531

System: 4-oxopentanoic acid + water + tributyl phosphate; phases: Liquid mixture 1, Liquid mixture 2
Property: Mass fraction of 4-oxopentanoic acid (Liquid mixture 1); method: Chromatography
Mass fraction of 4-oxopentanoic acid	Temperature, K	Pressure, kPa	Mass fraction of 4-oxopentanoic acid	uncertainty
0.041012	298.15	2500	0.00877	0.00877

System: 4-oxopentanoic acid + water + dibutyl decanedioate; phases: Liquid mixture 1, Liquid mixture 2
Property: Mass fraction of 4-oxopentanoic acid (Liquid mixture 1); method: Chromatography
Mass fraction of 4-oxopentanoic acid	Temperature, K	Pressure, kPa	Mass fraction of 4-oxopentanoic acid	uncertainty
0.041982	298.15	2500	0.007779	0.007779

System: 4-oxopentanoic acid + water + dimethyl pentanedioate; phases: Liquid mixture 1, Liquid mixture 2
Property: Mass fraction of 4-oxopentanoic acid (Liquid mixture 1); method: Chromatography
Mass fraction of 4-oxopentanoic acid	Temperature, K	Pressure, kPa	Mass fraction of 4-oxopentanoic acid	uncertainty
0.043085	298.15	2500	0.006689	0.006689
