Measured thermophysical data. Density Measurements of the H2-CO2-CH4-CO-H2O System by the Isochoric Method at 722-930 K and 15.4-30.3 MPa
Source: J. Chem. Eng. Data, 2019, 10.1021/acs.jced.9b00399
Compound 1: nitrogen, N2, InChI=1S/N2/c1-2, purity 99.999%
Compound 2: hydrogen, H2, InChI=1S/H2/h1H, purity 99.999%
Compound 3: water, H2O, InChI=1S/H2O/h1H2, purity 99.9%
Compound 4: carbon dioxide, CO2, InChI=1S/CO2/c2-1-3, purity 99.99%

System: nitrogen; phases: Gas
Property: Mass density, kg/m3 (Gas); method: ISOCHOR
Temperature, K	Pressure, kPa	Mass density, kg/m3	uncertainty
927.1	26090	86.03	0.7
874.6	24580	86.14	0.72
805.8	22603	86.28	0.73
727.3	20352	86.58	0.74

System: hydrogen; phases: Gas
Property: Mass density, kg/m3 (Gas); method: ISOCHOR
Temperature, K	Pressure, kPa	Mass density, kg/m3	uncertainty
924	25112	6.313	0.058
914.1	24899	6.319	0.054
904.5	24668	6.324	0.056
892.3	24413	6.337	0.054
883.3	24272	6.344	0.054
874.1	24069	6.354	0.053
863.3	23818	6.366	0.057
854.7	23640	6.381	0.058
844.3	23469	6.412	0.056
834.3	23222	6.422	0.054
822.2	22963	6.441	0.056
812.9	22702	6.442	0.056
803.8	22451	6.442	0.058
792.8	22153	6.443	0.058
784.3	21917	6.444	0.058
773.4	21625	6.445	0.058
763.9	21370	6.445	0.057
753.6	21086	6.447	0.054
743.1	20811	6.447	0.059
733.6	20559	6.449	0.059
722.4	20262	6.45	0.059

System: water; phases: Gas
Property: Mass density, kg/m3 (Gas); method: ISOCHOR
Temperature, K	Pressure, kPa	Mass density, kg/m3	uncertainty
927.1	22542	57.4	0.74
877.1	21161	58.02	1.17
826.1	19727	58.95	0.72
773.1	17804	58.58	0.71
724.1	15981	58.3	0.77

System: hydrogen + carbon dioxide; phases: Gas
Fixed: Mole fraction of hydrogen = 0.6992
Property: Mass density, kg/m3 (Gas); method: ISOCHOR
Temperature, K	Pressure, kPa	Mass density, kg/m3	uncertainty
753.6	23216	50.82	0.47
743.9	22909	50.82	0.47
733.9	22610	50.86	0.49
723.3	22282	50.87	0.44
713.9	21981	50.87	0.47
703.3	21638	50.85	0.48
693.5	21304	50.79	0.48
683.6	20986	50.78	0.43
673.4	20652	50.77	0.47
