Measured thermophysical data. Salt Water Phase Equilibria in Ternary Systems K+(Mg2+), NH4+//Cl H2O at T = 273 K
Source: J. Chem. Eng. Data, 2017, 10.1021/acs.jced.6b00981
Compound 1: ammonium chloride (NH4Cl), ClH4N, InChI=1S/ClH.H3N/h1H;1H3, purity 99%
Compound 2: potassium chloride, ClK, InChI=1S/ClH.K/h1H;/q;+1/p-1, purity 99%
Compound 3: magnesium chloride, Cl2Mg, InChI=1S/2ClH.Mg/h2*1H;/q;;+2/p-2, purity 99%
Compound 4: water, H2O, InChI=1S/H2O/h1H2, purity 99.8%

System: water + magnesium chloride + ammonium chloride (NH4Cl); phases: Liquid, Crystal
Fixed: Temperature, K = 273
Fixed: Pressure, kPa = 100
Property: Mass fraction of magnesium chloride (Liquid); method: Titration method
Mass fraction of ammonium chloride (NH4Cl)	Mass fraction of magnesium chloride	uncertainty
0.2308	0	
0.2228	0.0223	0.0139
0.1997	0.0447	0.0132
0.1822	0.0569	0.014
0.1647	0.0791	0.0162
0.1359	0.1157	0.0152
0.1085	0.1436	0.0153
0.0914	0.1681	0.0197
0.0829	0.1807	0.0184
0.0812	0.1909	0.0191
0.0671	0.2082	0.0158
0.0641	0.2119	0.0158

System: water + magnesium chloride + ammonium chloride (NH4Cl); phases: Liquid, Crystal of intercomponent compound 1
Fixed: Temperature, K = 273
Fixed: Pressure, kPa = 100
Property: Mass fraction of magnesium chloride (Liquid); method: Titration method
Mass fraction of ammonium chloride (NH4Cl)	Mass fraction of magnesium chloride	uncertainty
0.0641	0.2119	0.0233
0.0539	0.2334	0.0193
0.0412	0.2499	0.0138
0.0251	0.2612	0.0135
0.0079	0.2801	0.0133

System: water + magnesium chloride + ammonium chloride (NH4Cl); phases: Liquid, Crystal of intercomponent compound 2
Fixed: Temperature, K = 273
Fixed: Pressure, kPa = 100
Property: Mass fraction of magnesium chloride (Liquid); method: Titration method
Mass fraction of ammonium chloride (NH4Cl)	Mass fraction of magnesium chloride	uncertainty
0.0079	0.2801	0.01
0.0022	0.3007	0.01
0.0005	0.3403	0.01
0	0.3413	0.01

System: water + magnesium chloride + ammonium chloride (NH4Cl); phases: Liquid
Fixed: Pressure, kPa = 100
Fixed: Temperature, K = 273
Property: Mass density, kg/m3 (Liquid); method: Pycnometric method
Mass fraction of ammonium chloride (NH4Cl)	Mass fraction of magnesium chloride	Mass density, kg/m3	uncertainty
0.2308	0	1069.8	1.7
0.2228	0.0223	1082.6	5.8
0.1997	0.0447	1095.4	5.5
0.1822	0.0569	1106.8	7.1
0.1647	0.0791	1117.4	7.1
0.1359	0.1157	1136.9	6.5
0.1085	0.1436	1155.3	10.8
0.0914	0.1681	1172.5	8.5
0.0829	0.1807	1185.3	8.5
0.0812	0.1909	1193.5	9
0.0671	0.2082	1204.3	6.3
0.0641	0.2119	1207.7	9.3
0.0539	0.2334	1215.5	9.4
0.0412	0.2499	1224.8	7.8
0.0251	0.2612	1240.1	7.8
0.0079	0.2801	1249.8	7.7
0.0022	0.3007	1263.6	7.1
0.0005	0.3403	1291.7	7.1
0	0.3413	1316.5	13.5

System: potassium chloride + water + ammonium chloride (NH4Cl); phases: Liquid, Crystal
Fixed: Temperature, K = 273
Fixed: Pressure, kPa = 100
Property: Mass fraction of potassium chloride (Liquid); method: Titration method
Mass fraction of ammonium chloride (NH4Cl)	Mass fraction of potassium chloride	uncertainty
0	0.2243	0.01
0.0117	0.2162	0.01
0.0191	0.2084	0.01
0.0295	0.2013	0.01

System: potassium chloride + water + ammonium chloride (NH4Cl); phases: Liquid, Crystal
Fixed: Temperature, K = 273
Fixed: Pressure, kPa = 100
Property: Mass fraction of potassium chloride (Liquid); method: Titration method
Mass fraction of ammonium chloride (NH4Cl)	Mass fraction of potassium chloride	uncertainty
0.0295	0.2013	0.0117
0.0475	0.1905	0.0113
0.0713	0.1792	0.0126
0.0941	0.1548	0.0137
0.1197	0.1341	0.011
0.1785	0.1089	0.0285
0.1777	0.1136	0.0307
0.1804	0.1106	0.0129
0.1889	0.0811	0.0178
0.2158	0.0506	0.0151

System: potassium chloride + water + ammonium chloride (NH4Cl); phases: Liquid, Crystal
Fixed: Temperature, K = 273
Fixed: Pressure, kPa = 100
Property: Mass fraction of potassium chloride (Liquid); method: Titration method
Mass fraction of ammonium chloride (NH4Cl)	Mass fraction of potassium chloride	uncertainty
0.2158	0.0506	0.01
0.2162	0.0377	0.01
0.226	0.0244	0.01
0.2308	0.0163	0.01
0.2386	0.0093	0.0093
0.2308	0	

System: potassium chloride + water + ammonium chloride (NH4Cl); phases: Liquid
Fixed: Pressure, kPa = 100
Fixed: Temperature, K = 273
Property: Mass density, kg/m3 (Liquid); method: Pycnometric method
Mass fraction of ammonium chloride (NH4Cl)	Mass fraction of potassium chloride	Mass density, kg/m3	uncertainty
0	0.2243	1151.1	26
0.0117	0.2162	1150.6	31.3
0.0191	0.2084	1143.4	21.2
0.0295	0.2013	1140.4	21.2
0.0475	0.1905	1136	6.1
0.0713	0.1792	1137.7	6.1
0.0941	0.1548	1134.2	6.8
0.1197	0.1341	1128.3	5.6
0.1785	0.1089	1120.4	9.5
0.1777	0.1136	1124.9	9.9
0.1804	0.1106	1122.5	9.7
0.1889	0.0811	1099.5	9.7
0.2158	0.0506	1099.6	17
0.2162	0.0377	1086	18.3
0.226	0.0244	1085.2	7.9
0.2308	0.0163	1075.5	7.4
0.2386	0.0093	1077.1	7.3
0.2308	0	1069.8	6.6

System: water + ammonium chloride (NH4Cl); phases: Liquid, Crystal
Property: Mass fraction of ammonium chloride (NH4Cl) (Liquid); method: Titration method
Temperature, K	Pressure, kPa	Mass fraction of ammonium chloride (NH4Cl)	uncertainty
273	100	0.2308	0.01

System: water + ammonium chloride (NH4Cl); phases: Liquid
Property: Mass density, kg/m3 (Liquid); method: Pycnometric method
Mass fraction of ammonium chloride (NH4Cl)	Pressure, kPa	Temperature, K	Mass density, kg/m3	uncertainty
0.2308	100	273	1069.8	1.2

System: water + magnesium chloride; phases: Liquid, Crystal of intercomponent compound 2
Property: Mass fraction of magnesium chloride (Liquid); method: Titration method
Temperature, K	Pressure, kPa	Mass fraction of magnesium chloride	uncertainty
273	100	0.3413	0.01

System: water + magnesium chloride; phases: Liquid
Property: Mass density, kg/m3 (Liquid); method: Pycnometric method
Mass fraction of magnesium chloride	Pressure, kPa	Temperature, K	Mass density, kg/m3	uncertainty
0.3413	100	273	1316.5	1.5

System: potassium chloride + water; phases: Liquid, Crystal
Property: Mass fraction of potassium chloride (Liquid); method: Titration method
Temperature, K	Pressure, kPa	Mass fraction of potassium chloride	uncertainty
273	100	0.2243	0.01

System: potassium chloride + water; phases: Liquid
Property: Mass density, kg/m3 (Liquid); method: Pycnometric method
Mass fraction of potassium chloride	Pressure, kPa	Temperature, K	Mass density, kg/m3	uncertainty
0.2243	100	273	1151.1	4.2
