Measured thermophysical data. High-Pressure Viscosity Measurements for the Binary Mixture HFE-7500 + Diisopropyl Ether
Source: J. Chem. Eng. Data, 2019, 10.1021/acs.jced.9b00540
Compound 1: 2-trifluoromethyl-3-ethoxydodecafluorohexane, C9H5F15O, InChI=1S/C9H5F15O/c1-2-25-6(15,3(10,7(16,17)18)8(19,20)21)4(11,12)5(13,14)9(22,23)24/h2H2,1H3, purity 99.5%
Compound 2: diisopropyl ether, C6H14O, InChI=1S/C6H14O/c1-5(2)7-6(3)4/h5-6H,1-4H3, purity 99.5%

System: 2-trifluoromethyl-3-ethoxydodecafluorohexane; phases: Liquid
Property: Viscosity, Pa*s (Liquid); method: Falling or rolling sphere viscometry
Pressure, kPa	Temperature, K	Viscosity, Pa*s	uncertainty
20000	293.15	0.001894	4.3e-05
40000	293.15	0.002645	5.9e-05
60000	293.15	0.003622	8.1e-05
80000	293.15	0.004894	0.000109
100000	293.15	0.006553	0.000144
20000	313.15	0.001356	3e-05
40000	313.15	0.001869	4.2e-05
60000	313.15	0.00251	5.6e-05
80000	313.15	0.00331	7.3e-05
100000	313.15	0.004307	9.6e-05
20000	333.15	0.001032	2.3e-05
40000	333.15	0.00141	3.1e-05
60000	333.15	0.00187	4.1e-05
80000	333.15	0.002427	5.3e-05
100000	333.15	0.003105	6.8e-05
20000	353.15	0.000799	1.8e-05
40000	353.15	0.001084	2.4e-05
60000	353.15	0.001418	3.1e-05
80000	353.15	0.001808	4e-05
100000	353.15	0.002265	4.9e-05
100	293.15	0.001369	3.1e-05
100	313.15	0.000983	2.2e-05
100	333.15	0.000739	1.7e-05
100	353.15	0.000576	1.3e-05

System: diisopropyl ether; phases: Liquid
Property: Viscosity, Pa*s (Liquid); method: Falling or rolling sphere viscometry
Pressure, kPa	Temperature, K	Viscosity, Pa*s	uncertainty
20000	293.15	0.000396	9e-06
40000	293.15	0.000466	1e-05
60000	293.15	0.000542	1.2e-05
80000	293.15	0.000625	1.4e-05
100000	293.15	0.000715	1.5e-05
20000	313.15	0.000332	7e-06
40000	313.15	0.000392	9e-06
60000	313.15	0.000454	1e-05
80000	313.15	0.00052	1.1e-05
100000	313.15	0.000588	1.3e-05
20000	333.15	0.000282	6e-06
40000	333.15	0.000342	7e-06
60000	333.15	0.000402	9e-06
80000	333.15	0.00046	1e-05
100000	333.15	0.000517	1.1e-05
20000	353.15	0.000258	6e-06
40000	353.15	0.000308	7e-06
60000	353.15	0.000358	8e-06
80000	353.15	0.000408	9e-06
100000	353.15	0.000457	1e-05
100	293.15	0.00033	7e-06
100	313.15	0.00027	6e-06
100	333.15	0.000225	5e-06

System: 2-trifluoromethyl-3-ethoxydodecafluorohexane + diisopropyl ether; phases: Liquid
Property: Viscosity, Pa*s (Liquid); method: Falling or rolling sphere viscometry
Pressure, kPa	Temperature, K	Mole fraction of 2-trifluoromethyl-3-ethoxydodecafluorohexane	Viscosity, Pa*s	uncertainty
20000	293.15	0	0.000396	9e-06
40000	293.15	0	0.000466	1e-05
60000	293.15	0	0.000542	1.2e-05
80000	293.15	0	0.000625	1.4e-05
100000	293.15	0	0.000715	1.5e-05
20000	313.15	0	0.000332	7e-06
40000	313.15	0	0.000392	9e-06
60000	313.15	0	0.000454	1e-05
80000	313.15	0	0.00052	1.1e-05
100000	313.15	0	0.000588	1.3e-05
20000	333.15	0	0.000282	6e-06
40000	333.15	0	0.000342	7e-06
60000	333.15	0	0.000402	9e-06
80000	333.15	0	0.00046	1e-05
100000	333.15	0	0.000517	1.1e-05
20000	353.15	0	0.000258	6e-06
40000	353.15	0	0.000308	7e-06
60000	353.15	0	0.000358	8e-06
80000	353.15	0	0.000408	9e-06
100000	353.15	0	0.000457	1e-05
20000	293.15	0.25	0.000602	1.3e-05
40000	293.15	0.25	0.000732	1.6e-05
60000	293.15	0.25	0.000883	1.9e-05
80000	293.15	0.25	0.001058	2.3e-05
100000	293.15	0.25	0.00126	2.8e-05
20000	313.15	0.25	0.000476	1e-05
40000	313.15	0.25	0.000587	1.3e-05
60000	313.15	0.25	0.000712	1.6e-05
80000	313.15	0.25	0.000853	1.9e-05
100000	313.15	0.25	0.001014	2.2e-05
20000	333.15	0.25	0.000393	9e-06
40000	333.15	0.25	0.000491	1.1e-05
60000	333.15	0.25	0.000595	1.3e-05
80000	333.15	0.25	0.000706	1.5e-05
100000	333.15	0.25	0.000822	1.8e-05
20000	353.15	0.25	0.00034	7e-06
40000	353.15	0.25	0.000428	9e-06
60000	353.15	0.25	0.000517	1.1e-05
80000	353.15	0.25	0.00061	1.3e-05
100000	353.15	0.25	0.000706	1.5e-05
20000	293.15	0.375	0.000751	1.7e-05
40000	293.15	0.375	0.000944	2.1e-05
60000	293.15	0.375	0.001171	2.6e-05
80000	293.15	0.375	0.001435	3.1e-05
100000	293.15	0.375	0.001741	3.8e-05
20000	313.15	0.375	0.000598	1.3e-05
40000	313.15	0.375	0.000748	1.6e-05
60000	313.15	0.375	0.000917	2e-05
80000	313.15	0.375	0.001104	2.4e-05
100000	313.15	0.375	0.001312	2.9e-05
20000	333.15	0.375	0.000488	1.1e-05
40000	333.15	0.375	0.000604	1.3e-05
60000	333.15	0.375	0.000735	1.6e-05
80000	333.15	0.375	0.000884	1.9e-05
100000	333.15	0.375	0.001051	2.3e-05
20000	353.15	0.375	0.000399	9e-06
40000	353.15	0.375	0.000508	1.1e-05
60000	353.15	0.375	0.000622	1.4e-05
80000	353.15	0.375	0.000739	1.6e-05
100000	353.15	0.375	0.000855	1.9e-05
20000	293.15	0.5	0.000939	2.1e-05
40000	293.15	0.5	0.001198	2.6e-05
60000	293.15	0.5	0.00149	3.3e-05
80000	293.15	0.5	0.00182	4e-05
100000	293.15	0.5	0.002197	4.8e-05
20000	313.15	0.5	0.000701	1.5e-05
40000	313.15	0.5	0.000894	2e-05
60000	313.15	0.5	0.001118	2.4e-05
80000	313.15	0.5	0.001376	3e-05
100000	313.15	0.5	0.001677	3.7e-05
20000	333.15	0.5	0.00056	1.2e-05
40000	333.15	0.5	0.000707	1.5e-05
60000	333.15	0.5	0.000875	1.9e-05
80000	333.15	0.5	0.001067	2.3e-05
100000	333.15	0.5	0.001283	2.8e-05
20000	353.15	0.5	0.000442	1e-05
40000	353.15	0.5	0.000578	1.3e-05
60000	353.15	0.5	0.000724	1.6e-05
80000	353.15	0.5	0.000879	1.9e-05
100000	353.15	0.5	0.001037	2.2e-05
20000	293.15	0.625	0.0011	2.4e-05
40000	293.15	0.625	0.001412	3.1e-05
60000	293.15	0.625	0.001802	4e-05
80000	293.15	0.625	0.002291	5e-05
100000	293.15	0.625	0.002902	6.4e-05
20000	313.15	0.625	0.000821	1.8e-05
40000	313.15	0.625	0.001059	2.3e-05
60000	313.15	0.625	0.001339	2.9e-05
80000	313.15	0.625	0.001669	3.7e-05
100000	313.15	0.625	0.002058	4.5e-05
20000	333.15	0.625	0.000644	1.4e-05
40000	333.15	0.625	0.000826	1.8e-05
60000	333.15	0.625	0.001035	2.3e-05
80000	333.15	0.625	0.001277	2.8e-05
100000	333.15	0.625	0.001557	3.4e-05
20000	353.15	0.625	0.000499	1.1e-05
40000	353.15	0.625	0.00066	1.5e-05
60000	353.15	0.625	0.000836	1.8e-05
80000	353.15	0.625	0.001025	2.2e-05
100000	353.15	0.625	0.001223	2.7e-05
20000	293.15	0.75	0.001315	2.9e-05
40000	293.15	0.75	0.001727	3.8e-05
60000	293.15	0.75	0.002255	5e-05
80000	293.15	0.75	0.002936	6.5e-05
100000	293.15	0.75	0.003814	8.5e-05
20000	313.15	0.75	0.000979	2.2e-05
40000	313.15	0.75	0.001292	2.9e-05
60000	313.15	0.75	0.001668	3.7e-05
80000	313.15	0.75	0.002119	4.7e-05
100000	313.15	0.75	0.002663	5.9e-05
20000	333.15	0.75	0.000754	1.7e-05
40000	333.15	0.75	0.000982	2.2e-05
60000	333.15	0.75	0.001252	2.7e-05
80000	333.15	0.75	0.001574	3.4e-05
100000	333.15	0.75	0.001958	4.3e-05
20000	353.15	0.75	0.000591	1.3e-05
40000	353.15	0.75	0.000773	1.7e-05
60000	353.15	0.75	0.000997	2.2e-05
80000	353.15	0.75	0.001245	2.7e-05
100000	353.15	0.75	0.001504	3.3e-05
20000	293.15	1	0.001894	4.3e-05
40000	293.15	1	0.002645	5.9e-05
60000	293.15	1	0.003622	8.1e-05
80000	293.15	1	0.004894	0.000109
100000	293.15	1	0.006553	0.000144
20000	313.15	1	0.001356	3e-05
40000	313.15	1	0.001869	4.2e-05
60000	313.15	1	0.00251	5.6e-05
80000	313.15	1	0.00331	7.3e-05
100000	313.15	1	0.004307	9.6e-05
20000	333.15	1	0.001032	2.3e-05
40000	333.15	1	0.00141	3.1e-05
60000	333.15	1	0.00187	4.1e-05
80000	333.15	1	0.002427	5.3e-05
100000	333.15	1	0.003105	6.8e-05
20000	353.15	1	0.000799	1.8e-05
40000	353.15	1	0.001084	2.4e-05
60000	353.15	1	0.001418	3.1e-05
80000	353.15	1	0.001808	4e-05
100000	353.15	1	0.002265	4.9e-05

System: 2-trifluoromethyl-3-ethoxydodecafluorohexane + diisopropyl ether; phases: Liquid
Fixed: Pressure, kPa = 100
Property: Viscosity, Pa*s (Liquid); method: Capillary tube (Ostwald; Ubbelohde) method
Temperature, K	Mole fraction of 2-trifluoromethyl-3-ethoxydodecafluorohexane	Viscosity, Pa*s	uncertainty
293.15	0	0.00033	7e-06
293.15	0.25	0.000483	1e-05
293.15	0.375	0.000573	1.2e-05
293.15	0.5	0.000685	1.4e-05
293.15	0.625	0.000818	1.7e-05
293.15	0.75	0.000985	2.1e-05
293.15	1	0.001369	2.9e-05
313.15	0	0.00027	6e-06
313.15	0.25	0.000386	8e-06
313.15	0.375	0.000441	9e-06
313.15	0.5	0.000526	1.1e-05
313.15	0.625	0.000617	1.3e-05
313.15	0.75	0.000735	1.5e-05
313.15	1	0.000983	2.1e-05
333.15	0	0.000225	5e-06
333.15	0.25	0.000311	7e-06
333.15	0.375	0.000356	8e-06
333.15	0.5	0.000416	9e-06
333.15	0.625	0.000486	1e-05
333.15	0.75	0.000574	1.2e-05
333.15	1	0.000739	1.6e-05
353.15	0.75	0.000465	1e-05
353.15	1	0.000576	1.2e-05
