Measured thermophysical data. Solubilities and Thermodynamic Properties of NH3 in Glycerin and its Derivatives
Source: J. Chem. Eng. Data, 2019, 10.1021/acs.jced.8b01042
Compound 1: ammonia, H3N, InChI=1S/H3N/h1H3, purity 99.9%
Compound 2: glycerol, C3H8O3, InChI=1S/C3H8O3/c4-1-3(6)2-5/h3-6H,1-2H2, purity 99.5%
Compound 3: 1,3-dioxolane-4-methanol, C4H8O3, InChI=1S/C4H8O3/c5-1-4-2-6-3-7-4/h4-5H,1-3H2, purity 98%
Compound 4: 1,3-dioxan-5-ol, C4H8O3, InChI=1S/C4H8O3/c5-4-1-6-3-7-2-4/h4-5H,1-3H2, purity 98%
Compound 5: 2,2-dimethyl-1,3-dioxolane-4-methanol, C6H12O3, InChI=1S/C6H12O3/c1-6(2)8-4-5(3-7)9-6/h5,7H,3-4H2,1-2H3, purity 98%
Compound 6: 3-methoxy-1,2-propanediol, C4H10O3, InChI=1S/C4H10O3/c1-7-3-4(6)2-5/h4-6H,2-3H2,1H3, purity 98.5%
Compound 7: choline chloride, C5H14ClNO, InChI=1S/C5H14NO.ClH/c1-6(2,3)4-5-7;/h7H,4-5H2,1-3H3;1H/q+1;/p-1, purity 99%
Compound 8: urea, CH4N2O, InChI=1S/CH4N2O/c2-1(3)4/h(H4,2,3,4), purity 99%

System: glycerol; phases: Liquid
Property: Viscosity, Pa*s (Liquid); method: Capillary tube (Ostwald; Ubbelohde) method
Temperature, K	Pressure, kPa	Viscosity, Pa*s	uncertainty
298.15	100	1.2	0.097

System: 2,2-dimethyl-1,3-dioxolane-4-methanol; phases: Liquid
Property: Viscosity, Pa*s (Liquid); method: Capillary tube (Ostwald; Ubbelohde) method
Temperature, K	Pressure, kPa	Viscosity, Pa*s	uncertainty
298.15	100	0.01006	0.00042

System: 1,3-dioxan-5-ol + 1,3-dioxolane-4-methanol; phases: Liquid
Property: Viscosity, Pa*s (Liquid); method: Capillary tube (Ostwald; Ubbelohde) method
Mole fraction of 1,3-dioxan-5-ol	Temperature, K	Pressure, kPa	Viscosity, Pa*s	uncertainty
0.66	298.15	101.3	0.02005	0.00084

System: ammonia + glycerol; phases: Liquid, Gas
Property: Mole fraction of ammonia (Liquid); method: Phase equilibration
Temperature, K	Pressure, kPa	Mole fraction of ammonia	uncertainty
303.15	16.1	0.1453	0.01
303.15	50	0.2977	0.0136
303.15	81.8	0.3777	0.0157
303.15	135.3	0.4648	0.019
303.15	180.9	0.5145	0.0197
303.15	238.1	0.5615	0.0178
303.15	284	0.5933	0.0165
303.15	372	0.6415	0.0145
303.15	445.4	0.6752	0.0132
303.15	496	0.6965	0.0123
323.15	54.3	0.2017	0.0093
323.15	90.6	0.2744	0.0115
323.15	131.1	0.3348	0.0137
323.15	191.4	0.3989	0.0162
323.15	257.2	0.4515	0.0183
323.15	328.3	0.497	0.02
323.15	400.8	0.5338	0.0189
323.15	467.8	0.5627	0.0177
323.15	565.8	0.5996	0.0162
333.15	41.5	0.1283	0.0065
313.15	13.2	0.1017	0.0071
313.15	87.6	0.3423	0.0146
313.15	139.1	0.4189	0.0171
313.15	216.6	0.4952	0.0201
313.15	303.8	0.5545	0.018
313.15	386.8	0.5976	0.0163
313.15	463.5	0.6293	0.015
313.15	526.5	0.6531	0.014
323.15	20.1	0.0997	0.0069
333.15	79.1	0.2114	0.0091
333.15	122.5	0.2728	0.0113
333.15	160.8	0.3152	0.0129
333.15	209.6	0.3597	0.0146
333.15	301.4	0.4239	0.0172
333.15	345.7	0.4475	0.0181
333.15	378.8	0.4642	0.0188
333.15	430.4	0.4879	0.0197
333.15	462.5	0.5015	0.0202

System: ammonia + 2,2-dimethyl-1,3-dioxolane-4-methanol; phases: Liquid, Gas
Property: Mole fraction of ammonia (Liquid); method: Phase equilibration
Temperature, K	Pressure, kPa	Mole fraction of ammonia	uncertainty
303.15	12.9	0.0915	0.0066
303.15	62	0.241	0.0107
303.15	102.1	0.3084	0.0127
303.15	180.9	0.3989	0.0163
303.15	246.4	0.4539	0.0185
303.15	293.2	0.4868	0.0198
303.15	336.8	0.5151	0.0197
303.15	397.5	0.5522	0.0182
303.15	432.8	0.5664	0.0176
303.15	467	0.586	0.0168
303.15	503.6	0.6049	0.0161
313.15	75.6	0.228	0.0094
313.15	169.1	0.3147	0.0129
313.15	257.2	0.3888	0.0158
313.15	337.8	0.4421	0.018
313.15	426.8	0.494	0.0201
313.15	479.7	0.5222	0.0194
313.15	511.7	0.5378	0.0188
323.15	41.1	0.1073	0.0056
323.15	77	0.1789	0.0077
323.15	133	0.249	0.0103
323.15	204.9	0.3116	0.0127
323.15	271.8	0.3612	0.0147
323.15	325.8	0.3944	0.016
323.15	366	0.4176	0.017
323.15	417.3	0.445	0.0181
323.15	453.5	0.4621	0.0188
323.15	494.1	0.4813	0.0195
333.15	33.7	0.0619	0.0037
333.15	89.2	0.1457	0.0064
333.15	138.5	0.2002	0.0083
333.15	241.3	0.283	0.0116
333.15	300.7	0.3218	0.0131
333.15	383.1	0.3666	0.0149
333.15	436	0.3908	0.0159
333.15	499.1	0.4185	0.017

System: ammonia + 3-methoxy-1,2-propanediol; phases: Liquid, Gas
Property: Mole fraction of ammonia (Liquid); method: Phase equilibration
Temperature, K	Pressure, kPa	Mole fraction of ammonia	uncertainty
303.15	32.3	0.1849	0.0088
303.15	65.8	0.2707	0.0116
303.15	109.8	0.3454	0.0142
303.15	216.9	0.4612	0.0188
303.15	255.5	0.4914	0.0199
303.15	291.2	0.5162	0.0196
303.15	376.1	0.5696	0.0175
303.15	404.4	0.5861	0.0168
303.15	466.2	0.6197	0.0154
303.15	494.9	0.6348	0.0148
313.15	63	0.217	0.0093
313.15	113.6	0.3038	0.0125
313.15	194	0.3986	0.0162
313.15	276.7	0.466	0.0189
313.15	360.2	0.5184	0.0195
313.15	415.8	0.5478	0.0183
313.15	465.8	0.5726	0.0173
313.15	530.4	0.6031	0.0161
323.15	31.7	0.1036	0.0057
323.15	78.5	0.2024	0.0088
323.15	118.5	0.2618	0.0108
323.15	185.5	0.3374	0.0138
323.15	288.3	0.4163	0.0169
323.15	332.4	0.4439	0.018
323.15	348.9	0.4557	0.0185
323.15	395.1	0.4807	0.0195
323.15	440.2	0.5026	0.0202
323.15	486.7	0.5225	0.0194
333.15	29.1	0.072	0.0041
333.15	73.6	0.144	0.0063
333.15	163.8	0.2478	0.0102
333.15	193.2	0.2734	0.0112
333.15	250.3	0.3153	0.0128
333.15	321.8	0.3593	0.0146
333.15	368.1	0.384	0.0156
333.15	408.6	0.4042	0.0164
333.15	449.2	0.4233	0.0172
333.15	516.7	0.4511	0.0183

System: ammonia + 1,3-dioxan-5-ol + 1,3-dioxolane-4-methanol; phases: Liquid, Gas
Fixed: Solvent: Mole fraction of 1,3-dioxan-5-ol = 0.66
Property: Mole fraction of ammonia (Liquid); method: Phase equilibration
Temperature, K	Pressure, kPa	Mole fraction of ammonia	uncertainty
303.15	26.1	0.1891	0.0124
303.15	74.1	0.3179	0.0195
303.15	139.8	0.415	0.0252
303.15	202.5	0.4727	0.0286
303.15	260.9	0.5184	0.0292
303.15	320.4	0.5554	0.0269
303.15	381.9	0.5917	0.0247
303.15	443.4	0.623	0.0229
313.15	48.2	0.2257	0.0141
313.15	87.1	0.2892	0.0176
313.15	157.1	0.3831	0.0232
313.15	240.9	0.4533	0.0274
313.15	295.3	0.4883	0.0295
313.15	332.7	0.5111	0.0296
313.15	391.6	0.5413	0.0278
313.15	460.7	0.5732	0.0259
313.15	502.7	0.5913	0.0248
323.15	68.5	0.2118	0.013
323.15	141	0.3086	0.0188
323.15	164.6	0.3368	0.0204
323.15	210.2	0.3717	0.0225
323.15	264.3	0.407	0.0246
323.15	319.4	0.4365	0.0264
323.15	395.8	0.4812	0.0291
323.15	451.2	0.5044	0.03
323.15	518.3	0.5303	0.0284
333.15	38.2	0.1141	0.0076
333.15	58.8	0.1514	0.0095
333.15	101.4	0.2112	0.0129
333.15	162.4	0.2717	0.0165
333.15	203.9	0.3051	0.0185
333.15	260.3	0.342	0.0207
333.15	323.9	0.3779	0.0228
333.15	393.5	0.4118	0.0249
333.15	423	0.4253	0.0257
333.15	482.9	0.449	0.0271

System: ammonia + choline chloride + urea; phases: Liquid, Gas
Fixed: Solvent: Amount ratio of component to other component of binary solvent of choline chloride = 0.5
Property: Molality, mol/kg of ammonia (Liquid); method: phase equilibration
Temperature, K	Pressure, kPa	Molality, mol/kg of ammonia	uncertainty
313.15	18.6	0.2566	0.0383
313.15	40.8	0.6113	0.0367
313.15	79.4	1.1582	0.0361
313.15	103.6	1.5052	0.0364
313.15	141	2.0307	0.0369
313.15	195.1	2.7906	0.0396
313.15	293	4.1954	0.0437
313.15	408.6	5.7868	0.0508
323.15	26.2	0.2963	0.0455
323.15	68.4	0.7579	0.045
323.15	95.9	1.0006	0.0446
323.15	127.8	1.3106	0.0452
323.15	199.2	2.0139	0.0476
323.15	281.9	2.8055	0.0493
323.15	400.6	3.8903	0.0532
