Measured thermophysical data. Acetonitrile and Na+ or K+ Salts as Constituents of the Aqueous Two-Phase System: Equilibrium Data and Capsaicin Purification
Source: J. Chem. Eng. Data, 2019, 10.1021/acs.jced.9b00526
Compound 1: acetonitrile, C2H3N, InChI=1S/C2H3N/c1-2-3/h1H3, purity 99.9%
Compound 2: potassium citrate, C6H5K3O7, InChI=1S/C6H8O7.3K/c7-3(8)1-6(13,5(11)12)2-4(9)10;;;/h13H,1-2H2,(H,7,8)(H,9,10)(H,11,12);;;/q;3*+1/p-3, purity 95%
Compound 3: trisodium citrate, C6H5Na3O7, InChI=1S/C6H8O7.3Na/c7-3(8)1-6(13,5(11)12)2-4(9)10;;;/h13H,1-2H2,(H,7,8)(H,9,10)(H,11,12);;;/q;3*+1/p-3, purity 99%
Compound 4: sodium thiosulfate, Na2O3S2, InChI=1S/2Na.H2O3S2/c;;1-5(2,3)4/h;;(H2,1,2,3,4)/q2*+1;/p-2, purity 99.5%
Compound 5: tripotassium phosphate, K3O4P, InChI=1S/3K.H3O4P/c;;;1-5(2,3)4/h;;;(H3,1,2,3,4)/q3*+1;/p-3, purity 95%
Compound 6: dipotassium hydrogen phosphate, HK2O4P, InChI=1S/2K.H3O4P/c;;1-5(2,3)4/h;;(H3,1,2,3,4)/q2*+1;/p-2, purity 98%
Compound 7: potassium carbonate, CK2O3, InChI=1S/CH2O3.2K/c2-1(3)4;;/h(H2,2,3,4);;/q;2*+1/p-2, purity 99.8%
Compound 8: sodium carbonate, CNa2O3, InChI=1S/CH2O3.2Na/c2-1(3)4;;/h(H2,2,3,4);;/q;2*+1/p-2, purity 99.5%
Compound 9: water, H2O, InChI=1S/H2O/h1H2, purity 99.9%

System: acetonitrile + potassium citrate + water; phases: Liquid mixture 1, Liquid mixture 2
Fixed: Temperature, K = 298.15
Fixed: Pressure, kPa = 100
Property: Mass fraction of acetonitrile (Liquid mixture 1); method: Titration method
Mass fraction of potassium citrate	Mass fraction of acetonitrile	uncertainty
0.2918	0.1	0.022
0.2867	0.102	0.0221
0.272	0.108	0.0223
0.2487	0.1188	0.0225
0.2278	0.1298	0.024
0.211	0.1398	0.024
0.1769	0.1642	0.0263
0.143	0.1957	0.0293
0.1196	0.2238	0.0342
0.0976	0.257	0.0419
0.0808	0.2887	0.0457
0.0708	0.3115	0.0528
0.062	0.3343	0.0563
0.0542	0.3574	0.068
0.0493	0.3737	0.0783
0.0441	0.3929	0.0806
0.0404	0.4077	0.0926
0.036	0.4273	0.1045
0.0324	0.4451	0.1181
0.0296	0.46	0.1321
0.0267	0.4765	0.1606
0.0236	0.496	0.1708
0.0211	0.5138	0.1079
0.0197	0.5242	0.1135
0.0129	0.586	0.0916
0.011	0.6075	0.0866
0.0099	0.6213	0.0808
0.0068	0.6667	0.0655
0.0033	0.738	0.0447
0.0018	0.7887	0.0319

System: acetonitrile + potassium citrate + water; phases: Liquid mixture 1, Liquid mixture 2
Fixed: Temperature, K = 298.15
Fixed: Pressure, kPa = 100
Property: Mass fraction of potassium citrate (Liquid mixture 1); method: OTHER
Property: Mass fraction of acetonitrile (Liquid mixture 2); method: OTHER
Property: Mass fraction of potassium citrate (Liquid mixture 2); method: OTHER
Mass fraction of acetonitrile	Mass fraction of potassium citrate	uncertainty	Mass fraction of acetonitrile	uncertainty	Mass fraction of potassium citrate	uncertainty
0.7601	0.0026	0.0026	0.1028	0.0201	0.2846	
0.6465	0.0081	0.0081	0.158	0.0203	0.1848	

System: acetonitrile + trisodium citrate + water; phases: Liquid mixture 1, Liquid mixture 2
Fixed: Temperature, K = 298.15
Fixed: Pressure, kPa = 100
Property: Mass fraction of trisodium citrate (Liquid mixture 1); method: OTHER
Property: Mass fraction of acetonitrile (Liquid mixture 2); method: OTHER
Property: Mass fraction of trisodium citrate (Liquid mixture 2); method: OTHER
Mass fraction of acetonitrile	Mass fraction of trisodium citrate	uncertainty	Mass fraction of acetonitrile	uncertainty	Mass fraction of trisodium citrate	uncertainty
0.7681	0.0014	0.0014	0.0799	0.0229	0.2935	
0.6526	0.0058	0.0058	0.1367	0.023	0.1907	

System: acetonitrile + trisodium citrate + water; phases: Liquid mixture 1, Liquid mixture 2
Fixed: Temperature, K = 298.15
Fixed: Pressure, kPa = 100
Property: Mass fraction of acetonitrile (Liquid mixture 1); method: Titration method
Mass fraction of trisodium citrate	Mass fraction of acetonitrile	uncertainty
0.2999	0.0773	0.022
0.285	0.0835	0.0221
0.2631	0.0935	0.0227
0.2202	0.1168	0.0237
0.1836	0.1421	0.0256
0.1523	0.1693	0.0283
0.1255	0.1986	0.0334
0.1074	0.223	0.0347
0.0923	0.2475	0.0397
0.0799	0.271	0.0474
0.0702	0.2924	0.0556
0.0613	0.3148	0.0563
0.0539	0.3363	0.067
0.0434	0.3721	0.0818
0.0403	0.3842	0.0934
0.0372	0.3974	0.1022
0.0342	0.411	0.101
0.031	0.4264	0.1151
0.0282	0.4419	0.123
0.0254	0.4577	0.1356
0.0209	0.4878	0.1972
0.0209	0.4878	0.1972
0.0178	0.5112	0.1034
0.0129	0.5558	0.0908
0.0118	0.5678	0.0859
0.0105	0.5824	0.0832
0.0098	0.5909	0.0795
0.0079	0.6179	0.0722
0.0058	0.6507	0.0585
0.0047	0.6724	0.0535
0.0034	0.7031	0.0437
0.0025	0.7277	0.0364
0.0016	0.7582	0.0292
0.0009	0.7921	0.0249

System: acetonitrile + sodium thiosulfate + water; phases: Liquid mixture 1, Liquid mixture 2
Fixed: Temperature, K = 298.15
Fixed: Pressure, kPa = 100
Property: Mass fraction of sodium thiosulfate (Liquid mixture 1); method: OTHER
Property: Mass fraction of acetonitrile (Liquid mixture 2); method: OTHER
Property: Mass fraction of sodium thiosulfate (Liquid mixture 2); method: OTHER
Mass fraction of acetonitrile	Mass fraction of sodium thiosulfate	uncertainty	Mass fraction of acetonitrile	uncertainty	Mass fraction of sodium thiosulfate	uncertainty
0.7557	0.0046	0.0046	0.1139	0.0236	0.2799	
0.6067	0.0148	0.0148	0.1772	0.0238	0.1776	

System: acetonitrile + sodium thiosulfate + water; phases: Liquid mixture 1, Liquid mixture 2
Fixed: Temperature, K = 298.15
Fixed: Pressure, kPa = 100
Property: Mass fraction of acetonitrile (Liquid mixture 1); method: Titration method
Mass fraction of sodium thiosulfate	Mass fraction of acetonitrile	uncertainty
0.3	0.1055	0.0219
0.29	0.1096	0.0221
0.28	0.1138	0.0221
0.267	0.1198	0.0224
0.265	0.1208	0.0224
0.26	0.1232	0.023
0.25	0.1283	0.023
0.2443	0.1314	0.0232
0.2175	0.1473	0.0242
0.1914	0.1659	0.0257
0.1687	0.1852	0.0281
0.1418	0.213	0.0341
0.1243	0.235	0.0337
0.093	0.2857	0.0428
0.0808	0.311	0.0475
0.0712	0.3342	0.0576
0.0615	0.3612	0.0608
0.0535	0.3867	0.0714
0.0491	0.4024	0.0848
0.0452	0.4175	0.0839
0.0414	0.4336	0.0985
0.0365	0.4559	0.1033
0.0328	0.4749	0.1235
0.03	0.4909	0.1304
0.025	0.5222	0.1771
0.023	0.5362	0.1873
0.02	0.5592	0.1197
0.0165	0.5898	0.1129
0.0119	0.6386	0.0959
0.0094	0.6712	0.0852
0.0068	0.7123	0.0684
0.0036	0.7811	0.0483
0.0024	0.8172	0.0387
0.0011	0.8721	0.0264

System: acetonitrile + tripotassium phosphate + water; phases: Liquid mixture 1, Liquid mixture 2
Fixed: Temperature, K = 298.15
Fixed: Pressure, kPa = 100
Property: Mass fraction of tripotassium phosphate (Liquid mixture 1); method: OTHER
Property: Mass fraction of acetonitrile (Liquid mixture 2); method: OTHER
Property: Mass fraction of tripotassium phosphate (Liquid mixture 2); method: OTHER
Mass fraction of acetonitrile	Mass fraction of tripotassium phosphate	uncertainty	Mass fraction of acetonitrile	uncertainty	Mass fraction of tripotassium phosphate	uncertainty
0.7437	0.0016	0.0016	0.0815	0.0201	0.2977	
0.6201	0.0067	0.0067	0.1266	0.0202	0.1979	

System: acetonitrile + tripotassium phosphate + water; phases: Liquid mixture 1, Liquid mixture 2
Fixed: Temperature, K = 298.15
Fixed: Pressure, kPa = 100
Property: Mass fraction of acetonitrile (Liquid mixture 1); method: Titration method
Mass fraction of tripotassium phosphate	Mass fraction of acetonitrile	uncertainty
0.3003	0.0806	0.0214
0.29	0.084	0.0215
0.2825	0.0867	0.0216
0.256	0.0969	0.0225
0.1878	0.1332	0.0239
0.146	0.1666	0.0278
0.1132	0.2036	0.0326
0.0923	0.2348	0.0431
0.0758	0.266	0.0455
0.0616	0.2996	0.0569
0.0511	0.3301	0.0702
0.044	0.3546	0.0799
0.0377	0.3796	0.0971
0.0328	0.4016	0.1041
0.0284	0.4244	0.1434
0.0251	0.444	0.1407
0.0187	0.4877	0.1013
0.0148	0.521	0.0945
0.011	0.5608	0.0837
0.0099	0.5748	0.0784
0.0048	0.6568	0.055
0.003	0.6982	0.0408
0.002	0.7296	0.0327
0.0012	0.7607	0.0264

System: acetonitrile + dipotassium hydrogen phosphate + water; phases: Liquid mixture 1, Liquid mixture 2
Fixed: Temperature, K = 298.15
Fixed: Pressure, kPa = 100
Property: Mass fraction of acetonitrile (Liquid mixture 1); method: Titration method
Mass fraction of dipotassium hydrogen phosphate	Mass fraction of acetonitrile	uncertainty
0.3119	0.0594	0.0213
0.2926	0.0661	0.0215
0.2887	0.0675	0.0214
0.2825	0.0698	0.022
0.2799	0.0708	0.022
0.2675	0.0758	0.0222
0.213	0.1026	0.0231
0.1768	0.1267	0.0254
0.1432	0.1561	0.0284
0.1186	0.1842	0.0328
0.098	0.2139	0.0413
0.0819	0.2432	0.0433
0.0689	0.272	0.0565
0.0588	0.299	0.0658
0.052	0.3201	0.0686
0.0399	0.3657	0.0888
0.0346	0.3899	0.1083
0.0301	0.4136	0.1363
0.0263	0.4363	0.168
0.0223	0.4634	0.1965
0.0187	0.491	0.1132
0.0137	0.5396	0.101
0.0105	0.5769	0.0847
0.0079	0.616	0.0755
0.0026	0.7337	0.039
0.0005	0.8382	0.0222

System: acetonitrile + dipotassium hydrogen phosphate + water; phases: Liquid mixture 2, Liquid mixture 1
Fixed: Temperature, K = 298.15
Fixed: Pressure, kPa = 100
Property: Mass fraction of acetonitrile (Liquid mixture 2); method: OTHER
Property: Mass fraction of dipotassium hydrogen phosphate (Liquid mixture 1); method: OTHER
Property: Mass fraction of acetonitrile (Liquid mixture 1); method: OTHER
Mass fraction of dipotassium hydrogen phosphate	Mass fraction of acetonitrile	uncertainty	Mass fraction of dipotassium hydrogen phosphate	uncertainty	Mass fraction of acetonitrile	uncertainty
0.3022	0.0627	0.0221	0.0019	0.0019	0.7607	
0.2014	0.1096	0.0222	0.0059	0.0059	0.6507	

System: acetonitrile + potassium carbonate + water; phases: Liquid mixture 1, Liquid mixture 2
Fixed: Temperature, K = 298.15
Fixed: Pressure, kPa = 100
Property: Mass fraction of acetonitrile (Liquid mixture 1); method: Titration method
Mass fraction of potassium carbonate	Mass fraction of acetonitrile	uncertainty
0.2975	0.0533	0.0211
0.2784	0.0584	0.0213
0.2197	0.0793	0.0217
0.1859	0.0964	0.0233
0.1559	0.1164	0.0259
0.1383	0.1311	0.0267
0.1212	0.1483	0.0296
0.1066	0.1659	0.033
0.0953	0.1819	0.0367
0.0823	0.2039	0.0439
0.074	0.2202	0.05
0.0649	0.2407	0.0525
0.057	0.2617	0.0642
0.049	0.2864	0.0715
0.0421	0.3113	0.086
0.0371	0.3324	0.0981
0.0323	0.3555	0.1168
0.0284	0.3768	0.1395
0.0257	0.3929	0.1528
0.0215	0.422	0.2218
0.0144	0.485	0.0998
0.0105	0.5303	0.0875
0.0079	0.5694	0.0778
0.0053	0.6196	0.0631
0.0032	0.6719	0.0454
0.001	0.7648	0.0269
0.0009	0.7731	0.026
0.0004	0.8186	0.022
0.0001	0.854	0.0205

System: acetonitrile + potassium carbonate + water; phases: Liquid mixture 2, Liquid mixture 1
Fixed: Temperature, K = 298.15
Fixed: Pressure, kPa = 100
Property: Mass fraction of potassium carbonate (Liquid mixture 2); method: OTHER
Property: Mass fraction of acetonitrile (Liquid mixture 1); method: OTHER
Property: Mass fraction of potassium carbonate (Liquid mixture 1); method: OTHER
Mass fraction of acetonitrile	Mass fraction of potassium carbonate	uncertainty	Mass fraction of acetonitrile	uncertainty	Mass fraction of potassium carbonate	uncertainty
0.6998	0.0027	0.0027	0.0986	0.0276	0.1822	
0.8346	0.00023	0.00023	0.2913	0.0577	0.0549	
0.7368	0.0015	0.0015	0.1981	0.035	0.0896	
0.7684	0.001	0.001	0.0792	0.0218	0.22	
0.8223	0.00033	0.00033	0.0617	0.0209	0.2675	
0.8785	2.8e-05	2.8e-05	0.0455	0.0205	0.3315	
0.8223	0.00033	0.00033	0.0617	0.0209	0.2675	
0.8792	2.7e-05	2.7e-05	0.0454	0.0205	0.332	
0.891	7e-06	7e-06	0.0347	0.0202	0.3942	
0.903	1e-07	1e-07	0.0268	0.0201	0.4655	

System: acetonitrile + sodium carbonate + water; phases: Liquid mixture 1, Liquid mixture 2
Fixed: Temperature, K = 298.15
Fixed: Pressure, kPa = 100
Property: Mass fraction of sodium carbonate (Liquid mixture 1); method: OTHER
Property: Mass fraction of acetonitrile (Liquid mixture 2); method: OTHER
Property: Mass fraction of sodium carbonate (Liquid mixture 2); method: OTHER
Mass fraction of acetonitrile	Mass fraction of sodium carbonate	uncertainty	Mass fraction of acetonitrile	uncertainty	Mass fraction of sodium carbonate	uncertainty
0.7055	0.001	0.001	0.0278	0.0208	0.3337	
0.6216	0.0031	0.0031	0.0586	0.0209	0.2275	

System: acetonitrile + sodium carbonate + water; phases: Liquid mixture 1, Liquid mixture 2
Fixed: Temperature, K = 298.15
Fixed: Pressure, kPa = 100
Property: Mass fraction of acetonitrile (Liquid mixture 1); method: Titration method
Mass fraction of sodium carbonate	Mass fraction of acetonitrile	uncertainty
0.34	0.0265	0.0205
0.32	0.0307	0.0205
0.2975	0.036	0.021
0.2784	0.0412	0.021
0.2197	0.0618	0.0216
0.1859	0.0782	0.023
0.1559	0.0971	0.0252
0.1383	0.1109	0.0259
0.1212	0.127	0.0285
0.1066	0.1432	0.0314
0.0953	0.1581	0.0347
0.0823	0.1783	0.0413
0.074	0.1934	0.0468
0.0649	0.2123	0.0491
0.057	0.2318	0.06
0.049	0.2547	0.0667
0.0421	0.2777	0.0798
0.0371	0.2974	0.0914
0.0323	0.3188	0.1108
0.0284	0.3387	0.1598
0.0268	0.3475	0.1583
0.0243	0.3624	0.1557
0.0218	0.3788	0.2039
0.0198	0.3933	0.1052
0.0176	0.4107	0.0983
0.0145	0.4387	0.0937
0.0128	0.4562	0.087
0.0101	0.4883	0.0809
0.0035	0.61	0.0475
0.0022	0.6516	0.0364
0.0013	0.6908	0.0295
0.0005	0.7436	0.0229
