Measured thermophysical data. Liquid-Liquid Equilibrium for Ternary Systems of N-Methylformamide + Pyrrole/Indole + Alkanes at 298.15 K: Phase Equilibrium Measurement and Correlation
Source: J. Chem. Eng. Data, 2019, 10.1021/acs.jced.9b00202
Compound 1: N-methylformamide, C2H5NO, InChI=1S/C2H5NO/c1-3-2-4/h2H,1H3,(H,3,4)
Compound 2: pyrrole, C4H5N, InChI=1S/C4H5N/c1-2-4-5-3-1/h1-5H
Compound 3: 1H-indole, C8H7N, InChI=1S/C8H7N/c1-2-4-8-7(3-1)5-6-9-8/h1-6,9H
Compound 4: hexane, C6H14, InChI=1S/C6H14/c1-3-5-6-4-2/h3-6H2,1-2H3
Compound 5: heptane, C7H16, InChI=1S/C7H16/c1-3-5-7-6-4-2/h3-7H2,1-2H3
Compound 6: decane, C10H22, InChI=1S/C10H22/c1-3-5-7-9-10-8-6-4-2/h3-10H2,1-2H3
Compound 7: dodecane, C12H26, InChI=1S/C12H26/c1-3-5-7-9-11-12-10-8-6-4-2/h3-12H2,1-2H3

System: N-methylformamide + pyrrole + hexane; phases: Liquid mixture 1, Liquid mixture 2
Fixed: Temperature, K = 298.15
Fixed: Pressure, kPa = 101.3
Property: Mole fraction of N-methylformamide (Liquid mixture 1); method: Chromatography
Property: Mole fraction of pyrrole (Liquid mixture 2); method: Chromatography
Property: Mole fraction of N-methylformamide (Liquid mixture 2); method: Chromatography
Mole fraction of pyrrole	Mole fraction of N-methylformamide	uncertainty	Mole fraction of pyrrole	uncertainty	Mole fraction of N-methylformamide	uncertainty
0.3073	0.0141	0.0141	0.7195	0.0369	0.1898	
0.2917	0.0125	0.0125	0.7034	0.0375	0.2117	
0.2756	0.0117	0.0117	0.6657	0.0386	0.2593	
0.2359	0.0098	0.0098	0.626	0.0406	0.3058	
0.1567	0.0088	0.0088	0.5285	0.0409	0.4154	
0.0851	0.0076	0.0076	0.4427	0.0422	0.5119	
0.0364	0.0059	0.0059	0.3107	0.0432	0.6514	
0.0048	0.0048	0.0048	0.0874	0.045	0.8839	
0	0.0045	0.0045	0		0.955	

System: N-methylformamide + pyrrole + heptane; phases: Liquid mixture 2, Liquid mixture 1
Fixed: Temperature, K = 298.15
Fixed: Pressure, kPa = 101.3
Property: Mole fraction of N-methylformamide (Liquid mixture 2); method: Chromatography
Property: Mole fraction of N-methylformamide (Liquid mixture 1); method: Chromatography
Property: Mole fraction of pyrrole (Liquid mixture 1); method: Chromatography
Mole fraction of pyrrole	Mole fraction of N-methylformamide	uncertainty	Mole fraction of N-methylformamide	uncertainty	Mole fraction of pyrrole	uncertainty
0.6689	0.2916	0.0471	0.013	0.013	0.2129	
0.6397	0.3278	0.0463	0.0115	0.0115	0.1974	
0.6137	0.3557	0.0455	0.0104	0.0104	0.1835	
0.5174	0.4599	0.0455	0.0091	0.0091	0.1367	
0.4786	0.5009	0.0453	0.0067	0.0067	0.1117	
0.378	0.6064	0.0451	0.0061	0.0061	0.0747	
0.2456	0.7426	0.0445	0.0035	0.0035	0.0235	
0	0.975	0.025	0.0032	0.0032	0	

System: N-methylformamide + pyrrole + decane; phases: Liquid mixture 2, Liquid mixture 1
Fixed: Temperature, K = 298.15
Fixed: Pressure, kPa = 101.3
Property: Mole fraction of N-methylformamide (Liquid mixture 2); method: Chromatography
Property: Mole fraction of N-methylformamide (Liquid mixture 1); method: Chromatography
Property: Mole fraction of pyrrole (Liquid mixture 1); method: Chromatography
Mole fraction of pyrrole	Mole fraction of N-methylformamide	uncertainty	Mole fraction of N-methylformamide	uncertainty	Mole fraction of pyrrole	uncertainty
0.856	0.121	0.0453	0.0155	0.0155	0.4275	
0.7954	0.1853	0.0454	0.0146	0.0146	0.3764	
0.7289	0.2568	0.0454	0.0132	0.0132	0.3221	
0.6708	0.3188	0.0452	0.0112	0.0112	0.2838	
0.524	0.4718	0.0451	0.0091	0.0091	0.203	
0.3867	0.6109	0.0449	0.0077	0.0077	0.1318	
0.3475	0.6506	0.0449	0.0052	0.0052	0.0945	
0.2826	0.716	0.0448	0.003	0.003	0.0532	
0	0.9983	0.0017	0.002	0.002	0	

System: N-methylformamide + pyrrole + dodecane; phases: Liquid mixture 2, Liquid mixture 1
Fixed: Temperature, K = 298.15
Fixed: Pressure, kPa = 101.3
Property: Mole fraction of N-methylformamide (Liquid mixture 2); method: Chromatography
Property: Mole fraction of N-methylformamide (Liquid mixture 1); method: Chromatography
Property: Mole fraction of pyrrole (Liquid mixture 1); method: Chromatography
Mole fraction of pyrrole	Mole fraction of N-methylformamide	uncertainty	Mole fraction of N-methylformamide	uncertainty	Mole fraction of pyrrole	uncertainty
0.9151	0.0718	0.0457	0.0178	0.0178	0.455	
0.8871	0.1026	0.0452	0.0169	0.0169	0.342	
0.8556	0.1347	0.045	0.0141	0.0141	0.3171	
0.7969	0.1952	0.0449	0.0131	0.0131	0.268	
0.7283	0.2645	0.045	0.012	0.012	0.2163	
0.6794	0.3156	0.0452	0.008	0.008	0.1586	
0.4758	0.5222	0.0449	0.0076	0.0076	0.0681	
0	0.9987	0.0013	0.0014	0.0014	0	

System: N-methylformamide + 1H-indole + hexane; phases: Liquid mixture 2, Liquid mixture 1
Fixed: Temperature, K = 298.15
Fixed: Pressure, kPa = 101.3
Property: Mole fraction of N-methylformamide (Liquid mixture 2); method: Chromatography
Property: Mole fraction of N-methylformamide (Liquid mixture 1); method: Chromatography
Property: Mole fraction of 1H-indole (Liquid mixture 1); method: Chromatography
Mole fraction of 1H-indole	Mole fraction of N-methylformamide	uncertainty	Mole fraction of N-methylformamide	uncertainty	Mole fraction of 1H-indole	uncertainty
0.6205	0.2621	0.0462	0.0044	0.0044	0.042	
0.5915	0.2956	0.0459	0.0041	0.0041	0.0374	
0.5508	0.3403	0.0457	0.0039	0.0039	0.023	
0.5149	0.3801	0.0457	0.0036	0.0036	0.0205	
0.4542	0.446	0.0457	0.003	0.003	0.0167	
0.3982	0.5079	0.0456	0.0025	0.0025	0.0115	
0.2332	0.6858	0.0455	0.0023	0.0023	0.004	
0.1425	0.7832	0.0463	0.0023	0.0023	0.0011	
0	0.955	0.04	0.0045	0.0045	0	

System: N-methylformamide + 1H-indole + heptane; phases: Liquid mixture 2, Liquid mixture 1
Fixed: Temperature, K = 298.15
Fixed: Pressure, kPa = 101.3
Property: Mole fraction of N-methylformamide (Liquid mixture 2); method: Chromatography
Property: Mole fraction of N-methylformamide (Liquid mixture 1); method: Chromatography
Property: Mole fraction of 1H-indole (Liquid mixture 1); method: Chromatography
Mole fraction of 1H-indole	Mole fraction of N-methylformamide	uncertainty	Mole fraction of N-methylformamide	uncertainty	Mole fraction of 1H-indole	uncertainty
0.7958	0.1698	0.0469	0.0126	0.0126	0.1257	
0.7877	0.182	0.0462	0.0104	0.0104	0.1164	
0.7536	0.2213	0.0454	0.0094	0.0094	0.1098	
0.709	0.2664	0.045	0.0082	0.0082	0.0943	
0.6383	0.3397	0.0452	0.0068	0.0068	0.0617	
0.5005	0.4838	0.045	0.0048	0.0048	0.0324	
0.0834	0.9076	0.0431	0.0024	0.0024	0.0012	
0	0.975	0.025	0.0032	0.0032	0	

System: N-methylformamide + 1H-indole + decane; phases: Liquid mixture 2, Liquid mixture 1
Fixed: Temperature, K = 298.15
Fixed: Pressure, kPa = 101.3
Property: Mole fraction of N-methylformamide (Liquid mixture 2); method: Chromatography
Property: Mole fraction of N-methylformamide (Liquid mixture 1); method: Chromatography
Property: Mole fraction of 1H-indole (Liquid mixture 1); method: Chromatography
Mole fraction of 1H-indole	Mole fraction of N-methylformamide	uncertainty	Mole fraction of N-methylformamide	uncertainty	Mole fraction of 1H-indole	uncertainty
0.7137	0.2526	0.0452	0.0031	0.0031	0.0438	
0.6515	0.318	0.0454	0.0029	0.0029	0.0332	
0.6184	0.3551	0.0455	0.0025	0.0025	0.0312	
0.5793	0.3955	0.0451	0.0024	0.0024	0.0278	
0.4805	0.4976	0.0451	0.0022	0.0022	0.0187	
0.3457	0.6344	0.0449	0.0018	0.0018	0.0118	
0.1543	0.8292	0.0449	0.0016	0.0016	0.0038	
0.0233	0.9623	0.0377	0.0014	0.0014	0.0002	
0	0.9983	0.0017	0.002	0.002	0	

System: N-methylformamide + 1H-indole + dodecane; phases: Liquid mixture 2, Liquid mixture 1
Fixed: Temperature, K = 298.15
Fixed: Pressure, kPa = 101.3
Property: Mole fraction of N-methylformamide (Liquid mixture 2); method: Chromatography
Property: Mole fraction of N-methylformamide (Liquid mixture 1); method: Chromatography
Property: Mole fraction of 1H-indole (Liquid mixture 1); method: Chromatography
Mole fraction of 1H-indole	Mole fraction of N-methylformamide	uncertainty	Mole fraction of N-methylformamide	uncertainty	Mole fraction of 1H-indole	uncertainty
0.723	0.2637	0.0448	0		0.0339	
0.581	0.4061	0.0449	0		0.019	
0.5114	0.4767	0.0449	0		0.0143	
0.3864	0.6025	0.0449	0		0.0078	
0.2892	0.7001	0.0448	0		0.0045	
0.2308	0.7595	0.045	0		0.0032	
0.1484	0.844	0.045	0		0.0017	
0.0386	0.9563	0.0437	0		0.0004	
0	0.9987	0.0013	0.0014	0.0014	0	

System: N-methylformamide + hexane; phases: Liquid mixture 1, Liquid mixture 2
Property: Mole fraction of N-methylformamide (Liquid mixture 1); method: Chromatography
Temperature, K	Pressure, kPa	Mole fraction of N-methylformamide	uncertainty
298.15	101.3	0.0045	0.0045

System: N-methylformamide + hexane; phases: Liquid mixture 2, Liquid mixture 1
Property: Mole fraction of N-methylformamide (Liquid mixture 2); method: Chromatography
Temperature, K	Pressure, kPa	Mole fraction of N-methylformamide	uncertainty
298.15	101.3	0.955	0.04

System: N-methylformamide + heptane; phases: Liquid mixture 2, Liquid mixture 1
Property: Mole fraction of N-methylformamide (Liquid mixture 2); method: Chromatography
Temperature, K	Pressure, kPa	Mole fraction of N-methylformamide	uncertainty
298.15	101.3	0.975	0.025

System: N-methylformamide + heptane; phases: Liquid mixture 1, Liquid mixture 2
Property: Mole fraction of N-methylformamide (Liquid mixture 1); method: Chromatography
Temperature, K	Pressure, kPa	Mole fraction of N-methylformamide	uncertainty
298.15	101.3	0.0032	0.0032

System: N-methylformamide + decane; phases: Liquid mixture 2, Liquid mixture 1
Property: Mole fraction of N-methylformamide (Liquid mixture 2); method: Chromatography
Temperature, K	Pressure, kPa	Mole fraction of N-methylformamide	uncertainty
298.15	101.3	0.9983	0.0017

System: N-methylformamide + decane; phases: Liquid mixture 1, Liquid mixture 2
Property: Mole fraction of N-methylformamide (Liquid mixture 1); method: Chromatography
Temperature, K	Pressure, kPa	Mole fraction of N-methylformamide	uncertainty
298.15	101.3	0.002	0.002

System: N-methylformamide + dodecane; phases: Liquid mixture 2, Liquid mixture 1
Property: Mole fraction of N-methylformamide (Liquid mixture 2); method: Chromatography
Temperature, K	Pressure, kPa	Mole fraction of N-methylformamide	uncertainty
298.15	101.3	0.9987	0.0013

System: N-methylformamide + dodecane; phases: Liquid mixture 1, Liquid mixture 2
Property: Mole fraction of N-methylformamide (Liquid mixture 1); method: Chromatography
Temperature, K	Pressure, kPa	Mole fraction of N-methylformamide	uncertainty
298.15	101.3	0.0014	0.0014
