Measured thermophysical data. Phase Behavior for the CO2 + Methyl Methoxyacetate and CO2 + Methyl trans-3-Methoxyacrylate Systems at Pressures from (5 to 20) MPa and Various Temperatures
Source: J. Chem. Eng. Data, 2016, 10.1021/acs.jced.5b00711
Compound 1: carbon dioxide, CO2, InChI=1S/CO2/c2-1-3, purity 99.9%
Compound 2: methyl methoxyacetate, C4H8O3, InChI=1S/C4H8O3/c1-6-3-4(5)7-2/h3H2,1-2H3, purity 98%
Compound 3: 2-propenoic acid, 3-methoxy-, methyl ester, (2E)-, C5H8O3, InChI=1S/C5H8O3/c1-7-4-3-5(6)8-2/h3-4H,1-2H3/b4-3+, purity 95%

System: carbon dioxide + methyl methoxyacetate; phases: Liquid, Gas
Property: Vapor or sublimation pressure, kPa (Liquid); method: Closed cell (Static) method
Temperature, K	Mole fraction of methyl methoxyacetate	Vapor or sublimation pressure, kPa	uncertainty
313.2	0.065	8210	400
313.2	0.07	8190	400
313.2	0.073	8170	400
313.2	0.091	8100	400
313.2	0.106	7900	400
313.2	0.125	7760	400
313.2	0.139	7650	400
313.2	0.155	7570	400
313.2	0.174	7550	400
313.2	0.206	7350	400
313.2	0.212	7210	400
313.2	0.269	6660	400
313.2	0.321	6240	400
313.2	0.338	6160	400
313.2	0.387	6100	400
313.2	0.427	5880	400
313.2	0.473	5630	400
313.2	0.523	5420	400
313.2	0.567	5280	400
333.2	0.065	11090	400
333.2	0.07	11000	400
333.2	0.073	10950	400
333.2	0.091	10790	400
333.2	0.106	10660	400
333.2	0.125	10460	400
333.2	0.139	10200	400
333.2	0.155	10110	400
333.2	0.174	9790	400
333.2	0.206	9550	410
333.2	0.212	9470	400
333.2	0.269	8720	400
333.2	0.321	8340	400
333.2	0.338	8220	400
333.2	0.387	7690	400
333.2	0.427	7330	400
333.2	0.473	7040	400
333.2	0.523	6660	400
333.2	0.567	6380	400
353.2	0.106	13690	400
353.2	0.125	13480	400
353.2	0.139	13320	400
353.2	0.155	13230	400
353.2	0.174	12950	400
353.2	0.206	12470	400
353.2	0.212	12360	410
353.2	0.269	11210	400
353.2	0.321	10500	400
353.2	0.338	10390	400
353.2	0.387	9690	400
353.2	0.427	9020	400
353.2	0.473	8590	400
353.2	0.523	7900	400
353.2	0.567	7550	400
373.2	0.125	16390	400
373.2	0.139	16130	410
373.2	0.155	15730	410
373.2	0.174	15300	410
373.2	0.206	14680	410
373.2	0.212	14500	400
373.2	0.269	13550	400
373.2	0.321	12750	400
373.2	0.338	12490	400
373.2	0.387	11550	400
373.2	0.427	10660	400
373.2	0.473	10100	400
373.2	0.523	9280	400
373.2	0.567	8590	400
393.2	0.139	18550	410
393.2	0.155	18220	410
393.2	0.206	17110	410
393.2	0.212	17000	410
393.2	0.269	15820	410
393.2	0.321	14920	400
393.2	0.338	14550	400
393.2	0.387	13480	400
393.2	0.427	12450	400
393.2	0.473	11520	400
393.2	0.523	10450	400
393.2	0.567	9620	400
353.2	0.091	13690	400
373.2	0.106	16480	400
393.2	0.125	18790	410

System: carbon dioxide + methyl methoxyacetate; phases: Gas, Liquid
Property: Vapor or sublimation pressure, kPa (Gas); method: Closed cell (Static) method
Temperature, K	Mole fraction of methyl methoxyacetate	Vapor or sublimation pressure, kPa	uncertainty
353.2	0.07	13460	410
373.2	0.07	15490	410
373.2	0.091	16230	410
393.2	0.07	15830	430
393.2	0.091	17750	420
393.2	0.106	18630	410

System: carbon dioxide + methyl methoxyacetate; phases: Liquid, Gas
Property: Critical pressure, kPa (Liquid); method: visual
Temperature, K	Critical pressure, kPa	uncertainty
353.2	13690	400
373.2	16480	400
393.2	18790	400

System: carbon dioxide + 2-propenoic acid, 3-methoxy-, methyl ester, (2E)-; phases: Liquid, Gas
Property: Vapor or sublimation pressure, kPa (Liquid); method: Closed cell (Static) method
Temperature, K	Mole fraction of 2-propenoic acid, 3-methoxy-, methyl ester, (2E)-	Vapor or sublimation pressure, kPa	uncertainty
313.2	0.032	8500	400
313.2	0.054	8490	400
313.2	0.081	8480	400
313.2	0.102	8450	400
313.2	0.118	8410	400
313.2	0.141	8380	400
313.2	0.171	8310	400
313.2	0.204	8100	400
313.2	0.263	7900	400
313.2	0.312	7520	400
313.2	0.361	7280	400
313.2	0.424	6660	400
313.2	0.479	6590	400
313.2	0.53	6240	400
313.2	0.589	5620	400
313.2	0.655	5380	400
333.2	0.032	11780	400
333.2	0.054	11760	400
333.2	0.081	11690	400
333.2	0.102	11620	400
333.2	0.118	11620	400
333.2	0.141	11350	400
333.2	0.171	11210	400
333.2	0.204	10800	400
333.2	0.263	10380	400
333.2	0.312	9550	400
333.2	0.361	9140	400
333.2	0.424	8310	400
333.2	0.479	7900	400
333.2	0.53	7410	400
333.2	0.589	6660	400
333.2	0.655	6280	400
353.2	0.081	15030	400
353.2	0.102	15030	400
353.2	0.118	15010	400
353.2	0.141	14860	400
353.2	0.171	14760	410
353.2	0.204	14030	410
353.2	0.263	13210	410
353.2	0.312	12240	410
353.2	0.361	11480	410
353.2	0.424	10170	410
353.2	0.479	9480	400
353.2	0.53	8660	400
353.2	0.589	7900	400
353.2	0.655	7070	400
373.2	0.102	17840	400
373.2	0.118	17810	410
373.2	0.141	17690	410
373.2	0.171	17350	410
373.2	0.204	16970	410
373.2	0.263	15970	410
373.2	0.312	14660	410
373.2	0.361	13620	410
373.2	0.424	12210	410
373.2	0.479	11210	410
373.2	0.53	10030	410
373.2	0.589	9070	410
373.2	0.655	7970	410
393.2	0.118	19930	410
393.2	0.141	19830	410
393.2	0.171	19590	410
393.2	0.204	19280	410
393.2	0.263	18310	410
393.2	0.312	16860	410
393.2	0.361	15760	410
393.2	0.424	14030	410
393.2	0.479	12790	410
393.2	0.53	11350	410
393.2	0.589	10240	410
393.2	0.655	8830	410
353.2	0.054	15140	400
373.2	0.081	17860	400
393.2	0.102	19960	410

System: carbon dioxide + 2-propenoic acid, 3-methoxy-, methyl ester, (2E)-; phases: Gas, Liquid
Property: Vapor or sublimation pressure, kPa (Gas); method: Closed cell (Static) method
Temperature, K	Mole fraction of 2-propenoic acid, 3-methoxy-, methyl ester, (2E)-	Vapor or sublimation pressure, kPa	uncertainty
353.2	0.032	14880	410
373.2	0.032	17170	410
373.2	0.054	17690	410
393.2	0.032	18010	420
393.2	0.054	19410	410
393.2	0.081	19900	410

System: carbon dioxide + 2-propenoic acid, 3-methoxy-, methyl ester, (2E)-; phases: Liquid, Gas
Property: Critical pressure, kPa (Liquid); method: visual
Temperature, K	Critical pressure, kPa	uncertainty
353.2	15140	400
373.2	17860	400
393.2	19960	400
