Measured thermophysical data. Solubility of Azoxystrobin and Benflumetol in Compressed CO2-Measured by the Static Precise Mass Measuring Method
Source: J. Chem. Eng. Data, 2019, 10.1021/acs.jced.8b00388
Compound 1: azoxystrobin, C22H17N3O5, InChI=1S/C22H17N3O5/c1-27-13-17(22(26)28-2)16-8-4-6-10-19(16)30-21-11-20(24-14-25-21)29-18-9-5-3-7-15(18)12-23/h3-11,13-14H,1-2H3/b17-13+, purity 99.001%
Compound 2: benflumetol, C30H32Cl3NO, InChI=1S/C30H32Cl3NO/c1-3-5-13-34(14-6-4-2)19-29(35)28-18-23(33)17-27-25(15-20-7-9-21(31)10-8-20)26-16-22(32)11-12-24(26)30(27)28/h7-12,15-18,29,35H,3-6,13-14,19H2,1-2H3/b25-15-
Compound 3: carbon dioxide, CO2, InChI=1S/CO2/c2-1-3
Compound 4: caffeine, C8H10N4O2, InChI=1S/C8H10N4O2/c1-10-4-9-6-5(10)7(13)12(3)8(14)11(6)2/h4H,1-3H3, purity 99%

System: azoxystrobin + carbon dioxide; phases: Fluid (supercritical or subcritical phases), Crystal
Property: Mass ratio of solute to solvent of azoxystrobin (Fluid (supercritical or subcritical phases)); method: gravimetric
Temperature, K	Pressure, kPa	Mass ratio of solute to solvent of azoxystrobin	uncertainty
301	10000	6.1e-05	2.2e-05
301	15000	0.000133	3.7e-05
301	20000	0.000231	6.9e-05
301	25000	0.000385	0.000177
313	10000	3.2e-05	1e-05
313	15000	0.000147	2.9e-05
313	20000	0.000281	8.4e-05
313	25000	0.000527	0.000105
323	10000	1.3e-05	2.2e-05
323	15000	0.000209	7.1e-05
323	20000	0.000446	0.000125
323	25000	0.000664	0.000359

System: benflumetol + carbon dioxide; phases: Fluid (supercritical or subcritical phases), Crystal
Property: Mass ratio of solute to solvent of benflumetol (Fluid (supercritical or subcritical phases)); method: gravimetric
Temperature, K	Pressure, kPa	Mass ratio of solute to solvent of benflumetol	uncertainty
308	8000	1.3e-06	6e-07
308	10000	3e-06	1e-06
308	12000	4.7e-06	1.4e-06
308	14000	4.5e-06	1.2e-06
308	16000	5e-06	1.4e-06
308	18000	5.7e-06	1.4e-06
313	8000	1e-06	2e-07
313	10000	1.9e-06	8e-07
313	12000	3e-06	1e-06
313	14000	6.9e-06	1.4e-06
313	16000	7.4e-06	1.8e-06
313	18000	8.4e-06	1.9e-06
323	8000	8e-07	2e-07
323	10000	2.6e-06	8e-07
323	12000	5.6e-06	1.5e-06
323	14000	8.1e-06	2.4e-06
323	16000	1.03e-05	3.1e-06
323	18000	1.97e-05	4.7e-06

System: caffeine + carbon dioxide; phases: Fluid (supercritical or subcritical phases), Crystal
Fixed: Temperature, K = 313.15
Property: Mass ratio of solute to solvent of caffeine (Fluid (supercritical or subcritical phases)); method: gravimetric
Pressure, kPa	Mass ratio of solute to solvent of caffeine	uncertainty
8500	8.9e-05	0.00015
11000	0.000359	0.000151
14000	0.000628	0.000201
