Measured thermophysical data. Thermodynamic Modeling of Triglycerides using PC-SAFT
Source: J. Chem. Eng. Data, 2019, 10.1021/acs.jced.8b01046
Compound 1: 1,2,3-propanetriol trioctanoate, C27H50O6, InChI=1S/C27H50O6/c1-4-7-10-13-16-19-25(28)31-22-24(33-27(30)21-18-15-12-9-6-3)23-32-26(29)20-17-14-11-8-5-2/h24H,4-23H2,1-3H3, purity 99%
Compound 2: 1,2,3-propanetriyl tridecanoate, C33H62O6, InChI=1S/C33H62O6/c1-4-7-10-13-16-19-22-25-31(34)37-28-30(39-33(36)27-24-21-18-15-12-9-6-3)29-38-32(35)26-23-20-17-14-11-8-5-2/h30H,4-29H2,1-3H3, purity 98%
Compound 3: 1,2,3-propanetriyl tridodecanoate, C39H74O6, InChI=1S/C39H74O6/c1-4-7-10-13-16-19-22-25-28-31-37(40)43-34-36(45-39(42)33-30-27-24-21-18-15-12-9-6-3)35-44-38(41)32-29-26-23-20-17-14-11-8-5-2/h36H,4-35H2,1-3H3, purity 98%
Compound 4: octan-1-ol, C8H18O, InChI=1S/C8H18O/c1-2-3-4-5-6-7-8-9/h9H,2-8H2,1H3, purity 99%

System: 1,2,3-propanetriol trioctanoate; phases: Liquid
Property: Mass density, kg/m3 (Liquid); method: Vibrating tube method
Temperature, K	Pressure, kPa	Mass density, kg/m3	uncertainty
293.15	102	952.7	3.8
298.15	102	948.9	3.8
303.15	102	944.9	3.8
313.15	102	937.4	3.8
333.15	102	922.5	3.7
353.15	102	907.7	3.6
298.15	120	949.9	3.8
298.15	9830	955.5	3.8
298.15	20100	961.3	3.9
298.15	30020	966.6	3.9
298.15	40050	971.9	3.9
298.15	50040	977.1	3.9

System: 1,2,3-propanetriol trioctanoate; phases: Liquid, Gas
Property: Vapor or sublimation pressure, kPa (Liquid); method: Transpiration method
Temperature, K	Vapor or sublimation pressure, kPa	uncertainty
413.2	0.0004698	5.07e-05
423.2	0.001006	0.000108
433.2	0.001977	0.000212
443.2	0.004016	0.000428
403.2	0.0002069	2.24e-05
448.2	0.005491	0.000585
408.2	0.0003133	3.37e-05

System: 1,2,3-propanetriyl tridecanoate; phases: Liquid, Gas
Property: Vapor or sublimation pressure, kPa (Liquid); method: Langmuir technique
Temperature, K	Vapor or sublimation pressure, kPa	uncertainty
367.81	2.23e-07	9.1e-08
363.18	1.19e-07	4.8e-08
358.38	5.99e-08	2.43e-08
353.48	2.94e-08	1.19e-08
348.5	1.39e-08	5.6e-09
367.8	2.27e-07	9.2e-08
363.18	1.2e-07	4.9e-08
358.38	5.99e-08	2.43e-08
353.48	2.9e-08	1.18e-08
348.5	1.36e-08	5.5e-09

System: 1,2,3-propanetriyl tridecanoate; phases: Liquid
Fixed: Pressure, kPa = 102
Property: Mass density, kg/m3 (Liquid); method: Vibrating tube method
Temperature, K	Mass density, kg/m3	uncertainty
293.15	921.6	3.7
298.15	917.9	3.7
303.15	913.6	3.7
313.15	906.2	3.7
333.15	891	3.6
353.15	875.9	3.6

System: 1,2,3-propanetriyl tridodecanoate; phases: Liquid
Fixed: Pressure, kPa = 100
Property: Mass density, kg/m3 (Liquid); method: Vibrating tube method
Temperature, K	Mass density, kg/m3	uncertainty
303.15	905.1	3.7
313.15	899.6	3.7
333.15	886.9	3.6
353.15	870.4	3.5

System: 1,2,3-propanetriyl tridecanoate + octan-1-ol; phases: Liquid
Fixed: Pressure, kPa = 102
Property: Mass density, kg/m3 (Liquid); method: Vibrating tube method
Mass fraction of 1,2,3-propanetriyl tridecanoate	Temperature, K	Mass density, kg/m3	uncertainty
0.016	293.15	826.5	3.3
0.016	298.15	823.1	3.3
0.016	303.15	819.5	3.3
0.016	313.15	812.6	3.3
0.016	333.15	798.6	3.2
0.016	353.15	783.8	3.1
0.0385	293.15	828.7	3.3
0.0385	298.15	825.1	3.3
0.0385	303.15	821.6	3.3
0.0385	313.15	814.7	3.3
0.0385	333.15	800.7	3.2
0.0385	353.15	785.9	3.2
0.0772	293.15	832.5	3.3
0.0772	298.15	829	3.3
0.0772	303.15	825.4	3.3
0.0772	313.15	818.5	3.3
0.0772	333.15	804.3	3.2
0.0772	353.15	789.5	3.2
0.1287	293.15	837.4	3.4
0.1287	298.15	833.9	3.3
0.1287	303.15	830.3	3.3
0.1287	313.15	823.3	3.3
0.1287	333.15	809.1	3.2
0.1287	353.15	794.4	3.2
1	293.15	921.6	3.7
1	298.15	917.9	3.7
1	303.15	913.6	3.7
1	313.15	906.2	3.7
1	333.15	891	3.6
1	353.15	875.9	3.6

System: 1,2,3-propanetriyl tridodecanoate + octan-1-ol; phases: Liquid
Fixed: Pressure, kPa = 102
Property: Mass density, kg/m3 (Liquid); method: Vibrating tube method
Mass fraction of 1,2,3-propanetriyl tridodecanoate	Temperature, K	Mass density, kg/m3	uncertainty
0.019	293.15	826.7	3.3
0.019	298.15	823.3	3.3
0.019	303.15	819.7	3.3
0.019	313.15	812.8	3.3
0.019	333.15	798.7	3.2
0.019	353.15	784	3.1
0.051	293.15	829.5	3.3
0.051	298.15	826.2	3.3
0.051	303.15	822.5	3.3
0.051	313.15	815.6	3.3
0.051	333.15	801.5	3.2
0.051	353.15	786.8	3.2
0.096	303.15	826.8	3.3
0.096	313.15	819.7	3.3
0.096	333.15	805.6	3.2
0.096	353.15	790.9	3.2
0.149	303.15	831	3.3
0.149	313.15	824	3.3
0.149	333.15	809.9	3.3
0.149	353.15	795.2	3.2
1	303.15	905.1	3.7
1	313.15	899.6	3.7
1	333.15	886.9	3.6
1	353.15	870.4	3.5
