Measured thermophysical data. Studying the Liquid-Liquid Equilibrium of Systems Water +2-Hydroxyethylammonium Propanoate or 2-Hydroxyethylammonium Butanoate or 2-Hydroxyethylammonium Pentanoate +1-Pentanol at 293.15, 313.15, and 333.15 K: Experimental Determination and Thermodynamic Modeling
Source: J. Chem. Eng. Data, 2017, 10.1021/acs.jced.7b00497
Compound 1: pentan-1-ol, C5H12O, InChI=1S/C5H12O/c1-2-3-4-5-6/h6H,2-5H2,1H3, purity 99%
Compound 2: water, H2O, InChI=1S/H2O/h1H2, purity 99.8%
Compound 3: 2-hydroxyethan-1-aminium propionate, C5H13NO3, InChI=1S/C3H6O2.C2H7NO/c1-2-3(4)5;3-1-2-4/h2H2,1H3,(H,4,5);4H,1-3H2, purity 98%
Compound 4: 2-hydroxy ethylammonium butanoate, C6H15NO3, InChI=1S/C4H8O2.C2H7NO/c1-2-3-4(5)6;3-1-2-4/h2-3H2,1H3,(H,5,6);4H,1-3H2, purity 99%
Compound 5: 2-hydroxy ethylammonium pentanoate, C7H17NO3, InChI=1S/C5H10O2.C2H7NO/c1-2-3-4-5(6)7;3-1-2-4/h2-4H2,1H3,(H,6,7);4H,1-3H2, purity 99%

System: water + 2-hydroxyethan-1-aminium propionate + pentan-1-ol; phases: Liquid mixture 1, Liquid mixture 2
Fixed: Pressure, kPa = 100
Property: Mass fraction of 2-hydroxyethan-1-aminium propionate (Liquid mixture 1); method: Titration method
Temperature, K	Mass fraction of water	Mass fraction of 2-hydroxyethan-1-aminium propionate	uncertainty
293.15	0.1031	0	
293.15	0.1341	0.1136	0.0614
293.15	0.1554	0.1484	0.0358
293.15	0.1806	0.1822	0.0333
293.15	0.2027	0.2102	0.0314
293.15	0.2213	0.2334	0.0312
293.15	0.2408	0.2531	0.0307
293.15	0.2608	0.2745	0.0288
293.15	0.2801	0.2941	0.0289
293.15	0.2974	0.3077	0.0279
293.15	0.3135	0.3225	0.027
293.15	0.3288	0.3337	0.0265
293.15	0.3427	0.3433	0.0265
293.15	0.3572	0.3512	0.0266
293.15	0.4128	0.3937	0.0262
293.15	0.4498	0.4089	0.0241
293.15	0.4762	0.4155	0.0234
293.15	0.5126	0.4177	0.0233
293.15	0.5254	0.4145	0.0236
293.15	0.5442	0.4075	0.0244
293.15	0.5646	0.3964	0.0285
293.15	0.6433	0.3254	0.0291
293.15	0.8162	0.1576	0.0272
293.15	0.8436	0.1331	0.0277
293.15	0.8964	0.0825	0.0276
293.15	0.9438	0.0388	0.0288
293.15	0.9757	0	
313.15	0.1157	0	
313.15	0.1557	0.1249	0.0548
313.15	0.1778	0.1517	0.032
313.15	0.205	0.1869	0.0318
313.15	0.2279	0.2124	0.0304
313.15	0.2462	0.2312	0.0291
313.15	0.2654	0.2516	0.0286
313.15	0.2856	0.2677	0.027
313.15	0.3007	0.28	0.0264
313.15	0.3244	0.2969	0.0258
313.15	0.345	0.3109	0.0255
313.15	0.3606	0.3216	0.0256
313.15	0.3722	0.3278	0.0253
313.15	0.3722	0.3278	0.0253
313.15	0.4013	0.3458	0.0248
313.15	0.422	0.3552	0.0238
313.15	0.4583	0.369	0.0233
313.15	0.4953	0.3763	0.0229
313.15	0.5346	0.3799	0.0227
313.15	0.5589	0.376	0.0229
313.15	0.5814	0.3706	0.0244
313.15	0.5967	0.3596	0.026
313.15	0.613	0.3487	0.0275
313.15	0.6523	0.3164	0.0277
313.15	0.8267	0.1459	0.0281
313.15	0.9794	0	
333.15	0.1391	0	
333.15	0.1897	0.1292	0.0449
333.15	0.2078	0.1503	0.0415
333.15	0.2247	0.1678	0.0292
333.15	0.2457	0.1868	0.0276
333.15	0.2621	0.2023	0.0276
333.15	0.2776	0.216	0.027
333.15	0.2972	0.2335	0.0265
333.15	0.3171	0.2479	0.0261
333.15	0.3325	0.2588	0.0255
333.15	0.3481	0.2693	0.0255
333.15	0.3856	0.2955	0.0247
333.15	0.4112	0.3064	0.0233
333.15	0.4384	0.3174	0.0233
333.15	0.4687	0.3291	0.0228
333.15	0.5119	0.3391	0.0224
333.15	0.5479	0.3421	0.0222
333.15	0.5712	0.341	0.0223
333.15	0.5933	0.3374	0.023
333.15	0.6097	0.332	0.0249
333.15	0.6296	0.324	0.0256
333.15	0.6995	0.2701	0.0266
333.15	0.7367	0.2389	0.028
333.15	0.8035	0.1748	0.0284
333.15	0.9808	0	

System: water + 2-hydroxyethan-1-aminium propionate + pentan-1-ol; phases: Liquid mixture 2, Liquid mixture 1
Fixed: Pressure, kPa = 100
Property: Mass fraction of 2-hydroxyethan-1-aminium propionate (Liquid mixture 2); method: Phase equilibration
Property: Mass fraction of 2-hydroxyethan-1-aminium propionate (Liquid mixture 1); method: Phase equilibration
Property: Mass fraction of water (Liquid mixture 1); method: Phase equilibration
Temperature, K	Mass fraction of water	Mass fraction of 2-hydroxyethan-1-aminium propionate	uncertainty	Mass fraction of 2-hydroxyethan-1-aminium propionate	uncertainty	Mass fraction of water	uncertainty
293.15	0.177	0.1676	0.0406	0.405	0.0237	0.5318	
293.15	0.0907	0.0043	0.0043	0.288	0.0262	0.707	
313.15	0.2375	0.2187	0.0358	0.378	0.0221	0.4979	
313.15	0.1436	0.0809	0.0379	0.3529	0.0231	0.5996	
313.15	0.1087	0.0065	0.0065	0.2887	0.0249	0.6971	
313.15	0.1055	0.0084	0.0084	0.2906	0.0249	0.6948	
333.15	0.2115	0.1415	0.0368	0.3326	0.0219	0.5694	
333.15	0.164	0.0685	0.0386	0.3155	0.0226	0.6319	
333.15	0.1632	0.0672	0.0385	0.3162	0.0226	0.6304	
333.15	0.1403	0.0229	0.0229	0.2862	0.0238	0.683	
293.15	0.1812	0.1739	0.0403	0.4049	0.0237	0.5323	
293.15	0.124	0.0745	0.0426	0.3754	0.0255	0.5957	

System: water + 2-hydroxy ethylammonium butanoate + pentan-1-ol; phases: Liquid mixture 1, Liquid mixture 2
Fixed: Pressure, kPa = 100
Property: Mass fraction of 2-hydroxy ethylammonium butanoate (Liquid mixture 1); method: Titration method
Temperature, K	Mass fraction of water	Mass fraction of 2-hydroxy ethylammonium butanoate	uncertainty
293.15	0.1031	0	
293.15	0.1444	0.0631	0.0321
293.15	0.177	0.0917	0.0261
293.15	0.2081	0.1159	0.0255
293.15	0.2352	0.1367	0.025
293.15	0.2619	0.1551	0.0247
293.15	0.2865	0.1721	0.024
293.15	0.3172	0.1893	0.0234
293.15	0.3432	0.203	0.0231
293.15	0.3672	0.2142	0.0229
293.15	0.3966	0.2277	0.0226
293.15	0.4225	0.2368	0.0223
293.15	0.4494	0.2466	0.0223
293.15	0.4728	0.254	0.022
293.15	0.4966	0.2602	0.0222
293.15	0.5372	0.2735	0.0222
293.15	0.5849	0.2851	0.0219
293.15	0.6329	0.2925	0.0216
293.15	0.683	0.2861	0.0227
293.15	0.7118	0.2631	0.0267
293.15	0.8288	0.1493	0.0281
293.15	0.8808	0.1001	0.0275
293.15	0.9202	0.0643	0.0292
293.15	0.9757	0	
313.15	0.1157	0	
313.15	0.1687	0.0679	0.0286
313.15	0.2245	0.1095	0.0245
313.15	0.2444	0.1215	0.0246
313.15	0.2671	0.1356	0.0233
313.15	0.2892	0.1475	0.023
313.15	0.3212	0.1641	0.0229
313.15	0.3444	0.1746	0.0222
313.15	0.3765	0.1886	0.0226
313.15	0.4073	0.204	0.0221
313.15	0.4571	0.2197	0.0217
313.15	0.5151	0.2346	0.0215
313.15	0.5792	0.2485	0.0215
313.15	0.6488	0.259	0.0214
313.15	0.7344	0.2405	0.023
313.15	0.7837	0.1932	0.0284
313.15	0.8412	0.1381	0.0281
313.15	0.9279	0.053	0.0283
313.15	0.9794	0	
333.15	0.1391	0	
333.15	0.192	0.0677	0.0296
333.15	0.2201	0.086	0.0239
333.15	0.2571	0.1093	0.0234
333.15	0.3006	0.1335	0.0228
333.15	0.3335	0.1487	0.023
333.15	0.3811	0.1759	0.0225
333.15	0.4257	0.1903	0.0216
333.15	0.471	0.2031	0.0215
333.15	0.4963	0.2094	0.0213
333.15	0.5705	0.225	0.0213
333.15	0.649	0.2366	0.0212
333.15	0.6971	0.2356	0.0211
333.15	0.7177	0.2308	0.0223
333.15	0.7424	0.2193	0.0241
333.15	0.7744	0.1973	0.0271
333.15	0.8214	0.1514	0.028
333.15	0.9203	0.0573	0.0276
333.15	0.9808	0	

System: water + 2-hydroxy ethylammonium butanoate + pentan-1-ol; phases: Liquid mixture 1, Liquid mixture 2
Fixed: Pressure, kPa = 100
Property: Mass fraction of 2-hydroxy ethylammonium butanoate (Liquid mixture 1); method: Phase equilibration
Property: Mass fraction of 2-hydroxy ethylammonium butanoate (Liquid mixture 2); method: Phase equilibration
Property: Mass fraction of water (Liquid mixture 2); method: Phase equilibration
Temperature, K	Mass fraction of water	Mass fraction of 2-hydroxy ethylammonium butanoate	uncertainty	Mass fraction of 2-hydroxy ethylammonium butanoate	uncertainty	Mass fraction of water	uncertainty
293.15	0.6774	0.2608	0.023	0.1388	0.0248	0.2446	
333.15	0.7747	0.1856	0.0237	0.0532	0.025	0.184	
333.15	0.8113	0.1613	0.0242	0.0317	0.0261	0.1584	
333.15	0.8158	0.1581	0.0243	0.0328	0.0261	0.1596	
293.15	0.7086	0.2455	0.0236	0.1032	0.0278	0.195	
293.15	0.7591	0.214	0.024	0.0386	0.0306	0.1393	
293.15	0.7562	0.2161	0.024	0.0401	0.0272	0.1267	
313.15	0.7277	0.2188	0.0235	0.0919	0.0288	0.2059	
313.15	0.7657	0.197	0.0241	0.0517	0.0264	0.1669	
313.15	0.8106	0.1661	0.0245	0.0353	0.0233	0.1393	
313.15	0.8118	0.1652	0.0245	0.0353	0.0233	0.1393	
333.15	0.7353	0.2075	0.0233	0.086	0.0246	0.2302	

System: water + 2-hydroxy ethylammonium pentanoate + pentan-1-ol; phases: Liquid mixture 1, Liquid mixture 2
Fixed: Pressure, kPa = 100
Property: Mass fraction of 2-hydroxy ethylammonium pentanoate (Liquid mixture 1); method: Titration method
Temperature, K	Mass fraction of water	Mass fraction of 2-hydroxy ethylammonium pentanoate	uncertainty
293.15	0.1031	0	
293.15	0.1734	0.0571	0.025
293.15	0.2059	0.0749	0.0224
293.15	0.2493	0.0948	0.0221
293.15	0.2872	0.1112	0.0217
293.15	0.3249	0.124	0.0214
293.15	0.3572	0.1345	0.0213
293.15	0.3895	0.1439	0.0211
293.15	0.4183	0.1503	0.0209
293.15	0.446	0.156	0.0208
293.15	0.4723	0.1604	0.0208
293.15	0.4941	0.1642	0.0207
293.15	0.5224	0.1674	0.0206
293.15	0.5784	0.1717	0.0206
293.15	0.6391	0.1734	0.0206
293.15	0.7058	0.1739	0.0206
293.15	0.7476	0.1707	0.0218
293.15	0.8487	0.1261	0.0229
293.15	0.8909	0.0927	0.0285
293.15	0.9757	0	
313.15	0.1157	0	
313.15	0.2008	0.0657	0.0243
313.15	0.2439	0.0847	0.0216
313.15	0.2907	0.1001	0.0212
313.15	0.3074	0.1068	0.0213
313.15	0.3461	0.1175	0.021
313.15	0.3841	0.1273	0.0208
313.15	0.4148	0.1334	0.0207
313.15	0.4476	0.1392	0.0206
313.15	0.4794	0.1437	0.0206
313.15	0.5172	0.1475	0.0205
313.15	0.5666	0.1511	0.0205
313.15	0.6053	0.1528	0.0205
313.15	0.588	0.1534	0.0205
313.15	0.6456	0.1548	0.0205
313.15	0.7071	0.1545	0.0205
313.15	0.7754	0.1517	0.0217
313.15	0.8845	0.0968	0.025
313.15	0.9794	0	
333.15	0.1391	0	
333.15	0.227	0.0689	0.0245
333.15	0.2602	0.0818	0.0215
333.15	0.2952	0.0948	0.0209
333.15	0.3394	0.1034	0.0209
333.15	0.3672	0.1145	0.0209
333.15	0.4128	0.123	0.0206
333.15	0.4542	0.1292	0.0205
333.15	0.4958	0.133	0.0204
333.15	0.546	0.137	0.0204
333.15	0.5989	0.1399	0.0204
333.15	0.6636	0.1412	0.0204
333.15	0.7191	0.1412	0.0204
333.15	0.7761	0.138	0.0204
333.15	0.8036	0.1349	0.0217
333.15	0.8667	0.1054	0.0241
333.15	0.9177	0.0592	0.0273
333.15	0.9808	0	

System: water + 2-hydroxy ethylammonium pentanoate + pentan-1-ol; phases: Liquid mixture 2, Liquid mixture 1
Fixed: Pressure, kPa = 100
Property: Mass fraction of 2-hydroxy ethylammonium pentanoate (Liquid mixture 2); method: Phase equilibration
Property: Mass fraction of 2-hydroxy ethylammonium pentanoate (Liquid mixture 1); method: Phase equilibration
Property: Mass fraction of water (Liquid mixture 1); method: Phase equilibration
Temperature, K	Mass fraction of water	Mass fraction of 2-hydroxy ethylammonium pentanoate	uncertainty	Mass fraction of 2-hydroxy ethylammonium pentanoate	uncertainty	Mass fraction of water	uncertainty
293.15	0.2362	0.0883	0.0223	0.13	0.0234	0.8117	
313.15	0.1827	0.0545	0.0222	0.0915	0.0232	0.8559	
313.15	0.1429	0.0294	0.0237	0.068	0.0231	0.8929	
333.15	0.2881	0.0845	0.0216	0.1221	0.0224	0.7903	
333.15	0.2033	0.0513	0.0219	0.094	0.0227	0.8475	
333.15	0.1585	0.0259	0.023	0.0698	0.0234	0.8874	
333.15	0.1556	0.024	0.023	0.0715	0.0234	0.8847	
293.15	0.1635	0.0538	0.0231	0.1091	0.0238	0.8473	
293.15	0.1681	0.0553	0.0231	0.1079	0.0238	0.8491	
293.15	0.1232	0.0224	0.0224	0.0817	0.0242	0.8877	
313.15	0.2604	0.0874	0.0218	0.1185	0.0228	0.8056	
313.15	0.1824	0.0544	0.0222	0.0918	0.0232	0.8554	

System: water + pentan-1-ol; phases: Liquid mixture 1, Liquid mixture 2
Fixed: Pressure, kPa = 100
Property: Mass fraction of water (Liquid mixture 1); method: Titration method
Temperature, K	Mass fraction of water	uncertainty
293.15	0.1031	0.0201
293.15	0.9757	0.0218
313.15	0.1157	0.0201
313.15	0.9794	0.02
333.15	0.1391	0.0201
333.15	0.9808	0.0192
