Measured thermophysical data. Effects of Na, Ca, Mg, and Al Chloride Salts on Dissolution and Phase Stability of Calcium Sulfate Dihydrate in Aqueous Solutions at 278.15 K to 308.15 K
Source: J. Chem. Eng. Data, 2015, 10.1021/acs.jced.5b00005
Compound 1: calcium sulfate dihydrate, CaH4O6S, InChI=1S/Ca.H2O4S.2H2O/c;1-5(2,3)4;;/h;(H2,1,2,3,4);2*1H2/q+2;;;/p-2, purity 99%
Compound 2: sodium chloride, ClNa, InChI=1S/ClH.Na/h1H;/q;+1/p-1, purity 99.5%
Compound 3: water, H2O, InChI=1S/H2O/h1H2, purity 99.9%
Compound 4: magnesium chloride, Cl2Mg, InChI=1S/2ClH.Mg/h2*1H;/q;;+2/p-2, purity 99.5%
Compound 5: calcium chloride, CaCl2, InChI=1S/Ca.2ClH/h;2*1H/q+2;;/p-2, purity 99.5%
Compound 6: aluminum chloride, AlCl3, InChI=1S/Al.3ClH/h;3*1H/q+3;;;/p-3, purity 99.5%

System: sodium chloride + water + calcium sulfate dihydrate; phases: Liquid, Crystal
Fixed: Pressure, kPa = 101
Property: Molality, mol/kg of calcium sulfate dihydrate (Liquid); method: gravimetric
Temperature, K	Molality, mol/kg of sodium chloride	Molality, mol/kg of calcium sulfate dihydrate	uncertainty
278.15	0.1	0.02	0.0012
278.15	0.251	0.0253	0.0015
278.15	0.503	0.0331	0.002
278.15	1.016	0.0413	0.0025
278.15	1.548	0.0462	0.0028
278.15	2.085	0.0518	0.0031
278.15	2.643	0.0523	0.0031
278.15	3.181	0.0496	0.003
278.15	3.77	0.0464	0.0028
278.15	4.355	0.044	0.0026
278.15	4.937	0.0419	0.0025
283.15	0.1	0.0213	0.0013
283.15	0.251	0.027	0.0016
283.15	0.504	0.0335	0.002
283.15	1.018	0.0423	0.0025
283.15	1.554	0.0478	0.0029
283.15	2.094	0.0526	0.0032
283.15	2.654	0.0536	0.0032
283.15	3.195	0.0518	0.0031
283.15	3.791	0.0474	0.0028
283.15	4.379	0.0446	0.0027
283.15	4.959	0.0432	0.0026
288.15	0.1	0.022	0.0013
288.15	0.252	0.0277	0.0017
288.15	0.505	0.0339	0.002
288.15	1.021	0.0425	0.0026
288.15	1.558	0.0484	0.0029
288.15	2.099	0.0535	0.0032
288.15	2.66	0.0546	0.0033
288.15	3.199	0.0522	0.0031
288.15	3.799	0.0481	0.0029
288.15	4.384	0.0448	0.0027
288.15	4.976	0.0438	0.0026
293.15	0.101	0.0222	0.0013
293.15	0.252	0.0287	0.0017
293.15	0.507	0.0349	0.0021
293.15	1.026	0.0435	0.0026
293.15	1.561	0.0498	0.003
293.15	2.116	0.0545	0.0033
293.15	2.666	0.0556	0.0033
293.15	3.216	0.0531	0.0032
293.15	3.804	0.0489	0.0029
293.15	4.389	0.0462	0.0028
293.15	4.999	0.0448	0.0027
298.15	0.101	0.0227	0.0014
298.15	0.252	0.0295	0.0018
298.15	0.507	0.0355	0.0021
298.15	1.028	0.0442	0.0027
298.15	1.565	0.0507	0.003
298.15	2.124	0.056	0.0034
298.15	2.678	0.0573	0.0034
298.15	3.231	0.0543	0.0033
298.15	3.825	0.0503	0.003
298.15	4.414	0.0476	0.0029
298.15	5.032	0.0456	0.0027
303.15	0.101	0.0236	0.0014
303.15	0.252	0.0295	0.0018
303.15	0.506	0.0365	0.0022
303.15	1.029	0.0445	0.0027
303.15	1.57	0.0517	0.0031
303.15	2.133	0.0566	0.0034
303.15	2.693	0.0589	0.0035
303.15	3.249	0.0562	0.0034
303.15	3.847	0.0523	0.0031
303.15	4.439	0.0486	0.0029
303.15	5.061	0.0465	0.0028
308.15	0.101	0.0232	0.0014
308.15	0.252	0.0292	0.0018
308.15	0.507	0.0375	0.0023
308.15	1.033	0.0464	0.0028
308.15	1.575	0.0532	0.0032
308.15	2.14	0.0582	0.0035
308.15	2.709	0.0615	0.0037
308.15	3.278	0.0583	0.0035
308.15	3.873	0.0542	0.0033
308.15	4.47	0.0506	0.003
308.15	5.096	0.0481	0.0029

System: sodium chloride + water + calcium sulfate dihydrate; phases: Liquid
Fixed: Pressure, kPa = 101
Property: Mass density, kg/m3 (Liquid); method: Pycnometric method
Temperature, K	Molality, mol/kg of calcium sulfate dihydrate	Molality, mol/kg of sodium chloride	Mass density, kg/m3	uncertainty
278.15	0.02	0.1	1006	3
278.15	0.0253	0.251	1014	3
278.15	0.0331	0.503	1028	3
278.15	0.0413	1.016	1048	2
278.15	0.0462	1.548	1063	2
278.15	0.0518	2.085	1083	4
278.15	0.0523	2.643	1099	3
278.15	0.0496	3.181	1125	2
278.15	0.0464	3.77	1139	2
278.15	0.044	4.355	1158	2
278.15	0.0419	4.937	1180	2
283.15	0.0213	0.1	1005	2
283.15	0.027	0.251	1013	2
283.15	0.0335	0.504	1026	3
283.15	0.0423	1.018	1046	2
283.15	0.0478	1.554	1059	5
283.15	0.0526	2.094	1079	5
283.15	0.0536	2.654	1095	3
283.15	0.0518	3.195	1121	20
283.15	0.0474	3.791	1134	4
283.15	0.0446	4.379	1153	6
283.15	0.0432	4.959	1176	3
288.15	0.022	0.1	1004	2
288.15	0.0277	0.252	1012	2
288.15	0.0339	0.505	1023	2
288.15	0.0425	1.021	1044	2
288.15	0.0484	1.558	1057	5
288.15	0.0535	2.099	1077	2
288.15	0.0546	2.66	1093	3
288.15	0.0522	3.199	1120	8
288.15	0.0481	3.799	1132	6
288.15	0.0448	4.384	1152	5
288.15	0.0438	4.976	1173	2
293.15	0.0222	0.101	1003	2
293.15	0.0287	0.252	1011	2
293.15	0.0349	0.507	1021	2
293.15	0.0435	1.026	1039	2
293.15	0.0498	1.561	1055	3
293.15	0.0545	2.116	1069	4
293.15	0.0556	2.666	1091	4
293.15	0.0531	3.216	1115	8
293.15	0.0489	3.804	1131	3
293.15	0.0462	4.389	1151	2
293.15	0.0448	4.999	1169	4
298.15	0.0227	0.101	1003	2
298.15	0.0295	0.252	1010	5
298.15	0.0355	0.507	1020	2
298.15	0.0442	1.028	1037	2
298.15	0.0507	1.565	1053	3
298.15	0.056	2.124	1066	7
298.15	0.0573	2.678	1087	4
298.15	0.0543	3.231	1111	10
298.15	0.0503	3.825	1126	3
298.15	0.0476	4.414	1146	3
298.15	0.0456	5.032	1163	4
303.15	0.0236	0.101	1003	2
303.15	0.0295	0.252	1011	2
303.15	0.0365	0.506	1023	2
303.15	0.0445	1.029	1036	2
303.15	0.0517	1.57	1050	3
303.15	0.0566	2.133	1062	7
303.15	0.0589	2.693	1082	7
303.15	0.0562	3.249	1106	8
303.15	0.0523	3.847	1121	8
303.15	0.0486	4.439	1141	7
303.15	0.0465	5.061	1158	4
308.15	0.0232	0.101	1002	2
308.15	0.0292	0.252	1009	4
308.15	0.0375	0.507	1021	3
308.15	0.0464	1.033	1033	2
308.15	0.0532	1.575	1047	2
308.15	0.0582	2.14	1059	6
308.15	0.0615	2.709	1077	3
308.15	0.0583	3.278	1098	4
308.15	0.0542	3.873	1115	3
308.15	0.0506	4.47	1135	10
308.15	0.0481	5.096	1152	5

System: water + magnesium chloride + calcium sulfate dihydrate; phases: Liquid, Crystal
Fixed: Pressure, kPa = 101
Property: Molality, mol/kg of calcium sulfate dihydrate (Liquid); method: gravimetric
Temperature, K	Molality, mol/kg of magnesium chloride	Molality, mol/kg of calcium sulfate dihydrate	uncertainty
278.15	0.1	0.0232	0.0014
278.15	0.25	0.0332	0.002
278.15	0.501	0.0488	0.0029
278.15	1.015	0.0644	0.0039
278.15	1.559	0.0626	0.0038
278.15	2.113	0.0595	0.0036
278.15	2.687	0.0572	0.0034
278.15	3.292	0.0543	0.0033
288.15	0.101	0.0235	0.0014
288.15	0.251	0.034	0.002
288.15	0.502	0.0497	0.003
288.15	1.017	0.0652	0.0039
288.15	1.563	0.0636	0.0038
288.15	2.117	0.0606	0.0036
288.15	2.693	0.0584	0.0035
288.15	3.3	0.0557	0.0033
298.15	0.101	0.0244	0.0015
298.15	0.251	0.0351	0.0021
298.15	0.502	0.0504	0.003
298.15	1.018	0.0668	0.004
298.15	1.563	0.0644	0.0039
298.15	2.118	0.0617	0.0037
298.15	2.699	0.0599	0.0036
298.15	3.311	0.0571	0.0034
308.15	0.101	0.0256	0.0015
308.15	0.252	0.0363	0.0022
308.15	0.503	0.0515	0.0031
308.15	1.02	0.0686	0.0041
308.15	1.567	0.0663	0.004
308.15	2.123	0.064	0.0038
308.15	2.708	0.0614	0.0037
308.15	3.319	0.0591	0.0035

System: water + magnesium chloride + calcium sulfate dihydrate; phases: Liquid
Fixed: Pressure, kPa = 101
Property: Mass density, kg/m3 (Liquid); method: Pycnometric method
Temperature, K	Molality, mol/kg of calcium sulfate dihydrate	Molality, mol/kg of magnesium chloride	Mass density, kg/m3	uncertainty
278.15	0.0232	0.1	1008	3
278.15	0.0332	0.25	1028	3
278.15	0.0488	0.501	1053	2
278.15	0.0644	1.015	1089	2
278.15	0.0626	1.559	1113	2
278.15	0.0595	2.113	1145	2
278.15	0.0572	2.687	1176	2
278.15	0.0543	3.292	1204	2
288.15	0.0235	0.101	1007	2
288.15	0.034	0.251	1026	2
288.15	0.0497	0.502	1051	2
288.15	0.0652	1.017	1087	2
288.15	0.0636	1.563	1111	2
288.15	0.0606	2.117	1143	2
288.15	0.0584	2.693	1174	2
288.15	0.0557	3.3	1202	2
298.15	0.0244	0.101	1005	2
298.15	0.0351	0.251	1024	2
298.15	0.0504	0.502	1051	2
298.15	0.0668	1.018	1087	2
298.15	0.0644	1.563	1111	2
298.15	0.0617	2.118	1143	2
298.15	0.0599	2.699	1172	2
298.15	0.0571	3.311	1199	2
308.15	0.0256	0.101	1004	2
308.15	0.0363	0.252	1022	3
308.15	0.0515	0.503	1049	2
308.15	0.0686	1.02	1085	2
308.15	0.0663	1.567	1109	2
308.15	0.064	2.123	1141	2
308.15	0.0614	2.708	1169	2
308.15	0.0591	3.319	1197	2

System: water + calcium chloride + calcium sulfate dihydrate; phases: Liquid, Crystal
Fixed: Pressure, kPa = 101
Property: Molality, mol/kg of calcium sulfate dihydrate (Liquid); method: gravimetric
Temperature, K	Molality, mol/kg of calcium chloride	Molality, mol/kg of calcium sulfate dihydrate	uncertainty
278.15	0.05	0.01	0.0006
278.15	0.1	0.0084	0.0005
278.15	0.201	0.0077	0.0005
278.15	0.302	0.0075	0.0005
278.15	0.506	0.0061	0.0004
278.15	0.817	0.0055	0.0003
278.15	1.237	0.0047	0.0003
278.15	1.665	0.0036	0.0002
278.15	2.11	0.0024	0.0002
288.15	0.05	0.0101	0.0006
288.15	0.1	0.0086	0.0005
288.15	0.201	0.0081	0.0005
288.15	0.303	0.0078	0.0005
288.15	0.506	0.0065	0.0004
288.15	0.816	0.0059	0.0004
288.15	1.236	0.0052	0.0003
288.15	1.665	0.0041	0.0003
288.15	2.109	0.0031	0.0002
298.15	0.05	0.0102	0.0006
298.15	0.101	0.0088	0.0005
298.15	0.202	0.0083	0.0005
298.15	0.303	0.0081	0.0005
298.15	0.507	0.0074	0.0004
298.15	0.818	0.0065	0.0004
298.15	1.241	0.0055	0.0003
298.15	1.669	0.0043	0.0003
298.15	2.113	0.0033	0.0002
308.15	0.05	0.0101	0.0006
308.15	0.101	0.009	0.0005
308.15	0.203	0.0084	0.0005
308.15	0.304	0.0081	0.0005
308.15	0.509	0.0075	0.0005
308.15	0.819	0.007	0.0004
308.15	1.244	0.0061	0.0004
308.15	1.672	0.0047	0.0003
308.15	2.118	0.0035	0.0002

System: water + calcium chloride + calcium sulfate dihydrate; phases: Liquid
Fixed: Pressure, kPa = 101
Property: Mass density, kg/m3 (Liquid); method: Pycnometric method
Temperature, K	Molality, mol/kg of calcium sulfate dihydrate	Molality, mol/kg of calcium chloride	Mass density, kg/m3	uncertainty
278.15	0.01	0.05	1005	2
278.15	0.0084	0.1	1008	2
278.15	0.0077	0.201	1017	2
278.15	0.0075	0.302	1026	2
278.15	0.0061	0.506	1044	2
278.15	0.0055	0.817	1069	2
278.15	0.0047	1.237	1104	2
278.15	0.0036	1.665	1139	2
278.15	0.0024	2.11	1170	2
288.15	0.0101	0.05	1004	2
288.15	0.0086	0.1	1009	2
288.15	0.0081	0.201	1016	2
288.15	0.0078	0.303	1025	2
288.15	0.0065	0.506	1044	2
288.15	0.0059	0.816	1070	2
288.15	0.0052	1.236	1105	2
288.15	0.0041	1.665	1139	2
288.15	0.0031	2.109	1171	2
298.15	0.0102	0.05	1003	2
298.15	0.0088	0.101	1007	2
298.15	0.0083	0.202	1015	2
298.15	0.0081	0.303	1024	2
298.15	0.0074	0.507	1042	2
298.15	0.0065	0.818	1068	2
298.15	0.0055	1.241	1101	2
298.15	0.0043	1.669	1137	2
298.15	0.0033	2.113	1169	2
308.15	0.0101	0.05	1002	2
308.15	0.009	0.101	1004	2
308.15	0.0084	0.203	1008	2
308.15	0.0081	0.304	1022	2
308.15	0.0075	0.509	1039	2
308.15	0.007	0.819	1066	2
308.15	0.0061	1.244	1099	2
308.15	0.0047	1.672	1135	2
308.15	0.0035	2.118	1167	2

System: aluminum chloride + water + calcium sulfate dihydrate; phases: Liquid, Crystal
Fixed: Pressure, kPa = 101
Property: Molality, mol/kg of calcium sulfate dihydrate (Liquid); method: gravimetric
Temperature, K	Molality, mol/kg of aluminum chloride	Molality, mol/kg of calcium sulfate dihydrate	uncertainty
278.15	0.1	0.0311	0.0006
278.15	0.252	0.0646	0.0013
278.15	0.505	0.0766	0.0015
278.15	0.762	0.0778	0.0016
278.15	1.023	0.0793	0.0016
278.15	1.349	0.0761	0.0015
278.15	1.669	0.0633	0.0013
288.15	0.1	0.0329	0.0007
288.15	0.252	0.0686	0.0014
288.15	0.506	0.0788	0.0016
288.15	0.764	0.08	0.0016
288.15	1.027	0.0816	0.0016
288.15	1.352	0.0799	0.0016
288.15	1.672	0.0664	0.0013
298.15	0.101	0.0346	0.0007
298.15	0.252	0.0708	0.0014
298.15	0.506	0.0812	0.0016
298.15	0.765	0.0826	0.0017
298.15	1.029	0.0839	0.0017
298.15	1.356	0.0812	0.0016
298.15	1.677	0.0688	0.0014
308.15	0.101	0.0357	0.0007
308.15	0.253	0.0732	0.0015
308.15	0.507	0.0826	0.0017
308.15	0.767	0.0841	0.0017
308.15	1.032	0.085	0.0017
308.15	1.36	0.0838	0.0017
308.15	1.681	0.0744	0.0015

System: aluminum chloride + water + calcium sulfate dihydrate; phases: Liquid
Fixed: Pressure, kPa = 101
Property: Mass density, kg/m3 (Liquid); method: Pycnometric method
Temperature, K	Molality, mol/kg of calcium sulfate dihydrate	Molality, mol/kg of aluminum chloride	Mass density, kg/m3	uncertainty
278.15	0.0311	0.1	1017	2
278.15	0.0646	0.252	1036	2
278.15	0.0766	0.505	1068	2
278.15	0.0778	0.762	1095	2
278.15	0.0793	1.023	1121	2
278.15	0.0761	1.349	1147	2
278.15	0.0633	1.669	1181	2
288.15	0.0329	0.1	1015	2
288.15	0.0686	0.252	1035	2
288.15	0.0788	0.506	1066	2
288.15	0.08	0.764	1092	2
288.15	0.0816	1.027	1118	2
288.15	0.0799	1.352	1145	2
288.15	0.0664	1.672	1179	2
298.15	0.0346	0.101	1013	2
298.15	0.0708	0.252	1033	2
298.15	0.0812	0.506	1065	2
298.15	0.0826	0.765	1091	2
298.15	0.0839	1.029	1116	2
298.15	0.0812	1.356	1143	2
298.15	0.0688	1.677	1177	2
308.15	0.0357	0.101	1011	2
308.15	0.0732	0.253	1031	2
308.15	0.0826	0.507	1063	2
308.15	0.0841	0.767	1089	2
308.15	0.085	1.032	1114	2
308.15	0.0838	1.36	1140	2
308.15	0.0744	1.681	1175	2

System: water + calcium sulfate dihydrate; phases: Liquid, Crystal
Fixed: Pressure, kPa = 101
Property: Molality, mol/kg of calcium sulfate dihydrate (Liquid); method: UV spectroscopy
Temperature, K	Molality, mol/kg of calcium sulfate dihydrate	uncertainty
278.15	0.01338	0.00054
283.15	0.01407	0.00056
288.15	0.01456	0.00058
293.15	0.01499	0.0006
298.15	0.01518	0.00061
303.15	0.0153	0.00061
308.15	0.01541	0.00062
