Measured thermophysical data. Solubility of Terephthaldialdehyde in N-Methyl-2-pyrrolidone and Solid-Liquid Phase Equilibrium for Ternary Systems of Terephthalic Acid + Terephthaldialdehyde + N,N-Dimethylformamide/N-Methyl-2-pyrrolidone
Source: J. Chem. Eng. Data, 2018, 10.1021/acs.jced.8b00091
Compound 1: 1,4-benzenedicarboxylic acid, C8H6O4, InChI=1S/C8H6O4/c9-7(10)5-1-2-6(4-3-5)8(11)12/h1-4H,(H,9,10)(H,11,12), purity 99.4%
Compound 2: terephthalic aldehyde, C8H6O2, InChI=1S/C8H6O2/c9-5-7-1-2-8(6-10)4-3-7/h1-6H, purity 98%
Compound 3: dimethylformamide, C3H7NO, InChI=1S/C3H7NO/c1-4(2)3-5/h3H,1-2H3, purity 99.6%
Compound 4: N-methylpyrrolidone, C5H9NO, InChI=1S/C5H9NO/c1-6-4-2-3-5(6)7/h2-4H2,1H3, purity 99.7%

System: terephthalic aldehyde + N-methylpyrrolidone; phases: Liquid, Crystal
Fixed: Pressure, kPa = 101.2
Property: Mole fraction of terephthalic aldehyde (Liquid); method: Chromatography
Temperature, K	Mole fraction of terephthalic aldehyde	uncertainty
293.15	0.1602	0.0094
296.35	0.1725	0.0101
298.15	0.1801	0.0105
303.15	0.2019	0.0118
303.75	0.2049	0.012
308.15	0.2249	0.0132
312.75	0.2485	0.0146
313.15	0.2523	0.0148
318.15	0.2812	0.0164

System: terephthalic aldehyde + N-methylpyrrolidone; phases: Liquid, Crystal
Fixed: Pressure, kPa = 101.2
Property: Mass fraction of terephthalic aldehyde (Liquid); method: Chromatography
Temperature, K	Mass fraction of terephthalic aldehyde	uncertainty
298.15	0.2291	0.0128
308.15	0.2819	0.0158
318.15	0.3461	0.0194

System: 1,4-benzenedicarboxylic acid + terephthalic aldehyde + dimethylformamide; phases: Liquid, Crystal
Fixed: Pressure, kPa = 101.2
Property: Mass fraction of terephthalic aldehyde (Liquid); method: Chromatography
Temperature, K	Mass fraction of 1,4-benzenedicarboxylic acid	Mass fraction of terephthalic aldehyde	uncertainty
298.15	0.05019	0.2017	0.048
298.15	0.05966	0.0423	0.0423
298.15	0.0575	0.08199	0.05871
298.15	0.05533	0.121	0.0507
298.15	0.05262	0.1614	0.0471
298.15	0.06208	0	
308.15	0.05304	0.2546	0.0422
308.15	0.06394	0.04502	0.04502
308.15	0.05937	0.141	0.069
308.15	0.06188	0.09028	0.0716
308.15	0.05702	0.1922	0.061
308.15	0.06642	0	
318.15	0.05377	0.3146	0.0572
318.15	0.05864	0.2266	0.0563
318.15	0.06586	0.1092	0.0646
318.15	0.06279	0.1642	0.0577
318.15	0.0693	0.05061	0.05061
318.15	0.0718	0	

System: 1,4-benzenedicarboxylic acid + terephthalic aldehyde + dimethylformamide; phases: Liquid, Crystal
Fixed: Pressure, kPa = 101.2
Property: Mass fraction of terephthalic aldehyde (Liquid); method: Chromatography
Temperature, K	Mass fraction of 1,4-benzenedicarboxylic acid	Mass fraction of terephthalic aldehyde	uncertainty
298.15	0	0.2205	0.0124
298.15	0.03842	0.2057	0.0116
298.15	0.0265	0.211	0.0119
298.15	0.01473	0.2151	0.0121
298.15	0.05019	0.2017	0.0114
308.15	0	0.2777	0.0156
308.15	0.03771	0.2605	0.0146
308.15	0.02489	0.2656	0.0149
308.15	0.01317	0.2715	0.0152
308.15	0.05304	0.2546	0.0143
318.15	0	0.3442	0.0193
318.15	0.01263	0.3366	0.0189
318.15	0.02634	0.3302	0.0185
318.15	0.0395	0.3219	0.0181
318.15	0.05377	0.3146	0.0177

System: 1,4-benzenedicarboxylic acid + terephthalic aldehyde + N-methylpyrrolidone; phases: Liquid, Crystal
Fixed: Pressure, kPa = 101.2
Property: Mass fraction of terephthalic aldehyde (Liquid); method: Chromatography
Temperature, K	Mass fraction of 1,4-benzenedicarboxylic acid	Mass fraction of terephthalic aldehyde	uncertainty
298.15	0.04138	0.2143	0.0391
298.15	0.05221	0.04132	0.04132
298.15	0.04986	0.07697	0.04339
298.15	0.0475	0.114	0.044
298.15	0.04491	0.1578	0.0422
298.15	0.0546	0	
308.15	0.05557	0.2599	0.0419
308.15	0.07259	0.04731	0.04731
308.15	0.0688	0.09535	0.04729
308.15	0.06484	0.1417	0.0458
308.15	0.05986	0.2059	0.0444
308.15	0.07643	0	
318.15	0.09758	0.05448	0.05352
318.15	0.09241	0.1034	0.0509
318.15	0.08723	0.1555	0.0514
318.15	0.08065	0.2251	0.0489
318.15	0.103	0	
318.15	0.07241	0.3104	0.0455

System: 1,4-benzenedicarboxylic acid + terephthalic aldehyde + N-methylpyrrolidone; phases: Liquid, Crystal
Fixed: Pressure, kPa = 101.2
Property: Mass fraction of terephthalic aldehyde (Liquid); method: Chromatography
Temperature, K	Mass fraction of 1,4-benzenedicarboxylic acid	Mass fraction of terephthalic aldehyde	uncertainty
298.15	0	0.2291	0.0128
298.15	0.01432	0.2238	0.0126
298.15	0.02926	0.219	0.0123
298.15	0.02009	0.2224	0.0125
298.15	0.04138	0.2143	0.0121
308.15	0	0.2819	0.0158
308.15	0.01479	0.2753	0.0154
308.15	0.02805	0.2701	0.0152
308.15	0.0399	0.2667	0.015
308.15	0.05557	0.2599	0.0146
318.15	0	0.3461	0.0194
318.15	0.01641	0.3396	0.019
318.15	0.03545	0.3302	0.0185
318.15	0.05548	0.3209	0.0181
318.15	0.07241	0.3104	0.0176

System: 1,4-benzenedicarboxylic acid + dimethylformamide; phases: Liquid, Crystal
Fixed: Pressure, kPa = 101.2
Property: Solid-liquid equilibrium temperature, K (Liquid); method: Chromatography
Mass fraction of 1,4-benzenedicarboxylic acid	Solid-liquid equilibrium temperature, K	uncertainty
0.06208	298.15	
0.06642	308.15	
0.0718	318.15	

System: terephthalic aldehyde + dimethylformamide; phases: Liquid, Crystal
Fixed: Pressure, kPa = 101.2
Property: Mass fraction of terephthalic aldehyde (Liquid); method: Chromatography
Temperature, K	Mass fraction of terephthalic aldehyde	uncertainty
298.15	0.2205	0.0124
308.15	0.2777	0.0156
318.15	0.3442	0.0193

System: 1,4-benzenedicarboxylic acid + N-methylpyrrolidone; phases: Liquid, Crystal
Fixed: Pressure, kPa = 101.2
Property: Solid-liquid equilibrium temperature, K (Liquid); method: Chromatography
Mass fraction of 1,4-benzenedicarboxylic acid	Solid-liquid equilibrium temperature, K	uncertainty
0.0546	298.15	
0.07643	308.15	
0.103	318.15	
