Measured thermophysical data. Solubilities of Carbon Dioxide in 1-Ethyl-3-methylimidazolium Thiocyanate, 1-Ethyl-3-methylimidazolium Dicyanamide, and 1-Ethyl-3-methylimidazolium Tricyanomethanide at (298.2 to 373.2) K and (0 to 300.0) kPa
Source: J. Chem. Eng. Data, 2017, 10.1021/acs.jced.7b00476
Compound 1: carbon dioxide, CO2, InChI=1S/CO2/c2-1-3, purity 99.99%
Compound 2: 1-ethyl-3-methylimidazolium thiocyanate, C7H11N3S, InChI=1S/C6H11N2.CHNS/c1-3-8-5-4-7(2)6-8;2-1-3/h4-6H,3H2,1-2H3;3H/q+1;/p-1, purity 99%
Compound 3: 1-ethyl-3-methylimidazolium dicyanamide, C8H11N5, InChI=1S/C6H11N2.C2N3/c1-3-8-5-4-7(2)6-8;3-1-5-2-4/h4-6H,3H2,1-2H3;/q+1;-1, purity 99%
Compound 4: 1-ethyl-3-methyl-1H-imidazolium tricyanomethanide, C10H11N5, InChI=1S/C6H11N2.C4N3/c1-3-8-5-4-7(2)6-8;5-1-4(2-6)3-7/h4-6H,3H2,1-2H3;/q+1;-1, purity 99%

System: carbon dioxide + 1-ethyl-3-methylimidazolium thiocyanate; phases: Liquid, Gas
Property: Mole fraction of carbon dioxide (Liquid); method: Phase equilibration
Temperature, K	Pressure, kPa of carbon dioxide	Mole fraction of carbon dioxide	uncertainty
298.2	61.1	0.0032	0.0008
298.2	102.2	0.0058	0.0008
298.2	153.8	0.0094	0.0008
298.2	202.8	0.0139	0.0008
298.2	260.1	0.0167	0.0008
298.2	303.8	0.0189	0.0008
313.2	52.8	0.0023	0.0008
313.2	106.1	0.0045	0.0008
313.2	151.9	0.0067	0.0006
313.2	204.7	0.0098	0.0006
313.2	275.1	0.0135	0.0006
313.2	308	0.0151	0.0006
333.2	59.6	0.0014	0.0006
333.2	105.6	0.0027	0.0006
333.2	154.5	0.0043	0.0006
333.2	203.5	0.0067	0.0006
333.2	255	0.0091	0.0006
333.2	304.2	0.0102	0.0004
353.2	53.2	0.0012	0.0004
353.2	100.9	0.0014	0.0004
353.2	168.4	0.0032	0.0004
353.2	205.5	0.0038	0.0004
353.2	251.7	0.0054	0.0004
353.2	303.8	0.0072	0.0004
373.2	56.3	0.0008	0.0002
373.2	103.7	0.001	0.0002
373.2	157.6	0.0021	0.0002
373.2	204.5	0.003	0.0002
373.2	258.3	0.004	0.0002
373.2	302.4	0.0047	0.0002

System: carbon dioxide + 1-ethyl-3-methylimidazolium thiocyanate; phases: Liquid, Gas
Property: Mole fraction of carbon dioxide (Liquid); method: Phase equilibration
Temperature, K	Pressure, kPa	Mole fraction of carbon dioxide	uncertainty
298.2	61.1	0.0032	0.0001
298.2	102.2	0.0058	0.0001
298.2	153.8	0.0094	0.0001
298.2	202.8	0.0139	0.0001
298.2	260.1	0.0167	0.0002
298.2	303.8	0.0189	0.0002
313.2	52.8	0.0023	0.0001
313.2	106.1	0.0045	0.0001
313.2	151.9	0.0067	0.0001
313.2	204.7	0.0098	0.0001
313.2	275.1	0.0135	0.0001
313.2	308	0.0151	0.0001
333.2	59.6	0.0014	0.0001
333.2	105.6	0.0027	0.0001
333.2	154.5	0.0043	0.0001
333.2	203.5	0.0067	0.0001
333.2	255	0.0091	0.0001
333.2	304.2	0.0102	0.0001
353.2	53.2	0.0012	0.0001
353.2	100.9	0.0014	0.0001
353.2	168.4	0.0032	0.0001
353.2	205.5	0.0038	0.0001
353.2	251.7	0.0054	0.0001
353.2	303.8	0.0072	0.0001
373.2	56.3	0.0008	0.0001
373.2	103.7	0.001	0.0001
373.2	157.6	0.0021	0.0001
373.2	204.5	0.003	0.0001
373.2	258.3	0.004	0.0001
373.2	302.4	0.0047	0.0001

System: carbon dioxide + 1-ethyl-3-methylimidazolium dicyanamide; phases: Liquid, Gas
Property: Mole fraction of carbon dioxide (Liquid); method: Phase equilibration
Temperature, K	Pressure, kPa of carbon dioxide	Mole fraction of carbon dioxide	uncertainty
298.2	56.5	0.0058	0.001
298.2	105.8	0.0105	0.001
298.2	150.3	0.0147	0.001
298.2	199.3	0.0196	0.001
298.2	251.5	0.0248	0.0008
298.2	303	0.0298	0.0008
313.2	52.8	0.004	0.0008
313.2	102.6	0.0071	0.0008
313.2	152.5	0.0112	0.0008
313.2	204.7	0.0161	0.0008
313.2	254.1	0.0206	0.0008
313.2	305.1	0.0249	0.0008
333.2	52.8	0.0029	0.0006
333.2	107.2	0.0056	0.0006
333.2	154.3	0.0079	0.0006
333.2	204.8	0.0112	0.0006
333.2	252.5	0.0139	0.0006
333.2	302.2	0.0169	0.0006
353.2	58.3	0.0022	0.0006
353.2	104.9	0.0038	0.0006
353.2	152.3	0.0061	0.0006
353.2	202.8	0.0085	0.0004
353.2	252.7	0.011	0.0004
353.2	303.1	0.0129	0.0004
373.2	52.1	0.0017	0.0004
373.2	99.2	0.0034	0.0004
373.2	155.3	0.0053	0.0004
373.2	198.5	0.0068	0.0004
373.2	254.9	0.0086	0.0004
373.2	301.2	0.0105	0.0004

System: carbon dioxide + 1-ethyl-3-methylimidazolium dicyanamide; phases: Liquid, Gas
Property: Mole fraction of carbon dioxide (Liquid); method: Phase equilibration
Temperature, K	Pressure, kPa	Mole fraction of carbon dioxide	uncertainty
298.2	56.5	0.0058	0.0001
298.2	105.8	0.0105	0.0001
298.2	150.3	0.0147	0.0002
298.2	199.3	0.0196	0.0002
298.2	251.5	0.0248	0.0002
298.2	303	0.0298	0.0003
313.2	52.8	0.004	0.0001
313.2	102.6	0.0071	0.0001
313.2	152.5	0.0112	0.0001
313.2	204.7	0.0161	0.0002
313.2	254.1	0.0206	0.0002
313.2	305.1	0.0249	0.0002
333.2	52.8	0.0029	0.0001
333.2	107.2	0.0056	0.0001
333.2	154.3	0.0079	0.0001
333.2	204.8	0.0112	0.0001
333.2	252.5	0.0139	0.0001
333.2	302.2	0.0169	0.0002
353.2	58.3	0.0022	0.0001
353.2	104.9	0.0038	0.0001
353.2	152.3	0.0061	0.0001
353.2	202.8	0.0085	0.0001
353.2	252.7	0.011	0.0001
353.2	303.1	0.0129	0.0001
373.2	52.1	0.0017	0.0001
373.2	99.2	0.0034	0.0001
373.2	155.3	0.0053	0.0001
373.2	198.5	0.0068	0.0001
373.2	254.9	0.0086	0.0001
373.2	301.2	0.0105	0.0001

System: carbon dioxide + 1-ethyl-3-methyl-1H-imidazolium tricyanomethanide; phases: Liquid, Gas
Property: Mole fraction of carbon dioxide (Liquid); method: Phase equilibration
Temperature, K	Pressure, kPa of carbon dioxide	Mole fraction of carbon dioxide	uncertainty
298.2	51.6	0.0104	0.0016
298.2	99.4	0.0194	0.0016
298.2	150.6	0.0288	0.0016
298.2	200.4	0.0377	0.0016
298.2	249.2	0.0463	0.0016
298.2	306.3	0.0563	0.0016
313.2	49.7	0.0082	0.0016
313.2	99.6	0.015	0.0016
313.2	150.1	0.0219	0.0014
313.2	199.9	0.0291	0.0014
313.2	249.2	0.0354	0.0014
313.2	299.5	0.042	0.0014
333.2	51.5	0.0052	0.0014
333.2	100.1	0.0103	0.0014
333.2	151	0.0155	0.0014
333.2	200.8	0.0206	0.0014
333.2	250	0.0256	0.0012
333.2	299.1	0.0304	0.0012
353.2	49.4	0.0041	0.0012
353.2	100.5	0.0079	0.0012
353.2	150.4	0.0122	0.0012
353.2	198.8	0.0159	0.0012
353.2	249.6	0.0199	0.0012
353.2	299.3	0.0239	0.0012
373.2	50.2	0.0032	0.0012
373.2	101.6	0.0064	0.0012
373.2	157.2	0.0095	0.0012
373.2	199.3	0.0121	0.001
373.2	254.6	0.0155	0.001
373.2	301.6	0.0183	0.001

System: carbon dioxide + 1-ethyl-3-methyl-1H-imidazolium tricyanomethanide; phases: Liquid, Gas
Property: Mole fraction of carbon dioxide (Liquid); method: Phase equilibration
Temperature, K	Pressure, kPa	Mole fraction of carbon dioxide	uncertainty
298.2	51.6	0.0104	0.0002
298.2	99.4	0.0194	0.0002
298.2	150.6	0.0288	0.0003
298.2	200.4	0.0377	0.0003
298.2	249.2	0.0463	0.0004
298.2	306.3	0.0563	0.0005
313.2	49.7	0.0082	0.0001
313.2	99.6	0.015	0.0002
313.2	150.1	0.0219	0.0002
313.2	199.9	0.0291	0.0003
313.2	249.2	0.0354	0.0003
313.2	299.5	0.042	0.0004
333.2	51.5	0.0052	0.0001
333.2	100.1	0.0103	0.0001
333.2	151	0.0155	0.0002
333.2	200.8	0.0206	0.0002
333.2	250	0.0256	0.0002
333.2	299.1	0.0304	0.0003
353.2	49.4	0.0041	0.0001
353.2	100.5	0.0079	0.0001
353.2	150.4	0.0122	0.0001
353.2	198.8	0.0159	0.0002
353.2	249.6	0.0199	0.0002
353.2	299.3	0.0239	0.0002
373.2	50.2	0.0032	0.0001
373.2	101.6	0.0064	0.0001
373.2	157.2	0.0095	0.0001
373.2	199.3	0.0121	0.0001
373.2	254.6	0.0155	0.0001
373.2	301.6	0.0183	0.0002
