Measured thermophysical data. Prediction and Experimental Measurement of Refractive Index in Ternary Hydrocarbon Mixtures
Source: J. Chem. Eng. Data, 2015, 10.1021/acs.jced.5b00251
Compound 1: 1,2,3,4-tetrahydronaphthalene, C10H12, InChI=1S/C10H12/c1-2-6-10-8-4-3-7-9(10)5-1/h1-2,5-6H,3-4,7-8H2, purity 98%
Compound 2: (2-methylpropyl)benzene, C10H14, InChI=1S/C10H14/c1-9(2)8-10-6-4-3-5-7-10/h3-7,9H,8H2,1-2H3, purity 98%
Compound 3: dodecane, C12H26, InChI=1S/C12H26/c1-3-5-7-9-11-12-10-8-6-4-2/h3-12H2,1-2H3, purity 98%

System: 1,2,3,4-tetrahydronaphthalene; phases: Liquid
Fixed: Pressure, kPa = 101
Property: Refractive index (other wavelength) (Liquid); method: Standard Abbe refractometry
Temperature, K	Wavelength, nm	Refractive index (other wavelength)	uncertainty
293.15	657.2	1.53694	0.00075
293.15	633.2	1.53808	0.00078
293.15	589.3	1.5412	0.00082
293.15	513.9	1.54872	0.00105
293.15	436.1	1.56232	0.00078
298.15	657.2	1.53452	0.00075
298.15	633.2	1.53565	0.00075
298.15	589.3	1.53875	0.00076
298.15	513.9	1.54625	0.00077
298.15	436.1	1.5598	0.00078
303.15	657.2	1.53208	0.00074
303.15	633.2	1.53321	0.00075
303.15	589.3	1.53628	0.00075
303.15	513.9	1.54373	0.00076
303.15	436.1	1.55719	0.00078
308.15	657.2	1.52971	0.00074
308.15	633.2	1.53083	0.00074
308.15	589.3	1.53389	0.00075
308.15	513.9	1.5413	0.00076
308.15	436.1	1.55471	0.00077
313.15	657.2	1.52732	0.00074
313.15	633.2	1.52844	0.00073
313.15	589.3	1.53148	0.00075
313.15	513.9	1.53886	0.00076
313.15	436.1	1.55219	0.00077
318.15	657.2	1.52495	0.00074
318.15	633.2	1.52629	0.0007
318.15	589.3	1.52912	0.00067
318.15	513.9	1.53647	0.00059
318.15	436.1	1.54974	0.00077

System: (2-methylpropyl)benzene; phases: Liquid
Fixed: Pressure, kPa = 101
Property: Refractive index (other wavelength) (Liquid); method: Standard Abbe refractometry
Temperature, K	Wavelength, nm	Refractive index (other wavelength)	uncertainty
293.15	657.2	1.48286	0.00076
293.15	633.2	1.48377	0.00078
293.15	589.3	1.48654	0.0008
293.15	513.9	1.4927	0.00102
293.15	436.1	1.50429	0.00078
298.15	657.2	1.48035	0.00075
298.15	633.2	1.48132	0.00075
298.15	589.3	1.48406	0.00076
298.15	513.9	1.49023	0.00076
298.15	436.1	1.50172	0.00078
303.15	657.2	1.47798	0.00074
303.15	633.2	1.47888	0.00075
303.15	589.3	1.4815	0.00076
303.15	513.9	1.48772	0.00077
303.15	436.1	1.49916	0.00078
308.15	657.2	1.47555	0.00075
308.15	633.2	1.47643	0.00075
308.15	589.3	1.47904	0.00075
308.15	513.9	1.48521	0.00077
308.15	436.1	1.49659	0.00078
313.15	657.2	1.47309	0.00075
313.15	633.2	1.47397	0.00075
313.15	589.3	1.47657	0.00076
313.15	513.9	1.48268	0.00076
313.15	436.1	1.494	0.00078
318.15	657.2	1.47063	0.00075
318.15	633.2	1.47151	0.00072
318.15	589.3	1.47409	0.0007
318.15	513.9	1.48023	0.0006
318.15	436.1	1.49143	0.00078

System: dodecane; phases: Liquid
Fixed: Pressure, kPa = 101
Property: Refractive index (other wavelength) (Liquid); method: Standard Abbe refractometry
Temperature, K	Wavelength, nm	Refractive index (other wavelength)	uncertainty
293.15	657.2	1.41993	0.00071
293.15	633.2	1.42031	0.00073
293.15	589.3	1.42171	0.00074
293.15	513.9	1.42506	0.00082
293.15	436.1	1.43105	0.00072
298.15	657.2	1.41777	0.00071
298.15	633.2	1.41815	0.00071
298.15	589.3	1.41957	0.00071
298.15	513.9	1.42291	0.00071
298.15	436.1	1.42886	0.00072
303.15	657.2	1.41564	0.00071
303.15	633.2	1.41601	0.00071
303.15	589.3	1.41742	0.00071
303.15	513.9	1.42074	0.00072
303.15	436.1	1.42666	0.00072
308.15	657.2	1.4135	0.00071
308.15	633.2	1.41385	0.00071
308.15	589.3	1.41527	0.00071
308.15	513.9	1.41857	0.00072
308.15	436.1	1.42445	0.00072
313.15	657.2	1.41134	0.00071
313.15	633.2	1.41171	0.00072
313.15	589.3	1.41309	0.00071
313.15	513.9	1.41638	0.00072
313.15	436.1	1.42223	0.00072
318.15	657.2	1.4092	0.00071
318.15	633.2	1.40943	0.0007
318.15	589.3	1.41093	0.00069
318.15	513.9	1.41418	0.00063
318.15	436.1	1.42001	0.00072

System: dodecane + 1,2,3,4-tetrahydronaphthalene + (2-methylpropyl)benzene; phases: Liquid
Fixed: Pressure, kPa = 101
Fixed: Wavelength, nm = 657.2
Property: Refractive index (other wavelength) (Liquid); method: Anton Paar WR Refractometer
Temperature, K	Mole fraction of 1,2,3,4-tetrahydronaphthalene	Mole fraction of (2-methylpropyl)benzene	Refractive index (other wavelength)	uncertainty
293.15	0	0	1.41993	0.00126
298.15	0	0	1.41777	0.00126
303.15	0	0	1.41564	0.00126
308.15	0	0	1.4135	0.00126
313.15	0	0	1.41134	0.00126
318.15	0	0	1.4092	0.00126
293.15	0.1014	0	1.42878	0.00126
298.15	0.1014	0	1.42675	0.00126
303.15	0.1014	0	1.42434	0.00126
308.15	0.1014	0	1.4222	0.00126
313.15	0.1014	0	1.41998	0.00126
318.15	0.1014	0	1.41844	0.00126
303.15	0.2024	0	1.434	0.00127
298.15	0.2024	0	1.43623	0.00127
308.15	0.2024	0	1.4316	0.00127
293.15	0.2024	0	1.43896	0.00127
313.15	0.2024	0	1.42919	0.00127
318.15	0.2024	0	1.42702	0.00127
308.15	0.3032	0	1.4413	0.00127
298.15	0.3032	0	1.44627	0.00127
303.15	0.3032	0	1.44354	0.00127
313.15	0.3032	0	1.439	0.00127
293.15	0.3032	0	1.44835	0.00127
318.15	0.3032	0	1.43701	0.00127
293.15	0.4036	0	1.45937	0.00127
298.15	0.4036	0	1.45678	0.00127
313.15	0.4036	0	1.44973	0.00127
303.15	0.4036	0	1.45459	0.00127
308.15	0.4036	0	1.4519	0.00127
318.15	0.4036	0	1.44705	0.00127
313.15	0.5038	0	1.46161	0.00127
298.15	0.5038	0	1.46851	0.00127
303.15	0.5038	0	1.46571	0.00127
293.15	0.5038	0	1.47078	0.00127
318.15	0.5038	0	1.45946	0.00127
308.15	0.5038	0	1.464	0.00127
318.15	0.6036	0	1.47064	0.00127
293.15	0.6036	0	1.48271	0.00127
313.15	0.6036	0	1.47355	0.00127
308.15	0.6036	0	1.4752	0.00127
298.15	0.6036	0	1.47967	0.00127
303.15	0.6036	0	1.47809	0.00127
293.15	0.7032	0	1.4944	0.00127
313.15	0.7032	0	1.48505	0.00127
318.15	0.7032	0	1.48338	0.00127
308.15	0.7032	0	1.488	0.00127
298.15	0.7032	0	1.49266	0.00127
303.15	0.7032	0	1.48964	0.00127
308.15	0.8024	0	1.5001	0.00127
318.15	0.8024	0	1.49507	0.00127
293.15	0.8024	0	1.50822	0.00127
298.15	0.8024	0	1.50529	0.00127
313.15	0.8024	0	1.49889	0.00127
303.15	0.8024	0	1.50351	0.00127
318.15	0.9014	0	1.51052	0.00127
308.15	0.9014	0	1.5152	0.00127
303.15	0.9014	0	1.51655	0.00127
293.15	0.9014	0	1.52156	0.00127
313.15	0.9014	0	1.51219	0.00127
298.15	0.9014	0	1.5199	0.00127
303.15	1	0	1.53208	0.00126
298.15	1	0	1.53452	0.00126
318.15	1	0	1.52495	0.00126
293.15	1	0	1.53694	0.00126
308.15	1	0	1.5297	0.00126
313.15	1	0	1.52732	0.00126
318.15	0.9014	0.0986	1.5186	0.00127
313.15	0.9014	0.0986	1.52193	0.00127
298.15	0.9014	0.0986	1.52941	0.00127
293.15	0.9014	0.0986	1.53141	0.00127
303.15	0.9014	0.0986	1.52666	0.00127
308.15	0.9014	0.0986	1.5245	0.00127
308.15	0.8196	0.1009	1.50969	0.00127
303.15	0.8196	0.1009	1.51197	0.00127
298.15	0.8196	0.1009	1.5144	0.00127
293.15	0.8196	0.1009	1.51668	0.00127
313.15	0.8196	0.1009	1.50734	0.00127
318.15	0.8196	0.1009	1.50496	0.00127
298.15	0	0.1014	1.42267	0.00126
303.15	0	0.1014	1.42102	0.00126
308.15	0	0.1014	1.4182	0.00126
293.15	0	0.1014	1.42541	0.00126
313.15	0	0.1014	1.41665	0.00126
318.15	0	0.1014	1.41386	0.00126
293.15	0.734	0.1033	1.50293	0.00127
298.15	0.734	0.1033	1.5005	0.00127
308.15	0.734	0.1033	1.4958	0.00127
313.15	0.734	0.1033	1.49344	0.00127
318.15	0.734	0.1033	1.49113	0.00127
303.15	0.734	0.1033	1.49808	0.00127
293.15	0.6442	0.1058	1.48959	0.00127
313.15	0.6442	0.1058	1.48025	0.00127
298.15	0.6442	0.1058	1.48755	0.00127
318.15	0.6442	0.1058	1.47828	0.00127
303.15	0.6442	0.1058	1.48501	0.00127
308.15	0.6442	0.1058	1.48289	0.00127
313.15	0.5501	0.1084	1.46836	0.00127
308.15	0.5501	0.1084	1.47016	0.00127
293.15	0.5501	0.1084	1.47777	0.00127
298.15	0.5501	0.1084	1.47497	0.00127
318.15	0.5501	0.1084	1.46543	0.00127
303.15	0.5501	0.1084	1.47301	0.00127
303.15	0.4512	0.1111	1.46158	0.00127
298.15	0.4512	0.1111	1.46399	0.00127
313.15	0.4512	0.1111	1.45701	0.00127
293.15	0.4512	0.1111	1.46624	0.00127
308.15	0.4512	0.1111	1.45935	0.00127
318.15	0.4512	0.1111	1.45474	0.00127
308.15	0.3472	0.114	1.4485	0.00127
293.15	0.3472	0.114	1.4553	0.00127
313.15	0.3472	0.114	1.44623	0.00127
303.15	0.3472	0.114	1.45073	0.00127
298.15	0.3472	0.114	1.45302	0.00127
318.15	0.3472	0.114	1.4439	0.00127
303.15	0.2376	0.117	1.4405	0.00127
298.15	0.2376	0.117	1.44265	0.00127
308.15	0.2376	0.117	1.4381	0.00127
313.15	0.2376	0.117	1.43609	0.00127
318.15	0.2376	0.117	1.43366	0.00127
293.15	0.2376	0.117	1.44496	0.00127
293.15	0.122	0.1202	1.43495	0.00126
303.15	0.122	0.1202	1.43055	0.00126
308.15	0.122	0.1202	1.4284	0.00126
313.15	0.122	0.1202	1.42608	0.00126
298.15	0.122	0.1202	1.43274	0.00126
318.15	0.122	0.1202	1.42394	0.00126
308.15	0.8024	0.1976	1.5186	0.00127
313.15	0.8024	0.1976	1.51573	0.00127
318.15	0.8024	0.1976	1.51388	0.00127
298.15	0.8024	0.1976	1.52344	0.00127
303.15	0.8024	0.1976	1.52043	0.00127
293.15	0.8024	0.1976	1.52522	0.00127
308.15	0.7182	0.2021	1.5043	0.00127
313.15	0.7182	0.2021	1.50154	0.00127
303.15	0.7182	0.2021	1.50618	0.00127
298.15	0.7182	0.2021	1.50897	0.00127
293.15	0.7182	0.2021	1.5109	0.00127
318.15	0.7182	0.2021	1.49963	0.00127
298.15	0	0.2024	1.42867	0.00126
303.15	0	0.2024	1.42568	0.00126
308.15	0	0.2024	1.4243	0.00126
313.15	0	0.2024	1.42109	0.00126
293.15	0	0.2024	1.43019	0.00126
318.15	0	0.2024	1.41979	0.00126
313.15	0.6301	0.2069	1.48703	0.00127
303.15	0.6301	0.2069	1.49185	0.00127
293.15	0.6301	0.2069	1.49681	0.00127
308.15	0.6301	0.2069	1.48946	0.00127
298.15	0.6301	0.2069	1.49436	0.00127
318.15	0.6301	0.2069	1.48469	0.00127
298.15	0.5377	0.2119	1.48283	0.00127
293.15	0.5377	0.2119	1.48511	0.00127
313.15	0.5377	0.2119	1.47582	0.00127
303.15	0.5377	0.2119	1.4804	0.00127
308.15	0.5377	0.2119	1.47815	0.00127
318.15	0.5377	0.2119	1.47351	0.00127
308.15	0.4408	0.2171	1.46545	0.00127
303.15	0.4408	0.2171	1.46781	0.00127
298.15	0.4408	0.2171	1.47013	0.00127
313.15	0.4408	0.2171	1.46296	0.00127
293.15	0.4408	0.2171	1.47237	0.00127
318.15	0.4408	0.2171	1.46082	0.00127
308.15	0.339	0.2226	1.4549	0.00127
303.15	0.339	0.2226	1.45711	0.00127
298.15	0.339	0.2226	1.4595	0.00127
313.15	0.339	0.2226	1.45249	0.00127
318.15	0.339	0.2226	1.45024	0.00127
293.15	0.339	0.2226	1.46173	0.00127
303.15	0.2318	0.2284	1.44569	0.00127
308.15	0.2318	0.2284	1.44345	0.00127
298.15	0.2318	0.2284	1.44795	0.00127
313.15	0.2318	0.2284	1.44115	0.00127
293.15	0.2318	0.2284	1.45024	0.00127
318.15	0.2318	0.2284	1.4389	0.00127
293.15	0.119	0.2344	1.44064	0.00127
303.15	0.119	0.2344	1.43619	0.00127
298.15	0.119	0.2344	1.43843	0.00127
308.15	0.119	0.2344	1.4339	0.00127
313.15	0.119	0.2344	1.43163	0.00127
318.15	0.119	0.2344	1.42942	0.00127
313.15	0.7032	0.2968	1.51025	0.00127
293.15	0.7032	0.2968	1.52005	0.00127
298.15	0.7032	0.2968	1.51776	0.00127
303.15	0.7032	0.2968	1.51528	0.00127
318.15	0.7032	0.2968	1.50758	0.00127
308.15	0.7032	0.2968	1.5127	0.00127
303.15	0	0.3032	1.4321	0.00127
308.15	0	0.3032	1.429	0.00127
298.15	0	0.3032	1.43369	0.00127
313.15	0	0.3032	1.42761	0.00127
293.15	0	0.3032	1.43659	0.00127
318.15	0	0.3032	1.42424	0.00127
313.15	0.6166	0.3037	1.49667	0.00127
308.15	0.6166	0.3037	1.49875	0.00127
293.15	0.6166	0.3037	1.50601	0.00127
303.15	0.6166	0.3037	1.50132	0.00127
298.15	0.6166	0.3037	1.50341	0.00127
318.15	0.6166	0.3037	1.49409	0.00127
293.15	0.5259	0.3108	1.4928	0.00127
313.15	0.5259	0.3108	1.48347	0.00127
298.15	0.5259	0.3108	1.49046	0.00127
308.15	0.5259	0.3108	1.48558	0.00127
318.15	0.5259	0.3108	1.48077	0.00127
303.15	0.5259	0.3108	1.48811	0.00127
293.15	0.4309	0.3183	1.48028	0.00127
303.15	0.4309	0.3183	1.47544	0.00127
313.15	0.4309	0.3183	1.4708	0.00127
308.15	0.4309	0.3183	1.47339	0.00127
298.15	0.4309	0.3183	1.478	0.00127
318.15	0.4309	0.3183	1.46872	0.00127
308.15	0.3311	0.3262	1.46153	0.00127
293.15	0.3311	0.3262	1.46832	0.00127
313.15	0.3311	0.3262	1.45882	0.00127
303.15	0.3311	0.3262	1.46354	0.00127
298.15	0.3311	0.3262	1.46621	0.00127
318.15	0.3311	0.3262	1.45688	0.00127
298.15	0.2264	0.3344	1.45507	0.00127
303.15	0.2264	0.3344	1.45257	0.00127
293.15	0.2264	0.3344	1.45719	0.00127
308.15	0.2264	0.3344	1.4505	0.00127
313.15	0.2264	0.3344	1.448	0.00127
318.15	0.2264	0.3344	1.44582	0.00127
303.15	0.1161	0.3431	1.44221	0.00127
293.15	0.1161	0.3431	1.44676	0.00127
308.15	0.1161	0.3431	1.44	0.00127
298.15	0.1161	0.3431	1.44457	0.00127
313.15	0.1161	0.3431	1.43768	0.00127
318.15	0.1161	0.3431	1.43547	0.00127
298.15	0.6036	0.3964	1.51205	0.00127
313.15	0.6036	0.3964	1.50491	0.00127
303.15	0.6036	0.3964	1.50983	0.00127
293.15	0.6036	0.3964	1.51394	0.00127
318.15	0.6036	0.3964	1.50222	0.00127
308.15	0.6036	0.3964	1.5074	0.00127
303.15	0	0.4036	1.43713	0.00127
308.15	0	0.4036	1.4355	0.00127
298.15	0	0.4036	1.44009	0.00127
313.15	0	0.4036	1.43251	0.00127
293.15	0	0.4036	1.44168	0.00127
318.15	0	0.4036	1.43091	0.00127
308.15	0.5146	0.4055	1.49352	0.00127
313.15	0.5146	0.4055	1.49061	0.00127
293.15	0.5146	0.4055	1.50063	0.00127
298.15	0.5146	0.4055	1.49836	0.00127
303.15	0.5146	0.4055	1.49544	0.00127
318.15	0.5146	0.4055	1.48842	0.00127
308.15	0.4214	0.4151	1.48011	0.00127
313.15	0.4214	0.4151	1.47779	0.00127
293.15	0.4214	0.4151	1.48711	0.00127
298.15	0.4214	0.4151	1.48474	0.00127
303.15	0.4214	0.4151	1.48245	0.00127
318.15	0.4214	0.4151	1.47544	0.00127
303.15	0.3237	0.4251	1.47083	0.00127
298.15	0.3237	0.4251	1.47318	0.00127
308.15	0.3237	0.4251	1.4684	0.00127
293.15	0.3237	0.4251	1.47548	0.00127
313.15	0.3237	0.4251	1.46621	0.00127
318.15	0.3237	0.4251	1.46371	0.00127
298.15	0.2211	0.4356	1.46083	0.00127
303.15	0.2211	0.4356	1.45825	0.00127
308.15	0.2211	0.4356	1.45605	0.00127
313.15	0.2211	0.4356	1.45345	0.00127
293.15	0.2211	0.4356	1.46325	0.00127
318.15	0.2211	0.4356	1.45129	0.00127
303.15	0.1134	0.4467	1.44829	0.00127
293.15	0.1134	0.4467	1.45294	0.00127
308.15	0.1134	0.4467	1.4459	0.00127
313.15	0.1134	0.4467	1.44367	0.00127
318.15	0.1134	0.4467	1.4411	0.00127
298.15	0.1134	0.4467	1.45055	0.00127
313.15	0.5038	0.4962	1.49947	0.00127
298.15	0.5038	0.4962	1.50706	0.00127
303.15	0.5038	0.4962	1.50421	0.00127
308.15	0.5038	0.4962	1.5023	0.00127
293.15	0.5038	0.4962	1.50904	0.00127
318.15	0.5038	0.4962	1.49646	0.00127
308.15	0	0.5038	1.4409	0.00127
298.15	0	0.5038	1.44553	0.00127
313.15	0	0.5038	1.43936	0.00127
303.15	0	0.5038	1.44394	0.00127
293.15	0	0.5038	1.44853	0.00127
318.15	0	0.5038	1.43623	0.00127
308.15	0.4123	0.5077	1.48753	0.00127
303.15	0.4123	0.5077	1.49032	0.00127
313.15	0.4123	0.5077	1.48551	0.00127
293.15	0.4123	0.5077	1.4953	0.00127
298.15	0.4123	0.5077	1.49252	0.00127
318.15	0.4123	0.5077	1.48258	0.00127
303.15	0.3166	0.5197	1.47798	0.00127
308.15	0.3166	0.5197	1.47571	0.00127
298.15	0.3166	0.5197	1.48044	0.00127
293.15	0.3166	0.5197	1.48285	0.00127
313.15	0.3166	0.5197	1.47329	0.00127
318.15	0.3166	0.5197	1.471	0.00127
303.15	0.2161	0.5322	1.46617	0.00127
298.15	0.2161	0.5322	1.46844	0.00127
293.15	0.2161	0.5322	1.47085	0.00127
308.15	0.2161	0.5322	1.46361	0.00127
313.15	0.2161	0.5322	1.46154	0.00127
318.15	0.2161	0.5322	1.45904	0.00127
298.15	0.1107	0.5454	1.45711	0.00127
303.15	0.1107	0.5454	1.45475	0.00127
293.15	0.1107	0.5454	1.45948	0.00127
308.15	0.1107	0.5454	1.45239	0.00127
313.15	0.1107	0.5454	1.44998	0.00127
318.15	0.1107	0.5454	1.44758	0.00127
308.15	0.4036	0.5964	1.4963	0.00127
298.15	0.4036	0.5964	1.50135	0.00127
303.15	0.4036	0.5964	1.49885	0.00127
293.15	0.4036	0.5964	1.50384	0.00127
313.15	0.4036	0.5964	1.49364	0.00127
318.15	0.4036	0.5964	1.49146	0.00127
308.15	0	0.6036	1.4479	0.00127
303.15	0	0.6036	1.44965	0.00127
298.15	0	0.6036	1.45255	0.00127
313.15	0	0.6036	1.44496	0.00127
293.15	0	0.6036	1.45427	0.00127
318.15	0	0.6036	1.44316	0.00127
308.15	0.3097	0.6101	1.48318	0.00127
293.15	0.3097	0.6101	1.49051	0.00127
303.15	0.3097	0.6101	1.48564	0.00127
298.15	0.3097	0.6101	1.48809	0.00127
313.15	0.3097	0.6101	1.48087	0.00127
318.15	0.3097	0.6101	1.47832	0.00127
298.15	0.2114	0.6246	1.47483	0.00127
303.15	0.2114	0.6246	1.47244	0.00127
308.15	0.2114	0.6246	1.47012	0.00127
313.15	0.2114	0.6246	1.46771	0.00127
293.15	0.2114	0.6246	1.47723	0.00127
318.15	0.2114	0.6246	1.46525	0.00127
298.15	0.1082	0.6397	1.46381	0.00127
303.15	0.1082	0.6397	1.46139	0.00127
293.15	0.1082	0.6397	1.46623	0.00127
308.15	0.1082	0.6397	1.45891	0.00127
313.15	0.1082	0.6397	1.45666	0.00127
318.15	0.1082	0.6397	1.45458	0.00127
308.15	0.3032	0.6968	1.4909	0.00127
293.15	0.3032	0.6968	1.49852	0.00127
313.15	0.3032	0.6968	1.48866	0.00127
318.15	0.3032	0.6968	1.48569	0.00127
303.15	0.3032	0.6968	1.49332	0.00127
298.15	0.3032	0.6968	1.49594	0.00127
298.15	0	0.7032	1.45863	0.00127
303.15	0	0.7032	1.4568	0.00127
313.15	0	0.7032	1.45207	0.00127
293.15	0	0.7032	1.46153	0.00127
318.15	0	0.7032	1.4491	0.00127
308.15	0	0.7032	1.4539	0.00127
303.15	0.2068	0.7129	1.48069	0.00127
293.15	0.2068	0.7129	1.48564	0.00127
313.15	0.2068	0.7129	1.47587	0.00127
298.15	0.2068	0.7129	1.48311	0.00127
308.15	0.2068	0.7129	1.47814	0.00127
318.15	0.2068	0.7129	1.47322	0.00127
298.15	0.1059	0.7298	1.47086	0.00127
303.15	0.1059	0.7298	1.46835	0.00127
308.15	0.1059	0.7298	1.46605	0.00127
293.15	0.1059	0.7298	1.47314	0.00127
313.15	0.1059	0.7298	1.46366	0.00127
318.15	0.1059	0.7298	1.46118	0.00127
293.15	0.2024	0.7976	1.49307	0.00127
313.15	0.2024	0.7976	1.48288	0.00127
303.15	0.2024	0.7976	1.48792	0.00127
308.15	0.2024	0.7976	1.4856	0.00127
298.15	0.2024	0.7976	1.49058	0.00127
318.15	0.2024	0.7976	1.48056	0.00127
293.15	0	0.8024	1.46776	0.00127
298.15	0	0.8024	1.46597	0.00126
308.15	0	0.8024	1.4612	0.00126
303.15	0	0.8024	1.46299	0.00127
318.15	0	0.8024	1.45634	0.00126
313.15	0	0.8024	1.45817	0.00127
293.15	0.1036	0.8161	1.48044	0.00127
313.15	0.1036	0.8161	1.47068	0.00127
303.15	0.1036	0.8161	1.4755	0.00127
298.15	0.1036	0.8161	1.47803	0.00127
308.15	0.1036	0.8161	1.47309	0.00127
318.15	0.1036	0.8161	1.46815	0.00127
308.15	0.1014	0.8986	1.4802	0.00127
293.15	0.1014	0.8986	1.4876	0.00127
298.15	0.1014	0.8986	1.48512	0.00127
303.15	0.1014	0.8986	1.48267	0.00127
313.15	0.1014	0.8986	1.47807	0.00127
318.15	0.1014	0.8986	1.47538	0.00127
318.15	0	0.9014	1.46262	0.00126
313.15	0	0.9014	1.466	0.00126
303.15	0	0.9014	1.47082	0.00126
293.15	0	0.9014	1.47563	0.00126
308.15	0	0.9014	1.4676	0.00126
298.15	0	0.9014	1.47249	0.00126
298.15	0	1	1.48035	0.00126
318.15	0	1	1.47063	0.00126
308.15	0	1	1.4756	0.00126
303.15	0	1	1.47798	0.00126
293.15	0	1	1.48286	0.00126
313.15	0	1	1.47309	0.00126

System: dodecane + 1,2,3,4-tetrahydronaphthalene + (2-methylpropyl)benzene; phases: Liquid
Fixed: Pressure, kPa = 101
Fixed: Wavelength, nm = 633.2
Property: Refractive index (other wavelength) (Liquid); method: Anton Paar WR Refractometer
Temperature, K	Mole fraction of 1,2,3,4-tetrahydronaphthalene	Mole fraction of (2-methylpropyl)benzene	Refractive index (other wavelength)	uncertainty
293.15	0	0	1.42031	0.00126
293.15	0	1	1.48377	0.00126
293.15	1	0	1.53808	0.00126
293.15	0	0.9014	1.47617	0.00126
293.15	0	0.8024	1.46884	0.00127
293.15	0	0.7032	1.46196	0.00127
293.15	0	0.6036	1.45524	0.00127
293.15	0	0.5038	1.44884	0.00127
293.15	0	0.4036	1.44255	0.00127
293.15	0	0.3032	1.4368	0.00127
293.15	0	0.2024	1.43094	0.00126
293.15	0	0.1014	1.42554	0.00126
293.15	0.1014	0	1.42949	0.00126
293.15	0.2024	0	1.43917	0.00127
293.15	0.3032	0	1.44918	0.00127
293.15	0.4036	0	1.45999	0.00127
293.15	0.5038	0	1.47113	0.00127
293.15	0.6036	0	1.48318	0.00127
293.15	0.7032	0	1.49553	0.00127
293.15	0.8024	0	1.50887	0.00127
293.15	0.9014	0	1.52288	0.00127
293.15	0.1014	0.8986	1.4889	0.00127
293.15	0.2024	0.7976	1.49381	0.00127
293.15	0.3032	0.6968	1.49922	0.00127
293.15	0.4036	0.5964	1.50445	0.00127
293.15	0.5038	0.4962	1.50978	0.00127
293.15	0.6036	0.3964	1.51528	0.00127
293.15	0.7032	0.2968	1.52085	0.00127
293.15	0.8024	0.1976	1.5266	0.00127
293.15	0.9014	0.0986	1.53226	0.00127
293.15	0.122	0.1202	1.43514	0.00126
293.15	0.119	0.2344	1.44088	0.00127
293.15	0.2376	0.117	1.4452	0.00127
293.15	0.1161	0.3431	1.44705	0.00127
293.15	0.3472	0.114	1.45561	0.00127
293.15	0.1134	0.4467	1.45329	0.00127
293.15	0.2264	0.3344	1.45755	0.00127
293.15	0.339	0.2226	1.46208	0.00127
293.15	0.4512	0.1111	1.46662	0.00127
293.15	0.1107	0.5454	1.45987	0.00127
293.15	0.3311	0.3262	1.46974	0.00127
293.15	0.5501	0.1084	1.47822	0.00127
293.15	0.1082	0.6397	1.46669	0.00127
293.15	0.2161	0.5322	1.4713	0.00127
293.15	0.3237	0.4251	1.47595	0.00127
293.15	0.4309	0.3183	1.48077	0.00127
293.15	0.5377	0.2119	1.48563	0.00127
293.15	0.6442	0.1058	1.4905	0.00127
293.15	0.1059	0.7298	1.47364	0.00127
293.15	0.3166	0.5197	1.48339	0.00127
293.15	0.5259	0.3108	1.49338	0.00127
293.15	0.734	0.1033	1.50356	0.00127
293.15	0.1036	0.8161	1.481	0.00127
293.15	0.2068	0.7129	1.48623	0.00127
293.15	0.3097	0.6101	1.49112	0.00127
293.15	0.4123	0.5077	1.49624	0.00127
293.15	0.5146	0.4055	1.50129	0.00127
293.15	0.6166	0.3037	1.50671	0.00127
293.15	0.7182	0.2021	1.51162	0.00127
293.15	0.8196	0.1009	1.51741	0.00127
293.15	0.2318	0.2284	1.45113	0.00127
293.15	0.6301	0.2069	1.49803	0.00127
293.15	0.2114	0.6246	1.47836	0.00127
293.15	0.2211	0.4356	1.46426	0.00127
293.15	0.4408	0.2171	1.4734	0.00127
293.15	0.4214	0.4151	1.48828	0.00127
298.15	0	0	1.41815	0.00126
298.15	0	1	1.48132	0.00126
298.15	1	0	1.53565	0.00126
298.15	0	0.9014	1.47371	0.00126
298.15	0	0.8024	1.46646	0.00127
298.15	0	0.7032	1.45965	0.00127
298.15	0	0.6036	1.45293	0.00127
298.15	0	0.5038	1.44642	0.00127
298.15	0	0.4036	1.44035	0.00127
298.15	0	0.3032	1.43449	0.00127
298.15	0	0.2024	1.42885	0.00126
298.15	0	0.1014	1.42337	0.00126
298.15	0.1014	0	1.42729	0.00126
298.15	0.2024	0	1.43699	0.00127
298.15	0.3032	0	1.44713	0.00127
298.15	0.4036	0	1.45768	0.00127
298.15	0.5038	0	1.46889	0.00127
298.15	0.6036	0	1.4807	0.00127
298.15	0.7032	0	1.4932	0.00127
298.15	0.8024	0	1.50652	0.00127
298.15	0.9014	0	1.52064	0.00127
298.15	0.1014	0.8986	1.48633	0.00127
298.15	0.2024	0.7976	1.49158	0.00127
298.15	0.3032	0.6968	1.49681	0.00127
298.15	0.4036	0.5964	1.50206	0.00127
298.15	0.5038	0.4962	1.50737	0.00127
298.15	0.6036	0.3964	1.51298	0.00127
298.15	0.7032	0.2968	1.51853	0.00127
298.15	0.8024	0.1976	1.52424	0.00127
298.15	0.9014	0.0986	1.52981	0.00127
298.15	0.122	0.1202	1.43291	0.00126
298.15	0.119	0.2344	1.43866	0.00127
298.15	0.2376	0.117	1.44288	0.00127
298.15	0.1161	0.3431	1.44486	0.00127
298.15	0.3472	0.114	1.45334	0.00127
298.15	0.1134	0.4467	1.45123	0.00127
298.15	0.2264	0.3344	1.45541	0.00127
298.15	0.339	0.2226	1.45985	0.00127
298.15	0.4512	0.1111	1.46437	0.00127
298.15	0.1107	0.5454	1.4575	0.00127
298.15	0.3311	0.3262	1.46663	0.00127
298.15	0.5501	0.1084	1.4754	0.00127
298.15	0.1082	0.6397	1.46426	0.00127
298.15	0.2161	0.5322	1.4689	0.00127
298.15	0.3237	0.4251	1.47364	0.00127
298.15	0.4309	0.3183	1.47849	0.00127
298.15	0.5377	0.2119	1.48333	0.00127
298.15	0.6442	0.1058	1.48808	0.00127
298.15	0.1059	0.7298	1.47135	0.00127
298.15	0.3166	0.5197	1.48097	0.00127
298.15	0.5259	0.3108	1.49104	0.00127
298.15	0.734	0.1033	1.50112	0.00127
298.15	0.1036	0.8161	1.47859	0.00127
298.15	0.2068	0.7129	1.48369	0.00127
298.15	0.3097	0.6101	1.48868	0.00127
298.15	0.4123	0.5077	1.49314	0.00127
298.15	0.5146	0.4055	1.49902	0.00127
298.15	0.6166	0.3037	1.50408	0.00127
298.15	0.7182	0.2021	1.50968	0.00127
298.15	0.8196	0.1009	1.51512	0.00127
298.15	0.2318	0.2284	1.44883	0.00127
298.15	0.6301	0.2069	1.49552	0.00127
298.15	0.2114	0.6246	1.47594	0.00127
298.15	0.2211	0.4356	1.46183	0.00127
298.15	0.4408	0.2171	1.47068	0.00127
298.15	0.4214	0.4151	1.48592	0.00127
303.15	0	0	1.41601	0.00126
303.15	0	1	1.47888	0.00126
303.15	1	0	1.53321	0.00126
303.15	0	0.9014	1.47135	0.00126
303.15	0	0.8024	1.46405	0.00127
303.15	0	0.7032	1.45721	0.00127
303.15	0	0.6036	1.45059	0.00127
303.15	0	0.5038	1.44427	0.00127
303.15	0	0.4036	1.43796	0.00127
303.15	0	0.3032	1.43232	0.00127
303.15	0	0.2024	1.42643	0.00126
303.15	0	0.1014	1.42115	0.00126
303.15	0.1014	0	1.42505	0.00126
303.15	0.2024	0	1.4347	0.00127
303.15	0.3032	0	1.44438	0.00127
303.15	0.4036	0	1.45549	0.00127
303.15	0.5038	0	1.46627	0.00127
303.15	0.6036	0	1.47855	0.00127
303.15	0.7032	0	1.49077	0.00127
303.15	0.8024	0	1.50415	0.00127
303.15	0.9014	0	1.51787	0.00127
303.15	0.1014	0.8986	1.48406	0.00127
303.15	0.2024	0.7976	1.48893	0.00127
303.15	0.3032	0.6968	1.49439	0.00127
303.15	0.4036	0.5964	1.49932	0.00127
303.15	0.5038	0.4962	1.50493	0.00127
303.15	0.6036	0.3964	1.51015	0.00127
303.15	0.7032	0.2968	1.51604	0.00127
303.15	0.8024	0.1976	1.52181	0.00127
303.15	0.9014	0.0986	1.52748	0.00127
303.15	0.122	0.1202	1.43072	0.00126
303.15	0.119	0.2344	1.43641	0.00127
303.15	0.2376	0.117	1.44075	0.00127
303.15	0.1161	0.3431	1.4425	0.00127
303.15	0.3472	0.114	1.45103	0.00127
303.15	0.1134	0.4467	1.44861	0.00127
303.15	0.2264	0.3344	1.45292	0.00127
303.15	0.339	0.2226	1.45745	0.00127
303.15	0.4512	0.1111	1.46195	0.00127
303.15	0.1107	0.5454	1.45514	0.00127
303.15	0.3311	0.3262	1.46396	0.00127
303.15	0.5501	0.1084	1.4734	0.00127
303.15	0.1082	0.6397	1.46183	0.00127
303.15	0.2161	0.5322	1.46662	0.00127
303.15	0.3237	0.4251	1.47129	0.00127
303.15	0.4309	0.3183	1.47593	0.00127
303.15	0.5377	0.2119	1.4809	0.00127
303.15	0.6442	0.1058	1.48578	0.00127
303.15	0.1059	0.7298	1.46886	0.00127
303.15	0.3166	0.5197	1.47851	0.00127
303.15	0.5259	0.3108	1.48868	0.00127
303.15	0.734	0.1033	1.4987	0.00127
303.15	0.1036	0.8161	1.47606	0.00127
303.15	0.2068	0.7129	1.48127	0.00127
303.15	0.3097	0.6101	1.48625	0.00127
303.15	0.4123	0.5077	1.49124	0.00127
303.15	0.5146	0.4055	1.49607	0.00127
303.15	0.6166	0.3037	1.50199	0.00127
303.15	0.7182	0.2021	1.50688	0.00127
303.15	0.8196	0.1009	1.5127	0.00127
303.15	0.2318	0.2284	1.44649	0.00127
303.15	0.6301	0.2069	1.49303	0.00127
303.15	0.2114	0.6246	1.47356	0.00127
303.15	0.2211	0.4356	1.45978	0.00127
303.15	0.4408	0.2171	1.46884	0.00127
303.15	0.4214	0.4151	1.4836	0.00127
308.15	0	0	1.41385	0.00126
308.15	0	1	1.47643	0.00126
308.15	1	0	1.53083	0.00126
308.15	0	0.9014	1.46871	0.00126
308.15	0	0.8024	1.46165	0.00126
308.15	0	0.7032	1.45488	0.00127
308.15	0	0.6036	1.44827	0.00127
308.15	0	0.5038	1.44178	0.00127
308.15	0	0.4036	1.4358	0.00127
308.15	0	0.3032	1.42979	0.00127
308.15	0	0.2024	1.42441	0.00126
308.15	0	0.1014	1.41894	0.00126
308.15	0.1014	0	1.42297	0.00126
308.15	0.2024	0	1.43234	0.00127
308.15	0.3032	0	1.44254	0.00127
308.15	0.4036	0	1.45274	0.00127
308.15	0.5038	0	1.46436	0.00127
308.15	0.6036	0	1.4762	0.00127
308.15	0.7032	0	1.48855	0.00127
308.15	0.8024	0	1.5013	0.00127
308.15	0.9014	0	1.51588	0.00127
308.15	0.1014	0.8986	1.48142	0.00127
308.15	0.2024	0.7976	1.48672	0.00127
308.15	0.3032	0.6968	1.4917	0.00127
308.15	0.4036	0.5964	1.49723	0.00127
308.15	0.5038	0.4962	1.50188	0.00127
308.15	0.6036	0.3964	1.50811	0.00127
308.15	0.7032	0.2968	1.51368	0.00127
308.15	0.8024	0.1976	1.51941	0.00127
308.15	0.9014	0.0986	1.52477	0.00127
308.15	0.122	0.1202	1.42852	0.00126
308.15	0.119	0.2344	1.43414	0.00127
308.15	0.2376	0.117	1.43838	0.00127
308.15	0.1161	0.3431	1.4403	0.00127
308.15	0.3472	0.114	1.44874	0.00127
308.15	0.1134	0.4467	1.44605	0.00127
308.15	0.2264	0.3344	1.45079	0.00127
308.15	0.339	0.2226	1.45523	0.00127
308.15	0.4512	0.1111	1.45971	0.00127
308.15	0.1107	0.5454	1.45278	0.00127
308.15	0.3311	0.3262	1.46194	0.00127
308.15	0.5501	0.1084	1.47058	0.00127
308.15	0.1082	0.6397	1.45934	0.00127
308.15	0.2161	0.5322	1.46405	0.00127
308.15	0.3237	0.4251	1.46886	0.00127
308.15	0.4309	0.3183	1.47384	0.00127
308.15	0.5377	0.2119	1.47863	0.00127
308.15	0.6442	0.1058	1.4834	0.00127
308.15	0.1059	0.7298	1.46653	0.00127
308.15	0.3166	0.5197	1.47621	0.00127
308.15	0.5259	0.3108	1.48613	0.00127
308.15	0.734	0.1033	1.4964	0.00127
308.15	0.1036	0.8161	1.47362	0.00127
308.15	0.2068	0.7129	1.4787	0.00127
308.15	0.3097	0.6101	1.48375	0.00127
308.15	0.4123	0.5077	1.48802	0.00127
308.15	0.5146	0.4055	1.49412	0.00127
308.15	0.6166	0.3037	1.4994	0.00127
308.15	0.7182	0.2021	1.50499	0.00127
308.15	0.8196	0.1009	1.51038	0.00127
308.15	0.2318	0.2284	1.44381	0.00127
308.15	0.6301	0.2069	1.49063	0.00127
308.15	0.2114	0.6246	1.47124	0.00127
308.15	0.2211	0.4356	1.45702	0.00127
308.15	0.4408	0.2171	1.46628	0.00127
308.15	0.4214	0.4151	1.48126	0.00127
313.15	0	0	1.41171	0.00126
313.15	0	1	1.47397	0.00126
313.15	1	0	1.52844	0.00126
313.15	0	0.9014	1.46652	0.00126
313.15	0	0.8024	1.45924	0.00127
313.15	0	0.7032	1.45247	0.00127
313.15	0	0.6036	1.4459	0.00127
313.15	0	0.5038	1.43965	0.00127
313.15	0	0.4036	1.43336	0.00127
313.15	0	0.3032	1.4278	0.00127
313.15	0	0.2024	1.42183	0.00126
313.15	0	0.1014	1.41677	0.00126
313.15	0.1014	0	1.42066	0.00126
313.15	0.2024	0	1.43026	0.00127
313.15	0.3032	0	1.43979	0.00127
313.15	0.4036	0	1.45103	0.00127
313.15	0.5038	0	1.46163	0.00127
313.15	0.6036	0	1.47398	0.00127
313.15	0.7032	0	1.48614	0.00127
313.15	0.8024	0	1.49951	0.00127
313.15	0.9014	0	1.51325	0.00127
313.15	0.1014	0.8986	1.47918	0.00127
313.15	0.2024	0.7976	1.48409	0.00127
313.15	0.3032	0.6968	1.48957	0.00127
313.15	0.4036	0.5964	1.49422	0.00127
313.15	0.5038	0.4962	1.49959	0.00127
313.15	0.6036	0.3964	1.50513	0.00127
313.15	0.7032	0.2968	1.51132	0.00127
313.15	0.8024	0.1976	1.51708	0.00127
313.15	0.9014	0.0986	1.52276	0.00127
313.15	0.122	0.1202	1.42626	0.00126
313.15	0.119	0.2344	1.43192	0.00127
313.15	0.2376	0.117	1.4363	0.00127
313.15	0.1161	0.3431	1.43793	0.00127
313.15	0.3472	0.114	1.44651	0.00127
313.15	0.1134	0.4467	1.44398	0.00127
313.15	0.2264	0.3344	1.44832	0.00127
313.15	0.339	0.2226	1.45284	0.00127
313.15	0.4512	0.1111	1.45735	0.00127
313.15	0.1107	0.5454	1.45037	0.00127
313.15	0.3311	0.3262	1.4592	0.00127
313.15	0.5501	0.1084	1.46878	0.00127
313.15	0.1082	0.6397	1.45707	0.00127
313.15	0.2161	0.5322	1.46178	0.00127
313.15	0.3237	0.4251	1.46666	0.00127
313.15	0.4309	0.3183	1.47126	0.00127
313.15	0.5377	0.2119	1.47629	0.00127
313.15	0.6442	0.1058	1.48114	0.00127
313.15	0.1059	0.7298	1.46361	0.00127
313.15	0.3166	0.5197	1.47378	0.00127
313.15	0.5259	0.3108	1.48401	0.00127
313.15	0.734	0.1033	1.49402	0.00127
313.15	0.1036	0.8161	1.47122	0.00127
313.15	0.2068	0.7129	1.47642	0.00127
313.15	0.3097	0.6101	1.4814	0.00127
313.15	0.4123	0.5077	1.48641	0.00127
313.15	0.5146	0.4055	1.4912	0.00127
313.15	0.6166	0.3037	1.49733	0.00127
313.15	0.7182	0.2021	1.5022	0.00127
313.15	0.8196	0.1009	1.50804	0.00127
313.15	0.2318	0.2284	1.44203	0.00127
313.15	0.6301	0.2069	1.48821	0.00127
313.15	0.2114	0.6246	1.46881	0.00127
313.15	0.2211	0.4356	1.45511	0.00127
313.15	0.4408	0.2171	1.46396	0.00127
313.15	0.4214	0.4151	1.47894	0.00127
318.15	0	0	1.40943	0.00126
318.15	0	1	1.47151	0.00126
318.15	1	0	1.52629	0.00126
318.15	0	0.9014	1.46372	0.00126
318.15	0	0.8024	1.45679	0.00126
318.15	0	0.7032	1.45008	0.00127
318.15	0	0.6036	1.44352	0.00127
318.15	0	0.5038	1.4371	0.0013
318.15	0	0.4036	1.43114	0.00127
318.15	0	0.3032	1.425	0.001
318.15	0	0.2024	1.41993	0.00126
318.15	0	0.1014	1.41454	0.00126
318.15	0.1014	0	1.41859	0.00126
318.15	0.2024	0	1.42777	0.00127
318.15	0.3032	0	1.43804	0.00127
318.15	0.4036	0	1.44792	0.00127
318.15	0.5038	0	1.45981	0.00127
318.15	0.6036	0	1.47165	0.00127
318.15	0.7032	0	1.48389	0.00127
318.15	0.8024	0	1.49628	0.00127
318.15	0.9014	0	1.51123	0.00127
318.15	0.1014	0.8986	1.47656	0.00127
318.15	0.2024	0.7976	1.48188	0.00127
318.15	0.3032	0.6968	1.4869	0.0013
318.15	0.4036	0.5964	1.49242	0.00127
318.15	0.5038	0.4962	1.49693	0.00127
318.15	0.6036	0.3964	1.50333	0.00127
318.15	0.7032	0.2968	1.50887	0.00127
318.15	0.8024	0.1976	1.51464	0.00127
318.15	0.9014	0.0986	1.51989	0.00127
318.15	0.122	0.1202	1.42411	0.00126
318.15	0.119	0.2344	1.42964	0.00127
318.15	0.2376	0.117	1.43388	0.00127
318.15	0.1161	0.3431	1.43575	0.00127
318.15	0.3472	0.114	1.44442	0.00127
318.15	0.1134	0.4467	1.44185	0.00127
318.15	0.2264	0.3344	1.44615	0.00127
318.15	0.339	0.2226	1.45058	0.00127
318.15	0.4512	0.1111	1.45509	0.00127
318.15	0.1107	0.5454	1.44794	0.00127
318.15	0.3311	0.3262	1.45725	0.00127
318.15	0.5501	0.1084	1.4658	0.0013
318.15	0.1082	0.6397	1.45489	0.00127
318.15	0.2161	0.5322	1.45929	0.00127
318.15	0.3237	0.4251	1.46416	0.00127
318.15	0.4309	0.3183	1.46919	0.00127
318.15	0.5377	0.2119	1.47397	0.00127
318.15	0.6442	0.1058	1.47878	0.00127
318.15	0.1059	0.7298	1.46165	0.00127
318.15	0.3166	0.5197	1.4715	0.0013
318.15	0.5259	0.3108	1.48131	0.00127
318.15	0.734	0.1033	1.49172	0.00127
318.15	0.1036	0.8161	1.46871	0.00127
318.15	0.2068	0.7129	1.4738	0.0013
318.15	0.3097	0.6101	1.4789	0.0013
318.15	0.4123	0.5077	1.48308	0.00127
318.15	0.5146	0.4055	1.48929	0.00127
318.15	0.6166	0.3037	1.49472	0.00127
318.15	0.7182	0.2021	1.5003	0.0013
318.15	0.8196	0.1009	1.50568	0.00127
318.15	0.2318	0.2284	1.43975	0.00127
318.15	0.6301	0.2069	1.48584	0.00127
318.15	0.2114	0.6246	1.46634	0.00127
318.15	0.2211	0.4356	1.45227	0.00127
318.15	0.4408	0.2171	1.46153	0.00127
318.15	0.4214	0.4151	1.47658	0.00127

System: dodecane + 1,2,3,4-tetrahydronaphthalene + (2-methylpropyl)benzene; phases: Liquid
Fixed: Pressure, kPa = 101
Fixed: Wavelength, nm = 589.3
Property: Refractive index (other wavelength) (Liquid); method: Anton Paar WR Refractometer
Temperature, K	Mole fraction of 1,2,3,4-tetrahydronaphthalene	Mole fraction of (2-methylpropyl)benzene	Refractive index (other wavelength)	uncertainty
293.15	1	0	1.5412	0.00126
293.15	0	1	1.48654	0.00126
293.15	0	0	1.42171	0.00126
293.15	0	0.9014	1.47869	0.00126
293.15	0	0.8024	1.47122	0.00127
293.15	0	0.7032	1.46421	0.00127
293.15	0	0.6036	1.45746	0.00127
293.15	0	0.5038	1.45083	0.00127
293.15	0	0.4036	1.44443	0.00127
293.15	0	0.3032	1.43856	0.00127
293.15	0	0.2024	1.4326	0.00126
293.15	0	0.1014	1.42708	0.00126
293.15	0.1014	0	1.43105	0.00126
293.15	0.2024	0	1.44086	0.00127
293.15	0.3032	0	1.45101	0.00127
293.15	0.4036	0	1.46197	0.00127
293.15	0.5038	0	1.47329	0.00127
293.15	0.6036	0	1.48552	0.00127
293.15	0.7032	0	1.49803	0.00127
293.15	0.8024	0	1.51156	0.00127
293.15	0.9014	0	1.52577	0.00127
293.15	0.1014	0.8986	1.49141	0.00127
293.15	0.2024	0.7976	1.49657	0.00127
293.15	0.3032	0.6968	1.50199	0.00127
293.15	0.4036	0.5964	1.50727	0.00127
293.15	0.5038	0.4962	1.51266	0.00127
293.15	0.6036	0.3964	1.51821	0.00127
293.15	0.7032	0.2968	1.52382	0.00127
293.15	0.8024	0.1976	1.52961	0.00127
293.15	0.9014	0.0986	1.53531	0.00127
293.15	0.122	0.1202	1.4368	0.00126
293.15	0.119	0.2344	1.44267	0.00127
293.15	0.2376	0.117	1.44701	0.00127
293.15	0.1161	0.3431	1.44895	0.00127
293.15	0.3472	0.114	1.45757	0.00127
293.15	0.1134	0.4467	1.45531	0.00127
293.15	0.2264	0.3344	1.4596	0.00127
293.15	0.339	0.2226	1.46407	0.00127
293.15	0.4512	0.1111	1.46872	0.00127
293.15	0.1107	0.5454	1.4618	0.00127
293.15	0.3311	0.3262	1.47097	0.00127
293.15	0.5501	0.1084	1.4805	0.00127
293.15	0.1082	0.6397	1.46895	0.00127
293.15	0.2161	0.5322	1.47361	0.00127
293.15	0.3237	0.4251	1.47833	0.00127
293.15	0.4309	0.3183	1.48317	0.00127
293.15	0.5377	0.2119	1.48807	0.00127
293.15	0.6442	0.1058	1.49294	0.00127
293.15	0.1059	0.7298	1.47606	0.00127
293.15	0.3166	0.5197	1.4859	0.00127
293.15	0.5259	0.3108	1.49594	0.00127
293.15	0.734	0.1033	1.50621	0.00127
293.15	0.1036	0.8161	1.48355	0.00127
293.15	0.2068	0.7129	1.48883	0.00127
293.15	0.3097	0.6101	1.49364	0.00127
293.15	0.4123	0.5077	1.49891	0.00127
293.15	0.5146	0.4055	1.50401	0.00127
293.15	0.6166	0.3037	1.50947	0.00127
293.15	0.7182	0.2021	1.51462	0.00127
293.15	0.8196	0.1009	1.52026	0.00127
293.15	0.2318	0.2284	1.45306	0.00127
293.15	0.6301	0.2069	1.50063	0.00127
293.15	0.2114	0.6246	1.48092	0.00127
293.15	0.2211	0.4356	1.46643	0.00127
293.15	0.4408	0.2171	1.47565	0.00127
293.15	0.4214	0.4151	1.49081	0.00127
298.15	1	0	1.53875	0.00126
298.15	0	1	1.48406	0.00126
298.15	0	0	1.41957	0.00126
298.15	0	0.9014	1.47611	0.00126
298.15	0	0.8024	1.46882	0.00127
298.15	0	0.7032	1.46188	0.00127
298.15	0	0.6036	1.45504	0.00127
298.15	0	0.5038	1.44841	0.00127
298.15	0	0.4036	1.44221	0.00127
298.15	0	0.3032	1.43623	0.00127
298.15	0	0.2024	1.43049	0.00126
298.15	0	0.1014	1.4249	0.00126
298.15	0.1014	0	1.42884	0.00126
298.15	0.2024	0	1.43868	0.00127
298.15	0.3032	0	1.44896	0.00127
298.15	0.4036	0	1.45965	0.00127
298.15	0.5038	0	1.47104	0.00127
298.15	0.6036	0	1.48302	0.00127
298.15	0.7032	0	1.4955	0.00127
298.15	0.8024	0	1.50927	0.00127
298.15	0.9014	0	1.52353	0.00127
298.15	0.1014	0.8986	1.48927	0.00127
298.15	0.2024	0.7976	1.49432	0.00127
298.15	0.3032	0.6968	1.49956	0.00127
298.15	0.4036	0.5964	1.50488	0.00127
298.15	0.5038	0.4962	1.51023	0.00127
298.15	0.6036	0.3964	1.51588	0.00127
298.15	0.7032	0.2968	1.52148	0.00127
298.15	0.8024	0.1976	1.52722	0.00127
298.15	0.9014	0.0986	1.53287	0.00127
298.15	0.122	0.1202	1.43458	0.00126
298.15	0.119	0.2344	1.44042	0.00127
298.15	0.2376	0.117	1.44468	0.00127
298.15	0.1161	0.3431	1.44674	0.00127
298.15	0.3472	0.114	1.45528	0.00127
298.15	0.1134	0.4467	1.45299	0.00127
298.15	0.2264	0.3344	1.45745	0.00127
298.15	0.339	0.2226	1.46192	0.00127
298.15	0.4512	0.1111	1.46647	0.00127
298.15	0.1107	0.5454	1.45987	0.00127
298.15	0.3311	0.3262	1.46881	0.00127
298.15	0.5501	0.1084	1.47767	0.00127
298.15	0.1082	0.6397	1.46652	0.00127
298.15	0.2161	0.5322	1.4712	0.00127
298.15	0.3237	0.4251	1.476	0.00127
298.15	0.4309	0.3183	1.48087	0.00127
298.15	0.5377	0.2119	1.48576	0.00127
298.15	0.6442	0.1058	1.49065	0.00127
298.15	0.1059	0.7298	1.47375	0.00127
298.15	0.3166	0.5197	1.48323	0.00127
298.15	0.5259	0.3108	1.49357	0.00127
298.15	0.734	0.1033	1.50375	0.00127
298.15	0.1036	0.8161	1.48105	0.00127
298.15	0.2068	0.7129	1.48631	0.00127
298.15	0.3097	0.6101	1.49144	0.00127
298.15	0.4123	0.5077	1.49603	0.00127
298.15	0.5146	0.4055	1.50143	0.00127
298.15	0.6166	0.3037	1.50681	0.00127
298.15	0.7182	0.2021	1.51247	0.00127
298.15	0.8196	0.1009	1.51796	0.00127
298.15	0.2318	0.2284	1.45075	0.00127
298.15	0.6301	0.2069	1.4981	0.00127
298.15	0.2114	0.6246	1.47838	0.00127
298.15	0.2211	0.4356	1.464	0.00127
298.15	0.4408	0.2171	1.47347	0.00127
298.15	0.4214	0.4151	1.48829	0.00127
303.15	1	0	1.53628	0.00126
303.15	0	1	1.4815	0.00126
303.15	0	0	1.41742	0.00126
303.15	0	0.9014	1.47362	0.00126
303.15	0	0.8024	1.46639	0.00127
303.15	0	0.7032	1.45946	0.00127
303.15	0	0.6036	1.45269	0.00127
303.15	0	0.5038	1.44622	0.00127
303.15	0	0.4036	1.43981	0.00127
303.15	0	0.3032	1.43406	0.00127
303.15	0	0.2024	1.42804	0.00126
303.15	0	0.1014	1.42267	0.00126
303.15	0.1014	0	1.42659	0.00126
303.15	0.2024	0	1.43636	0.00127
303.15	0.3032	0	1.44619	0.00127
303.15	0.4036	0	1.45746	0.00127
303.15	0.5038	0	1.46841	0.00127
303.15	0.6036	0	1.48085	0.00127
303.15	0.7032	0	1.49302	0.00127
303.15	0.8024	0	1.50709	0.00127
303.15	0.9014	0	1.5207	0.00127
303.15	0.1014	0.8986	1.48673	0.00127
303.15	0.2024	0.7976	1.49163	0.00127
303.15	0.3032	0.6968	1.49715	0.00127
303.15	0.4036	0.5964	1.5021	0.00127
303.15	0.5038	0.4962	1.50776	0.00127
303.15	0.6036	0.3964	1.51301	0.00127
303.15	0.7032	0.2968	1.51899	0.00127
303.15	0.8024	0.1976	1.52478	0.00127
303.15	0.9014	0.0986	1.53052	0.00127
303.15	0.122	0.1202	1.43237	0.00126
303.15	0.119	0.2344	1.43817	0.00127
303.15	0.2376	0.117	1.44254	0.00127
303.15	0.1161	0.3431	1.44437	0.00127
303.15	0.3472	0.114	1.45296	0.00127
303.15	0.1134	0.4467	1.4506	0.00127
303.15	0.2264	0.3344	1.45495	0.00127
303.15	0.339	0.2226	1.45952	0.00127
303.15	0.4512	0.1111	1.46404	0.00127
303.15	0.1107	0.5454	1.45724	0.00127
303.15	0.3311	0.3262	1.46616	0.00127
303.15	0.5501	0.1084	1.47568	0.00127
303.15	0.1082	0.6397	1.46408	0.00127
303.15	0.2161	0.5322	1.4689	0.00127
303.15	0.3237	0.4251	1.47362	0.00127
303.15	0.4309	0.3183	1.4783	0.00127
303.15	0.5377	0.2119	1.48332	0.00127
303.15	0.6442	0.1058	1.48819	0.00127
303.15	0.1059	0.7298	1.47125	0.00127
303.15	0.3166	0.5197	1.48076	0.00127
303.15	0.5259	0.3108	1.49115	0.00127
303.15	0.734	0.1033	1.50148	0.00127
303.15	0.1036	0.8161	1.47846	0.00127
303.15	0.2068	0.7129	1.48384	0.00127
303.15	0.3097	0.6101	1.48894	0.00127
303.15	0.4123	0.5077	1.49409	0.00127
303.15	0.5146	0.4055	1.49888	0.00127
303.15	0.6166	0.3037	1.50472	0.00127
303.15	0.7182	0.2021	1.50965	0.00127
303.15	0.8196	0.1009	1.51549	0.00127
303.15	0.2318	0.2284	1.44858	0.00127
303.15	0.6301	0.2069	1.49563	0.00127
303.15	0.2114	0.6246	1.47599	0.00127
303.15	0.2211	0.4356	1.46173	0.00127
303.15	0.4408	0.2171	1.47107	0.00127
303.15	0.4214	0.4151	1.48611	0.00127
308.15	1	0	1.53389	0.00126
308.15	0	1	1.47904	0.00126
308.15	0	0	1.41527	0.00126
308.15	0	0.9014	1.47096	0.00126
308.15	0	0.8024	1.46398	0.00127
308.15	0	0.7032	1.45708	0.00127
308.15	0	0.6036	1.45034	0.00127
308.15	0	0.5038	1.44375	0.00127
308.15	0	0.4036	1.43762	0.00127
308.15	0	0.3032	1.43152	0.00127
308.15	0	0.2024	1.42601	0.00126
308.15	0	0.1014	1.42043	0.00126
308.15	0.1014	0	1.4245	0.00126
308.15	0.2024	0	1.434	0.00127
308.15	0.3032	0	1.44435	0.00127
308.15	0.4036	0	1.45461	0.00127
308.15	0.5038	0	1.46646	0.00127
308.15	0.6036	0	1.47848	0.00127
308.15	0.7032	0	1.49101	0.00127
308.15	0.8024	0	1.50393	0.00127
308.15	0.9014	0	1.51872	0.00127
308.15	0.1014	0.8986	1.48428	0.00127
308.15	0.2024	0.7976	1.48939	0.00127
308.15	0.3032	0.6968	1.49445	0.00127
308.15	0.4036	0.5964	1.49902	0.00127
308.15	0.5038	0.4962	1.505	0.00127
308.15	0.6036	0.3964	1.51099	0.00127
308.15	0.7032	0.2968	1.51661	0.00127
308.15	0.8024	0.1976	1.52237	0.00127
308.15	0.9014	0.0986	1.52778	0.00127
308.15	0.122	0.1202	1.43017	0.00126
308.15	0.119	0.2344	1.43589	0.00127
308.15	0.2376	0.117	1.44015	0.00127
308.15	0.1161	0.3431	1.44217	0.00127
308.15	0.3472	0.114	1.45066	0.00127
308.15	0.1134	0.4467	1.44809	0.00127
308.15	0.2264	0.3344	1.45281	0.00127
308.15	0.339	0.2226	1.45725	0.00127
308.15	0.4512	0.1111	1.46166	0.00127
308.15	0.1107	0.5454	1.45488	0.00127
308.15	0.3311	0.3262	1.46412	0.00127
308.15	0.5501	0.1084	1.47282	0.00127
308.15	0.1082	0.6397	1.46154	0.00127
308.15	0.2161	0.5322	1.46631	0.00127
308.15	0.3237	0.4251	1.47118	0.00127
308.15	0.4309	0.3183	1.4762	0.00127
308.15	0.5377	0.2119	1.48102	0.00127
308.15	0.6442	0.1058	1.48583	0.00127
308.15	0.1059	0.7298	1.46889	0.00127
308.15	0.3166	0.5197	1.47866	0.00127
308.15	0.5259	0.3108	1.48864	0.00127
308.15	0.734	0.1033	1.49899	0.00127
308.15	0.1036	0.8161	1.47614	0.00127
308.15	0.2068	0.7129	1.48124	0.00127
308.15	0.3097	0.6101	1.48634	0.00127
308.15	0.4123	0.5077	1.49063	0.00127
308.15	0.5146	0.4055	1.4968	0.00127
308.15	0.6166	0.3037	1.50216	0.00127
308.15	0.7182	0.2021	1.50773	0.00127
308.15	0.8196	0.1009	1.51317	0.00127
308.15	0.2318	0.2284	1.44624	0.00127
308.15	0.6301	0.2069	1.49318	0.00127
308.15	0.2114	0.6246	1.47368	0.00127
308.15	0.2211	0.4356	1.45916	0.00127
308.15	0.4408	0.2171	1.46807	0.00127
308.15	0.4214	0.4151	1.48355	0.00127
313.15	1	0	1.53148	0.00126
313.15	0	1	1.47657	0.00126
313.15	0	0	1.41309	0.00126
313.15	0	0.9014	1.46896	0.00126
313.15	0	0.8024	1.46154	0.00127
313.15	0	0.7032	1.45466	0.00127
313.15	0	0.6036	1.44797	0.00127
313.15	0	0.5038	1.44159	0.00127
313.15	0	0.4036	1.4352	0.00127
313.15	0	0.3032	1.42952	0.00127
313.15	0	0.2024	1.42345	0.00126
313.15	0	0.1014	1.41826	0.00126
313.15	0.1014	0	1.42227	0.00126
313.15	0.2024	0	1.43192	0.00127
313.15	0.3032	0	1.44157	0.00127
313.15	0.4036	0	1.45296	0.00127
313.15	0.5038	0	1.46372	0.00127
313.15	0.6036	0	1.47625	0.00127
313.15	0.7032	0	1.48857	0.00127
313.15	0.8024	0	1.50213	0.00127
313.15	0.9014	0	1.51623	0.00127
313.15	0.1014	0.8986	1.48198	0.00127
313.15	0.2024	0.7976	1.48705	0.00127
313.15	0.3032	0.6968	1.4923	0.00127
313.15	0.4036	0.5964	1.49681	0.00127
313.15	0.5038	0.4962	1.50259	0.00127
313.15	0.6036	0.3964	1.50798	0.00127
313.15	0.7032	0.2968	1.51422	0.00127
313.15	0.8024	0.1976	1.52003	0.00127
313.15	0.9014	0.0986	1.52573	0.00127
313.15	0.122	0.1202	1.42792	0.00126
313.15	0.119	0.2344	1.43367	0.00127
313.15	0.2376	0.117	1.43807	0.00127
313.15	0.1161	0.3431	1.43979	0.00127
313.15	0.3472	0.114	1.44843	0.00127
313.15	0.1134	0.4467	1.44595	0.00127
313.15	0.2264	0.3344	1.45031	0.00127
313.15	0.339	0.2226	1.45488	0.00127
313.15	0.4512	0.1111	1.45943	0.00127
313.15	0.1107	0.5454	1.45244	0.00127
313.15	0.3311	0.3262	1.46133	0.00127
313.15	0.5501	0.1084	1.47101	0.00127
313.15	0.1082	0.6397	1.4593	0.00127
313.15	0.2161	0.5322	1.46383	0.00127
313.15	0.3237	0.4251	1.46894	0.00127
313.15	0.4309	0.3183	1.47359	0.00127
313.15	0.5377	0.2119	1.47866	0.00127
313.15	0.6442	0.1058	1.4835	0.00127
313.15	0.1059	0.7298	1.46643	0.00127
313.15	0.3166	0.5197	1.47622	0.00127
313.15	0.5259	0.3108	1.48652	0.00127
313.15	0.734	0.1033	1.49661	0.00127
313.15	0.1036	0.8161	1.4737	0.00127
313.15	0.2068	0.7129	1.47894	0.00127
313.15	0.3097	0.6101	1.48399	0.00127
313.15	0.4123	0.5077	1.48903	0.00127
313.15	0.5146	0.4055	1.49384	0.00127
313.15	0.6166	0.3037	1.50003	0.00127
313.15	0.7182	0.2021	1.50495	0.00127
313.15	0.8196	0.1009	1.51082	0.00127
313.15	0.2318	0.2284	1.44393	0.00127
313.15	0.6301	0.2069	1.4907	0.00127
313.15	0.2114	0.6246	1.47121	0.00127
313.15	0.2211	0.4356	1.45715	0.00127
313.15	0.4408	0.2171	1.46674	0.00127
313.15	0.4214	0.4151	1.4814	0.00127
318.15	1	0	1.52912	0.00126
318.15	0	1	1.47409	0.00126
318.15	0	0	1.41093	0.00126
318.15	0	0.9014	1.46615	0.00126
318.15	0	0.8024	1.4591	0.00127
318.15	0	0.7032	1.45224	0.00127
318.15	0	0.6036	1.44556	0.00127
318.15	0	0.5038	1.43903	0.00127
318.15	0	0.4036	1.43297	0.00127
318.15	0	0.3032	1.42669	0.00127
318.15	0	0.2024	1.42154	0.00126
318.15	0	0.1014	1.41596	0.00126
318.15	0.1014	0	1.42009	0.00126
318.15	0.2024	0	1.42944	0.00127
318.15	0.3032	0	1.43982	0.00127
318.15	0.4036	0	1.44985	0.00127
318.15	0.5038	0	1.46181	0.00127
318.15	0.6036	0	1.47389	0.00127
318.15	0.7032	0	1.48632	0.00127
318.15	0.8024	0	1.49906	0.00127
318.15	0.9014	0	1.51403	0.00127
318.15	0.1014	0.8986	1.47917	0.00127
318.15	0.2024	0.7976	1.48455	0.00127
318.15	0.3032	0.6968	1.48962	0.00127
318.15	0.4036	0.5964	1.49407	0.00127
318.15	0.5038	0.4962	1.4995	0.00127
318.15	0.6036	0.3964	1.50614	0.00127
318.15	0.7032	0.2968	1.51175	0.00127
318.15	0.8024	0.1976	1.51758	0.00127
318.15	0.9014	0.0986	1.52287	0.00127
318.15	0.122	0.1202	1.42572	0.00126
318.15	0.119	0.2344	1.43135	0.00127
318.15	0.2376	0.117	1.43565	0.00127
318.15	0.1161	0.3431	1.43758	0.00127
318.15	0.3472	0.114	1.44607	0.00127
318.15	0.1134	0.4467	1.44389	0.00127
318.15	0.2264	0.3344	1.44812	0.00127
318.15	0.339	0.2226	1.45261	0.00127
318.15	0.4512	0.1111	1.45712	0.00127
318.15	0.1107	0.5454	1.44991	0.00127
318.15	0.3311	0.3262	1.45941	0.00127
318.15	0.5501	0.1084	1.46784	0.00127
318.15	0.1082	0.6397	1.4571	0.00127
318.15	0.2161	0.5322	1.46152	0.00127
318.15	0.3237	0.4251	1.46644	0.00127
318.15	0.4309	0.3183	1.47152	0.00127
318.15	0.5377	0.2119	1.47634	0.00127
318.15	0.6442	0.1058	1.48118	0.00127
318.15	0.1059	0.7298	1.464	0.00127
318.15	0.3166	0.5197	1.47392	0.00127
318.15	0.5259	0.3108	1.48365	0.00127
318.15	0.734	0.1033	1.49433	0.00127
318.15	0.1036	0.8161	1.47103	0.00127
318.15	0.2068	0.7129	1.47619	0.00127
318.15	0.3097	0.6101	1.48144	0.00127
318.15	0.4123	0.5077	1.48568	0.00127
318.15	0.5146	0.4055	1.49216	0.00127
318.15	0.6166	0.3037	1.49741	0.00127
318.15	0.7182	0.2021	1.50303	0.00127
318.15	0.8196	0.1009	1.50844	0.00127
318.15	0.2318	0.2284	1.44179	0.00127
318.15	0.6301	0.2069	1.48832	0.00127
318.15	0.2114	0.6246	1.46872	0.00127
318.15	0.2211	0.4356	1.45448	0.00127
318.15	0.4408	0.2171	1.46397	0.00127
318.15	0.4214	0.4151	1.47925	0.00127

System: dodecane + 1,2,3,4-tetrahydronaphthalene + (2-methylpropyl)benzene; phases: Liquid
Fixed: Pressure, kPa = 101
Fixed: Wavelength, nm = 513.9
Property: Refractive index (other wavelength) (Liquid); method: Anton Paar WR Refractometer
Temperature, K	Mole fraction of 1,2,3,4-tetrahydronaphthalene	Mole fraction of (2-methylpropyl)benzene	Refractive index (other wavelength)	uncertainty
293.15	0	0	1.42506	0.00126
293.15	0	1	1.4927	0.00126
293.15	1	0	1.54872	0.00126
293.15	0	0.9014	1.48487	0.00126
293.15	0	0.8024	1.47693	0.00127
293.15	0	0.7032	1.46959	0.00127
293.15	0	0.6036	1.46247	0.00127
293.15	0	0.5038	1.45559	0.00127
293.15	0	0.4036	1.44889	0.00127
293.15	0	0.3032	1.44273	0.00127
293.15	0	0.2024	1.4365	0.00126
293.15	0	0.1014	1.4307	0.00126
293.15	0.1014	0	1.43473	0.00126
293.15	0.2024	0	1.44489	0.00127
293.15	0.3032	0	1.45538	0.00127
293.15	0.4036	0	1.46671	0.00127
293.15	0.5038	0	1.47843	0.00127
293.15	0.6036	0	1.49106	0.00127
293.15	0.7032	0	1.50417	0.00127
293.15	0.8024	0	1.51804	0.00127
293.15	0.9014	0	1.53275	0.00127
293.15	0.1014	0.8986	1.49809	0.00127
293.15	0.2024	0.7976	1.50316	0.00127
293.15	0.3032	0.6968	1.5087	0.00127
293.15	0.4036	0.5964	1.51409	0.00127
293.15	0.5038	0.4962	1.51959	0.00127
293.15	0.6036	0.3964	1.52525	0.00127
293.15	0.7032	0.2968	1.53097	0.00127
293.15	0.8024	0.1976	1.5369	0.00127
293.15	0.9014	0.0986	1.54273	0.00127
293.15	0.122	0.1202	1.44078	0.00126
293.15	0.119	0.2344	1.44691	0.00127
293.15	0.2376	0.117	1.45131	0.00127
293.15	0.1161	0.3431	1.4535	0.00127
293.15	0.3472	0.114	1.46224	0.00127
293.15	0.1134	0.4467	1.46015	0.00127
293.15	0.2264	0.3344	1.46451	0.00127
293.15	0.339	0.2226	1.46906	0.00127
293.15	0.4512	0.1111	1.47378	0.00127
293.15	0.1107	0.5454	1.46733	0.00127
293.15	0.3311	0.3262	1.47625	0.00127
293.15	0.5501	0.1084	1.48596	0.00127
293.15	0.1082	0.6397	1.47442	0.00127
293.15	0.2161	0.5322	1.47915	0.00127
293.15	0.3237	0.4251	1.48392	0.00127
293.15	0.4309	0.3183	1.48887	0.00127
293.15	0.5377	0.2119	1.49386	0.00127
293.15	0.6442	0.1058	1.49871	0.00127
293.15	0.1059	0.7298	1.48185	0.00127
293.15	0.3166	0.5197	1.49206	0.00127
293.15	0.5259	0.3108	1.50208	0.00127
293.15	0.734	0.1033	1.51233	0.00127
293.15	0.1036	0.8161	1.48972	0.00127
293.15	0.2068	0.7129	1.49499	0.00127
293.15	0.3097	0.6101	1.50007	0.00127
293.15	0.4123	0.5077	1.50544	0.00127
293.15	0.5146	0.4055	1.51052	0.00127
293.15	0.6166	0.3037	1.5161	0.00127
293.15	0.7182	0.2021	1.52115	0.00127
293.15	0.8196	0.1009	1.52713	0.00127
293.15	0.2318	0.2284	1.45767	0.00127
293.15	0.6301	0.2069	1.50675	0.00127
293.15	0.2114	0.6246	1.48669	0.00127
293.15	0.2211	0.4356	1.47164	0.00127
293.15	0.4408	0.2171	1.48102	0.00127
293.15	0.4214	0.4151	1.49696	0.00127
298.15	0	0	1.42291	0.00126
298.15	0	1	1.49023	0.00126
298.15	1	0	1.54625	0.00126
298.15	0	0.9014	1.48229	0.00126
298.15	0	0.8024	1.4745	0.00127
298.15	0	0.7032	1.46722	0.00127
298.15	0	0.6036	1.46005	0.00127
298.15	0	0.5038	1.45312	0.00127
298.15	0	0.4036	1.44665	0.00127
298.15	0	0.3032	1.44037	0.00127
298.15	0	0.2024	1.43436	0.00126
298.15	0	0.1014	1.42851	0.00126
298.15	0.1014	0	1.43249	0.00126
298.15	0.2024	0	1.44267	0.00127
298.15	0.3032	0	1.4533	0.00127
298.15	0.4036	0	1.46438	0.00127
298.15	0.5038	0	1.47628	0.00127
298.15	0.6036	0	1.48852	0.00127
298.15	0.7032	0	1.50164	0.00127
298.15	0.8024	0	1.51563	0.00127
298.15	0.9014	0	1.53046	0.00127
298.15	0.1014	0.8986	1.49546	0.00127
298.15	0.2024	0.7976	1.50086	0.00127
298.15	0.3032	0.6968	1.50623	0.00127
298.15	0.4036	0.5964	1.51165	0.00127
298.15	0.5038	0.4962	1.51711	0.00127
298.15	0.6036	0.3964	1.52288	0.00127
298.15	0.7032	0.2968	1.5286	0.00127
298.15	0.8024	0.1976	1.53447	0.00127
298.15	0.9014	0.0986	1.54022	0.00127
298.15	0.122	0.1202	1.4385	0.00126
298.15	0.119	0.2344	1.44464	0.00127
298.15	0.2376	0.117	1.44895	0.00127
298.15	0.1161	0.3431	1.45125	0.00127
298.15	0.3472	0.114	1.45991	0.00127
298.15	0.1134	0.4467	1.45781	0.00127
298.15	0.2264	0.3344	1.46233	0.00127
298.15	0.339	0.2226	1.46673	0.00127
298.15	0.4512	0.1111	1.47149	0.00127
298.15	0.1107	0.5454	1.46489	0.00127
298.15	0.3311	0.3262	1.47408	0.00127
298.15	0.5501	0.1084	1.48307	0.00127
298.15	0.1082	0.6397	1.47195	0.00127
298.15	0.2161	0.5322	1.47671	0.00127
298.15	0.3237	0.4251	1.48158	0.00127
298.15	0.4309	0.3183	1.48655	0.00127
298.15	0.5377	0.2119	1.49153	0.00127
298.15	0.6442	0.1058	1.49638	0.00127
298.15	0.1059	0.7298	1.47945	0.00127
298.15	0.3166	0.5197	1.48939	0.00127
298.15	0.5259	0.3108	1.49971	0.00127
298.15	0.734	0.1033	1.51008	0.00127
298.15	0.1036	0.8161	1.48722	0.00127
298.15	0.2068	0.7129	1.49248	0.00127
298.15	0.3097	0.6101	1.49759	0.00127
298.15	0.4123	0.5077	1.50217	0.00127
298.15	0.5146	0.4055	1.50821	0.00127
298.15	0.6166	0.3037	1.51382	0.00127
298.15	0.7182	0.2021	1.51919	0.00127
298.15	0.8196	0.1009	1.52479	0.00127
298.15	0.2318	0.2284	1.45533	0.00127
298.15	0.6301	0.2069	1.50424	0.00127
298.15	0.2114	0.6246	1.48421	0.00127
298.15	0.2211	0.4356	1.46917	0.00127
298.15	0.4408	0.2171	1.47823	0.00127
298.15	0.4214	0.4151	1.49446	0.00127
303.15	0	0	1.42074	0.00126
303.15	0	1	1.48772	0.00126
303.15	1	0	1.54373	0.00126
303.15	0	0.9014	1.47981	0.00126
303.15	0	0.8024	1.47203	0.00127
303.15	0	0.7032	1.46477	0.00127
303.15	0	0.6036	1.45769	0.00127
303.15	0	0.5038	1.45093	0.00127
303.15	0	0.4036	1.44421	0.00127
303.15	0	0.3032	1.43818	0.00127
303.15	0	0.2024	1.43187	0.00126
303.15	0	0.1014	1.42624	0.00126
303.15	0.1014	0	1.43024	0.00126
303.15	0.2024	0	1.44033	0.00127
303.15	0.3032	0	1.45051	0.00127
303.15	0.4036	0	1.46216	0.00127
303.15	0.5038	0	1.47359	0.00127
303.15	0.6036	0	1.48633	0.00127
303.15	0.7032	0	1.49917	0.00127
303.15	0.8024	0	1.51321	0.00127
303.15	0.9014	0	1.52758	0.00127
303.15	0.1014	0.8986	1.49333	0.00127
303.15	0.2024	0.7976	1.49815	0.00127
303.15	0.3032	0.6968	1.50376	0.00127
303.15	0.4036	0.5964	1.50883	0.00127
303.15	0.5038	0.4962	1.5146	0.00127
303.15	0.6036	0.3964	1.51994	0.00127
303.15	0.7032	0.2968	1.52606	0.00127
303.15	0.8024	0.1976	1.532	0.00127
303.15	0.9014	0.0986	1.53785	0.00127
303.15	0.122	0.1202	1.43627	0.00126
303.15	0.119	0.2344	1.44235	0.00127
303.15	0.2376	0.117	1.4468	0.00127
303.15	0.1161	0.3431	1.44884	0.00127
303.15	0.3472	0.114	1.45758	0.00127
303.15	0.1134	0.4467	1.45538	0.00127
303.15	0.2264	0.3344	1.45979	0.00127
303.15	0.339	0.2226	1.46444	0.00127
303.15	0.4512	0.1111	1.46903	0.00127
303.15	0.1107	0.5454	1.46233	0.00127
303.15	0.3311	0.3262	1.47139	0.00127
303.15	0.5501	0.1084	1.48108	0.00127
303.15	0.1082	0.6397	1.46949	0.00127
303.15	0.2161	0.5322	1.47439	0.00127
303.15	0.3237	0.4251	1.47918	0.00127
303.15	0.4309	0.3183	1.48394	0.00127
303.15	0.5377	0.2119	1.48904	0.00127
303.15	0.6442	0.1058	1.49395	0.00127
303.15	0.1059	0.7298	1.47697	0.00127
303.15	0.3166	0.5197	1.48689	0.00127
303.15	0.5259	0.3108	1.49731	0.00127
303.15	0.734	0.1033	1.50762	0.00127
303.15	0.1036	0.8161	1.48464	0.00127
303.15	0.2068	0.7129	1.49001	0.00127
303.15	0.3097	0.6101	1.4951	0.00127
303.15	0.4123	0.5077	1.50024	0.00127
303.15	0.5146	0.4055	1.50523	0.00127
303.15	0.6166	0.3037	1.51129	0.00127
303.15	0.7182	0.2021	1.51632	0.00127
303.15	0.8196	0.1009	1.52229	0.00127
303.15	0.2318	0.2284	1.45304	0.00127
303.15	0.6301	0.2069	1.50178	0.00127
303.15	0.2114	0.6246	1.4818	0.00127
303.15	0.2211	0.4356	1.46717	0.00127
303.15	0.4408	0.2171	1.47638	0.00127
303.15	0.4214	0.4151	1.49223	0.00127
308.15	0	0	1.41857	0.00126
308.15	0	1	1.48521	0.00126
308.15	1	0	1.5413	0.00126
308.15	0	0.9014	1.47712	0.00126
308.15	0	0.8024	1.46958	0.00127
308.15	0	0.7032	1.46239	0.00127
308.15	0	0.6036	1.45531	0.00127
308.15	0	0.5038	1.44841	0.00127
308.15	0	0.4036	1.44199	0.00127
308.15	0	0.3032	1.43562	0.00127
308.15	0	0.2024	1.42984	0.00126
308.15	0	0.1014	1.42401	0.00126
308.15	0.1014	0	1.42811	0.00126
308.15	0.2024	0	1.43794	0.00127
308.15	0.3032	0	1.44864	0.00127
308.15	0.4036	0	1.45923	0.00127
308.15	0.5038	0	1.4715	0.00127
308.15	0.6036	0	1.48392	0.00127
308.15	0.7032	0	1.49701	0.00127
308.15	0.8024	0	1.51005	0.00127
308.15	0.9014	0	1.52559	0.00127
308.15	0.1014	0.8986	1.49045	0.00127
308.15	0.2024	0.7976	1.49591	0.00127
308.15	0.3032	0.6968	1.50103	0.00127
308.15	0.4036	0.5964	1.50671	0.00127
308.15	0.5038	0.4962	1.51108	0.00127
308.15	0.6036	0.3964	1.51792	0.00127
308.15	0.7032	0.2968	1.52366	0.00127
308.15	0.8024	0.1976	1.52953	0.00127
308.15	0.9014	0.0986	1.53505	0.00127
308.15	0.122	0.1202	1.43406	0.00126
308.15	0.119	0.2344	1.44006	0.00127
308.15	0.2376	0.117	1.44444	0.00127
308.15	0.1161	0.3431	1.44663	0.00127
308.15	0.3472	0.114	1.45527	0.00127
308.15	0.1134	0.4467	1.45257	0.00127
308.15	0.2264	0.3344	1.45763	0.00127
308.15	0.339	0.2226	1.46216	0.00127
308.15	0.4512	0.1111	1.46666	0.00127
308.15	0.1107	0.5454	1.45992	0.00127
308.15	0.3311	0.3262	1.46933	0.00127
308.15	0.5501	0.1084	1.47817	0.00127
308.15	0.1082	0.6397	1.4669	0.00127
308.15	0.2161	0.5322	1.47174	0.00127
308.15	0.3237	0.4251	1.4767	0.00127
308.15	0.4309	0.3183	1.48181	0.00127
308.15	0.5377	0.2119	1.48671	0.00127
308.15	0.6442	0.1058	1.49161	0.00127
308.15	0.1059	0.7298	1.47459	0.00127
308.15	0.3166	0.5197	1.48452	0.00127
308.15	0.5259	0.3108	1.49479	0.00127
308.15	0.734	0.1033	1.50512	0.00127
308.15	0.1036	0.8161	1.48232	0.00127
308.15	0.2068	0.7129	1.48741	0.00127
308.15	0.3097	0.6101	1.4925	0.00127
308.15	0.4123	0.5077	1.49678	0.00127
308.15	0.5146	0.4055	1.50312	0.00127
308.15	0.6166	0.3037	1.50864	0.00127
308.15	0.7182	0.2021	1.51437	0.00127
308.15	0.8196	0.1009	1.51992	0.00127
308.15	0.2318	0.2284	1.45073	0.00127
308.15	0.6301	0.2069	1.49933	0.00127
308.15	0.2114	0.6246	1.47997	0.00127
308.15	0.2211	0.4356	1.46428	0.00127
308.15	0.4408	0.2171	1.47384	0.00127
308.15	0.4214	0.4151	1.48972	0.00127
313.15	0	0	1.41638	0.00126
313.15	0	1	1.48268	0.00126
313.15	1	0	1.53886	0.00126
313.15	0	0.9014	1.47489	0.00126
313.15	0	0.8024	1.46712	0.00127
313.15	0	0.7032	1.4599	0.00127
313.15	0	0.6036	1.45293	0.00127
313.15	0	0.5038	1.44623	0.00127
313.15	0	0.4036	1.43955	0.00127
313.15	0	0.3032	1.43358	0.00127
313.15	0	0.2024	1.42725	0.00126
313.15	0	0.1014	1.42179	0.00126
313.15	0.1014	0	1.42576	0.00126
313.15	0.2024	0	1.43584	0.00127
313.15	0.3032	0	1.44582	0.00127
313.15	0.4036	0	1.45759	0.00127
313.15	0.5038	0	1.46902	0.00127
313.15	0.6036	0	1.48167	0.00127
313.15	0.7032	0	1.49457	0.00127
313.15	0.8024	0	1.50825	0.00127
313.15	0.9014	0	1.52307	0.00127
313.15	0.1014	0.8986	1.48816	0.00127
313.15	0.2024	0.7976	1.49321	0.00127
313.15	0.3032	0.6968	1.49885	0.00127
313.15	0.4036	0.5964	1.50366	0.00127
313.15	0.5038	0.4962	1.50976	0.00127
313.15	0.6036	0.3964	1.51485	0.00127
313.15	0.7032	0.2968	1.52123	0.00127
313.15	0.8024	0.1976	1.52715	0.00127
313.15	0.9014	0.0986	1.53301	0.00127
313.15	0.122	0.1202	1.43177	0.00126
313.15	0.119	0.2344	1.43781	0.00127
313.15	0.2376	0.117	1.44226	0.00127
313.15	0.1161	0.3431	1.44422	0.00127
313.15	0.3472	0.114	1.45299	0.00127
313.15	0.1134	0.4467	1.45047	0.00127
313.15	0.2264	0.3344	1.4551	0.00127
313.15	0.339	0.2226	1.45975	0.00127
313.15	0.4512	0.1111	1.46437	0.00127
313.15	0.1107	0.5454	1.45746	0.00127
313.15	0.3311	0.3262	1.46649	0.00127
313.15	0.5501	0.1084	1.47633	0.00127
313.15	0.1082	0.6397	1.46464	0.00127
313.15	0.2161	0.5322	1.46934	0.00127
313.15	0.3237	0.4251	1.47445	0.00127
313.15	0.4309	0.3183	1.47915	0.00127
313.15	0.5377	0.2119	1.48433	0.00127
313.15	0.6442	0.1058	1.48918	0.00127
313.15	0.1059	0.7298	1.47216	0.00127
313.15	0.3166	0.5197	1.48204	0.00127
313.15	0.5259	0.3108	1.49268	0.00127
313.15	0.734	0.1033	1.50275	0.00127
313.15	0.1036	0.8161	1.47985	0.00127
313.15	0.2068	0.7129	1.48512	0.00127
313.15	0.3097	0.6101	1.49016	0.00127
313.15	0.4123	0.5077	1.49518	0.00127
313.15	0.5146	0.4055	1.49998	0.00127
313.15	0.6166	0.3037	1.50626	0.00127
313.15	0.7182	0.2021	1.51153	0.00127
313.15	0.8196	0.1009	1.51752	0.00127
313.15	0.2318	0.2284	1.44841	0.00127
313.15	0.6301	0.2069	1.49686	0.00127
313.15	0.2114	0.6246	1.47693	0.00127
313.15	0.2211	0.4356	1.46153	0.00127
313.15	0.4408	0.2171	1.47152	0.00127
313.15	0.4214	0.4151	1.48733	0.00127
318.15	0	0	1.41418	0.00126
318.15	0	1	1.48023	0.00126
318.15	1	0	1.53647	0.00126
318.15	0	0.9014	1.47199	0.00126
318.15	0	0.8024	1.46465	0.00127
318.15	0	0.7032	1.45744	0.00127
318.15	0	0.6036	1.45049	0.00127
318.15	0	0.5038	1.44362	0.00127
318.15	0	0.4036	1.43729	0.00127
318.15	0	0.3032	1.43072	0.00127
318.15	0	0.2024	1.42529	0.00126
318.15	0	0.1014	1.41953	0.00126
318.15	0.1014	0	1.42366	0.00126
318.15	0.2024	0	1.43333	0.00127
318.15	0.3032	0	1.44405	0.00127
318.15	0.4036	0	1.45447	0.00127
318.15	0.5038	0	1.46708	0.00127
318.15	0.6036	0	1.47929	0.00127
318.15	0.7032	0	1.49215	0.00127
318.15	0.8024	0	1.5052	0.00127
318.15	0.9014	0	1.52083	0.00127
318.15	0.1014	0.8986	1.48535	0.00127
318.15	0.2024	0.7976	1.49096	0.00127
318.15	0.3032	0.6968	1.49611	0.00127
318.15	0.4036	0.5964	1.50178	0.00127
318.15	0.5038	0.4962	1.50621	0.00127
318.15	0.6036	0.3964	1.51299	0.00127
318.15	0.7032	0.2968	1.51871	0.00127
318.15	0.8024	0.1976	1.52466	0.00127
318.15	0.9014	0.0986	1.53007	0.00127
318.15	0.122	0.1202	1.42956	0.00126
318.15	0.119	0.2344	1.43544	0.00127
318.15	0.2376	0.117	1.43981	0.00127
318.15	0.1161	0.3431	1.44197	0.00127
318.15	0.3472	0.114	1.4506	0.00127
318.15	0.1134	0.4467	1.44826	0.00127
318.15	0.2264	0.3344	1.45289	0.00127
318.15	0.339	0.2226	1.45744	0.00127
318.15	0.4512	0.1111	1.46203	0.00127
318.15	0.1107	0.5454	1.45493	0.00127
318.15	0.3311	0.3262	1.46455	0.00127
318.15	0.5501	0.1084	1.47356	0.00127
318.15	0.1082	0.6397	1.46229	0.00127
318.15	0.2161	0.5322	1.46691	0.00127
318.15	0.3237	0.4251	1.4719	0.00127
318.15	0.4309	0.3183	1.47708	0.00127
318.15	0.5377	0.2119	1.48198	0.00127
318.15	0.6442	0.1058	1.48691	0.00127
318.15	0.1059	0.7298	1.46963	0.00127
318.15	0.3166	0.5197	1.47972	0.00127
318.15	0.5259	0.3108	1.48982	0.00127
318.15	0.734	0.1033	1.50048	0.00127
318.15	0.1036	0.8161	1.47755	0.00127
318.15	0.2068	0.7129	1.48238	0.00127
318.15	0.3097	0.6101	1.48762	0.00127
318.15	0.4123	0.5077	1.49173	0.00127
318.15	0.5146	0.4055	1.49811	0.00127
318.15	0.6166	0.3037	1.50386	0.00127
318.15	0.7182	0.2021	1.5096	0.00127
318.15	0.8196	0.1009	1.51512	0.00127
318.15	0.2318	0.2284	1.44588	0.00127
318.15	0.6301	0.2069	1.49448	0.00127
318.15	0.2114	0.6246	1.47444	0.00127
318.15	0.2211	0.4356	1.45949	0.00127
318.15	0.4408	0.2171	1.46876	0.00127
318.15	0.4214	0.4151	1.48494	0.00127

System: dodecane + 1,2,3,4-tetrahydronaphthalene + (2-methylpropyl)benzene; phases: Liquid
Fixed: Pressure, kPa = 101
Fixed: Wavelength, nm = 436.1
Property: Refractive index (other wavelength) (Liquid); method: Anton Paar WR Refractometer
Temperature, K	Mole fraction of 1,2,3,4-tetrahydronaphthalene	Mole fraction of (2-methylpropyl)benzene	Refractive index (other wavelength)	uncertainty
293.15	0	0	1.43105	0.00126
293.15	0	1	1.50429	0.00126
293.15	1	0	1.56232	0.00126
293.15	0	0.9014	1.49556	0.00126
293.15	0	0.8024	1.48711	0.00127
293.15	0	0.7032	1.47917	0.00127
293.15	0	0.6036	1.47144	0.00127
293.15	0	0.5038	1.46405	0.00127
293.15	0	0.4036	1.45682	0.00127
293.15	0	0.3032	1.45015	0.00127
293.15	0	0.2024	1.44344	0.00126
293.15	0	0.1014	1.43714	0.00126
293.15	0.1014	0	1.44127	0.00126
293.15	0.2024	0	1.45203	0.00127
293.15	0.3032	0	1.46314	0.00127
293.15	0.4036	0	1.47515	0.00127
293.15	0.5038	0	1.48758	0.00127
293.15	0.6036	0	1.50104	0.00127
293.15	0.7032	0	1.51481	0.00127
293.15	0.8024	0	1.52971	0.00127
293.15	0.9014	0	1.54536	0.00127
293.15	0.1014	0.8986	1.50977	0.00127
293.15	0.2024	0.7976	1.51503	0.00127
293.15	0.3032	0.6968	1.52078	0.00127
293.15	0.4036	0.5964	1.52637	0.00127
293.15	0.5038	0.4962	1.53208	0.00127
293.15	0.6036	0.3964	1.53797	0.00127
293.15	0.7032	0.2968	1.54392	0.00127
293.15	0.8024	0.1976	1.55007	0.00127
293.15	0.9014	0.0986	1.55611	0.00127
293.15	0.122	0.1202	1.44781	0.00126
293.15	0.119	0.2344	1.45445	0.00127
293.15	0.2376	0.117	1.45897	0.00127
293.15	0.1161	0.3431	1.46156	0.00127
293.15	0.3472	0.114	1.47057	0.00127
293.15	0.1134	0.4467	1.46874	0.00127
293.15	0.2264	0.3344	1.47324	0.00127
293.15	0.339	0.2226	1.47803	0.00127
293.15	0.4512	0.1111	1.48281	0.00127
293.15	0.1107	0.5454	1.47634	0.00127
293.15	0.3311	0.3262	1.48573	0.00127
293.15	0.5501	0.1084	1.49576	0.00127
293.15	0.1082	0.6397	1.48415	0.00127
293.15	0.2161	0.5322	1.48896	0.00127
293.15	0.3237	0.4251	1.49403	0.00127
293.15	0.4309	0.3183	1.49914	0.00127
293.15	0.5377	0.2119	1.50431	0.00127
293.15	0.6442	0.1058	1.50925	0.00127
293.15	0.1059	0.7298	1.49222	0.00127
293.15	0.3166	0.5197	1.5026	0.00127
293.15	0.5259	0.3108	1.5132	0.00127
293.15	0.734	0.1033	1.52404	0.00127
293.15	0.1036	0.8161	1.50067	0.00127
293.15	0.2068	0.7129	1.50625	0.00127
293.15	0.3097	0.6101	1.51146	0.00127
293.15	0.4123	0.5077	1.51693	0.00127
293.15	0.5146	0.4055	1.52229	0.00127
293.15	0.6166	0.3037	1.52809	0.00127
293.15	0.7182	0.2021	1.53332	0.00127
293.15	0.8196	0.1009	1.53953	0.00127
293.15	0.2318	0.2284	1.46587	0.00127
293.15	0.6301	0.2069	1.51816	0.00127
293.15	0.2114	0.6246	1.49726	0.00127
293.15	0.2211	0.4356	1.48096	0.00127
293.15	0.4408	0.2171	1.49067	0.00127
293.15	0.4214	0.4151	1.5078	0.00127
298.15	0	0	1.42886	0.00126
298.15	0	1	1.50172	0.00126
298.15	1	0	1.5598	0.00126
298.15	0	0.9014	1.49284	0.00126
298.15	0	0.8024	1.48462	0.00127
298.15	0	0.7032	1.47676	0.00127
298.15	0	0.6036	1.46903	0.00127
298.15	0	0.5038	1.46153	0.00127
298.15	0	0.4036	1.45454	0.00127
298.15	0	0.3032	1.44775	0.00127
298.15	0	0.2024	1.44124	0.00126
298.15	0	0.1014	1.43491	0.00126
298.15	0.1014	0	1.439	0.00126
298.15	0.2024	0	1.44978	0.00127
298.15	0.3032	0	1.46103	0.00127
298.15	0.4036	0	1.47277	0.00127
298.15	0.5038	0	1.48525	0.00127
298.15	0.6036	0	1.49842	0.00127
298.15	0.7032	0	1.51238	0.00127
298.15	0.8024	0	1.52724	0.00127
298.15	0.9014	0	1.54301	0.00127
298.15	0.1014	0.8986	1.50707	0.00127
298.15	0.2024	0.7976	1.51268	0.00127
298.15	0.3032	0.6968	1.51824	0.00127
298.15	0.4036	0.5964	1.52385	0.00127
298.15	0.5038	0.4962	1.52954	0.00127
298.15	0.6036	0.3964	1.53551	0.00127
298.15	0.7032	0.2968	1.54146	0.00127
298.15	0.8024	0.1976	1.54758	0.00127
298.15	0.9014	0.0986	1.55354	0.00127
298.15	0.122	0.1202	1.44549	0.00126
298.15	0.119	0.2344	1.45213	0.00127
298.15	0.2376	0.117	1.45656	0.00127
298.15	0.1161	0.3431	1.45926	0.00127
298.15	0.3472	0.114	1.46818	0.00127
298.15	0.1134	0.4467	1.46589	0.00127
298.15	0.2264	0.3344	1.47102	0.00127
298.15	0.339	0.2226	1.47569	0.00127
298.15	0.4512	0.1111	1.48046	0.00127
298.15	0.1107	0.5454	1.47386	0.00127
298.15	0.3311	0.3262	1.48349	0.00127
298.15	0.5501	0.1084	1.49278	0.00127
298.15	0.1082	0.6397	1.48166	0.00127
298.15	0.2161	0.5322	1.48657	0.00127
298.15	0.3237	0.4251	1.49161	0.00127
298.15	0.4309	0.3183	1.49676	0.00127
298.15	0.5377	0.2119	1.5019	0.00127
298.15	0.6442	0.1058	1.50692	0.00127
298.15	0.1059	0.7298	1.48983	0.00127
298.15	0.3166	0.5197	1.50006	0.00127
298.15	0.5259	0.3108	1.51074	0.00127
298.15	0.734	0.1033	1.52147	0.00127
298.15	0.1036	0.8161	1.49817	0.00127
298.15	0.2068	0.7129	1.50361	0.00127
298.15	0.3097	0.6101	1.5089	0.00127
298.15	0.4123	0.5077	1.51364	0.00127
298.15	0.5146	0.4055	1.51993	0.00127
298.15	0.6166	0.3037	1.52581	0.00127
298.15	0.7182	0.2021	1.53131	0.00127
298.15	0.8196	0.1009	1.53713	0.00127
298.15	0.2318	0.2284	1.46348	0.00127
298.15	0.6301	0.2069	1.51549	0.00127
298.15	0.2114	0.6246	1.49471	0.00127
298.15	0.2211	0.4356	1.47843	0.00127
298.15	0.4408	0.2171	1.48814	0.00127
298.15	0.4214	0.4151	1.50532	0.00127
303.15	0	0	1.42666	0.00126
303.15	0	1	1.49916	0.00126
303.15	1	0	1.55719	0.00126
303.15	0	0.9014	1.49051	0.00126
303.15	0	0.8024	1.48209	0.00127
303.15	0	0.7032	1.47424	0.00127
303.15	0	0.6036	1.4666	0.00127
303.15	0	0.5038	1.45929	0.00127
303.15	0	0.4036	1.45204	0.00127
303.15	0	0.3032	1.44552	0.00127
303.15	0	0.2024	1.43872	0.00126
303.15	0	0.1014	1.43262	0.00126
303.15	0.1014	0	1.43671	0.00126
303.15	0.2024	0	1.44738	0.00127
303.15	0.3032	0	1.45818	0.00127
303.15	0.4036	0	1.4705	0.00127
303.15	0.5038	0	1.48256	0.00127
303.15	0.6036	0	1.49619	0.00127
303.15	0.7032	0	1.50983	0.00127
303.15	0.8024	0	1.52474	0.00127
303.15	0.9014	0	1.54016	0.00127
303.15	0.1014	0.8986	1.50468	0.00127
303.15	0.2024	0.7976	1.50986	0.00127
303.15	0.3032	0.6968	1.51569	0.00127
303.15	0.4036	0.5964	1.52094	0.00127
303.15	0.5038	0.4962	1.52674	0.00127
303.15	0.6036	0.3964	1.53244	0.00127
303.15	0.7032	0.2968	1.53885	0.00127
303.15	0.8024	0.1976	1.54503	0.00127
303.15	0.9014	0.0986	1.55109	0.00127
303.15	0.122	0.1202	1.44323	0.00126
303.15	0.119	0.2344	1.44979	0.00127
303.15	0.2376	0.117	1.45437	0.00127
303.15	0.1161	0.3431	1.45681	0.00127
303.15	0.3472	0.114	1.4658	0.00127
303.15	0.1134	0.4467	1.46387	0.00127
303.15	0.2264	0.3344	1.4684	0.00127
303.15	0.339	0.2226	1.4732	0.00127
303.15	0.4512	0.1111	1.47794	0.00127
303.15	0.1107	0.5454	1.47138	0.00127
303.15	0.3311	0.3262	1.48074	0.00127
303.15	0.5501	0.1084	1.49072	0.00127
303.15	0.1082	0.6397	1.47911	0.00127
303.15	0.2161	0.5322	1.48418	0.00127
303.15	0.3237	0.4251	1.48914	0.00127
303.15	0.4309	0.3183	1.49411	0.00127
303.15	0.5377	0.2119	1.49936	0.00127
303.15	0.6442	0.1058	1.5043	0.00127
303.15	0.1059	0.7298	1.4872	0.00127
303.15	0.3166	0.5197	1.4975	0.00127
303.15	0.5259	0.3108	1.50827	0.00127
303.15	0.734	0.1033	1.51899	0.00127
303.15	0.1036	0.8161	1.49552	0.00127
303.15	0.2068	0.7129	1.50108	0.00127
303.15	0.3097	0.6101	1.50636	0.00127
303.15	0.4123	0.5077	1.51176	0.00127
303.15	0.5146	0.4055	1.51687	0.00127
303.15	0.6166	0.3037	1.52313	0.00127
303.15	0.7182	0.2021	1.52838	0.00127
303.15	0.8196	0.1009	1.53454	0.00127
303.15	0.2318	0.2284	1.46114	0.00127
303.15	0.6301	0.2069	1.51292	0.00127
303.15	0.2114	0.6246	1.49222	0.00127
303.15	0.2211	0.4356	1.47563	0.00127
303.15	0.4408	0.2171	1.48481	0.00127
303.15	0.4214	0.4151	1.5029	0.00127
308.15	0	0	1.42445	0.00126
308.15	0	1	1.49659	0.00126
308.15	1	0	1.55471	0.00126
308.15	0	0.9014	1.48775	0.00126
308.15	0	0.8024	1.47955	0.00127
308.15	0	0.7032	1.47181	0.00127
308.15	0	0.6036	1.46416	0.00127
308.15	0	0.5038	1.45671	0.00127
308.15	0	0.4036	1.44977	0.00127
308.15	0	0.3032	1.44293	0.00127
308.15	0	0.2024	1.43663	0.00126
308.15	0	0.1014	1.43035	0.00126
308.15	0.1014	0	1.43455	0.00126
308.15	0.2024	0	1.44495	0.00127
308.15	0.3032	0	1.45629	0.00127
308.15	0.4036	0	1.4675	0.00127
308.15	0.5038	0	1.4805	0.00127
308.15	0.6036	0	1.49371	0.00127
308.15	0.7032	0	1.50749	0.00127
308.15	0.8024	0	1.52168	0.00127
308.15	0.9014	0	1.538	0.00127
308.15	0.1014	0.8986	1.50191	0.00127
308.15	0.2024	0.7976	1.50759	0.00127
308.15	0.3032	0.6968	1.5129	0.00127
308.15	0.4036	0.5964	1.51879	0.00127
308.15	0.5038	0.4962	1.5236	0.00127
308.15	0.6036	0.3964	1.53042	0.00127
308.15	0.7032	0.2968	1.53639	0.00127
308.15	0.8024	0.1976	1.5425	0.00127
308.15	0.9014	0.0986	1.54823	0.00127
308.15	0.122	0.1202	1.44096	0.00126
308.15	0.119	0.2344	1.44746	0.00127
308.15	0.2376	0.117	1.4519	0.00127
308.15	0.1161	0.3431	1.45455	0.00127
308.15	0.3472	0.114	1.46343	0.00127
308.15	0.1134	0.4467	1.46134	0.00127
308.15	0.2264	0.3344	1.46622	0.00127
308.15	0.339	0.2226	1.47086	0.00127
308.15	0.4512	0.1111	1.47563	0.00127
308.15	0.1107	0.5454	1.46892	0.00127
308.15	0.3311	0.3262	1.47862	0.00127
308.15	0.5501	0.1084	1.48771	0.00127
308.15	0.1082	0.6397	1.47644	0.00127
308.15	0.2161	0.5322	1.48146	0.00127
308.15	0.3237	0.4251	1.4866	0.00127
308.15	0.4309	0.3183	1.49189	0.00127
308.15	0.5377	0.2119	1.49696	0.00127
308.15	0.6442	0.1058	1.50202	0.00127
308.15	0.1059	0.7298	1.48475	0.00127
308.15	0.3166	0.5197	1.49505	0.00127
308.15	0.5259	0.3108	1.50554	0.00127
308.15	0.734	0.1033	1.51651	0.00127
308.15	0.1036	0.8161	1.49291	0.00127
308.15	0.2068	0.7129	1.49834	0.00127
308.15	0.3097	0.6101	1.50372	0.00127
308.15	0.4123	0.5077	1.50819	0.00127
308.15	0.5146	0.4055	1.51476	0.00127
308.15	0.6166	0.3037	1.5204	0.00127
308.15	0.7182	0.2021	1.52635	0.00127
308.15	0.8196	0.1009	1.5321	0.00127
308.15	0.2318	0.2284	1.45878	0.00127
308.15	0.6301	0.2069	1.51035	0.00127
308.15	0.2114	0.6246	1.48925	0.00127
308.15	0.2211	0.4356	1.47341	0.00127
308.15	0.4408	0.2171	1.48195	0.00127
308.15	0.4214	0.4151	1.50046	0.00127
313.15	0	0	1.42223	0.00126
313.15	0	1	1.494	0.00126
313.15	1	0	1.55219	0.00126
313.15	0	0.9014	1.48542	0.00126
313.15	0	0.8024	1.47706	0.00127
313.15	0	0.7032	1.46924	0.00127
313.15	0	0.6036	1.46172	0.00127
313.15	0	0.5038	1.45448	0.00127
313.15	0	0.4036	1.4473	0.00127
313.15	0	0.3032	1.44083	0.00127
313.15	0	0.2024	1.43404	0.00126
313.15	0	0.1014	1.42808	0.00126
313.15	0.1014	0	1.43218	0.00126
313.15	0.2024	0	1.44283	0.00127
313.15	0.3032	0	1.45339	0.00127
313.15	0.4036	0	1.46524	0.00127
313.15	0.5038	0	1.47822	0.00127
313.15	0.6036	0	1.4914	0.00127
313.15	0.7032	0	1.50491	0.00127
313.15	0.8024	0	1.51985	0.00127
313.15	0.9014	0	1.5354	0.00127
313.15	0.1014	0.8986	1.49957	0.00127
313.15	0.2024	0.7976	1.5048	0.00127
313.15	0.3032	0.6968	1.51065	0.00127
313.15	0.4036	0.5964	1.51565	0.00127
313.15	0.5038	0.4962	1.52107	0.00127
313.15	0.6036	0.3964	1.52725	0.00127
313.15	0.7032	0.2968	1.53388	0.00127
313.15	0.8024	0.1976	1.54002	0.00127
313.15	0.9014	0.0986	1.54611	0.00127
313.15	0.122	0.1202	1.43866	0.00126
313.15	0.119	0.2344	1.44517	0.00127
313.15	0.2376	0.117	1.44974	0.00127
313.15	0.1161	0.3431	1.45209	0.00127
313.15	0.3472	0.114	1.4611	0.00127
313.15	0.1134	0.4467	1.45907	0.00127
313.15	0.2264	0.3344	1.46361	0.00127
313.15	0.339	0.2226	1.46841	0.00127
313.15	0.4512	0.1111	1.47316	0.00127
313.15	0.1107	0.5454	1.46647	0.00127
313.15	0.3311	0.3262	1.4757	0.00127
313.15	0.5501	0.1084	1.48587	0.00127
313.15	0.1082	0.6397	1.47414	0.00127
313.15	0.2161	0.5322	1.4793	0.00127
313.15	0.3237	0.4251	1.48428	0.00127
313.15	0.4309	0.3183	1.48915	0.00127
313.15	0.5377	0.2119	1.49452	0.00127
313.15	0.6442	0.1058	1.49942	0.00127
313.15	0.1059	0.7298	1.48227	0.00127
313.15	0.3166	0.5197	1.49249	0.00127
313.15	0.5259	0.3108	1.50336	0.00127
313.15	0.734	0.1033	1.514	0.00127
313.15	0.1036	0.8161	1.4904	0.00127
313.15	0.2068	0.7129	1.49594	0.00127
313.15	0.3097	0.6101	1.50125	0.00127
313.15	0.4123	0.5077	1.50657	0.00127
313.15	0.5146	0.4055	1.51165	0.00127
313.15	0.6166	0.3037	1.51824	0.00127
313.15	0.7182	0.2021	1.52342	0.00127
313.15	0.8196	0.1009	1.52964	0.00127
313.15	0.2318	0.2284	1.45642	0.00127
313.15	0.6301	0.2069	1.50787	0.00127
313.15	0.2114	0.6246	1.48719	0.00127
313.15	0.2211	0.4356	1.47083	0.00127
313.15	0.4408	0.2171	1.47894	0.00127
313.15	0.4214	0.4151	1.498	0.00127
318.15	0	0	1.42001	0.00126
318.15	0	1	1.49143	0.00126
318.15	1	0	1.54974	0.00126
318.15	0	0.9014	1.48247	0.00126
318.15	0	0.8024	1.47452	0.00127
318.15	0	0.7032	1.46673	0.00127
318.15	0	0.6036	1.45921	0.00127
318.15	0	0.5038	1.4518	0.00127
318.15	0	0.4036	1.44498	0.00127
318.15	0	0.3032	1.43791	0.00127
318.15	0	0.2024	1.43204	0.00126
318.15	0	0.1014	1.42579	0.00126
318.15	0.1014	0	1.43001	0.00126
318.15	0.2024	0	1.44026	0.00127
318.15	0.3032	0	1.45159	0.00127
318.15	0.4036	0	1.46269	0.00127
318.15	0.5038	0	1.47578	0.00127
318.15	0.6036	0	1.48895	0.00127
318.15	0.7032	0	1.50262	0.00127
318.15	0.8024	0	1.51654	0.00127
318.15	0.9014	0	1.5331	0.00127
318.15	0.1014	0.8986	1.49678	0.00127
318.15	0.2024	0.7976	1.50247	0.00127
318.15	0.3032	0.6968	1.50783	0.00127
318.15	0.4036	0.5964	1.51372	0.00127
318.15	0.5038	0.4962	1.51829	0.00127
318.15	0.6036	0.3964	1.52533	0.00127
318.15	0.7032	0.2968	1.53125	0.00127
318.15	0.8024	0.1976	1.53748	0.00127
318.15	0.9014	0.0986	1.5431	0.00127
318.15	0.122	0.1202	1.43638	0.00126
318.15	0.119	0.2344	1.44276	0.00127
318.15	0.2376	0.117	1.44723	0.00127
318.15	0.1161	0.3431	1.4498	0.00127
318.15	0.3472	0.114	1.45866	0.00127
318.15	0.1134	0.4467	1.45663	0.00127
318.15	0.2264	0.3344	1.46135	0.00127
318.15	0.339	0.2226	1.46605	0.00127
318.15	0.4512	0.1111	1.47077	0.00127
318.15	0.1107	0.5454	1.46392	0.00127
318.15	0.3311	0.3262	1.47371	0.00127
318.15	0.5501	0.1084	1.48281	0.00127
318.15	0.1082	0.6397	1.47155	0.00127
318.15	0.2161	0.5322	1.47652	0.00127
318.15	0.3237	0.4251	1.48169	0.00127
318.15	0.4309	0.3183	1.48702	0.00127
318.15	0.5377	0.2119	1.4921	0.00127
318.15	0.6442	0.1058	1.4972	0.00127
318.15	0.1059	0.7298	1.47966	0.00127
318.15	0.3166	0.5197	1.49012	0.00127
318.15	0.5259	0.3108	1.50059	0.00127
318.15	0.734	0.1033	1.51163	0.00127
318.15	0.1036	0.8161	1.4878	0.00127
318.15	0.2068	0.7129	1.49325	0.00127
318.15	0.3097	0.6101	1.49867	0.00127
318.15	0.4123	0.5077	1.50309	0.00127
318.15	0.5146	0.4055	1.50965	0.00127
318.15	0.6166	0.3037	1.51549	0.00127
318.15	0.7182	0.2021	1.52145	0.00127
318.15	0.8196	0.1009	1.52718	0.00127
318.15	0.2318	0.2284	1.45408	0.00127
318.15	0.6301	0.2069	1.50526	0.00127
318.15	0.2114	0.6246	1.48467	0.00127
318.15	0.2211	0.4356	1.46849	0.00127
318.15	0.4408	0.2171	1.47604	0.00127
318.15	0.4214	0.4151	1.49554	0.00127

System: 1,2,3,4-tetrahydronaphthalene + (2-methylpropyl)benzene; phases: Liquid
Fixed: Pressure, kPa = 101
Property: Refractive index (other wavelength) (Liquid); method: Standard Abbe refractometry
Temperature, K	Mole fraction of 1,2,3,4-tetrahydronaphthalene	Wavelength, nm	Refractive index (other wavelength)	uncertainty
293.15	0.1014	657.2	1.48749	0.00074
293.15	0.2024	657.2	1.49254	0.00076
293.15	0.3032	657.2	1.49852	0.00074
293.15	0.4036	657.2	1.50384	0.00078
293.15	0.5038	657.2	1.50967	0.00071
293.15	0.6036	657.2	1.51394	0.00076
293.15	0.7032	657.2	1.52005	0.00069
293.15	0.8024	657.2	1.52522	0.00076
293.15	0.9014	657.2	1.53141	0.00069
293.15	0.1014	633.2	1.4889	0.00076
293.15	0.2024	633.2	1.49381	0.00076
293.15	0.3032	633.2	1.49922	0.00077
293.15	0.4036	633.2	1.50445	0.00077
293.15	0.5038	633.2	1.50978	0.0008
293.15	0.6036	633.2	1.51528	0.00074
293.15	0.7032	633.2	1.52085	0.00077
293.15	0.8024	633.2	1.5266	0.00075
293.15	0.9014	633.2	1.53226	0.0008
293.15	0.1014	589.3	1.49141	0.00079
293.15	0.2024	589.3	1.49657	0.00077
293.15	0.3032	589.3	1.50199	0.00078
293.15	0.4036	589.3	1.50701	0.00084
293.15	0.5038	589.3	1.51266	0.00079
293.15	0.6036	589.3	1.51821	0.00078
293.15	0.7032	589.3	1.52382	0.00078
293.15	0.8024	589.3	1.52961	0.00078
293.15	0.9014	589.3	1.53531	0.00082
293.15	0.1014	513.9	1.49809	0.00102
293.15	0.2024	513.9	1.50316	0.00091
293.15	0.3032	513.9	1.5087	0.0009
293.15	0.4036	513.9	1.51409	0.00089
293.15	0.5038	513.9	1.51959	0.00092
293.15	0.6036	513.9	1.52525	0.0009
293.15	0.7032	513.9	1.53097	0.00091
293.15	0.8024	513.9	1.5369	0.00091
293.15	0.9014	513.9	1.54273	0.00105
293.15	0.1014	436.1	1.50977	0.00078
293.15	0.2024	436.1	1.51503	0.0008
293.15	0.3032	436.1	1.52078	0.00076
293.15	0.4036	436.1	1.52612	0.0008
293.15	0.5038	436.1	1.53208	0.00078
293.15	0.6036	436.1	1.53797	0.00077
293.15	0.7032	436.1	1.54392	0.00078
293.15	0.8024	436.1	1.55007	0.00077
293.15	0.9014	436.1	1.55611	0.00078
298.15	0.1014	657.2	1.48512	0.00074
298.15	0.2024	657.2	1.49029	0.00073
298.15	0.3032	657.2	1.49594	0.00077
298.15	0.4036	657.2	1.50135	0.00076
298.15	0.5038	657.2	1.50706	0.00076
298.15	0.6036	657.2	1.51205	0.0007
298.15	0.7032	657.2	1.51776	0.00074
298.15	0.8024	657.2	1.52302	0.00074
298.15	0.9014	657.2	1.52941	0.00074
298.15	0.1014	633.2	1.48633	0.00075
298.15	0.2024	633.2	1.49149	0.00075
298.15	0.3032	633.2	1.49681	0.00075
298.15	0.4036	633.2	1.50206	0.00077
298.15	0.5038	633.2	1.50737	0.00075
298.15	0.6036	633.2	1.51298	0.00075
298.15	0.7032	633.2	1.51853	0.00075
298.15	0.8024	633.2	1.52424	0.00074
298.15	0.9014	633.2	1.52981	0.00074
298.15	0.1014	589.3	1.48927	0.00074
298.15	0.2024	589.3	1.49432	0.00076
298.15	0.3032	589.3	1.49956	0.00075
298.15	0.4036	589.3	1.50446	0.00075
298.15	0.5038	589.3	1.51023	0.00075
298.15	0.6036	589.3	1.51588	0.00074
298.15	0.7032	589.3	1.52148	0.00075
298.15	0.8024	589.3	1.52722	0.00075
298.15	0.9014	589.3	1.53287	0.00075
298.15	0.1014	513.9	1.49546	0.00076
298.15	0.2024	513.9	1.50075	0.00076
298.15	0.3032	513.9	1.50623	0.00076
298.15	0.4036	513.9	1.51165	0.00077
298.15	0.5038	513.9	1.51711	0.00077
298.15	0.6036	513.9	1.52288	0.00076
298.15	0.7032	513.9	1.5286	0.00076
298.15	0.8024	513.9	1.53447	0.00076
298.15	0.9014	513.9	1.54022	0.00076
298.15	0.1014	436.1	1.50717	0.00078
298.15	0.2024	436.1	1.51248	0.00078
298.15	0.3032	436.1	1.51824	0.00078
298.15	0.4036	436.1	1.52362	0.00078
298.15	0.5038	436.1	1.52954	0.00079
298.15	0.6036	436.1	1.53551	0.00077
298.15	0.7032	436.1	1.54144	0.00078
298.15	0.8024	436.1	1.54758	0.00078
298.15	0.9014	436.1	1.55354	0.00078
303.15	0.1014	657.2	1.48275	0.00074
303.15	0.2024	657.2	1.48792	0.00075
303.15	0.3032	657.2	1.49332	0.00076
303.15	0.4036	657.2	1.49885	0.00073
303.15	0.5038	657.2	1.50461	0.00074
303.15	0.6036	657.2	1.50983	0.00073
303.15	0.7032	657.2	1.51528	0.00076
303.15	0.8024	657.2	1.52043	0.00074
303.15	0.9014	657.2	1.52666	0.00075
303.15	0.1014	633.2	1.48406	0.00075
303.15	0.2024	633.2	1.48893	0.00075
303.15	0.3032	633.2	1.49439	0.00076
303.15	0.4036	633.2	1.49932	0.00076
303.15	0.5038	633.2	1.50493	0.00077
303.15	0.6036	633.2	1.51036	0.00075
303.15	0.7032	633.2	1.51604	0.00075
303.15	0.8024	633.2	1.52181	0.00075
303.15	0.9014	633.2	1.52748	0.00076
303.15	0.1014	589.3	1.48673	0.00076
303.15	0.2024	589.3	1.49163	0.00075
303.15	0.3032	589.3	1.49715	0.00076
303.15	0.4036	589.3	1.5021	0.00075
303.15	0.5038	589.3	1.50776	0.00077
303.15	0.6036	589.3	1.51352	0.00075
303.15	0.7032	589.3	1.51899	0.00075
303.15	0.8024	589.3	1.52478	0.00075
303.15	0.9014	589.3	1.53052	0.00075
303.15	0.1014	513.9	1.49315	0.00076
303.15	0.2024	513.9	1.49828	0.00075
303.15	0.3032	513.9	1.50376	0.00078
303.15	0.4036	513.9	1.50899	0.00076
303.15	0.5038	513.9	1.5146	0.00076
303.15	0.6036	513.9	1.52033	0.00078
303.15	0.7032	513.9	1.52606	0.00076
303.15	0.8024	513.9	1.532	0.00076
303.15	0.9014	513.9	1.53785	0.00078
303.15	0.1014	436.1	1.50468	0.00078
303.15	0.2024	436.1	1.50986	0.00076
303.15	0.3032	436.1	1.51569	0.00079
303.15	0.4036	436.1	1.52094	0.00076
303.15	0.5038	436.1	1.52674	0.0008
303.15	0.6036	436.1	1.53306	0.00078
303.15	0.7032	436.1	1.53885	0.00078
303.15	0.8024	436.1	1.54503	0.00078
303.15	0.9014	436.1	1.55109	0.00079
308.15	0.1014	657.2	1.48038	0.00074
308.15	0.2024	657.2	1.48538	0.00074
308.15	0.3032	657.2	1.49085	0.00073
308.15	0.4036	657.2	1.49669	0.00073
308.15	0.5038	657.2	1.50224	0.00076
308.15	0.6036	657.2	1.50738	0.00075
308.15	0.7032	657.2	1.51272	0.00076
308.15	0.8024	657.2	1.51825	0.00074
308.15	0.9014	657.2	1.52447	0.00075
308.15	0.1014	633.2	1.48142	0.00075
308.15	0.2024	633.2	1.48659	0.00075
308.15	0.3032	633.2	1.4917	0.00075
308.15	0.4036	633.2	1.49701	0.00076
308.15	0.5038	633.2	1.50224	0.00078
308.15	0.6036	633.2	1.50811	0.00075
308.15	0.7032	633.2	1.51368	0.00074
308.15	0.8024	633.2	1.51941	0.00074
308.15	0.9014	633.2	1.52477	0.00076
308.15	0.1014	589.3	1.48428	0.00074
308.15	0.2024	589.3	1.48939	0.00073
308.15	0.3032	589.3	1.49461	0.00076
308.15	0.4036	589.3	1.49955	0.00077
308.15	0.5038	589.3	1.50515	0.00077
308.15	0.6036	589.3	1.51099	0.00076
308.15	0.7032	589.3	1.51661	0.00075
308.15	0.8024	589.3	1.52237	0.00074
308.15	0.9014	589.3	1.52797	0.00076
308.15	0.1014	513.9	1.49045	0.00076
308.15	0.2024	513.9	1.49591	0.00077
308.15	0.3032	513.9	1.50103	0.00076
308.15	0.4036	513.9	1.50671	0.00076
308.15	0.5038	513.9	1.51215	0.00076
308.15	0.6036	513.9	1.51765	0.00078
308.15	0.7032	513.9	1.52366	0.00076
308.15	0.8024	513.9	1.52953	0.00076
308.15	0.9014	513.9	1.53505	0.00078
308.15	0.1014	436.1	1.50202	0.00078
308.15	0.2024	436.1	1.50759	0.00077
308.15	0.3032	436.1	1.5129	0.00079
308.15	0.4036	436.1	1.51879	0.00075
308.15	0.5038	436.1	1.52412	0.00079
308.15	0.6036	436.1	1.53042	0.00077
308.15	0.7032	436.1	1.53639	0.00077
308.15	0.8024	436.1	1.5425	0.00077
308.15	0.9014	436.1	1.54823	0.0008
313.15	0.1014	657.2	1.47807	0.00074
313.15	0.2024	657.2	1.48312	0.00074
313.15	0.3032	657.2	1.48866	0.00075
313.15	0.4036	657.2	1.49418	0.00075
313.15	0.5038	657.2	1.49947	0.00078
313.15	0.6036	657.2	1.50491	0.00077
313.15	0.7032	657.2	1.51025	0.00077
313.15	0.8024	657.2	1.51573	0.00072
313.15	0.9014	657.2	1.52168	0.00079
313.15	0.1014	633.2	1.47918	0.00075
313.15	0.2024	633.2	1.48409	0.00074
313.15	0.3032	633.2	1.48957	0.00074
313.15	0.4036	633.2	1.49422	0.00077
313.15	0.5038	633.2	1.49959	0.00076
313.15	0.6036	633.2	1.50542	0.00075
313.15	0.7032	633.2	1.51132	0.00075
313.15	0.8024	633.2	1.51708	0.00074
313.15	0.9014	633.2	1.52248	0.00075
313.15	0.1014	589.3	1.48198	0.00074
313.15	0.2024	589.3	1.48705	0.00075
313.15	0.3032	589.3	1.49215	0.00076
313.15	0.4036	589.3	1.49702	0.00076
313.15	0.5038	589.3	1.50259	0.00078
313.15	0.6036	589.3	1.50845	0.00075
313.15	0.7032	589.3	1.51422	0.00075
313.15	0.8024	589.3	1.52003	0.00075
313.15	0.9014	589.3	1.52558	0.00077
313.15	0.1014	513.9	1.48816	0.00075
313.15	0.2024	513.9	1.49321	0.00077
313.15	0.3032	513.9	1.49885	0.00076
313.15	0.4036	513.9	1.50413	0.00078
313.15	0.5038	513.9	1.50976	0.00074
313.15	0.6036	513.9	1.51512	0.00074
313.15	0.7032	513.9	1.52123	0.00075
313.15	0.8024	513.9	1.52715	0.00076
313.15	0.9014	513.9	1.53263	0.00077
313.15	0.1014	436.1	1.49957	0.00078
313.15	0.2024	436.1	1.5048	0.00078
313.15	0.3032	436.1	1.51044	0.00077
313.15	0.4036	436.1	1.51631	0.00078
313.15	0.5038	436.1	1.52152	0.00078
313.15	0.6036	436.1	1.52806	0.00078
313.15	0.7032	436.1	1.53388	0.00078
313.15	0.8024	436.1	1.54002	0.00077
313.15	0.9014	436.1	1.54572	0.00079
318.15	0.1014	657.2	1.47562	0.00075
318.15	0.2024	657.2	1.48056	0.00074
318.15	0.3032	657.2	1.48595	0.00076
318.15	0.4036	657.2	1.49181	0.00077
318.15	0.5038	657.2	1.49685	0.00076
318.15	0.6036	657.2	1.50222	0.00078
318.15	0.7032	657.2	1.50758	0.00074
318.15	0.8024	657.2	1.51388	0.00072
318.15	0.9014	657.2	1.51897	0.00078
318.15	0.1014	633.2	1.47656	0.00074
318.15	0.2024	633.2	1.48179	0.00073
318.15	0.3032	633.2	1.4869	0.00077
318.15	0.4036	633.2	1.49181	0.00069
318.15	0.5038	633.2	1.49721	0.00069
318.15	0.6036	633.2	1.50325	0.00071
318.15	0.7032	633.2	1.50887	0.00074
318.15	0.8024	633.2	1.51464	0.00074
318.15	0.9014	633.2	1.51989	0.00073
318.15	0.1014	589.3	1.47955	0.00072
318.15	0.2024	589.3	1.48455	0.00073
318.15	0.3032	589.3	1.48962	0.00073
318.15	0.4036	589.3	1.49455	0.00071
318.15	0.5038	589.3	1.49987	0.00071
318.15	0.6036	589.3	1.50614	0.00072
318.15	0.7032	589.3	1.51175	0.00071
318.15	0.8024	589.3	1.51758	0.00073
318.15	0.9014	589.3	1.52287	0.00072
318.15	0.1014	513.9	1.48564	0.00061
318.15	0.2024	513.9	1.49078	0.00064
318.15	0.3032	513.9	1.49611	0.00068
318.15	0.4036	513.9	1.50143	0.00066
318.15	0.5038	513.9	1.50751	0.00067
318.15	0.6036	513.9	1.51299	0.00061
318.15	0.7032	513.9	1.51892	0.00064
318.15	0.8024	513.9	1.52466	0.00065
318.15	0.9014	513.9	1.53007	0.0006
318.15	0.1014	436.1	1.49678	0.00081
318.15	0.2024	436.1	1.50247	0.00076
318.15	0.3032	436.1	1.50783	0.00076
318.15	0.4036	436.1	1.51372	0.00081
318.15	0.5038	436.1	1.51897	0.00073
318.15	0.6036	436.1	1.52533	0.00082
318.15	0.7032	436.1	1.53125	0.00077
318.15	0.8024	436.1	1.53748	0.00081
318.15	0.9014	436.1	1.54301	0.0008

System: dodecane + 1,2,3,4-tetrahydronaphthalene; phases: Liquid
Fixed: Pressure, kPa = 101
Property: Refractive index (other wavelength) (Liquid); method: Standard Abbe refractometry
Temperature, K	Mole fraction of 1,2,3,4-tetrahydronaphthalene	Wavelength, nm	Refractive index (other wavelength)	uncertainty
293.15	0.1014	657.2	1.42878	0.0007
293.15	0.2024	657.2	1.43896	0.00075
293.15	0.3032	657.2	1.44835	0.00077
293.15	0.4036	657.2	1.45921	0.00078
293.15	0.5038	657.2	1.47078	0.00071
293.15	0.6036	657.2	1.48194	0.00079
293.15	0.7032	657.2	1.4944	0.00082
293.15	0.8024	657.2	1.50801	0.00082
293.15	0.9014	657.2	1.52229	0.00074
293.15	0.1014	633.2	1.42949	0.00072
293.15	0.2024	633.2	1.43917	0.00075
293.15	0.3032	633.2	1.44918	0.00075
293.15	0.4036	633.2	1.45999	0.00075
293.15	0.5038	633.2	1.47113	0.00078
293.15	0.6036	633.2	1.48318	0.00077
293.15	0.7032	633.2	1.49553	0.00077
293.15	0.8024	633.2	1.50887	0.00078
293.15	0.9014	633.2	1.52288	0.0008
293.15	0.1014	589.3	1.43105	0.00075
293.15	0.2024	589.3	1.44086	0.00075
293.15	0.3032	589.3	1.45101	0.00074
293.15	0.4036	589.3	1.46197	0.00077
293.15	0.5038	589.3	1.47329	0.00082
293.15	0.6036	589.3	1.48552	0.0008
293.15	0.7032	589.3	1.49803	0.00083
293.15	0.8024	589.3	1.51156	0.00079
293.15	0.9014	589.3	1.52591	0.0008
293.15	0.1014	513.9	1.43473	0.00085
293.15	0.2024	513.9	1.44489	0.00081
293.15	0.3032	513.9	1.45538	0.00081
293.15	0.4036	513.9	1.46671	0.00085
293.15	0.5038	513.9	1.47843	0.00089
293.15	0.6036	513.9	1.49106	0.00088
293.15	0.7032	513.9	1.50417	0.00091
293.15	0.8024	513.9	1.51804	0.00092
293.15	0.9014	513.9	1.53275	0.00102
293.15	0.1014	436.1	1.44127	0.00073
293.15	0.2024	436.1	1.45203	0.00074
293.15	0.3032	436.1	1.46314	0.00079
293.15	0.4036	436.1	1.47515	0.00079
293.15	0.5038	436.1	1.48812	0.00078
293.15	0.6036	436.1	1.50126	0.00079
293.15	0.7032	436.1	1.51481	0.00082
293.15	0.8024	436.1	1.52971	0.00081
293.15	0.9014	436.1	1.54558	0.00078
298.15	0.1014	657.2	1.42675	0.00072
298.15	0.2024	657.2	1.43623	0.00075
298.15	0.3032	657.2	1.44627	0.00072
298.15	0.4036	657.2	1.45678	0.00074
298.15	0.5038	657.2	1.46851	0.00073
298.15	0.6036	657.2	1.47967	0.00073
298.15	0.7032	657.2	1.49181	0.00075
298.15	0.8024	657.2	1.50529	0.00077
298.15	0.9014	657.2	1.5199	0.00075
298.15	0.1014	633.2	1.42729	0.00072
298.15	0.2024	633.2	1.43699	0.00072
298.15	0.3032	633.2	1.44692	0.00074
298.15	0.4036	633.2	1.45768	0.00073
298.15	0.5038	633.2	1.4689	0.00072
298.15	0.6036	633.2	1.4807	0.00073
298.15	0.7032	633.2	1.4932	0.00074
298.15	0.8024	633.2	1.50652	0.00074
298.15	0.9014	633.2	1.52049	0.00075
298.15	0.1014	589.3	1.42884	0.00072
298.15	0.2024	589.3	1.43868	0.00072
298.15	0.3032	589.3	1.44896	0.00074
298.15	0.4036	589.3	1.45965	0.00074
298.15	0.5038	589.3	1.47078	0.00075
298.15	0.6036	589.3	1.48302	0.00074
298.15	0.7032	589.3	1.4955	0.00075
298.15	0.8024	589.3	1.50927	0.00074
298.15	0.9014	589.3	1.52353	0.00076
298.15	0.1014	513.9	1.43249	0.00073
298.15	0.2024	513.9	1.44267	0.00073
298.15	0.3032	513.9	1.4533	0.00073
298.15	0.4036	513.9	1.46438	0.00073
298.15	0.5038	513.9	1.47612	0.00075
298.15	0.6036	513.9	1.48874	0.00075
298.15	0.7032	513.9	1.50164	0.00076
298.15	0.8024	513.9	1.51563	0.00075
298.15	0.9014	513.9	1.53046	0.00076
298.15	0.1014	436.1	1.439	0.00073
298.15	0.2024	436.1	1.44978	0.00074
298.15	0.3032	436.1	1.46073	0.00076
298.15	0.4036	436.1	1.47277	0.00074
298.15	0.5038	436.1	1.48561	0.00078
298.15	0.6036	436.1	1.49875	0.00077
298.15	0.7032	436.1	1.51238	0.00077
298.15	0.8024	436.1	1.52724	0.00078
298.15	0.9014	436.1	1.54301	0.00079
303.15	0.1014	657.2	1.42434	0.00072
303.15	0.2024	657.2	1.434	0.00073
303.15	0.3032	657.2	1.44387	0.00076
303.15	0.4036	657.2	1.45441	0.00075
303.15	0.5038	657.2	1.46615	0.00074
303.15	0.6036	657.2	1.47729	0.00074
303.15	0.7032	657.2	1.48949	0.00075
303.15	0.8024	657.2	1.50284	0.00077
303.15	0.9014	657.2	1.51741	0.00074
303.15	0.1014	633.2	1.42505	0.00071
303.15	0.2024	633.2	1.4347	0.00073
303.15	0.3032	633.2	1.44438	0.00074
303.15	0.4036	633.2	1.45549	0.00073
303.15	0.5038	633.2	1.46668	0.00073
303.15	0.6036	633.2	1.47855	0.00073
303.15	0.7032	633.2	1.49077	0.00074
303.15	0.8024	633.2	1.50415	0.00076
303.15	0.9014	633.2	1.51798	0.00075
303.15	0.1014	589.3	1.42659	0.00071
303.15	0.2024	589.3	1.43636	0.00074
303.15	0.3032	589.3	1.44635	0.00075
303.15	0.4036	589.3	1.45733	0.00074
303.15	0.5038	589.3	1.46841	0.00073
303.15	0.6036	589.3	1.48085	0.00073
303.15	0.7032	589.3	1.49318	0.00074
303.15	0.8024	589.3	1.50685	0.00076
303.15	0.9014	589.3	1.52095	0.00075
303.15	0.1014	513.9	1.43024	0.00072
303.15	0.2024	513.9	1.44033	0.00074
303.15	0.3032	513.9	1.45084	0.00074
303.15	0.4036	513.9	1.46216	0.00073
303.15	0.5038	513.9	1.47359	0.00076
303.15	0.6036	513.9	1.48633	0.00075
303.15	0.7032	513.9	1.49917	0.00075
303.15	0.8024	513.9	1.51321	0.00076
303.15	0.9014	513.9	1.52785	0.00076
303.15	0.1014	436.1	1.43671	0.00072
303.15	0.2024	436.1	1.44738	0.00075
303.15	0.3032	436.1	1.45818	0.00075
303.15	0.4036	436.1	1.4705	0.00076
303.15	0.5038	436.1	1.48295	0.00077
303.15	0.6036	436.1	1.49619	0.00077
303.15	0.7032	436.1	1.50983	0.00076
303.15	0.8024	436.1	1.52452	0.0008
303.15	0.9014	436.1	1.54034	0.00077
308.15	0.1014	657.2	1.42224	0.00072
308.15	0.2024	657.2	1.4316	0.00074
308.15	0.3032	657.2	1.44127	0.00075
308.15	0.4036	657.2	1.45195	0.00074
308.15	0.5038	657.2	1.46385	0.00073
308.15	0.6036	657.2	1.47498	0.00075
308.15	0.7032	657.2	1.48694	0.00075
308.15	0.8024	657.2	1.50013	0.00077
308.15	0.9014	657.2	1.51517	0.00073
308.15	0.1014	633.2	1.42297	0.00072
308.15	0.2024	633.2	1.43234	0.00072
308.15	0.3032	633.2	1.44222	0.00073
308.15	0.4036	633.2	1.45318	0.00074
308.15	0.5038	633.2	1.46436	0.00075
308.15	0.6036	633.2	1.4762	0.00073
308.15	0.7032	633.2	1.48855	0.00073
308.15	0.8024	633.2	1.50145	0.00075
308.15	0.9014	633.2	1.51565	0.00074
308.15	0.1014	589.3	1.4245	0.00071
308.15	0.2024	589.3	1.434	0.00073
308.15	0.3032	589.3	1.44408	0.00074
308.15	0.4036	589.3	1.45488	0.00075
308.15	0.5038	589.3	1.46618	0.00074
308.15	0.6036	589.3	1.47848	0.00073
308.15	0.7032	589.3	1.49085	0.00073
308.15	0.8024	589.3	1.50425	0.00077
308.15	0.9014	589.3	1.51872	0.00074
308.15	0.1014	513.9	1.42811	0.00072
308.15	0.2024	513.9	1.43794	0.00074
308.15	0.3032	513.9	1.44864	0.00074
308.15	0.4036	513.9	1.45985	0.00073
308.15	0.5038	513.9	1.47118	0.00075
308.15	0.6036	513.9	1.48392	0.00074
308.15	0.7032	513.9	1.49684	0.00075
308.15	0.8024	513.9	1.51075	0.00076
308.15	0.9014	513.9	1.52559	0.00075
308.15	0.1014	436.1	1.43455	0.00073
308.15	0.2024	436.1	1.44495	0.00073
308.15	0.3032	436.1	1.45589	0.00075
308.15	0.4036	436.1	1.46783	0.00078
308.15	0.5038	436.1	1.4805	0.00075
308.15	0.6036	436.1	1.49371	0.00077
308.15	0.7032	436.1	1.50749	0.00076
308.15	0.8024	436.1	1.52185	0.00078
308.15	0.9014	436.1	1.538	0.00077
313.15	0.1014	657.2	1.41998	0.0007
313.15	0.2024	657.2	1.42919	0.00073
313.15	0.3032	657.2	1.439	0.00071
313.15	0.4036	657.2	1.44965	0.00074
313.15	0.5038	657.2	1.46161	0.00073
313.15	0.6036	657.2	1.47245	0.00075
313.15	0.7032	657.2	1.48468	0.00074
313.15	0.8024	657.2	1.49759	0.00076
313.15	0.9014	657.2	1.51275	0.00074
313.15	0.1014	633.2	1.42066	0.00072
313.15	0.2024	633.2	1.43026	0.00073
313.15	0.3032	633.2	1.43979	0.00072
313.15	0.4036	633.2	1.45075	0.00075
313.15	0.5038	633.2	1.46185	0.00073
313.15	0.6036	633.2	1.47398	0.00073
313.15	0.7032	633.2	1.48614	0.00074
313.15	0.8024	633.2	1.49928	0.00074
313.15	0.9014	633.2	1.51325	0.00072
313.15	0.1014	589.3	1.42227	0.00072
313.15	0.2024	589.3	1.43177	0.00074
313.15	0.3032	589.3	1.44157	0.00073
313.15	0.4036	589.3	1.45242	0.00076
313.15	0.5038	589.3	1.46372	0.00074
313.15	0.6036	589.3	1.47625	0.00073
313.15	0.7032	589.3	1.48857	0.00074
313.15	0.8024	589.3	1.50166	0.00077
313.15	0.9014	589.3	1.51623	0.00074
313.15	0.1014	513.9	1.42576	0.00072
313.15	0.2024	513.9	1.43568	0.00073
313.15	0.3032	513.9	1.44614	0.00073
313.15	0.4036	513.9	1.45759	0.00076
313.15	0.5038	513.9	1.46885	0.00075
313.15	0.6036	513.9	1.48167	0.00074
313.15	0.7032	513.9	1.49443	0.00076
313.15	0.8024	513.9	1.50825	0.00077
313.15	0.9014	513.9	1.52307	0.00075
313.15	0.1014	436.1	1.43218	0.00073
313.15	0.2024	436.1	1.44283	0.00074
313.15	0.3032	436.1	1.45339	0.00077
313.15	0.4036	436.1	1.46524	0.00077
313.15	0.5038	436.1	1.47822	0.00075
313.15	0.6036	436.1	1.49111	0.00078
313.15	0.7032	436.1	1.50491	0.00077
313.15	0.8024	436.1	1.51939	0.00078
313.15	0.9014	436.1	1.5354	0.00077
318.15	0.1014	657.2	1.41814	0.00068
318.15	0.2024	657.2	1.42702	0.00067
318.15	0.3032	657.2	1.43701	0.00068
318.15	0.4036	657.2	1.44718	0.00067
318.15	0.5038	657.2	1.45934	0.00079
318.15	0.6036	657.2	1.47014	0.00068
318.15	0.7032	657.2	1.48216	0.00072
318.15	0.8024	657.2	1.49507	0.00066
318.15	0.9014	657.2	1.51044	0.00073
318.15	0.1014	633.2	1.41859	0.00068
318.15	0.2024	633.2	1.42777	0.00073
318.15	0.3032	633.2	1.43785	0.00068
318.15	0.4036	633.2	1.44826	0.00073
318.15	0.5038	633.2	1.45981	0.00068
318.15	0.6036	633.2	1.47165	0.00073
318.15	0.7032	633.2	1.48389	0.00073
318.15	0.8024	633.2	1.49667	0.00073
318.15	0.9014	633.2	1.51123	0.00066
318.15	0.1014	589.3	1.42009	0.00069
318.15	0.2024	589.3	1.42933	0.0007
318.15	0.3032	589.3	1.43955	0.00067
318.15	0.4036	589.3	1.44985	0.00069
318.15	0.5038	589.3	1.46145	0.00067
318.15	0.6036	589.3	1.47389	0.00072
318.15	0.7032	589.3	1.48615	0.0007
318.15	0.8024	589.3	1.49906	0.00068
318.15	0.9014	589.3	1.51403	0.00067
318.15	0.1014	513.9	1.42366	0.00062
318.15	0.2024	513.9	1.43333	0.00065
318.15	0.3032	513.9	1.44405	0.00066
318.15	0.4036	513.9	1.45487	0.0007
318.15	0.5038	513.9	1.46645	0.00063
318.15	0.6036	513.9	1.47929	0.00067
318.15	0.7032	513.9	1.49184	0.00064
318.15	0.8024	513.9	1.50571	0.00065
318.15	0.9014	513.9	1.52083	0.00059
318.15	0.1014	436.1	1.43001	0.00072
318.15	0.2024	436.1	1.44026	0.00075
318.15	0.3032	436.1	1.45084	0.00071
318.15	0.4036	436.1	1.46269	0.00072
318.15	0.5038	436.1	1.47578	0.00077
318.15	0.6036	436.1	1.48857	0.00073
318.15	0.7032	436.1	1.50241	0.00075
318.15	0.8024	436.1	1.51672	0.00071
318.15	0.9014	436.1	1.5331	0.00075

System: dodecane + (2-methylpropyl)benzene; phases: Liquid
Fixed: Pressure, kPa = 101
Property: Refractive index (other wavelength) (Liquid); method: Standard Abbe refractometry
Temperature, K	Mole fraction of (2-methylpropyl)benzene	Wavelength, nm	Refractive index (other wavelength)	uncertainty
293.15	0.9014	657.2	1.47491	0.00075
293.15	0.8024	657.2	1.46776	0.00074
293.15	0.7032	657.2	1.46085	0.00074
293.15	0.6036	657.2	1.45427	0.00076
293.15	0.5038	657.2	1.44849	0.00078
293.15	0.4036	657.2	1.44269	0.00076
293.15	0.3032	657.2	1.43659	0.00076
293.15	0.2024	657.2	1.43084	0.00073
293.15	0.1014	657.2	1.42541	0.00079
293.15	0.9014	633.2	1.47617	0.00076
293.15	0.8024	633.2	1.46884	0.00076
293.15	0.7032	633.2	1.46196	0.00074
293.15	0.6036	633.2	1.45524	0.00075
293.15	0.5038	633.2	1.44884	0.00077
293.15	0.4036	633.2	1.44255	0.00077
293.15	0.3032	633.2	1.4368	0.00075
293.15	0.2024	633.2	1.43094	0.00074
293.15	0.1014	633.2	1.42554	0.00075
293.15	0.9014	589.3	1.47869	0.00083
293.15	0.8024	589.3	1.47122	0.00079
293.15	0.7032	589.3	1.46421	0.00077
293.15	0.6036	589.3	1.45746	0.00077
293.15	0.5038	589.3	1.45083	0.00078
293.15	0.4036	589.3	1.44443	0.00076
293.15	0.3032	589.3	1.43856	0.00075
293.15	0.2024	589.3	1.4326	0.00076
293.15	0.1014	589.3	1.42708	0.00074
293.15	0.9014	513.9	1.48487	0.00099
293.15	0.8024	513.9	1.47693	0.00089
293.15	0.7032	513.9	1.46959	0.00086
293.15	0.6036	513.9	1.46247	0.00086
293.15	0.5038	513.9	1.45559	0.00086
293.15	0.4036	513.9	1.44889	0.00083
293.15	0.3032	513.9	1.44273	0.00082
293.15	0.2024	513.9	1.4365	0.00082
293.15	0.1014	513.9	1.4307	0.00084
293.15	0.9014	436.1	1.49556	0.0008
293.15	0.8024	436.1	1.48711	0.00079
293.15	0.7032	436.1	1.47917	0.00076
293.15	0.6036	436.1	1.47144	0.00077
293.15	0.5038	436.1	1.46405	0.00077
293.15	0.4036	436.1	1.45682	0.00076
293.15	0.3032	436.1	1.45015	0.00075
293.15	0.2024	436.1	1.44344	0.00074
293.15	0.1014	436.1	1.43714	0.00073
298.15	0.9014	657.2	1.47249	0.00075
298.15	0.8024	657.2	1.46548	0.00074
298.15	0.7032	657.2	1.45863	0.00073
298.15	0.6036	657.2	1.45198	0.00073
298.15	0.5038	657.2	1.44578	0.00075
298.15	0.4036	657.2	1.44009	0.00073
298.15	0.3032	657.2	1.43417	0.00072
298.15	0.2024	657.2	1.42867	0.00073
298.15	0.1014	657.2	1.42267	0.00075
298.15	0.9014	633.2	1.47371	0.00075
298.15	0.8024	633.2	1.46646	0.00074
298.15	0.7032	633.2	1.45965	0.00074
298.15	0.6036	633.2	1.45293	0.00073
298.15	0.5038	633.2	1.44642	0.00073
298.15	0.4036	633.2	1.44035	0.00073
298.15	0.3032	633.2	1.43449	0.00072
298.15	0.2024	633.2	1.42885	0.00072
298.15	0.1014	633.2	1.42337	0.00072
298.15	0.9014	589.3	1.47611	0.00076
298.15	0.8024	589.3	1.46882	0.00075
298.15	0.7032	589.3	1.46188	0.00074
298.15	0.6036	589.3	1.45504	0.00074
298.15	0.5038	589.3	1.44841	0.00074
298.15	0.4036	589.3	1.44221	0.00073
298.15	0.3032	589.3	1.43623	0.00072
298.15	0.2024	589.3	1.43032	0.00073
298.15	0.1014	589.3	1.4249	0.00072
298.15	0.9014	513.9	1.48229	0.00077
298.15	0.8024	513.9	1.4745	0.00076
298.15	0.7032	513.9	1.46722	0.00075
298.15	0.6036	513.9	1.46005	0.00075
298.15	0.5038	513.9	1.45312	0.00075
298.15	0.4036	513.9	1.44665	0.00074
298.15	0.3032	513.9	1.44037	0.00073
298.15	0.2024	513.9	1.43425	0.00073
298.15	0.1014	513.9	1.42851	0.00072
298.15	0.9014	436.1	1.49284	0.00079
298.15	0.8024	436.1	1.48462	0.00077
298.15	0.7032	436.1	1.47676	0.00076
298.15	0.6036	436.1	1.46903	0.00075
298.15	0.5038	436.1	1.46153	0.00075
298.15	0.4036	436.1	1.45454	0.00075
298.15	0.3032	436.1	1.44775	0.00074
298.15	0.2024	436.1	1.44124	0.00074
298.15	0.1014	436.1	1.43491	0.00073
303.15	0.9014	657.2	1.47001	0.00075
303.15	0.8024	657.2	1.46299	0.00075
303.15	0.7032	657.2	1.45625	0.00074
303.15	0.6036	657.2	1.44965	0.00075
303.15	0.5038	657.2	1.44358	0.00073
303.15	0.4036	657.2	1.43801	0.00073
303.15	0.3032	657.2	1.4321	0.00071
303.15	0.2024	657.2	1.42618	0.00074
303.15	0.1014	657.2	1.42052	0.00072
303.15	0.9014	633.2	1.47135	0.00076
303.15	0.8024	633.2	1.46405	0.00074
303.15	0.7032	633.2	1.45721	0.00074
303.15	0.6036	633.2	1.45059	0.00073
303.15	0.5038	633.2	1.44427	0.00073
303.15	0.4036	633.2	1.43796	0.00073
303.15	0.3032	633.2	1.43232	0.00074
303.15	0.2024	633.2	1.42643	0.00072
303.15	0.1014	633.2	1.42115	0.00072
303.15	0.9014	589.3	1.47362	0.00075
303.15	0.8024	589.3	1.46639	0.00075
303.15	0.7032	589.3	1.45946	0.00075
303.15	0.6036	589.3	1.45269	0.00074
303.15	0.5038	589.3	1.44611	0.00074
303.15	0.4036	589.3	1.43981	0.00073
303.15	0.3032	589.3	1.43406	0.00074
303.15	0.2024	589.3	1.42804	0.00073
303.15	0.1014	589.3	1.42267	0.00072
303.15	0.9014	513.9	1.47981	0.00076
303.15	0.8024	513.9	1.47203	0.00076
303.15	0.7032	513.9	1.46477	0.00075
303.15	0.6036	513.9	1.45769	0.00074
303.15	0.5038	513.9	1.45077	0.00074
303.15	0.4036	513.9	1.44421	0.00074
303.15	0.3032	513.9	1.43818	0.00074
303.15	0.2024	513.9	1.43187	0.00073
303.15	0.1014	513.9	1.42624	0.00073
303.15	0.9014	436.1	1.49024	0.00077
303.15	0.8024	436.1	1.48209	0.00077
303.15	0.7032	436.1	1.47424	0.00076
303.15	0.6036	436.1	1.4666	0.00076
303.15	0.5038	436.1	1.45929	0.00075
303.15	0.4036	436.1	1.45204	0.00075
303.15	0.3032	436.1	1.44552	0.00075
303.15	0.2024	436.1	1.43872	0.00074
303.15	0.1014	436.1	1.43262	0.00073
308.15	0.9014	657.2	1.46758	0.00075
308.15	0.8024	657.2	1.46065	0.00074
308.15	0.7032	657.2	1.45387	0.00073
308.15	0.6036	657.2	1.44715	0.00074
308.15	0.5038	657.2	1.44115	0.00074
308.15	0.4036	657.2	1.43554	0.00075
308.15	0.3032	657.2	1.42984	0.00072
308.15	0.2024	657.2	1.42395	0.00074
308.15	0.1014	657.2	1.41824	0.00072
308.15	0.9014	633.2	1.46871	0.00075
308.15	0.8024	633.2	1.46165	0.00074
308.15	0.7032	633.2	1.45488	0.00074
308.15	0.6036	633.2	1.44827	0.00074
308.15	0.5038	633.2	1.44178	0.00073
308.15	0.4036	633.2	1.4358	0.00073
308.15	0.3032	633.2	1.42979	0.00074
308.15	0.2024	633.2	1.42433	0.00072
308.15	0.1014	633.2	1.41894	0.00072
308.15	0.9014	589.3	1.47126	0.00075
308.15	0.8024	589.3	1.46398	0.00075
308.15	0.7032	589.3	1.45708	0.00074
308.15	0.6036	589.3	1.45034	0.00074
308.15	0.5038	589.3	1.44375	0.00073
308.15	0.4036	589.3	1.43762	0.00073
308.15	0.3032	589.3	1.43152	0.00074
308.15	0.2024	589.3	1.42581	0.00073
308.15	0.1014	589.3	1.42043	0.00072
308.15	0.9014	513.9	1.47731	0.00075
308.15	0.8024	513.9	1.46958	0.00076
308.15	0.7032	513.9	1.46239	0.00075
308.15	0.6036	513.9	1.45531	0.00075
308.15	0.5038	513.9	1.44841	0.00074
308.15	0.4036	513.9	1.44199	0.00074
308.15	0.3032	513.9	1.43562	0.00075
308.15	0.2024	513.9	1.42966	0.00073
308.15	0.1014	513.9	1.42401	0.00072
308.15	0.9014	436.1	1.48775	0.00078
308.15	0.8024	436.1	1.47955	0.00077
308.15	0.7032	436.1	1.47181	0.00076
308.15	0.6036	436.1	1.46416	0.00076
308.15	0.5038	436.1	1.45671	0.00075
308.15	0.4036	436.1	1.44977	0.00075
308.15	0.3032	436.1	1.44293	0.00076
308.15	0.2024	436.1	1.43663	0.00074
308.15	0.1014	436.1	1.43035	0.00073
313.15	0.9014	657.2	1.46515	0.00075
313.15	0.8024	657.2	1.45817	0.00074
313.15	0.7032	657.2	1.45159	0.00073
313.15	0.6036	657.2	1.44496	0.00074
313.15	0.5038	657.2	1.43882	0.00072
313.15	0.4036	657.2	1.43304	0.00073
313.15	0.3032	657.2	1.42761	0.0007
313.15	0.2024	657.2	1.42149	0.0007
313.15	0.1014	657.2	1.41612	0.00072
313.15	0.9014	633.2	1.46652	0.00076
313.15	0.8024	633.2	1.45924	0.00075
313.15	0.7032	633.2	1.45247	0.00074
313.15	0.6036	633.2	1.4459	0.00074
313.15	0.5038	633.2	1.43965	0.00074
313.15	0.4036	633.2	1.43336	0.00073
313.15	0.3032	633.2	1.42752	0.00074
313.15	0.2024	633.2	1.42191	0.00072
313.15	0.1014	633.2	1.41677	0.00072
313.15	0.9014	589.3	1.46878	0.00077
313.15	0.8024	589.3	1.46154	0.00075
313.15	0.7032	589.3	1.45466	0.00075
313.15	0.6036	589.3	1.44797	0.00074
313.15	0.5038	589.3	1.44159	0.00074
313.15	0.4036	589.3	1.4352	0.00073
313.15	0.3032	589.3	1.42938	0.00075
313.15	0.2024	589.3	1.42345	0.00073
313.15	0.1014	589.3	1.41826	0.00072
313.15	0.9014	513.9	1.47502	0.00075
313.15	0.8024	513.9	1.46712	0.00076
313.15	0.7032	513.9	1.4599	0.00076
313.15	0.6036	513.9	1.45293	0.00075
313.15	0.5038	513.9	1.44611	0.00073
313.15	0.4036	513.9	1.43955	0.00074
313.15	0.3032	513.9	1.43332	0.00074
313.15	0.2024	513.9	1.42725	0.00073
313.15	0.1014	513.9	1.42179	0.00072
313.15	0.9014	436.1	1.48511	0.00078
313.15	0.8024	436.1	1.47706	0.00077
313.15	0.7032	436.1	1.46924	0.00077
313.15	0.6036	436.1	1.46172	0.00076
313.15	0.5038	436.1	1.45448	0.00076
313.15	0.4036	436.1	1.4473	0.00075
313.15	0.3032	436.1	1.44059	0.00076
313.15	0.2024	436.1	1.43404	0.00073
313.15	0.1014	436.1	1.42808	0.00073
318.15	0.9014	657.2	1.46262	0.00076
318.15	0.8024	657.2	1.45594	0.00072
318.15	0.7032	657.2	1.44935	0.00073
318.15	0.6036	657.2	1.44244	0.00071
318.15	0.5038	657.2	1.43665	0.00071
318.15	0.4036	657.2	1.43091	0.00069
318.15	0.3032	657.2	1.42574	0.00071
318.15	0.2024	657.2	1.41979	0.00066
318.15	0.1014	657.2	1.41386	0.00072
318.15	0.9014	633.2	1.46372	0.00078
318.15	0.8024	633.2	1.45679	0.00073
318.15	0.7032	633.2	1.45008	0.00072
318.15	0.6036	633.2	1.44352	0.00074
318.15	0.5038	633.2	1.4371	0.00073
318.15	0.4036	633.2	1.43114	0.0007
318.15	0.3032	633.2	1.425	0.00068
318.15	0.2024	633.2	1.41993	0.00068
318.15	0.1014	633.2	1.41454	0.00072
318.15	0.9014	589.3	1.46615	0.00071
318.15	0.8024	589.3	1.4591	0.00072
318.15	0.7032	589.3	1.45224	0.00072
318.15	0.6036	589.3	1.44556	0.00072
318.15	0.5038	589.3	1.43898	0.00073
318.15	0.4036	589.3	1.43297	0.00071
318.15	0.3032	589.3	1.42669	0.00073
318.15	0.2024	589.3	1.42122	0.00069
318.15	0.1014	589.3	1.41596	0.0007
318.15	0.9014	513.9	1.47245	0.00064
318.15	0.8024	513.9	1.46465	0.00065
318.15	0.7032	513.9	1.45744	0.00066
318.15	0.6036	513.9	1.45049	0.00066
318.15	0.5038	513.9	1.44389	0.00066
318.15	0.4036	513.9	1.43729	0.00065
318.15	0.3032	513.9	1.43094	0.00067
318.15	0.2024	513.9	1.42512	0.00065
318.15	0.1014	513.9	1.41953	0.00064
318.15	0.9014	436.1	1.48247	0.00078
318.15	0.8024	436.1	1.47452	0.00076
318.15	0.7032	436.1	1.46673	0.00075
318.15	0.6036	436.1	1.45921	0.00076
318.15	0.5038	436.1	1.4518	0.00076
318.15	0.4036	436.1	1.44498	0.00075
318.15	0.3032	436.1	1.43791	0.00073
318.15	0.2024	436.1	1.43204	0.00071
318.15	0.1014	436.1	1.42579	0.00073
