Measured thermophysical data. Solution Thermodynamics of Benzotriazole in Different Pure Solvents
Source: J. Chem. Eng. Data, 2018, 10.1021/acs.jced.7b01085
Compound 1: benzotriazole, C6H5N3, InChI=1S/C6H5N3/c1-2-4-6-5(3-1)7-9-8-6/h1-4H,(H,7,8,9), purity 99%
Compound 2: acetone, C3H6O, InChI=1S/C3H6O/c1-3(2)4/h1-2H3, purity 99.5%
Compound 3: methanol, CH4O, InChI=1S/CH4O/c1-2/h2H,1H3, purity 99.9%
Compound 4: ethanol, C2H6O, InChI=1S/C2H6O/c1-2-3/h3H,2H2,1H3, purity 99.7%
Compound 5: propan-2-ol, C3H8O, InChI=1S/C3H8O/c1-3(2)4/h3-4H,1-2H3, purity 99.7%
Compound 6: butan-2-ol, C4H10O, InChI=1S/C4H10O/c1-3-4(2)5/h4-5H,3H2,1-2H3, purity 99%
Compound 7: acetonitrile, C2H3N, InChI=1S/C2H3N/c1-2-3/h1H3, purity 99.5%
Compound 8: ethyl acetate, C4H8O2, InChI=1S/C4H8O2/c1-3-6-4(2)5/h3H2,1-2H3, purity 99.5%
Compound 9: dichloromethane, CH2Cl2, InChI=1S/CH2Cl2/c2-1-3/h1H2, purity 99.5%
Compound 10: methyl ethanoate, C3H6O2, InChI=1S/C3H6O2/c1-3(4)5-2/h1-2H3, purity 98%
Compound 11: ethyl methanoate, C3H6O2, InChI=1S/C3H6O2/c1-2-5-3-4/h3H,2H2,1H3, purity 98%
Compound 12: propyl ethanoate, C5H10O2, InChI=1S/C5H10O2/c1-3-4-7-5(2)6/h3-4H2,1-2H3, purity 98%
Compound 13: 1,2-dichloroethane, C2H4Cl2, InChI=1S/C2H4Cl2/c3-1-2-4/h1-2H2, purity 99%
Compound 14: dimethylformamide, C3H7NO, InChI=1S/C3H7NO/c1-4(2)3-5/h3H,1-2H3, purity 99.5%
Compound 15: N,N-dimethylethanamide, C4H9NO, InChI=1S/C4H9NO/c1-4(6)5(2)3/h1-3H3, purity 99%

System: benzotriazole; phases: Crystal, Liquid, Air at 1 atmosphere
Property: Triple point temperature, K (Crystal); method: DSC
Triple point temperature, K	uncertainty
369.26	1.22

System: benzotriazole; phases: Crystal, Liquid, Air at 1 atmosphere
Property: Molar enthalpy of transition or fusion, kJ/mol (Crystal); method: DSC
Molar enthalpy of transition or fusion, kJ/mol	uncertainty
15.225	0.699

System: benzotriazole + acetone; phases: Liquid, Crystal
Fixed: Pressure, kPa = 101.3
Property: Mole fraction of benzotriazole (Liquid); method: gravimetric
Temperature, K	Mole fraction of benzotriazole	uncertainty
268.15	0.1855	0.0186
273.15	0.2035	0.0204
278.15	0.2274	0.0227
283.15	0.244	0.0244
288.15	0.2741	0.0274
293.15	0.2931	0.0293
298.15	0.3272	0.0327
303.15	0.3571	0.0357

System: benzotriazole + methanol; phases: Liquid, Crystal
Fixed: Pressure, kPa = 101.3
Property: Mole fraction of benzotriazole (Liquid); method: gravimetric
Temperature, K	Mole fraction of benzotriazole	uncertainty
268.15	0.2477	0.0248
273.15	0.268	0.0268
278.15	0.2837	0.0284
283.15	0.3093	0.0309
288.15	0.3329	0.0333
293.15	0.3586	0.0359
298.15	0.3869	0.0387
303.15	0.4229	0.0423

System: benzotriazole + ethanol; phases: Liquid, Crystal
Fixed: Pressure, kPa = 101.3
Property: Mole fraction of benzotriazole (Liquid); method: gravimetric
Temperature, K	Mole fraction of benzotriazole	uncertainty
268.15	0.2244	0.0224
273.15	0.2415	0.0242
278.15	0.2594	0.0259
283.15	0.2829	0.0283
288.15	0.309	0.0309
293.15	0.338	0.0338
298.15	0.3679	0.0368
303.15	0.3915	0.0392

System: benzotriazole + propan-2-ol; phases: Liquid, Crystal
Fixed: Pressure, kPa = 101.3
Property: Mole fraction of benzotriazole (Liquid); method: gravimetric
Temperature, K	Mole fraction of benzotriazole	uncertainty
268.15	0.2404	0.024
273.15	0.2593	0.0259
278.15	0.2752	0.0275
283.15	0.2972	0.0297
288.15	0.3178	0.0318
293.15	0.3528	0.0353
298.15	0.3684	0.0369
303.15	0.3998	0.04

System: benzotriazole + butan-2-ol; phases: Liquid, Crystal
Fixed: Pressure, kPa = 101.3
Property: Mole fraction of benzotriazole (Liquid); method: gravimetric
Temperature, K	Mole fraction of benzotriazole	uncertainty
268.15	0.2603	0.026
273.15	0.2757	0.0276
278.15	0.2896	0.029
283.15	0.3079	0.0308
288.15	0.3285	0.0329
293.15	0.3566	0.0357
298.15	0.3736	0.0374
303.15	0.4061	0.0406

System: benzotriazole + acetonitrile; phases: Liquid, Crystal
Fixed: Pressure, kPa = 101.3
Property: Mole fraction of benzotriazole (Liquid); method: gravimetric
Temperature, K	Mole fraction of benzotriazole	uncertainty
268.15	0.03212	0.00321
273.15	0.03813	0.00382
278.15	0.04701	0.00471
283.15	0.05568	0.00557
288.15	0.06717	0.00672
293.15	0.07823	0.00783
298.15	0.09672	0.00968
303.15	0.1182	0.0118

System: benzotriazole + ethyl acetate; phases: Liquid, Crystal
Fixed: Pressure, kPa = 101.3
Property: Mole fraction of benzotriazole (Liquid); method: gravimetric
Temperature, K	Mole fraction of benzotriazole	uncertainty
268.15	0.066	0.00661
273.15	0.0855	0.00856
278.15	0.1013	0.0101
283.15	0.1171	0.0117
288.15	0.133	0.0133
293.15	0.1625	0.0163
298.15	0.1917	0.0192
303.15	0.2363	0.0237

System: benzotriazole + dichloromethane; phases: Liquid, Crystal
Fixed: Pressure, kPa = 101.3
Property: Mole fraction of benzotriazole (Liquid); method: gravimetric
Temperature, K	Mole fraction of benzotriazole	uncertainty
268.15	0.04167	0.00417
273.15	0.04658	0.00466
278.15	0.06201	0.00622
283.15	0.08986	0.00901
288.15	0.1217	0.0122
293.15	0.1528	0.0153
298.15	0.1978	0.0198
303.15	0.2522	0.0252

System: benzotriazole + methyl ethanoate; phases: Liquid, Crystal
Fixed: Pressure, kPa = 101.3
Property: Mole fraction of benzotriazole (Liquid); method: gravimetric
Temperature, K	Mole fraction of benzotriazole	uncertainty
268.15	0.1097	0.011
273.15	0.1194	0.0119
278.15	0.1325	0.0133
283.15	0.1455	0.0146
288.15	0.1618	0.0162
293.15	0.1772	0.0177
298.15	0.1969	0.0197
303.15	0.2227	0.0223

System: benzotriazole + ethyl methanoate; phases: Liquid, Crystal
Fixed: Pressure, kPa = 101.3
Property: Mole fraction of benzotriazole (Liquid); method: gravimetric
Temperature, K	Mole fraction of benzotriazole	uncertainty
268.15	0.06411	0.00641
273.15	0.07172	0.00718
278.15	0.08094	0.0081
283.15	0.08959	0.00896
288.15	0.09892	0.0099
293.15	0.107	0.0107
298.15	0.123	0.0123
303.15	0.1349	0.0135

System: benzotriazole + propyl ethanoate; phases: Liquid, Crystal
Fixed: Pressure, kPa = 101.3
Property: Mole fraction of benzotriazole (Liquid); method: gravimetric
Temperature, K	Mole fraction of benzotriazole	uncertainty
268.15	0.08234	0.00824
273.15	0.0937	0.00937
278.15	0.1034	0.0103
283.15	0.1163	0.0116
288.15	0.1313	0.0131
293.15	0.1461	0.0146
298.15	0.1669	0.0167
303.15	0.1854	0.0185

System: benzotriazole + 1,2-dichloroethane; phases: Liquid, Crystal
Fixed: Pressure, kPa = 101.3
Property: Mole fraction of benzotriazole (Liquid); method: gravimetric
Temperature, K	Mole fraction of benzotriazole	uncertainty
268.15	0.01589	0.00159
273.15	0.0204	0.00204
278.15	0.02635	0.00264
283.15	0.03051	0.00306
288.15	0.04094	0.0041
293.15	0.05229	0.00524
298.15	0.06384	0.00639
303.15	0.07793	0.0078

System: benzotriazole + dimethylformamide; phases: Liquid, Crystal
Fixed: Pressure, kPa = 101.3
Property: Mole fraction of benzotriazole (Liquid); method: gravimetric
Temperature, K	Mole fraction of benzotriazole	uncertainty
268.15	0.4892	0.0489
273.15	0.5006	0.05
278.15	0.514	0.0486
283.15	0.5268	0.0473
288.15	0.5409	0.0459
293.15	0.5543	0.0446
298.15	0.5709	0.0429
303.15	0.5892	0.0411

System: benzotriazole + N,N-dimethylethanamide; phases: Liquid, Crystal
Fixed: Pressure, kPa = 101.3
Property: Mole fraction of benzotriazole (Liquid); method: gravimetric
Temperature, K	Mole fraction of benzotriazole	uncertainty
268.15	0.5502	0.045
273.15	0.5615	0.0439
278.15	0.5709	0.0429
283.15	0.5824	0.0418
288.15	0.5941	0.0406
293.15	0.6058	0.0394
298.15	0.6186	0.0382
303.15	0.629	0.0371
