Measured thermophysical data. Liquid-Liquid Equilibria Data of Protic Ionic Liquid (Ethyl-2-hydroxyethylammonium Propionate, Diethylammonium Propionate, or Butylammonium Propionate) with 1-Butanol + Water at 298.15 K
Source: J. Chem. Eng. Data, 2019, 10.1021/acs.jced.8b01009
Compound 1: butan-1-ol, C4H10O, InChI=1S/C4H10O/c1-2-3-4-5/h5H,2-4H2,1H3, purity 99%
Compound 2: water, H2O, InChI=1S/H2O/h1H2, purity 99.9%
Compound 3: N-ethyl-2-hydroxyethylammonium propionate, C7H17NO3, InChI=1S/C4H11NO.C3H6O2/c1-2-5-3-4-6;1-2-3(4)5/h5-6H,2-4H2,1H3;2H2,1H3,(H,4,5), purity 99%
Compound 4: diethylammonium propanoate, C7H17NO2, InChI=1S/C4H11N.C3H6O2/c1-3-5-4-2;1-2-3(4)5/h5H,3-4H2,1-2H3;2H2,1H3,(H,4,5), purity 99%
Compound 5: butylammonium propanoate, C7H17NO2, InChI=1S/C4H11N.C3H6O2/c1-2-3-4-5;1-2-3(4)5/h2-5H2,1H3;2H2,1H3,(H,4,5), purity 99%

System: butan-1-ol + water + N-ethyl-2-hydroxyethylammonium propionate; phases: Liquid mixture 1, Liquid mixture 2
Fixed: Temperature, K = 298.15
Fixed: Pressure, kPa = 100
Property: Mass fraction of N-ethyl-2-hydroxyethylammonium propionate (Liquid mixture 1); method: Titration method
Mass fraction of butan-1-ol	Mass fraction of N-ethyl-2-hydroxyethylammonium propionate	uncertainty
0.7325	0.0523	0.0115
0.6694	0.0867	0.0114
0.6002	0.1182	0.0115
0.5593	0.1365	0.0116
0.5251	0.1512	0.0116
0.5048	0.1582	0.0116
0.4856	0.1658	0.0118
0.4676	0.1739	0.0117
0.4487	0.1792	0.0117
0.4275	0.1867	0.0119
0.4118	0.1925	0.0119
0.3979	0.1968	0.0119
0.3891	0.1999	0.0119
0.384	0.2017	0.0119
0.357	0.2095	0.012
0.3316	0.2165	0.0121
0.3047	0.2241	0.0121
0.2841	0.2294	0.0122
0.2651	0.2351	0.0124
0.2103	0.2534	0.0126
0.1398	0.2667	0.0125
0.1225	0.2674	0.0129
0.0838	0.2515	0.038
0.0814	0.2191	0.183
0.0748	0.1711	0.023
0.0762	0.1258	0.0324
0.0752	0.0654	0.0439
0.0712	0.0328	0.0328

System: butan-1-ol + water + N-ethyl-2-hydroxyethylammonium propionate; phases: Liquid mixture 1, Liquid mixture 2
Fixed: Temperature, K = 298.15
Fixed: Pressure, kPa = 100
Property: Mass fraction of N-ethyl-2-hydroxyethylammonium propionate (Liquid mixture 1); method: Phase equilibration
Property: Mass fraction of butan-1-ol (Liquid mixture 2); method: Phase equilibration
Property: Mass fraction of N-ethyl-2-hydroxyethylammonium propionate (Liquid mixture 2); method: Phase equilibration
Mass fraction of butan-1-ol	Mass fraction of N-ethyl-2-hydroxyethylammonium propionate	uncertainty	Mass fraction of butan-1-ol	uncertainty	Mass fraction of N-ethyl-2-hydroxyethylammonium propionate	uncertainty
0.6439	0.1004	0.0115	0.0753	0.0103	0.2308	
0.6467	0.099	0.0115	0.0754	0.0103	0.2311	
0.694	0.074	0.0115	0.0681	0.0101	0.1929	
0.695	0.0735	0.0115	0.0681	0.0101	0.1928	
0.7371	0.049	0.0116	0.0703	0.0101	0.154	

System: butan-1-ol + water + diethylammonium propanoate; phases: Liquid mixture 1, Liquid mixture 2
Fixed: Temperature, K = 298.15
Fixed: Pressure, kPa = 100
Property: Mass fraction of diethylammonium propanoate (Liquid mixture 1); method: Titration method
Mass fraction of butan-1-ol	Mass fraction of diethylammonium propanoate	uncertainty
0.7846	0.0213	0.0109
0.7379	0.0419	0.0112
0.7074	0.0586	0.0115
0.6789	0.0743	0.0113
0.6408	0.0908	0.0112
0.609	0.1042	0.0112
0.5765	0.1177	0.0113
0.5477	0.1286	0.0113
0.5199	0.1388	0.0113
0.4904	0.1486	0.0113
0.4603	0.1577	0.0113
0.4314	0.1649	0.0113
0.4064	0.1717	0.0114
0.3796	0.1776	0.0114
0.3641	0.1816	0.0115
0.2695	0.2	0.0116
0.1751	0.2147	0.0117
0.1063	0.2094	0.0167
0.0922	0.1924	0.0717
0.0847	0.1587	0.0259
0.0804	0.021	0.021

System: butan-1-ol + water + diethylammonium propanoate; phases: Liquid mixture 2, Liquid mixture 1
Fixed: Temperature, K = 298.15
Fixed: Pressure, kPa = 100
Property: Mass fraction of diethylammonium propanoate (Liquid mixture 2); method: Phase equilibration
Property: Mass fraction of butan-1-ol (Liquid mixture 1); method: Phase equilibration
Property: Mass fraction of diethylammonium propanoate (Liquid mixture 1); method: Phase equilibration
Mass fraction of butan-1-ol	Mass fraction of diethylammonium propanoate	uncertainty	Mass fraction of butan-1-ol	uncertainty	Mass fraction of diethylammonium propanoate	uncertainty
0.6188	0.0986	0.0111	0.0669	0.0101	0.1249	
0.6774	0.0731	0.011	0.0675	0.0101	0.093	
0.7128	0.0568	0.0111	0.0713	0.0103	0.0699	
0.7432	0.0423	0.0111	0.0763	0.0104	0.0493	

System: butan-1-ol + water + butylammonium propanoate; phases: Liquid mixture 1, Liquid mixture 2
Fixed: Temperature, K = 298.15
Fixed: Pressure, kPa = 100
Property: Mass fraction of butylammonium propanoate (Liquid mixture 1); method: Titration method
Mass fraction of butan-1-ol	Mass fraction of butylammonium propanoate	uncertainty
0.7392	0.0222	0.0106
0.6481	0.0527	0.0106
0.5725	0.0741	0.0105
0.4888	0.0925	0.0105
0.3947	0.1049	0.0105
0.3222	0.1089	0.0105
0.2739	0.1097	0.0105
0.2324	0.1101	0.0105
0.1819	0.1126	0.0105
0.1528	0.1098	0.0106
0.1171	0.1033	0.0106
0.1029	0.0984	0.0158
0.0867	0.0677	0.0215
0.0826	0.0308	0.0308

System: butan-1-ol + water + butylammonium propanoate; phases: Liquid mixture 2, Liquid mixture 1
Fixed: Temperature, K = 298.15
Fixed: Pressure, kPa = 100
Property: Mass fraction of butylammonium propanoate (Liquid mixture 2); method: Phase equilibration
Property: Mass fraction of butylammonium propanoate (Liquid mixture 1); method: Phase equilibration
Property: Mass fraction of butan-1-ol (Liquid mixture 1); method: Phase equilibration
Mass fraction of butan-1-ol	Mass fraction of butylammonium propanoate	uncertainty	Mass fraction of butylammonium propanoate	uncertainty	Mass fraction of butan-1-ol	uncertainty
0.1069	0.0824	0.0115	0.0546	0.0104	0.639	
0.162	0.1061	0.0109	0.0859	0.0104	0.5051	
0.1273	0.0936	0.011	0.0657	0.0104	0.5957	
