Measured thermophysical data. Binary Vapor-Liquid Equilibrium Data for Perfluorooctane with Light Gases (Oxygen, Nitrogen, and Methane)
Source: J. Chem. Eng. Data, 2017, 10.1021/acs.jced.7b00657
Compound 1: oxygen, O2, InChI=1S/O2/c1-2
Compound 2: nitrogen, N2, InChI=1S/N2/c1-2
Compound 3: methane, CH4, InChI=1S/CH4/h1H4
Compound 4: octadecafluorooctane, C8F18, InChI=1S/C8F18/c9-1(10,3(13,14)5(17,18)7(21,22)23)2(11,12)4(15,16)6(19,20)8(24,25)26, purity 99%

System: octadecafluorooctane; phases: Liquid
Property: Refractive index (Na D-line) (Liquid); method: Standard Abbe refractometry
Temperature, K	Pressure, kPa	Refractive index (Na D-line)	uncertainty
293	101.325	1.268	0.001

System: octadecafluorooctane; phases: Liquid
Property: Mass density, kg/m3 (Liquid); method: Vibrating tube method
Temperature, K	Pressure, kPa	Mass density, kg/m3	uncertainty
298	101.325	1756	1

System: nitrogen + octadecafluorooctane; phases: Gas, Liquid
Property: Vapor or sublimation pressure, kPa (Gas); method: Closed cell (Static) method
Mole fraction of nitrogen	Temperature, K	Vapor or sublimation pressure, kPa	uncertainty
0.069	293.21	1789	127
0.128	293.2	3659	194
0.19	293.21	5699	294
0.232	293.21	7042	360
0.274	293.21	8716	454
0.305	293.21	10054	485
0.329	293.22	10924	542
0.349	293.21	11893	637
0.373	293.22	13074	636
0.396	293.22	14186	708
0.413	293.21	15098	774
0.437	293.21	16445	789
0.456	293.21	17515	790
0.089	303.21	2394	149
0.129	303.21	3577	197
0.195	303.21	5850	302
0.214	303.21	6401	337
0.239	303.21	7366	375
0.271	303.22	8523	420
0.306	303.22	9919	508
0.334	303.2	11193	594
0.366	303.2	12638	606
0.384	303.2	13568	644
0.399	303.22	14242	706
0.422	303.23	15436	728
0.439	303.21	16314	715
0.464	303.22	17601	705
0.077	333.2	2038	115
0.114	333.22	3101	178
0.154	333.21	4317	134
0.156	333.21	4355	153
0.189	333.2	5401	296
0.218	333.22	6395	353
0.248	333.21	7479	406
0.269	333.19	8277	427
0.299	333.23	9451	470
0.336	333.19	10898	556
0.384	333.18	13068	623
0.424	333.21	15112	717

System: nitrogen + octadecafluorooctane; phases: Gas, Liquid
Property: Mole fraction of nitrogen (Gas); method: Chromatography
Mole fraction of nitrogen	Temperature, K	Mole fraction of nitrogen	uncertainty
0.069	293.21	0.9966	0.0002
0.128	293.2	0.9975	0.0002
0.19	293.21	0.9981	0.0002
0.232	293.21	0.9981	0.0002
0.274	293.21	0.9979	0.0002
0.305	293.21	0.9976	0.0002
0.329	293.22	0.9974	0.0002
0.349	293.21	0.9973	0.0002
0.373	293.22	0.997	0.0003
0.396	293.22	0.9968	0.0003
0.413	293.21	0.9965	0.0003
0.437	293.21	0.996	0.0004
0.456	293.21	0.9955	0.0005
0.089	303.21	0.996	0.0004
0.129	303.21	0.9967	0.0002
0.195	303.21	0.9974	0.0002
0.214	303.21	0.9973	0.0002
0.239	303.21	0.9973	0.0002
0.271	303.22	0.9972	0.0002
0.306	303.22	0.9969	0.0003
0.334	303.2	0.9963	0.0003
0.366	303.2	0.9957	0.0004
0.384	303.2	0.9955	0.0004
0.399	303.22	0.995	0.0006
0.422	303.23	0.9943	0.0005
0.439	303.21	0.9939	0.0006
0.464	303.22	0.9934	0.0005
0.077	333.2	0.9865	0.0009
0.114	333.22	0.9896	0.0007
0.154	333.21	0.9913	0.0006
0.156	333.21	0.9914	0.0006
0.189	333.2	0.992	0.0005
0.218	333.22	0.9922	0.0005
0.248	333.21	0.9924	0.0004
0.269	333.19	0.9925	0.0004
0.299	333.23	0.9924	0.0004
0.336	333.19	0.9922	0.0005
0.384	333.18	0.9912	0.0006
0.424	333.21	0.9905	0.0006

System: nitrogen + octadecafluorooctane; phases: Liquid, Gas
Property: Mole fraction of nitrogen (Liquid); method: visual
Temperature, K	Pressure, kPa	Mole fraction of nitrogen	uncertainty
293.16	6770	0.221	0.007
303.19	6570	0.221	0.007
333.14	6410	0.221	0.007

System: oxygen + octadecafluorooctane; phases: Gas, Liquid
Property: Vapor or sublimation pressure, kPa (Gas); method: Closed cell (Static) method
Mole fraction of oxygen	Temperature, K	Vapor or sublimation pressure, kPa	uncertainty
0.117	293.26	2249	106
0.165	293.25	3260	156
0.212	293.26	4360	197
0.253	293.25	5425	242
0.293	293.23	6533	288
0.326	293.22	7525	344
0.363	293.21	8714	373
0.408	293.26	10295	440
0.46	293.21	12258	475
0.486	293.26	13390	524
0.514	293.26	14607	542
0.536	293.25	15642	568
0.556	293.25	16588	571
0.579	293.26	17678	616
0.595	293.27	18594	674
0.615	293.28	19694	625
0.631	293.28	20632	648
0.108	313.23	2118	112
0.176	313.23	3691	165
0.209	313.22	4481	209
0.27	313.22	6126	279
0.314	313.22	7412	311
0.364	313.22	9049	374
0.408	313.22	10603	440
0.443	313.22	11944	479
0.487	313.22	13767	511
0.516	313.22	15058	556
0.549	313.22	16616	571
0.571	313.22	17681	587
0.59	313.22	18636	626
0.606	313.23	19501	615
0.62	313.22	20316	607
0.074	333.25	1564	65
0.144	333.25	3061	143
0.226	333.23	5167	212
0.273	333.24	6473	294
0.329	333.23	8188	354
0.377	333.24	9816	387
0.412	333.23	11105	455
0.462	333.22	13027	488
0.5	333.23	14677	531
0.534	333.23	16202	556
0.557	333.24	17313	592
0.582	333.2	18557	604
0.604	333.21	19668	629
0.625	333.24	20799	577
0.645	333.24	21803	557

System: oxygen + octadecafluorooctane; phases: Gas, Liquid
Property: Mole fraction of oxygen (Gas); method: Chromatography
Mole fraction of oxygen	Temperature, K	Mole fraction of oxygen	uncertainty
0.117	293.26	0.9982	0.0001
0.165	293.25	0.9985	0.0001
0.212	293.26	0.9983	0.0001
0.253	293.25	0.998	0.0002
0.293	293.23	0.9979	0.0002
0.326	293.22	0.9976	0.0002
0.363	293.21	0.9975	0.0002
0.408	293.26	0.9973	0.0002
0.46	293.21	0.9975	0.0002
0.486	293.26	0.9969	0.0003
0.514	293.26	0.9965	0.0003
0.536	293.25	0.9961	0.0004
0.556	293.25	0.9954	0.0003
0.579	293.26	0.9952	0.0004
0.595	293.27	0.9946	0.0005
0.615	293.28	0.9939	0.0006
0.631	293.28	0.993	0.0007
0.108	313.23	0.9929	0.0005
0.176	313.23	0.9946	0.0003
0.209	313.22	0.9946	0.0003
0.27	313.22	0.9948	0.0003
0.314	313.22	0.995	0.0003
0.364	313.22	0.9949	0.0003
0.408	313.22	0.9948	0.0003
0.443	313.22	0.9947	0.0003
0.487	313.22	0.9942	0.0005
0.516	313.22	0.9929	0.0005
0.549	313.22	0.9926	0.0005
0.571	313.22	0.9918	0.0007
0.59	313.22	0.9911	0.0007
0.606	313.23	0.9902	0.0009
0.62	313.22	0.9894	0.0014
0.074	333.25	0.981	0.001
0.144	333.25	0.9893	0.0006
0.226	333.23	0.9912	0.0004
0.273	333.24	0.9912	0.0004
0.329	333.23	0.9915	0.0004
0.377	333.24	0.9913	0.0004
0.412	333.23	0.9909	0.0005
0.462	333.22	0.9894	0.0006
0.5	333.23	0.9888	0.0006
0.534	333.23	0.988	0.0007
0.557	333.24	0.9869	0.0009
0.582	333.2	0.9856	0.001
0.604	333.21	0.9842	0.0012
0.625	333.24	0.9824	0.0012
0.645	333.24	0.9808	0.0013

System: oxygen + octadecafluorooctane; phases: Liquid, Gas
Property: Mole fraction of oxygen (Liquid); method: visual
Temperature, K	Pressure, kPa	Mole fraction of oxygen	uncertainty
293.29	7980	0.338	0.004
313.19	8000	0.338	0.004
333.24	8240	0.338	0.004

System: methane + octadecafluorooctane; phases: Gas, Liquid
Property: Vapor or sublimation pressure, kPa (Gas); method: Closed cell (Static) method
Mole fraction of methane	Temperature, K	Vapor or sublimation pressure, kPa	uncertainty
0.109	293.23	1849	97
0.215	293.24	3897	185
0.297	293.25	5724	258
0.369	293.25	7505	315
0.451	293.26	9752	375
0.522	293.26	11913	406
0.567	293.25	13367	440
0.637	293.22	15773	420
0.693	293.22	17749	378
0.758	293.21	19887	325
0.781	293.22	20527	260
0.128	323.2	2364	129
0.234	323.21	4639	221
0.298	323.2	6134	279
0.379	323.2	8270	355
0.458	323.21	10520	383
0.52	323.21	12442	417
0.576	323.21	14258	431
0.603	323.21	15147	404
0.631	323.22	16083	421
0.662	323.21	17114	430
0.694	323.22	18143	374
0.06	353.22	1183	61
0.179	353.2	3572	165
0.228	353.22	4663	209
0.287	353.23	6075	274
0.348	353.22	7645	314
0.402	353.24	9073	362
0.469	353.23	11002	380
0.503	353.21	12020	396
0.558	353.22	13696	404
0.595	353.22	14867	409
0.612	353.22	15380	394
0.658	353.23	16763	365

System: methane + octadecafluorooctane; phases: Gas, Liquid
Property: Mole fraction of methane (Gas); method: Chromatography
Mole fraction of methane	Temperature, K	Mole fraction of methane	uncertainty
0.109	293.23	0.9961	0.0002
0.215	293.24	0.9966	0.0002
0.297	293.25	0.9973	0.0002
0.369	293.25	0.9969	0.0003
0.451	293.26	0.9949	0.0005
0.522	293.26	0.9927	0.0009
0.567	293.25	0.9901	0.0013
0.637	293.22	0.9841	0.0019
0.693	293.22	0.9731	0.0023
0.758	293.21	0.9648	0.0027
0.781	293.22	0.9556	0.0043
0.128	323.2	0.9858	0.001
0.234	323.21	0.9908	0.0009
0.298	323.2	0.991	0.0007
0.379	323.2	0.99	0.0009
0.458	323.21	0.9873	0.001
0.52	323.21	0.9846	0.0013
0.576	323.21	0.9798	0.0017
0.603	323.21	0.9768	0.0023
0.631	323.22	0.9731	0.0027
0.662	323.21	0.9654	0.0037
0.694	323.22	0.9554	0.0042
0.06	353.22	0.95	0.0027
0.179	353.2	0.9755	0.002
0.228	353.22	0.9794	0.0013
0.287	353.23	0.9792	0.0012
0.348	353.22	0.978	0.0013
0.402	353.24	0.9768	0.0014
0.469	353.23	0.9743	0.0016
0.503	353.21	0.9719	0.002
0.558	353.22	0.9666	0.0023
0.595	353.22	0.9615	0.0029
0.612	353.22	0.9586	0.0034
0.658	353.23	0.9492	0.0036

System: methane + octadecafluorooctane; phases: Liquid, Gas
Property: Mole fraction of methane (Liquid); method: visual
Temperature, K	Pressure, kPa	Mole fraction of methane	uncertainty
293.26	5730	0.29	0.01
323.16	6020	0.29	0.01
353.19	6100	0.29	0.01
