Measured thermophysical data. Solid Liquid Phase Equilibrium of N,N'-Piperazinebis(neopentylglycol)phosphoramidate in Selected Solvents from T = (293.15 to 333.15) K
Source: J. Chem. Eng. Data, 2017, 10.1021/acs.jced.7b00206
Compound 1: 2,2'-(piperazine-1,4-diyl)bis(5,5-dimethyl-1,3,2-dioxaphosphinane 2-oxide), C14H28N2O6P2, InChI=1S/C14H28N2O6P2/c1-13(2)9-19-23(17,20-10-13)15-5-7-16(8-6-15)24(18)21-11-14(3,4)12-22-24/h5-12H2,1-4H3
Compound 2: trichloromethane, CHCl3, InChI=1S/CHCl3/c2-1(3)4/h1H, purity 99.5%
Compound 3: acetone, C3H6O, InChI=1S/C3H6O/c1-3(2)4/h1-2H3, purity 99.5%
Compound 4: tetrahydrofuran, C4H8O, InChI=1S/C4H8O/c1-2-4-5-3-1/h1-4H2, purity 99.8%
Compound 5: ethyl methanoate, C3H6O2, InChI=1S/C3H6O2/c1-2-5-3-4/h3H,2H2,1H3, purity 99.8%
Compound 6: 1,2-dichloroethane, C2H4Cl2, InChI=1S/C2H4Cl2/c3-1-2-4/h1-2H2, purity 99.5%
Compound 7: toluene, C7H8, InChI=1S/C7H8/c1-7-5-3-2-4-6-7/h2-6H,1H3, purity 99.5%
Compound 8: propan-1-ol, C3H8O, InChI=1S/C3H8O/c1-2-3-4/h4H,2-3H2,1H3, purity 99.5%
Compound 9: methanol, CH4O, InChI=1S/CH4O/c1-2/h2H,1H3, purity 99.5%
Compound 10: propan-2-ol, C3H8O, InChI=1S/C3H8O/c1-3(2)4/h3-4H,1-2H3, purity 99.5%
Compound 11: acetonitrile, C2H3N, InChI=1S/C2H3N/c1-2-3/h1H3, purity 99%
Compound 12: benzene, C6H6, InChI=1S/C6H6/c1-2-4-6-5-3-1/h1-6H, purity 99.5%
Compound 13: methyl ethanoate, C3H6O2, InChI=1S/C3H6O2/c1-3(4)5-2/h1-2H3, purity 98%
Compound 14: N-acetyl-p-aminophenol, C8H9NO2, InChI=1S/C8H9NO2/c1-6(10)9-7-2-4-8(11)5-3-7/h2-5,11H,1H3,(H,9,10), purity 99%
Compound 15: water, H2O, InChI=1S/H2O/h1H2, purity 99.8%

System: trichloromethane + 2,2'-(piperazine-1,4-diyl)bis(5,5-dimethyl-1,3,2-dioxaphosphinane 2-oxide); phases: Liquid, Crystal
Fixed: Pressure, kPa = 100
Property: Mole fraction of 2,2'-(piperazine-1,4-diyl)bis(5,5-dimethyl-1,3,2-dioxaphosphinane 2-oxide) (Liquid); method: Gravimetric
Temperature, K	Mole fraction of 2,2'-(piperazine-1,4-diyl)bis(5,5-dimethyl-1,3,2-dioxaphosphinane 2-oxide)	uncertainty
293.15	0.00165	7e-05
298.15	0.00221	9e-05
303.15	0.00291	0.00012
308.15	0.00395	0.00016
313.15	0.00506	0.0002
318.15	0.00658	0.00026
323.15	0.0083	0.00033

System: acetone + 2,2'-(piperazine-1,4-diyl)bis(5,5-dimethyl-1,3,2-dioxaphosphinane 2-oxide); phases: Liquid, Crystal
Fixed: Pressure, kPa = 100
Property: Mole fraction of 2,2'-(piperazine-1,4-diyl)bis(5,5-dimethyl-1,3,2-dioxaphosphinane 2-oxide) (Liquid); method: Gravimetric
Temperature, K	Mole fraction of 2,2'-(piperazine-1,4-diyl)bis(5,5-dimethyl-1,3,2-dioxaphosphinane 2-oxide)	uncertainty
293.15	0.00072	3e-05
298.15	0.00104	4e-05
303.15	0.00138	6e-05
308.15	0.0019	8e-05
313.15	0.00261	0.0001
318.15	0.00346	0.00014
323.15	0.00442	0.00018

System: tetrahydrofuran + 2,2'-(piperazine-1,4-diyl)bis(5,5-dimethyl-1,3,2-dioxaphosphinane 2-oxide); phases: Liquid, Crystal
Fixed: Pressure, kPa = 100
Property: Mole fraction of 2,2'-(piperazine-1,4-diyl)bis(5,5-dimethyl-1,3,2-dioxaphosphinane 2-oxide) (Liquid); method: Gravimetric
Temperature, K	Mole fraction of 2,2'-(piperazine-1,4-diyl)bis(5,5-dimethyl-1,3,2-dioxaphosphinane 2-oxide)	uncertainty
293.15	0.00078	3e-05
298.15	0.00098	4e-05
303.15	0.0012	5e-05
308.15	0.00149	6e-05
313.15	0.00186	7e-05
318.15	0.00233	9e-05
323.15	0.00286	0.00011
328.15	0.00345	0.00014
333.15	0.00417	0.00017

System: ethyl methanoate + 2,2'-(piperazine-1,4-diyl)bis(5,5-dimethyl-1,3,2-dioxaphosphinane 2-oxide); phases: Liquid, Crystal
Fixed: Pressure, kPa = 100
Property: Mole fraction of 2,2'-(piperazine-1,4-diyl)bis(5,5-dimethyl-1,3,2-dioxaphosphinane 2-oxide) (Liquid); method: Gravimetric
Temperature, K	Mole fraction of 2,2'-(piperazine-1,4-diyl)bis(5,5-dimethyl-1,3,2-dioxaphosphinane 2-oxide)	uncertainty
293.15	0.00027	1e-05
298.15	0.00038	2e-05
303.15	0.00053	2e-05
308.15	0.00071	3e-05
313.15	0.00099	4e-05
318.15	0.00132	5e-05
323.15	0.00179	7e-05

System: 1,2-dichloroethane + 2,2'-(piperazine-1,4-diyl)bis(5,5-dimethyl-1,3,2-dioxaphosphinane 2-oxide); phases: Liquid, Crystal
Fixed: Pressure, kPa = 100
Property: Mole fraction of 2,2'-(piperazine-1,4-diyl)bis(5,5-dimethyl-1,3,2-dioxaphosphinane 2-oxide) (Liquid); method: Gravimetric
Temperature, K	Mole fraction of 2,2'-(piperazine-1,4-diyl)bis(5,5-dimethyl-1,3,2-dioxaphosphinane 2-oxide)	uncertainty
293.15	0.00042	2e-05
298.15	0.00048	2e-05
303.15	0.00055	2e-05
308.15	0.00062	3e-05
313.15	0.00072	3e-05
318.15	0.00082	3e-05
323.15	0.00093	4e-05
328.15	0.00104	4e-05
333.15	0.00118	5e-05

System: toluene + 2,2'-(piperazine-1,4-diyl)bis(5,5-dimethyl-1,3,2-dioxaphosphinane 2-oxide); phases: Liquid, Crystal
Fixed: Pressure, kPa = 100
Property: Mole fraction of 2,2'-(piperazine-1,4-diyl)bis(5,5-dimethyl-1,3,2-dioxaphosphinane 2-oxide) (Liquid); method: Gravimetric
Temperature, K	Mole fraction of 2,2'-(piperazine-1,4-diyl)bis(5,5-dimethyl-1,3,2-dioxaphosphinane 2-oxide)	uncertainty
293.15	0.0005	2e-05
298.15	0.00057	2e-05
303.15	0.00065	3e-05
308.15	0.00074	3e-05
313.15	0.00084	3e-05
318.15	0.00093	4e-05
323.15	0.00106	4e-05
328.15	0.00118	5e-05
333.15	0.0013	5e-05

System: propan-1-ol + 2,2'-(piperazine-1,4-diyl)bis(5,5-dimethyl-1,3,2-dioxaphosphinane 2-oxide); phases: Liquid, Crystal
Fixed: Pressure, kPa = 100
Property: Mole fraction of 2,2'-(piperazine-1,4-diyl)bis(5,5-dimethyl-1,3,2-dioxaphosphinane 2-oxide) (Liquid); method: Gravimetric
Temperature, K	Mole fraction of 2,2'-(piperazine-1,4-diyl)bis(5,5-dimethyl-1,3,2-dioxaphosphinane 2-oxide)	uncertainty
293.15	0.00022	1e-05
298.15	0.00027	1e-05
303.15	0.00032	1e-05
308.15	0.0004	2e-05
313.15	0.00048	2e-05
318.15	0.00057	2e-05
323.15	0.00067	3e-05
328.15	0.00078	3e-05
333.15	0.0009	4e-05

System: methanol + 2,2'-(piperazine-1,4-diyl)bis(5,5-dimethyl-1,3,2-dioxaphosphinane 2-oxide); phases: Liquid, Crystal
Fixed: Pressure, kPa = 100
Property: Mole fraction of 2,2'-(piperazine-1,4-diyl)bis(5,5-dimethyl-1,3,2-dioxaphosphinane 2-oxide) (Liquid); method: Gravimetric
Temperature, K	Mole fraction of 2,2'-(piperazine-1,4-diyl)bis(5,5-dimethyl-1,3,2-dioxaphosphinane 2-oxide)	uncertainty
293.15	8e-05	1e-05
298.15	0.00012	1e-05
303.15	0.00016	1e-05
308.15	0.00023	1e-05
313.15	0.00032	1e-05
318.15	0.00043	2e-05
323.15	0.00059	2e-05

System: propan-2-ol + 2,2'-(piperazine-1,4-diyl)bis(5,5-dimethyl-1,3,2-dioxaphosphinane 2-oxide); phases: Liquid, Crystal
Fixed: Pressure, kPa = 100
Property: Mole fraction of 2,2'-(piperazine-1,4-diyl)bis(5,5-dimethyl-1,3,2-dioxaphosphinane 2-oxide) (Liquid); method: Gravimetric
Temperature, K	Mole fraction of 2,2'-(piperazine-1,4-diyl)bis(5,5-dimethyl-1,3,2-dioxaphosphinane 2-oxide)	uncertainty
293.15	0.00014	1e-05
298.15	0.00016	1e-05
303.15	0.00019	1e-05
308.15	0.00022	1e-05
313.15	0.00026	1e-05
318.15	0.0003	1e-05
323.15	0.00034	1e-05
328.15	0.00039	2e-05
333.15	0.00045	2e-05

System: acetonitrile + 2,2'-(piperazine-1,4-diyl)bis(5,5-dimethyl-1,3,2-dioxaphosphinane 2-oxide); phases: Liquid, Crystal
Fixed: Pressure, kPa = 100
Property: Mole fraction of 2,2'-(piperazine-1,4-diyl)bis(5,5-dimethyl-1,3,2-dioxaphosphinane 2-oxide) (Liquid); method: Gravimetric
Temperature, K	Mole fraction of 2,2'-(piperazine-1,4-diyl)bis(5,5-dimethyl-1,3,2-dioxaphosphinane 2-oxide)	uncertainty
293.15	0.00017	1e-05
298.15	0.0002	1e-05
303.15	0.00024	1e-05
308.15	0.00028	1e-05
313.15	0.00033	1e-05
318.15	0.00037	2e-05
323.15	0.00043	2e-05

System: benzene + 2,2'-(piperazine-1,4-diyl)bis(5,5-dimethyl-1,3,2-dioxaphosphinane 2-oxide); phases: Liquid, Crystal
Fixed: Pressure, kPa = 100
Property: Mole fraction of 2,2'-(piperazine-1,4-diyl)bis(5,5-dimethyl-1,3,2-dioxaphosphinane 2-oxide) (Liquid); method: Gravimetric
Temperature, K	Mole fraction of 2,2'-(piperazine-1,4-diyl)bis(5,5-dimethyl-1,3,2-dioxaphosphinane 2-oxide)	uncertainty
293.15	6e-05	1e-05
298.15	8e-05	1e-05
303.15	9e-05	1e-05
308.15	0.00011	1e-05
313.15	0.00013	1e-05
318.15	0.00016	1e-05
323.15	0.00019	1e-05
328.15	0.00023	1e-05
333.15	0.00027	1e-05

System: methyl ethanoate + 2,2'-(piperazine-1,4-diyl)bis(5,5-dimethyl-1,3,2-dioxaphosphinane 2-oxide); phases: Liquid, Crystal
Fixed: Pressure, kPa = 100
Property: Mole fraction of 2,2'-(piperazine-1,4-diyl)bis(5,5-dimethyl-1,3,2-dioxaphosphinane 2-oxide) (Liquid); method: Gravimetric
Temperature, K	Mole fraction of 2,2'-(piperazine-1,4-diyl)bis(5,5-dimethyl-1,3,2-dioxaphosphinane 2-oxide)	uncertainty
293.15	2e-05	1e-05
298.15	3e-05	1e-05
303.15	4e-05	1e-05
308.15	6e-05	1e-05
313.15	7e-05	1e-05
318.15	0.0001	1e-05
323.15	0.00014	1e-05

System: N-acetyl-p-aminophenol + water; phases: Liquid, Crystal
Fixed: Pressure, kPa = 100
Property: Mole fraction of N-acetyl-p-aminophenol (Liquid); method: Gravimetric
Temperature, K	Mole fraction of N-acetyl-p-aminophenol	uncertainty
273.15	0.000855	3.4e-05
278.15	0.00098	3.9e-05
283.15	0.001118	4.5e-05
288.15	0.00131	5.2e-05
293.15	0.00151	6.1e-05
298.15	0.00179	7.2e-05
303.15	0.00208	8.3e-05
308.15	0.002546	0.000102
313.15	0.00313	0.000125
