Measured thermophysical data. Extracting Vapor Pressure Data from Gas-Liquid Chromatography Retention Times. Part 2: Analysis of Double Reference Approach
Source: J. Chem. Eng. Data, 2018, 10.1021/acs.jced.8b00699
Compound 1: heptanenitrile, C7H13N, InChI=1S/C7H13N/c1-2-3-4-5-6-7-8/h2-6H2,1H3, purity 99.7%
Compound 2: octanenitrile, C8H15N, InChI=1S/C8H15N/c1-2-3-4-5-6-7-8-9/h2-7H2,1H3, purity 99.7%
Compound 3: nonanenitrile, C9H17N, InChI=1S/C9H17N/c1-2-3-4-5-6-7-8-9-10/h2-8H2,1H3, purity 99.7%

System: heptanenitrile; phases: Liquid, Gas
Property: Vapor or sublimation pressure, kPa (Liquid); method: Closed cell (Static) method
Temperature, K	Vapor or sublimation pressure, kPa	uncertainty
238.15	0.00048	0.00011
243.15	0.00085	0.00012
248.15	0.00146	0.00013
253.15	0.00246	0.00015
258.15	0.00408	0.00019
263.15	0.00662	0.00028
268.15	0.01055	0.00042
273.15	0.01647	0.00057
273.66	0.01723	0.00058
278.16	0.02527	0.00071
283.15	0.03801	0.00091
288.15	0.05634	0.00123
293.15	0.0819	0.00167
298.15	0.11752	0.00229
303.16	0.16489	0.0027
308.18	0.2302	0.00347

System: octanenitrile; phases: Liquid, Gas
Property: Vapor or sublimation pressure, kPa (Liquid); method: Closed cell (Static) method
Temperature, K	Vapor or sublimation pressure, kPa	uncertainty
238.15	0.00012	0.00011
243.15	0.00021	0.00011
248.15	0.00037	0.00012
253.15	0.00064	0.00012
258.15	0.00108	0.00012
263.15	0.0018	0.00014
268.15	0.00295	0.00016
273.15	0.00476	0.00021
273.65	0.00502	0.00022
278.15	0.00758	0.00031
283.15	0.01175	0.00047
288.15	0.01796	0.00059
293.15	0.02693	0.00073
298.15	0.0398	0.00094
303.15	0.05793	0.00126
308.15	0.08314	0.00169

System: nonanenitrile; phases: Liquid, Gas
Property: Vapor or sublimation pressure, kPa (Liquid); method: Closed cell (Static) method
Temperature, K	Vapor or sublimation pressure, kPa	uncertainty
273.66	0.00148	0.00013
278.15	0.00231	0.00015
283.15	0.0037	0.00018
288.15	0.00585	0.00025
293.15	0.00907	0.00037
298.15	0.01387	0.00053
303.16	0.02079	0.00064
308.18	0.03074	0.00079
