Measured thermophysical data. Speed of Sound and Derived Properties of Ethyl Nonanoate
Source: J. Chem. Eng. Data, 2019, 10.1021/acs.jced.9b00420
Compound 1: ethyl nonanoate, C11H22O2, InChI=1S/C11H22O2/c1-3-5-6-7-8-9-10-11(12)13-4-2/h3-10H2,1-2H3, purity 98.8%

System: ethyl nonanoate; phases: Liquid
Property: Speed of sound, m/s (Liquid); method: Light diffraction method
Temperature, K	Pressure, kPa	Speed of sound, m/s	uncertainty
295.67	100	1303.3	43
303.48	100	1273.9	42.1
313.77	100	1224.9	39.2
323.68	100	1183.3	36.7
334.94	100	1142.9	35.5
343.51	100	1107.8	33.3
354.18	100	1065.4	30.9
364.18	100	1028.8	29.9
371.99	100	1003	29.1
381.89	100	965.2	27.1
391.89	100	932.1	26.1
405.01	100	884	23.9
413.84	100	861.2	23.3
422.07	100	827.6	21.6
432.93	100	797.1	20.8
443.7	100	767.3	19.2
452.83	100	739.6	18.6
464.19	100	703.5	17.7
471.88	100	683	16.5
482.75	100	652.6	15.7
295.53	1000	1318.3	43.5
303.26	1000	1278.4	42.2
313.14	1000	1242.7	39.8
324.85	1000	1195.5	37.1
333.21	1000	1163.1	36.1
343.24	1000	1123.8	33.8
352.22	1000	1085.5	32.6
363.3	1000	1046	30.4
371.91	1000	1012.3	29.4
384.3	1000	971.3	27.2
391.75	1000	939.5	26.4
403.31	1000	902.3	24.4
412.98	1000	870.1	23.5
421.83	1000	842.1	22
431.53	1000	808.9	21.1
442.94	1000	779.7	20.3
452.5	1000	750.6	18.8
462.68	1000	720.1	18.1
471.87	1000	693.4	17.4
482.55	1000	665.4	16
493	1000	637.4	15.4
502.95	1000	607.9	14.7
513.2	1000	581.3	13.5
522.13	1000	555.5	12.9
533.35	1000	519.4	12
543.62	1000	491	10.9
552.71	1000	458.7	10.2
562.08	1000	428.6	9.6
571.96	1000	387.2	8.7
295.41	3000	1327.1	45.2
303.22	3000	1296.2	42.8
313.56	3000	1252.4	40.1
324.78	3000	1204.3	38.6
332.93	3000	1175.1	36.5
342.88	3000	1137.2	35.3
351.94	3000	1098.9	33
362.97	3000	1063.9	30.9
372.73	3000	1024.3	29.8
381.96	3000	995.2	27.9
391.81	3000	961.1	27
403.46	3000	921.8	24.9
412.73	3000	893.7	24.2
422.02	3000	862.5	23.3
432.05	3000	827.6	21.6
443.11	3000	796.4	20.8
452.88	3000	771.1	19.3
462.31	3000	743.5	18.7
471.8	3000	718.5	18
482.56	3000	691.9	16.7
492.57	3000	660.7	15.9
502.65	3000	635.1	15.3
512.83	3000	609.6	14.7
522.31	3000	583.9	13.5
533.6	3000	552.1	12.8
542.72	3000	528.8	12.3
552.52	3000	500.5	11.6
562.48	3000	468.4	10.4
571.78	3000	435.9	9.7
582.39	3000	393.3	8.8
591.81	3000	351.2	7.6
295.35	5000	1336.6	45.5
303.41	5000	1298	42.9
314.03	5000	1262.6	40.4
323.64	5000	1215.5	38.9
334.21	5000	1185	36.8
343.12	5000	1153.6	35.8
353.27	5000	1106.1	33.2
361.97	5000	1078.7	32.4
371.77	5000	1046.8	30.4
381.51	5000	1011.2	29.4
391.7	5000	974.2	27.3
403.82	5000	929.8	26.1
413.05	5000	904.2	24.5
421.5	5000	875.4	23.7
431.84	5000	850.9	22.2
443.15	5000	814.1	21.2
452.65	5000	786.9	20.5
462.49	5000	763	19.1
471.86	5000	737.7	18.5
482.62	5000	709.2	17.8
492.67	5000	681.7	16.4
503.42	5000	655.5	15.8
512.9	5000	633.5	15.3
522.36	5000	609.3	14.7
533.69	5000	581.4	13.5
542.91	5000	553.5	12.8
552.72	5000	527.6	12.2
562.32	5000	499.9	11.6
572.37	5000	472	10.5
582.01	5000	439.9	9.8
592.38	5000	398.5	8.9
295.29	7000	1342.4	45.7
303.3	7000	1307	43.2
313.45	7000	1266	41.8
322.95	7000	1231.4	39.4
334.21	7000	1191.7	37
343.31	7000	1157.3	35.9
353.32	7000	1114.4	33.5
362.59	7000	1085.6	32.6
373.26	7000	1045.8	30.4
383.69	7000	1011.5	29.4
391.74	7000	985.8	27.6
403.36	7000	943.9	26.5
412.81	7000	917.8	24.8
422	7000	891	24.1
431.88	7000	861.7	23.3
443	7000	835.6	21.8
452.64	7000	805	21
462.34	7000	783.1	20.4
471.86	7000	756.6	19
482.58	7000	727.2	18.2
492.66	7000	704.9	17.7
502.91	7000	681.8	16.4
512.78	7000	655	15.8
522.19	7000	631.9	15.2
533.43	7000	605.6	14.6
542.79	7000	583	13.5
552.61	7000	558.1	12.9
562.4	7000	532	12.3
572.13	7000	504.6	11.7
582.26	7000	473.6	10.5
592.79	7000	438.3	9.8
295.24	10000	1348.5	45.9
303.18	10000	1318	43.5
313.08	10000	1283.3	42.4
323.39	10000	1246.8	39.9
332.89	10000	1208.8	38.7
343.1	10000	1170.1	36.3
352.39	10000	1135	34.1
363	10000	1106.9	33.2
373.24	10000	1068.4	32.1
383.17	10000	1037.3	30.1
391.74	10000	1009.8	29.3
403.47	10000	968.6	27.2
412.73	10000	936.6	26.3
421.98	10000	916	24.8
431.86	10000	888.7	24
443.02	10000	860.3	23.3
452.68	10000	835.1	21.8
462.43	10000	804.8	21
471.95	10000	783.4	20.4
482.62	10000	759.9	19.1
492.48	10000	735.7	18.5
503.08	10000	709.9	17.8
512.8	10000	689.4	16.6
522.38	10000	662	16
533.52	10000	637	15.4
542.76	10000	619.6	14.9
552.76	10000	596.5	13.8
562.45	10000	574.7	13.3
572.32	10000	549	12.7
582.35	10000	525.5	12.2
593.15	10000	495.3	11

System: ethyl nonanoate; phases: Liquid
Fixed: Pressure, kPa = 100
Property: Mass density, kg/m3 (Liquid); method: Vibrating tube method
Temperature, K	Mass density, kg/m3	uncertainty
293.15	865.02	0.39
298.15	860.89	0.39
303.15	856.75	0.38
313.15	848.43	0.38
323.15	840.09	0.38
333.15	831.73	0.38
343.15	823.33	0.38
353.15	814.88	0.38
