Measured thermophysical data. Separation of Butanol Using Tetradecyl(trihexyl)phosphonium Bis(2,4,4-trimethylpentyl)phosphinate, Oleyl Alcohol, and Castor Oil
Source: J. Chem. Eng. Data, 2019, 10.1021/acs.jced.9b00211
Compound 1: butan-1-ol, C4H10O, InChI=1S/C4H10O/c1-2-3-4-5/h5H,2-4H2,1H3, purity 99.9%
Compound 2: trihexyltetradecylphosphonium bis(2,4,4-trimethylpentyl)phosphinate, C48H102O2P2, InChI=1S/C32H68P.C16H35O2P/c1-5-9-13-17-18-19-20-21-22-23-24-28-32-33(29-25-14-10-6-2,30-26-15-11-7-3)31-27-16-12-8-4;1-13(9-15(3,4)5)11-19(17,18)12-14(2)10-16(6,7)8/h5-32H2,1-4H3;13-14H,9-12H2,1-8H3,(H,17,18)/q+1;/p-1, purity 90%
Compound 3: water, H2O, InChI=1S/H2O/h1H2, purity 99.8%

System: butan-1-ol + trihexyltetradecylphosphonium bis(2,4,4-trimethylpentyl)phosphinate + water; phases: Liquid mixture 1, Liquid mixture 2
Fixed: Temperature, K = 298.15
Fixed: Pressure, kPa = 101.3
Property: Molality, mol/kg of butan-1-ol (Liquid mixture 1); method: chromatography
Molality, mol/kg of butan-1-ol	Molality, mol/kg of butan-1-ol	uncertainty
0.0399	0.3383	0.0406
0.0403	0.3379	0.0406
0.0265	0.275	0.0404
0.0275	0.2739	0.0404
0.0172	0.211	0.0402
0.0159	0.2125	0.0403
0.0146	0.1393	0.0401
0.0137	0.1403	0.0401
0.0027	0.0739	0.04
0.0026	0.074	0.04
0.0106	0.0267	0.0267
0.011	0.0263	0.0263
