Measured thermophysical data. Experimental High-Temperature, High-Pressure Density Measurement and Perturbed-Chain Statistical Associating Fluid Theory Modeling of Dimethyl Sulfoxide, Isoamyl Acetate, and Benzyl Alcohol
Source: J. Chem. Eng. Data, 2019, 10.1021/acs.jced.9b00396
Compound 1: dimethyl sulfoxide, C2H6OS, InChI=1S/C2H6OS/c1-4(2)3/h1-2H3, purity 99.5%
Compound 2: benzenemethanol, C7H8O, InChI=1S/C7H8O/c8-6-7-4-2-1-3-5-7/h1-5,8H,6H2, purity 99%
Compound 3: 3-methylbutyl ethanoate, C7H14O2, InChI=1S/C7H14O2/c1-6(2)4-5-9-7(3)8/h6H,4-5H2,1-3H3, purity 99%

System: dimethyl sulfoxide; phases: Liquid
Fixed: Pressure, kPa = 100
Property: Mass density, kg/m3 (Liquid); method: Vibrating tube method
Temperature, K	Mass density, kg/m3	uncertainty
293.15	1100.4	0.9
298.15	1095.4	0.9
313.15	1080.3	0.9
333.15	1060.2	0.9

System: dimethyl sulfoxide; phases: Liquid
Property: Refractive index (Na D-line) (Liquid); method: Standard Abbe refractometry
Temperature, K	Pressure, kPa	Refractive index (Na D-line)	uncertainty
298.15	100	1.47713	0.00033

System: dimethyl sulfoxide; phases: Liquid
Fixed: Pressure, kPa = 100
Fixed: Frequency, MHz = 3
Property: Speed of sound, m/s (Liquid); method: Single path-length method
Temperature, K	Speed of sound, m/s	uncertainty
293.15	1502	3
298.15	1485	3
313.15	1435	3
333.15	1368	3

System: dimethyl sulfoxide; phases: Liquid
Property: Mass density, kg/m3 (Liquid); method: Vibrating tube method
Temperature, K	Pressure, kPa	Mass density, kg/m3	uncertainty
293.15	500	1100	1
293.15	1000	1101	1
293.15	2500	1102	1
293.15	5000	1103	1
293.15	7500	1104	1
293.15	10000	1106	1
293.15	12500	1107	1
293.15	15000	1108	1
293.15	17500	1110	1
293.15	20000	1111	1
293.15	22500	1112	1
293.15	25000	1114	1
293.15	27500	1115	1
293.15	30000	1116	1
293.15	32500	1117	1
293.15	35000	1119	1
293.15	37500	1120	1
298.15	500	1095	1
298.15	1000	1096	1
298.15	2500	1096	1
298.15	5000	1098	1
298.15	7500	1099	1
298.15	10000	1101	1
298.15	12500	1102	1
298.15	15000	1103	1
298.15	17500	1105	1
298.15	20000	1106	1
298.15	22500	1107	1
298.15	25000	1109	1
298.15	27500	1110	1
298.15	30000	1111	1
298.15	32500	1113	1
298.15	35000	1114	1
298.15	37500	1115	1
313.15	500	1080	1
313.15	1000	1080	1
313.15	2500	1081	1
313.15	5000	1083	1
313.15	7500	1084	1
313.15	10000	1086	1
313.15	12500	1087	1
313.15	15000	1089	1
313.15	17500	1090	1
313.15	20000	1092	1
313.15	22500	1093	1
313.15	25000	1095	1
313.15	27500	1096	1
313.15	30000	1097	1
313.15	32500	1099	1
313.15	35000	1100	1
313.15	37500	1101	1
333.15	500	1060	1
333.15	1000	1060	1
333.15	2500	1061	1
333.15	5000	1063	1
333.15	7500	1065	1
333.15	10000	1066	1
333.15	12500	1068	1
333.15	15000	1070	1
333.15	17500	1071	1
333.15	20000	1073	1
333.15	22500	1074	1
333.15	25000	1076	1
333.15	27500	1077	1
333.15	30000	1079	1
333.15	32500	1080	1
333.15	35000	1082	1
333.15	37500	1083	1
353.15	500	1040	1
353.15	1000	1040	1
353.15	2500	1042	1
353.15	5000	1043	1
353.15	7500	1045	1
353.15	10000	1047	1
353.15	12500	1049	1
353.15	15000	1050	1
353.15	17500	1052	1
353.15	20000	1054	1
353.15	22500	1055	1
353.15	25000	1057	1
353.15	27500	1059	1
353.15	30000	1060	1
353.15	32500	1062	1
353.15	35000	1063	1
353.15	37500	1065	1
373.15	500	1020	1
373.15	1000	1020	1
373.15	2500	1022	1
373.15	5000	1024	1
373.15	7500	1026	1
373.15	10000	1027	1
373.15	12500	1029	1
373.15	15000	1031	1
373.15	17500	1033	1
373.15	20000	1035	1
373.15	22500	1037	1
373.15	25000	1038	1
373.15	27500	1040	1
373.15	30000	1042	1
373.15	32500	1044	1
373.15	35000	1045	1
373.15	37500	1047	1
393.15	500	999	1
393.15	1000	1000	1
393.15	2500	1001	1
393.15	5000	1004	1
393.15	7500	1006	1
393.15	10000	1008	1
393.15	12500	1010	1
393.15	15000	1012	1
393.15	17500	1014	1
393.15	20000	1016	1
393.15	22500	1018	1
393.15	25000	1020	1
393.15	27500	1022	1
393.15	30000	1024	1
393.15	32500	1025	1
393.15	35000	1027	1
393.15	37500	1029	1
413.15	500	979	1
413.15	1000	979	1
413.15	2500	981	1
413.15	5000	983	1
413.15	7500	986	1
413.15	10000	988	1
413.15	12500	990	1
413.15	15000	993	1
413.15	17500	995	1
413.15	20000	997	1
413.15	22500	999	1
413.15	25000	1001	1
413.15	27500	1003	1
413.15	30000	1005	1
413.15	32500	1007	1
413.15	35000	1009	1
413.15	37500	1011	1
433.15	500	958	1
433.15	1000	958	1
433.15	2500	960	1
433.15	5000	963	1
433.15	7500	966	1
433.15	10000	968	1
433.15	12500	971	1
433.15	15000	973	1
433.15	17500	976	1
433.15	20000	978	1
433.15	22500	980	1
433.15	25000	983	1
433.15	27500	985	1
433.15	30000	987	1
433.15	32500	989	1
433.15	35000	991	1
433.15	37500	993	1
453.15	500	936	1
453.15	1000	937	1
453.15	2500	939	1
453.15	5000	942	1
453.15	7500	945	1
453.15	10000	948	1
453.15	12500	951	1
453.15	15000	953	1
453.15	17500	956	1
453.15	20000	959	1
453.15	22500	961	1
453.15	25000	964	1
453.15	27500	966	1
453.15	30000	969	1
453.15	32500	971	1
453.15	35000	973	1
453.15	37500	976	1
473.15	500	914	1
473.15	1000	915	1
473.15	2500	917	1
473.15	5000	921	1
473.15	7500	924	1
473.15	10000	927	1
473.15	12500	930	1
473.15	15000	933	1
473.15	17500	936	1
473.15	20000	939	1
473.15	22500	942	1
473.15	25000	945	1
473.15	27500	948	1
473.15	30000	950	1
473.15	32500	953	1
473.15	35000	955	1
473.15	37500	958	1

System: benzenemethanol; phases: Liquid
Fixed: Pressure, kPa = 100
Property: Mass density, kg/m3 (Liquid); method: Vibrating tube method
Temperature, K	Mass density, kg/m3	uncertainty
293.15	1045.6	0.9
298.15	1041.8	0.9
313.15	1030	0.9
333.15	1011.3	0.9

System: benzenemethanol; phases: Liquid
Property: Refractive index (Na D-line) (Liquid); method: Standard Abbe refractometry
Temperature, K	Pressure, kPa	Refractive index (Na D-line)	uncertainty
298.15	100	1.53876	0.00037

System: benzenemethanol; phases: Liquid
Fixed: Pressure, kPa = 100
Fixed: Frequency, MHz = 3
Property: Speed of sound, m/s (Liquid); method: Single path-length method
Temperature, K	Speed of sound, m/s	uncertainty
293.15	1541	3
298.15	1526	3
313.15	1479	3
333.15	1417	3

System: benzenemethanol; phases: Liquid
Property: Mass density, kg/m3 (Liquid); method: Vibrating tube method
Temperature, K	Pressure, kPa	Mass density, kg/m3	uncertainty
298.15	500	1042	1
298.15	1000	1042	1
298.15	2500	1043	1
298.15	5000	1044	1
298.15	7500	1045	1
298.15	10000	1046	1
298.15	12500	1047	1
298.15	15000	1049	1
298.15	17500	1050	1
298.15	20000	1051	1
298.15	22500	1052	1
298.15	25000	1053	1
298.15	27500	1055	1
298.15	30000	1056	1
298.15	32500	1057	1
298.15	35000	1058	1
318.15	500	1026	1
318.15	1000	1026	1
318.15	2500	1027	1
318.15	5000	1028	1
318.15	7500	1030	1
318.15	10000	1031	1
318.15	12500	1032	1
318.15	15000	1034	1
318.15	17500	1035	1
318.15	20000	1036	1
318.15	22500	1037	1
318.15	25000	1039	1
318.15	27500	1040	1
318.15	30000	1041	1
318.15	32500	1042	1
318.15	35000	1043	1
338.15	500	1010	1
338.15	1000	1010	1
338.15	2500	1011	1
338.15	5000	1013	1
338.15	7500	1014	1
338.15	10000	1016	1
338.15	12500	1017	1
338.15	15000	1018	1
338.15	17500	1020	1
338.15	20000	1021	1
338.15	22500	1023	1
338.15	25000	1024	1
338.15	27500	1025	1
338.15	30000	1026	1
338.15	32500	1028	1
338.15	35000	1029	1
358.15	500	994	1
358.15	1000	994	1
358.15	2500	995	1
358.15	5000	997	1
358.15	7500	998	1
358.15	10000	1000	1
358.15	12500	1001	1
358.15	15000	1003	1
358.15	17500	1005	1
358.15	20000	1006	1
358.15	22500	1007	1
358.15	25000	1009	1
358.15	27500	1010	1
358.15	30000	1012	1
358.15	32500	1013	1
358.15	35000	1014	1
378.15	500	977	1
378.15	1000	978	1
378.15	2500	979	1
378.15	5000	980	1
378.15	7500	982	1
378.15	10000	984	1
378.15	12500	985	1
378.15	15000	987	1
378.15	17500	989	1
378.15	20000	990	1
378.15	22500	992	1
378.15	25000	994	1
378.15	27500	995	1
378.15	30000	997	1
378.15	32500	998	1
378.15	35000	1000	1
398.15	500	960	1
398.15	1000	960	1
398.15	2500	962	1
398.15	5000	963	1
398.15	7500	965	1
398.15	10000	967	1
398.15	12500	969	1
398.15	15000	971	1
398.15	17500	973	1
398.15	20000	974	1
398.15	22500	976	1
398.15	25000	978	1
398.15	27500	979	1
398.15	30000	981	1
398.15	32500	983	1
398.15	35000	985	1
418.15	500	942	1
418.15	1000	943	1
418.15	2500	944	1
418.15	5000	946	1
418.15	7500	948	1
418.15	10000	950	1
418.15	12500	952	1
418.15	15000	954	1
418.15	17500	956	1
418.15	20000	958	1
418.15	22500	960	1
418.15	25000	962	1
418.15	27500	964	1
418.15	30000	965	1
418.15	32500	967	1
418.15	35000	969	1
438.15	500	924	1
438.15	1000	924	1
438.15	2500	926	1
438.15	5000	928	1
438.15	7500	930	1
438.15	10000	933	1
438.15	12500	935	1
438.15	15000	937	1
438.15	17500	939	1
438.15	20000	941	1
438.15	22500	944	1
438.15	25000	946	1
438.15	27500	948	1
438.15	30000	949	1
438.15	32500	952	1
438.15	35000	953	1
458.15	500	904	1
458.15	1000	905	1
458.15	2500	907	1
458.15	5000	909	1
458.15	7500	912	1
458.15	10000	915	1
458.15	12500	917	1
458.15	15000	920	1
458.15	17500	922	1
458.15	20000	924	1
458.15	22500	927	1
458.15	25000	929	1
458.15	27500	931	1
458.15	30000	933	1
458.15	32500	935	1
458.15	35000	937	1
473.15	500	889	1
473.15	1000	891	1
473.15	2500	892	1
473.15	5000	895	1
473.15	7500	898	1
473.15	10000	901	1
473.15	12500	903	1
473.15	15000	906	1
473.15	17500	909	1
473.15	20000	911	1
473.15	22500	914	1
473.15	25000	916	1
473.15	27500	919	1
473.15	30000	921	1
473.15	32500	923	1
473.15	35000	925	1

System: 3-methylbutyl ethanoate; phases: Liquid
Fixed: Pressure, kPa = 100
Property: Mass density, kg/m3 (Liquid); method: Vibrating tube method
Temperature, K	Mass density, kg/m3	uncertainty
293.15	872.9	0.9
298.15	868	0.9
313.15	853.3	0.9
333.15	833.3	0.9

System: 3-methylbutyl ethanoate; phases: Liquid
Property: Refractive index (Na D-line) (Liquid); method: Standard Abbe refractometry
Temperature, K	Pressure, kPa	Refractive index (Na D-line)	uncertainty
298.15	100	1.39852	0.00037

System: 3-methylbutyl ethanoate; phases: Liquid
Fixed: Pressure, kPa = 100
Fixed: Frequency, MHz = 3
Property: Speed of sound, m/s (Liquid); method: Single path-length method
Temperature, K	Speed of sound, m/s	uncertainty
293.15	1213	3
298.15	1193	3
313.15	1132	3
333.15	1045	3

System: 3-methylbutyl ethanoate; phases: Liquid
Property: Mass density, kg/m3 (Liquid); method: Vibrating tube method
Temperature, K	Pressure, kPa	Mass density, kg/m3	uncertainty
293.15	500	874	1
293.15	1000	874	1
293.15	2500	875	1
293.15	5000	877	1
293.15	7500	879	1
293.15	10000	881	1
293.15	12500	883	1
293.15	15000	885	1
293.15	17500	887	1
293.15	20000	889	1
293.15	22500	891	1
293.15	25000	893	1
293.15	27500	895	1
293.15	30000	896	1
293.15	32500	898	1
293.15	35000	899	1
293.15	37500	901	1
298.15	500	869	1
298.15	1000	869	1
298.15	2500	870	1
298.15	5000	873	1
298.15	7500	875	1
298.15	10000	877	1
298.15	12500	879	1
298.15	15000	881	1
298.15	17500	883	1
298.15	20000	885	1
298.15	22500	886	1
298.15	25000	888	1
298.15	27500	890	1
298.15	30000	892	1
298.15	32500	894	1
298.15	35000	895	1
298.15	37500	897	1
313.15	500	854	1
313.15	1000	854	1
313.15	2500	856	1
313.15	5000	858	1
313.15	7500	861	1
313.15	10000	863	1
313.15	12500	865	1
313.15	15000	867	1
313.15	17500	869	1
313.15	20000	871	1
313.15	22500	873	1
313.15	25000	875	1
313.15	27500	877	1
313.15	30000	879	1
313.15	32500	881	1
313.15	35000	883	1
313.15	37500	885	1
333.15	500	834	1
333.15	1000	834	1
333.15	2500	836	1
333.15	5000	839	1
333.15	7500	842	1
333.15	10000	844	1
333.15	12500	847	1
333.15	15000	849	1
333.15	17500	851	1
333.15	20000	854	1
333.15	22500	856	1
333.15	25000	858	1
333.15	27500	860	1
333.15	30000	862	1
333.15	32500	864	1
333.15	35000	866	1
333.15	37500	868	1
353.15	500	814	1
353.15	1000	814	1
353.15	2500	816	1
353.15	5000	819	1
353.15	7500	823	1
353.15	10000	825	1
353.15	12500	828	1
353.15	15000	831	1
353.15	17500	834	1
353.15	20000	836	1
353.15	22500	839	1
353.15	25000	841	1
353.15	27500	843	1
353.15	30000	846	1
353.15	32500	848	1
353.15	35000	850	1
353.15	37500	852	1
373.15	500	793	1
373.15	1000	794	1
373.15	2500	796	1
373.15	5000	800	1
373.15	7500	803	1
373.15	10000	806	1
373.15	12500	810	1
373.15	15000	813	1
373.15	17500	816	1
373.15	20000	818	1
373.15	22500	821	1
373.15	25000	824	1
373.15	27500	827	1
373.15	30000	829	1
373.15	32500	832	1
373.15	35000	834	1
373.15	37500	836	1
393.15	500	772	1
393.15	1000	773	1
393.15	2500	775	1
393.15	5000	779	1
393.15	7500	783	1
393.15	10000	787	1
393.15	12500	791	1
393.15	15000	794	1
393.15	17500	798	1
393.15	20000	801	1
393.15	22500	804	1
393.15	25000	807	1
393.15	27500	810	1
393.15	30000	812	1
393.15	32500	815	1
393.15	35000	818	1
393.15	37500	820	1
413.15	500	750	1
413.15	1000	751	1
413.15	2500	754	1
413.15	5000	759	1
413.15	7500	763	1
413.15	10000	768	1
413.15	12500	772	1
413.15	15000	776	1
413.15	17500	779	1
413.15	20000	783	1
413.15	22500	786	1
413.15	25000	790	1
413.15	27500	793	1
413.15	30000	796	1
413.15	32500	799	1
413.15	35000	802	1
413.15	37500	805	1
433.15	500	726	1
433.15	1000	727	1
433.15	2500	731	1
433.15	5000	737	1
433.15	7500	742	1
433.15	10000	747	1
433.15	12500	752	1
433.15	15000	757	1
433.15	17500	761	1
433.15	20000	765	1
433.15	22500	769	1
433.15	25000	772	1
433.15	27500	776	1
433.15	30000	779	1
433.15	32500	783	1
433.15	35000	786	1
433.15	37500	789	1
453.15	500	701	1
453.15	1000	703	1
453.15	2500	707	1
453.15	5000	714	1
453.15	7500	721	1
453.15	10000	727	1
453.15	12500	732	1
453.15	15000	737	1
453.15	17500	742	1
453.15	20000	747	1
453.15	22500	751	1
453.15	25000	755	1
453.15	27500	759	1
453.15	30000	763	1
453.15	32500	766	1
453.15	35000	770	1
453.15	37500	773	1
473.15	500	674	1
473.15	1000	676	1
473.15	2500	682	1
473.15	5000	691	1
473.15	7500	698	1
473.15	10000	705	1
473.15	12500	712	1
473.15	15000	717	1
473.15	17500	723	1
473.15	20000	728	1
473.15	22500	733	1
473.15	25000	738	1
473.15	27500	742	1
473.15	30000	746	1
473.15	32500	750	1
473.15	35000	754	1
473.15	37500	757	1
