Measured thermophysical data. Crystallization Temperature, Vapor Pressure, Density, Viscosity, and Specific Heat Capacity of the LiNO3/[BMIM]Cl/H2O Ternary System
Source: J. Chem. Eng. Data, 2017, 10.1021/acs.jced.7b00059
Compound 1: lithium nitrate, LiNO3, InChI=1S/Li.NO3/c;2-1(3)4/q+1;-1, purity 99.5%
Compound 2: 1-butyl-3-methylimidazolium chloride, C8H15ClN2, InChI=1S/C8H15N2.ClH/c1-3-4-5-10-7-6-9(2)8-10;/h6-8H,3-5H2,1-2H3;1H/q+1;/p-1, purity 99%
Compound 3: water, H2O, InChI=1S/H2O/h1H2, purity 99.9%

System: 1-butyl-3-methylimidazolium chloride; phases: Crystal, Liquid, Air at 1 atmosphere
Property: Triple point temperature, K (Crystal); method: DSC
Triple point temperature, K	uncertainty
343.15	4.06

System: water + lithium nitrate + 1-butyl-3-methylimidazolium chloride; phases: Liquid, Gas
Fixed: Solvent: Mass ratio of component to other component of binary solvent of lithium nitrate = 2
Property: Vapor or sublimation pressure, kPa (Liquid); method: Closed cell (Static) method
Temperature, K	Mass fraction of water	Vapor or sublimation pressure, kPa	uncertainty
298.45	0.45	1.598	0.075
302.65	0.45	2.059	0.096
308.75	0.45	2.879	0.131
313.55	0.45	3.741	0.169
318.45	0.45	4.875	0.22
323.55	0.45	6.421	0.287
328.25	0.45	8.14	0.365
333.85	0.45	10.693	0.475
338.55	0.45	13.462	0.593
343.45	0.45	16.683	0.741
353.85	0.45	26.072	1.149
363.85	0.45	38.759	1.678
373.45	0.45	54.597	2.354
384.85	0.45	78.841	3.33
392.05	0.45	97.68	4.067
298.45	0.4	1.271	0.062
303.15	0.4	1.703	0.08
308.05	0.4	2.233	0.103
312.85	0.4	2.896	0.134
317.85	0.4	3.795	0.174
322.55	0.4	4.881	0.225
328.15	0.4	6.544	0.297
333.65	0.4	8.645	0.387
338.35	0.4	10.862	0.49
343.05	0.4	13.518	0.602
352.35	0.4	20.418	0.902
362.65	0.4	31.293	1.364
373.45	0.4	46.637	2.002
383.15	0.4	64.716	2.751
388.95	0.4	77.696	3.31
396.75	0.4	97.613	4.078
298.15	0.35	0.971	0.049
303.75	0.35	1.389	0.066
308.25	0.35	1.791	0.084
313.35	0.35	2.356	0.11
318.45	0.35	3.102	0.144
323.45	0.35	4.053	0.187
328.45	0.35	5.26	0.242
333.35	0.35	6.787	0.313
339.15	0.35	8.869	0.402
342.75	0.35	10.746	0.495
353.55	0.35	17.583	0.781
363.65	0.35	26.759	1.176
373.65	0.35	39.16	1.71
383.15	0.35	55.062	2.378
393.65	0.35	76.406	3.288
402.45	0.35	98.298	4.186
298.55	0.3	0.752	0.04
302.65	0.3	1.004	0.051
307.75	0.3	1.348	0.066
313.05	0.3	1.792	0.086
318.55	0.3	2.407	0.115
323.35	0.3	3.105	0.147
328.85	0.3	4.167	0.194
334.15	0.3	5.395	0.25
338.65	0.3	6.873	0.318
344.05	0.3	8.936	0.414
353.15	0.3	13.655	0.625
362.25	0.3	20.187	0.922
373.35	0.3	31.315	1.397
382.45	0.3	43.544	1.942
393.55	0.3	62.981	2.753
404.35	0.3	86.639	3.72
409.15	0.3	98.559	4.202
323.15	0.25	2.331	0.116
328.25	0.25	3.06	0.15
332.55	0.25	3.818	0.182
344.15	0.25	6.861	0.311
353.55	0.25	10.761	0.488
363.75	0.25	16.774	0.749
373.25	0.25	24.613	1.104
383.75	0.25	36.345	1.603
393.65	0.25	50.937	2.248
403.15	0.25	68.791	3.034
408.15	0.25	79.442	3.488
416.45	0.25	97.541	4.165

System: water + lithium nitrate + 1-butyl-3-methylimidazolium chloride; phases: Liquid
Fixed: Pressure, kPa = 100
Fixed: Solvent: Mass ratio of component to other component of binary solvent of lithium nitrate = 2
Property: Mass density, kg/m3 (Liquid); method: Pycnometric method
Temperature, K	Mass fraction of water	Mass density, kg/m3	uncertainty
293.15	0.45	1280	6
303.15	0.45	1275	6
313.15	0.45	1267	6
323.15	0.45	1262	6
333.15	0.45	1255	6
343.15	0.45	1249	6
353.15	0.45	1242	6
363.15	0.45	1235	6
373.15	0.45	1227	6
293.15	0.4	1309	6
303.15	0.4	1302	6
313.15	0.4	1296	7
323.15	0.4	1288	6
333.15	0.4	1282	6
343.15	0.4	1275	6
353.15	0.4	1268	6
363.15	0.4	1261	6
373.15	0.4	1255	6
293.15	0.35	1340	6
303.15	0.35	1333	6
313.15	0.35	1327	6
323.15	0.35	1320	7
333.15	0.35	1313	6
343.15	0.35	1306	6
353.15	0.35	1298	6
363.15	0.35	1291	6
373.15	0.35	1285	6
293.15	0.3	1367	6
303.15	0.3	1360	6
313.15	0.3	1355	6
323.15	0.3	1348	6
333.15	0.3	1341	6
343.15	0.3	1334	6
353.15	0.3	1327	6
363.15	0.3	1320	6
373.15	0.3	1313	6
323.15	0.25	1377	6
333.15	0.25	1369	6
343.15	0.25	1362	6
353.15	0.25	1355	6
363.15	0.25	1345	6
373.15	0.25	1337	6

System: water + lithium nitrate + 1-butyl-3-methylimidazolium chloride; phases: Liquid
Fixed: Pressure, kPa = 100
Fixed: Solvent: Mass ratio of component to other component of binary solvent of lithium nitrate = 2
Property: Kinematic viscosity, m2/s (Liquid); method: Capillary tube (Ostwald; Ubbelohde) method
Temperature, K	Mass fraction of water	Kinematic viscosity, m2/s	uncertainty
293.15	0.45	5.283e-06	3.69e-07
303.15	0.45	4.026e-06	2.76e-07
313.15	0.45	3.162e-06	2.16e-07
323.15	0.45	2.531e-06	1.71e-07
333.15	0.45	2.1e-06	1.4e-07
343.15	0.45	1.767e-06	1.17e-07
353.15	0.45	1.538e-06	1e-07
363.15	0.45	1.376e-06	8.8e-08
373.15	0.45	1.244e-06	7.9e-08
293.15	0.4	7.617e-06	5.19e-07
303.15	0.4	5.784e-06	3.93e-07
313.15	0.4	4.518e-06	3.05e-07
323.15	0.4	3.57e-06	2.41e-07
333.15	0.4	2.885e-06	1.92e-07
343.15	0.4	2.392e-06	1.57e-07
353.15	0.4	2.023e-06	1.31e-07
363.15	0.4	1.76e-06	1.13e-07
373.15	0.4	1.537e-06	9.8e-08
293.15	0.35	1.1351e-05	7.94e-07
303.15	0.35	8.561e-06	5.97e-07
313.15	0.35	6.569e-06	4.54e-07
323.15	0.35	5.222e-06	3.56e-07
333.15	0.35	4.138e-06	2.8e-07
343.15	0.35	3.311e-06	2.22e-07
353.15	0.35	2.756e-06	1.82e-07
363.15	0.35	2.327e-06	1.52e-07
373.15	0.35	2.025e-06	1.31e-07
293.15	0.3	1.7706e-05	1.182e-06
303.15	0.3	1.3274e-05	8.99e-07
313.15	0.3	1.0071e-05	6.78e-07
323.15	0.3	7.719e-06	5.42e-07
333.15	0.3	6.053e-06	4.19e-07
343.15	0.3	4.789e-06	3.29e-07
353.15	0.3	3.905e-06	2.65e-07
363.15	0.3	3.235e-06	2.17e-07
373.15	0.3	2.741e-06	1.83e-07
323.15	0.25	1.2177e-05	8.16e-07
333.15	0.25	9.259e-06	6.25e-07
343.15	0.25	7.251e-06	4.85e-07
353.15	0.25	5.783e-06	3.84e-07
363.15	0.25	4.72e-06	3.12e-07
373.15	0.25	4.004e-06	2.62e-07

System: water + lithium nitrate + 1-butyl-3-methylimidazolium chloride; phases: Liquid
Fixed: Pressure, kPa = 100
Fixed: Solvent: Mass ratio of component to other component of binary solvent of lithium nitrate = 2
Property: Specific heat capacity at constant pressure, J/K/kg (Liquid); method: DSC
Temperature, K	Mass fraction of water	Specific heat capacity at constant pressure, J/K/kg	uncertainty
293.15	0.45	2.71	0.14
303.15	0.45	2.73	0.14
313.15	0.45	2.75	0.14
323.15	0.45	2.77	0.14
333.15	0.45	2.78	0.14
343.15	0.45	2.79	0.14
353.15	0.45	2.81	0.14
363.15	0.45	2.84	0.14
373.15	0.45	2.88	0.14
293.15	0.4	2.64	0.14
303.15	0.4	2.66	0.14
313.15	0.4	2.67	0.14
323.15	0.4	2.69	0.14
333.15	0.4	2.7	0.14
343.15	0.4	2.72	0.14
353.15	0.4	2.73	0.14
363.15	0.4	2.75	0.14
373.15	0.4	2.79	0.14
293.15	0.35	2.57	0.14
303.15	0.35	2.58	0.14
313.15	0.35	2.59	0.14
323.15	0.35	2.61	0.14
333.15	0.35	2.63	0.14
343.15	0.35	2.64	0.14
353.15	0.35	2.66	0.14
363.15	0.35	2.68	0.14
373.15	0.35	2.71	0.14
293.15	0.3	2.5	0.13
303.15	0.3	2.51	0.13
313.15	0.3	2.53	0.13
323.15	0.3	2.54	0.13
333.15	0.3	2.56	0.14
343.15	0.3	2.57	0.14
353.15	0.3	2.59	0.14
363.15	0.3	2.61	0.14
373.15	0.3	2.64	0.14
323.15	0.25	2.49	0.13
333.15	0.25	2.5	0.13
343.15	0.25	2.51	0.13
353.15	0.25	2.52	0.13
363.15	0.25	2.55	0.13
373.15	0.25	2.58	0.14

System: water + lithium nitrate + 1-butyl-3-methylimidazolium chloride; phases: Liquid, Crystal of intercomponent compound 1
Fixed: Pressure, kPa = 100
Property: Solid-liquid equilibrium temperature, K (Liquid); method: VISOBS
Mass fraction of water	Solvent: Mass ratio of component to other component of binary solvent of lithium nitrate	Solid-liquid equilibrium temperature, K	uncertainty
0.35	2	270	4
0.35	2.5	275	4
0.35	3	274	4
0.31	2	271	4
0.31	2.5	274	4
0.31	3	283	4
0.33	2	272	4
0.29	2	269	4

System: water + lithium nitrate + 1-butyl-3-methylimidazolium chloride; phases: Liquid, Crystal
Fixed: Pressure, kPa = 100
Property: Solid-liquid equilibrium temperature, K (Liquid); method: VISOBS
Mass fraction of water	Solvent: Mass ratio of component to other component of binary solvent of lithium nitrate	Solid-liquid equilibrium temperature, K	uncertainty
0.27	2	282	4
0.27	2.5	311	4
0.27	3	323	4
0.25	2	313	4
