Measured thermophysical data. Solubility of Vitamin E Acetate in Supercritical Carbon Dioxide with Ethanol as Cosolvent
Source: J. Chem. Eng. Data, 2018, 10.1021/acs.jced.8b00745
Compound 1: DL-.alpha.-tocopherol acetate, C31H52O3, InChI=1S/C31H52O3/c1-21(2)13-10-14-22(3)15-11-16-23(4)17-12-19-31(9)20-18-28-26(7)29(33-27(8)32)24(5)25(6)30(28)34-31/h21-23H,10-20H2,1-9H3/t22-,23-,31-/m1/s1, purity 96%
Compound 2: ethanol, C2H6O, InChI=1S/C2H6O/c1-2-3/h3H,2H2,1H3, purity 99.7%
Compound 3: carbon dioxide, CO2, InChI=1S/CO2/c2-1-3, purity 99.9%

System: DL-.alpha.-tocopherol acetate + ethanol + carbon dioxide; phases: Gas, Crystal
Property: Vapor or sublimation pressure, kPa (Gas); method: Closed cell (Static) method
Temperature, K	Solvent: Mole fraction of ethanol	Mass fraction of DL-.alpha.-tocopherol acetate	Vapor or sublimation pressure, kPa	uncertainty
313.15	0.005	0.000271	9400	70
313.15	0.005	0.000348	9600	70
313.15	0.005	0.00043	9850	70
313.15	0.005	0.000507	10070	70
313.15	0.005	0.000565	10250	70
313.15	0.005	0.000642	10470	80
313.15	0.01	0.000302	9150	70
313.15	0.01	0.000377	9360	70
313.15	0.01	0.000459	9520	70
313.15	0.01	0.000511	9730	80
313.15	0.01	0.000581	10030	80
313.15	0.01	0.000653	10180	70
313.15	0.02	0.000339	8890	80
313.15	0.02	0.000421	9060	80
313.15	0.02	0.000486	9150	80
313.15	0.02	0.00055	9300	100
313.15	0.02	0.000617	9530	90
313.15	0.02	0.000687	9730	80
318.15	0.01	0.000292	10230	70
318.15	0.01	0.00037	10510	70
318.15	0.01	0.000452	10730	70
318.15	0.01	0.000507	10990	80
318.15	0.01	0.00058	11330	80
318.15	0.01	0.000653	11490	70
318.15	0.005	0.000269	10520	70
318.15	0.005	0.000348	10750	70
318.15	0.005	0.000429	11060	70
318.15	0.005	0.000512	11300	70
318.15	0.005	0.000563	11560	80
318.15	0.005	0.00064	11820	80
318.15	0.02	0.000315	9940	70
318.15	0.02	0.000401	10190	70
318.15	0.02	0.000462	10350	70
318.15	0.02	0.00053	10510	80
318.15	0.02	0.000604	10780	80
318.15	0.02	0.000676	11030	80
323.15	0.005	0.00027	11560	70
323.15	0.005	0.000349	11840	70
323.15	0.005	0.00043	12180	70
323.15	0.005	0.000517	12460	80
323.15	0.005	0.000563	12780	80
323.15	0.005	0.000639	13070	80
323.15	0.01	0.000289	11250	70
323.15	0.01	0.00037	11580	70
323.15	0.01	0.000452	11850	80
323.15	0.01	0.000508	12160	80
323.15	0.01	0.000582	12510	80
323.15	0.01	0.000652	12710	80
323.15	0.02	0.00031	10930	70
323.15	0.02	0.000399	11220	70
323.15	0.02	0.000455	11440	80
323.15	0.02	0.000523	11640	80
323.15	0.02	0.000603	11930	80
323.15	0.02	0.000677	12200	80
328.15	0.01	0.000287	12250	70
328.15	0.01	0.000366	12660	70
328.15	0.01	0.00045	12920	80
328.15	0.01	0.000508	13290	80
328.15	0.01	0.000582	13640	80
328.15	0.01	0.000653	13850	80
328.15	0.005	0.00027	12600	70
328.15	0.005	0.000348	12900	70
328.15	0.005	0.00043	13280	70
328.15	0.005	0.000522	13580	80
328.15	0.005	0.000565	13890	80
328.15	0.005	0.000643	14160	80
328.15	0.02	0.00031	11890	70
328.15	0.02	0.000401	12240	80
328.15	0.02	0.000448	12510	80
328.15	0.02	0.000519	12730	80
328.15	0.02	0.000598	13080	80
328.15	0.02	0.000674	13350	80
