Measured thermophysical data. Solubility of Toltrazuril and the Effect of a Cosolvent
Source: J. Chem. Eng. Data, 2018, 10.1021/acs.jced.8b00581
Compound 1: toltrazuril, C18H14F3N3O4S, InChI=1S/C18H14F3N3O4S/c1-10-9-11(24-16(26)22-15(25)23(2)17(24)27)3-8-14(10)28-12-4-6-13(7-5-12)29-18(19,20)21/h3-9H,1-2H3,(H,22,25,26), purity 99.6%
Compound 2: ethanol, C2H6O, InChI=1S/C2H6O/c1-2-3/h3H,2H2,1H3, purity 99.8%
Compound 3: propan-2-ol, C3H8O, InChI=1S/C3H8O/c1-3(2)4/h3-4H,1-2H3, purity 99.8%
Compound 4: dichloromethane, CH2Cl2, InChI=1S/CH2Cl2/c2-1-3/h1H2, purity 99.5%
Compound 5: toluene, C7H8, InChI=1S/C7H8/c1-7-5-3-2-4-6-7/h2-6H,1H3, purity 99.6%
Compound 6: ethyl acetate, C4H8O2, InChI=1S/C4H8O2/c1-3-6-4(2)5/h3H2,1-2H3, purity 99.5%
Compound 7: water, H2O, InChI=1S/H2O/h1H2, purity 99.9%
Compound 8: methanol, CH4O, InChI=1S/CH4O/c1-2/h2H,1H3, purity 99.9%

System: toltrazuril + water; phases: Liquid, Crystal
Fixed: Pressure, kPa = 101.3
Property: Mole fraction of toltrazuril (Liquid); method: Chromatography
Temperature, K	Mole fraction of toltrazuril	uncertainty
283.15	1.206e-05	6.5e-07
288.15	1.445e-05	7.8e-07
293.15	1.685e-05	9.1e-07
298.15	1.929e-05	1.04e-06
303.15	2.18e-05	1.18e-06
308.15	2.432e-05	1.31e-06
313.15	2.704e-05	1.46e-06
318.15	2.975e-05	1.61e-06
323.15	3.243e-05	1.75e-06

System: toltrazuril + methanol; phases: Liquid, Crystal
Fixed: Pressure, kPa = 101.3
Property: Mole fraction of toltrazuril (Liquid); method: Chromatography
Temperature, K	Mole fraction of toltrazuril	uncertainty
283.15	0.001406	7.6e-05
288.15	0.00169	9.1e-05
293.15	0.001975	0.000107
298.15	0.00232	0.000125
303.15	0.002674	0.000145
308.15	0.003026	0.000164
313.15	0.003433	0.000186
318.15	0.00384	0.000208
323.15	0.004303	0.000233

System: toltrazuril + ethanol; phases: Liquid, Crystal
Fixed: Pressure, kPa = 101.3
Property: Mole fraction of toltrazuril (Liquid); method: Chromatography
Temperature, K	Mole fraction of toltrazuril	uncertainty
283.15	0.0009076	4.91e-05
288.15	0.001118	6e-05
293.15	0.001328	7.2e-05
298.15	0.001567	8.5e-05
303.15	0.001823	9.9e-05
308.15	0.002099	0.000113
313.15	0.002412	0.00013
318.15	0.002725	0.000147
323.15	0.003079	0.000166

System: toltrazuril + propan-2-ol; phases: Liquid, Crystal
Fixed: Pressure, kPa = 101.3
Property: Mole fraction of toltrazuril (Liquid); method: Chromatography
Temperature, K	Mole fraction of toltrazuril	uncertainty
283.15	0.000483	2.61e-05
288.15	0.0006281	3.4e-05
293.15	0.0007815	4.23e-05
298.15	0.0009795	5.3e-05
303.15	0.001193	6.4e-05
308.15	0.001414	7.6e-05
313.15	0.001684	9.1e-05
318.15	0.001953	0.000106
323.15	0.002285	0.000124

System: toltrazuril + ethyl acetate; phases: Liquid, Crystal
Fixed: Pressure, kPa = 101.3
Property: Mole fraction of toltrazuril (Liquid); method: Chromatography
Temperature, K	Mole fraction of toltrazuril	uncertainty
283.15	0.007028	0.00038
288.15	0.007881	0.000426
293.15	0.008734	0.000472
298.15	0.00964	0.000521
303.15	0.01054	0.00057
308.15	0.01147	0.00062
313.15	0.01241	0.00067
318.15	0.01335	0.00072
323.15	0.01442	0.00078

System: toltrazuril + toluene; phases: Liquid, Crystal
Fixed: Pressure, kPa = 101.3
Property: Mole fraction of toltrazuril (Liquid); method: Chromatography
Temperature, K	Mole fraction of toltrazuril	uncertainty
283.15	0.002281	0.000123
288.15	0.00256	0.000138
293.15	0.002838	0.000153
298.15	0.003132	0.000169
303.15	0.003459	0.000187
308.15	0.003786	0.000205
313.15	0.00413	0.000223
318.15	0.004475	0.000242
323.15	0.004855	0.000262

System: toltrazuril + dichloromethane; phases: Liquid, Crystal
Fixed: Pressure, kPa = 101.3
Property: Mole fraction of toltrazuril (Liquid); method: Chromatography
Temperature, K	Mole fraction of toltrazuril	uncertainty
283.15	0.004304	0.000233
288.15	0.004904	0.000265
293.15	0.005504	0.000297
298.15	0.006103	0.00033
303.15	0.006782	0.000367
308.15	0.007434	0.000402

System: toltrazuril + propan-2-ol + water; phases: Liquid, Crystal
Fixed: Pressure, kPa = 101.3
Property: Mole fraction of toltrazuril (Liquid); method: Chromatography
Solvent: Mass fraction of propan-2-ol	Temperature, K	Mole fraction of toltrazuril	uncertainty
0	283.15	1.206e-05	9.4e-07
0	288.15	1.445e-05	1.13e-06
0	293.15	1.685e-05	1.31e-06
0	298.15	1.929e-05	1.51e-06
0	303.15	2.18e-05	1.7e-06
0	308.15	2.432e-05	1.9e-06
0	313.15	2.704e-05	2.11e-06
0	318.15	2.975e-05	2.32e-06
0	323.15	3.243e-05	2.53e-06
0.4588	283.15	0.0001148	1.05e-05
0.4588	288.15	0.0001435	1.33e-05
0.4588	293.15	0.0001738	1.63e-05
0.4588	298.15	0.0002132	1.99e-05
0.4588	303.15	0.0002522	2.36e-05
0.4588	308.15	0.0002919	2.74e-05
0.4588	313.15	0.0003315	3.12e-05
0.4588	318.15	0.0003758	3.56e-05
0.4588	323.15	0.0004169	4.04e-05
0.6933	283.15	0.0002515	2.1e-05
0.6933	288.15	0.0003477	2.91e-05
0.6933	293.15	0.0004361	3.66e-05
0.6933	298.15	0.0005302	4.49e-05
0.6933	303.15	0.0006361	5.42e-05
0.6933	308.15	0.0007395	6.35e-05
0.6933	313.15	0.0008472	7.33e-05
0.6933	318.15	0.0009785	8.48e-05
0.6933	323.15	0.001101	9.7e-05
0.8357	283.15	0.0003771	3.08e-05
0.8357	288.15	0.0005135	4.14e-05
0.8357	293.15	0.000643	5.18e-05
0.8357	298.15	0.0008212	6.6e-05
0.8357	303.15	0.001021	8.2e-05
0.8357	308.15	0.001237	9.9e-05
0.8357	313.15	0.001459	0.000117
0.8357	318.15	0.001697	0.000136
0.8357	323.15	0.001966	0.000158
0.9313	283.15	0.000626	4.89e-05
0.9313	288.15	0.0007888	6.16e-05
0.9313	293.15	0.0009732	7.6e-05
0.9313	298.15	0.001184	9.2e-05
0.9313	303.15	0.001407	0.00011
0.9313	308.15	0.001661	0.00013
0.9313	313.15	0.001927	0.00015
0.9313	318.15	0.002244	0.000175
0.9313	323.15	0.002573	0.000201
1	283.15	0.000483	3.77e-05
1	288.15	0.0006281	4.9e-05
1	293.15	0.0007815	6.1e-05
1	298.15	0.0009795	7.64e-05
1	303.15	0.001193	9.3e-05
1	308.15	0.001414	0.00011
1	313.15	0.001684	0.000131
1	318.15	0.001953	0.000152
1	323.15	0.002285	0.000178

System: toltrazuril + propan-2-ol + ethyl acetate; phases: Liquid, Crystal
Fixed: Pressure, kPa = 101.3
Property: Mole fraction of toltrazuril (Liquid); method: Chromatography
Solvent: Mass fraction of propan-2-ol	Temperature, K	Mole fraction of toltrazuril	uncertainty
0	283.15	0.007028	0.000548
0	288.15	0.007881	0.000615
0	293.15	0.008734	0.000682
0	298.15	0.00964	0.000752
0	303.15	0.01054	0.00082
0	308.15	0.01147	0.0009
0	313.15	0.01241	0.00097
0	318.15	0.01335	0.00104
0	323.15	0.01442	0.00113
0.1478	283.15	0.006262	0.00049
0.1478	288.15	0.007055	0.000552
0.1478	293.15	0.007847	0.000613
0.1478	298.15	0.008635	0.000675
0.1478	303.15	0.009487	0.000741
0.1478	308.15	0.01034	0.00081
0.1478	313.15	0.01123	0.00088
0.1478	318.15	0.01212	0.00095
0.1478	323.15	0.01313	0.00103
0.3161	283.15	0.005277	0.000421
0.3161	288.15	0.00591	0.000471
0.3161	293.15	0.006574	0.000523
0.3161	298.15	0.007291	0.000579
0.3161	303.15	0.008083	0.000641
0.3161	308.15	0.008845	0.0007
0.3161	313.15	0.009709	0.000768
0.3161	318.15	0.01057	0.00083
0.3161	323.15	0.01157	0.00091
0.5099	283.15	0.003515	0.000308
0.5099	288.15	0.004095	0.00035
0.5099	293.15	0.004675	0.000393
0.5099	298.15	0.005268	0.000437
0.5099	303.15	0.005938	0.000489
0.5099	308.15	0.006607	0.00054
0.5099	313.15	0.007316	0.000595
0.5099	318.15	0.008025	0.00065
0.5099	323.15	0.008854	0.000714
0.735	283.15	0.001922	0.000161
0.735	288.15	0.002498	0.000206
0.735	293.15	0.003074	0.000252
0.735	298.15	0.003722	0.000302
0.735	303.15	0.004352	0.000352
0.735	308.15	0.004982	0.000402
0.735	313.15	0.005716	0.00046
0.735	318.15	0.006425	0.000516
0.735	323.15	0.007235	0.000579
1	283.15	0.000483	3.77e-05
1	288.15	0.0006281	4.9e-05
1	293.15	0.0007815	6.1e-05
1	298.15	0.0009795	7.64e-05
1	303.15	0.001193	9.3e-05
1	308.15	0.001414	0.00011
1	313.15	0.001684	0.000131
1	318.15	0.001953	0.000152
1	323.15	0.002285	0.000178
