Measured thermophysical data. Partitioning of DNP-Amino Acids in New Biodegradable Choline Amino Acid/Ionic Liquid-Based Aqueous Two-Phase Systems
Source: J. Chem. Eng. Data, 2019, 10.1021/acs.jced.9b00052
Compound 1: 2-hydroxy-N,N,N-trimethylethanaminium L-alaninate, C8H20N2O3, InChI=1S/C5H14NO.C3H7NO2/c1-6(2,3)4-5-7;1-2(4)3(5)6/h7H,4-5H2,1-3H3;2H,4H2,1H3,(H,5,6)/q+1;/p-1/t;2-/m.0/s1
Compound 2: tripotassium phosphate, K3O4P, InChI=1S/3K.H3O4P/c;;;1-5(2,3)4/h;;;(H3,1,2,3,4)/q3*+1;/p-3, purity 98%
Compound 3: dipotassium hydrogen phosphate, HK2O4P, InChI=1S/2K.H3O4P/c;;1-5(2,3)4/h;;(H3,1,2,3,4)/q2*+1;/p-2, purity 98%
Compound 4: water, H2O, InChI=1S/H2O/h1H2, purity 99.9%

System: 2-hydroxy-N,N,N-trimethylethanaminium L-alaninate + tripotassium phosphate + water; phases: Liquid mixture 2, Liquid mixture 1
Fixed: Temperature, K = 298.15
Fixed: Pressure, kPa = 101.3
Property: Mass fraction of 2-hydroxy-N,N,N-trimethylethanaminium L-alaninate (Liquid mixture 2); method: OTHER
Property: Mass fraction of tripotassium phosphate (Liquid mixture 1); method: OTHER
Property: Mass fraction of 2-hydroxy-N,N,N-trimethylethanaminium L-alaninate (Liquid mixture 1); method: OTHER
Mass fraction of tripotassium phosphate	Mass fraction of 2-hydroxy-N,N,N-trimethylethanaminium L-alaninate	uncertainty	Mass fraction of tripotassium phosphate	uncertainty	Mass fraction of 2-hydroxy-N,N,N-trimethylethanaminium L-alaninate	uncertainty
0.451	0.0186	0.00474	0.034	0.00212	0.581	
0.389	0.051	0.00433	0.0465	0.00252	0.525	

System: 2-hydroxy-N,N,N-trimethylethanaminium L-alaninate + dipotassium hydrogen phosphate + water; phases: Liquid mixture 1, Liquid mixture 2
Fixed: Temperature, K = 298.15
Fixed: Pressure, kPa = 101.3
Property: Mass fraction of 2-hydroxy-N,N,N-trimethylethanaminium L-alaninate (Liquid mixture 1); method: OTHER
Property: Mass fraction of dipotassium hydrogen phosphate (Liquid mixture 2); method: OTHER
Property: Mass fraction of 2-hydroxy-N,N,N-trimethylethanaminium L-alaninate (Liquid mixture 2); method: OTHER
Mass fraction of dipotassium hydrogen phosphate	Mass fraction of 2-hydroxy-N,N,N-trimethylethanaminium L-alaninate	uncertainty	Mass fraction of dipotassium hydrogen phosphate	uncertainty	Mass fraction of 2-hydroxy-N,N,N-trimethylethanaminium L-alaninate	uncertainty
0.57653	0.0423	0.00348	0.05001	0.00374	0.559	
0.53103	0.0598	0.00401	0.07341	0.00444	0.499	
