Measured thermophysical data. Solid Liquid Equilibria in the Systems CaBr2 MgBr2 H2O and NaBr KBr SrBr2 at 348 K
Source: J. Chem. Eng. Data, 2015, 10.1021/acs.jced.5b00112
Compound 1: water, H2O, InChI=1S/H2O/h1H2, purity 99.8%
Compound 2: calcium bromide, Br2Ca, InChI=1S/2BrH.Ca/h2*1H;/q;;+2/p-2, purity 98%
Compound 3: magnesium bromide (MgBr2), Br2Mg, InChI=1S/2BrH.Mg/h2*1H;/q;;+2/p-2, purity 98%
Compound 4: sodium bromide, BrNa, InChI=1S/BrH.Na/h1H;/q;+1/p-1, purity 99%
Compound 5: potassium bromide, BrK, InChI=1S/BrH.K/h1H;/q;+1/p-1, purity 99%
Compound 6: strontium bromide (SrBr2), Br2Sr, InChI=1S/2BrH.Sr/h2*1H;/q;;+2/p-2

System: water + calcium bromide + magnesium bromide (MgBr2); phases: Liquid, Crystal of intercomponent compound 1
Fixed: Temperature, K = 348
Fixed: Pressure, kPa = 101
Property: Mass fraction of calcium bromide (Liquid); method: Titration method
Mass fraction of magnesium bromide (MgBr2)	Mass fraction of calcium bromide	uncertainty
0.5348	0	
0.5262	0.0126	0.0126
0.4793	0.0629	0.0119
0.452	0.0917	0.0119
0.4138	0.1331	0.0117
0.3635	0.1815	0.0115
0.3318	0.2113	0.0116
0.2937	0.2487	0.0119
0.2287	0.3215	0.0125
0.1712	0.4022	0.0171
0.1489	0.5241	0.0343

System: water + calcium bromide + magnesium bromide (MgBr2); phases: Liquid, Crystal of intercomponent compound 2
Fixed: Temperature, K = 348
Fixed: Pressure, kPa = 101
Property: Mass fraction of calcium bromide (Liquid); method: Titration method
Mass fraction of magnesium bromide (MgBr2)	Mass fraction of calcium bromide	uncertainty
0.1489	0.5241	0.0117
0.1481	0.5323	0.0105
0.1324	0.5405	0.0113
0.1058	0.5676	0.0122
0.0874	0.5919	0.0126
0.0656	0.6185	0.0123
0.0611	0.625	0.0124
0.0544	0.6305	0.0122
0.0336	0.6558	0.0125
0.0295	0.6909	0.0177

System: water + calcium bromide + magnesium bromide (MgBr2); phases: Liquid, Crystal of intercomponent compound 3
Fixed: Temperature, K = 348
Fixed: Pressure, kPa = 101
Property: Mass fraction of calcium bromide (Liquid); method: Titration method
Mass fraction of magnesium bromide (MgBr2)	Mass fraction of calcium bromide	uncertainty
0.0295	0.6909	0.0101
0.0276	0.696	0.0101
0	0.7426	0.0101

System: water + calcium bromide + magnesium bromide (MgBr2); phases: Liquid
Fixed: Pressure, kPa = 101
Fixed: Temperature, K = 348
Property: Mass density, kg/m3 (Liquid); method: Pycnometric method
Mass fraction of magnesium bromide (MgBr2)	Mass fraction of calcium bromide	Mass density, kg/m3	uncertainty
0.5348	0	1674.1	4.9
0.5262	0.0126	1680.8	5.2
0.4793	0.0629	1686.4	2.3
0.452	0.0917	1689	2.3
0.4138	0.1331	1694.3	19.9
0.3635	0.1815	1690.9	20.1
0.3318	0.2113	1687.4	21.5
0.2937	0.2487	1686.1	20
0.2287	0.3215	1699.3	20
0.1712	0.4022	1757.1	17.5
0.1489	0.5241	1923.2	19.6
0.1481	0.5323	1921.7	14.5
0.1324	0.5405	1922.9	14.5
0.1058	0.5676	1923.8	16.5
0.0874	0.5919	1935.2	22.5
0.0656	0.6185	1944.5	23.5
0.0611	0.625	1948.5	23.6
0.0544	0.6305	1946	23.6
0.0336	0.6558	1964.8	18.1
0.0295	0.6909	2017	18.5
0.0276	0.696	2023.6	18.9
0	0.7426	2062.6	17

System: sodium bromide + water + potassium bromide; phases: Liquid, Crystal of intercomponent compound 1
Property: Mass fraction of potassium bromide (Liquid); method: Titration method
Mass fraction of sodium bromide	Pressure, kPa	Temperature, K	Mass fraction of potassium bromide	uncertainty
0.4823	101	348	0.1183	0.006

System: sodium bromide + water + potassium bromide; phases: Liquid
Property: Mass density, kg/m3 (Liquid); method: Pycnometric method
Mass fraction of sodium bromide	Mass fraction of potassium bromide	Pressure, kPa	Temperature, K	Mass density, kg/m3	uncertainty
0.4823	0.1183	101	348	1754.6	1.8

System: water + potassium bromide + strontium bromide (SrBr2); phases: Liquid, Crystal of intercomponent compound 2
Property: Mass fraction of strontium bromide (SrBr2) (Liquid); method: Titration method
Mass fraction of potassium bromide	Pressure, kPa	Temperature, K	Mass fraction of strontium bromide (SrBr2)	uncertainty
0.0645	101	348	0.5508	0.0061

System: water + potassium bromide + strontium bromide (SrBr2); phases: Liquid
Property: Mass density, kg/m3 (Liquid); method: Pycnometric method
Mass fraction of potassium bromide	Mass fraction of strontium bromide (SrBr2)	Pressure, kPa	Temperature, K	Mass density, kg/m3	uncertainty
0.0645	0.5508	101	348	1824.1	2.3

System: sodium bromide + water + strontium bromide (SrBr2); phases: Liquid, Crystal of intercomponent compound 3
Property: Mass fraction of strontium bromide (SrBr2) (Liquid); method: Titration method
Mass fraction of sodium bromide	Pressure, kPa	Temperature, K	Mass fraction of strontium bromide (SrBr2)	uncertainty
0.0203	101	348	0.097	0.006

System: sodium bromide + water + strontium bromide (SrBr2); phases: Liquid
Property: Mass density, kg/m3 (Liquid); method: Pycnometric method
Mass fraction of sodium bromide	Mass fraction of strontium bromide (SrBr2)	Pressure, kPa	Temperature, K	Mass density, kg/m3	uncertainty
0.0203	0.097	101	348	1603.2	1.6

System: water + magnesium bromide (MgBr2); phases: Liquid, Crystal of intercomponent compound 1
Property: Mass fraction of magnesium bromide (MgBr2) (Liquid); method: Titration method
Pressure, kPa	Temperature, K	Mass fraction of magnesium bromide (MgBr2)	uncertainty
101	348	0.5348	0.0061

System: water + magnesium bromide (MgBr2); phases: Liquid
Property: Mass density, kg/m3 (Liquid); method: Pycnometric method
Mass fraction of magnesium bromide (MgBr2)	Pressure, kPa	Temperature, K	Mass density, kg/m3	uncertainty
0.5348	101	348	1674.1	1.8

System: water + calcium bromide; phases: Liquid, Crystal of intercomponent compound 3
Property: Mass fraction of calcium bromide (Liquid); method: Titration method
Pressure, kPa	Temperature, K	Mass fraction of calcium bromide	uncertainty
101	348	0.7426	0.0101

System: water + calcium bromide; phases: Liquid
Property: Mass density, kg/m3 (Liquid); method: Pycnometric method
Mass fraction of calcium bromide	Pressure, kPa	Temperature, K	Mass density, kg/m3	uncertainty
0.7426	101	348	2062.6	3.5
