Measured thermophysical data. Isobaric Phase Equilibrium of tert-Butyl Alcohol + Glycerol at Local and Subatmospheric Pressures, Volumetric Properties, and Molar Refractivity from 303.15 to 333.15 K of tert-Butyl Alcohol + Glycerol, tert-Butyl Alcohol + Water, and Water + Glycerol Binary Systems
Source: J. Chem. Eng. Data, 2016, 10.1021/acs.jced.5b01080
Compound 1: 2-methylpropan-2-ol, C4H10O, InChI=1S/C4H10O/c1-4(2,3)5/h5H,1-3H3, purity 99.5%
Compound 2: water, H2O, InChI=1S/H2O/h1H2
Compound 3: glycerol, C3H8O3, InChI=1S/C3H8O3/c4-1-3(6)2-5/h3-6H,1-2H2, purity 99.5%

System: 2-methylpropan-2-ol; phases: Liquid, Gas
Property: Vapor or sublimation pressure, kPa (Liquid); method: Ebulliometric method (Recirculating still)
Temperature, K	Vapor or sublimation pressure, kPa	uncertainty
344.84	66.66	1.43
349.23	79.99	1.44
353.8	95.99	1.44

System: 2-methylpropan-2-ol; phases: Liquid
Fixed: Pressure, kPa = 95.99
Property: Mass density, kg/m3 (Liquid); method: Vibrating tube method
Temperature, K	Mass density, kg/m3	uncertainty
303.15	775.47	0.16
308.15	770.21	0.16
313.15	764.86	0.16
318.15	759.44	0.17
323.15	753.94	0.17
328.15	748.36	0.17
333.15	742.7	0.17

System: 2-methylpropan-2-ol; phases: Liquid
Fixed: Pressure, kPa = 95.99
Property: Refractive index (Na D-line) (Liquid); method: Standard Abbe refractometry
Temperature, K	Refractive index (Na D-line)	uncertainty
303.15	1.38216	0.00401
308.15	1.38034	0.00401
313.15	1.37781	0.00401
318.15	1.37574	0.00401
323.15	1.37374	0.00401
328.15	1.37181	0.00401
333.15	1.36971	0.00401

System: water; phases: Liquid
Fixed: Pressure, kPa = 95.99
Property: Mass density, kg/m3 (Liquid); method: Vibrating tube method
Temperature, K	Mass density, kg/m3	uncertainty
303.15	995.59	0.11
308.15	994.02	0.11
313.15	992.2	0.11
318.15	990.2	0.11
323.15	988.03	0.11
328.15	985.7	0.11
333.15	983.19	0.11

System: water; phases: Liquid
Fixed: Pressure, kPa = 95.99
Property: Refractive index (Na D-line) (Liquid); method: Standard Abbe refractometry
Temperature, K	Refractive index (Na D-line)	uncertainty
303.15	1.33198	0.00401
308.15	1.33131	0.00401
313.15	1.33061	0.00401
318.15	1.32988	0.00401
323.15	1.32912	0.00401
328.15	1.32833	0.00401
333.15	1.32751	0.00401

System: glycerol; phases: Liquid, Gas
Property: Vapor or sublimation pressure, kPa (Liquid); method: Ebulliometric method (Recirculating still)
Temperature, K	Vapor or sublimation pressure, kPa	uncertainty
547.25	66.66	1.41
553.96	79.99	1.42
560.95	95.99	1.42

System: glycerol; phases: Liquid
Fixed: Pressure, kPa = 95.99
Property: Mass density, kg/m3 (Liquid); method: Vibrating tube method
Temperature, K	Mass density, kg/m3	uncertainty
303.15	1253.99	0.16
308.15	1250.84	0.16
313.15	1247.69	0.16
318.15	1244.54	0.16
323.15	1241.39	0.16
328.15	1238.24	0.16
333.15	1235.09	0.16

System: glycerol; phases: Liquid
Fixed: Pressure, kPa = 95.99
Property: Refractive index (Na D-line) (Liquid); method: Standard Abbe refractometry
Temperature, K	Refractive index (Na D-line)	uncertainty
303.15	1.47185	0.00401
308.15	1.46941	0.00401
313.15	1.46727	0.00401
318.15	1.46573	0.00401
323.15	1.46448	0.00401
328.15	1.46323	0.00401
333.15	1.46169	0.00401

System: glycerol + 2-methylpropan-2-ol; phases: Gas, Liquid
Property: Mole fraction of 2-methylpropan-2-ol (Gas); method: chromatography and titration
Mole fraction of 2-methylpropan-2-ol	Temperature, K	Mole fraction of 2-methylpropan-2-ol	uncertainty
0	547.25	0	
0.01458	511.98	0.66091	0.00151
0.02549	490.85	0.83575	0.00064
0.03016	483.68	0.87905	0.00057
0.04911	460.78	0.95349	0.00022
0.09963	427.89	0.9857	0.00014
0.15231	409.91	0.99039	0.00016
0.20087	399.12	0.99746	0.00014
0.30349	383.64	0.9993	0.00014
0.40237	373.56	0.9994	0.00014
0.50407	365.79	0.99961	0.00014
0.60326	359.79	0.9997	0.00014
0.70195	354.91	0.99977	0.00014
0.80263	350.8	0.99985	0.00014
0.86453	348.65	0.9999	0.0001
0.90216	347.47	0.99997	3e-05
0.94896	346.13	0.99998	2e-05
0.96459	345.72	0.99999	1e-05
0.97458	345.46	0.99999	1e-05
0.98524	345.19	1	
1	344.84	1	
0	553.96	0	
0.01458	520.26	0.62466	0.00498
0.02549	500.05	0.81206	0.00475
0.03016	492.22	0.84968	0.00064
0.04911	469.36	0.93949	0.00017
0.09963	436.04	0.9832	0.00014
0.15231	417.08	0.99577	0.00014
0.20087	405.58	0.997	0.00014
0.30349	389.42	0.99861	0.00014
0.40237	378.96	0.999	0.00014
0.50407	370.91	0.99925	0.00014
0.60326	364.7	0.99943	0.00014
0.70195	359.65	0.99962	0.00014
0.80263	355.4	0.99979	0.00014
0.86453	353.18	0.99987	0.00013
0.90216	351.96	0.99995	5e-05
0.94896	350.58	0.99996	4e-05
0.96459	350.15	0.99998	2e-05
0.97458	349.88	1	
0.98524	349.61	1	
1	349.23	1	
0	560.95	0	
0.01458	528.86	0.5921	0.00526
0.02549	509.15	0.78508	0.00132
0.03016	501.65	0.83027	0.00456
0.04911	478.85	0.9365	0.00044
0.09963	443.55	0.98251	0.00014
0.15231	423.95	0.99061	0.00016
0.20087	412.2	0.9967	0.00014
0.30349	395.4	0.99855	0.00014
0.40237	384.54	0.99893	0.00014
0.50407	376.19	0.99903	0.00014
0.60326	369.78	0.99938	0.00014
0.70195	364.57	0.99958	0.00014
0.80263	360.18	0.99977	0.00014
0.86453	357.88	0.99981	0.00014
0.90216	356.62	0.99985	0.00014
0.94896	355.19	0.99995	5e-05
0.96459	354.74	0.99996	4e-05
0.97458	354.47	0.99998	2e-05
0.98524	354.18	0.99998	2e-05
1	353.8	1	

System: glycerol + 2-methylpropan-2-ol; phases: Gas, Liquid
Property: Boiling temperature at pressure P, K (Gas); method: Ebulliometric method (Recirculating still)
Mole fraction of 2-methylpropan-2-ol	Pressure, kPa	Boiling temperature at pressure P, K	uncertainty
0	66.66	547.25	1.01
0.01458	66.66	511.98	1
0.02549	66.66	490.85	1.28
0.03016	66.66	483.68	1.3
0.04911	66.66	460.78	0.59
0.09963	66.66	427.89	0.44
0.15231	66.66	409.91	0.78
0.20087	66.66	399.12	0.75
0.30349	66.66	383.64	0.63
0.40237	66.66	373.56	0.69
0.50407	66.66	365.79	0.7
0.60326	66.66	359.79	0.69
0.70195	66.66	354.91	0.68
0.80263	66.66	350.8	0.67
0.86453	66.66	348.65	0.68
0.90216	66.66	347.47	0.67
0.94896	66.66	346.13	0.67
0.96459	66.66	345.72	0.67
0.97458	66.66	345.46	0.67
0.98524	66.66	345.19	0.67
1	66.66	344.84	0.67
0	79.99	553.96	0.94
0.01458	79.99	520.26	1.18
0.02549	79.99	500.05	1.27
0.03016	79.99	492.22	1.25
0.04911	79.99	469.36	1.21
0.09963	79.99	436.04	1.03
0.15231	79.99	417.08	0.94
0.20087	79.99	405.58	0.88
0.30349	79.99	389.42	0.79
0.40237	79.99	378.96	0.75
0.50407	79.99	370.91	0.71
0.60326	79.99	364.7	0.68
0.70195	79.99	359.65	0.66
0.80263	79.99	355.4	0.65
0.86453	79.99	353.18	0.64
0.90216	79.99	351.96	0.63
0.94896	79.99	350.58	0.63
0.96459	79.99	350.15	0.62
0.97458	79.99	349.88	0.62
0.98524	79.99	349.61	0.62
1	79.99	349.23	0.62
0	95.99	560.95	0.89
0.01458	95.99	528.86	1.32
0.02549	95.99	509.15	1.23
0.03016	95.99	501.65	1.21
0.04911	95.99	478.85	1.75
0.09963	95.99	443.55	1.66
0.15231	95.99	423.95	1.15
0.20087	95.99	412.2	1.05
0.30349	95.99	395.4	0.99
0.40237	95.99	384.54	0.83
0.50407	95.99	376.19	0.75
0.60326	95.99	369.78	0.7
0.70195	95.99	364.57	0.67
0.80263	95.99	360.18	0.63
0.86453	95.99	357.88	0.61
0.90216	95.99	356.62	0.6
0.94896	95.99	355.19	0.59
0.96459	95.99	354.74	0.59
0.97458	95.99	354.47	0.59
0.98524	95.99	354.18	0.58
1	95.99	353.8	0.58

System: glycerol + 2-methylpropan-2-ol; phases: Liquid
Fixed: Pressure, kPa = 95.99
Property: Mass density, kg/m3 (Liquid); method: Vibrating tube method
Mole fraction of 2-methylpropan-2-ol	Temperature, K	Mass density, kg/m3	uncertainty
0	303.15	1253.99	0.16
0.04581	303.15	1231.81	0.17
0.0955	303.15	1208.28	0.16
0.15605	303.15	1179.3	0.16
0.20402	303.15	1156.31	0.15
0.25152	303.15	1133.55	0.15
0.30123	303.15	1109.73	0.15
0.34912	303.15	1086.79	0.14
0.40601	303.15	1059.55	0.14
0.45301	303.15	1037.02	0.14
0.501	303.15	1014.02	0.14
0.55201	303.15	989.58	0.14
0.60561	303.15	963.92	0.14
0.6582	303.15	938.72	0.14
0.70321	303.15	917.16	0.15
0.75358	303.15	893.03	0.15
0.80641	303.15	867.71	0.15
0.85697	303.15	843.49	0.16
0.89671	303.15	824.44	0.16
0.9567	303.15	795.51	0.17
1	303.15	775.47	0.16
0	308.15	1250.84	0.16
0.04581	308.15	1228.56	0.17
0.0955	308.15	1204.91	0.16
0.15605	308.15	1175.79	0.16
0.20402	308.15	1152.68	0.15
0.25152	308.15	1129.81	0.15
0.30123	308.15	1105.87	0.15
0.34912	308.15	1082.81	0.14
0.40601	308.15	1055.43	0.14
0.45301	308.15	1032.8	0.14
0.501	308.15	1009.67	0.14
0.55201	308.15	985.12	0.14
0.60561	308.15	959.33	0.14
0.6582	308.15	933.99	0.14
0.70321	308.15	912.33	0.15
0.75358	308.15	888.07	0.15
0.80641	308.15	862.63	0.16
0.85697	308.15	838.29	0.16
0.89671	308.15	819.14	0.17
0.9567	308.15	790.27	0.17
1	308.15	770.21	0.16
0	313.15	1247.69	0.16
0.04581	313.15	1225.31	0.17
0.0955	313.15	1201.55	0.16
0.15605	313.15	1172.28	0.16
0.20402	313.15	1149.05	0.15
0.25152	313.15	1126.07	0.15
0.30123	313.15	1102.01	0.14
0.34912	313.15	1078.83	0.14
0.40601	313.15	1051.32	0.14
0.45301	313.15	1028.57	0.14
0.501	313.15	1005.33	0.14
0.55201	313.15	980.65	0.14
0.60561	313.15	954.73	0.14
0.6582	313.15	929.27	0.14
0.70321	313.15	907.5	0.15
0.75358	313.15	883.12	0.15
0.80641	313.15	857.55	0.16
0.85697	313.15	833.08	0.16
0.89671	313.15	813.84	0.17
0.9567	313.15	784.89	0.17
1	313.15	764.86	0.16
0	318.15	1244.54	0.16
0.04581	318.15	1222.06	0.17
0.0955	318.15	1198.18	0.16
0.15605	318.15	1168.77	0.16
0.20402	318.15	1145.42	0.15
0.25152	318.15	1122.33	0.15
0.30123	318.15	1098.15	0.14
0.34912	318.15	1074.86	0.14
0.40601	318.15	1047.2	0.14
0.45301	318.15	1024.34	0.14
0.501	318.15	1000.99	0.13
0.55201	318.15	976.18	0.14
0.60561	318.15	950.13	0.14
0.6582	318.15	924.55	0.14
0.70321	318.15	902.66	0.15
0.75358	318.15	878.17	0.15
0.80641	318.15	852.47	0.16
0.85697	318.15	827.88	0.16
0.89671	318.15	808.54	0.17
0.9567	318.15	779.45	0.17
1	318.15	759.44	0.17
0	323.15	1241.39	0.16
0.04581	323.15	1218.81	0.17
0.0955	323.15	1194.82	0.16
0.15605	323.15	1165.25	0.16
0.20402	323.15	1141.79	0.15
0.25152	323.15	1118.58	0.15
0.30123	323.15	1094.28	0.14
0.34912	323.15	1070.88	0.14
0.40601	323.15	1043.09	0.14
0.45301	323.15	1020.11	0.14
0.501	323.15	996.64	0.14
0.55201	323.15	971.71	0.14
0.60561	323.15	945.54	0.14
0.6582	323.15	919.82	0.15
0.70321	323.15	897.83	0.15
0.75358	323.15	873.21	0.15
0.80641	323.15	847.39	0.16
0.85697	323.15	822.68	0.16
0.89671	323.15	803.25	0.17
0.9567	323.15	773.94	0.18
1	323.15	753.94	0.17
0	328.15	1238.24	0.16
0.04581	328.15	1215.56	0.17
0.0955	328.15	1191.45	0.16
0.15605	328.15	1161.74	0.15
0.20402	328.15	1138.17	0.15
0.25152	328.15	1114.84	0.15
0.30123	328.15	1090.42	0.14
0.34912	328.15	1066.9	0.14
0.40601	328.15	1038.97	0.14
0.45301	328.15	1015.88	0.14
0.501	328.15	992.3	0.14
0.55201	328.15	967.25	0.14
0.60561	328.15	940.94	0.14
0.6582	328.15	915.1	0.15
0.70321	328.15	893	0.15
0.75358	328.15	868.26	0.15
0.80641	328.15	842.31	0.16
0.85697	328.15	817.47	0.17
0.89671	328.15	797.95	0.17
0.9567	328.15	768.5	0.18
1	328.15	748.36	0.17
0	333.15	1235.09	0.16
0.04581	333.15	1212.31	0.16
0.0955	333.15	1188.09	0.16
0.15605	333.15	1158.23	0.15
0.20402	333.15	1134.54	0.15
0.25152	333.15	1111.1	0.15
0.30123	333.15	1086.56	0.14
0.34912	333.15	1062.92	0.14
0.40601	333.15	1034.86	0.14
0.45301	333.15	1011.65	0.14
0.501	333.15	987.95	0.14
0.55201	333.15	962.78	0.14
0.60561	333.15	936.34	0.14
0.6582	333.15	910.38	0.15
0.70321	333.15	888.17	0.15
0.75358	333.15	863.31	0.16
0.80641	333.15	837.23	0.16
0.85697	333.15	812.27	0.17
0.89671	333.15	792.65	0.17
0.9567	333.15	763.05	0.18
1	333.15	742.7	0.17

System: glycerol + 2-methylpropan-2-ol; phases: Liquid
Fixed: Pressure, kPa = 95.99
Property: Refractive index (Na D-line) (Liquid); method: Standard Abbe refractometry
Mole fraction of 2-methylpropan-2-ol	Temperature, K	Refractive index (Na D-line)	uncertainty
0	303.15	1.47185	0.00401
0.04581	303.15	1.46779	0.00401
0.0955	303.15	1.46339	0.00401
0.15605	303.15	1.45802	0.00401
0.20402	303.15	1.45377	0.00401
0.25152	303.15	1.44956	0.00401
0.30123	303.15	1.44515	0.00401
0.34912	303.15	1.44091	0.00401
0.40601	303.15	1.43587	0.00401
0.45301	303.15	1.4317	0.00401
0.501	303.15	1.42745	0.00401
0.55201	303.15	1.42293	0.00401
0.60561	303.15	1.41818	0.00401
0.6582	303.15	1.41352	0.00401
0.70321	303.15	1.40953	0.00401
0.75358	303.15	1.40506	0.00401
0.80641	303.15	1.40038	0.00401
0.85697	303.15	1.3959	0.00401
0.89671	303.15	1.39238	0.00401
0.9567	303.15	1.38626	0.00401
1	303.15	1.38216	0.00401
0	308.15	1.46941	0.00401
0.04581	308.15	1.46531	0.00401
0.0955	308.15	1.46086	0.00401
0.15605	308.15	1.45544	0.00401
0.20402	308.15	1.45114	0.00401
0.25152	308.15	1.44689	0.00401
0.30123	308.15	1.44244	0.00401
0.34912	308.15	1.43815	0.00401
0.40601	308.15	1.43306	0.00401
0.45301	308.15	1.42885	0.00401
0.501	308.15	1.42455	0.00401
0.55201	308.15	1.41998	0.00401
0.60561	308.15	1.41518	0.00401
0.6582	308.15	1.41047	0.00401
0.70321	308.15	1.40644	0.00401
0.75358	308.15	1.40193	0.00401
0.80641	308.15	1.3972	0.00401
0.85697	308.15	1.39268	0.00401
0.89671	308.15	1.38902	0.00401
0.9567	308.15	1.38375	0.00401
1	308.15	1.38034	0.00401
0	313.15	1.46727	0.00401
0.04581	313.15	1.46315	0.00401
0.0955	313.15	1.45868	0.00401
0.15605	313.15	1.45324	0.00401
0.20402	313.15	1.44892	0.00401
0.25152	313.15	1.44465	0.00401
0.30123	313.15	1.44018	0.00401
0.34912	313.15	1.43587	0.00401
0.40601	313.15	1.43076	0.00401
0.45301	313.15	1.42653	0.00401
0.501	313.15	1.42222	0.00401
0.55201	313.15	1.41763	0.00401
0.60561	313.15	1.41281	0.00401
0.6582	313.15	1.40808	0.00401
0.70321	313.15	1.40403	0.00401
0.75358	313.15	1.3995	0.00401
0.80641	313.15	1.39475	0.00401
0.85697	313.15	1.3902	0.00401
0.89671	313.15	1.38663	0.00401
0.9567	313.15	1.38124	0.00401
1	313.15	1.37781	0.00401
0	318.15	1.46573	0.00401
0.04581	318.15	1.46157	0.00401
0.0955	318.15	1.45705	0.00401
0.15605	318.15	1.45154	0.00401
0.20402	318.15	1.44718	0.00401
0.25152	318.15	1.44287	0.00401
0.30123	318.15	1.43835	0.00401
0.34912	318.15	1.43399	0.00401
0.40601	318.15	1.42882	0.00401
0.45301	318.15	1.42455	0.00401
0.501	318.15	1.42019	0.00401
0.55201	318.15	1.41555	0.00401
0.60561	318.15	1.41068	0.00401
0.6582	318.15	1.4059	0.00401
0.70321	318.15	1.40181	0.00401
0.75358	318.15	1.39723	0.00401
0.80641	318.15	1.39242	0.00401
0.85697	318.15	1.38783	0.00401
0.89671	318.15	1.38422	0.00401
0.9567	318.15	1.37876	0.00401
1	318.15	1.37574	0.00401
0	323.15	1.46448	0.00401
0.04581	323.15	1.46026	0.00401
0.0955	323.15	1.45568	0.00401
0.15605	323.15	1.4501	0.00401
0.20402	323.15	1.44567	0.00401
0.25152	323.15	1.4413	0.00401
0.30123	323.15	1.43671	0.00401
0.34912	323.15	1.4323	0.00401
0.40601	323.15	1.42705	0.00401
0.45301	323.15	1.42272	0.00401
0.501	323.15	1.4183	0.00401
0.55201	323.15	1.4136	0.00401
0.60561	323.15	1.40866	0.00401
0.6582	323.15	1.40381	0.00401
0.70321	323.15	1.39966	0.00401
0.75358	323.15	1.39502	0.00401
0.80641	323.15	1.39015	0.00401
0.85697	323.15	1.38549	0.00401
0.89671	323.15	1.38182	0.00401
0.9567	323.15	1.37629	0.00401
1	323.15	1.37374	0.00401
0	328.15	1.46323	0.00401
0.04581	328.15	1.45887	0.00401
0.0955	328.15	1.45449	0.00401
0.15605	328.15	1.44912	0.00401
0.20402	328.15	1.44477	0.00401
0.25152	328.15	1.44052	0.00401
0.30123	328.15	1.43593	0.00401
0.34912	328.15	1.43143	0.00401
0.40601	328.15	1.42609	0.00401
0.45301	328.15	1.42153	0.00401
0.501	328.15	1.41679	0.00401
0.55201	328.15	1.41201	0.00401
0.60561	328.15	1.40707	0.00401
0.6582	328.15	1.40226	0.00401
0.70321	328.15	1.39805	0.00401
0.75358	328.15	1.39368	0.00401
0.80641	328.15	1.38888	0.00401
0.85697	328.15	1.38402	0.00401
0.89671	328.15	1.37996	0.00401
0.9567	328.15	1.37468	0.00401
1	328.15	1.37181	0.00401
0	333.15	1.46169	0.00401
0.04581	333.15	1.45742	0.00401
0.0955	333.15	1.45292	0.00401
0.15605	333.15	1.44715	0.00401
0.20402	333.15	1.44282	0.00401
0.25152	333.15	1.4387	0.00401
0.30123	333.15	1.43429	0.00401
0.34912	333.15	1.4299	0.00401
0.40601	333.15	1.42476	0.00401
0.45301	333.15	1.42043	0.00401
0.501	333.15	1.41612	0.00401
0.55201	333.15	1.41127	0.00401
0.60561	333.15	1.40619	0.00401
0.6582	333.15	1.40126	0.00401
0.70321	333.15	1.39696	0.00401
0.75358	333.15	1.3922	0.00401
0.80641	333.15	1.38729	0.00401
0.85697	333.15	1.38299	0.00401
0.89671	333.15	1.37968	0.00401
0.9567	333.15	1.37427	0.00401
1	333.15	1.36971	0.00401

System: 2-methylpropan-2-ol + water; phases: Liquid
Fixed: Pressure, kPa = 95.99
Property: Mass density, kg/m3 (Liquid); method: Vibrating tube method
Mole fraction of 2-methylpropan-2-ol	Temperature, K	Mass density, kg/m3	uncertainty
0	303.15	995.59	0.11
0.04545	303.15	969.84	0.14
0.09091	303.15	943.95	0.14
0.13636	303.15	920.35	0.15
0.18182	303.15	900.24	0.15
0.22727	303.15	883.37	0.15
0.27273	303.15	869.15	0.14
0.31818	303.15	857.23	0.14
0.36364	303.15	847.04	0.15
0.40909	303.15	838.12	0.15
0.45455	303.15	830.11	0.15
0.50002	303.15	822.83	0.15
0.54545	303.15	816.16	0.15
0.59091	303.15	810.21	0.15
0.63636	303.15	804.74	0.15
0.68182	303.15	799.82	0.15
0.72727	303.15	795.26	0.15
0.77273	303.15	791.28	0.16
0.81818	303.15	787.62	0.16
0.86364	303.15	784.17	0.16
0.90909	303.15	781.17	0.16
0.95455	303.15	778.13	0.16
1	303.15	775.47	0.16
0	308.15	994.02	0.11
0.04545	308.15	967.28	0.14
0.09091	308.15	940.69	0.14
0.13636	308.15	916.69	0.14
0.18182	308.15	896.22	0.14
0.22727	308.15	879.09	0.14
0.27273	308.15	864.83	0.14
0.31818	308.15	852.85	0.14
0.36364	308.15	842.56	0.14
0.40909	308.15	833.53	0.15
0.45455	308.15	825.43	0.15
0.50002	308.15	818.07	0.15
0.54545	308.15	811.38	0.15
0.59091	308.15	805.39	0.15
0.63636	308.15	799.94	0.15
0.68182	308.15	795.03	0.15
0.72727	308.15	790.5	0.16
0.77273	308.15	786.47	0.16
0.81818	308.15	782.72	0.16
0.86364	308.15	779.16	0.16
0.90909	308.15	775.99	0.16
0.95455	308.15	772.95	0.16
1	308.15	770.21	0.16
0	313.15	992.2	0.11
0.04545	313.15	964.58	0.14
0.09091	313.15	937.25	0.14
0.13636	313.15	912.85	0.14
0.18182	313.15	892.05	0.14
0.22727	313.15	874.76	0.14
0.27273	313.15	860.45	0.14
0.31818	313.15	848.41	0.14
0.36364	313.15	838.04	0.15
0.40909	313.15	828.9	0.15
0.45455	313.15	820.7	0.15
0.50002	313.15	813.27	0.15
0.54545	313.15	806.54	0.15
0.59091	313.15	800.51	0.15
0.63636	313.15	795.06	0.16
0.68182	313.15	790.15	0.16
0.72727	313.15	785.64	0.16
0.77273	313.15	781.55	0.16
0.81818	313.15	777.71	0.16
0.86364	313.15	774.08	0.16
0.90909	313.15	770.76	0.16
0.95455	313.15	767.7	0.16
1	313.15	764.86	0.16
0	318.15	990.2	0.11
0.04545	318.15	961.72	0.14
0.09091	318.15	933.68	0.15
0.13636	318.15	908.87	0.15
0.18182	318.15	887.7	0.14
0.22727	318.15	870.37	0.14
0.27273	318.15	856.02	0.14
0.31818	318.15	843.91	0.15
0.36364	318.15	833.46	0.15
0.40909	318.15	824.22	0.15
0.45455	318.15	815.93	0.15
0.50002	318.15	808.42	0.15
0.54545	318.15	801.65	0.15
0.59091	318.15	795.56	0.16
0.63636	318.15	790.1	0.16
0.68182	318.15	785.18	0.16
0.72727	318.15	780.67	0.16
0.77273	318.15	776.52	0.16
0.81818	318.15	772.61	0.16
0.86364	318.15	768.9	0.16
0.90909	318.15	765.48	0.16
0.95455	318.15	762.37	0.16
1	318.15	759.44	0.17
0	323.15	988.03	0.11
0.04545	323.15	958.67	0.15
0.09091	323.15	929.98	0.15
0.13636	323.15	904.69	0.15
0.18182	323.15	883.34	0.15
0.22727	323.15	865.93	0.15
0.27273	323.15	851.52	0.15
0.31818	323.15	839.36	0.15
0.36364	323.15	828.84	0.15
0.40909	323.15	819.51	0.15
0.45455	323.15	811.12	0.15
0.50002	323.15	803.53	0.15
0.54545	323.15	796.69	0.16
0.59091	323.15	790.55	0.16
0.63636	323.15	785.06	0.16
0.68182	323.15	780.12	0.16
0.72727	323.15	775.6	0.16
0.77273	323.15	771.39	0.16
0.81818	323.15	767.41	0.16
0.86364	323.15	763.65	0.16
0.90909	323.15	760.15	0.17
0.95455	323.15	756.96	0.17
1	323.15	753.94	0.17
0	328.15	985.7	0.11
0.04545	328.15	955.44	0.15
0.09091	328.15	926.11	0.15
0.13636	328.15	900.4	0.15
0.18182	328.15	878.96	0.15
0.22727	328.15	861.44	0.15
0.27273	328.15	846.96	0.15
0.31818	328.15	834.75	0.15
0.36364	328.15	824.17	0.15
0.40909	328.15	814.76	0.15
0.45455	328.15	806.27	0.15
0.50002	328.15	798.59	0.16
0.54545	328.15	791.67	0.16
0.59091	328.15	785.48	0.16
0.63636	328.15	779.94	0.16
0.68182	328.15	774.97	0.16
0.72727	328.15	770.42	0.16
0.77273	328.15	766.15	0.16
0.81818	328.15	762.11	0.16
0.86364	328.15	758.31	0.17
0.90909	328.15	754.77	0.17
0.95455	328.15	751.48	0.17
1	328.15	748.36	0.17
0	333.15	983.19	0.11
0.04545	333.15	951.98	0.15
0.09091	333.15	922.02	0.15
0.13636	333.15	896.1	0.14
0.18182	333.15	874.53	0.14
0.22727	333.15	856.89	0.14
0.27273	333.15	842.35	0.15
0.31818	333.15	830.09	0.15
0.36364	333.15	819.45	0.15
0.40909	333.15	809.96	0.15
0.45455	333.15	801.38	0.15
0.50002	333.15	793.6	0.16
0.54545	333.15	786.6	0.16
0.59091	333.15	780.34	0.16
0.63636	333.15	774.75	0.16
0.68182	333.15	769.73	0.16
0.72727	333.15	765.14	0.16
0.77273	333.15	760.81	0.16
0.81818	333.15	756.72	0.17
0.86364	333.15	752.89	0.17
0.90909	333.15	749.35	0.17
0.95455	333.15	745.92	0.17
1	333.15	742.7	0.17

System: 2-methylpropan-2-ol + water; phases: Liquid
Fixed: Pressure, kPa = 95.99
Property: Refractive index (Na D-line) (Liquid); method: Standard Abbe refractometry
Mole fraction of 2-methylpropan-2-ol	Temperature, K	Refractive index (Na D-line)	uncertainty
0	303.15	1.33198	0.00401
0.04545	303.15	1.34827	0.00401
0.09091	303.15	1.35882	0.00401
0.13636	303.15	1.36552	0.00401
0.18182	303.15	1.36976	0.00401
0.22727	303.15	1.3725	0.00401
0.27273	303.15	1.3744	0.00401
0.31818	303.15	1.37585	0.00401
0.36364	303.15	1.37708	0.00401
0.40909	303.15	1.37818	0.00401
0.45455	303.15	1.37915	0.00401
0.50001	303.15	1.38005	0.00401
0.54545	303.15	1.38052	0.00401
0.59091	303.15	1.38095	0.00401
0.63636	303.15	1.38129	0.00401
0.68182	303.15	1.38155	0.00401
0.72727	303.15	1.38175	0.00401
0.77273	303.15	1.3819	0.00401
0.81818	303.15	1.382	0.00401
0.86364	303.15	1.38206	0.00401
0.90909	303.15	1.38211	0.00401
0.95455	303.15	1.38213	0.00401
1	303.15	1.38216	0.00401
0	308.15	1.33131	0.00401
0.04545	308.15	1.34688	0.00401
0.09091	308.15	1.35735	0.00401
0.13636	308.15	1.36419	0.00401
0.18182	308.15	1.36855	0.00401
0.22727	308.15	1.37125	0.00401
0.27273	308.15	1.37282	0.00401
0.31818	308.15	1.37416	0.00401
0.36364	308.15	1.37515	0.00401
0.40909	308.15	1.37611	0.00401
0.45455	308.15	1.37695	0.00401
0.50001	308.15	1.37761	0.00401
0.54545	308.15	1.37809	0.00401
0.59091	308.15	1.37855	0.00401
0.63636	308.15	1.37906	0.00401
0.68182	308.15	1.37959	0.00401
0.72727	308.15	1.37968	0.00401
0.77273	308.15	1.37976	0.00401
0.81818	308.15	1.37984	0.00401
0.86364	308.15	1.37995	0.00401
0.90909	308.15	1.38015	0.00401
0.95455	308.15	1.38025	0.00401
1	308.15	1.38034	0.00401
0	313.15	1.33061	0.00401
0.04545	313.15	1.34491	0.00401
0.09091	313.15	1.35491	0.00401
0.13636	313.15	1.36171	0.00401
0.18182	313.15	1.36621	0.00401
0.22727	313.15	1.36913	0.00401
0.27273	313.15	1.37102	0.00401
0.31818	313.15	1.37228	0.00401
0.36364	313.15	1.37319	0.00401
0.40909	313.15	1.37395	0.00401
0.45455	313.15	1.37465	0.00401
0.50001	313.15	1.37532	0.00401
0.54545	313.15	1.37595	0.00401
0.59091	313.15	1.3765	0.00401
0.63636	313.15	1.37691	0.00401
0.68182	313.15	1.37713	0.00401
0.72727	313.15	1.37722	0.00401
0.77273	313.15	1.37728	0.00401
0.81818	313.15	1.37739	0.00401
0.86364	313.15	1.37757	0.00401
0.90909	313.15	1.37762	0.00401
0.95455	313.15	1.37774	0.00401
1	313.15	1.37781	0.00401
0	318.15	1.32988	0.00401
0.04545	318.15	1.34236	0.00401
0.09091	318.15	1.3515	0.00401
0.13636	318.15	1.35808	0.00401
0.18182	318.15	1.36274	0.00401
0.22727	318.15	1.36602	0.00401
0.27273	318.15	1.36831	0.00401
0.31818	318.15	1.36991	0.00401
0.36364	318.15	1.37105	0.00401
0.40909	318.15	1.37194	0.00401
0.45455	318.15	1.37264	0.00401
0.50001	318.15	1.3733	0.00401
0.54545	318.15	1.37389	0.00401
0.59091	318.15	1.37425	0.00401
0.63636	318.15	1.37468	0.00401
0.68182	318.15	1.37483	0.00401
0.72727	318.15	1.37488	0.00401
0.77273	318.15	1.37494	0.00401
0.81818	318.15	1.37511	0.00401
0.86364	318.15	1.37541	0.00401
0.90909	318.15	1.37554	0.00401
0.95455	318.15	1.37568	0.00401
1	318.15	1.37574	0.00401
0	323.15	1.32912	0.00401
0.04545	323.15	1.33923	0.00401
0.09091	323.15	1.34712	0.00401
0.13636	323.15	1.3533	0.00401
0.18182	323.15	1.35814	0.00401
0.22727	323.15	1.36196	0.00401
0.27273	323.15	1.36492	0.00401
0.31818	323.15	1.36715	0.00401
0.36364	323.15	1.36878	0.00401
0.40909	323.15	1.37005	0.00401
0.45455	323.15	1.37079	0.00401
0.50001	323.15	1.37151	0.00401
0.54545	323.15	1.37188	0.00401
0.59091	323.15	1.37213	0.00401
0.63636	323.15	1.37255	0.00401
0.68182	323.15	1.37272	0.00401
0.72727	323.15	1.37279	0.00401
0.77273	323.15	1.37283	0.00401
0.81818	323.15	1.37315	0.00401
0.86364	323.15	1.37328	0.00401
0.90909	323.15	1.37357	0.00401
0.95455	323.15	1.37371	0.00401
1	323.15	1.37374	0.00401
0	328.15	1.32833	0.00401
0.04545	328.15	1.33552	0.00401
0.09091	328.15	1.34177	0.00401
0.13636	328.15	1.34737	0.00401
0.18182	328.15	1.35241	0.00401
0.22727	328.15	1.35695	0.00401
0.27273	328.15	1.36085	0.00401
0.31818	328.15	1.364	0.00401
0.36364	328.15	1.36638	0.00401
0.40909	328.15	1.36813	0.00401
0.45455	328.15	1.36915	0.00401
0.50001	328.15	1.36972	0.00401
0.54545	328.15	1.37012	0.00401
0.59091	328.15	1.37025	0.00401
0.63636	328.15	1.37059	0.00401
0.68182	328.15	1.37074	0.00401
0.72727	328.15	1.37079	0.00401
0.77273	328.15	1.37082	0.00401
0.81818	328.15	1.37098	0.00401
0.86364	328.15	1.37121	0.00401
0.90909	328.15	1.37132	0.00401
0.95455	328.15	1.37153	0.00401
1	328.15	1.37181	0.00401
0	333.15	1.32751	0.00401
0.04545	333.15	1.33123	0.00401
0.09091	333.15	1.33545	0.00401
0.13636	333.15	1.34029	0.00401
0.18182	333.15	1.34555	0.00401
0.22727	333.15	1.35099	0.00401
0.27273	333.15	1.3561	0.00401
0.31818	333.15	1.36046	0.00401
0.36364	333.15	1.36385	0.00401
0.40909	333.15	1.36625	0.00401
0.45455	333.15	1.36739	0.00401
0.50001	333.15	1.36802	0.00401
0.54545	333.15	1.36824	0.00401
0.59091	333.15	1.36861	0.00401
0.63636	333.15	1.36881	0.00401
0.68182	333.15	1.36894	0.00401
0.72727	333.15	1.36897	0.00401
0.77273	333.15	1.36904	0.00401
0.81818	333.15	1.36925	0.00401
0.86364	333.15	1.36919	0.00401
0.90909	333.15	1.36938	0.00401
0.95455	333.15	1.36948	0.00401
1	333.15	1.36971	0.00401

System: glycerol + water; phases: Liquid
Fixed: Pressure, kPa = 95.99
Property: Mass density, kg/m3 (Liquid); method: Vibrating tube method
Mole fraction of water	Temperature, K	Mass density, kg/m3	uncertainty
0	303.15	1253.99	0.16
0.0225	303.15	1253.04	0.16
0.04545	303.15	1252.41	0.16
0.09091	303.15	1250.5	0.16
0.13636	303.15	1248.1	0.16
0.18182	303.15	1245.4	0.16
0.22727	303.15	1242.27	0.16
0.27273	303.15	1238.58	0.16
0.31818	303.15	1234.65	0.16
0.36364	303.15	1230.1	0.15
0.40909	303.15	1225.24	0.15
0.45455	303.15	1219.71	0.15
0.50015	303.15	1213.44	0.15
0.54545	303.15	1206.33	0.15
0.59091	303.15	1198.13	0.15
0.63636	303.15	1188.67	0.14
0.68182	303.15	1177.64	0.14
0.72727	303.15	1164.64	0.14
0.77273	303.15	1149.1	0.14
0.81818	303.15	1130.25	0.14
0.86364	303.15	1107.06	0.14
0.90909	303.15	1078.16	0.15
0.95455	303.15	1041.8	0.16
0.9775	303.15	1019.81	0.18
1	303.15	995.59	0.11
0	308.15	1250.84	0.16
0.0225	308.15	1250.2	0.16
0.04545	308.15	1249.56	0.16
0.09091	308.15	1247.58	0.16
0.13636	308.15	1245.08	0.16
0.18182	308.15	1242.29	0.16
0.22727	308.15	1239.13	0.16
0.27273	308.15	1235.53	0.16
0.31818	308.15	1231.53	0.16
0.36364	308.15	1227.01	0.15
0.40909	308.15	1222.15	0.15
0.45455	308.15	1216.65	0.15
0.50015	308.15	1210.41	0.15
0.54545	308.15	1203.33	0.15
0.59091	308.15	1195.23	0.15
0.63636	308.15	1185.87	0.15
0.68182	308.15	1174.79	0.14
0.72727	308.15	1161.87	0.14
0.77273	308.15	1146.44	0.14
0.81818	308.15	1127.71	0.14
0.86364	308.15	1104.66	0.15
0.90909	308.15	1075.95	0.15
0.95455	308.15	1039.85	0.16
0.9775	308.15	1018.09	0.18
1	308.15	994.02	0.11
0	313.15	1247.69	0.16
0.0225	313.15	1247.2	0.16
0.04545	313.15	1246.56	0.16
0.09091	313.15	1244.5	0.16
0.13636	313.15	1241.95	0.16
0.18182	313.15	1239.09	0.16
0.22727	313.15	1235.89	0.16
0.27273	313.15	1232.35	0.16
0.31818	313.15	1228.31	0.15
0.36364	313.15	1223.82	0.15
0.40909	313.15	1218.96	0.15
0.45455	313.15	1213.49	0.15
0.50015	313.15	1207.29	0.15
0.54545	313.15	1200.23	0.15
0.59091	313.15	1192.19	0.15
0.63636	313.15	1182.89	0.15
0.68182	313.15	1171.82	0.14
0.72727	313.15	1158.98	0.14
0.77273	313.15	1143.64	0.14
0.81818	313.15	1125.03	0.14
0.86364	313.15	1102.13	0.15
0.90909	313.15	1073.61	0.15
0.95455	313.15	1037.74	0.16
0.9775	313.15	1016.16	0.18
1	313.15	992.2	0.11
0	318.15	1244.54	0.16
0.0225	318.15	1244.03	0.16
0.04545	318.15	1243.4	0.16
0.09091	318.15	1241.26	0.16
0.13636	318.15	1238.71	0.16
0.18182	318.15	1235.79	0.16
0.22727	318.15	1232.56	0.16
0.27273	318.15	1229.03	0.15
0.31818	318.15	1225	0.15
0.36364	318.15	1220.53	0.15
0.40909	318.15	1215.67	0.15
0.45455	318.15	1210.24	0.15
0.50015	318.15	1204.06	0.15
0.54545	318.15	1197.03	0.15
0.59091	318.15	1189	0.15
0.63636	318.15	1179.72	0.15
0.68182	318.15	1168.74	0.14
0.72727	318.15	1155.97	0.14
0.77273	318.15	1140.71	0.14
0.81818	318.15	1122.22	0.14
0.86364	318.15	1099.46	0.15
0.90909	318.15	1071.12	0.15
0.95455	318.15	1035.46	0.16
0.9775	318.15	1014.01	0.18
1	318.15	990.2	0.11
0	323.15	1241.39	0.16
0.0225	323.15	1240.7	0.16
0.04545	323.15	1240.09	0.16
0.09091	323.15	1237.86	0.16
0.13636	323.15	1235.35	0.16
0.18182	323.15	1232.4	0.16
0.22727	323.15	1229.15	0.16
0.27273	323.15	1225.58	0.15
0.31818	323.15	1221.59	0.15
0.36364	323.15	1217.13	0.15
0.40909	323.15	1212.29	0.15
0.45455	323.15	1206.9	0.15
0.50015	323.15	1200.74	0.15
0.54545	323.15	1193.73	0.15
0.59091	323.15	1185.67	0.15
0.63636	323.15	1176.37	0.14
0.68182	323.15	1165.55	0.14
0.72727	323.15	1152.83	0.14
0.77273	323.15	1137.65	0.14
0.81818	323.15	1119.27	0.14
0.86364	323.15	1096.66	0.15
0.90909	323.15	1068.5	0.15
0.95455	323.15	1033.02	0.16
0.9775	323.15	1011.65	0.18
1	323.15	988.03	0.11
0	328.15	1238.24	0.16
0.0225	328.15	1237.29	0.16
0.04545	328.15	1236.52	0.16
0.09091	328.15	1234.3	0.16
0.13636	328.15	1231.69	0.16
0.18182	328.15	1228.91	0.16
0.22727	328.15	1225.65	0.15
0.27273	328.15	1221.99	0.15
0.31818	328.15	1218.09	0.15
0.36364	328.15	1213.63	0.15
0.40909	328.15	1208.81	0.15
0.45455	328.15	1203.47	0.15
0.50015	328.15	1197.31	0.15
0.54545	328.15	1190.33	0.15
0.59091	328.15	1182.28	0.15
0.63636	328.15	1173.05	0.14
0.68182	328.15	1162.25	0.14
0.72727	328.15	1149.57	0.14
0.77273	328.15	1134.46	0.14
0.81818	328.15	1116.19	0.14
0.86364	328.15	1093.72	0.15
0.90909	328.15	1065.73	0.15
0.95455	328.15	1030.41	0.16
0.9775	328.15	1009.07	0.18
1	328.15	985.7	0.11
0	333.15	1235.09	0.16
0.0225	333.15	1233.99	0.16
0.04545	333.15	1233	0.16
0.09091	333.15	1230.58	0.16
0.13636	333.15	1228.05	0.16
0.18182	333.15	1225.29	0.16
0.22727	333.15	1222.05	0.15
0.27273	333.15	1218.39	0.15
0.31818	333.15	1214.49	0.15
0.36364	333.15	1210.05	0.15
0.40909	333.15	1205.23	0.15
0.45455	333.15	1199.85	0.15
0.50015	333.15	1193.65	0.15
0.54545	333.15	1186.71	0.15
0.59091	333.15	1178.73	0.15
0.63636	333.15	1169.51	0.15
0.68182	333.15	1158.83	0.14
0.72727	333.15	1146.19	0.14
0.77273	333.15	1131.13	0.15
0.81818	333.15	1112.97	0.15
0.86364	333.15	1090.65	0.15
0.90909	333.15	1062.83	0.16
0.95455	333.15	1027.64	0.17
0.9775	333.15	1006.28	0.18
1	333.15	983.19	0.11

System: glycerol + water; phases: Liquid
Fixed: Pressure, kPa = 95.99
Property: Refractive index (Na D-line) (Liquid); method: Standard Abbe refractometry
Mole fraction of water	Temperature, K	Refractive index (Na D-line)	uncertainty
0	303.15	1.47185	0.00401
0.0225	303.15	1.47157	0.00401
0.04545	303.15	1.4717	0.00401
0.09091	303.15	1.47054	0.00401
0.13636	303.15	1.46935	0.00401
0.18182	303.15	1.46823	0.00401
0.22727	303.15	1.46712	0.00401
0.27273	303.15	1.46586	0.00401
0.31818	303.15	1.46423	0.00401
0.36364	303.15	1.46204	0.00401
0.40909	303.15	1.45914	0.00401
0.45455	303.15	1.45545	0.00401
0.50015	303.15	1.45092	0.00401
0.54545	303.15	1.44568	0.00401
0.59091	303.15	1.43976	0.00401
0.63636	303.15	1.4333	0.00401
0.68182	303.15	1.42639	0.00401
0.72727	303.15	1.41901	0.00401
0.77273	303.15	1.411	0.00401
0.81818	303.15	1.40193	0.00401
0.86364	303.15	1.39103	0.00401
0.90909	303.15	1.37705	0.00401
0.95455	303.15	1.35815	0.00401
0.9775	303.15	1.34595	0.00401
1	303.15	1.33198	0.00401
0	308.15	1.46941	0.00401
0.0225	308.15	1.46958	0.00401
0.04545	308.15	1.46965	0.00401
0.09091	308.15	1.46859	0.00401
0.13636	308.15	1.46714	0.00401
0.18182	308.15	1.46573	0.00401
0.22727	308.15	1.46444	0.00401
0.27273	308.15	1.46316	0.00401
0.31818	308.15	1.46163	0.00401
0.36364	308.15	1.45958	0.00401
0.40909	308.15	1.4568	0.00401
0.45455	308.15	1.45315	0.00401
0.50015	308.15	1.44854	0.00401
0.54545	308.15	1.44312	0.00401
0.59091	308.15	1.43696	0.00401
0.63636	308.15	1.43028	0.00401
0.68182	308.15	1.42326	0.00401
0.72727	308.15	1.41599	0.00401
0.77273	308.15	1.40836	0.00401
0.81818	308.15	1.39997	0.00401
0.86364	308.15	1.38994	0.00401
0.90909	308.15	1.37677	0.00401
0.95455	308.15	1.35818	0.00401
0.9775	308.15	1.34573	0.00401
1	308.15	1.33131	0.00401
0	313.15	1.46727	0.00401
0.0225	313.15	1.4678	0.00401
0.04545	313.15	1.46782	0.00401
0.09091	313.15	1.46694	0.00401
0.13636	313.15	1.46556	0.00401
0.18182	313.15	1.46413	0.00401
0.22727	313.15	1.46276	0.00401
0.27273	313.15	1.46135	0.00401
0.31818	313.15	1.45968	0.00401
0.36364	313.15	1.4575	0.00401
0.40909	313.15	1.45462	0.00401
0.45455	313.15	1.45089	0.00401
0.50015	313.15	1.44627	0.00401
0.54545	313.15	1.44088	0.00401
0.59091	313.15	1.43481	0.00401
0.63636	313.15	1.42828	0.00401
0.68182	313.15	1.42145	0.00401
0.72727	313.15	1.4144	0.00401
0.77273	313.15	1.407	0.00401
0.81818	313.15	1.39883	0.00401
0.86364	313.15	1.38897	0.00401
0.90909	313.15	1.3759	0.00401
0.95455	313.15	1.35731	0.00401
0.9775	313.15	1.34481	0.00401
1	313.15	1.33061	0.00401
0	318.15	1.46573	0.00401
0.0225	318.15	1.46615	0.00401
0.04545	318.15	1.46614	0.00401
0.09091	318.15	1.46549	0.00401
0.13636	318.15	1.4644	0.00401
0.18182	318.15	1.46313	0.00401
0.22727	318.15	1.46174	0.00401
0.27273	318.15	1.46014	0.00401
0.31818	318.15	1.45818	0.00401
0.36364	318.15	1.45568	0.00401
0.40909	318.15	1.45253	0.00401
0.45455	318.15	1.44867	0.00401
0.50015	318.15	1.44407	0.00401
0.54545	318.15	1.43886	0.00401
0.59091	318.15	1.43311	0.00401
0.63636	318.15	1.42697	0.00401
0.68182	318.15	1.42052	0.00401
0.72727	318.15	1.41377	0.00401
0.77273	318.15	1.40649	0.00401
0.81818	318.15	1.39822	0.00401
0.86364	318.15	1.38808	0.00401
0.90909	318.15	1.37464	0.00401
0.95455	318.15	1.35584	0.00401
0.9775	318.15	1.34343	0.00401
1	318.15	1.32988	0.00401
0	323.15	1.46448	0.00401
0.0225	323.15	1.46457	0.00401
0.04545	323.15	1.46453	0.00401
0.09091	323.15	1.46415	0.00401
0.13636	323.15	1.46345	0.00401
0.18182	323.15	1.46243	0.00401
0.22727	323.15	1.46105	0.00401
0.27273	323.15	1.45923	0.00401
0.31818	323.15	1.45689	0.00401
0.36364	323.15	1.45399	0.00401
0.40909	323.15	1.4505	0.00401
0.45455	323.15	1.44646	0.00401
0.50015	323.15	1.4419	0.00401
0.54545	323.15	1.43694	0.00401
0.59091	323.15	1.43162	0.00401
0.63636	323.15	1.426	0.00401
0.68182	323.15	1.42004	0.00401
0.72727	323.15	1.41361	0.00401
0.77273	323.15	1.40641	0.00401
0.81818	323.15	1.39789	0.00401
0.86364	323.15	1.38722	0.00401
0.90909	323.15	1.37318	0.00401
0.95455	323.15	1.35407	0.00401
0.9775	323.15	1.34181	0.00401
1	323.15	1.32912	0.00401
0	328.15	1.46323	0.00401
0.0225	328.15	1.46299	0.00401
0.04545	328.15	1.46292	0.00401
0.09091	328.15	1.46281	0.00401
0.13636	328.15	1.4625	0.00401
0.18182	328.15	1.46173	0.00401
0.22727	328.15	1.46036	0.00401
0.27273	328.15	1.45832	0.00401
0.31818	328.15	1.4556	0.00401
0.36364	328.15	1.4523	0.00401
0.40909	328.15	1.44846	0.00401
0.45455	328.15	1.44425	0.00401
0.50015	328.15	1.43973	0.00401
0.54545	328.15	1.43502	0.00401
0.59091	328.15	1.43014	0.00401
0.63636	328.15	1.42503	0.00401
0.68182	328.15	1.41956	0.00401
0.72727	328.15	1.41345	0.00401
0.77273	328.15	1.40633	0.00401
0.81818	328.15	1.39755	0.00401
0.86364	328.15	1.38636	0.00401
0.90909	328.15	1.37172	0.00401
0.95455	328.15	1.3523	0.00401
0.9775	328.15	1.34019	0.00401
1	328.15	1.32833	0.00401
0	333.15	1.46169	0.00401
0.0225	333.15	1.46134	0.00401
0.04545	333.15	1.46124	0.00401
0.09091	333.15	1.46136	0.00401
0.13636	333.15	1.46134	0.00401
0.18182	333.15	1.46073	0.00401
0.22727	333.15	1.45934	0.00401
0.27273	333.15	1.45711	0.00401
0.31818	333.15	1.4541	0.00401
0.36364	333.15	1.45048	0.00401
0.40909	333.15	1.44638	0.00401
0.45455	333.15	1.44203	0.00401
0.50015	333.15	1.43753	0.00401
0.54545	333.15	1.433	0.00401
0.59091	333.15	1.42843	0.00401
0.63636	333.15	1.42372	0.00401
0.68182	333.15	1.41863	0.00401
0.72727	333.15	1.41282	0.00401
0.77273	333.15	1.40582	0.00401
0.81818	333.15	1.39695	0.00401
0.86364	333.15	1.38547	0.00401
0.90909	333.15	1.37046	0.00401
0.95455	333.15	1.35083	0.00401
0.9775	333.15	1.33881	0.00401
1	333.15	1.32751	0.00401
