Measured thermophysical data. Determination of the solid liquid phase diagram of the binary system propionic acid / water
Source: J. Chem. Eng. Data, 2016, 10.1021/acs.jced.5b00632
Compound 1: water, H2O, InChI=1S/H2O/h1H2, purity 99.9%
Compound 2: propanoic acid, C3H6O2, InChI=1S/C3H6O2/c1-2-3(4)5/h2H2,1H3,(H,4,5), purity 99%

System: water; phases: Crystal, Liquid, Air at 1 atmosphere
Property: Normal melting temperature, K (Crystal); method: DTA
Normal melting temperature, K	uncertainty
273.15	0.5

System: propanoic acid; phases: Crystal, Liquid, Air at 1 atmosphere
Property: Normal melting temperature, K (Crystal); method: DTA
Normal melting temperature, K	uncertainty
250.89	2.03

System: propanoic acid + water; phases: Liquid, Crystal
Fixed: Pressure, kPa = 102
Property: Solid-liquid equilibrium temperature, K (Liquid); method: DTA
Mass fraction of propanoic acid	Solid-liquid equilibrium temperature, K	uncertainty
0	273.15	2.03
0.0473	271.17361	2.031012
0.091	270.06557	2.031015
0.136	268.96185	2.031023
0.168	267.96806	2.031033
0.202	267.02842	2.031026
0.239	266.51315	2.031033
0.263	265.75856	2.031053
0.286	265.33193	2.03103
0.324	264.8	2.03
0.349	263.95	2.03
0.402	263.21	2.03
0.449	262.44	2.03
0.4999	261.41007	2.031093
0.548	260.61971	2.031172
0.596	259.15632	2.03131
0.6517	257.58026	2.031708
0.692	255.15446	2.032116
0.7503	252.75	2.03
0.801	249.38	2.03
0.849	245.17	2.04

System: propanoic acid + water; phases: Liquid, Crystal
Fixed: Pressure, kPa = 102
Property: Solid-liquid equilibrium temperature, K (Liquid); method: DTA
Mass fraction of propanoic acid	Solid-liquid equilibrium temperature, K	uncertainty
0.894	243.84	2.04
0.926	246.33	2.03
0.948	247.23664	2.034549
1	250.89631	2.03101

System: propanoic acid + water; phases: Liquid, Crystal
Fixed: Pressure, kPa = 102
Property: Solid-liquid equilibrium temperature, K (Liquid); method: VISOBS
Mass fraction of propanoic acid	Solid-liquid equilibrium temperature, K	uncertainty
0.0507	271.75	2.01
0.1014	270.42	2.01
0.1497	269.19	2.01
0.2019	267.88	2.01
0.2496	266.89	2.01
0.2996	265.99	2.01
0.2706	266.53	2.01
0.3091	265.82	2.01
0.3198	265.44	2.01
0.3497	265.1	2
0.4012	264.34	2.01
0.4307	263.77	2.01
0.4993	262.64	2.01
0.5245	262.2	2
0.5438	261.78	2.01
0.6004	260.35	2.01
0.705	255.84	2.01
0.763	251.33	2.01
0.802	249.26	2.01
0.81	248.37	2.01
0.8299	247.77	2.01

System: propanoic acid + water; phases: Liquid, Crystal
Fixed: Pressure, kPa = 102
Property: Solid-liquid equilibrium temperature, K (Liquid); method: VISOBS
Mass fraction of propanoic acid	Solid-liquid equilibrium temperature, K	uncertainty
0.9894	250.12	3.11
0.99	250.84	3.11
0.901	244.15	2.01
0.949	248.05	2.01
0.969	249.1	2

System: propanoic acid + water; phases: Liquid, Crystal, Crystal
Property: Eutectic temperature, K (Liquid); method: DTA
Pressure, kPa	Eutectic temperature, K	uncertainty
102	243.89	2.03
