Measured thermophysical data. Carbon Dioxide Solubilities in Decanoic Acid-Based Hydrophobic Deep Eutectic Solvents
Source: J. Chem. Eng. Data, 2018, 10.1021/acs.jced.7b00534
Compound 1: decanoic acid, C10H20O2, InChI=1S/C10H20O2/c1-2-3-4-5-6-7-8-9-10(11)12/h2-9H2,1H3,(H,11,12), purity 98%
Compound 2: N-methyl-N,N-dioctyl-1-octanaminium chloride, C25H54ClN, InChI=1S/C25H54N.ClH/c1-5-8-11-14-17-20-23-26(4,24-21-18-15-12-9-6-2)25-22-19-16-13-10-7-3;/h5-25H2,1-4H3;1H/q+1;/p-1, purity 97%
Compound 3: methyltrioctylammonium bromide, C25H54BrN, InChI=1S/C25H54N.BrH/c1-5-8-11-14-17-20-23-26(4,24-21-18-15-12-9-6-2)25-22-19-16-13-10-7-3;/h5-25H2,1-4H3;1H/q+1;/p-1, purity 97%
Compound 4: tetraoctylammonium chloride, C32H68ClN, InChI=1S/C32H68N.ClH/c1-5-9-13-17-21-25-29-33(30-26-22-18-14-10-6-2,31-27-23-19-15-11-7-3)32-28-24-20-16-12-8-4;/h5-32H2,1-4H3;1H/q+1;/p-1, purity 97%
Compound 5: tetraoctylammonium bromide, C32H68BrN, InChI=1S/C32H68N.BrH/c1-5-9-13-17-21-25-29-33(30-26-22-18-14-10-6-2,31-27-23-19-15-11-7-3)32-28-24-20-16-12-8-4;/h5-32H2,1-4H3;1H/q+1;/p-1, purity 98%
Compound 6: tetrabutylammonium chloride, C16H36ClN, InChI=1S/C16H36N.ClH/c1-5-9-13-17(14-10-6-2,15-11-7-3)16-12-8-4;/h5-16H2,1-4H3;1H/q+1;/p-1, purity 95%
Compound 7: carbon dioxide, CO2, InChI=1S/CO2/c2-1-3, purity 99.995%

System: decanoic acid + N-methyl-N,N-dioctyl-1-octanaminium chloride + carbon dioxide; phases: Liquid, Gas
Fixed: Solvent: Amount ratio of component to other component of binary solvent of decanoic acid = 2
Property: Mole fraction of carbon dioxide (Liquid); method: Magnetic Suspension Balance
Temperature, K	Pressure, kPa	Mole fraction of carbon dioxide	uncertainty
298.15	90	0.0133	0.0016
298.15	190	0.029	0.0014
298.15	290	0.0412	0.0014
298.15	390	0.0561	0.0015
298.15	490	0.0691	0.0014
298.15	790	0.1095	0.0015
298.15	990	0.1348	0.0016
298.15	1490	0.1951	0.0018
298.15	1990	0.2523	0.0021
308.15	90	0.0112	0.0015
308.15	190	0.0239	0.0015
308.15	290	0.0361	0.0013
308.15	390	0.0476	0.0014
308.15	490	0.0596	0.0014
308.15	790	0.096	0.0014
308.15	990	0.118	0.0013
308.15	1490	0.1721	0.0015
308.15	1990	0.2221	0.0018

System: decanoic acid + methyltrioctylammonium bromide + carbon dioxide; phases: Liquid, Gas
Fixed: Solvent: Amount ratio of component to other component of binary solvent of decanoic acid = 2
Property: Mole fraction of carbon dioxide (Liquid); method: Magnetic Suspension Balance
Temperature, K	Pressure, kPa	Mole fraction of carbon dioxide	uncertainty
298.15	90	0.014	0.0014
298.15	190	0.0276	0.0015
298.15	290	0.0413	0.0014
298.15	390	0.0551	0.0015
298.15	490	0.07	0.0015
298.15	790	0.1102	0.0016
298.15	990	0.1362	0.0015
298.15	1490	0.1979	0.0018
298.15	1990	0.2568	0.0022
308.15	90	0.0121	0.0012
308.15	200	0.0242	0.0014
308.15	290	0.0364	0.0014
308.15	390	0.0494	0.0013
308.15	490	0.0618	0.0014
308.15	790	0.0977	0.0013
308.15	990	0.1202	0.0013
308.15	1490	0.1745	0.0016
308.15	1990	0.2263	0.0019
323.15	90	0.0107	0.0011
323.15	190	0.0208	0.0012
323.15	290	0.0305	0.0013
323.15	390	0.0425	0.0012
323.15	490	0.053	0.0014
323.15	790	0.0818	0.0011
323.15	990	0.1015	0.0012
323.15	1490	0.1479	0.0013
323.15	1990	0.1902	0.0015

System: decanoic acid + tetrabutylammonium chloride + carbon dioxide; phases: Liquid, Gas
Fixed: Solvent: Amount ratio of component to other component of binary solvent of decanoic acid = 2
Property: Mole fraction of carbon dioxide (Liquid); method: Magnetic Suspension Balance
Temperature, K	Pressure, kPa	Mole fraction of carbon dioxide	uncertainty
298.15	90	0.0124	0.0015
298.15	190	0.0257	0.0014
298.15	290	0.0389	0.0014
298.15	390	0.0523	0.0017
298.15	490	0.0653	0.0018
298.15	690	0.0905	0.0014
298.15	790	0.1027	0.0014
298.15	990	0.1265	0.0016
298.15	1190	0.1503	0.0021
298.15	1490	0.1853	0.0022
298.15	1790	0.2179	0.0026
298.15	1990	0.2394	0.0027
308.15	90	0.0101	0.0013
308.15	190	0.0217	0.0014
308.15	290	0.0335	0.0014
308.15	390	0.0447	0.0012
308.15	490	0.0558	0.0014
308.15	690	0.0778	0.0015
308.15	790	0.0886	0.0012
308.15	990	0.1097	0.0013
308.15	1190	0.1299	0.0015
308.15	1490	0.1602	0.0016
308.15	1790	0.1893	0.0017
308.15	1990	0.2078	0.002
323.15	90	0.0086	0.0012
323.15	190	0.0178	0.001
323.15	290	0.0271	0.001
323.15	390	0.0365	0.001
323.15	490	0.0458	0.001
323.15	690	0.0639	0.0011
323.15	790	0.0724	0.001
323.15	990	0.0901	0.0011
323.15	1190	0.1076	0.0011
323.15	1490	0.1324	0.0012
323.15	1790	0.156	0.0013
323.15	1990	0.1716	0.0014

System: decanoic acid + tetraoctylammonium chloride + carbon dioxide; phases: Liquid, Gas
Property: Mole fraction of carbon dioxide (Liquid); method: Magnetic Suspension Balance
Temperature, K	Pressure, kPa	Solvent: Amount ratio of component to other component of binary solvent of decanoic acid	Mole fraction of carbon dioxide	uncertainty
298.15	90	1.5	0.0168	0.0168
298.15	190	1.5	0.0348	0.0161
298.15	290	1.5	0.0509	0.0181
298.15	390	1.5	0.0682	0.0171
298.15	490	1.5	0.0849	0.033
298.15	790	1.5	0.1345	0.0018
298.15	990	1.5	0.1646	0.0018
298.15	1490	1.5	0.2349	0.0401
298.15	1990	1.5	0.2995	0.064
308.15	90	1.5	0.0149	0.0016
308.15	190	1.5	0.0304	0.002
308.15	290	1.5	0.0457	0.0023
308.15	390	1.5	0.0613	0.0017
308.15	490	1.5	0.0759	0.0015
308.15	690	1.5	0.105	0.0017
308.15	790	1.5	0.1184	0.0018
308.15	990	1.5	0.1448	0.0019
308.15	1190	1.5	0.1703	0.0022
308.15	1490	1.5	0.2076	0.002
308.15	1790	1.5	0.2427	0.0022
308.15	1990	1.5	0.2646	0.0027
323.15	90	1.5	0.0122	0.0012
323.15	190	1.5	0.0242	0.0025
323.15	290	1.5	0.0391	0.0015
323.15	390	1.5	0.0517	0.0013
323.15	490	1.5	0.0638	0.0013
323.15	690	1.5	0.0872	0.0013
323.15	790	1.5	0.0989	0.0013
323.15	990	1.5	0.1209	0.0015
323.15	1190	1.5	0.143	0.0015
323.15	1490	1.5	0.1746	0.0016
323.15	1790	1.5	0.2043	0.0018
323.15	1990	1.5	0.224	0.0019
298.15	90	2	0.0154	0.002
298.15	190	2	0.0316	0.0021
298.15	290	2	0.0485	0.0021
298.15	390	2	0.0645	0.0034
298.15	490	2	0.0797	0.0032
298.15	690	2	0.111	0.0019
298.15	790	2	0.1255	0.0017
298.15	990	2	0.1547	0.0018
298.15	1190	2	0.1822	0.0019
298.15	1490	2	0.2223	0.0021
298.15	1790	2	0.2606	0.0024
298.15	1990	2	0.2843	0.0024
308.15	90	2	0.0139	0.0015
308.15	190	2	0.0281	0.0016
308.15	290	2	0.0422	0.002
308.15	390	2	0.0572	0.0015
308.15	490	2	0.071	0.0015
308.15	690	2	0.0968	0.0021
308.15	790	2	0.1105	0.0023
308.15	990	2	0.1355	0.0016
308.15	1190	2	0.1605	0.0018
308.15	1490	2	0.196	0.0018
308.15	1790	2	0.229	0.002
308.15	1990	2	0.251	0.0024
323.15	90	2	0.0117	0.0013
323.15	190	2	0.0234	0.0014
323.15	290	2	0.0353	0.0014
323.15	390	2	0.0479	0.0014
323.15	490	2	0.0589	0.0012
323.15	690	2	0.0816	0.0013
323.15	790	2	0.0929	0.0012
323.15	990	2	0.1132	0.0013
323.15	1190	2	0.1348	0.0014
323.15	1490	2	0.1653	0.0015
323.15	1790	2	0.1936	0.0017
323.15	1990	2	0.2126	0.0018

System: decanoic acid + tetraoctylammonium bromide + carbon dioxide; phases: Liquid, Gas
Fixed: Solvent: Amount ratio of component to other component of binary solvent of decanoic acid = 2
Property: Mole fraction of carbon dioxide (Liquid); method: Magnetic Suspension Balance
Temperature, K	Pressure, kPa	Mole fraction of carbon dioxide	uncertainty
298.15	90	0.0154	0.0017
298.15	190	0.0321	0.0018
298.15	290	0.0488	0.0019
298.15	390	0.0644	0.0017
298.15	490	0.0789	0.0017
298.15	790	0.1252	0.0022
298.15	990	0.1541	0.0018
298.15	1490	0.2209	0.002
298.15	1990	0.2835	0.0023
308.15	90	0.0136	0.0015
308.15	190	0.028	0.0014
308.15	290	0.0419	0.0015
308.15	390	0.0559	0.0016
308.15	490	0.0694	0.0014
308.15	790	0.1092	0.0019
308.15	990	0.1347	0.0024
308.15	1490	0.1941	0.0021
308.15	1990	0.2491	0.003
323.15	90	0.0114	0.0019
323.15	190	0.0237	0.002
323.15	290	0.0353	0.0015
323.15	390	0.047	0.0023
323.15	490	0.0585	0.0025
323.15	790	0.092	0.0018
323.15	990	0.1135	0.0014
323.15	1490	0.1638	0.0015
323.15	1990	0.2112	0.0017
