Measured thermophysical data. Measurement and Correlation of the Solubility of 5-Fluorouracil in Pure and Binary Solvents
Source: J. Chem. Eng. Data, 2018, 10.1021/acs.jced.8b00425
Compound 1: 5-fluoro-2,4(1H,3H)-pyrimidinedione, C4H3FN2O2, InChI=1S/C4H3FN2O2/c5-2-1-6-4(9)7-3(2)8/h1H,(H2,6,7,8,9)
Compound 2: acetone, C3H6O, InChI=1S/C3H6O/c1-3(2)4/h1-2H3
Compound 3: acetonitrile, C2H3N, InChI=1S/C2H3N/c1-2-3/h1H3
Compound 4: butan-1-ol, C4H10O, InChI=1S/C4H10O/c1-2-3-4-5/h5H,2-4H2,1H3
Compound 5: 1,4-dioxane, C4H8O2, InChI=1S/C4H8O2/c1-2-6-4-3-5-1/h1-4H2
Compound 6: ethanol, C2H6O, InChI=1S/C2H6O/c1-2-3/h3H,2H2,1H3
Compound 7: ethyl acetate, C4H8O2, InChI=1S/C4H8O2/c1-3-6-4(2)5/h3H2,1-2H3
Compound 8: propan-2-ol, C3H8O, InChI=1S/C3H8O/c1-3(2)4/h3-4H,1-2H3
Compound 9: methanol, CH4O, InChI=1S/CH4O/c1-2/h2H,1H3
Compound 10: propan-1-ol, C3H8O, InChI=1S/C3H8O/c1-2-3-4/h4H,2-3H2,1H3
Compound 11: tetrahydrofuran, C4H8O, InChI=1S/C4H8O/c1-2-4-5-3-1/h1-4H2
Compound 12: water, H2O, InChI=1S/H2O/h1H2, purity 99.9%

System: 5-fluoro-2,4(1H,3H)-pyrimidinedione; phases: Crystal, Liquid, Air at 1 atmosphere
Property: Triple point temperature, K (Crystal); method: DSC
Triple point temperature, K	uncertainty
555.66	0.88

System: 5-fluoro-2,4(1H,3H)-pyrimidinedione; phases: Crystal, Liquid, Air at 1 atmosphere
Property: Molar enthalpy of transition or fusion, kJ/mol (Crystal); method: DSC
Molar enthalpy of transition or fusion, kJ/mol	uncertainty
28.79	0.74

System: 5-fluoro-2,4(1H,3H)-pyrimidinedione + acetone; phases: Liquid, Crystal
Fixed: Pressure, kPa = 101.3
Property: Solid-liquid equilibrium temperature, K (Liquid); method: VISOBS
Mole fraction of 5-fluoro-2,4(1H,3H)-pyrimidinedione	Solid-liquid equilibrium temperature, K	uncertainty
0.00152	282.9	6.1
0.00175	290.2	6.1
0.00199	298.4	6.1
0.00219	302.5	6.1
0.00229	305.1	6.1
0.00244	307.4	6.1
0.0028	315.2	6.1
0.00299	316.9	6.2
0.00304	322.4	9

System: 5-fluoro-2,4(1H,3H)-pyrimidinedione + ethanol; phases: Liquid, Crystal
Fixed: Pressure, kPa = 101.3
Property: Solid-liquid equilibrium temperature, K (Liquid); method: VISOBS
Mole fraction of 5-fluoro-2,4(1H,3H)-pyrimidinedione	Solid-liquid equilibrium temperature, K	uncertainty
0.00099	281.1	6
0.00124	286.9	6
0.00137	291.2	6
0.00167	297.7	6
0.00206	306.2	6.1
0.00216	309.1	6.1
0.0026	314.8	6
0.00267	315.1	6
0.0032	322.8	6
0.00329	323.7	6
0.00366	325.6	6
0.00399	329.9	6.1

System: 5-fluoro-2,4(1H,3H)-pyrimidinedione + propan-2-ol; phases: Liquid, Crystal
Fixed: Pressure, kPa = 101.3
Property: Solid-liquid equilibrium temperature, K (Liquid); method: VISOBS
Mole fraction of 5-fluoro-2,4(1H,3H)-pyrimidinedione	Solid-liquid equilibrium temperature, K	uncertainty
0.00085	282.1	6.1
0.00089	284.6	6
0.00102	286.8	6
0.00119	294.9	6
0.00147	301.3	6
0.00163	302.4	6
0.00188	308	6
0.00217	311.6	6
0.00237	316.2	6
0.00258	318	6
0.00301	323	6
0.00346	327.5	6
0.00381	330	6

System: 5-fluoro-2,4(1H,3H)-pyrimidinedione + water; phases: Liquid, Crystal
Fixed: Pressure, kPa = 101.3
Property: Solid-liquid equilibrium temperature, K (Liquid); method: VISOBS
Mole fraction of 5-fluoro-2,4(1H,3H)-pyrimidinedione	Solid-liquid equilibrium temperature, K	uncertainty
0.00091	280.1	6.4
0.00093	282.5	6.4
0.00124	290.8	6
0.00147	294.5	6
0.0021	304.4	6
0.00288	312.1	6
0.00337	317.5	6
0.00402	323	6

System: 5-fluoro-2,4(1H,3H)-pyrimidinedione + butan-1-ol; phases: Liquid, Crystal
Fixed: Pressure, kPa = 101.3
Property: Solid-liquid equilibrium temperature, K (Liquid); method: VISOBS
Mole fraction of 5-fluoro-2,4(1H,3H)-pyrimidinedione	Solid-liquid equilibrium temperature, K	uncertainty
0.00058	280.1	6.9
0.00059	283	6.9
0.00086	287.8	6
0.00103	299.5	6.1
0.00121	303.4	6
0.00141	306.3	6
0.00182	314.8	6
0.0026	325.8	6.1
0.00267	327	6.1
0.00313	331.5	6

System: 5-fluoro-2,4(1H,3H)-pyrimidinedione + ethyl acetate; phases: Liquid, Crystal
Fixed: Pressure, kPa = 101.3
Property: Solid-liquid equilibrium temperature, K (Liquid); method: VISOBS
Mole fraction of 5-fluoro-2,4(1H,3H)-pyrimidinedione	Solid-liquid equilibrium temperature, K	uncertainty
0.00041	291.1	6
0.00048	297	6
0.00054	300.6	6.1
0.00063	310.8	6.1
0.00077	320.3	6.1
0.00099	330.6	6.1

System: 5-fluoro-2,4(1H,3H)-pyrimidinedione + propan-1-ol; phases: Liquid, Crystal
Fixed: Pressure, kPa = 101.3
Property: Solid-liquid equilibrium temperature, K (Liquid); method: VISOBS
Mole fraction of 5-fluoro-2,4(1H,3H)-pyrimidinedione	Solid-liquid equilibrium temperature, K	uncertainty
0.00082	280.8	6
0.00089	282.4	6.1
0.00098	291.2	6.1
0.00108	294.5	6
0.00121	298.4	7.6
0.00123	302.2	7.6
0.00149	308.6	6
0.00172	313	6
0.00179	315.1	6.1
0.00208	318.3	6
0.00224	322.3	6
0.00245	324.3	6
0.00263	326.2	6

System: 5-fluoro-2,4(1H,3H)-pyrimidinedione + acetonitrile; phases: Liquid, Crystal
Fixed: Pressure, kPa = 101.3
Property: Solid-liquid equilibrium temperature, K (Liquid); method: VISOBS
Mole fraction of 5-fluoro-2,4(1H,3H)-pyrimidinedione	Solid-liquid equilibrium temperature, K	uncertainty
0.00046	290.3	6
0.00053	294.6	6
0.00062	299.1	6
0.00066	300.3	6
0.00081	306.6	6.1
0.00083	307.6	6.1
0.00102	316	6
0.00121	320.2	6.1
0.00143	329	6.1
0.00162	332.3	6

System: 5-fluoro-2,4(1H,3H)-pyrimidinedione + methanol; phases: Liquid, Crystal
Fixed: Pressure, kPa = 101.3
Property: Solid-liquid equilibrium temperature, K (Liquid); method: VISOBS
Mole fraction of 5-fluoro-2,4(1H,3H)-pyrimidinedione	Solid-liquid equilibrium temperature, K	uncertainty
0.00165	280	6
0.00216	287.7	6
0.00289	295.8	6
0.00379	306.8	6.1
0.00502	318.4	6.1
0.00581	326	6
0.00661	328.8	6

System: 5-fluoro-2,4(1H,3H)-pyrimidinedione + 1,4-dioxane; phases: Liquid, Crystal
Fixed: Pressure, kPa = 101.3
Property: Solid-liquid equilibrium temperature, K (Liquid); method: VISOBS
Mole fraction of 5-fluoro-2,4(1H,3H)-pyrimidinedione	Solid-liquid equilibrium temperature, K	uncertainty
0.00112	290.2	6
0.00123	291.3	6
0.00158	300.9	6.1
0.00176	305.2	6
0.00187	306.4	6
0.00205	310.4	6.1
0.00218	313.3	6.1
0.00225	313.9	6
0.00247	318	6.1
0.00258	319.5	6
0.00284	322.8	6.1
0.00332	329.8	6.1

System: 5-fluoro-2,4(1H,3H)-pyrimidinedione + tetrahydrofuran; phases: Liquid, Crystal
Fixed: Pressure, kPa = 101.3
Property: Solid-liquid equilibrium temperature, K (Liquid); method: VISOBS
Mole fraction of 5-fluoro-2,4(1H,3H)-pyrimidinedione	Solid-liquid equilibrium temperature, K	uncertainty
0.00246	279.6	6.2
0.00273	287	6.2
0.00289	293.2	6.2
0.00328	303.8	6.2
0.00349	308.7	6.3
0.00367	314.6	6.2
0.00418	325.2	6.2
0.00454	328.6	6.1

System: 5-fluoro-2,4(1H,3H)-pyrimidinedione + water + ethanol; phases: Liquid, Crystal
Fixed: Pressure, kPa = 101.3
Property: Solid-liquid equilibrium temperature, K (Liquid); method: VISOBS
Solvent: Mass fraction of ethanol	Mole fraction of 5-fluoro-2,4(1H,3H)-pyrimidinedione	Solid-liquid equilibrium temperature, K	uncertainty
0.08	0.00089	281.4	6.1
0.08	0.00093	284	6
0.08	0.00097	284.3	6
0.08	0.00123	289	6
0.08	0.00146	293.5	6
0.08	0.00151	294.4	6
0.08	0.00181	297.2	6
0.08	0.00218	303.4	6
0.08	0.00225	304.3	6
0.08	0.00249	307.1	6
0.08	0.00278	309.5	6
0.08	0.00325	313.5	6
0.08	0.00476	324	6
0.08	0.00488	324.9	6
0.08	0.00586	329.8	6
0.26	0.00083	279.9	6
0.26	0.00162	292.7	6
0.26	0.00254	302.2	6
0.26	0.004	312	6
0.26	0.00628	323.5	6
0.26	0.00785	330.7	6
0.65	0.00211	282.7	6
0.65	0.00264	287.9	6
0.65	0.00328	294.4	6
0.65	0.004	299.7	6
0.65	0.00452	304.4	6
0.65	0.0063	313.8	6
0.65	0.00811	322.2	6
0.65	0.0085	323.5	6
0.65	0.00939	327	6
0.65	0.01061	330.4	6
0.17	0.00084	281.2	6
0.17	0.00099	285.2	6
0.17	0.00151	292.7	6
0.17	0.0023	302	6
0.17	0.00355	312.1	6
0.17	0.00536	323.5	6
0.17	0.00665	329.5	6
0.17	0.00805	332.9	6
0.44	0.00148	280.5	6.7
0.44	0.00156	282.9	6
0.44	0.00187	288.8	6
0.44	0.00253	293.5	6
0.44	0.00357	302.5	6
0.44	0.00624	317	6
0.44	0.00815	324.1	6
0.44	0.01019	331	6
0	0.00091	280.1	6.4
0	0.00093	282.5	6.4
0	0.00124	290.8	6
0	0.00147	294.5	6
0	0.0021	304.4	6
0	0.00288	312.1	6
0	0.00337	317.5	6
0	0.00402	323	6
1	0.00099	281.1	6
1	0.00124	286.9	6
1	0.00137	291.2	6
1	0.00167	297.7	6
1	0.00206	306.2	6.1
1	0.00216	309.1	6.1
1	0.0026	314.8	6
1	0.00267	315.1	6
1	0.0032	322.8	6
1	0.00329	323.7	6
1	0.00366	325.6	6
1	0.00399	329.9	6.1
