Measured thermophysical data. Liquid-Liquid Equilibria for the Ternary Systems of Water + Thioglycolic Acid + 2-Ethyl-1-hexyl Thioglycolate and Water + 2-Ethyl-1-hexyl Thioglycolate + 2-Ethyl-1-hexanol at 293.15, 303.15, and 313.15 K under 101 kPa
Source: J. Chem. Eng. Data, 2019, 10.1021/acs.jced.8b00619
Compound 1: 2-mercaptoacetic acid, C2H4O2S, InChI=1S/C2H4O2S/c3-2(4)1-5/h5H,1H2,(H,3,4), purity 98%
Compound 2: 2-ethyl-1-hexanol, C8H18O, InChI=1S/C8H18O/c1-3-5-6-8(4-2)7-9/h8-9H,3-7H2,1-2H3, purity 99.5%
Compound 3: 2-ethylhexyl thioglycolate, C10H20O2S, InChI=1S/C10H20O2S/c1-3-5-6-9(4-2)7-12-10(11)8-13/h9,13H,3-8H2,1-2H3, purity 98%
Compound 4: water, H2O, InChI=1S/H2O/h1H2, purity 99.9%

System: water + 2-mercaptoacetic acid + 2-ethylhexyl thioglycolate; phases: Liquid mixture 2, Liquid mixture 1
Fixed: Pressure, kPa = 101
Property: Mole fraction of water (Liquid mixture 2); method: Chromatography
Property: Mole fraction of water (Liquid mixture 1); method: Chromatography
Property: Mole fraction of 2-mercaptoacetic acid (Liquid mixture 1); method: Chromatography
Temperature, K	Mole fraction of 2-mercaptoacetic acid	Mole fraction of water	uncertainty	Mole fraction of water	uncertainty	Mole fraction of 2-mercaptoacetic acid	uncertainty
293.15	0	0.9993	0.0007	0.123	0.0061	0	
303.15	0.1727	0.8239	0.0087	0.1289	0.0061	0.0448	
303.15	0.4047	0.5693	0.0096	0.1271	0.0061	0.1307	
303.15	0.493	0.4484	0.0109	0.1302	0.0061	0.2126	
303.15	0.5209	0.3981	0.0138	0.1358	0.0061	0.2694	
303.15	0.5371	0.3569	0.017	0.1466	0.0062	0.3335	
313.15	0	0.9996	0.0004	0.137	0.0061	0	
313.15	0.1962	0.8002	0.0087	0.1351	0.0061	0.0513	
313.15	0.2605	0.7328	0.0091	0.1341	0.0061	0.0703	
313.15	0.4122	0.562	0.0099	0.1326	0.0061	0.141	
313.15	0.4949	0.4488	0.0111	0.136	0.0061	0.2294	
293.15	0.1751	0.8207	0.0087	0.1224	0.0061	0.0449	
313.15	0.5242	0.3955	0.0137	0.1451	0.0062	0.3045	
313.15	0.5367	0.3634	0.0167	0.1573	0.0062	0.3628	
293.15	0.2419	0.7507	0.0091	0.1219	0.0061	0.0616	
293.15	0.4018	0.5707	0.0099	0.122	0.0061	0.1248	
293.15	0.4894	0.4505	0.0112	0.1252	0.0061	0.1983	
293.15	0.5227	0.3884	0.0142	0.1312	0.0061	0.2598	
293.15	0.5372	0.3479	0.018	0.1399	0.0062	0.3158	
303.15	0	0.9995	0.0005	0.13	0.0061	0	
303.15	0.127	0.8709	0.0086	0.1294	0.0061	0.0351	

System: water + 2-ethylhexyl thioglycolate + 2-ethyl-1-hexanol; phases: Liquid mixture 1, Liquid mixture 2
Fixed: Pressure, kPa = 101
Property: Mole fraction of water (Liquid mixture 1); method: Chromatography
Property: Mole fraction of water (Liquid mixture 2); method: Chromatography
Property: Mole fraction of 2-ethylhexyl thioglycolate (Liquid mixture 2); method: Chromatography
Temperature, K	Mole fraction of 2-ethylhexyl thioglycolate	Mole fraction of water	uncertainty	Mole fraction of water	uncertainty	Mole fraction of 2-ethylhexyl thioglycolate	uncertainty
293.15	0	0.1204	0.0081	0.9988	0.0012	0	
293.15	0.1728	0.1148	0.008	0.9988	0.0012	0.0001	
293.15	0.4388	0.1091	0.0081	0.9988	0.0012	0.0004	
293.15	0.48	0.1062	0.008	0.9988	0.0012	0.0005	
293.15	0.5703	0.1062	0.008	0.9988	0.0012	0.0006	
293.15	0.641	0.106	0.008	0.9988	0.0012	0.0007	
293.15	0.7004	0.1058	0.008	0.9988	0.0012	0.0008	
293.15	0.8046	0.1067	0.008	0.9988	0.0012	0.001	
303.15	0	0.1376	0.0081	0.9988	0.0012	0	
303.15	0.1513	0.131	0.0081	0.9988	0.0012	0.0001	
303.15	0.3166	0.1249	0.0081	0.9989	0.0011	0.0003	
303.15	0.4243	0.1204	0.0081	0.9988	0.0012	0.0004	
303.15	0.4674	0.1194	0.008	0.9988	0.0012	0.0005	
303.15	0.5642	0.1174	0.008	0.9989	0.0011	0.0006	
303.15	0.6227	0.116	0.008	0.9989	0.0011	0.0007	
303.15	0.6925	0.1145	0.008	0.9988	0.0012	0.0008	
303.15	0.8047	0.1113	0.008	0.9988	0.0012	0.001	
313.15	0	0.1651	0.0081	0.999	0.001	0	
313.15	0.1911	0.144	0.0081	0.999	0.001	0.0002	
313.15	0.3853	0.1256	0.0081	0.9989	0.0011	0.0004	
313.15	0.448	0.1207	0.0081	0.9989	0.0011	0.0005	
313.15	0.551	0.1139	0.0081	0.9988	0.0012	0.0006	
313.15	0.6322	0.1107	0.008	0.9988	0.0012	0.0007	
313.15	0.7285	0.111	0.008	0.9988	0.0012	0.0009	
313.15	0.7942	0.1159	0.0081	0.9988	0.0012	0.001	

System: water + 2-ethylhexyl thioglycolate; phases: Liquid mixture 2, Liquid mixture 1
Fixed: Pressure, kPa = 101
Property: Mole fraction of water (Liquid mixture 2); method: Chromatography
Temperature, K	Mole fraction of water	uncertainty
293.15	0.9993	0.0007
303.15	0.9995	0.0005
313.15	0.9996	0.0004

System: water + 2-ethylhexyl thioglycolate; phases: Liquid mixture 1, Liquid mixture 2
Fixed: Pressure, kPa = 101
Property: Mole fraction of water (Liquid mixture 1); method: Chromatography
Temperature, K	Mole fraction of water	uncertainty
293.15	0.123	0.0061
303.15	0.13	0.0061
313.15	0.137	0.0061

System: water + 2-ethyl-1-hexanol; phases: Liquid mixture 1, Liquid mixture 2
Fixed: Pressure, kPa = 101
Property: Mole fraction of water (Liquid mixture 1); method: Chromatography
Temperature, K	Mole fraction of water	uncertainty
293.15	0.1204	0.0081
313.15	0.1651	0.0081
303.15	0.1376	0.0081

System: water + 2-ethyl-1-hexanol; phases: Liquid mixture 2, Liquid mixture 1
Fixed: Pressure, kPa = 101
Property: Mole fraction of water (Liquid mixture 2); method: Chromatography
Temperature, K	Mole fraction of water	uncertainty
293.15	0.9988	0.0012
313.15	0.999	0.001
303.15	0.9988	0.0012
