Measured thermophysical data. Experimental Solubility Data for Binary Mixtures of Ethane and 2,2,4-Trimethylpentane at Pressures up to 6 MPa Using a New Variable-Volume Sapphire Cell
Source: J. Chem. Eng. Data, 2017, 10.1021/acs.jced.7b00613
Compound 1: carbon dioxide, CO2, InChI=1S/CO2/c2-1-3
Compound 2: ethane, C2H6, InChI=1S/C2H6/c1-2/h1-2H3
Compound 3: hexane, C6H14, InChI=1S/C6H14/c1-3-5-6-4-2/h3-6H2,1-2H3, purity 99%
Compound 4: 2,2,4-trimethylpentane, C8H18, InChI=1S/C8H18/c1-7(2)6-8(3,4)5/h7H,6H2,1-5H3, purity 99%
Compound 5: octane, C8H18, InChI=1S/C8H18/c1-3-5-7-8-6-4-2/h3-8H2,1-2H3, purity 99%

System: carbon dioxide; phases: Liquid, Gas
Property: Vapor or sublimation pressure, kPa (Liquid); method: Closed cell (Static) method
Temperature, K	Vapor or sublimation pressure, kPa	uncertainty
278.15	3962	18

System: ethane; phases: Liquid, Gas
Property: Vapor or sublimation pressure, kPa (Liquid); method: Closed cell (Static) method
Temperature, K	Vapor or sublimation pressure, kPa	uncertainty
278.15	2699	14

System: hexane; phases: Liquid
Property: Mass density, kg/m3 (Liquid); method: Vibrating tube method
Temperature, K	Pressure, kPa	Mass density, kg/m3	uncertainty
293.15	101.325	660	1

System: hexane; phases: Liquid
Property: Refractive index (Na D-line) (Liquid); method: Standard Abbe refractometry
Temperature, K	Pressure, kPa	Refractive index (Na D-line)	uncertainty
293.15	101.325	1.375	0.001

System: 2,2,4-trimethylpentane; phases: Liquid
Property: Mass density, kg/m3 (Liquid); method: Vibrating tube method
Temperature, K	Pressure, kPa	Mass density, kg/m3	uncertainty
293.15	101.325	692	1

System: 2,2,4-trimethylpentane; phases: Liquid
Property: Refractive index (Na D-line) (Liquid); method: Standard Abbe refractometry
Temperature, K	Pressure, kPa	Refractive index (Na D-line)	uncertainty
293.15	101.325	1.391	0.001

System: octane; phases: Liquid
Property: Mass density, kg/m3 (Liquid); method: Vibrating tube method
Temperature, K	Pressure, kPa	Mass density, kg/m3	uncertainty
293.15	101.325	703	1

System: octane; phases: Liquid
Property: Refractive index (Na D-line) (Liquid); method: Standard Abbe refractometry
Temperature, K	Pressure, kPa	Refractive index (Na D-line)	uncertainty
293.15	101.325	1.396	0.001

System: ethane + octane; phases: Liquid, Gas
Property: Vapor or sublimation pressure, kPa (Liquid); method: Closed cell (Static) method
Temperature, K	Mole fraction of ethane	Vapor or sublimation pressure, kPa	uncertainty
313	0.149	670	100
313	0.383	1770	80
313	0.565	2720	60
313	0.766	3870	40
313	0.855	4430	40
323	0.31	1570	90
323	0.426	2240	70
323	0.469	2490	70
323	0.58	3220	60
323	0.689	3980	50
323	0.842	5070	40

System: carbon dioxide + hexane; phases: Liquid, Gas
Fixed: Temperature, K = 313.15
Property: Vapor or sublimation pressure, kPa (Liquid); method: Closed cell (Static) method
Mole fraction of carbon dioxide	Vapor or sublimation pressure, kPa	uncertainty
0.295	2810	130
0.384	3580	70
0.405	3740	60
0.513	4560	50
0.609	5220	50
0.778	6370	50
0.803	6510	50
0.855	6850	60
0.891	7250	50

System: ethane + 2,2,4-trimethylpentane; phases: Liquid, Gas
Property: Vapor or sublimation pressure, kPa (Liquid); method: Closed cell (Static) method
Temperature, K	Mole fraction of ethane	Vapor or sublimation pressure, kPa	uncertainty
303.15	0.157	580	40
303.15	0.218	750	50
303.15	0.319	1140	40
303.15	0.392	1430	40
303.15	0.504	1880	40
303.15	0.519	1940	40
303.15	0.558	2140	30
303.15	0.567	2160	30
303.15	0.683	2710	30
303.15	0.752	3100	30
303.15	0.907	3920	30
313.15	0.157	660	50
313.15	0.218	870	60
313.15	0.319	1320	50
313.15	0.392	1670	50
313.15	0.504	2200	30
313.15	0.519	2260	40
313.15	0.558	2490	30
313.15	0.567	2540	40
313.15	0.683	3180	40
313.15	0.752	3660	40
313.15	0.907	4660	30
323.15	0.157	760	60
323.15	0.218	990	60
323.15	0.319	1510	60
323.15	0.392	1920	50
323.15	0.504	2530	40
323.15	0.519	2600	50
323.15	0.558	2870	30
323.15	0.567	2920	50
323.15	0.683	3690	40
323.15	0.752	4250	40
323.15	0.907	5440	30
333.15	0.157	850	70
333.15	0.218	1130	70
333.15	0.319	1720	60
333.15	0.392	2170	60
333.15	0.504	2880	50
333.15	0.519	2970	60
333.15	0.558	3280	50
333.15	0.567	3340	50
333.15	0.683	4220	50
333.15	0.752	4870	40
333.15	0.907	6230	30
