Measured thermophysical data. Vapor-Liquid Equilibrium Measurements for 2,3,3,3-Tetrafluoroprop-1-ene + Butane at Temperatures from 283.15 to 323.15 K
Source: J. Chem. Eng. Data, 2018, 10.1021/acs.jced.7b01073
Compound 1: 2,3,3,3-tetrafluoro-1-propene, C3H2F4, InChI=1S/C3H2F4/c1-2(4)3(5,6)7/h1H2, purity 99.9%
Compound 2: butane, C4H10, InChI=1S/C4H10/c1-3-4-2/h3-4H2,1-2H3, purity 99.9%

System: 2,3,3,3-tetrafluoro-1-propene; phases: Liquid, Gas
Property: Vapor or sublimation pressure, kPa (Liquid); method: Closed cell (Static) method
Temperature, K	Vapor or sublimation pressure, kPa	uncertainty
283.15	437.9	7
293.15	591.5	7.1
303.15	782.9	7.1
313.15	1018.2	7.2
323.15	1302.4	7.2

System: butane; phases: Liquid, Gas
Property: Vapor or sublimation pressure, kPa (Liquid); method: Closed cell (Static) method
Temperature, K	Vapor or sublimation pressure, kPa	uncertainty
283.15	148.1	1
293.15	207.2	1
303.15	283.4	1.1
313.15	378.6	1.1
323.15	496.5	1.2

System: 2,3,3,3-tetrafluoro-1-propene + butane; phases: Liquid, Gas
Property: Vapor or sublimation pressure, kPa (Liquid); method: Closed cell (Static) method
Mole fraction of 2,3,3,3-tetrafluoro-1-propene	Temperature, K	Vapor or sublimation pressure, kPa	uncertainty
0	283.15	148.1	7
0.085	283.15	249.5	8.5
0.192	283.15	304.3	7.4
0.369	283.15	353.7	7.2
0.602	283.15	391.4	7.1
0.843	283.15	420.6	7.1
0.875	283.15	424.2	7.2
0.906	283.15	435.5	7.2
0.949	283.15	436.4	7.1
1	283.15	437.9	7.1
0	293.15	207.2	7
0.085	293.15	333.5	9.3
0.192	293.15	407	7.6
0.369	293.15	474.3	7.3
0.602	293.15	526.6	7.3
0.843	293.15	570.8	7.3
0.875	293.15	575.2	7.3
0.906	293.15	586.3	7.2
0.949	293.15	588.7	7.2
1	293.15	591.5	7.2
0	303.15	283.4	7
0.085	303.15	438.4	10.4
0.192	303.15	532.7	8.1
0.369	303.15	622.3	7.6
0.602	303.15	695.1	7.5
0.843	303.15	755.5	7.5
0.875	303.15	761.7	7.6
0.906	303.15	774.2	7.4
0.949	303.15	779.8	7.4
1	303.15	782.9	7.4
0	313.15	378.6	7.1
0.085	313.15	563.2	11.7
0.192	313.15	681.9	8.7
0.369	313.15	798.1	8
0.602	313.15	899.3	7.8
0.843	313.15	982.2	7.7
0.875	313.15	990.1	7.9
0.906	313.15	1005.7	7.7
0.949	313.15	1011.5	7.6
1	313.15	1018.2	7.6
0	323.15	496.5	7.1
0.085	323.15	710.5	13.4
0.192	323.15	861.3	9.7
0.369	323.15	1010.1	8.6
0.602	323.15	1143.7	8.3
0.843	323.15	1253.5	8.1
0.875	323.15	1264.8	8.4
0.906	323.15	1285	8.2
0.949	323.15	1292.5	8
1	323.15	1302.4	7.9

System: 2,3,3,3-tetrafluoro-1-propene + butane; phases: Gas, Liquid
Property: Mole fraction of 2,3,3,3-tetrafluoro-1-propene (Gas); method: Chromatography
Mole fraction of 2,3,3,3-tetrafluoro-1-propene	Temperature, K	Mole fraction of 2,3,3,3-tetrafluoro-1-propene	uncertainty
0	283.15	0	
0.085	283.15	0.365	0.018
0.192	283.15	0.535	0.009
0.369	283.15	0.658	0.007
0.602	283.15	0.759	0.007
0.843	283.15	0.873	0.007
0.875	283.15	0.893	0.007
0.906	283.15	0.918	0.008
0.949	283.15	0.95	0.008
1	283.15	1	
0	293.15	0	
0.085	293.15	0.354	0.017
0.192	293.15	0.525	0.009
0.369	293.15	0.648	0.007
0.602	293.15	0.752	0.007
0.843	293.15	0.861	0.008
0.875	293.15	0.891	0.008
0.906	293.15	0.918	0.008
0.949	293.15	0.951	0.008
1	293.15	1	
0	303.15	0	
0.085	303.15	0.338	0.017
0.192	303.15	0.511	0.009
0.369	303.15	0.641	0.008
0.602	303.15	0.751	0.007
0.843	303.15	0.87	0.008
0.875	303.15	0.893	0.008
0.906	303.15	0.917	0.008
0.949	303.15	0.948	0.008
1	303.15	1	
0	313.15	0	
0.085	313.15	0.322	0.016
0.192	313.15	0.497	0.01
0.369	313.15	0.627	0.008
0.602	313.15	0.747	0.007
0.843	313.15	0.871	0.008
0.875	313.15	0.894	0.008
0.906	313.15	0.918	0.007
0.949	313.15	0.948	0.008
1	313.15	1	
0	323.15	0	
0.085	323.15	0.306	0.016
0.192	323.15	0.476	0.01
0.369	323.15	0.61	0.008
0.602	323.15	0.743	0.007
0.843	323.15	0.871	0.008
0.875	323.15	0.896	0.008
0.906	323.15	0.92	0.008
0.949	323.15	0.953	0.008
1	323.15	1	
