Measured thermophysical data. High-Pressure Density of Bis(1-alkyl-3-methylimidazolium) Tetraisothiocyanatocobaltate Ionic Liquids: Experimental and PC-SAFT with Volume-Shift Modeling
Source: J. Chem. Eng. Data, 2019, 10.1021/acs.jced.9b00334
Compound 1: bis(1-ethyl-3-methylimidazolium) tetrathiocyanatocobaltate, C16H22CoN8S4, InChI=1S/2C6H11N2.4CNS.Co/c2*1-3-8-5-4-7(2)6-8;4*2-1-3;/h2*4-6H,3H2,1-2H3;;;;;/q2*+1;4*-1;+2, purity 98%
Compound 2: bis(1-butyl-3-methylimidazolium) tetrathiocyanatocobaltate, C20H30CoN8S4, InChI=1S/2C8H15N2.4CNS.Co/c2*1-3-4-5-10-7-6-9(2)8-10;4*2-1-3;/h2*6-8H,3-5H2,1-2H3;;;;;/q2*+1;4*-1;+2, purity 98%

System: bis(1-ethyl-3-methylimidazolium) tetrathiocyanatocobaltate; phases: Liquid
Property: Mass density, kg/m3 (Liquid); method: Vibrating tube method
Temperature, K	Pressure, kPa	Mass density, kg/m3	uncertainty
283.1	100	1286.1	1.5
283.1	1000	1286.5	1.5
283.1	2000	1287	1.5
283.1	5000	1288.4	1.5
283.1	7000	1289.3	1.6
283.1	10000	1290.6	1.6
283.1	15000	1292.8	1.7
283.1	20000	1295	1.7
283.1	25000	1297.1	1.8
283.1	30000	1299.1	1.9
283.1	35000	1301.1	1.9
283.1	40000	1303.2	2
283.1	45000	1305.2	2.1
283.1	50000	1307.2	2.1
283.1	55000	1309	2.2
283.1	60000	1311	2.3
283.1	65000	1312.9	2.3
283.1	70000	1314.8	2.4
283.1	75000	1316.6	2.5
283.1	80000	1318.3	2.5
283.1	85000	1320	2.6
283.1	90000	1321.9	2.7
283.1	95000	1323.8	2.8
293.1	100	1278.7	1.5
293.1	1000	1279.1	1.5
293.1	2000	1279.6	1.5
293.1	5000	1281.1	1.5
293.1	7000	1282.1	1.6
293.1	10000	1283.4	1.6
293.1	15000	1285.7	1.6
293.1	20000	1287.9	1.7
293.1	25000	1290	1.8
293.1	30000	1292.1	1.8
293.1	35000	1294.3	1.9
293.1	40000	1296.3	2
293.1	45000	1298.4	2
293.1	50000	1300.5	2.1
293.1	55000	1302.5	2.2
293.1	60000	1304.3	2.2
293.1	65000	1306.3	2.3
293.1	70000	1308.3	2.4
293.1	75000	1310.2	2.4
293.1	80000	1312.2	2.5
293.1	85000	1313.9	2.6
293.1	90000	1315.6	2.7
293.1	95000	1317.5	2.7
303.1	100	1271.5	1.4
303.1	1000	1272	1.5
303.1	2000	1272.5	1.5
303.1	5000	1273.9	1.5
303.1	7000	1274.9	1.5
303.1	10000	1276.3	1.6
303.1	15000	1278.6	1.6
303.1	20000	1281	1.7
303.1	25000	1283.1	1.7
303.1	30000	1285.4	1.8
303.1	35000	1287.6	1.9
303.1	40000	1289.6	1.9
303.1	45000	1291.7	2
303.1	50000	1294	2.1
303.1	55000	1295.9	2.1
303.1	60000	1297.9	2.2
303.1	65000	1299.7	2.3
303.1	70000	1301.7	2.3
303.1	75000	1303.7	2.4
303.1	80000	1305.4	2.5
303.1	85000	1307.4	2.5
303.1	90000	1309.4	2.6
303.1	95000	1311	2.7
313.2	100	1264.4	1.4
313.2	1000	1264.9	1.4
313.2	2000	1265.3	1.5
313.2	5000	1266.8	1.5
313.2	7000	1267.9	1.5
313.2	10000	1269.4	1.5
313.2	15000	1271.7	1.6
313.2	20000	1274.1	1.7
313.2	25000	1276.3	1.7
313.2	30000	1278.7	1.8
313.2	35000	1280.9	1.8
313.2	40000	1282.9	1.9
313.2	45000	1285.1	2
313.2	50000	1287.4	2
313.2	55000	1289.5	2.1
313.2	60000	1291.4	2.2
313.2	65000	1293.3	2.2
313.2	70000	1295.3	2.3
313.2	75000	1297.2	2.4
313.2	80000	1299	2.4
313.2	85000	1301.1	2.5
313.2	90000	1302.9	2.6
313.2	95000	1304.8	2.6
323.2	100	1257.3	1.4
323.2	1000	1257.8	1.4
323.2	2000	1258.4	1.4
323.2	5000	1259.9	1.5
323.2	7000	1260.9	1.5
323.2	10000	1262.5	1.5
323.2	15000	1265	1.6
323.2	20000	1267.3	1.6
323.2	25000	1269.6	1.7
323.2	30000	1271.9	1.8
323.2	35000	1274.1	1.8
323.2	40000	1276.4	1.9
323.2	45000	1278.6	1.9
323.2	50000	1280.8	2
323.2	55000	1282.9	2.1
323.2	60000	1285	2.1
323.2	65000	1287	2.2
323.2	70000	1288.9	2.3
323.2	75000	1290.9	2.3
323.2	80000	1292.8	2.4
323.2	85000	1294.7	2.5
323.2	90000	1296.8	2.5
323.2	95000	1298.7	2.6
333.2	100	1250.3	1.4
333.2	1000	1250.7	1.4
333.2	2000	1251.3	1.4
333.2	5000	1253	1.5
333.2	7000	1253.9	1.5
333.2	10000	1255.3	1.5
333.2	15000	1257.9	1.6
333.2	20000	1260.1	1.6
333.2	25000	1262.7	1.7
333.2	30000	1265.1	1.7
333.2	35000	1267.5	1.8
333.2	40000	1269.5	1.9
333.2	45000	1272	1.9
333.2	50000	1274.2	2
333.2	55000	1276.4	2
333.2	60000	1278.4	2.1
333.2	65000	1280.4	2.2
333.2	70000	1282.4	2.2
333.2	75000	1284.6	2.3
333.2	80000	1286.5	2.4
333.2	85000	1288.6	2.4
333.2	90000	1290.4	2.5
333.2	95000	1292.5	2.6
343.1	100	1243.3	1.4
343.1	1000	1243.7	1.4
343.1	2000	1244.3	1.4
343.1	5000	1246	1.4
343.1	7000	1247	1.5
343.1	10000	1248.6	1.5
343.1	15000	1251.3	1.5
343.1	20000	1253.7	1.6
343.1	25000	1256	1.7
343.1	30000	1258.3	1.7
343.1	35000	1260.6	1.8
343.1	40000	1263	1.8
343.1	45000	1265.5	1.9
343.1	50000	1267.7	2
343.1	55000	1269.6	2
343.1	60000	1271.8	2.1
343.1	65000	1274.1	2.1
343.1	70000	1275.9	2.2
343.1	75000	1277.9	2.3
343.1	80000	1280.2	2.3
343.1	85000	1282.4	2.4
343.1	90000	1284.3	2.5
343.1	95000	1286.1	2.5
353.1	100	1236.4	1.4
353.1	1000	1236.9	1.4
353.1	2000	1237.5	1.4
353.1	5000	1239.2	1.4
353.1	7000	1240.3	1.4
353.1	10000	1241.7	1.5
353.1	15000	1244.3	1.5
353.1	20000	1246.9	1.6
353.1	25000	1249.4	1.6
353.1	30000	1251.9	1.7
353.1	35000	1254.3	1.7
353.1	40000	1256.7	1.8
353.1	45000	1259.1	1.9
353.1	50000	1261.2	1.9
353.1	55000	1263.6	2
353.1	60000	1265.7	2
353.1	65000	1267.7	2.1
353.1	70000	1269.9	2.2
353.1	75000	1272	2.2
353.1	80000	1274.2	2.3
353.1	85000	1276.1	2.4
353.1	90000	1278.2	2.4
353.1	95000	1280.2	2.5
363.1	100	1229.5	1.3
363.1	1000	1230.1	1.4
363.1	2000	1230.6	1.4
363.1	5000	1232.4	1.4
363.1	7000	1233.5	1.4
363.1	10000	1235.1	1.5
363.1	15000	1237.7	1.5
363.1	20000	1240.4	1.6
363.1	25000	1243	1.6
363.1	30000	1245.6	1.7
363.1	35000	1248.2	1.7
363.1	40000	1250.5	1.8
363.1	45000	1252.7	1.8
363.1	50000	1254.9	1.9
363.1	55000	1257.2	2
363.1	60000	1259.4	2
363.1	65000	1261.6	2.1
363.1	70000	1263.7	2.1
363.1	75000	1265.8	2.2
363.1	80000	1267.8	2.3
363.1	85000	1270.1	2.3
363.1	90000	1272.1	2.4
363.1	95000	1273.8	2.5

System: bis(1-butyl-3-methylimidazolium) tetrathiocyanatocobaltate; phases: Liquid
Property: Mass density, kg/m3 (Liquid); method: Vibrating tube method
Temperature, K	Pressure, kPa	Mass density, kg/m3	uncertainty
283.16	100	1233.1	1.4
283.16	1000	1233.5	1.4
283.16	2000	1233.9	1.4
283.16	5000	1235.3	1.4
283.16	7000	1236.2	1.4
283.16	10000	1237.6	1.5
283.16	15000	1239.8	1.5
283.16	20000	1241.9	1.6
283.16	25000	1244	1.6
283.16	30000	1245.9	1.7
283.16	35000	1248	1.7
283.16	40000	1250.1	1.8
283.16	45000	1251.9	1.8
283.16	50000	1253.9	1.9
283.16	55000	1255.8	2
283.16	60000	1257.6	2
283.16	65000	1259.4	2.1
283.16	70000	1261.3	2.1
283.16	75000	1263.2	2.2
283.16	80000	1264.9	2.2
283.16	85000	1266.6	2.3
283.16	90000	1268.4	2.4
283.16	95000	1270.1	2.4
293.13	100	1226.4	1.3
293.13	1000	1226.9	1.3
293.13	2000	1227.4	1.4
293.13	5000	1228.9	1.4
293.13	7000	1229.7	1.4
293.13	10000	1231.1	1.4
293.13	15000	1233.5	1.5
293.13	20000	1235.6	1.5
293.13	25000	1237.6	1.6
293.13	30000	1239.7	1.6
293.13	35000	1241.8	1.7
293.13	40000	1243.8	1.8
293.13	45000	1245.9	1.8
293.13	50000	1248	1.9
293.13	55000	1250	1.9
293.13	60000	1251.9	2
293.13	65000	1253.8	2
293.13	70000	1255.5	2.1
293.13	75000	1257.4	2.2
293.13	80000	1259.1	2.2
293.13	85000	1261	2.3
293.13	90000	1262.6	2.3
293.13	95000	1264.4	2.4
303.17	100	1219.6	1.3
303.17	1000	1220.1	1.3
303.17	2000	1220.5	1.3
303.17	5000	1222.1	1.4
303.17	7000	1222.9	1.4
303.17	10000	1224.3	1.4
303.17	15000	1226.8	1.5
303.17	20000	1229.1	1.5
303.17	25000	1231.3	1.6
303.17	30000	1233.5	1.6
303.17	35000	1235.6	1.7
303.17	40000	1237.7	1.7
303.17	45000	1239.7	1.8
303.17	50000	1241.7	1.8
303.17	55000	1243.6	1.9
303.17	60000	1245.6	2
303.17	65000	1247.5	2
303.17	70000	1249.4	2.1
303.17	75000	1251.3	2.1
303.17	80000	1253.1	2.2
303.17	85000	1254.8	2.2
303.17	90000	1256.7	2.3
303.17	95000	1258.5	2.4
313.17	100	1212.6	1.3
313.17	1000	1213.2	1.3
313.17	2000	1213.6	1.3
313.17	5000	1215.2	1.4
313.17	7000	1216.2	1.4
313.17	10000	1217.7	1.4
313.17	15000	1220.1	1.5
313.17	20000	1222.5	1.5
313.17	25000	1224.8	1.6
313.17	30000	1226.9	1.6
313.17	35000	1229.1	1.7
313.17	40000	1231.3	1.7
313.17	45000	1233.3	1.8
313.17	50000	1235.3	1.8
313.17	55000	1237.4	1.9
313.17	60000	1239.4	1.9
313.17	65000	1241.3	2
313.17	70000	1243.4	2
313.17	75000	1245.2	2.1
313.17	80000	1247	2.2
313.17	85000	1248.9	2.2
313.17	90000	1250.6	2.3
313.17	95000	1252.5	2.3
323.18	100	1205.8	1.3
323.18	1000	1206.3	1.3
323.18	2000	1206.8	1.3
323.18	5000	1208.3	1.3
323.18	7000	1209.4	1.4
323.18	10000	1210.8	1.4
323.18	15000	1213.3	1.4
323.18	20000	1215.8	1.5
323.18	25000	1218.1	1.5
323.18	30000	1220.5	1.6
323.18	35000	1222.8	1.6
323.18	40000	1224.9	1.7
323.18	45000	1227	1.7
323.18	50000	1229.1	1.8
323.18	55000	1231.1	1.8
323.18	60000	1233.2	1.9
323.18	65000	1235.1	1.9
323.18	70000	1237.2	2
323.18	75000	1239.2	2.1
323.18	80000	1241	2.1
323.18	85000	1242.9	2.2
323.18	90000	1244.8	2.2
323.18	95000	1246.5	2.3
333.15	100	1199	1.3
333.15	1000	1199.5	1.3
333.15	2000	1200.1	1.3
333.15	5000	1201.8	1.3
333.15	7000	1202.7	1.3
333.15	10000	1204.2	1.4
333.15	15000	1206.7	1.4
333.15	20000	1209.2	1.5
333.15	25000	1211.6	1.5
333.15	30000	1213.9	1.6
333.15	35000	1216.2	1.6
333.15	40000	1218.3	1.7
333.15	45000	1220.5	1.7
333.15	50000	1222.8	1.8
333.15	55000	1224.9	1.8
333.15	60000	1227	1.9
333.15	65000	1229.1	1.9
333.15	70000	1231	2
333.15	75000	1233	2
333.15	80000	1235.1	2.1
333.15	85000	1236.9	2.1
333.15	90000	1238.9	2.2
333.15	95000	1240.7	2.3
343.14	100	1192.4	1.3
343.14	1000	1192.9	1.3
343.14	2000	1193.5	1.3
343.14	5000	1195.1	1.3
343.14	7000	1196.2	1.3
343.14	10000	1197.7	1.3
343.14	15000	1200.4	1.4
343.14	20000	1202.8	1.4
343.14	25000	1205.1	1.5
343.14	30000	1207.5	1.5
343.14	35000	1209.8	1.6
343.14	40000	1212.2	1.6
343.14	45000	1214.4	1.7
343.14	50000	1216.4	1.7
343.14	55000	1218.6	1.8
343.14	60000	1220.7	1.8
343.14	65000	1222.9	1.9
343.14	70000	1225	1.9
343.14	75000	1227	2
343.14	80000	1229.1	2.1
343.14	85000	1231	2.1
343.14	90000	1232.8	2.2
343.14	95000	1234.8	2.2
353.13	100	1185.8	1.2
353.13	1000	1186.3	1.3
353.13	2000	1186.9	1.3
353.13	5000	1188.6	1.3
353.13	7000	1189.6	1.3
353.13	10000	1191.2	1.3
353.13	15000	1193.8	1.4
353.13	20000	1196.5	1.4
353.13	25000	1198.9	1.5
353.13	30000	1201.3	1.5
353.13	35000	1203.6	1.6
353.13	40000	1205.9	1.6
353.13	45000	1208.1	1.7
353.13	50000	1210.5	1.7
353.13	55000	1212.8	1.8
353.13	60000	1215.1	1.8
353.13	65000	1216.9	1.9
353.13	70000	1219	1.9
353.13	75000	1221.1	2
353.13	80000	1223.1	2
353.13	85000	1225.2	2.1
353.13	90000	1227.1	2.1
353.13	95000	1229.1	2.2
363.14	100	1179.2	1.2
363.14	1000	1179.8	1.2
363.14	2000	1180.3	1.2
363.14	5000	1182	1.3
363.14	7000	1183.2	1.3
363.14	10000	1184.8	1.3
363.14	15000	1187.5	1.4
363.14	20000	1190	1.4
363.14	25000	1192.6	1.4
363.14	30000	1195	1.5
363.14	35000	1197.4	1.5
363.14	40000	1199.9	1.6
363.14	45000	1202.2	1.6
363.14	50000	1204.5	1.7
363.14	55000	1206.7	1.7
363.14	60000	1208.9	1.8
363.14	65000	1211.2	1.8
363.14	70000	1213.2	1.9
363.14	75000	1215.3	1.9
363.14	80000	1217.3	2
363.14	85000	1219.3	2
363.14	90000	1221.4	2.1
363.14	95000	1223.3	2.2
