Measured thermophysical data. Solubility and distribution of salinazid and vanillin isoniazid in the solvents modeling biological media
Source: J. Chem. Eng. Data, 2015, 10.1021/acs.jced.5b00352
Compound 1: N'-(2-hydroxybenzylidene)isonicotinohydrazide, C13H11N3O2, InChI=1S/C13H11N3O2/c17-12-4-2-1-3-11(12)9-15-16-13(18)10-5-7-14-8-6-10/h1-9,17H,(H,16,18)/b15-9+, purity 98%
Compound 2: N'-(2-hydroxy-3-methoxybenzylidene)isonicotinohydrazide, C14H13N3O3, InChI=1S/C14H13N3O3/c1-20-12-4-2-3-11(13(12)18)9-16-17-14(19)10-5-7-15-8-6-10/h2-9,18H,1H3,(H,17,19)/b16-9+, purity 98%
Compound 3: octan-1-ol, C8H18O, InChI=1S/C8H18O/c1-2-3-4-5-6-7-8-9/h9H,2-8H2,1H3, purity 99%

System: octan-1-ol + N'-(2-hydroxybenzylidene)isonicotinohydrazide; phases: Liquid, Crystal
Fixed: Pressure, kPa = 101.33
Property: Mole fraction of N'-(2-hydroxybenzylidene)isonicotinohydrazide (Liquid); method: UV Spectroscopy
Temperature, K	Mole fraction of N'-(2-hydroxybenzylidene)isonicotinohydrazide	uncertainty
293.15	0.000368	2.9e-05
298.15	0.000424	3.4e-05
303.15	0.000515	4.1e-05
308.15	0.000569	4.6e-05
313.15	0.000659	5.3e-05

System: octan-1-ol + N'-(2-hydroxy-3-methoxybenzylidene)isonicotinohydrazide; phases: Liquid, Crystal
Fixed: Pressure, kPa = 101.33
Property: Mole fraction of N'-(2-hydroxy-3-methoxybenzylidene)isonicotinohydrazide (Liquid); method: UV spectroscopy
Temperature, K	Mole fraction of N'-(2-hydroxy-3-methoxybenzylidene)isonicotinohydrazide	uncertainty
293.15	0.00017	1.4e-05
298.15	0.000202	1.6e-05
303.15	0.00025	2e-05
308.15	0.000298	2.4e-05
313.15	0.000368	2.9e-05
