Measured thermophysical data. Liquid-Liquid Extraction of Alcohols from Their Azeotropic Mixtures with Hexane Using Ionic Liquid
Source: J. Chem. Eng. Data, 2018, 10.1021/acs.jced.8b00362
Compound 1: ethanol, C2H6O, InChI=1S/C2H6O/c1-2-3/h3H,2H2,1H3, purity 99.9%
Compound 2: propan-1-ol, C3H8O, InChI=1S/C3H8O/c1-2-3-4/h4H,2-3H2,1H3, purity 99.5%
Compound 3: propan-2-ol, C3H8O, InChI=1S/C3H8O/c1-3(2)4/h3-4H,1-2H3, purity 99.5%
Compound 4: butan-1-ol, C4H10O, InChI=1S/C4H10O/c1-2-3-4-5/h5H,2-4H2,1H3, purity 99.5%
Compound 5: hexane, C6H14, InChI=1S/C6H14/c1-3-5-6-4-2/h3-6H2,1-2H3, purity 99%
Compound 6: 1-ethyl-3-methylimidazolium thiocyanate, C7H11N3S, InChI=1S/C6H11N2.CHNS/c1-3-8-5-4-7(2)6-8;2-1-3/h4-6H,3H2,1-2H3;3H/q+1;/p-1, purity 95%

System: hexane + ethanol + 1-ethyl-3-methylimidazolium thiocyanate; phases: Liquid mixture 2, Liquid mixture 1
Fixed: Temperature, K = 298.15
Fixed: Pressure, kPa = 101.3
Property: Mole fraction of hexane (Liquid mixture 2); method: Chromatography
Property: Mole fraction of ethanol (Liquid mixture 1); method: Chromatography
Property: Mole fraction of hexane (Liquid mixture 1); method: Chromatography
Mole fraction of ethanol	Mole fraction of hexane	uncertainty	Mole fraction of ethanol	uncertainty	Mole fraction of hexane	uncertainty
0.27	0.008	0.008	0.009	0.009	0.991	
0.307	0.008	0.008	0.032	0.014	0.968	
0.404	0.013	0.01	0.073	0.014	0.927	
0.507	0.016	0.01	0.125	0.014	0.875	
0.662	0.044	0.01	0.21	0.014	0.79	
0.745	0.064	0.01	0.26	0.014	0.74	
0.744	0.083	0.011	0.332	0.014	0.668	

System: hexane + propan-1-ol + 1-ethyl-3-methylimidazolium thiocyanate; phases: Liquid mixture 1, Liquid mixture 2
Fixed: Temperature, K = 298.15
Fixed: Pressure, kPa = 101.3
Property: Mole fraction of hexane (Liquid mixture 1); method: Chromatography
Property: Mole fraction of hexane (Liquid mixture 2); method: Chromatography
Property: Mole fraction of propan-1-ol (Liquid mixture 2); method: Chromatography
Mole fraction of propan-1-ol	Mole fraction of hexane	uncertainty	Mole fraction of hexane	uncertainty	Mole fraction of propan-1-ol	uncertainty
0.26	0.007	0.007	0.98	0.014	0.02	
0.379	0.01	0.01	0.945	0.014	0.055	
0.471	0.013	0.01	0.911	0.014	0.089	
0.498	0.02	0.01	0.875	0.014	0.125	
0.596	0.029	0.01	0.844	0.014	0.156	
0.626	0.037	0.011	0.827	0.014	0.173	
0.647	0.049	0.011	0.762	0.014	0.238	
0.687	0.071	0.013	0.677	0.014	0.323	
0.727	0.114	0.015	0.571	0.014	0.429	

System: hexane + propan-2-ol + 1-ethyl-3-methylimidazolium thiocyanate; phases: Liquid mixture 1, Liquid mixture 2
Fixed: Temperature, K = 298.15
Fixed: Pressure, kPa = 101.3
Property: Mole fraction of hexane (Liquid mixture 1); method: Chromatography
Property: Mole fraction of hexane (Liquid mixture 2); method: Chromatography
Property: Mole fraction of propan-2-ol (Liquid mixture 2); method: Chromatography
Mole fraction of propan-2-ol	Mole fraction of hexane	uncertainty	Mole fraction of hexane	uncertainty	Mole fraction of propan-2-ol	uncertainty
0.117	0.006	0.006	0.985	0.014	0.015	
0.194	0.006	0.006	0.955	0.014	0.045	
0.235	0.007	0.007	0.935	0.014	0.065	
0.277	0.007	0.007	0.905	0.014	0.095	
0.378	0.013	0.01	0.835	0.014	0.165	
0.479	0.017	0.01	0.786	0.014	0.214	
0.593	0.027	0.01	0.707	0.014	0.293	
0.629	0.036	0.01	0.612	0.014	0.388	

System: hexane + butan-1-ol + 1-ethyl-3-methylimidazolium thiocyanate; phases: Liquid mixture 2, Liquid mixture 1
Fixed: Temperature, K = 298.15
Fixed: Pressure, kPa = 101.3
Property: Mole fraction of hexane (Liquid mixture 2); method: Chromatography
Property: Mole fraction of hexane (Liquid mixture 1); method: Chromatography
Property: Mole fraction of butan-1-ol (Liquid mixture 1); method: Chromatography
Mole fraction of butan-1-ol	Mole fraction of hexane	uncertainty	Mole fraction of hexane	uncertainty	Mole fraction of butan-1-ol	uncertainty
0.03	0.97	0.014	0.005	0.005	0.152	
0.493	0.507	0.015	0.049	0.011	0.483	
0.073	0.927	0.014	0.006	0.006	0.209	
0.111	0.889	0.014	0.007	0.007	0.229	
0.166	0.834	0.014	0.007	0.007	0.256	
0.211	0.789	0.014	0.01	0.01	0.3	
0.257	0.743	0.014	0.014	0.01	0.335	
0.341	0.659	0.014	0.023	0.01	0.386	
0.387	0.613	0.014	0.027	0.01	0.414	
0.436	0.564	0.014	0.032	0.011	0.44	
