Measured thermophysical data. Solid-Liquid Equilibrium of 5-Chloro-8-hydroxyquinoline and 5,7-Dichloro-8-hydroxyquinoline in Different Solvents and Mixing Properties of Solutions
Source: J. Chem. Eng. Data, 2019, 10.1021/acs.jced.9b00028
Compound 1: 5-chloro-8-hydroxyquinoline, C9H6ClNO, InChI=1S/C9H6ClNO/c10-7-3-4-8(12)9-6(7)2-1-5-11-9/h1-5,12H, purity 99.5%
Compound 2: 5,7-dichloro-8-hydroxyquinoline, C9H5Cl2NO, InChI=1S/C9H5Cl2NO/c10-6-4-7(11)9(13)8-5(6)2-1-3-12-8/h1-4,13H, purity 99.6%
Compound 3: dimethylformamide, C3H7NO, InChI=1S/C3H7NO/c1-4(2)3-5/h3H,1-2H3, purity 99.6%
Compound 4: N-methylpyrrolidone, C5H9NO, InChI=1S/C5H9NO/c1-6-4-2-3-5(6)7/h2-4H2,1H3, purity 99.5%
Compound 5: 1,4-dioxane, C4H8O2, InChI=1S/C4H8O2/c1-2-6-4-3-5-1/h1-4H2, purity 99.5%
Compound 6: ethyl acetate, C4H8O2, InChI=1S/C4H8O2/c1-3-6-4(2)5/h3H2,1-2H3, purity 99.7%
Compound 7: toluene, C7H8, InChI=1S/C7H8/c1-7-5-3-2-4-6-7/h2-6H,1H3, purity 99.5%
Compound 8: acetonitrile, C2H3N, InChI=1S/C2H3N/c1-2-3/h1H3, purity 99.5%

System: 5-chloro-8-hydroxyquinoline; phases: Crystal, Liquid, Air at 1 atmosphere
Property: Triple point temperature, K (Crystal); method: DSC
Triple point temperature, K	uncertainty
395.48	1.22

System: 5-chloro-8-hydroxyquinoline; phases: Crystal, Liquid, Air at 1 atmosphere
Property: Molar enthalpy of transition or fusion, kJ/mol (Crystal); method: DSC
Molar enthalpy of transition or fusion, kJ/mol	uncertainty
25.3	0.95

System: 5,7-dichloro-8-hydroxyquinoline; phases: Crystal, Liquid, Air at 1 atmosphere
Property: Triple point temperature, K (Crystal); method: DSC
Triple point temperature, K	uncertainty
452.15	1.22

System: 5,7-dichloro-8-hydroxyquinoline; phases: Crystal, Liquid, Air at 1 atmosphere
Property: Molar enthalpy of transition or fusion, kJ/mol (Crystal); method: DSC
Molar enthalpy of transition or fusion, kJ/mol	uncertainty
39.77	1.11

System: 5-chloro-8-hydroxyquinoline + ethyl acetate; phases: Liquid, Crystal
Fixed: Pressure, kPa = 101.2
Property: Mole fraction of 5-chloro-8-hydroxyquinoline (Liquid); method: Chromatography
Temperature, K	Mole fraction of 5-chloro-8-hydroxyquinoline	uncertainty
283.15	0.0146	0.0004
288.15	0.0176	0.0004
293.15	0.021	0.0005
298.15	0.0249	0.0006
303.15	0.0295	0.0007
308.15	0.0349	0.0008
313.15	0.0413	0.001
318.15	0.0487	0.0012
323.15	0.0573	0.0014

System: 5-chloro-8-hydroxyquinoline + toluene; phases: Liquid, Crystal
Fixed: Pressure, kPa = 101.2
Property: Mole fraction of 5-chloro-8-hydroxyquinoline (Liquid); method: Chromatography
Temperature, K	Mole fraction of 5-chloro-8-hydroxyquinoline	uncertainty
283.15	0.0109	0.0003
288.15	0.0132	0.0003
293.15	0.0156	0.0004
298.15	0.0189	0.0005
303.15	0.0221	0.0005
308.15	0.0262	0.0006
313.15	0.0307	0.0007
318.15	0.0363	0.0009
323.15	0.0431	0.001

System: 5-chloro-8-hydroxyquinoline + dimethylformamide; phases: Liquid, Crystal
Fixed: Pressure, kPa = 101.2
Property: Mole fraction of 5-chloro-8-hydroxyquinoline (Liquid); method: Chromatography
Temperature, K	Mole fraction of 5-chloro-8-hydroxyquinoline	uncertainty
283.15	0.0284	0.0007
288.15	0.0332	0.0008
293.15	0.0393	0.0009
298.15	0.0462	0.0011
303.15	0.0535	0.0013
308.15	0.0617	0.0015
313.15	0.0715	0.0017
318.15	0.0813	0.002
323.15	0.0932	0.0022

System: 5-chloro-8-hydroxyquinoline + N-methylpyrrolidone; phases: Liquid, Crystal
Fixed: Pressure, kPa = 101.2
Property: Mole fraction of 5-chloro-8-hydroxyquinoline (Liquid); method: Chromatography
Temperature, K	Mole fraction of 5-chloro-8-hydroxyquinoline	uncertainty
283.15	0.0483	0.0012
288.15	0.0547	0.0013
293.15	0.0621	0.0015
298.15	0.0701	0.0017
303.15	0.0786	0.0019
308.15	0.0882	0.0021
313.15	0.097	0.0023
318.15	0.107	0.0026
323.15	0.117	0.0028

System: 5-chloro-8-hydroxyquinoline + acetonitrile; phases: Liquid, Crystal
Fixed: Pressure, kPa = 101.2
Property: Mole fraction of 5-chloro-8-hydroxyquinoline (Liquid); method: Chromatography
Temperature, K	Mole fraction of 5-chloro-8-hydroxyquinoline	uncertainty
283.15	0.0021	0.0001
288.15	0.0026	0.0001
293.15	0.0032	0.0002
298.15	0.004	0.001
303.15	0.0047	0.0002
308.15	0.0057	0.0001
313.15	0.0068	0.0002
318.15	0.0081	0.0002
323.15	0.0097	0.0002

System: 5-chloro-8-hydroxyquinoline + 1,4-dioxane; phases: Liquid, Crystal
Fixed: Pressure, kPa = 101.2
Property: Mole fraction of 5-chloro-8-hydroxyquinoline (Liquid); method: Chromatography
Temperature, K	Mole fraction of 5-chloro-8-hydroxyquinoline	uncertainty
288.15	0.0263	0.0006
293.15	0.032	0.0008
298.15	0.0386	0.0009
303.15	0.0462	0.0011
308.15	0.0552	0.0013
313.15	0.0658	0.0016
318.15	0.0773	0.0019
323.15	0.0913	0.0022

System: 5,7-dichloro-8-hydroxyquinoline + ethyl acetate; phases: Liquid, Crystal
Fixed: Pressure, kPa = 101.2
Property: Mole fraction of 5,7-dichloro-8-hydroxyquinoline (Liquid); method: Chromatography
Temperature, K	Mole fraction of 5,7-dichloro-8-hydroxyquinoline	uncertainty
283.15	0.0022	0.0001
288.15	0.0027	0.0001
293.15	0.0033	0.0001
298.15	0.004	0.0001
303.15	0.0047	0.0001
308.15	0.0057	0.0001
313.15	0.0067	0.0002
318.15	0.0078	0.0002
323.15	0.0091	0.0002

System: 5,7-dichloro-8-hydroxyquinoline + toluene; phases: Liquid, Crystal
Fixed: Pressure, kPa = 101.2
Property: Mole fraction of 5,7-dichloro-8-hydroxyquinoline (Liquid); method: Chromatography
Temperature, K	Mole fraction of 5,7-dichloro-8-hydroxyquinoline	uncertainty
283.15	0.0017	0.0001
288.15	0.0021	0.0001
293.15	0.0027	0.0001
298.15	0.0034	0.0001
303.15	0.0042	0.0001
308.15	0.0051	0.0001
313.15	0.0062	0.0002
318.15	0.0075	0.0002
323.15	0.0086	0.0002

System: 5,7-dichloro-8-hydroxyquinoline + dimethylformamide; phases: Liquid, Crystal
Fixed: Pressure, kPa = 101.2
Property: Mole fraction of 5,7-dichloro-8-hydroxyquinoline (Liquid); method: Chromatography
Temperature, K	Mole fraction of 5,7-dichloro-8-hydroxyquinoline	uncertainty
283.15	0.0072	0.0002
288.15	0.0086	0.0002
293.15	0.0105	0.0003
298.15	0.0129	0.0003
303.15	0.0155	0.0004
308.15	0.0185	0.0004
313.15	0.0219	0.0005
318.15	0.0258	0.0006
323.15	0.0301	0.0007

System: 5,7-dichloro-8-hydroxyquinoline + N-methylpyrrolidone; phases: Liquid, Crystal
Fixed: Pressure, kPa = 101.2
Property: Mole fraction of 5,7-dichloro-8-hydroxyquinoline (Liquid); method: Chromatography
Temperature, K	Mole fraction of 5,7-dichloro-8-hydroxyquinoline	uncertainty
283.15	0.0107	0.0003
288.15	0.013	0.0003
293.15	0.0154	0.0004
298.15	0.0184	0.0004
303.15	0.0218	0.0005
308.15	0.0261	0.0006
313.15	0.0306	0.0007
318.15	0.036	0.0009
323.15	0.0428	0.001

System: 5,7-dichloro-8-hydroxyquinoline + acetonitrile; phases: Liquid, Crystal
Fixed: Pressure, kPa = 101.2
Property: Mole fraction of 5,7-dichloro-8-hydroxyquinoline (Liquid); method: Chromatography
Temperature, K	Mole fraction of 5,7-dichloro-8-hydroxyquinoline	uncertainty
283.15	0.000218	5e-06
288.15	0.00029	7e-06
293.15	0.000382	9e-06
298.15	0.000485	1.2e-05
303.15	0.000609	1.5e-05
308.15	0.000755	1.8e-05
313.15	0.000908	2.2e-05
318.15	0.0011	3e-05
323.15	0.00131	3e-05

System: 5,7-dichloro-8-hydroxyquinoline + 1,4-dioxane; phases: Liquid, Crystal
Fixed: Pressure, kPa = 101.2
Property: Mole fraction of 5,7-dichloro-8-hydroxyquinoline (Liquid); method: Chromatography
Temperature, K	Mole fraction of 5,7-dichloro-8-hydroxyquinoline	uncertainty
288.15	0.0072	0.0002
293.15	0.0088	0.0002
298.15	0.0106	0.0003
303.15	0.0129	0.0003
308.15	0.0152	0.0004
313.15	0.0181	0.0004
318.15	0.0218	0.0005
323.15	0.0263	0.0006
