Measured thermophysical data. Apparent Molar Volumes of Aqueous Solutions of Lithium Pentaborate from 283.15 to 363.15 K and 101.325 kPa: An Experimental and Theoretical Study
Source: J. Chem. Eng. Data, 2019, 10.1021/acs.jced.8b00814
Compound 1: pentaboron(III) lithium tetrahydroxide hexaoxide, B5H4LiO10, InChI=1S/5B.Li.4H2O.6O/h;;;;;;4*1H2;;;;;;/q5*+3;+1;;;;;6*-2/p-4, purity 99.63%
Compound 2: water, H2O, InChI=1S/H2O/h1H2, purity 99.9%

System: water; phases: Liquid
Fixed: Pressure, kPa = 101.325
Property: Mass density, kg/m3 (Liquid); method: Vibrating tube method
Temperature, K	Mass density, kg/m3	uncertainty
283.15	999.66	1.9
288.15	999.09	1.9
293.15	998.21	1.9
298.15	997.07	1.9
303.15	995.7	1.9
308.15	994.11	1.9
313.15	992.32	1.9
318.15	990.34	1.9
323.15	988.18	1.9
328.15	985.87	1.9
333.15	983.4	1.9
338.15	980.78	1.9
343.15	978.02	1.9
348.15	975.13	1.9
353.15	972.11	1.9
358.15	968.95	1.9
363.15	965.71	1.9

System: pentaboron(III) lithium tetrahydroxide hexaoxide + water; phases: Liquid
Fixed: Pressure, kPa = 101.325
Property: Mass density, kg/m3 (Liquid); method: Vibrating tube method
Temperature, K	Molality, mol/kg of pentaboron(III) lithium tetrahydroxide hexaoxide	Mass density, kg/m3	uncertainty
283.15	0.09859	1014.77	1.9
283.15	0.19272	1028.96	1.9
283.15	0.26487	1039.65	1.9
283.15	0.4773	1070.29	1.9
283.15	0.57389	1083.93	1.9
283.15	0.66232	1097.5	1.9
283.15	0.81723	1124.16	1.9
283.15	0.89493	1137.59	1.9
283.15	0	999.66	1.9
288.15	0.09859	1014.03	1.9
288.15	0.19272	1028.08	1.9
288.15	0.26487	1038.67	1.9
288.15	0.4773	1069.07	1.9
288.15	0.57389	1082.61	1.9
288.15	0.66232	1096.08	1.9
288.15	0.81723	1122.56	1.9
288.15	0.89493	1135.91	1.9
288.15	0	999.09	1.9
293.15	0.09859	1013.01	1.9
293.15	0.19272	1026.94	1.9
293.15	0.26487	1037.46	1.9
293.15	0.4773	1067.64	1.9
293.15	0.57389	1081.09	1.9
293.15	0.66232	1094.48	1.9
293.15	0.81723	1120.8	1.9
293.15	0.89493	1134.07	1.9
293.15	0	998.21	1.9
298.15	0.09859	1011.74	1.9
298.15	0.19272	1025.58	1.9
298.15	0.26487	1036.03	1.9
298.15	0.4773	1066.02	1.9
298.15	0.57389	1079.4	1.9
298.15	0.66232	1092.71	1.9
298.15	0.81723	1118.89	1.9
298.15	0.89493	1132.1	1.9
298.15	0	997.07	1.9
303.15	0.09859	1010.26	1.9
303.15	0.19272	1024.02	1.9
303.15	0.26487	1034.41	1.9
303.15	0.4773	1064.23	1.9
303.15	0.57389	1077.54	1.9
303.15	0.66232	1090.78	1.9
303.15	0.81723	1116.85	1.9
303.15	0.89493	1130	1.9
303.15	0	995.7	1.9
308.15	0.09859	1008.57	1.9
308.15	0.19272	1022.26	1.9
308.15	0.26487	1032.6	1.9
308.15	0.4773	1062.28	1.9
308.15	0.57389	1075.52	1.9
308.15	0.66232	1088.71	1.9
308.15	0.81723	1114.66	1.9
308.15	0.89493	1127.76	1.9
308.15	0	994.11	1.9
313.15	0.09859	1006.69	1.9
313.15	0.19272	1020.32	1.9
313.15	0.26487	1030.61	1.9
313.15	0.4773	1060.17	1.9
313.15	0.57389	1073.36	1.9
313.15	0.66232	1086.49	1.9
313.15	0.81723	1112.35	1.9
313.15	0.89493	1125.41	1.9
313.15	0	992.32	1.9
318.15	0.09859	1004.64	1.9
318.15	0.19272	1018.21	1.9
318.15	0.26487	1028.47	1.9
318.15	0.4773	1057.92	1.9
318.15	0.57389	1071.06	1.9
318.15	0.66232	1084.15	1.9
318.15	0.81723	1109.92	1.9
318.15	0.89493	1122.94	1.9
318.15	0	990.34	1.9
323.15	0.09859	1002.43	1.9
323.15	0.19272	1015.95	1.9
323.15	0.26487	1026.17	1.9
323.15	0.4773	1055.53	1.9
323.15	0.57389	1068.63	1.9
323.15	0.66232	1081.68	1.9
323.15	0.81723	1107.38	1.9
323.15	0.89493	1120.35	1.9
323.15	0	988.18	1.9
328.15	0.09859	1000.06	1.9
328.15	0.19272	1013.55	1.9
328.15	0.26487	1023.73	1.9
328.15	0.4773	1053.01	1.9
328.15	0.57389	1066.07	1.9
328.15	0.66232	1079.09	1.9
328.15	0.81723	1104.72	1.9
328.15	0.89493	1117.66	1.9
328.15	0	985.87	1.9
333.15	0.09859	997.54	1.9
333.15	0.19272	1011	1.9
333.15	0.26487	1021.16	1.9
333.15	0.4773	1050.36	1.9
333.15	0.57389	1063.4	1.9
333.15	0.66232	1076.38	1.9
333.15	0.81723	1101.96	1.9
333.15	0.89493	1114.87	1.9
333.15	0	983.4	1.9
338.15	0.09859	994.88	1.9
338.15	0.19272	1008.31	1.9
338.15	0.26487	1018.46	1.9
338.15	0.4773	1047.6	1.9
338.15	0.57389	1060.6	1.9
338.15	0.66232	1073.56	1.9
338.15	0.81723	1099.09	1.9
338.15	0.89493	1111.98	1.9
338.15	0	980.78	1.9
343.15	0.09859	992.09	1.9
343.15	0.19272	1005.5	1.9
343.15	0.26487	1015.62	1.9
343.15	0.4773	1044.72	1.9
343.15	0.57389	1057.7	1.9
343.15	0.66232	1070.63	1.9
343.15	0.81723	1096.12	1.9
343.15	0.89493	1108.99	1.9
343.15	0	978.02	1.9
348.15	0.09859	989.17	1.9
348.15	0.19272	1002.56	1.9
348.15	0.26487	1012.67	1.9
348.15	0.4773	1041.72	1.9
348.15	0.57389	1054.69	1.9
348.15	0.66232	1067.6	1.9
348.15	0.81723	1093.05	1.9
348.15	0.89493	1105.9	1.9
348.15	0	975.13	1.9
353.15	0.09859	986.13	1.9
353.15	0.19272	999.5	1.9
353.15	0.26487	1009.6	1.9
353.15	0.4773	1038.62	1.9
353.15	0.57389	1051.57	1.9
353.15	0.66232	1064.47	1.9
353.15	0.81723	1089.89	1.9
353.15	0.89493	1102.72	1.9
353.15	0	972.11	1.9
358.15	0.09859	982.96	1.9
358.15	0.19272	996.32	1.9
358.15	0.26487	1006.41	1.9
358.15	0.4773	1035.41	1.9
358.15	0.57389	1048.35	1.9
358.15	0.66232	1061.23	1.9
358.15	0.81723	1086.63	1.9
358.15	0.89493	1099.45	1.9
358.15	0	968.95	1.9
363.15	0.09859	979.69	1.9
363.15	0.19272	993.04	1.9
363.15	0.26487	1003.13	1.9
363.15	0.4773	1032.1	1.9
363.15	0.57389	1045.03	1.9
363.15	0.66232	1057.91	1.9
363.15	0.81723	1083.28	1.9
363.15	0.89493	1096.1	1.9
363.15	0	965.71	1.9
