Measured thermophysical data. Solubility in Different Solvents, Correlation, and Solvent Effect in the Solvent Crystallization Process of Iohexol
Source: J. Chem. Eng. Data, 2019, 10.1021/acs.jced.8b01101
Compound 1: iohexol, C19H26I3N3O9, InChI=1S/C19H26I3N3O9/c1-8(29)25(4-11(32)7-28)17-15(21)12(18(33)23-2-9(30)5-26)14(20)13(16(17)22)19(34)24-3-10(31)6-27/h9-11,26-28,30-32H,2-7H2,1H3,(H,23,33)(H,24,34), purity 98.3%
Compound 2: ethanol, C2H6O, InChI=1S/C2H6O/c1-2-3/h3H,2H2,1H3, purity 99.7%
Compound 3: propan-1-ol, C3H8O, InChI=1S/C3H8O/c1-2-3-4/h4H,2-3H2,1H3, purity 99.5%
Compound 4: butan-1-ol, C4H10O, InChI=1S/C4H10O/c1-2-3-4-5/h5H,2-4H2,1H3, purity 99.7%
Compound 5: propan-2-ol, C3H8O, InChI=1S/C3H8O/c1-3(2)4/h3-4H,1-2H3, purity 99.5%
Compound 6: acetone, C3H6O, InChI=1S/C3H6O/c1-3(2)4/h1-2H3, purity 99.5%
Compound 7: ethyl acetate, C4H8O2, InChI=1S/C4H8O2/c1-3-6-4(2)5/h3H2,1-2H3, purity 99.5%
Compound 8: acetonitrile, C2H3N, InChI=1S/C2H3N/c1-2-3/h1H3, purity 99.4%
Compound 9: 1,4-dioxane, C4H8O2, InChI=1S/C4H8O2/c1-2-6-4-3-5-1/h1-4H2, purity 99.6%
Compound 10: cyclohexane, C6H12, InChI=1S/C6H12/c1-2-4-6-5-3-1/h1-6H2, purity 99.6%
Compound 11: butanone, C4H8O, InChI=1S/C4H8O/c1-3-4(2)5/h3H2,1-2H3, purity 99.4%
Compound 12: dimethyl sulfoxide, C2H6OS, InChI=1S/C2H6OS/c1-4(2)3/h1-2H3, purity 99.6%
Compound 13: toluene, C7H8, InChI=1S/C7H8/c1-7-5-3-2-4-6-7/h2-6H,1H3, purity 99.4%

System: iohexol + ethanol; phases: Liquid, Crystal
Fixed: Pressure, kPa = 101.2
Property: Mole fraction of iohexol (Liquid); method: Chromatography
Temperature, K	Mole fraction of iohexol	uncertainty
283.15	0.001132	4.2e-05
288.15	0.001304	4.9e-05
293.15	0.001484	5.5e-05
298.15	0.00169	6.3e-05
303.15	0.001924	7.2e-05
308.15	0.002168	8.1e-05
313.15	0.00244	9.1e-05
318.15	0.002739	0.000102
323.15	0.003061	0.000114

System: iohexol + propan-1-ol; phases: Liquid, Crystal
Fixed: Pressure, kPa = 101.2
Property: Mole fraction of iohexol (Liquid); method: Chromatography
Temperature, K	Mole fraction of iohexol	uncertainty
283.15	0.000715	2.67e-05
288.15	0.000804	3e-05
293.15	0.0009115	3.4e-05
298.15	0.001041	3.9e-05
303.15	0.001188	4.4e-05
308.15	0.00137	5.1e-05
313.15	0.001564	5.8e-05
318.15	0.001813	6.8e-05
323.15	0.002095	7.8e-05

System: iohexol + propan-2-ol; phases: Liquid, Crystal
Fixed: Pressure, kPa = 101.2
Property: Mole fraction of iohexol (Liquid); method: Chromatography
Temperature, K	Mole fraction of iohexol	uncertainty
283.15	0.0003886	1.45e-05
288.15	0.0004565	1.7e-05
293.15	0.0005548	2.07e-05
298.15	0.0006738	2.51e-05
303.15	0.0008062	3.01e-05
308.15	0.0009658	3.6e-05
313.15	0.001146	4.3e-05
318.15	0.001366	5.1e-05
323.15	0.001648	6.1e-05

System: iohexol + butan-1-ol; phases: Liquid, Crystal
Fixed: Pressure, kPa = 101.2
Property: Mole fraction of iohexol (Liquid); method: Chromatography
Temperature, K	Mole fraction of iohexol	uncertainty
283.15	0.0002349	8.8e-06
288.15	0.0002868	1.07e-05
293.15	0.0003425	1.28e-05
298.15	0.0004159	1.55e-05
303.15	0.0004999	1.86e-05
308.15	0.0006014	2.24e-05
313.15	0.0007225	2.69e-05
318.15	0.0008664	3.23e-05
323.15	0.001033	3.9e-05

System: iohexol + acetone; phases: Liquid, Crystal
Fixed: Pressure, kPa = 101.2
Property: Mole fraction of iohexol (Liquid); method: Chromatography
Temperature, K	Mole fraction of iohexol	uncertainty
283.15	0.0001744	6.5e-06
288.15	0.000209	7.8e-06
293.15	0.0002557	9.5e-06
298.15	0.0003082	1.15e-05
303.15	0.0003715	1.39e-05
308.15	0.0004426	1.65e-05
313.15	0.0005264	1.96e-05
318.15	0.0006203	2.31e-05
323.15	0.000741	2.76e-05

System: iohexol + ethyl acetate; phases: Liquid, Crystal
Fixed: Pressure, kPa = 101.2
Property: Mole fraction of iohexol (Liquid); method: Chromatography
Temperature, K	Mole fraction of iohexol	uncertainty
283.15	0.0001257	4.7e-06
288.15	0.00015	5.6e-06
293.15	0.0001803	6.7e-06
298.15	0.0002151	8e-06
303.15	0.0002559	9.5e-06
308.15	0.0003014	1.12e-05
313.15	0.0003546	1.32e-05
318.15	0.0004137	1.54e-05
323.15	0.0004813	1.79e-05

System: iohexol + acetonitrile; phases: Liquid, Crystal
Fixed: Pressure, kPa = 101.2
Property: Mole fraction of iohexol (Liquid); method: Chromatography
Temperature, K	Mole fraction of iohexol	uncertainty
283.15	8.466e-05	3.16e-06
288.15	0.0001007	3.8e-06
293.15	0.0001229	4.6e-06
298.15	0.0001463	5.5e-06
303.15	0.0001752	6.5e-06
308.15	0.0002104	7.8e-06
313.15	0.00025	9.3e-06
318.15	0.0002975	1.11e-05
323.15	0.0003538	1.32e-05

System: iohexol + 1,4-dioxane; phases: Liquid, Crystal
Fixed: Pressure, kPa = 101.2
Property: Mole fraction of iohexol (Liquid); method: Chromatography
Temperature, K	Mole fraction of iohexol	uncertainty
288.15	5.701e-05	2.13e-06
293.15	6.904e-05	2.57e-06
298.15	8.301e-05	3.1e-06
303.15	0.0001002	3.7e-06
308.15	0.0001211	4.5e-06
313.15	0.0001447	5.4e-06
318.15	0.000174	6.5e-06
323.15	0.0002084	7.8e-06

System: iohexol + cyclohexane; phases: Liquid, Crystal
Fixed: Pressure, kPa = 101.2
Property: Mole fraction of iohexol (Liquid); method: Chromatography
Temperature, K	Mole fraction of iohexol	uncertainty
283.15	9.38e-06	3.5e-07
288.15	1.225e-05	4.6e-07
293.15	1.546e-05	5.8e-07
298.15	1.997e-05	7.5e-07
303.15	2.508e-05	9.4e-07
308.15	3.142e-05	1.17e-06
313.15	3.895e-05	1.45e-06
318.15	4.811e-05	1.79e-06
323.15	5.961e-05	2.22e-06

System: iohexol + butanone; phases: Liquid, Crystal
Fixed: Pressure, kPa = 101.2
Property: Mole fraction of iohexol (Liquid); method: Chromatography
Temperature, K	Mole fraction of iohexol	uncertainty
283.15	0.0001483	5.5e-06
288.15	0.0001784	6.7e-06
293.15	0.0002114	7.9e-06
298.15	0.0002547	9.5e-06
303.15	0.0003011	1.12e-05
308.15	0.0003579	1.33e-05
313.15	0.0004253	1.59e-05
318.15	0.0004902	1.83e-05
323.15	0.0005661	2.11e-05

System: iohexol + dimethyl sulfoxide; phases: Liquid, Crystal
Fixed: Pressure, kPa = 101.2
Property: Mole fraction of iohexol (Liquid); method: Chromatography
Temperature, K	Mole fraction of iohexol	uncertainty
293.15	0.0002935	1.09e-05
298.15	0.0003573	1.33e-05
303.15	0.0004281	1.6e-05
308.15	0.0005105	1.9e-05
313.15	0.0006245	2.33e-05
318.15	0.0007371	2.75e-05
323.15	0.0008694	3.24e-05

System: iohexol + toluene; phases: Liquid, Crystal
Fixed: Pressure, kPa = 101.2
Property: Mole fraction of iohexol (Liquid); method: Chromatography
Temperature, K	Mole fraction of iohexol	uncertainty
283.15	2.502e-05	9.3e-07
288.15	3.223e-05	1.2e-06
293.15	4.064e-05	1.52e-06
298.15	5.118e-05	1.91e-06
303.15	6.276e-05	2.34e-06
308.15	7.567e-05	2.82e-06
313.15	9.188e-05	3.43e-06
318.15	0.0001116	4.2e-06
323.15	0.0001338	5e-06

System: iohexol + ethanol + ethyl acetate; phases: Liquid, Crystal
Fixed: Pressure, kPa = 101.1
Property: Mole fraction of iohexol (Liquid); method: Chromatography
Solvent: Mass fraction of ethanol	Temperature, K	Mole fraction of iohexol	uncertainty
1	283.15	0.001132	4.2e-05
1	288.15	0.001304	4.9e-05
1	293.15	0.001484	5.5e-05
1	298.15	0.00169	6.3e-05
1	303.15	0.001924	7.2e-05
1	308.15	0.002168	8.1e-05
1	313.15	0.00244	9.1e-05
1	318.15	0.002739	0.000102
1	323.15	0.003061	0.000114
0.8	283.15	0.0008996	3.52e-05
0.8	288.15	0.001023	4.1e-05
0.8	293.15	0.001159	4.7e-05
0.8	298.15	0.001332	5.4e-05
0.8	303.15	0.00154	6.2e-05
0.8	308.15	0.00173	6.9e-05
0.8	313.15	0.001968	7.9e-05
0.8	318.15	0.002216	8.8e-05
0.8	323.15	0.002499	0.000103
0.6	283.15	0.00066	3.98e-05
0.6	288.15	0.000768	4.2e-05
0.6	293.15	0.0008728	4.7e-05
0.6	298.15	0.001002	5.3e-05
0.6	303.15	0.001157	6.2e-05
0.6	308.15	0.001319	6.9e-05
0.6	313.15	0.001505	7.8e-05
0.6	318.15	0.001714	8.7e-05
0.6	323.15	0.001941	9e-05
0.4	283.15	0.0004411	2.67e-05
0.4	288.15	0.00051	3.35e-05
0.4	293.15	0.0005946	3.82e-05
0.4	298.15	0.0006969	4.36e-05
0.4	303.15	0.0008037	5e-05
0.4	308.15	0.0009294	5.64e-05
0.4	313.15	0.001067	6.4e-05
0.4	318.15	0.001224	7.3e-05
0.4	323.15	0.001405	8.4e-05
0.2	283.15	0.0002628	1.36e-05
0.2	288.15	0.0003088	1.58e-05
0.2	293.15	0.0003552	1.82e-05
0.2	298.15	0.0004177	2.12e-05
0.2	303.15	0.0004895	2.46e-05
0.2	308.15	0.0005774	2.86e-05
0.2	313.15	0.0006646	3.27e-05
0.2	318.15	0.000767	3.75e-05
0.2	323.15	0.0008918	4.33e-05
0	283.15	0.0001257	4.7e-06
0	288.15	0.00015	5.6e-06
0	293.15	0.0001803	6.7e-06
0	298.15	0.0002151	8e-06
0	303.15	0.0002559	9.5e-06
0	308.15	0.0003014	1.12e-05
0	313.15	0.0003546	1.32e-05
0	318.15	0.0004137	1.54e-05
0	323.15	0.0004813	1.79e-05
