Measured thermophysical data. Densities of Aqueous 2-Dimethylaminoethanol Solutions at Temperatures of (293.15 to 343.15) K
Source: J. Chem. Eng. Data, 2017, 10.1021/acs.jced.6b00888
Compound 1: 2-(N,N-dimethylamino)ethanol, C4H11NO, InChI=1S/C4H11NO/c1-5(2)3-4-6/h6H,3-4H2,1-2H3, purity 99%
Compound 2: carbon dioxide, CO2, InChI=1S/CO2/c2-1-3, purity 99.99%
Compound 3: water, H2O, InChI=1S/H2O/h1H2, purity 99.9%

System: 2-(N,N-dimethylamino)ethanol; phases: Liquid
Fixed: Pressure, kPa = 101.3
Property: Mass density, kg/m3 (Liquid); method: Vibrating tube method
Temperature, K	Mass density, kg/m3	uncertainty
293.15	888.2	5.2
298.15	884	5.2
303.15	879.8	5.2
308.15	875.5	5.2
313.15	871.2	5.2
318.15	866.8	5.2
323.15	862.4	5.2
328.15	858	5.2
333.15	853.5	5.2
338.15	849	5.2
343.15	844.4	5.2

System: 2-(N,N-dimethylamino)ethanol + water; phases: Liquid
Fixed: Pressure, kPa = 101.3
Property: Mass density, kg/m3 (Liquid); method: Vibrating tube method
Mass fraction of 2-(N,N-dimethylamino)ethanol	Temperature, K	Mass density, kg/m3	uncertainty
0.1	293.15	994.8	5.2
0.1	298.15	993.3	5.2
0.1	303.15	991.6	5.3
0.1	308.15	989.7	5.3
0.1	313.15	987.6	5.3
0.1	318.15	985.3	5.3
0.1	323.15	982.9	5.3
0.1	328.15	980.3	5.3
0.1	333.15	977.6	5.3
0.1	338.15	974.7	5.4
0.1	343.15	971.7	5.4
0.2	293.15	992.8	5.2
0.2	298.15	990.8	5.2
0.2	303.15	988.6	5.3
0.2	308.15	986.2	5.3
0.2	313.15	983.6	5.3
0.2	318.15	980.9	5.3
0.2	323.15	978.4	5.3
0.2	328.15	975.1	5.3
0.2	333.15	972	5.4
0.2	338.15	968.8	5.4
0.2	343.15	965.5	5.5
0.3	293.15	990.8	5.3
0.3	298.15	988.1	5.3
0.3	303.15	985.2	5.3
0.3	308.15	982.2	5.3
0.3	313.15	979.1	5.4
0.3	318.15	975.8	5.4
0.3	323.15	972.5	5.4
0.3	328.15	969.1	5.4
0.3	333.15	965.5	5.4
0.3	338.15	961.9	5.5
0.3	343.15	958.2	5.5
0.49	293.15	981.7	5.5
0.49	298.15	978	5.5
0.49	303.15	974.2	5.5
0.49	308.15	970.4	5.5
0.49	313.15	966.5	5.5
0.49	318.15	962.6	5.6
0.49	323.15	958.6	5.6
0.49	328.15	954.5	5.6
0.49	333.15	950.3	5.6
0.49	338.15	946.1	5.6
0.49	343.15	941.8	5.7
0.64	293.15	963	5.8
0.64	298.15	959	5.8
0.64	303.15	954.9	5.9
0.64	308.15	950.8	5.9
0.64	313.15	946.6	5.9
0.64	318.15	942.4	5.9
0.64	323.15	938	5.9
0.64	328.15	933.7	5.9
0.64	333.15	929.2	6
0.64	338.15	924.7	6
0.64	343.15	920.2	6
0.69	293.15	955.3	6.4
0.69	298.15	951.3	6.5
0.69	303.15	947.2	6.5
0.69	308.15	943	6.5
0.69	313.15	938.8	6.5
0.69	318.15	934.5	6.5
0.69	323.15	930.1	6.5
0.69	328.15	925.7	6.5
0.69	333.15	921.2	6.5
0.69	338.15	916.7	6.5
0.69	343.15	912.1	6.5
0.79	293.15	935.1	6.7
0.79	298.15	931.1	6.7
0.79	303.15	926.9	6.8
0.79	308.15	922.7	6.8
0.79	313.15	918.5	6.8
0.79	318.15	914.2	6.8
0.79	323.15	909.8	6.8
0.79	328.15	905.4	6.8
0.79	333.15	900.9	6.8
0.79	338.15	896.4	6.8
0.79	343.15	891.8	6.8
0.9	293.15	911.3	7.2
0.9	298.15	906.9	6.9
0.9	303.15	902.2	6.9
0.9	308.15	897.9	6.9
0.9	313.15	893.5	6.9
0.9	318.15	889.1	6.9
0.9	323.15	884	6.9
0.9	328.15	879.3	6.9
0.9	333.15	874.8	6.9
0.9	338.15	870.4	6.9
0.9	343.15	865.8	6.9
1	293.15	882.2	5.2
1	298.15	884	5.2
1	303.15	879.8	5.2
1	308.15	875.5	5.2
1	313.15	871.2	5.2
1	318.15	866.8	5.2
1	323.15	862.4	5.2
1	328.15	858	5.2
1	333.15	853.5	5.2
1	338.15	849	5.2
1	343.15	844.4	5.2

System: 2-(N,N-dimethylamino)ethanol + carbon dioxide + water; phases: Liquid
Fixed: Pressure, kPa = 101.3
Fixed: Solvent: Mass fraction of 2-(N,N-dimethylamino)ethanol = 0.3
Property: Mass density, kg/m3 (Liquid); method: Vibrating tube method
Mole fraction of carbon dioxide	Temperature, K	Mass density, kg/m3	uncertainty
0.0079	293.15	1008.4	12.2
0.0079	298.15	1005.5	12.2
0.0079	303.15	1002.5	12.1
0.0079	308.15	999.5	12.1
0.0079	313.15	996.2	12.1
0.0079	318.15	992.8	12
0.0079	323.15	989.2	12
0.0079	328.15	985.8	11.8
0.0079	333.15	982.4	11.6
0.0079	338.15	977.9	11.4
0.0079	343.15	974	11.3
0.0157	293.15	1023.7	11.3
0.0157	298.15	1020.8	11.3
0.0157	303.15	1017.7	11.3
0.0157	308.15	1014.5	11.3
0.0157	313.15	1011.2	11.3
0.0157	318.15	1007.6	11.3
0.0157	323.15	1003.9	11.3
0.0157	328.15	999.9	11.2
0.0157	333.15	995.4	11.2
0.0157	338.15	991.1	11.2
0.0157	343.15	986.4	11.1
0.0211	293.15	1029.3	11.9
0.0211	298.15	1026.2	12
0.0211	303.15	1023.1	12
0.0211	308.15	1019.9	12
0.0211	313.15	1016.6	11.9
0.0211	318.15	1013.1	12
0.0211	323.15	1009.6	12
0.0211	328.15	1006.2	12.1
0.0211	333.15	1002.5	12.2
0.0211	338.15	998.5	12.3
0.0211	343.15	993.7	12.4
0.031	293.15	1051.2	11.5
0.031	298.15	1048.2	11.5
0.031	303.15	1045	11.5
0.031	308.15	1041.8	11.5
0.031	313.15	1038.4	11.5
0.031	318.15	1035	11.5
0.031	323.15	1031.5	11.5
0.031	328.15	1028	11.5
0.031	333.15	1024.3	11.5
0.031	338.15	1020.7	11.6
0.031	343.15	1016.9	11.7
0.0414	293.15	1063.7	10.5
0.0414	298.15	1060.7	10.5
0.0414	303.15	1057.6	10.5
0.0414	308.15	1054.4	10.5
0.0414	313.15	1051.1	10.5
0.0414	318.15	1047.7	10.5
0.0414	323.15	1044.3	10.5
0.0414	328.15	1040.8	10.5
0.0414	333.15	1037.3	10.6
0.0414	338.15	1033.7	10.6
0.0414	343.15	1030	10.6
