Measured thermophysical data. Vapor-Liquid Equilibrium, Volumetric, and Compressibility Properties of 1-Propanol + Poly(ethylene glycol) Dimethyl Ether 250 and 500 Binary Mixtures
Source: J. Chem. Eng. Data, 2018, 10.1021/acs.jced.8b00625
Compound 1: propan-1-ol, C3H8O, InChI=1S/C3H8O/c1-2-3-4/h4H,2-3H2,1H3, purity 99.8%

System: propan-1-ol; phases: Liquid
Fixed: Pressure, kPa = 86.6
Property: Mass density, kg/m3 (Liquid); method: Vibrating tube method
Temperature, K	Mass density, kg/m3	uncertainty
298.15	799.597	8.001
308.15	791.399	8.001
318.15	783.121	8.001

System: propan-1-ol; phases: Liquid
Fixed: Pressure, kPa = 86.6
Fixed: Frequency, MHz = 3
Property: Speed of sound, m/s (Liquid); method: Single path-length method
Temperature, K	Speed of sound, m/s	uncertainty
298.15	1205.33	1.02
308.15	1170.36	1.02
318.15	1137.31	1.02
