Measured thermophysical data. Isobaric Vapor-Liquid Equilibrium of the Acetonitrile + 1-Propanol + Ionic Liquids at an Atmospheric Pressure
Source: J. Chem. Eng. Data, 2019, 10.1021/acs.jced.9b00015
Compound 1: acetonitrile, C2H3N, InChI=1S/C2H3N/c1-2-3/h1H3, purity 99.75%
Compound 2: propan-1-ol, C3H8O, InChI=1S/C3H8O/c1-2-3-4/h4H,2-3H2,1H3, purity 99.68%
Compound 3: 1,3-dimethylimidazolium dimethylphosphate, C7H15N2O4P, InChI=1S/C5H9N2.C2H7O4P/c1-6-3-4-7(2)5-6;1-5-7(3,4)6-2/h3-5H,1-2H3;1-2H3,(H,3,4)/q+1;/p-1
Compound 4: 1-ethyl-3-methylimidazolium diethyl phosphate, C10H21N2O4P, InChI=1S/C6H11N2.C4H11O4P/c1-3-8-5-4-7(2)6-8;1-3-7-9(5,6)8-4-2/h4-6H,3H2,1-2H3;3-4H2,1-2H3,(H,5,6)/q+1;/p-1

System: acetonitrile; phases: Liquid, Gas
Property: Vapor or sublimation pressure, kPa (Liquid); method: Ebulliometric method (Recirculating still)
Temperature, K	Vapor or sublimation pressure, kPa	uncertainty
354.74	101.3	1.1

System: propan-1-ol; phases: Liquid, Gas
Property: Vapor or sublimation pressure, kPa (Liquid); method: Ebulliometric method (Recirculating still)
Temperature, K	Vapor or sublimation pressure, kPa	uncertainty
370.33	101.3	1.1

System: propan-1-ol + acetonitrile; phases: Liquid, Gas
Fixed: Pressure, kPa = 101.3
Property: Boiling temperature at pressure P, K (Liquid); method: Ebulliometric method (Recirculating still)
Mole fraction of acetonitrile	Boiling temperature at pressure P, K	uncertainty
0	370.33	0.38
0.052	366.05	0.58
0.103	362.92	0.5
0.152	360.64	0.45
0.205	358.93	0.43
0.246	357.63	0.41
0.301	356.61	0.4
0.345	355.95	0.39
0.402	355.25	0.39
0.453	354.71	0.39
0.501	354.34	0.39
0.552	353.97	0.39
0.589	353.66	0.38
0.651	353.42	0.38
0.703	353.21	0.38
0.748	353.16	0.38
0.798	353.18	0.38
0.853	353.27	0.38
0.902	353.47	0.38
0.948	353.82	0.39
1	354.74	0.38

System: propan-1-ol + acetonitrile; phases: Gas, Liquid
Fixed: Pressure, kPa = 101.3
Property: Mole fraction of acetonitrile (Gas); method: Chromatography
Mole fraction of acetonitrile	Mole fraction of acetonitrile	uncertainty
0	0	
0.052	0.193	0.006
0.103	0.317	0.007
0.152	0.402	0.007
0.205	0.463	0.007
0.246	0.51	0.007
0.301	0.546	0.007
0.345	0.577	0.007
0.402	0.603	0.007
0.453	0.626	0.007
0.501	0.648	0.007
0.552	0.669	0.007
0.589	0.691	0.007
0.651	0.714	0.007
0.703	0.738	0.006
0.748	0.765	0.006
0.798	0.796	0.006
0.853	0.833	0.006
0.902	0.871	0.006
0.948	0.931	0.006
1	1	

System: acetonitrile + 1,3-dimethylimidazolium dimethylphosphate; phases: Liquid, Gas
Fixed: Pressure, kPa = 101.3
Property: Boiling temperature at pressure P, K (Liquid); method: Ebulliometric method (Recirculating still)
Mole fraction of 1,3-dimethylimidazolium dimethylphosphate	Boiling temperature at pressure P, K	uncertainty
0.4504	404.54	0.97
0.398	396.74	1.01
0.3521	389.27	0.96
0.3012	382.46	0.92
0.2502	375.03	0.94
0.1999	368.02	0.9
0.1812	365.81	0.82
0.1621	363.42	0.79
0.1513	362.43	0.71
0.1453	361.8	0.74
0.1402	361.25	0.74
0.1358	360.61	0.84
0.131	360.31	0.72
0.091	357.54	0.5
0.048	355.94	0.44

System: propan-1-ol + 1,3-dimethylimidazolium dimethylphosphate; phases: Liquid, Gas
Fixed: Pressure, kPa = 101.3
Property: Boiling temperature at pressure P, K (Liquid); method: Ebulliometric method (Recirculating still)
Mole fraction of 1,3-dimethylimidazolium dimethylphosphate	Boiling temperature at pressure P, K	uncertainty
0.462	415.78	1.21
0.4099	407.14	1.18
0.3747	402.02	1.04
0.3297	396.8	0.97
0.2494	387.84	0.96
0.2001	382.42	0.93
0.1696	379.59	0.89
0.1596	378.74	0.86
0.1546	378.33	0.85
0.1501	377.97	0.84
0.1402	377.19	0.83
0.1353	376.82	0.8
0.131	376.51	0.82
0.091	373.96	0.78
0.048	371.64	0.77

System: acetonitrile + 1-ethyl-3-methylimidazolium diethyl phosphate; phases: Liquid, Gas
Fixed: Pressure, kPa = 101.3
Property: Boiling temperature at pressure P, K (Liquid); method: Ebulliometric method (Recirculating still)
Mole fraction of 1-ethyl-3-methylimidazolium diethyl phosphate	Boiling temperature at pressure P, K	uncertainty
0.3468	422.76	1.85
0.2999	409.7	1.92
0.251	394.98	1.9
0.2085	383.53	1.81
0.1962	380.13	1.94
0.1911	378.06	2.02
0.1855	376.75	2.13
0.1782	374.18	2.17
0.1701	371.56	1.95
0.1611	369.12	1.68
0.1521	367.13	1.59
0.1413	364.58	1.42
0.131	363	1.15
0.091	357.65	0.95
0.048	356	0.84

System: propan-1-ol + 1-ethyl-3-methylimidazolium diethyl phosphate; phases: Liquid, Gas
Fixed: Pressure, kPa = 101.3
Property: Boiling temperature at pressure P, K (Liquid); method: Ebulliometric method (Recirculating still)
Mole fraction of 1-ethyl-3-methylimidazolium diethyl phosphate	Boiling temperature at pressure P, K	uncertainty
0.35	422.71	1.59
0.2517	397.47	1.42
0.2405	394.93	1.28
0.2211	391.21	1.07
0.1913	386.73	0.98
0.1832	385.52	0.95
0.1711	383.81	0.91
0.1663	383.16	0.91
0.1591	382.22	0.86
0.1502	381.11	0.83
0.1458	380.58	0.82
0.1411	380.03	0.81
0.131	378.85	0.74
0.091	374.8	0.62
0.048	372.25	0.53

System: propan-1-ol + acetonitrile + 1,3-dimethylimidazolium dimethylphosphate; phases: Liquid, Gas
Fixed: Pressure, kPa = 101.3
Property: Mole fraction of 1,3-dimethylimidazolium dimethylphosphate (Liquid); method: Chromatography
Property: Mole fraction of 1,3-dimethylimidazolium dimethylphosphate (Gas); method: Chromatography
Property: Mole fraction of acetonitrile (Gas); method: Chromatography
Temperature, K	Mole fraction of acetonitrile	Mole fraction of 1,3-dimethylimidazolium dimethylphosphate	uncertainty	Mole fraction of 1,3-dimethylimidazolium dimethylphosphate	uncertainty	Mole fraction of acetonitrile	uncertainty
371.64	0	0.048	0.002	0		0	
359.48	0.519	0.091	0.002	0		0.705	
358.81	0.608	0.091	0.002	0		0.79	
361.81	0.215	0.048	0.002	0		0.421	
358.24	0.687	0.091	0.002	0		0.858	
358.06	0.725	0.091	0.002	0		0.89	
357.78	0.821	0.091	0.002	0		0.971	
357.64	0.85	0.091	0.002	0		0.986	
357.54	0.909	0.091	0.002	0		1	
376.51	0	0.131	0.002	0		0	
370.48	0.159	0.131	0.002	0		0.274	
356.07	0.935	0.048	0.002	0		0.989	
369.69	0.187	0.131	0.002	0		0.316	
367.81	0.256	0.131	0.002	0		0.413	
366.31	0.321	0.131	0.002	0		0.5	
359.39	0.309	0.048	0.002	0		0.515	
364.22	0.444	0.131	0.002	0		0.66	
362.91	0.551	0.131	0.002	0		0.794	
361.49	0.673	0.131	0.002	0		0.928	
360.68	0.743	0.131	0.002	0		0.969	
360.51	0.792	0.131	0.002	0		0.986	
360.42	0.829	0.131	0.002	0		0.994	
356.02	0.945	0.048	0.002	0		0.996	
360.31	0.869	0.131	0.002	0		1	
356.41	0.501	0.048	0.002	0		0.658	
356.31	0.663	0.048	0.002	0		0.789	
356.26	0.774	0.048	0.002	0		0.874	
356.19	0.839	0.048	0.002	0		0.922	
356.16	0.877	0.048	0.002	0		0.948	
356.11	0.913	0.048	0.002	0		0.974	
355.94	0.952	0.048	0.002	0		1	
373.96	0	0.091	0.002	0		0	
366.76	0.171	0.091	0.002	0		0.323	
365.52	0.211	0.091	0.002	0		0.378	
363.63	0.278	0.091	0.002	0		0.461	
361.01	0.403	0.091	0.002	0		0.592	

System: propan-1-ol + acetonitrile + 1-ethyl-3-methylimidazolium diethyl phosphate; phases: Liquid, Gas
Fixed: Pressure, kPa = 101.3
Property: Mole fraction of 1-ethyl-3-methylimidazolium diethyl phosphate (Liquid); method: Chromatography
Property: Mole fraction of 1-ethyl-3-methylimidazolium diethyl phosphate (Gas); method: Chromatography
Property: Mole fraction of acetonitrile (Gas); method: Chromatography
Temperature, K	Mole fraction of acetonitrile	Mole fraction of 1-ethyl-3-methylimidazolium diethyl phosphate	uncertainty	Mole fraction of 1-ethyl-3-methylimidazolium diethyl phosphate	uncertainty	Mole fraction of acetonitrile	uncertainty
372.25	0	0.048	0.002	0		0	
356.15	0.869	0.048	0.002	0		0.942	
356.1	0.903	0.048	0.002	0		0.966	
356	0.952	0.048	0.002	0		1	
374.8	0	0.091	0.002	0		0	
370.46	0.126	0.091	0.002	0		0.272	
369.16	0.156	0.091	0.002	0		0.318	
364.8	0.283	0.091	0.002	0		0.485	
362.8	0.363	0.091	0.002	0		0.57	
360.24	0.515	0.091	0.002	0		0.716	
359.08	0.654	0.091	0.002	0		0.846	
362.34	0.195	0.048	0.002	0		0.397	
358.38	0.76	0.091	0.002	0		0.933	
358.22	0.787	0.091	0.002	0		0.957	
358.1	0.823	0.091	0.002	0		0.981	
357.9	0.865	0.091	0.002	0		0.992	
357.65	0.909	0.091	0.002	0		1	
378.85	0	0.131	0.002	0		0	
375.62	0.121	0.131	0.002	0		0.242	
374.24	0.157	0.131	0.002	0		0.304	
373.01	0.192	0.131	0.002	0		0.36	
371.64	0.235	0.131	0.002	0		0.426	
361.29	0.228	0.048	0.002	0		0.434	
368.63	0.352	0.131	0.002	0		0.592	
366.07	0.503	0.131	0.002	0		0.791	
365.17	0.598	0.131	0.002	0		0.895	
364	0.714	0.131	0.002	0		0.965	
363.9	0.727	0.131	0.002	0		0.97	
363.4	0.799	0.131	0.002	0		0.99	
363	0.869	0.131	0.002	0		1	
359.38	0.303	0.048	0.002	0		0.507	
357.83	0.386	0.048	0.002	0		0.576	
356.44	0.498	0.048	0.002	0		0.655	
356.4	0.607	0.048	0.002	0		0.746	
356.3	0.71	0.048	0.002	0		0.826	
356.2	0.801	0.048	0.002	0		0.893	
