Measured thermophysical data. Densities and Speeds of Sound of Solutions of Glycine, l-Alanine, and l-Valine in Aqueous Ammonium Dihydrogen Phosphate at Different Temperatures
Source: J. Chem. Eng. Data, 2017, 10.1021/acs.jced.7b00257
Compound 1: 2-aminoacetic acid, C2H5NO2, InChI=1S/C2H5NO2/c3-1-2(4)5/h1,3H2,(H,4,5), purity 99%
Compound 2: (S)-2-aminopropanoic acid, C3H7NO2, InChI=1S/C3H7NO2/c1-2(4)3(5)6/h2H,4H2,1H3,(H,5,6)/t2-/m0/s1, purity 99%
Compound 3: L-valine, C5H11NO2, InChI=1S/C5H11NO2/c1-3(2)4(6)5(7)8/h3-4H,6H2,1-2H3,(H,7,8)/t4-/m0/s1, purity 99%
Compound 4: ammonium dihydrogen phosphate, H6NO4P, InChI=1S/H3N.H3O4P/c;1-5(2,3)4/h1H3;(H3,1,2,3,4), purity 99%
Compound 5: water, H2O, InChI=1S/H2O/h1H2, purity 99.9%

System: 2-aminoacetic acid + ammonium dihydrogen phosphate + water; phases: Liquid
Fixed: Pressure, kPa = 100
Property: Mass density, kg/m3 (Liquid); method: Vibrating tube method
Solvent: Molality, mol/kg of ammonium dihydrogen phosphate	Temperature, K	Molality, mol/kg of 2-aminoacetic acid	Mass density, kg/m3	uncertainty
0.5	288.15	0	1029.895	0.166
0.5	288.15	0.00974	1030.187	0.166
0.5	288.15	0.01977	1030.487	0.166
0.5	288.15	0.03977	1031.082	0.167
0.5	288.15	0.06053	1031.695	0.167
0.5	288.15	0.08034	1032.275	0.167
0.5	288.15	0.10082	1032.871	0.168
0.5	288.15	0.12497	1033.568	0.168
0.5	288.15	0.15071	1034.305	0.168
0.5	298.15	0	1026.926	0.165
0.5	298.15	0.00974	1027.216	0.165
0.5	298.15	0.01977	1027.512	0.165
0.5	298.15	0.03977	1028.101	0.166
0.5	298.15	0.06053	1028.708	0.166
0.5	298.15	0.08034	1029.283	0.166
0.5	298.15	0.10082	1029.873	0.166
0.5	298.15	0.12497	1030.563	0.167
0.5	298.15	0.15071	1031.291	0.167
0.5	308.15	0	1023.68	0.164
0.5	308.15	0.00974	1023.967	0.164
0.5	308.15	0.01977	1024.262	0.164
0.5	308.15	0.03977	1024.846	0.164
0.5	308.15	0.06053	1025.448	0.165
0.5	308.15	0.08034	1026.019	0.165
0.5	308.15	0.10082	1026.603	0.165
0.5	308.15	0.12497	1027.288	0.165
0.5	308.15	0.15071	1028.01	0.166
0.5	318.15	0	1019.889	0.162
0.5	318.15	0.00974	1020.174	0.163
0.5	318.15	0.01977	1020.467	0.163
0.5	318.15	0.03977	1021.048	0.163
0.5	318.15	0.06053	1021.647	0.163
0.5	318.15	0.08034	1022.213	0.163
0.5	318.15	0.10082	1022.794	0.164
0.5	318.15	0.12497	1023.474	0.164
0.5	318.15	0.15071	1024.19	0.164
1	288.15	0	1057.212	0.178
1	288.15	0.00967	1057.484	0.178
1	288.15	0.02172	1057.822	0.178
1	288.15	0.04059	1058.347	0.179
1	288.15	0.06035	1058.893	0.179
1	288.15	0.08092	1059.458	0.179
1	288.15	0.10058	1059.992	0.179
1	288.15	0.12459	1060.64	0.18
1	298.15	0	1054.111	0.177
1	298.15	0.00967	1054.381	0.177
1	298.15	0.02172	1054.716	0.177
1	298.15	0.04059	1055.237	0.177
1	298.15	0.06035	1055.779	0.178
1	298.15	0.08092	1056.338	0.178
1	298.15	0.10058	1056.867	0.178
1	298.15	0.12459	1057.51	0.178
1	308.15	0	1050.638	0.176
1	308.15	0.00967	1050.906	0.176
1	308.15	0.02172	1051.238	0.176
1	308.15	0.04059	1051.754	0.176
1	308.15	0.06035	1052.29	0.176
1	308.15	0.08092	1052.843	0.177
1	308.15	0.10058	1053.367	0.177
1	308.15	0.12459	1053.999	0.177
1	318.15	0	1046.759	0.174
1	318.15	0.00967	1047.024	0.174
1	318.15	0.02172	1047.353	0.174
1	318.15	0.04059	1047.864	0.175
1	318.15	0.06035	1048.395	0.175
1	318.15	0.08092	1048.943	0.175
1	318.15	0.10058	1049.463	0.175
1	318.15	0.12459	1050.092	0.176
1	288.15	0.15113	1061.348	0.18
1	298.15	0.15113	1058.214	0.179
1	308.15	0.15113	1054.69	0.177
1	318.15	0.15113	1050.778	0.176
1.5	288.15	0	1082.488	0.19
1.5	288.15	0.01125	1082.782	0.19
1.5	288.15	0.02084	1083.031	0.19
1.5	288.15	0.04052	1083.54	0.19
1.5	288.15	0.06008	1084.042	0.19
1.5	288.15	0.08059	1084.562	0.191
1.5	288.15	0.09917	1085.029	0.191
1.5	288.15	0.12503	1085.674	0.191
1.5	288.15	0.14982	1086.282	0.191
1.5	298.15	0	1079.387	0.188
1.5	298.15	0.01125	1079.679	0.189
1.5	298.15	0.02084	1079.927	0.189
1.5	298.15	0.04052	1080.432	0.189
1.5	298.15	0.06008	1080.93	0.189
1.5	298.15	0.08059	1081.446	0.189
1.5	298.15	0.09917	1081.909	0.19
1.5	298.15	0.12503	1082.55	0.19
1.5	298.15	0.14982	1083.159	0.19
1.5	308.15	0	1075.632	0.187
1.5	308.15	0.01125	1075.922	0.187
1.5	308.15	0.02084	1076.169	0.187
1.5	308.15	0.04052	1076.671	0.187
1.5	308.15	0.06008	1077.165	0.188
1.5	308.15	0.08059	1077.678	0.188
1.5	308.15	0.09917	1078.138	0.188
1.5	308.15	0.12503	1078.774	0.188
1.5	308.15	0.14982	1079.378	0.189
1.5	318.15	0	1071.692	0.186
1.5	318.15	0.01125	1071.98	0.186
1.5	318.15	0.02084	1072.223	0.186
1.5	318.15	0.04052	1072.72	0.186
1.5	318.15	0.06008	1073.209	0.186
1.5	318.15	0.08059	1073.717	0.186
1.5	318.15	0.09917	1074.173	0.187
1.5	318.15	0.12503	1074.803	0.187
1.5	318.15	0.14982	1075.4	0.187
2	288.15	0	1105.65	0.201
2	288.15	0.01099	1105.913	0.201
2	288.15	0.02028	1106.134	0.201
2	288.15	0.04048	1106.612	0.201
2	288.15	0.06058	1107.082	0.201
2	288.15	0.08012	1107.535	0.202
2	288.15	0.10077	1108.007	0.202
2	288.15	0.12502	1108.553	0.202
2	288.15	0.15043	1109.12	0.202
2	298.15	0	1102.498	0.199
2	298.15	0.01099	1102.76	0.199
2	298.15	0.02028	1102.98	0.2
2	298.15	0.04048	1103.455	0.2
2	298.15	0.06058	1103.922	0.2
2	298.15	0.08012	1104.373	0.2
2	298.15	0.10077	1104.845	0.2
2	298.15	0.12502	1105.393	0.201
2	298.15	0.15043	1105.956	0.201
2	308.15	0	1098.679	0.198
2	308.15	0.01099	1098.94	0.198
2	308.15	0.02028	1099.159	0.198
2	308.15	0.04048	1099.631	0.198
2	308.15	0.06058	1100.096	0.198
2	308.15	0.08012	1100.543	0.199
2	308.15	0.10077	1101.011	0.199
2	308.15	0.12502	1101.553	0.199
2	308.15	0.15043	1102.115	0.199
2	318.15	0	1094.705	0.196
2	318.15	0.01099	1094.964	0.196
2	318.15	0.02028	1095.181	0.196
2	318.15	0.04048	1095.65	0.196
2	318.15	0.06058	1096.111	0.197
2	318.15	0.08012	1096.555	0.197
2	318.15	0.10077	1097.017	0.197
2	318.15	0.12502	1097.554	0.197
2	318.15	0.15043	1098.107	0.197

System: 2-aminoacetic acid + ammonium dihydrogen phosphate + water; phases: Liquid
Fixed: Pressure, kPa = 100
Fixed: Frequency, MHz = 3
Property: Speed of sound, m/s (Liquid); method: Sing-around technique in a fixed-path interferometer
Solvent: Molality, mol/kg of ammonium dihydrogen phosphate	Temperature, K	Molality, mol/kg of 2-aminoacetic acid	Speed of sound, m/s	uncertainty
0.5	288.15	0	1507.2	1.42
0.5	288.15	0.00974	1508.2	1.43
0.5	288.15	0.01977	1508.82	1.42
0.5	288.15	0.03977	1510.2	1.43
0.5	288.15	0.06053	1511.21	1.43
0.5	288.15	0.08034	1511.88	1.43
0.5	288.15	0.10082	1512.55	1.42
0.5	288.15	0.12497	1514.05	1.43
0.5	288.15	0.15071	1515.58	1.43
0.5	298.15	0	1534.68	1.42
0.5	298.15	0.00974	1535.59	1.42
0.5	298.15	0.01977	1536.17	1.42
0.5	298.15	0.03977	1537.46	1.42
0.5	298.15	0.06053	1538.36	1.42
0.5	298.15	0.08034	1539.02	1.42
0.5	298.15	0.10082	1539.72	1.42
0.5	298.15	0.12497	1541.18	1.42
0.5	298.15	0.15071	1542.49	1.42
0.5	308.15	0	1555.74	1.42
0.5	308.15	0.00974	1556.58	1.42
0.5	308.15	0.01977	1557.13	1.42
0.5	308.15	0.03977	1558.35	1.42
0.5	308.15	0.06053	1559.08	1.42
0.5	308.15	0.08034	1559.81	1.42
0.5	308.15	0.10082	1560.64	1.42
0.5	308.15	0.12497	1561.79	1.42
0.5	308.15	0.15071	1563.13	1.42
0.5	318.15	0	1570.81	1.42
0.5	318.15	0.00974	1571.61	1.42
0.5	318.15	0.01977	1572.14	1.42
0.5	318.15	0.03977	1573.31	1.42
0.5	318.15	0.06053	1574.49	1.42
0.5	318.15	0.08034	1575.75	1.42
0.5	318.15	0.10082	1577.15	1.42
0.5	318.15	0.12497	1577.56	1.42
0.5	318.15	0.15071	1577.92	1.42
1	288.15	0	1544.35	1.43
1	288.15	0.00967	1544.88	1.43
1	288.15	0.02172	1545.17	1.43
1	288.15	0.04059	1546.33	1.43
1	288.15	0.06035	1547.42	1.43
1	288.15	0.08092	1548.34	1.43
1	288.15	0.10058	1549.32	1.43
1	288.15	0.12459	1550.89	1.43
1	288.15	0.15113	1552.32	1.43
1	298.15	0	1569.47	1.43
1	298.15	0.00967	1569.96	1.43
1	298.15	0.02172	1570.23	1.43
1	298.15	0.04059	1571.27	1.43
1	298.15	0.06035	1572.26	1.43
1	298.15	0.08092	1573.19	1.43
1	298.15	0.10058	1574.12	1.43
1	298.15	0.12459	1575.52	1.43
1	298.15	0.15113	1576.87	1.43
1	308.15	0	1588.63	1.42
1	308.15	0.00967	1589.07	1.42
1	308.15	0.02172	1589.33	1.42
1	308.15	0.04059	1590.32	1.42
1	308.15	0.06035	1591.17	1.42
1	308.15	0.08092	1592.14	1.42
1	308.15	0.10058	1593.2	1.42
1	308.15	0.12459	1594.28	1.42
1	308.15	0.15113	1595.58	1.42
1	318.15	0	1602.26	1.42
1	318.15	0.00967	1602.59	1.42
1	318.15	0.02172	1603.09	1.42
1	318.15	0.04059	1603.81	1.42
1	318.15	0.06035	1604.65	1.42
1	318.15	0.08092	1605.53	1.42
1	318.15	0.10058	1606.33	1.42
1	318.15	0.12459	1607.58	1.42
1	318.15	0.15113	1608.82	1.42
1.5	288.15	0	1579.46	1.43
1.5	288.15	0.01125	1579.96	1.43
1.5	288.15	0.02084	1581.07	1.43
1.5	288.15	0.04052	1581.93	1.43
1.5	288.15	0.06008	1582.83	1.43
1.5	288.15	0.08059	1583.77	1.43
1.5	288.15	0.09917	1584.57	1.43
1.5	288.15	0.12503	1586.69	1.43
1.5	288.15	0.14982	1588.68	1.43
1.5	298.15	0	1602.24	1.43
1.5	298.15	0.01125	1602.71	1.43
1.5	298.15	0.02084	1603.78	1.43
1.5	298.15	0.04052	1604.64	1.43
1.5	298.15	0.06008	1605.45	1.43
1.5	298.15	0.08059	1606.27	1.43
1.5	298.15	0.09917	1607.04	1.43
1.5	298.15	0.12503	1609.11	1.43
1.5	298.15	0.14982	1611.01	1.43
1.5	308.15	0	1619.54	1.43
1.5	308.15	0.01125	1619.98	1.43
1.5	308.15	0.02084	1621.01	1.43
1.5	308.15	0.04052	1621.79	1.43
1.5	308.15	0.06008	1622.57	1.43
1.5	308.15	0.08059	1623.37	1.43
1.5	308.15	0.09917	1624.08	1.43
1.5	308.15	0.12503	1625.99	1.43
1.5	308.15	0.14982	1627.89	1.43
1.5	318.15	0	1631.66	1.42
1.5	318.15	0.01125	1632.54	1.43
1.5	318.15	0.02084	1633.03	1.42
1.5	318.15	0.04052	1633.67	1.43
1.5	318.15	0.06008	1634.54	1.43
1.5	318.15	0.08059	1635.27	1.43
1.5	318.15	0.09917	1635.99	1.43
1.5	318.15	0.12503	1637.89	1.43
1.5	318.15	0.14982	1639.7	1.43
2	288.15	0	1613.6	1.43
2	288.15	0.01099	1614.52	1.43
2	288.15	0.02028	1614.97	1.43
2	288.15	0.04048	1616.16	1.43
2	288.15	0.06058	1617.18	1.43
2	288.15	0.08012	1618.29	1.43
2	288.15	0.10077	1619.46	1.43
2	288.15	0.12502	1620.47	1.43
2	288.15	0.15043	1621.66	1.43
2	298.15	0	1634.12	1.43
2	298.15	0.01099	1634.98	1.43
2	298.15	0.02028	1635.41	1.43
2	298.15	0.04048	1636.51	1.43
2	298.15	0.06058	1637.51	1.43
2	298.15	0.08012	1638.61	1.43
2	298.15	0.10077	1639.62	1.43
2	298.15	0.12502	1640.59	1.43
2	298.15	0.15043	1641.68	1.43
2	308.15	0	1649.64	1.43
2	308.15	0.01099	1650.45	1.43
2	308.15	0.02028	1650.85	1.43
2	308.15	0.04048	1651.84	1.43
2	308.15	0.06058	1652.84	1.43
2	308.15	0.08012	1653.93	1.43
2	308.15	0.10077	1654.84	1.43
2	308.15	0.12502	1655.87	1.43
2	308.15	0.15043	1656.79	1.43
2	318.15	0	1660.38	1.43
2	318.15	0.01099	1661.12	1.43
2	318.15	0.02028	1661.52	1.43
2	318.15	0.04048	1662.5	1.43
2	318.15	0.06058	1663.42	1.43
2	318.15	0.08012	1664.33	1.43
2	318.15	0.10077	1665.27	1.43
2	318.15	0.12502	1666.32	1.43
2	318.15	0.15043	1667.18	1.43

System: (S)-2-aminopropanoic acid + ammonium dihydrogen phosphate + water; phases: Liquid
Fixed: Pressure, kPa = 100
Property: Mass density, kg/m3 (Liquid); method: Vibrating tube method
Solvent: Molality, mol/kg of ammonium dihydrogen phosphate	Temperature, K	Molality, mol/kg of (S)-2-aminopropanoic acid	Mass density, kg/m3	uncertainty
0.5	288.15	0	1029.895	0.166
0.5	288.15	0.01031	1030.171	0.166
0.5	288.15	0.02068	1030.448	0.166
0.5	288.15	0.04119	1030.992	0.167
0.5	288.15	0.05989	1031.484	0.167
0.5	288.15	0.08031	1032.018	0.167
0.5	288.15	0.10003	1032.528	0.167
0.5	288.15	0.12507	1033.172	0.168
0.5	288.15	0.14983	1033.802	0.168
0.5	298.15	0	1026.926	0.165
0.5	298.15	0.01031	1027.201	0.165
0.5	298.15	0.02068	1027.476	0.165
0.5	298.15	0.04119	1028.017	0.165
0.5	298.15	0.05989	1028.505	0.166
0.5	298.15	0.08031	1029.034	0.166
0.5	298.15	0.10003	1029.542	0.166
0.5	298.15	0.12507	1030.18	0.166
0.5	298.15	0.14983	1030.802	0.167
0.5	308.15	0	1023.68	0.164
0.5	308.15	0.01031	1023.953	0.164
0.5	308.15	0.02068	1024.227	0.164
0.5	308.15	0.04119	1024.766	0.164
0.5	308.15	0.05989	1025.254	0.165
0.5	308.15	0.08031	1025.783	0.165
0.5	308.15	0.10003	1026.29	0.165
0.5	308.15	0.12507	1026.926	0.165
0.5	308.15	0.14983	1027.548	0.166
0.5	318.15	0	1019.889	0.162
0.5	318.15	0.01031	1020.161	0.163
0.5	318.15	0.02068	1020.435	0.163
0.5	318.15	0.04119	1020.971	0.163
0.5	318.15	0.05989	1021.456	0.163
0.5	318.15	0.08031	1021.981	0.163
0.5	318.15	0.10003	1022.484	0.164
0.5	318.15	0.12507	1023.118	0.164
0.5	318.15	0.14983	1023.734	0.164
1	288.15	0	1057.212	0.178
1	288.15	0.01031	1057.463	0.178
1	288.15	0.02164	1057.739	0.178
1	288.15	0.03991	1058.179	0.179
1	288.15	0.06031	1058.667	0.179
1	288.15	0.08046	1059.144	0.179
1	288.15	0.09991	1059.6	0.179
1	288.15	0.12455	1060.172	0.179
1	288.15	0.14974	1060.75	0.18
1	298.15	0	1054.111	0.177
1	298.15	0.01031	1054.361	0.177
1	298.15	0.02164	1054.635	0.177
1	298.15	0.03991	1055.074	0.177
1	298.15	0.06031	1055.56	0.178
1	298.15	0.08046	1056.035	0.178
1	298.15	0.09991	1056.49	0.178
1	298.15	0.12455	1057.061	0.178
1	298.15	0.14974	1057.636	0.179
1	308.15	0	1050.638	0.176
1	308.15	0.01031	1050.887	0.176
1	308.15	0.02164	1051.16	0.176
1	308.15	0.03991	1051.597	0.176
1	308.15	0.06031	1052.08	0.176
1	308.15	0.08046	1052.552	0.176
1	308.15	0.09991	1053.004	0.177
1	308.15	0.12455	1053.572	0.177
1	308.15	0.14974	1054.147	0.177
1	318.15	0	1046.759	0.174
1	318.15	0.01031	1047.007	0.174
1	318.15	0.02164	1047.279	0.174
1	318.15	0.03991	1047.714	0.175
1	318.15	0.06031	1048.196	0.175
1	318.15	0.08046	1048.667	0.175
1	318.15	0.09991	1049.117	0.175
1	318.15	0.12455	1049.682	0.176
1	318.15	0.14974	1050.254	0.176
1.5	288.15	0	1082.488	0.19
1.5	288.15	0.00994	1082.707	0.19
1.5	288.15	0.01973	1082.921	0.19
1.5	288.15	0.04038	1083.369	0.19
1.5	288.15	0.06007	1083.791	0.19
1.5	288.15	0.08011	1084.217	0.19
1.5	288.15	0.09997	1084.634	0.191
1.5	288.15	0.12479	1085.149	0.191
1.5	288.15	0.15003	1085.664	0.191
1.5	298.15	0	1079.387	0.188
1.5	298.15	0.00994	1079.604	0.189
1.5	298.15	0.01973	1079.817	0.189
1.5	298.15	0.04038	1080.262	0.189
1.5	298.15	0.06007	1080.683	0.189
1.5	298.15	0.08011	1081.107	0.189
1.5	298.15	0.09997	1081.522	0.189
1.5	298.15	0.12479	1082.036	0.19
1.5	298.15	0.15003	1082.553	0.19
1.5	308.15	0	1075.632	0.187
1.5	308.15	0.00994	1075.849	0.187
1.5	308.15	0.01973	1076.061	0.187
1.5	308.15	0.04038	1076.505	0.187
1.5	308.15	0.06007	1076.924	0.188
1.5	308.15	0.08011	1077.346	0.188
1.5	308.15	0.09997	1077.759	0.188
1.5	308.15	0.12479	1078.271	0.188
1.5	308.15	0.15003	1078.786	0.188
1.5	318.15	0	1071.692	0.186
1.5	318.15	0.00994	1071.908	0.185
1.5	318.15	0.01973	1072.12	0.186
1.5	318.15	0.04038	1072.564	0.186
1.5	318.15	0.06007	1072.982	0.186
1.5	318.15	0.08011	1073.402	0.186
1.5	318.15	0.09997	1073.814	0.186
1.5	318.15	0.12479	1074.324	0.187
1.5	318.15	0.15003	1074.836	0.187
2	288.15	0	1105.65	0.201
2	288.15	0.01037	1105.851	0.201
2	288.15	0.01978	1106.032	0.201
2	288.15	0.04001	1106.418	0.201
2	288.15	0.0598	1106.794	0.201
2	288.15	0.07992	1107.17	0.201
2	288.15	0.10006	1107.543	0.202
2	288.15	0.12508	1108	0.202
2	288.15	0.14997	1108.449	0.202
2	298.15	0	1102.498	0.199
2	298.15	0.01037	1102.698	0.199
2	298.15	0.01978	1102.878	0.199
2	298.15	0.04001	1103.263	0.2
2	298.15	0.0598	1103.636	0.2
2	298.15	0.07992	1104.01	0.2
2	298.15	0.10006	1104.379	0.2
2	298.15	0.12508	1104.832	0.2
2	298.15	0.14997	1105.273	0.201
2	308.15	0	1098.679	0.198
2	308.15	0.01037	1098.878	0.198
2	308.15	0.01978	1099.058	0.198
2	308.15	0.04001	1099.441	0.198
2	308.15	0.0598	1099.81	0.198
2	308.15	0.07992	1100.182	0.198
2	308.15	0.10006	1100.55	0.199
2	308.15	0.12508	1101.002	0.199
2	308.15	0.14997	1101.443	0.199
2	318.15	0	1094.705	0.196
2	318.15	0.01037	1094.904	0.196
2	318.15	0.01978	1095.084	0.196
2	318.15	0.04001	1095.468	0.196
2	318.15	0.0598	1095.839	0.196
2	318.15	0.07992	1096.21	0.197
2	318.15	0.10006	1096.578	0.197
2	318.15	0.12508	1097.029	0.197
2	318.15	0.14997	1097.473	0.197

System: (S)-2-aminopropanoic acid + ammonium dihydrogen phosphate + water; phases: Liquid
Fixed: Pressure, kPa = 100
Fixed: Frequency, MHz = 3
Property: Speed of sound, m/s (Liquid); method: Sing-around technique in a fixed-path interferometer
Solvent: Molality, mol/kg of ammonium dihydrogen phosphate	Temperature, K	Molality, mol/kg of (S)-2-aminopropanoic acid	Speed of sound, m/s	uncertainty
0.5	288.15	0	1507.2	1.4
0.5	288.15	0.01031	1508.36	1.43
0.5	288.15	0.02068	1509.23	1.42
0.5	288.15	0.04119	1510.5	1.42
0.5	288.15	0.05989	1511.95	1.43
0.5	288.15	0.08031	1513.26	1.43
0.5	288.15	0.10003	1514.5	1.42
0.5	288.15	0.12507	1516.75	1.43
0.5	288.15	0.14983	1519.01	1.43
0.5	298.15	0	1534.68	1.42
0.5	298.15	0.01031	1535.82	1.42
0.5	298.15	0.02068	1536.37	1.42
0.5	298.15	0.04119	1537.75	1.42
0.5	298.15	0.05989	1539.08	1.42
0.5	298.15	0.08031	1540.31	1.42
0.5	298.15	0.10003	1541.43	1.42
0.5	298.15	0.12507	1543.65	1.42
0.5	298.15	0.14983	1545.78	1.42
0.5	308.15	0	1555.74	1.42
0.5	308.15	0.01031	1556.81	1.42
0.5	308.15	0.02068	1557.49	1.42
0.5	308.15	0.04119	1558.59	1.42
0.5	308.15	0.05989	1559.72	1.42
0.5	308.15	0.08031	1561	1.42
0.5	308.15	0.10003	1562.01	1.42
0.5	308.15	0.12507	1564.12	1.42
0.5	308.15	0.14983	1566.18	1.42
0.5	318.15	0	1570.81	1.42
0.5	318.15	0.01031	1571.84	1.42
0.5	318.15	0.02068	1572.49	1.42
0.5	318.15	0.04119	1573.49	1.42
0.5	318.15	0.05989	1574.71	1.42
0.5	318.15	0.08031	1576.05	1.42
0.5	318.15	0.10003	1576.73	1.42
0.5	318.15	0.12507	1578.67	1.42
0.5	318.15	0.14983	1580.75	1.42
1	288.15	0	1544.35	1.43
1	288.15	0.01031	1545.74	1.43
1	288.15	0.02164	1545.99	1.43
1	288.15	0.03991	1547.55	1.43
1	288.15	0.06031	1548.6	1.43
1	288.15	0.08046	1549.92	1.43
1	288.15	0.09991	1551.28	1.43
1	288.15	0.12455	1552.71	1.43
1	288.15	0.14974	1554.43	1.43
1	298.15	0	1569.47	1.43
1	298.15	0.01031	1570.77	1.43
1	298.15	0.02164	1571.01	1.43
1	298.15	0.03991	1572.28	1.43
1	298.15	0.06031	1573.55	1.43
1	298.15	0.08046	1574.56	1.43
1	298.15	0.09991	1575.86	1.43
1	298.15	0.12455	1576.84	1.43
1	298.15	0.14974	1578.8	1.43
1	308.15	0	1588.63	1.42
1	308.15	0.01031	1589.82	1.42
1	308.15	0.02164	1590.04	1.42
1	308.15	0.03991	1591.14	1.42
1	308.15	0.06031	1592.26	1.42
1	308.15	0.08046	1593.55	1.42
1	308.15	0.09991	1594.59	1.42
1	308.15	0.12455	1595.88	1.42
1	308.15	0.14974	1597.31	1.42
1	318.15	0	1602.26	1.42
1	318.15	0.01031	1603.28	1.42
1	318.15	0.02164	1603.52	1.42
1	318.15	0.03991	1604.55	1.42
1	318.15	0.06031	1605.6	1.42
1	318.15	0.08046	1606.65	1.42
1	318.15	0.09991	1607.8	1.42
1	318.15	0.12455	1609.11	1.42
1	318.15	0.14974	1610.38	1.42
1.5	288.15	0	1579.46	1.43
1.5	288.15	0.00994	1580.71	1.43
1.5	288.15	0.01973	1581.46	1.43
1.5	288.15	0.04038	1582.62	1.43
1.5	288.15	0.06007	1583.88	1.43
1.5	288.15	0.08011	1585.37	1.43
1.5	288.15	0.09997	1586.97	1.43
1.5	288.15	0.12479	1588.35	1.43
1.5	288.15	0.15003	1589.72	1.43
1.5	298.15	0	1602.24	1.43
1.5	298.15	0.00994	1603.42	1.43
1.5	298.15	0.01973	1604.1	1.4
1.5	298.15	0.04038	1605.28	1.43
1.5	298.15	0.06007	1606.35	1.43
1.5	298.15	0.08011	1607.72	1.43
1.5	298.15	0.09997	1609.22	1.43
1.5	298.15	0.12479	1610.57	1.43
1.5	298.15	0.15003	1611.8	1.43
1.5	308.15	0	1619.54	1.43
1.5	308.15	0.00994	1620.65	1.43
1.5	308.15	0.01973	1621.31	1.43
1.5	308.15	0.04038	1622.36	1.43
1.5	308.15	0.06007	1623.39	1.43
1.5	308.15	0.08011	1624.72	1.43
1.5	308.15	0.09997	1626.1	1.43
1.5	308.15	0.12479	1627.29	1.43
1.5	308.15	0.15003	1628.47	1.43
1.5	318.15	0	1631.66	1.42
1.5	318.15	0.00994	1632.7	1.4
1.5	318.15	0.01973	1633.3	1.4
1.5	318.15	0.04038	1634.39	1.43
1.5	318.15	0.06007	1635.28	1.43
1.5	318.15	0.08011	1636.64	1.43
1.5	318.15	0.09997	1637.84	1.43
1.5	318.15	0.12479	1638.97	1.43
1.5	318.15	0.15003	1640.07	1.43
2	288.15	0	1613.6	1.43
2	288.15	0.01037	1614.61	1.43
2	288.15	0.01978	1615.27	1.43
2	288.15	0.04001	1616.53	1.43
2	288.15	0.0598	1617.71	1.43
2	288.15	0.07992	1618.84	1.43
2	288.15	0.10006	1620	1.43
2	288.15	0.12508	1621.7	1.43
2	288.15	0.14997	1623.24	1.43
2	298.15	0	1634.12	1.43
2	298.15	0.01037	1635.31	1.43
2	298.15	0.01978	1635.7	1.43
2	298.15	0.04001	1636.89	1.43
2	298.15	0.0598	1637.96	1.43
2	298.15	0.07992	1639.09	1.43
2	298.15	0.10006	1640.09	1.43
2	298.15	0.12508	1641.63	1.43
2	298.15	0.14997	1643.11	1.43
2	308.15	0	1649.64	1.43
2	308.15	0.01037	1650.54	1.43
2	308.15	0.01978	1651.13	1.43
2	308.15	0.04001	1652.26	1.43
2	308.15	0.0598	1653.25	1.43
2	308.15	0.07992	1654.27	1.43
2	308.15	0.10006	1655.23	1.43
2	308.15	0.12508	1656.63	1.43
2	308.15	0.14997	1658.08	1.43
2	318.15	0	1660.38	1.43
2	318.15	0.01037	1661.21	1.43
2	318.15	0.01978	1661.77	1.43
2	318.15	0.04001	1662.83	1.43
2	318.15	0.0598	1663.76	1.43
2	318.15	0.07992	1664.68	1.43
2	318.15	0.10006	1665.62	1.43
2	318.15	0.12508	1667.02	1.43
2	318.15	0.14997	1668.31	1.43

System: L-valine + ammonium dihydrogen phosphate + water; phases: Liquid
Fixed: Pressure, kPa = 100
Property: Mass density, kg/m3 (Liquid); method: Vibrating tube method
Solvent: Molality, mol/kg of ammonium dihydrogen phosphate	Temperature, K	Molality, mol/kg of L-valine	Mass density, kg/m3	uncertainty
0.5	288.15	0	1029.895	0.166
0.5	288.15	0.01017	1030.139	0.166
0.5	288.15	0.02025	1030.379	0.166
0.5	288.15	0.04015	1030.851	0.167
0.5	288.15	0.05985	1031.314	0.167
0.5	288.15	0.08012	1031.787	0.167
0.5	288.15	0.09989	1032.244	0.167
0.5	288.15	0.12519	1032.821	0.167
0.5	288.15	0.14976	1033.375	0.168
0.5	298.15	0	1026.926	0.165
0.5	298.15	0.01017	1027.168	0.165
0.5	298.15	0.02025	1027.406	0.165
0.5	298.15	0.04015	1027.874	0.165
0.5	298.15	0.05985	1028.333	0.166
0.5	298.15	0.08012	1028.802	0.166
0.5	298.15	0.09989	1029.254	0.166
0.5	298.15	0.12519	1029.826	0.166
0.5	298.15	0.14976	1030.375	0.167
0.5	308.15	0	1023.68	0.164
0.5	308.15	0.01017	1023.92	0.164
0.5	308.15	0.02025	1024.156	0.164
0.5	308.15	0.04015	1024.619	0.164
0.5	308.15	0.05985	1025.074	0.164
0.5	308.15	0.08012	1025.536	0.165
0.5	308.15	0.09989	1025.981	0.165
0.5	308.15	0.12519	1026.546	0.165
0.5	308.15	0.14976	1027.087	0.165
0.5	318.15	0	1019.889	0.162
0.5	318.15	0.01017	1020.126	0.163
0.5	318.15	0.02025	1020.361	0.163
0.5	318.15	0.04015	1020.82	0.163
0.5	318.15	0.05985	1021.271	0.163
0.5	318.15	0.08012	1021.731	0.163
0.5	318.15	0.09989	1022.175	0.163
0.5	318.15	0.12519	1022.737	0.164
0.5	318.15	0.14976	1023.276	0.164
1	288.15	0	1057.212	0.178
1	288.15	0.01063	1057.428	0.178
1	288.15	0.01999	1057.617	0.178
1	288.15	0.04009	1058.02	0.178
1	288.15	0.05982	1058.412	0.179
1	288.15	0.07996	1058.807	0.179
1	288.15	0.10001	1059.196	0.179
1	288.15	0.12501	1059.675	0.179
1	288.15	0.15082	1060.162	0.179
1	298.15	0	1054.111	0.177
1	298.15	0.01063	1054.325	0.177
1	298.15	0.01999	1054.513	0.177
1	298.15	0.04009	1054.912	0.177
1	298.15	0.05982	1055.301	0.177
1	298.15	0.07996	1055.694	0.178
1	298.15	0.10001	1056.079	0.178
1	298.15	0.12501	1056.554	0.178
1	298.15	0.15082	1057.036	0.178
1	308.15	0	1050.638	0.176
1	308.15	0.01063	1050.85	0.176
1	308.15	0.01999	1051.036	0.176
1	308.15	0.04009	1051.432	0.176
1	308.15	0.05982	1051.816	0.176
1	308.15	0.07996	1052.206	0.176
1	308.15	0.10001	1052.587	0.176
1	308.15	0.12501	1053.059	0.177
1	308.15	0.15082	1053.54	0.177
1	318.15	0	1046.759	0.174
1	318.15	0.01063	1046.97	0.174
1	318.15	0.01999	1047.154	0.174
1	318.15	0.04009	1047.547	0.175
1	318.15	0.05982	1047.927	0.175
1	318.15	0.07996	1048.31	0.175
1	318.15	0.10001	1048.687	0.175
1	318.15	0.12501	1049.149	0.175
1	318.15	0.15082	1049.621	0.176
1.5	288.15	0	1082.488	0.19
1.5	288.15	0.01083	1082.665	0.19
1.5	288.15	0.02077	1082.828	0.19
1.5	288.15	0.0404	1083.146	0.19
1.5	288.15	0.06001	1083.461	0.19
1.5	288.15	0.08002	1083.779	0.19
1.5	288.15	0.09986	1084.091	0.19
1.5	288.15	0.12525	1084.485	0.191
1.5	288.15	0.14949	1084.85	0.191
1.5	298.15	0	1079.387	0.188
1.5	298.15	0.01083	1079.563	0.189
1.5	298.15	0.02077	1079.724	0.189
1.5	298.15	0.0404	1080.039	0.189
1.5	298.15	0.06001	1080.349	0.189
1.5	298.15	0.08002	1080.661	0.189
1.5	298.15	0.09986	1080.966	0.189
1.5	298.15	0.12525	1081.352	0.189
1.5	298.15	0.14949	1081.713	0.19
1.5	308.15	0	1075.632	0.187
1.5	308.15	0.01083	1075.806	0.187
1.5	308.15	0.02077	1075.965	0.187
1.5	308.15	0.0404	1076.277	0.187
1.5	308.15	0.06001	1076.584	0.187
1.5	308.15	0.08002	1076.893	0.188
1.5	308.15	0.09986	1077.197	0.188
1.5	308.15	0.12525	1077.579	0.188
1.5	308.15	0.14949	1077.937	0.188
1.5	318.15	0	1071.692	0.186
1.5	318.15	0.01083	1071.864	0.185
1.5	318.15	0.02077	1072.022	0.186
1.5	318.15	0.0404	1072.33	0.186
1.5	318.15	0.06001	1072.634	0.186
1.5	318.15	0.08002	1072.941	0.186
1.5	318.15	0.09986	1073.241	0.186
1.5	318.15	0.12525	1073.619	0.186
1.5	318.15	0.14949	1073.975	0.187
2	288.15	0	1105.65	0.201
2	288.15	0.01068	1105.781	0.201
2	288.15	0.02014	1105.896	0.201
2	288.15	0.04038	1106.138	0.201
2	288.15	0.0601	1106.369	0.201
2	288.15	0.08022	1106.602	0.201
2	288.15	0.10006	1106.828	0.201
2	288.15	0.12509	1107.108	0.201
2	288.15	0.14974	1107.377	0.201
2	298.15	0	1102.498	0.199
2	298.15	0.01068	1102.628	0.199
2	298.15	0.02014	1102.742	0.199
2	298.15	0.04038	1102.983	0.2
2	298.15	0.0601	1103.213	0.2
2	298.15	0.08022	1103.445	0.2
2	298.15	0.10006	1103.668	0.2
2	298.15	0.12509	1103.944	0.2
2	298.15	0.14974	1104.208	0.2
2	308.15	0	1098.679	0.198
2	308.15	0.01068	1098.807	0.198
2	308.15	0.02014	1098.921	0.198
2	308.15	0.04038	1099.159	0.198
2	308.15	0.0601	1099.387	0.198
2	308.15	0.08022	1099.616	0.198
2	308.15	0.10006	1099.835	0.198
2	308.15	0.12509	1100.107	0.198
2	308.15	0.14974	1100.368	0.198
2	318.15	0	1094.705	0.196
2	318.15	0.01068	1094.832	0.196
2	318.15	0.02014	1094.943	0.196
2	318.15	0.04038	1095.18	0.196
2	318.15	0.0601	1095.406	0.196
2	318.15	0.08022	1095.633	0.196
2	318.15	0.10006	1095.85	0.196
2	318.15	0.12509	1096.123	0.197
2	318.15	0.14974	1096.382	0.197

System: L-valine + ammonium dihydrogen phosphate + water; phases: Liquid
Fixed: Pressure, kPa = 100
Fixed: Frequency, MHz = 3
Property: Speed of sound, m/s (Liquid); method: Sing-around technique in a fixed-path interferometer
Solvent: Molality, mol/kg of ammonium dihydrogen phosphate	Temperature, K	Molality, mol/kg of L-valine	Speed of sound, m/s	uncertainty
0.5	288.15	0	1507.2	1.42
0.5	288.15	0.01017	1508.44	1.43
0.5	288.15	0.02025	1509.27	1.43
0.5	288.15	0.04015	1511.61	1.42
0.5	288.15	0.05985	1514.02	1.43
0.5	288.15	0.08012	1515.56	1.42
0.5	288.15	0.09989	1517.02	1.42
0.5	288.15	0.12519	1519.94	1.42
0.5	288.15	0.14976	1522.77	1.42
0.5	298.15	0	1534.68	1.42
0.5	298.15	0.01017	1535.79	1.42
0.5	298.15	0.02025	1537.18	1.42
0.5	298.15	0.04015	1538.48	1.42
0.5	298.15	0.05985	1540.89	1.42
0.5	298.15	0.08012	1542.29	1.42
0.5	298.15	0.09989	1543.75	1.42
0.5	298.15	0.12519	1546.22	1.42
0.5	298.15	0.14976	1548.81	1.42
0.5	308.15	0	1555.74	1.42
0.5	308.15	0.01017	1556.74	1.42
0.5	308.15	0.02025	1558.07	1.42
0.5	308.15	0.04015	1559.16	1.42
0.5	308.15	0.05985	1561.44	1.42
0.5	308.15	0.08012	1562.66	1.42
0.5	308.15	0.09989	1563.79	1.42
0.5	308.15	0.12519	1566.22	1.42
0.5	308.15	0.14976	1568.62	1.42
0.5	318.15	0	1570.81	1.42
0.5	318.15	0.01017	1571.72	1.42
0.5	318.15	0.02025	1572.83	1.42
0.5	318.15	0.04015	1574.45	1.42
0.5	318.15	0.05985	1576.11	1.42
0.5	318.15	0.08012	1577.21	1.42
0.5	318.15	0.09989	1578.26	1.42
0.5	318.15	0.12519	1580.35	1.42
0.5	318.15	0.14976	1582.61	1.42
1	288.15	0	1544.35	1.43
1	288.15	0.01063	1545.7	1.43
1	288.15	0.01999	1546.51	1.43
1	288.15	0.04009	1548.57	1.43
1	288.15	0.05982	1550.49	1.43
1	288.15	0.07996	1552.6	1.43
1	288.15	0.10001	1554.64	1.43
1	288.15	0.12501	1557.59	1.43
1	288.15	0.15082	1560.41	1.43
1	298.15	0	1569.47	1.43
1	298.15	0.01063	1570.68	1.43
1	298.15	0.01999	1571.72	1.43
1	298.15	0.04009	1573.29	1.43
1	298.15	0.05982	1575	1.43
1	298.15	0.07996	1577.16	1.43
1	298.15	0.10001	1579.15	1.43
1	298.15	0.12501	1581.6	1.43
1	298.15	0.15082	1584.07	1.43
1	308.15	0	1588.63	1.42
1	308.15	0.01063	1589.73	1.42
1	308.15	0.01999	1590.38	1.42
1	308.15	0.04009	1592.17	1.42
1	308.15	0.05982	1593.79	1.42
1	308.15	0.07996	1595.49	1.42
1	308.15	0.10001	1597.18	1.42
1	308.15	0.12501	1599.42	1.42
1	308.15	0.15082	1601.51	1.42
1	318.15	0	1602.26	1.42
1	318.15	0.01063	1603.2	1.42
1	318.15	0.01999	1603.77	1.42
1	318.15	0.04009	1605.31	1.42
1	318.15	0.05982	1606.81	1.42
1	318.15	0.07996	1608.32	1.42
1	318.15	0.10001	1610.01	1.42
1	318.15	0.12501	1611.89	1.42
1	318.15	0.15082	1613.97	1.42
1.5	288.15	0	1579.46	1.43
1.5	288.15	0.01083	1581.16	1.43
1.5	288.15	0.02077	1582.36	1.43
1.5	288.15	0.0404	1584.19	1.43
1.5	288.15	0.06001	1585.96	1.43
1.5	288.15	0.08002	1588.15	1.43
1.5	288.15	0.09986	1590.18	1.43
1.5	288.15	0.12525	1592.43	1.43
1.5	288.15	0.14949	1594.56	1.43
1.5	298.15	0	1602.24	1.43
1.5	298.15	0.01083	1603.8	1.4
1.5	298.15	0.02077	1604.91	1.43
1.5	298.15	0.0404	1606.86	1.43
1.5	298.15	0.06001	1608.17	1.43
1.5	298.15	0.08002	1610.21	1.43
1.5	298.15	0.09986	1612.02	1.43
1.5	298.15	0.12525	1614.01	1.43
1.5	298.15	0.14949	1616.07	1.43
1.5	308.15	0	1619.54	1.43
1.5	308.15	0.01083	1621.01	1.43
1.5	308.15	0.02077	1622.01	1.43
1.5	308.15	0.0404	1623.49	1.43
1.5	308.15	0.06001	1624.98	1.43
1.5	308.15	0.08002	1626.69	1.43
1.5	308.15	0.09986	1628.48	1.43
1.5	308.15	0.12525	1630.33	1.43
1.5	308.15	0.14949	1632.18	1.43
1.5	318.15	0	1631.66	1.42
1.5	318.15	0.01083	1633.02	1.42
1.5	318.15	0.02077	1633.94	1.42
1.5	318.15	0.0404	1635.29	1.43
1.5	318.15	0.06001	1636.63	1.43
1.5	318.15	0.08002	1637.97	1.43
1.5	318.15	0.09986	1639.24	1.43
1.5	318.15	0.12525	1641.22	1.43
1.5	318.15	0.14949	1643.24	1.43
2	288.15	0	1613.6	1.4
2	288.15	0.01068	1615.83	1.43
2	288.15	0.02014	1616.37	1.43
2	288.15	0.04038	1618.11	1.43
2	288.15	0.0601	1619.7	1.43
2	288.15	0.08022	1621.77	1.43
2	288.15	0.10006	1623.8	1.43
2	288.15	0.12509	1625.85	1.43
2	288.15	0.14974	1627.87	1.43
2	298.15	0	1634.12	1.43
2	298.15	0.01068	1636.35	1.43
2	298.15	0.02014	1636.67	1.43
2	298.15	0.04038	1638.26	1.43
2	298.15	0.0601	1639.75	1.43
2	298.15	0.08022	1641.71	1.43
2	298.15	0.10006	1643.47	1.43
2	298.15	0.12509	1645.39	1.43
2	298.15	0.14974	1647.2	1.43
2	308.15	0	1649.64	1.43
2	308.15	0.01068	1651.51	1.43
2	308.15	0.02014	1651.98	1.43
2	308.15	0.04038	1653.39	1.43
2	308.15	0.0601	1654.82	1.43
2	308.15	0.08022	1656.57	1.43
2	308.15	0.10006	1658.23	1.43
2	308.15	0.12509	1659.94	1.43
2	308.15	0.14974	1661.6	1.43
2	318.15	0	1660.38	1.43
2	318.15	0.01068	1662.1	1.43
2	318.15	0.02014	1662.54	1.43
2	318.15	0.04038	1663.8	1.43
2	318.15	0.0601	1665.1	1.43
2	318.15	0.08022	1666.48	1.43
2	318.15	0.10006	1667.72	1.43
2	318.15	0.12509	1669.54	1.43
2	318.15	0.14974	1671.31	1.43

System: ammonium dihydrogen phosphate + water; phases: Liquid
Fixed: Pressure, kPa = 100
Property: Mass density, kg/m3 (Liquid); method: Vibrating tube method
Molality, mol/kg of ammonium dihydrogen phosphate	Temperature, K	Mass density, kg/m3	uncertainty
0.5	288.15	1029.895	0.11
0.5	298.15	1026.926	0.109
0.5	308.15	1023.68	0.109
0.5	318.15	1019.889	0.109
1	288.15	1057.212	0.115
1	298.15	1054.111	0.115
1	308.15	1050.638	0.115
1	318.15	1046.759	0.115
1.5	288.15	1082.488	0.122
1.5	298.15	1079.387	0.122
1.5	308.15	1075.632	0.121
1.5	318.15	1071.692	0.121
2	288.15	1105.65	0.13
2	298.15	1102.498	0.129
2	308.15	1098.679	0.129
2	318.15	1094.705	0.128

System: ammonium dihydrogen phosphate + water; phases: Liquid
Fixed: Pressure, kPa = 100
Fixed: Frequency, MHz = 3
Property: Speed of sound, m/s (Liquid); method: Sing-around technique in a fixed-path interferometer
Molality, mol/kg of ammonium dihydrogen phosphate	Temperature, K	Speed of sound, m/s	uncertainty
0.5	288.15	1507.2	1.25
0.5	298.15	1534.68	1.25
0.5	308.15	1555.74	1.24
0.5	318.15	1570.81	1.24
1	288.15	1544.35	1.26
1	298.15	1569.47	1.26
1	308.15	1588.63	1.25
1	318.15	1602.26	1.25
1.5	288.15	1579.46	1.27
1.5	298.15	1602.24	1.27
1.5	308.15	1619.54	1.26
1.5	318.15	1631.66	1.26
2	288.15	1613.6	1.28
2	298.15	1634.12	1.28
2	308.15	1649.64	1.27
2	318.15	1660.38	1.27
