Measured thermophysical data. Experimental and Computational Study on Liquid Liquid Equilibrium in Ternary Systems of -Valerolactone, Toluene, and Hydrocarbons
Source: J. Chem. Eng. Data, 2016, 10.1021/acs.jced.5b00611
Compound 1: .gamma.-valerolactone, C5H8O2, InChI=1S/C5H8O2/c1-4-2-3-5(6)7-4/h4H,2-3H2,1H3, purity 99%
Compound 2: heptane, C7H16, InChI=1S/C7H16/c1-3-5-7-6-4-2/h3-7H2,1-2H3, purity 99%
Compound 3: decane, C10H22, InChI=1S/C10H22/c1-3-5-7-9-10-8-6-4-2/h3-10H2,1-2H3, purity 99%
Compound 4: dodecane, C12H26, InChI=1S/C12H26/c1-3-5-7-9-11-12-10-8-6-4-2/h3-12H2,1-2H3, purity 99%
Compound 5: cyclohexane, C6H12, InChI=1S/C6H12/c1-2-4-6-5-3-1/h1-6H2, purity 99.5%
Compound 6: toluene, C7H8, InChI=1S/C7H8/c1-7-5-3-2-4-6-7/h2-6H,1H3, purity 99.8%

System: .gamma.-valerolactone + toluene + heptane; phases: Liquid mixture 1, Liquid mixture 2
Fixed: Temperature, K = 298.15
Fixed: Pressure, kPa = 100
Property: Mole fraction of toluene (Liquid mixture 1); method: Chromatography
Property: Mole fraction of toluene (Liquid mixture 2); method: Chromatography
Property: Mole fraction of .gamma.-valerolactone (Liquid mixture 2); method: Chromatography
Mole fraction of .gamma.-valerolactone	Mole fraction of toluene	uncertainty	Mole fraction of toluene	uncertainty	Mole fraction of .gamma.-valerolactone	uncertainty
0.033	0		0		0.926	
0.047	0.063	0.009	0.049	0.003	0.866	
0.06	0.12	0.007	0.094	0.003	0.808	
0.08	0.17	0.004	0.137	0.003	0.749	
0.116	0.225	0.003	0.19	0.003	0.659	
0.163	0.261	0.003	0.228	0.003	0.586	
0.265	0.286	0.003	0.269	0.003	0.456	

System: .gamma.-valerolactone + toluene + decane; phases: Liquid mixture 2, Liquid mixture 1
Fixed: Temperature, K = 298.15
Fixed: Pressure, kPa = 100
Property: Mole fraction of toluene (Liquid mixture 2); method: Chromatography
Property: Mole fraction of .gamma.-valerolactone (Liquid mixture 1); method: Chromatography
Property: Mole fraction of toluene (Liquid mixture 1); method: Chromatography
Mole fraction of .gamma.-valerolactone	Mole fraction of toluene	uncertainty	Mole fraction of .gamma.-valerolactone	uncertainty	Mole fraction of toluene	uncertainty
0.972	0		0.027	0.002	0	
0.911	0.056	0.003	0.044	0.002	0.089	
0.842	0.116	0.003	0.061	0.002	0.178	
0.787	0.162	0.003	0.078	0.002	0.237	
0.714	0.219	0.003	0.108	0.003	0.305	
0.63	0.278	0.003	0.155	0.004	0.355	
0.496	0.343	0.003	0.27	0.008	0.388	

System: .gamma.-valerolactone + toluene + dodecane; phases: Liquid mixture 2, Liquid mixture 1
Fixed: Temperature, K = 298.15
Fixed: Pressure, kPa = 100
Property: Mole fraction of toluene (Liquid mixture 2); method: Chromatography
Property: Mole fraction of .gamma.-valerolactone (Liquid mixture 1); method: Chromatography
Property: Mole fraction of toluene (Liquid mixture 1); method: Chromatography
Mole fraction of .gamma.-valerolactone	Mole fraction of toluene	uncertainty	Mole fraction of .gamma.-valerolactone	uncertainty	Mole fraction of toluene	uncertainty
0.986	0		0.024	0.002	0	
0.939	0.043	0.003	0.04	0.002	0.077	
0.871	0.105	0.003	0.054	0.002	0.173	
0.801	0.167	0.003	0.071	0.002	0.259	
0.742	0.218	0.003	0.091	0.002	0.318	
0.677	0.27	0.003	0.118	0.003	0.373	
0.625	0.309	0.003	0.147	0.005	0.406	
0.48	0.392	0.004	0.263	0.006	0.446	

System: .gamma.-valerolactone + toluene + cyclohexane; phases: Liquid mixture 1, Liquid mixture 2
Fixed: Temperature, K = 298.15
Fixed: Pressure, kPa = 100
Property: Mole fraction of toluene (Liquid mixture 1); method: Chromatography
Property: Mole fraction of toluene (Liquid mixture 2); method: Chromatography
Property: Mole fraction of .gamma.-valerolactone (Liquid mixture 2); method: Chromatography
Mole fraction of .gamma.-valerolactone	Mole fraction of toluene	uncertainty	Mole fraction of toluene	uncertainty	Mole fraction of .gamma.-valerolactone	uncertainty
0.036	0		0		0.79	
0.066	0.047	0.004	0.045	0.002	0.715	
0.08	0.067	0.003	0.065	0.002	0.672	
0.115	0.101	0.003	0.092	0.002	0.636	
0.146	0.121	0.002	0.115	0.002	0.57	
0.209	0.141	0.002	0.13	0.002	0.514	
0.266	0.149	0.002	0.139	0.002	0.461	

System: .gamma.-valerolactone + heptane; phases: Liquid mixture 2, Liquid mixture 1
Property: Mole fraction of .gamma.-valerolactone (Liquid mixture 2); method: Chromatography
Temperature, K	Pressure, kPa	Mole fraction of .gamma.-valerolactone	uncertainty
298.15	100	0.926	0.002

System: .gamma.-valerolactone + heptane; phases: Liquid mixture 1, Liquid mixture 2
Property: Mole fraction of .gamma.-valerolactone (Liquid mixture 1); method: Chromatography
Temperature, K	Pressure, kPa	Mole fraction of .gamma.-valerolactone	uncertainty
298.15	100	0.033	0.002

System: .gamma.-valerolactone + decane; phases: Liquid mixture 2, Liquid mixture 1
Property: Mole fraction of .gamma.-valerolactone (Liquid mixture 2); method: Chromatography
Temperature, K	Pressure, kPa	Mole fraction of .gamma.-valerolactone	uncertainty
298.15	100	0.972	0.002

System: .gamma.-valerolactone + decane; phases: Liquid mixture 1, Liquid mixture 2
Property: Mole fraction of .gamma.-valerolactone (Liquid mixture 1); method: Chromatography
Temperature, K	Pressure, kPa	Mole fraction of .gamma.-valerolactone	uncertainty
298.15	100	0.027	0.002

System: .gamma.-valerolactone + dodecane; phases: Liquid mixture 2, Liquid mixture 1
Property: Mole fraction of .gamma.-valerolactone (Liquid mixture 2); method: Chromatography
Temperature, K	Pressure, kPa	Mole fraction of .gamma.-valerolactone	uncertainty
298.15	100	0.986	0.002

System: .gamma.-valerolactone + dodecane; phases: Liquid mixture 1, Liquid mixture 2
Property: Mole fraction of .gamma.-valerolactone (Liquid mixture 1); method: Chromatography
Temperature, K	Pressure, kPa	Mole fraction of .gamma.-valerolactone	uncertainty
298.15	100	0.024	0.002

System: .gamma.-valerolactone + cyclohexane; phases: Liquid mixture 2, Liquid mixture 1
Property: Mole fraction of .gamma.-valerolactone (Liquid mixture 2); method: Chromatography
Temperature, K	Pressure, kPa	Mole fraction of .gamma.-valerolactone	uncertainty
298.15	100	0.79	0.003

System: .gamma.-valerolactone + cyclohexane; phases: Liquid mixture 1, Liquid mixture 2
Property: Mole fraction of .gamma.-valerolactone (Liquid mixture 1); method: Chromatography
Temperature, K	Pressure, kPa	Mole fraction of .gamma.-valerolactone	uncertainty
298.15	100	0.036	0.002
