Measured thermophysical data. Density Measurements of Methane + Propane Mixtures at Temperatures between (256 and 422) K and Pressures from (24 to 35) MPa
Source: J. Chem. Eng. Data, 2016, 10.1021/acs.jced.6b00131
Compound 1: methane, CH4, InChI=1S/CH4/h1H4, purity 99.995%
Compound 2: propane, C3H8, InChI=1S/C3H8/c1-3-2/h3H2,1-2H3, purity 99.99%

System: methane + propane; phases: Fluid (supercritical or subcritical phases)
Property: Mass density, kg/m3 (Fluid (supercritical or subcritical phases)); method: Buoyancy - hydrostatic balance with magnetic suspension - one sinker
Temperature, K	Pressure, kPa	Mole fraction of methane	Mass density, kg/m3	uncertainty
256.1	34790	0.9472	305.13	1.14
256.08	34782	0.9472	305.07	1.14
256.05	30715	0.9472	293.25	1.23
256.05	30717	0.9472	293.28	1.23
255.98	27954	0.9472	283.87	1.27
255.96	27952	0.9472	283.84	1.27
256	25850	0.9472	275.51	1.35
256.01	25854	0.9472	275.52	1.35
255.99	23936	0.9472	267.07	1.38
255.97	23939	0.9472	267.09	1.38
255.98	21976	0.9472	257.11	1.47
255.96	21979	0.9472	257.16	1.47
311	34522	0.9472	242.27	0.94
311.06	34790	0.9472	243.21	0.94
311.05	30918	0.9472	227.93	0.99
311.04	30914	0.9472	227.92	0.99
311.04	27860	0.9472	213.84	1
311.06	27854	0.9472	213.79	1
311.08	25989	0.9472	204.11	1.01
311.05	25971	0.9472	204.02	1.01
311.05	23863	0.9472	191.97	1.01
311.04	23866	0.9472	191.99	1.01
311.07	24045	0.9472	193.05	1.01
366.4	34566	0.9472	195.8	0.75
366.39	34564	0.9472	195.79	0.75
366.32	30932	0.9472	180.96	0.71
366.31	30931	0.9472	180.97	0.71
366.35	28053	0.9472	167.89	0.65
366.36	28052	0.9472	167.87	0.65
366.46	26000	0.9472	157.8	0.64
366.47	26003	0.9472	157.81	0.64
366.48	24052	0.9472	147.71	0.62
366.48	24052	0.9472	147.71	0.62
421.52	34606	0.9472	163.74	0.65
421.52	34605	0.9472	163.75	0.65
421.54	30990	0.9472	150.13	0.61
421.54	30989	0.9472	150.13	0.61
421.46	27834	0.9472	137.39	0.57
421.44	27830	0.9472	137.38	0.57
421.46	25835	0.9472	128.88	0.51
421.47	25833	0.9472	128.86	0.51
421.47	23902	0.9472	120.35	0.46
421.48	23902	0.9472	120.33	0.46
256.21	34785	0.8924	331.89	1.11
256.21	34766	0.8924	331.87	1.11
256.18	31147	0.8924	322.21	1.22
256.2	31084	0.8924	322.04	1.22
256.22	28086	0.8924	312.72	1.28
256.22	28065	0.8924	312.68	1.28
256.24	26025	0.8924	305.45	1.38
256.21	26021	0.8924	305.48	1.38
256.21	24012	0.8924	297.5	1.4
256.24	24004	0.8924	297.39	1.4
309.42	34880	0.8924	270.34	1.02
309.25	31028	0.8924	255.66	1.05
309.24	31031	0.8924	255.61	1.05
309.25	28004	0.8924	241.88	1.11
309.29	28018	0.8924	241.9	1.11
309.16	26102	0.8924	232.17	1.13
309.17	26097	0.8924	232.15	1.13
367.8	34716	0.8924	215.64	0.79
367.77	34715	0.8924	215.72	0.79
366.36	30973	0.8924	200.86	0.78
366.34	30963	0.8924	200.84	0.78
366.24	28061	0.8924	187.06	0.95
366.24	28085	0.8924	187.16	0.74
365.85	25963	0.8924	176.42	0.75
365.83	25963	0.8924	176.42	0.75
366.16	23804	0.8924	164.05	0.82
366.2	23816	0.8924	164.1	0.63
421.9	34972	0.8924	181.45	0.9
421.94	34955	0.8924	181.39	0.9
421.89	30827	0.8924	164.82	0.55
421.88	30808	0.8924	164.75	0.55
421.78	27956	0.8924	152.32	0.61
421.77	27951	0.8924	152.3	0.61
421.62	26103	0.8924	143.85	0.57
421.61	26095	0.8924	143.81	0.57
421.43	23987	0.8924	133.76	0.54
421.45	23987	0.8924	133.73	0.54
