Measured thermophysical data. Experimental and Correlated Liquid-Liquid Equilibrium Data for Ternary Systems (Water + Poly(oxymethylene) Dimethyl Ethers + Toluene) at T = 293.15 and 303.15 K and p = 101.3 kPa
Source: J. Chem. Eng. Data, 2019, 10.1021/acs.jced.9b00653
Compound 1: toluene, C7H8, InChI=1S/C7H8/c1-7-5-3-2-4-6-7/h2-6H,1H3, purity 99.5%
Compound 2: dimethoxymethane, C3H8O2, InChI=1S/C3H8O2/c1-4-3-5-2/h3H2,1-2H3, purity 98%
Compound 3: 2,4,6-trioxaheptane, C4H10O3, InChI=1S/C4H10O3/c1-5-3-7-4-6-2/h3-4H2,1-2H3, purity 95%
Compound 4: 2,4,6,8-tetraoxanonane, C5H12O4, InChI=1S/C5H12O4/c1-6-3-8-5-9-4-7-2/h3-5H2,1-2H3, purity 95%
Compound 5: 2,4,6,8,10-pentaoxaundecane, C6H14O5, InChI=1S/C6H14O5/c1-7-3-9-5-11-6-10-4-8-2/h3-6H2,1-2H3, purity 95%
Compound 6: water, H2O, InChI=1S/H2O/h1H2, purity 99.9%

System: water + dimethoxymethane + toluene; phases: Liquid mixture 2, Liquid mixture 1
Fixed: Pressure, kPa = 101.3
Property: Mass fraction of toluene (Liquid mixture 2); method: Chromatography
Property: Mass fraction of toluene (Liquid mixture 1); method: Chromatography
Property: Mass fraction of dimethoxymethane (Liquid mixture 1); method: Chromatography
Temperature, K	Mass fraction of dimethoxymethane	Mass fraction of toluene	uncertainty	Mass fraction of toluene	uncertainty	Mass fraction of dimethoxymethane	uncertainty
293.15	0.0354	0.0005	0.0005	0.894	0.0036	0.1045	
293.15	0.0433	0.0006	0.0006	0.8619	0.0037	0.1354	
293.15	0.0604	0.0008	0.0008	0.8115	0.0038	0.1824	
293.15	0.0917	0.001	0.001	0.6937	0.0041	0.2978	
293.15	0.1348	0.0013	0.0012	0.5456	0.0049	0.4384	
293.15	0.1643	0.0015	0.0012	0.4559	0.005	0.5196	
303.15	0.078	0.001	0.001	0.7272	0.004	0.2642	
303.15	0.0908	0.0012	0.0012	0.686	0.0042	0.3037	
303.15	0.1043	0.0013	0.0012	0.6282	0.0044	0.3575	
303.15	0.1274	0.0014	0.0012	0.5421	0.0049	0.4405	
303.15	0.1536	0.0017	0.0012	0.4492	0.005	0.5251	
303.15	0.1807	0.0021	0.0012	0.3435	0.0045	0.6191	

System: water + 2,4,6-trioxaheptane + toluene; phases: Liquid mixture 1, Liquid mixture 2
Fixed: Pressure, kPa = 101.3
Property: Mass fraction of toluene (Liquid mixture 1); method: Chromatography
Property: Mass fraction of toluene (Liquid mixture 2); method: Chromatography
Property: Mass fraction of 2,4,6-trioxaheptane (Liquid mixture 2); method: Chromatography
Temperature, K	Mass fraction of 2,4,6-trioxaheptane	Mass fraction of toluene	uncertainty	Mass fraction of toluene	uncertainty	Mass fraction of 2,4,6-trioxaheptane	uncertainty
293.15	0.0657	0.0005	0.0005	0.8379	0.0038	0.1596	
293.15	0.0694	0.0005	0.0005	0.8296	0.0038	0.1673	
293.15	0.0772	0.0006	0.0006	0.8145	0.0038	0.1815	
293.15	0.093	0.0008	0.0008	0.775	0.0039	0.2191	
293.15	0.1179	0.0009	0.0009	0.7066	0.0041	0.2845	
293.15	0.1341	0.001	0.001	0.6486	0.0044	0.3396	
303.15	0.0588	0.0005	0.0005	0.8403	0.0037	0.1541	
303.15	0.0681	0.0007	0.0007	0.8005	0.0038	0.193	
303.15	0.0811	0.0009	0.0009	0.7675	0.0039	0.2237	
303.15	0.0943	0.001	0.001	0.7105	0.0041	0.2792	
303.15	0.1135	0.0012	0.0012	0.6419	0.0044	0.3446	
303.15	0.1283	0.0014	0.0012	0.5833	0.0047	0.3995	

System: water + 2,4,6,8-tetraoxanonane + toluene; phases: Liquid mixture 1, Liquid mixture 2
Fixed: Pressure, kPa = 101.3
Property: Mass fraction of toluene (Liquid mixture 1); method: Chromatography
Property: Mass fraction of toluene (Liquid mixture 2); method: Chromatography
Property: Mass fraction of 2,4,6,8-tetraoxanonane (Liquid mixture 2); method: Chromatography
Temperature, K	Mass fraction of 2,4,6,8-tetraoxanonane	Mass fraction of toluene	uncertainty	Mass fraction of toluene	uncertainty	Mass fraction of 2,4,6,8-tetraoxanonane	uncertainty
293.15	0.0756	0.0004	0.0004	0.6738	0.0042	0.3193	
293.15	0.0912	0.0005	0.0005	0.6118	0.0045	0.3791	
293.15	0.1061	0.0006	0.0006	0.513	0.005	0.4735	
293.15	0.1344	0.0008	0.0008	0.4245	0.0047	0.558	
293.15	0.1514	0.0009	0.0009	0.3584	0.0045	0.6207	
293.15	0.161	0.001	0.001	0.3162	0.0044	0.6581	
303.15	0.0684	0.0006	0.0006	0.7086	0.0042	0.2825	
303.15	0.0742	0.0006	0.0006	0.6719	0.0043	0.3166	
303.15	0.0901	0.0009	0.0009	0.6163	0.0045	0.3689	
303.15	0.109	0.0012	0.0012	0.5155	0.005	0.4672	
303.15	0.1391	0.0014	0.0012	0.4137	0.0047	0.5627	
303.15	0.1445	0.0015	0.0012	0.3641	0.0045	0.6077	

System: water + 2,4,6,8,10-pentaoxaundecane + toluene; phases: Liquid mixture 1, Liquid mixture 2
Fixed: Pressure, kPa = 101.3
Property: Mass fraction of toluene (Liquid mixture 1); method: Chromatography
Property: Mass fraction of toluene (Liquid mixture 2); method: Chromatography
Property: Mass fraction of 2,4,6,8,10-pentaoxaundecane (Liquid mixture 2); method: Chromatography
Temperature, K	Mass fraction of 2,4,6,8,10-pentaoxaundecane	Mass fraction of toluene	uncertainty	Mass fraction of toluene	uncertainty	Mass fraction of 2,4,6,8,10-pentaoxaundecane	uncertainty
293.15	0.0606	0.0003	0.0003	0.7224	0.0041	0.2723	
293.15	0.0695	0.0004	0.0004	0.6786	0.0043	0.3132	
293.15	0.0762	0.0005	0.0005	0.6335	0.0044	0.3558	
293.15	0.0977	0.0007	0.0007	0.5298	0.0049	0.4564	
293.15	0.1115	0.0008	0.0008	0.4605	0.0049	0.5239	
293.15	0.1298	0.0009	0.0009	0.3753	0.0044	0.6058	
303.15	0.0551	0.0004	0.0004	0.7331	0.0042	0.2603	
303.15	0.0632	0.0005	0.0005	0.6835	0.0042	0.3053	
303.15	0.0693	0.0005	0.0005	0.6112	0.0045	0.3757	
303.15	0.0888	0.0006	0.0006	0.5305	0.0049	0.4533	
303.15	0.1014	0.0008	0.0008	0.4313	0.0048	0.5482	
303.15	0.118	0.0011	0.0011	0.376	0.0047	0.596	
