Measured thermophysical data. Separation of Alkylbenzenes from n-Heptane Using Binary Mixtures of Ionic Solvents
Source: J. Chem. Eng. Data, 2019, 10.1021/acs.jced.8b01100
Compound 1: heptane, C7H16, InChI=1S/C7H16/c1-3-5-7-6-4-2/h3-7H2,1-2H3, purity 99.7%
Compound 2: 1-octyl-3-methylimidazolium hexafluorophosphate, C12H23F6N2P, InChI=1S/C12H23N2.F6P/c1-3-4-5-6-7-8-9-14-11-10-13(2)12-14;1-7(2,3,4,5)6/h10-12H,3-9H2,1-2H3;/q+1;-1, purity 99%
Compound 3: 1-ethyl-3-methylimidazolium methylsulfate, C7H14N2O4S, InChI=1S/C6H11N2.CH4O4S/c1-3-8-5-4-7(2)6-8;1-5-6(2,3)4/h4-6H,3H2,1-2H3;1H3,(H,2,3,4)/q+1;/p-1, purity 99%
Compound 4: 1,4-dimethylbenzene, C8H10, InChI=1S/C8H10/c1-7-3-5-8(2)6-4-7/h3-6H,1-2H3, purity 99.5%

System: heptane + 1-octyl-3-methylimidazolium hexafluorophosphate + 1-ethyl-3-methylimidazolium methylsulfate; phases: Liquid mixture 2, Liquid mixture 1
Property: Mole fraction of 1-octyl-3-methylimidazolium hexafluorophosphate (Liquid mixture 2); method: Chromatography
Property: Mole fraction of 1-octyl-3-methylimidazolium hexafluorophosphate (Liquid mixture 1); method: Chromatography
Property: Mole fraction of heptane (Liquid mixture 1); method: Chromatography
Temperature, K	Mole fraction of heptane	Pressure, kPa	Mole fraction of 1-octyl-3-methylimidazolium hexafluorophosphate	uncertainty	Mole fraction of 1-octyl-3-methylimidazolium hexafluorophosphate	uncertainty	Mole fraction of heptane	uncertainty
313.2	0.011	101	0.737	0.003	0		1	

System: heptane + 1,4-dimethylbenzene + 1-ethyl-3-methylimidazolium methylsulfate; phases: Liquid mixture 1, Liquid mixture 2
Property: Mole fraction of 1,4-dimethylbenzene (Liquid mixture 1); method: Chromatography
Property: Mole fraction of 1,4-dimethylbenzene (Liquid mixture 2); method: Chromatography
Property: Mole fraction of heptane (Liquid mixture 2); method: Chromatography
Temperature, K	Mole fraction of heptane	Pressure, kPa	Mole fraction of 1,4-dimethylbenzene	uncertainty	Mole fraction of 1,4-dimethylbenzene	uncertainty	Mole fraction of heptane	uncertainty
313	0.771	101	0.229	0.003	0.099	0.002	0.002	

System: heptane + 1,4-dimethylbenzene + 1-octyl-3-methylimidazolium hexafluorophosphate; phases: Liquid mixture 1, Liquid mixture 2
Property: Mole fraction of 1,4-dimethylbenzene (Liquid mixture 1); method: Chromatography
Property: Mole fraction of 1,4-dimethylbenzene (Liquid mixture 2); method: Chromatography
Property: Mole fraction of heptane (Liquid mixture 2); method: Chromatography
Temperature, K	Mole fraction of heptane	Pressure, kPa	Mole fraction of 1,4-dimethylbenzene	uncertainty	Mole fraction of 1,4-dimethylbenzene	uncertainty	Mole fraction of heptane	uncertainty
313	0.773	101	0.227	0.003	0.152	0.002	0.011	
