Measured thermophysical data. Solubility of Ionic Liquid [Bmim]Ac in Supercritical CO2 Containing Different Cosolvents
Source: J. Chem. Eng. Data, 2018, 10.1021/acs.jced.7b01108
Compound 1: carbon dioxide, CO2, InChI=1S/CO2/c2-1-3, purity 99.9%
Compound 2: 1-butyl-3-methylimidazolium acetate, C10H18N2O2, InChI=1S/C8H15N2.C2H4O2/c1-3-4-5-10-7-6-9(2)8-10;1-2(3)4/h6-8H,3-5H2,1-2H3;1H3,(H,3,4)/q+1;/p-1, purity 98%
Compound 3: 1-butyl-3-methylimidazolium hexafluorophosphate, C8H15F6N2P, InChI=1S/C8H15N2.F6P/c1-3-4-5-10-7-6-9(2)8-10;1-7(2,3,4,5)6/h6-8H,3-5H2,1-2H3;/q+1;-1, purity 98%
Compound 4: ethanol, C2H6O, InChI=1S/C2H6O/c1-2-3/h3H,2H2,1H3, purity 99.7%
Compound 5: acetone, C3H6O, InChI=1S/C3H6O/c1-3(2)4/h1-2H3, purity 99.7%
Compound 6: dimethyl sulfoxide, C2H6OS, InChI=1S/C2H6OS/c1-4(2)3/h1-2H3, purity 99.7%
Compound 7: acetonitrile, C2H3N, InChI=1S/C2H3N/c1-2-3/h1H3, purity 99.7%

System: 1-butyl-3-methylimidazolium hexafluorophosphate + ethanol + carbon dioxide; phases: Fluid (supercritical or subcritical phases), Liquid
Fixed: Temperature, K = 313.15
Property: Vapor or sublimation pressure, kPa (Fluid (supercritical or subcritical phases)); method: Closed cell (Static) method
Mole fraction of ethanol	Mole fraction of 1-butyl-3-methylimidazolium hexafluorophosphate	Vapor or sublimation pressure, kPa	uncertainty
0	1.8e-07	12000	770
0.085	6.26e-06	12000	770
0.113	1.5e-05	12050	770
0.165	5.07e-05	12100	780
0.254	0.000219	12110	780

System: 1-butyl-3-methylimidazolium acetate + ethanol + carbon dioxide; phases: Fluid (supercritical or subcritical phases), Liquid
Property: Vapor or sublimation pressure, kPa (Fluid (supercritical or subcritical phases)); method: Closed cell (Static) method
Temperature, K	Mole fraction of ethanol	Mole fraction of 1-butyl-3-methylimidazolium acetate	Vapor or sublimation pressure, kPa	uncertainty
313.15	0.125	3.433e-05	10100	650
313.15	0.125	3.742e-05	11600	740
313.15	0.125	4.073e-05	12480	800
313.15	0.125	4.392e-05	13520	870
313.15	0.155	6.976e-05	10210	650
313.15	0.155	7.332e-05	11660	750
313.15	0.155	7.725e-05	12540	800
313.15	0.155	8.1e-05	13600	870
313.15	0.18	0.0001205	10430	670
313.15	0.18	0.00012448	11860	760
313.15	0.18	0.00012904	12690	810
313.15	0.18	0.00013342	13670	880
313.15	0.21	0.00017593	11160	720
313.15	0.21	0.00018654	12690	810
313.15	0.21	0.00019791	13520	870
313.15	0.21	0.00020932	14250	910
313.15	0.24	0.00028499	11320	730
313.15	0.24	0.00030456	12340	790
313.15	0.24	0.00032361	13560	870
313.15	0.24	0.00033593	14520	930
323.15	0.135	3.698e-05	10240	660
323.15	0.135	4.008e-05	11740	750
323.15	0.135	4.35e-05	12620	810
323.15	0.135	4.675e-05	13660	880
323.15	0.165	7.434e-05	10340	660
323.15	0.165	7.784e-05	11790	760
323.15	0.165	8.183e-05	12680	810
323.15	0.165	8.561e-05	13740	880
323.15	0.19	0.00012748	10520	670
323.15	0.19	0.00013132	11950	770
323.15	0.19	0.00013598	12740	820
323.15	0.19	0.00014045	13660	880
323.15	0.22	0.00018521	11050	710
323.15	0.22	0.00019566	12760	820
323.15	0.22	0.00020741	13550	870
323.15	0.22	0.00021907	14340	920
323.15	0.25	0.00029853	11290	720
323.15	0.25	0.00031845	12400	790
323.15	0.25	0.00033808	13540	870
323.15	0.25	0.00035049	14550	930
333.15	0.145	4.044e-05	10170	650
333.15	0.145	4.351e-05	11670	750
333.15	0.145	4.703e-05	12550	800
333.15	0.145	5.034e-05	13590	870
333.15	0.175	8.01e-05	10280	660
333.15	0.175	8.345e-05	11720	750
333.15	0.175	8.75e-05	12610	810
333.15	0.175	9.126e-05	13670	880
333.15	0.205	0.00013598	10410	670
333.15	0.205	0.00013955	11880	760
333.15	0.205	0.00014409	12760	820
333.15	0.205	0.00014869	13590	870
333.15	0.23	0.00019567	11070	710
333.15	0.23	0.00020622	12720	820
333.15	0.23	0.0002181	13630	870
333.15	0.23	0.00023028	14330	920
333.15	0.26	0.0003148	10900	700
333.15	0.26	0.00033412	12410	800
333.15	0.26	0.00035407	13610	870
333.15	0.26	0.00036681	14550	930

System: 1-butyl-3-methylimidazolium acetate + acetone + carbon dioxide; phases: Fluid (supercritical or subcritical phases), Liquid
Property: Vapor or sublimation pressure, kPa (Fluid (supercritical or subcritical phases)); method: Closed cell (Static) method
Temperature, K	Mole fraction of acetone	Mole fraction of 1-butyl-3-methylimidazolium acetate	Vapor or sublimation pressure, kPa	uncertainty
313.15	0.155	9.49e-06	10900	700
313.15	0.155	1.049e-05	12430	800
313.15	0.155	1.149e-05	13880	890
313.15	0.185	2.002e-05	9660	620
313.15	0.185	1.972e-05	11140	710
313.15	0.185	2.377e-05	12690	810
313.15	0.185	2.681e-05	14150	910
313.15	0.195	3.373e-05	9790	630
313.15	0.195	3.846e-05	11140	710
313.15	0.195	4.383e-05	12500	800
313.15	0.195	4.798e-05	14840	950
313.15	0.21	5.544e-05	10870	700
313.15	0.21	6.268e-05	12090	770
313.15	0.21	6.981e-05	13310	850
313.15	0.21	7.664e-05	14830	950
323.15	0.17	1.036e-05	10540	680
323.15	0.17	1.139e-05	12080	770
323.15	0.17	1.24e-05	13510	870
323.15	0.2	2.18e-05	9280	590
323.15	0.2	2.613e-05	10780	690
323.15	0.2	2.927e-05	12340	790
323.15	0.2	3.237e-05	13790	880
323.15	0.21	4.218e-05	9550	610
323.15	0.21	4.783e-05	10900	700
323.15	0.21	5.252e-05	12310	790
323.15	0.21	5.356e-05	14520	930
323.15	0.225	5.971e-05	10490	670
323.15	0.225	6.728e-05	11730	750
323.15	0.225	7.47e-05	12960	830
323.15	0.225	8.174e-05	14470	930
333.15	0.18	1.113e-05	10180	650
333.15	0.18	1.217e-05	11720	750
333.15	0.18	1.321e-05	13140	840
333.15	0.21	2.325e-05	8900	570
333.15	0.21	2.775e-05	10420	670
333.15	0.21	3.097e-05	11990	770
333.15	0.21	3.416e-05	13420	860
333.15	0.22	4.453e-05	9480	610
333.15	0.22	5.036e-05	10840	690
333.15	0.22	5.514e-05	12280	790
333.15	0.22	5.621e-05	14240	910
333.15	0.235	6.294e-05	10110	650
333.15	0.235	7.074e-05	11370	730
333.15	0.235	7.838e-05	12610	810
333.15	0.235	8.56e-05	14100	900

System: 1-butyl-3-methylimidazolium acetate + dimethyl sulfoxide + carbon dioxide; phases: Fluid (supercritical or subcritical phases), Liquid
Property: Vapor or sublimation pressure, kPa (Fluid (supercritical or subcritical phases)); method: Closed cell (Static) method
Temperature, K	Mole fraction of dimethyl sulfoxide	Mole fraction of 1-butyl-3-methylimidazolium acetate	Vapor or sublimation pressure, kPa	uncertainty
313.15	0.105	1.89e-06	9930	640
313.15	0.105	3.74e-06	11170	720
313.15	0.105	5.54e-06	12450	800
313.15	0.105	7.31e-06	13720	880
313.15	0.13	1.404e-05	10010	640
313.15	0.13	1.855e-05	11170	720
313.15	0.13	2.295e-05	12510	800
313.15	0.13	2.729e-05	13790	880
313.15	0.155	5.04e-05	10080	650
313.15	0.155	5.554e-05	11340	730
313.15	0.155	6.059e-05	12640	810
313.15	0.155	6.561e-05	13860	890
313.15	0.18	9.819e-05	10290	660
313.15	0.18	0.000104	11560	740
313.15	0.18	0.00010972	12870	820
313.15	0.18	0.00011544	14100	900
313.15	0.21	0.00015057	10570	680
313.15	0.21	0.00016461	11850	760
313.15	0.21	0.00017848	13170	840
313.15	0.21	0.00019228	14420	920
323.15	0.11	2e-06	9690	620
323.15	0.11	3.94e-06	11050	710
323.15	0.11	5.83e-06	12310	790
323.15	0.11	7.66e-06	13620	870
323.15	0.135	1.471e-05	9920	640
323.15	0.135	1.937e-05	11280	720
323.15	0.135	2.396e-05	12430	800
323.15	0.135	2.844e-05	13740	880
323.15	0.16	5.248e-05	10050	640
323.15	0.16	5.775e-05	11320	730
323.15	0.16	6.293e-05	12600	810
323.15	0.16	6.807e-05	13830	890
323.15	0.185	0.00010182	10260	660
323.15	0.185	0.00010774	11520	740
323.15	0.185	0.00011354	12860	820
323.15	0.185	0.00011935	14080	900
323.15	0.215	0.00015564	10550	680
323.15	0.215	0.00017005	11790	760
323.15	0.215	0.00018417	13170	840
323.15	0.215	0.00019828	14410	920
333.15	0.115	2.13e-06	9660	620
333.15	0.115	4.2e-06	11030	710
333.15	0.115	6.2e-06	12340	790
333.15	0.115	8.15e-06	13640	870
333.15	0.14	1.555e-05	9830	630
333.15	0.14	2.048e-05	11130	710
333.15	0.14	2.53e-05	12430	800
333.15	0.14	3.001e-05	13720	880
333.15	0.17	5.51e-05	10030	640
333.15	0.17	6.063e-05	11300	720
333.15	0.17	6.605e-05	12580	810
333.15	0.17	7.139e-05	13800	880
333.15	0.2	0.00010639	10230	660
333.15	0.2	0.00011255	11500	740
333.15	0.2	0.00011857	12830	820
333.15	0.2	0.00012455	14060	900
333.15	0.225	0.00016195	10540	680
333.15	0.225	0.00017693	11770	750
333.15	0.225	0.00019156	13140	840
333.15	0.225	0.00020611	14380	920

System: 1-butyl-3-methylimidazolium acetate + acetonitrile + 1-butyl-3-methylimidazolium hexafluorophosphate; phases: Fluid (supercritical or subcritical phases), Liquid
Property: Vapor or sublimation pressure, kPa (Fluid (supercritical or subcritical phases)); method: Closed cell (Static) method
Temperature, K	Mole fraction of acetonitrile	Mole fraction of 1-butyl-3-methylimidazolium acetate	Vapor or sublimation pressure, kPa	uncertainty
313.15	0.15	2.06e-06	9670	1060
313.15	0.15	4e-06	11320	920
313.15	0.15	5.91e-06	12310	800
313.15	0.15	7.77e-06	13260	820
313.15	0.185	1.503e-05	10170	740
313.15	0.185	1.965e-05	11620	730
313.15	0.185	2.43e-05	12500	700
313.15	0.185	2.88e-05	13570	770
313.15	0.22	5.338e-05	10390	1450
313.15	0.22	5.838e-05	11830	1240
313.15	0.22	6.367e-05	12660	1070
313.15	0.22	6.879e-05	13630	1330
313.15	0.255	0.00010246	11120	1990
313.15	0.255	0.00010777	12660	1560
313.15	0.255	0.0001137	13480	1310
313.15	0.255	0.00011966	14210	1280
313.15	0.29	0.00015569	11290	1060
313.15	0.29	0.00016988	12310	1140
313.15	0.29	0.00018363	13520	750
313.15	0.29	0.00019757	14480	740
323.15	0.165	2.29e-06	9310	1010
323.15	0.165	4.41e-06	10970	860
323.15	0.165	6.47e-06	11940	770
323.15	0.165	8.47e-06	12880	790
323.15	0.205	1.642e-05	9810	700
323.15	0.205	2.134e-05	11270	690
323.15	0.205	2.63e-05	12140	660
323.15	0.205	3.105e-05	13190	730
323.15	0.24	5.765e-05	10030	1590
323.15	0.24	6.275e-05	11480	1320
323.15	0.24	6.828e-05	12290	1110
323.15	0.24	7.358e-05	13260	1400
323.15	0.275	0.00010955	10770	2200
323.15	0.275	0.00011481	12300	1680
323.15	0.275	0.00012092	13120	1370
323.15	0.275	0.00012708	13830	1320
323.15	0.31	0.0001654	10930	1130
323.15	0.31	0.00018012	11960	1200
323.15	0.31	0.00019431	13160	740
323.15	0.31	0.00020875	14100	720
333.15	0.185	2.58e-06	8950	1300
333.15	0.185	4.89e-06	10620	1070
333.15	0.185	7.14e-06	11580	910
333.15	0.185	9.29e-06	12500	930
333.15	0.22	1.798e-05	9460	810
333.15	0.22	2.324e-05	10920	760
333.15	0.22	2.855e-05	11770	720
333.15	0.22	3.359e-05	12810	800
333.15	0.255	6.258e-05	9680	1750
333.15	0.255	6.771e-05	11120	1420
333.15	0.255	7.347e-05	11920	1170
333.15	0.255	7.894e-05	12880	1490
333.15	0.29	0.00011757	10410	2510
333.15	0.29	0.00012265	11950	1830
333.15	0.29	0.00012892	12750	1290
333.15	0.29	0.00013528	13460	1260
333.15	0.33	0.00017632	10570	1070
333.15	0.33	0.00019154	11610	1140
333.15	0.33	0.00020613	12790	1140
333.15	0.33	0.00022106	13720	710

System: 1-butyl-3-methylimidazolium hexafluorophosphate + carbon dioxide; phases: Fluid (supercritical or subcritical phases), Liquid
Property: Vapor or sublimation pressure, kPa (Fluid (supercritical or subcritical phases)); method: Closed cell (Static) method
Mole fraction of 1-butyl-3-methylimidazolium hexafluorophosphate	Temperature, K	Vapor or sublimation pressure, kPa	uncertainty
1.8e-07	313.15	12000	770
