Measured thermophysical data. Liquid-Liquid Equilibria for Ternary Mixtures of gamma-Valerolactone + n-Tetradecane + (Butanoic Acid or Hexanoic Acid or Methyl Myristate) at 298.15 K
Source: J. Chem. Eng. Data, 2019, 10.1021/acs.jced.8b01025
Compound 1: .gamma.-valerolactone, C5H8O2, InChI=1S/C5H8O2/c1-4-2-3-5(6)7-4/h4H,2-3H2,1H3, purity 99%
Compound 2: tetradecane, C14H30, InChI=1S/C14H30/c1-3-5-7-9-11-13-14-12-10-8-6-4-2/h3-14H2,1-2H3, purity 99%
Compound 3: butanoic acid, C4H8O2, InChI=1S/C4H8O2/c1-2-3-4(5)6/h2-3H2,1H3,(H,5,6), purity 99%
Compound 4: hexanoic acid, C6H12O2, InChI=1S/C6H12O2/c1-2-3-4-5-6(7)8/h2-5H2,1H3,(H,7,8), purity 99%
Compound 5: methyl tetradecanoate, C15H30O2, InChI=1S/C15H30O2/c1-3-4-5-6-7-8-9-10-11-12-13-14-15(16)17-2/h3-14H2,1-2H3, purity 98%

System: .gamma.-valerolactone; phases: Liquid
Property: Refractive index (Na D-line) (Liquid); method: Standard Abbe refractometry
Temperature, K	Pressure, kPa	Refractive index (Na D-line)	uncertainty
298.15	101.325	1.4312	0.0004

System: .gamma.-valerolactone; phases: Liquid
Property: Mass density, kg/m3 (Liquid); method: Vibrating tube method
Temperature, K	Pressure, kPa	Mass density, kg/m3	uncertainty
298.15	94.2	1049.25	2.02

System: tetradecane; phases: Liquid
Property: Refractive index (Na D-line) (Liquid); method: Standard Abbe refractometry
Temperature, K	Pressure, kPa	Refractive index (Na D-line)	uncertainty
298.15	101.325	1.4269	0.0004

System: tetradecane; phases: Liquid
Property: Mass density, kg/m3 (Liquid); method: Vibrating tube method
Temperature, K	Pressure, kPa	Mass density, kg/m3	uncertainty
298.15	94.2	759.38	2.01

System: butanoic acid; phases: Liquid
Property: Refractive index (Na D-line) (Liquid); method: Standard Abbe refractometry
Temperature, K	Pressure, kPa	Refractive index (Na D-line)	uncertainty
298.15	101.325	1.396	0.0004

System: butanoic acid; phases: Liquid
Property: Mass density, kg/m3 (Liquid); method: Vibrating tube method
Temperature, K	Pressure, kPa	Mass density, kg/m3	uncertainty
298.15	94.2	953.17	2.01

System: hexanoic acid; phases: Liquid
Property: Refractive index (Na D-line) (Liquid); method: Standard Abbe refractometry
Temperature, K	Pressure, kPa	Refractive index (Na D-line)	uncertainty
298.15	101.325	1.4147	0.0004

System: hexanoic acid; phases: Liquid
Property: Mass density, kg/m3 (Liquid); method: Vibrating tube method
Temperature, K	Pressure, kPa	Mass density, kg/m3	uncertainty
298.15	94.2	923.83	2.01

System: methyl tetradecanoate; phases: Liquid
Property: Refractive index (Na D-line) (Liquid); method: Standard Abbe refractometry
Temperature, K	Pressure, kPa	Refractive index (Na D-line)	uncertainty
298.15	101.325	1.4349	0.0005

System: methyl tetradecanoate; phases: Liquid
Property: Mass density, kg/m3 (Liquid); method: Vibrating tube method
Temperature, K	Pressure, kPa	Mass density, kg/m3	uncertainty
298.15	94.2	863.33	2.1

System: .gamma.-valerolactone + tetradecane + butanoic acid; phases: Liquid mixture 1, Liquid mixture 2
Fixed: Temperature, K = 298.15
Fixed: Pressure, kPa = 94.2
Property: Mass fraction of tetradecane (Liquid mixture 1); method: Titration method
Mass fraction of .gamma.-valerolactone	Mass fraction of tetradecane	uncertainty
0.0228	0.9043	0.037
0.023	0.9043	0.0375
0.03	0.8579	0.0636
0.0365	0.8557	0.0566
0.0454	0.7614	0.0528
0.0457	0.7575	0.0528
0.0721	0.6385	0.0341
0.0754	0.6417	0.0345
0.1208	0.5186	0.0283
0.1263	0.5111	0.0285
0.1761	0.4124	0.0251
0.1773	0.4091	0.0252
0.4338	0.1133	0.0146
0.4363	0.1113	0.0146
0.5137	0.0807	0.0108
0.514	0.0793	0.0108
0.5836	0.0601	0.0103
0.5855	0.0602	0.0103
0.7265	0.0378	0.0101
0.7292	0.0356	0.0101
0.8424	0.026	0.0101
0.8459	0.0248	0.01
0.8646	0.0242	0.01
0.9064	0.021	0.01

System: .gamma.-valerolactone + tetradecane + butanoic acid; phases: Liquid
Fixed: Temperature, K = 298.15
Fixed: Pressure, kPa = 94.2
Property: Mass density, kg/m3 (Liquid); method: Vibrating tube method
Mass fraction of .gamma.-valerolactone	Mass fraction of tetradecane	Mass density, kg/m3	uncertainty
0.0228	0.9043	774.11	2.01
0.023	0.9043	774.46	2.01
0.03	0.8579	781.86	2.01
0.0365	0.8557	783.03	2.01
0.0454	0.7614	798.34	2.01
0.0457	0.7575	799.11	2.01
0.0721	0.6385	821.1	2.01
0.0754	0.6417	820.9	2.01
0.1208	0.5186	847.28	2.01
0.1263	0.5111	849.67	2.01
0.1761	0.4124	873.33	2.11
0.1773	0.4091	870.03	10.02
0.4338	0.1133	966.07	2.02
0.4363	0.1113	967.22	2.02
0.5137	0.0807	982.55	2.02
0.514	0.0793	982.87	2.02
0.5836	0.0601	994.67	2.01
0.5855	0.0602	994.77	2.01
0.7265	0.0378	1015.27	2.02
0.7292	0.0356	1015.65	2.02
0.8424	0.026	1028.37	2.02
0.8459	0.0248	1028.8	2.02
0.8646	0.0242	1031.07	2.02
0.9064	0.021	1035.2	2.02

System: .gamma.-valerolactone + tetradecane + butanoic acid; phases: Liquid mixture 2, Liquid mixture 1
Fixed: Temperature, K = 298.15
Fixed: Pressure, kPa = 94.2
Property: Mass fraction of .gamma.-valerolactone (Liquid mixture 2); method: Density calibration data
Property: Mass fraction of tetradecane (Liquid mixture 1); method: Density calibration data
Property: Mass fraction of .gamma.-valerolactone (Liquid mixture 1); method: Density calibration data
Mass fraction of tetradecane	Mass fraction of .gamma.-valerolactone	uncertainty	Mass fraction of tetradecane	uncertainty	Mass fraction of .gamma.-valerolactone	uncertainty
0.763	0.045	0.01	0.0962	0.0106	0.471	
0.861	0.029	0.01	0.0484	0.0102	0.647	
0.813	0.036	0.01	0.0597	0.0105	0.591	
0.914	0.023	0.01	0.0406	0.0101	0.696	
0.953	0.02	0.01	0.0258	0.01	0.837	
0.947	0.021	0.01	0.0302	0.0101	0.785	
0.971	0.019	0.01	0.0215	0.01	0.9	
0.974	0.019	0.01	0.0191	0.01	0.949	

System: .gamma.-valerolactone + tetradecane + butanoic acid; phases: Liquid
Fixed: Temperature, K = 298.15
Fixed: Pressure, kPa = 94.2
Property: Mass density, kg/m3 (Liquid); method: Vibrating tube method
Mass fraction of .gamma.-valerolactone	Mass fraction of tetradecane	Mass density, kg/m3	uncertainty
0.045	0.763	799.1	2
0.029	0.861	778.71	2.01
0.036	0.813	784.56	2.01
0.023	0.914	773.55	2.01
0.02	0.953	766.08	2.01
0.021	0.947	768.17	2.01
0.019	0.971	763.91	2.01
0.019	0.974	762.98	2.01
0.471	0.0962	973.82	2.02
0.647	0.0484	1003.45	2.02
0.591	0.0597	994.27	2.02
0.696	0.0406	1009.64	2.02
0.837	0.0258	1026.55	2.02
0.785	0.0302	1021.58	2.02
0.9	0.0215	1033.11	2.02
0.949	0.0191	1038.23	2.02

System: .gamma.-valerolactone + tetradecane + hexanoic acid; phases: Liquid mixture 1, Liquid mixture 2
Fixed: Temperature, K = 298.15
Fixed: Pressure, kPa = 94.2
Property: Mass fraction of tetradecane (Liquid mixture 1); method: Titration method
Mass fraction of .gamma.-valerolactone	Mass fraction of tetradecane	uncertainty
0.0289	0.9122	0.046
0.0295	0.9119	0.0483
0.0397	0.8638	0.0432
0.0405	0.8641	0.0434
0.0755	0.7179	0.0394
0.0765	0.7179	0.0394
0.1014	0.6386	0.0312
0.1018	0.6383	0.0312
0.1319	0.5639	0.0251
0.1355	0.5599	0.0253
0.172	0.5001	0.0238
0.1754	0.4922	0.0241
0.5163	0.1295	0.0141
0.5167	0.1274	0.0141
0.6434	0.0756	0.0108
0.6444	0.0727	0.0108
0.7448	0.0473	0.0101
0.7603	0.0461	0.0103
0.7998	0.0375	0.0102
0.7999	0.0379	0.0102
0.8733	0.0273	0.0101
0.8735	0.0279	0.0101
0.9241	0.0224	0.0101
0.9256	0.022	0.0101

System: .gamma.-valerolactone + tetradecane + hexanoic acid; phases: Liquid
Fixed: Temperature, K = 298.15
Fixed: Pressure, kPa = 94.2
Property: Mass density, kg/m3 (Liquid); method: Vibrating tube method
Mass fraction of .gamma.-valerolactone	Mass fraction of tetradecane	Mass density, kg/m3	uncertainty
0.0289	0.9122	771.71	2.01
0.0295	0.9119	772.03	2.01
0.0397	0.8638	779.24	2.01
0.0405	0.8641	779.11	2.01
0.0755	0.7179	803.14	2.32
0.0765	0.7179	813.15	6.11
0.1014	0.6386	819.89	4.02
0.1018	0.6383	819.53	2.04
0.1319	0.5639	833.28	2.01
0.1355	0.5599	834.75	2.01
0.172	0.5001	848.77	10.03
0.1754	0.4922	856.19	4.06
0.5163	0.1295	956.94	2.02
0.5167	0.1274	956.78	2.02
0.6434	0.0756	984.83	2.02
0.6444	0.0727	985.28	2.02
0.7448	0.0473	1004.03	2.02
0.7603	0.0461	1006.74	2.02
0.7998	0.0375	1013.61	2.02
0.7999	0.0379	1013.83	2.02
0.8733	0.0273	1025.3	2.02
0.8735	0.0279	1025.54	2.02
0.9241	0.0224	1033.8	2.02
0.9256	0.022	1033.65	2.02

System: .gamma.-valerolactone + tetradecane + hexanoic acid; phases: Liquid
Fixed: Temperature, K = 298.15
Fixed: Pressure, kPa = 94.2
Property: Mass density, kg/m3 (Liquid); method: Vibrating tube method
Mass fraction of .gamma.-valerolactone	Mass fraction of tetradecane	Mass density, kg/m3	uncertainty
0.095	0.66	805.17	2.02
0.04	0.851	781.11	2.01
0.056	0.782	787	2.01
0.035	0.876	775.75	2.01
0.028	0.914	771.74	2.01
0.025	0.939	767.74	2.01
0.022	0.96	764.96	2.02
0.021	0.968	763.02	2.01
0.553	0.1104	964.87	2.02
0.697	0.0597	996.34	2.02
0.663	0.0692	987.9	2.02
0.751	0.0469	1004.89	2.02
0.792	0.039	1012.52	2.02
0.844	0.0311	1020.74	2.02
0.9	0.0246	1029.19	2.02
0.954	0.0197	1036.79	2.02

System: .gamma.-valerolactone + tetradecane + hexanoic acid; phases: Liquid mixture 1, Liquid mixture 2
Fixed: Temperature, K = 298.15
Fixed: Pressure, kPa = 94.2
Property: Mass fraction of tetradecane (Liquid mixture 1); method: Density calibration data
Property: Mass fraction of .gamma.-valerolactone (Liquid mixture 2); method: Density calibration data
Property: Mass fraction of tetradecane (Liquid mixture 2); method: Density calibration data
Mass fraction of .gamma.-valerolactone	Mass fraction of tetradecane	uncertainty	Mass fraction of .gamma.-valerolactone	uncertainty	Mass fraction of tetradecane	uncertainty
0.553	0.1104	0.0109	0.095	0.011	0.66	
0.697	0.0597	0.0104	0.04	0.01	0.851	
0.663	0.0692	0.0107	0.056	0.01	0.782	
0.751	0.0469	0.0103	0.035	0.01	0.876	
0.792	0.039	0.0102	0.028	0.01	0.914	
0.844	0.0311	0.0101	0.025	0.01	0.939	
0.9	0.0246	0.0101	0.022	0.01	0.96	
0.954	0.0197	0.01	0.021	0.01	0.968	

System: .gamma.-valerolactone + tetradecane + methyl tetradecanoate; phases: Liquid mixture 1, Liquid mixture 2
Fixed: Temperature, K = 298.15
Fixed: Pressure, kPa = 94.2
Property: Mass fraction of tetradecane (Liquid mixture 1); method: Titration method
Mass fraction of .gamma.-valerolactone	Mass fraction of tetradecane	uncertainty
0.0299	0.8712	0.0801
0.0305	0.8665	0.0801
0.0446	0.7545	0.0655
0.0448	0.7512	0.0655
0.0646	0.6447	0.0439
0.065	0.6448	0.044
0.0956	0.5366	0.0307
0.0956	0.5334	0.0307
0.1501	0.4195	0.0243
0.1506	0.4183	0.0243
0.1916	0.3589	0.018
0.1919	0.3591	0.018
0.2982	0.2515	0.0146
0.3007	0.2486	0.0146
0.3987	0.1941	0.0125
0.4026	0.1952	0.0125
0.5058	0.1439	0.0117
0.5092	0.1429	0.0117
0.6186	0.0987	0.011
0.6207	0.0987	0.011
0.7557	0.0547	0.0105
0.7558	0.0553	0.0105
0.8717	0.0311	0.0103
0.8719	0.0315	0.0102

System: .gamma.-valerolactone + tetradecane + methyl tetradecanoate; phases: Liquid
Fixed: Temperature, K = 298.15
Fixed: Pressure, kPa = 94.2
Property: Mass density, kg/m3 (Liquid); method: Vibrating tube method
Mass fraction of .gamma.-valerolactone	Mass fraction of tetradecane	Mass density, kg/m3	uncertainty
0.0299	0.8712	773.61	2.02
0.0305	0.8665	774.21	2.02
0.0446	0.7545	786.26	2.02
0.0448	0.7512	786.95	2.02
0.0646	0.6447	800.17	2.02
0.065	0.6448	800.25	2.02
0.0956	0.5366	815.26	2.03
0.0956	0.5334	816.13	2.03
0.1501	0.4195	835.52	2.04
0.1506	0.4183	835.94	2.04
0.1916	0.3589	848.54	2.03
0.1919	0.3591	848.47	2.03
0.2982	0.2515	877.57	2.04
0.3007	0.2486	878.28	2.04
0.3987	0.1941	901.43	2.07
0.4026	0.1952	905.35	6.02
0.5058	0.1439	926.76	2.03
0.5092	0.1429	927.53	2.03
0.6186	0.0987	953.43	2.03
0.6207	0.0987	953.91	2.03
0.7557	0.0547	986.61	2.03
0.7558	0.0553	986.69	2.03
0.8717	0.0311	1014.63	2.02
0.8719	0.0315	1015.03	2.02

System: .gamma.-valerolactone + tetradecane + methyl tetradecanoate; phases: Liquid mixture 2, Liquid mixture 1
Fixed: Temperature, K = 298.15
Fixed: Pressure, kPa = 94.2
Property: Mass fraction of .gamma.-valerolactone (Liquid mixture 2); method: Density calibration data
Property: Mass fraction of tetradecane (Liquid mixture 1); method: Density calibration data
Property: Mass fraction of .gamma.-valerolactone (Liquid mixture 1); method: Density calibration data
Mass fraction of tetradecane	Mass fraction of .gamma.-valerolactone	uncertainty	Mass fraction of tetradecane	uncertainty	Mass fraction of .gamma.-valerolactone	uncertainty
0.338	0.201	0.012	0.0517	0.0103	0.772	
0.592	0.081	0.011	0.0295	0.0102	0.886	
0.432	0.146	0.011	0.0394	0.0102	0.829	
0.668	0.059	0.01	0.0264	0.0101	0.907	
0.768	0.038	0.01	0.0228	0.0101	0.934	
0.863	0.027	0.01	0.0199	0.0101	0.958	
0.81	0.032	0.01	0.0201	0.0101	0.957	
0.938	0.022	0.01	0.0174	0.0101	0.982	

System: .gamma.-valerolactone + tetradecane + methyl tetradecanoate; phases: Liquid
Fixed: Temperature, K = 298.15
Fixed: Pressure, kPa = 94.2
Property: Mass density, kg/m3 (Liquid); method: Vibrating tube method
Mass fraction of .gamma.-valerolactone	Mass fraction of tetradecane	Mass density, kg/m3	uncertainty
0.201	0.338	856.42	2.04
0.081	0.592	808.51	2.03
0.146	0.432	833.63	2.03
0.059	0.668	798.18	2.02
0.038	0.768	785.96	2.02
0.027	0.863	774.78	2.02
0.032	0.81	779.62	2.02
0.022	0.938	766.24	2.01
0.772	0.0517	992.06	2.02
0.886	0.0295	1019.39	2.02
0.829	0.0394	1006.21	2.02
0.907	0.0264	1024.17	2.02
0.934	0.0228	1030.18	2.02
0.958	0.0199	1035.52	2.07
0.957	0.0201	1033.07	2.02
0.982	0.0174	1040.03	2.02
