Measured thermophysical data. Measuring the Solubility of Anthracene and Chrysene in Supercritical Fluid Carbon Dioxide Using Static Solubility Apparatus Directly Interfaced Online to Supercritical Fluid Chromatography
Source: J. Chem. Eng. Data, 2018, 10.1021/acs.jced.7b00857
Compound 1: anthracene, C14H10, InChI=1S/C14H10/c1-2-6-12-10-14-8-4-3-7-13(14)9-11(12)5-1/h1-10H, purity 99%
Compound 2: chrysene, C18H12, InChI=1S/C18H12/c1-3-7-15-13(5-1)9-11-18-16-8-4-2-6-14(16)10-12-17(15)18/h1-12H, purity 99%
Compound 3: carbon dioxide, CO2, InChI=1S/CO2/c2-1-3, purity 99.9%

System: anthracene + carbon dioxide; phases: Fluid (supercritical or subcritical phases), Crystal
Property: Mole fraction of anthracene (Fluid (supercritical or subcritical phases)); method: Chromatography
Temperature, K	Pressure, kPa	Mole fraction of anthracene	uncertainty
313	10000	6.25e-05	1.09e-05
313	12000	7.1e-05	1.2e-05
313	14000	7.75e-05	1.36e-05
313	16000	8.66e-05	1.48e-05
313	18000	9e-05	1.5e-05
313	20000	9.5e-05	1.6e-05
313	22000	9.87e-05	1.64e-05
313	24000	0.000103	1.7e-05
313	26000	0.000102	1.6e-05
313	28000	0.000104	1.7e-05
323	10000	6.77e-05	1.57e-05
323	12000	8e-05	1.5e-05
323	14000	9.39e-05	1.64e-05
323	16000	9.9e-05	1.6e-05
323	18000	0.000105	1.8e-05
323	20000	0.00011	1.8e-05
323	22000	0.0001122	1.8e-05
323	24000	0.0001115	1.79e-05
323	26000	0.0001131	1.82e-05
323	28000	0.000114	2.1e-05
333	10000	4.17e-05	1.71e-05
333	12000	7.95e-05	2.14e-05
333	14000	9.9e-05	2e-05
333	16000	0.000114	2e-05
333	18000	0.0001218	2.08e-05
333	20000	0.0001302	2.16e-05
333	22000	0.0001326	2.18e-05
333	24000	0.000139	2.3e-05
333	26000	0.000142	2.3e-05
333	28000	0.0001442	2.32e-05
343	10000	3.45e-05	2.53e-05
343	12000	8.38e-05	2.73e-05
343	14000	0.0001137	2.64e-05
343	16000	0.0001385	2.56e-05
343	18000	0.0001455	2.42e-05
343	20000	0.0001528	2.48e-05
343	22000	0.0001534	2.46e-05
343	24000	0.0001552	2.51e-05
343	26000	0.0001595	2.62e-05
343	28000	0.0001645	2.73e-05

System: chrysene + carbon dioxide; phases: Fluid (supercritical or subcritical phases), Crystal
Property: Mole fraction of chrysene (Fluid (supercritical or subcritical phases)); method: Chromatography
Temperature, K	Pressure, kPa	Mole fraction of chrysene	uncertainty
313	10000	3.3e-06	5e-07
313	12500	4e-06	6e-07
313	15000	4.7e-06	7e-07
313	17500	5.2e-06	7e-07
313	20000	5.6e-06	8e-07
313	22500	6e-06	8e-07
313	25000	6.4e-06	9e-07
313	27500	6.9e-06	1e-06
323	10000	4.1e-06	7e-07
323	12500	4.8e-06	7e-07
323	15000	5.7e-06	9e-07
323	17500	6.6e-06	1e-06
323	20000	7.5e-06	1.1e-06
323	22500	8.1e-06	1.1e-06
323	25000	8.6e-06	1.2e-06
323	27500	9.1e-06	1.3e-06
333	10000	3.3e-06	1.1e-06
333	12500	5.8e-06	1.2e-06
333	15000	7.3e-06	1.1e-06
333	17500	7.9e-06	1.1e-06
333	20000	9.1e-06	1.4e-06
333	22500	1.02e-05	1.5e-06
333	25000	1.11e-05	1.5e-06
333	27500	1.16e-05	1.4e-06
343	10000	2.4e-06	1.3e-06
343	12500	5.5e-06	1.5e-06
343	15000	7.9e-06	1.6e-06
343	17500	9.7e-06	1.6e-06
343	20000	1.12e-05	1.7e-06
343	22500	1.22e-05	1.7e-06
343	25000	1.32e-05	1.7e-06
343	27500	1.35e-05	1.7e-06
