Measured thermophysical data. Binary Diffusion Coefficients of Glycerol-Water Mixtures for Temperatures from 323 to 448 K by Dynamic Light Scattering
Source: J. Chem. Eng. Data, 2017, 10.1021/acs.jced.7b00717
Compound 1: glycerol, C3H8O3, InChI=1S/C3H8O3/c4-1-3(6)2-5/h3-6H,1-2H2, purity 99.5%
Compound 2: water, H2O, InChI=1S/H2O/h1H2, purity 99.9%

System: glycerol + water; phases: Liquid, Gas
Fixed: Wavelength, nm = 532
Property: Refractive index (other wavelength) (Liquid); method: beam displacement method
Temperature, K	Mole fraction of glycerol	Refractive index (other wavelength)	uncertainty
323.15	0.299	1.417	0.005
348.15	0.299	1.411	0.005
373.16	0.299	1.403	0.005
398.15	0.299	1.396	0.005
322.99	0.5	1.436	0.005
347.96	0.5	1.43	0.005
373.23	0.5	1.423	0.005
398.11	0.5	1.417	0.005
423.15	0.5	1.409	0.005
296.15	0.699	1.461	0.005
348.45	0.699	1.445	0.005
373.05	0.699	1.438	0.005
398.25	0.699	1.431	0.005
421.85	0.699	1.424	0.005

System: glycerol + water; phases: Liquid, Gas
Fixed: Mole fraction of glycerol = 0.299
Fixed: Wavelength, nm = 532
Property: Refractive index (other wavelength) (Liquid); method: Standard Abbe refractometry
Temperature, K	Refractive index (other wavelength)	uncertainty
295.65	1.422	0.001
314.15	1.42	0.001
331.65	1.415	0.001

System: glycerol + water; phases: Liquid, Gas
Property: Binary diffusion coefficient, m2/s (Liquid); method: dynamic ligfht scattering
Temperature, K	Mole fraction of glycerol	Binary diffusion coefficient, m2/s	uncertainty
323.15	0.299	5.6e-10	0.021
348.19	0.299	1.04e-09	0.11
373.3	0.299	1.73e-09	0.16
398.05	0.299	2.84e-09	0.25
422.61	0.299	4.12e-09	0.64
322.99	0.5	2.54e-10	0.024
347.98	0.5	5.69e-10	0.045
373.17	0.5	1.042e-09	0.073
398.12	0.5	1.898e-09	0.101
423.15	0.5	2.87e-09	0.57
448.21	0.5	4.8e-09	0.47
323.07	0.699	1.4e-10	0.014
351.63	0.699	3.69e-10	0.037
372.92	0.699	6.93e-10	0.065
397.7	0.699	1.447e-09	0.087
