Measured thermophysical data. Determination and Correlation of Solubility of Phenylbutazone in Monosolvents and Binary Solvent Mixtures
Source: J. Chem. Eng. Data, 2017, 10.1021/acs.jced.6b00911
Compound 1: 4-butyl-1,2-diphenyl-3,5-pyrazolidinedione, C19H20N2O2, InChI=1S/C19H20N2O2/c1-2-3-14-17-18(22)20(15-10-6-4-7-11-15)21(19(17)23)16-12-8-5-9-13-16/h4-13,17H,2-3,14H2,1H3, purity 99.7%
Compound 2: methanol, CH4O, InChI=1S/CH4O/c1-2/h2H,1H3, purity 99.5%
Compound 3: ethanol, C2H6O, InChI=1S/C2H6O/c1-2-3/h3H,2H2,1H3, purity 99.7%
Compound 4: propan-2-ol, C3H8O, InChI=1S/C3H8O/c1-3(2)4/h3-4H,1-2H3, purity 99.5%
Compound 5: butan-1-ol, C4H10O, InChI=1S/C4H10O/c1-2-3-4-5/h5H,2-4H2,1H3, purity 99.5%
Compound 6: pentan-1-ol, C5H12O, InChI=1S/C5H12O/c1-2-3-4-5-6/h6H,2-5H2,1H3, purity 99.5%
Compound 7: hexan-1-ol, C6H14O, InChI=1S/C6H14O/c1-2-3-4-5-6-7/h7H,2-6H2,1H3, purity 99.5%
Compound 8: acetonitrile, C2H3N, InChI=1S/C2H3N/c1-2-3/h1H3, purity 99.5%
Compound 9: ethyl acetate, C4H8O2, InChI=1S/C4H8O2/c1-3-6-4(2)5/h3H2,1-2H3, purity 99.5%
Compound 10: acetone, C3H6O, InChI=1S/C3H6O/c1-3(2)4/h1-2H3, purity 99.5%
Compound 11: dimethylformamide, C3H7NO, InChI=1S/C3H7NO/c1-4(2)3-5/h3H,1-2H3, purity 99.5%

System: 4-butyl-1,2-diphenyl-3,5-pyrazolidinedione + methanol; phases: Liquid, Crystal
Fixed: Pressure, kPa = 101
Property: Mole fraction of 4-butyl-1,2-diphenyl-3,5-pyrazolidinedione (Liquid); method: Titration method
Temperature, K	Mole fraction of 4-butyl-1,2-diphenyl-3,5-pyrazolidinedione	uncertainty
283.12	0.0042	0.0005
288.03	0.00518	0.00062
293.13	0.00654	0.00079
298.16	0.00831	0.001
303.14	0.01073	0.00129
308.15	0.01414	0.0017
313.15	0.0189	0.00227
318.15	0.02614	0.00314
323.15	0.03772	0.00453

System: 4-butyl-1,2-diphenyl-3,5-pyrazolidinedione + ethanol; phases: Liquid, Crystal
Fixed: Pressure, kPa = 101
Property: Mole fraction of 4-butyl-1,2-diphenyl-3,5-pyrazolidinedione (Liquid); method: Titration method
Temperature, K	Mole fraction of 4-butyl-1,2-diphenyl-3,5-pyrazolidinedione	uncertainty
283.13	0.00396	0.00048
288.1	0.00472	0.00057
293.2	0.00605	0.00073
298.15	0.00773	0.00093
303.15	0.01	0.0012
308.15	0.01322	0.00159
313.2	0.01779	0.00214
318.15	0.02511	0.00302
323.15	0.03709	0.00446

System: 4-butyl-1,2-diphenyl-3,5-pyrazolidinedione + propan-2-ol; phases: Liquid, Crystal
Fixed: Pressure, kPa = 101
Property: Mole fraction of 4-butyl-1,2-diphenyl-3,5-pyrazolidinedione (Liquid); method: Titration method
Temperature, K	Mole fraction of 4-butyl-1,2-diphenyl-3,5-pyrazolidinedione	uncertainty
283.15	0.00249	0.0003
288.15	0.00302	0.00036
293.05	0.00403	0.00048
298.15	0.00562	0.00068
303.9	0.00819	0.00098
308.15	0.01094	0.00132
313.13	0.01646	0.00198
318.65	0.02541	0.00306
323.15	0.0398	0.00479

System: 4-butyl-1,2-diphenyl-3,5-pyrazolidinedione + butan-1-ol; phases: Liquid, Crystal
Fixed: Pressure, kPa = 101
Property: Mole fraction of 4-butyl-1,2-diphenyl-3,5-pyrazolidinedione (Liquid); method: Titration method
Temperature, K	Mole fraction of 4-butyl-1,2-diphenyl-3,5-pyrazolidinedione	uncertainty
283.14	0.00408	0.00049
288.15	0.00541	0.00065
293.15	0.00703	0.00084
298.15	0.00914	0.0011
303.15	0.01223	0.00147
308.15	0.01664	0.002
313.15	0.02362	0.00284
318.15	0.03333	0.00401
323.15	0.04828	0.0058

System: 4-butyl-1,2-diphenyl-3,5-pyrazolidinedione + pentan-1-ol; phases: Liquid, Crystal
Fixed: Pressure, kPa = 101
Property: Mole fraction of 4-butyl-1,2-diphenyl-3,5-pyrazolidinedione (Liquid); method: Titration method
Temperature, K	Mole fraction of 4-butyl-1,2-diphenyl-3,5-pyrazolidinedione	uncertainty
283.15	0.00412	0.0005
288.15	0.00539	0.00065
293.12	0.00693	0.00083
298.11	0.00885	0.00106
303.15	0.01211	0.00146
308.15	0.01654	0.00199
313.15	0.0221	0.00266
318.13	0.032	0.00385
323.16	0.04814	0.00579

System: 4-butyl-1,2-diphenyl-3,5-pyrazolidinedione + hexan-1-ol; phases: Liquid, Crystal
Fixed: Pressure, kPa = 101
Property: Mole fraction of 4-butyl-1,2-diphenyl-3,5-pyrazolidinedione (Liquid); method: Titration method
Temperature, K	Mole fraction of 4-butyl-1,2-diphenyl-3,5-pyrazolidinedione	uncertainty
283.15	0.00394	0.00047
288.05	0.00467	0.00056
293.05	0.00632	0.00076
298.15	0.00845	0.00102
303.15	0.01253	0.00151
308.15	0.01761	0.00212
313.15	0.02389	0.00287
318.15	0.03426	0.00412
323.15	0.04732	0.00569

System: 4-butyl-1,2-diphenyl-3,5-pyrazolidinedione + acetonitrile; phases: Liquid, Crystal
Fixed: Pressure, kPa = 101
Property: Mole fraction of 4-butyl-1,2-diphenyl-3,5-pyrazolidinedione (Liquid); method: Titration method
Temperature, K	Mole fraction of 4-butyl-1,2-diphenyl-3,5-pyrazolidinedione	uncertainty
283.12	0.03367	0.00405
288.15	0.04568	0.00549
293.15	0.06317	0.00759
298.17	0.08952	0.01076
303.15	0.11199	0.01345
308.13	0.13645	0.01638
313.1	0.16405	0.0197
318.17	0.19414	0.02331
323.16	0.2254	0.02706

System: 4-butyl-1,2-diphenyl-3,5-pyrazolidinedione + ethyl acetate; phases: Liquid, Crystal
Fixed: Pressure, kPa = 101
Property: Mole fraction of 4-butyl-1,2-diphenyl-3,5-pyrazolidinedione (Liquid); method: Titration method
Temperature, K	Mole fraction of 4-butyl-1,2-diphenyl-3,5-pyrazolidinedione	uncertainty
283.15	0.0638	0.00766
288.15	0.07647	0.00918
293.15	0.08967	0.01077
298.13	0.1041	0.0125
303.15	0.12177	0.01462
308.15	0.14333	0.01721
313.37	0.16904	0.02029
318.3	0.1949	0.0234
323.17	0.22301	0.02677

System: 4-butyl-1,2-diphenyl-3,5-pyrazolidinedione + acetone; phases: Liquid, Crystal
Fixed: Pressure, kPa = 101
Property: Mole fraction of 4-butyl-1,2-diphenyl-3,5-pyrazolidinedione (Liquid); method: Titration method
Temperature, K	Mole fraction of 4-butyl-1,2-diphenyl-3,5-pyrazolidinedione	uncertainty
283.15	0.07053	0.00847
288.13	0.08281	0.00994
293.15	0.09664	0.0116
298.17	0.11321	0.01359
303.15	0.13258	0.01592
308.13	0.15325	0.0184
313.15	0.17631	0.02117
318.15	0.20117	0.02415
323.15	0.22616	0.02715

System: 4-butyl-1,2-diphenyl-3,5-pyrazolidinedione + dimethylformamide; phases: Liquid, Crystal
Fixed: Pressure, kPa = 101
Property: Mole fraction of 4-butyl-1,2-diphenyl-3,5-pyrazolidinedione (Liquid); method: Titration method
Temperature, K	Mole fraction of 4-butyl-1,2-diphenyl-3,5-pyrazolidinedione	uncertainty
283.13	0.11422	0.01371
288.15	0.13047	0.01566
293.15	0.1474	0.01769
298.13	0.16646	0.01998
303.15	0.18687	0.02243
308.15	0.20844	0.02502
313.15	0.23254	0.02791
318.6	0.25974	0.03118
323.17	0.28688	0.03444

System: 4-butyl-1,2-diphenyl-3,5-pyrazolidinedione + methanol + acetone; phases: Liquid, Crystal
Fixed: Pressure, kPa = 101
Property: Mole fraction of 4-butyl-1,2-diphenyl-3,5-pyrazolidinedione (Liquid); method: Titration method
Temperature, K	Solvent: Mole fraction of acetone	Mole fraction of 4-butyl-1,2-diphenyl-3,5-pyrazolidinedione	uncertainty
283.12	0	0.0042	0.0005
288.03	0	0.00518	0.00062
293.13	0	0.00654	0.00079
298.16	0	0.00831	0.001
303.14	0	0.01073	0.00129
308.15	0	0.01414	0.0017
313.15	0	0.0189	0.00227
318.15	0	0.02614	0.00314
323.15	0	0.03772	0.00453
283.15	0.1002	0.00773	0.00093
288.15	0.1002	0.00954	0.00115
293.15	0.1002	0.01164	0.0014
298.15	0.1002	0.01469	0.00176
303.15	0.1002	0.01897	0.00228
308.15	0.1002	0.02509	0.00301
313.15	0.1002	0.03376	0.00406
318.27	0.1002	0.04731	0.00569
323.17	0.1002	0.06755	0.00812
283.15	0.1999	0.01258	0.00151
288.15	0.1999	0.01532	0.00184
293.12	0.1999	0.01896	0.00228
298.15	0.1999	0.02411	0.0029
303.15	0.1999	0.03111	0.00374
308.15	0.1999	0.04077	0.0049
313.15	0.1999	0.05439	0.00654
318.15	0.1999	0.07394	0.00889
323.15	0.1999	0.10115	0.01215
283.15	0.3	0.01885	0.00226
288.15	0.3	0.02337	0.00281
293.15	0.3	0.02884	0.00346
298.15	0.3	0.03594	0.00432
303.17	0.3	0.0459	0.00551
308.15	0.3	0.0588	0.00706
313.15	0.3	0.07642	0.00918
318.13	0.3	0.09925	0.01192
323.15	0.3	0.12846	0.01543
283.13	0.4008	0.02665	0.0032
288.15	0.4008	0.03262	0.00392
293.15	0.4008	0.04012	0.00482
298.15	0.4008	0.04954	0.00595
303.15	0.4008	0.06167	0.00741
308.15	0.4008	0.07811	0.00938
313.23	0.4008	0.09989	0.012
318.65	0.4008	0.12806	0.01538
323.15	0.4008	0.1559	0.01872
283.15	0.5008	0.03499	0.0042
288.17	0.5008	0.04267	0.00512
293.15	0.5008	0.05185	0.00623
298.15	0.5008	0.06318	0.00759
303.16	0.5008	0.07761	0.00932
308.15	0.5008	0.09601	0.01153
313.15	0.5008	0.11838	0.01422
318.15	0.5008	0.1448	0.01739
323.15	0.5008	0.17295	0.02076
283.15	0.6006	0.04321	0.00519
288.15	0.6006	0.05222	0.00627
293.15	0.6006	0.06324	0.00759
298.15	0.6006	0.0764	0.00917
303.15	0.6006	0.09243	0.0111
308.15	0.6006	0.11248	0.01351
313.15	0.6006	0.13621	0.01636
318.15	0.6006	0.16305	0.01958
323.15	0.6006	0.18578	0.0223
283.15	0.7019	0.05151	0.00619
288.15	0.7019	0.06219	0.00747
293.15	0.7019	0.07437	0.00893
298.15	0.7019	0.08878	0.01066
303.15	0.7019	0.10647	0.01278
308.15	0.7019	0.12769	0.01533
313.15	0.7019	0.15234	0.01829
318.15	0.7019	0.17966	0.02157
323.15	0.7019	0.20853	0.02503
283.15	0.8007	0.05928	0.00712
288.13	0.8007	0.07067	0.00849
293.16	0.8007	0.0841	0.0101
298.15	0.8007	0.10006	0.01201
303.13	0.8007	0.11914	0.0143
308.15	0.8007	0.14127	0.01696
313.28	0.8007	0.16658	0.02
318.13	0.8007	0.1929	0.02316
323.23	0.8007	0.21981	0.02639
283.12	0.8991	0.0657	0.00789
288.15	0.8991	0.07784	0.00935
293.16	0.8991	0.092	0.01105
298.14	0.8991	0.10816	0.01299
303.17	0.8991	0.12766	0.01533
308.15	0.8991	0.1498	0.01799
313.18	0.8991	0.17492	0.021
318.16	0.8991	0.20188	0.02424
323.15	0.8991	0.23047	0.02766
283.15	1	0.07053	0.00847
288.13	1	0.08281	0.00994
293.15	1	0.09664	0.0116
298.17	1	0.11321	0.01359
303.15	1	0.13258	0.01592
308.13	1	0.15325	0.0184
313.15	1	0.17631	0.02117
318.15	1	0.20117	0.02415
323.15	1	0.22616	0.02715

System: 4-butyl-1,2-diphenyl-3,5-pyrazolidinedione + ethanol + acetonitrile; phases: Liquid, Crystal
Fixed: Pressure, kPa = 101
Property: Mole fraction of 4-butyl-1,2-diphenyl-3,5-pyrazolidinedione (Liquid); method: Titration method
Temperature, K	Solvent: Mole fraction of ethanol	Mole fraction of 4-butyl-1,2-diphenyl-3,5-pyrazolidinedione	uncertainty
283.12	0	0.03367	0.00405
288.15	0	0.04568	0.00549
293.15	0	0.06317	0.00759
298.17	0	0.08952	0.01076
303.15	0	0.11199	0.01345
308.13	0	0.13645	0.01638
313.1	0	0.16405	0.0197
318.17	0	0.19414	0.02331
323.16	0	0.2254	0.02706
283.13	0.1076	0.04276	0.00514
288.11	0.1076	0.05625	0.00676
293.15	0.1076	0.076	0.00913
298.35	0.1076	0.09563	0.01148
303.15	0.1076	0.11554	0.01387
308.15	0.1076	0.13898	0.01669
313.25	0.1076	0.16591	0.01992
318.15	0.1076	0.19469	0.02337
323.15	0.1076	0.22532	0.02705
283.13	0.2006	0.04599	0.00553
288.15	0.2006	0.06325	0.0076
293.16	0.2006	0.07642	0.00918
298.15	0.2006	0.09489	0.0114
303.14	0.2006	0.11667	0.01401
308.13	0.2006	0.14164	0.01701
313.15	0.2006	0.16961	0.02036
318.15	0.2006	0.19912	0.02391
323.16	0.2006	0.2296	0.02756
283.13	0.2988	0.04856	0.00584
288.47	0.2988	0.06134	0.00737
293.2	0.2988	0.07423	0.00891
298.13	0.2988	0.08978	0.01078
303.15	0.2988	0.10945	0.01314
308.15	0.2988	0.13258	0.01592
313.15	0.2988	0.15898	0.01909
318.15	0.2988	0.18756	0.02252
323.15	0.2988	0.21868	0.02625
283.12	0.4005	0.044	0.00529
288.2	0.4005	0.05418	0.00651
293.13	0.4005	0.06608	0.00794
298.15	0.4005	0.08081	0.0097
303.15	0.4005	0.099	0.01189
308.11	0.4005	0.12088	0.01452
313.15	0.4005	0.14631	0.01757
318.15	0.4005	0.17525	0.02104
323.22	0.4005	0.20754	0.02492
283.15	0.5018	0.03672	0.00441
288.15	0.5018	0.04613	0.00554
293.15	0.5018	0.05676	0.00682
298.2	0.5018	0.06976	0.00838
303.15	0.5018	0.08628	0.01036
308.15	0.5018	0.10689	0.01284
313.15	0.5018	0.13195	0.01585
318.15	0.5018	0.16137	0.01938
323.16	0.5018	0.19439	0.02334
283.15	0.6019	0.02951	0.00355
288.15	0.6019	0.03716	0.00446
293.2	0.6019	0.04601	0.00553
298.15	0.6019	0.05701	0.00685
303.15	0.6019	0.07115	0.00855
308.15	0.6019	0.08945	0.01074
313.15	0.6019	0.11233	0.01349
318.15	0.6019	0.13952	0.01676
323.15	0.6019	0.17135	0.02057
283.15	0.7017	0.02252	0.00271
288.32	0.7017	0.0279	0.00335
293.15	0.7017	0.03444	0.00414
298.15	0.7017	0.04304	0.00517
303.15	0.7017	0.05432	0.00652
308.15	0.7017	0.06937	0.00833
313.15	0.7017	0.08922	0.01072
318.15	0.7017	0.11484	0.01379
323.15	0.7017	0.14628	0.01757
283.15	0.8024	0.01456	0.00175
288.15	0.8024	0.01839	0.00221
293.15	0.8024	0.02301	0.00276
298.15	0.8024	0.02893	0.00347
303.15	0.8024	0.03683	0.00442
308.15	0.8024	0.04784	0.00575
313.15	0.8024	0.063	0.00757
318.15	0.8024	0.08358	0.01004
323.15	0.8024	0.11259	0.01352
283.13	0.9016	0.00832	0.001
288.15	0.9016	0.01054	0.00127
293.15	0.9016	0.01322	0.00159
298.15	0.9016	0.01675	0.00201
303.15	0.9016	0.0216	0.00259
308.15	0.9016	0.02829	0.0034
313.15	0.9016	0.03771	0.00453
318.15	0.9016	0.05126	0.00616
323.15	0.9016	0.07315	0.00879
283.13	1	0.00396	0.00048
288.1	1	0.00472	0.00057
293.2	1	0.00605	0.00073
298.15	1	0.00773	0.00093
303.15	1	0.01	0.0012
308.15	1	0.01322	0.00159
313.2	1	0.01779	0.00214
318.15	1	0.02511	0.00302
323.15	1	0.03709	0.00446
