Measured thermophysical data. Solubility of d-Tryptophan and l-Tyrosine in Several Organic Solvents: Determination and Solvent Effect
Source: J. Chem. Eng. Data, 2019, 10.1021/acs.jced.9b00258
Compound 1: D-tryptophan, C11H12N2O2, InChI=1S/C11H12N2O2/c12-9(11(14)15)5-7-6-13-10-4-2-1-3-8(7)10/h1-4,6,9,13H,5,12H2,(H,14,15)/t9-/m1/s1, purity 98%
Compound 2: 3-(p-hydroxyphenyl)-L-alanine, C9H11NO3, InChI=1S/C9H11NO3/c10-8(9(12)13)5-6-1-3-7(11)4-2-6/h1-4,8,11H,5,10H2,(H,12,13)/t8-/m0/s1, purity 98.3%
Compound 3: propan-1-ol, C3H8O, InChI=1S/C3H8O/c1-2-3-4/h4H,2-3H2,1H3, purity 99.5%
Compound 4: ethyl acetate, C4H8O2, InChI=1S/C4H8O2/c1-3-6-4(2)5/h3H2,1-2H3, purity 99.4%
Compound 5: 1,2-ethanediol, C2H6O2, InChI=1S/C2H6O2/c3-1-2-4/h3-4H,1-2H2, purity 99.4%
Compound 6: propan-2-ol, C3H8O, InChI=1S/C3H8O/c1-3(2)4/h3-4H,1-2H3, purity 99.5%
Compound 7: butan-1-ol, C4H10O, InChI=1S/C4H10O/c1-2-3-4-5/h5H,2-4H2,1H3, purity 99.6%
Compound 8: acetonitrile, C2H3N, InChI=1S/C2H3N/c1-2-3/h1H3, purity 99.5%
Compound 9: octan-1-ol, C8H18O, InChI=1S/C8H18O/c1-2-3-4-5-6-7-8-9/h9H,2-8H2,1H3, purity 99.3%
Compound 10: dimethyl sulfoxide, C2H6OS, InChI=1S/C2H6OS/c1-4(2)3/h1-2H3, purity 99.4%
Compound 11: dimethylformamide, C3H7NO, InChI=1S/C3H7NO/c1-4(2)3-5/h3H,1-2H3, purity 99.4%

System: D-tryptophan + propan-1-ol; phases: Liquid, Crystal
Fixed: Pressure, kPa = 101.2
Property: Mole fraction of D-tryptophan (Liquid); method: Chromatography
Temperature, K	Mole fraction of D-tryptophan	uncertainty
283.15	4.513e-05	4.52e-06
288.15	6.228e-05	6.23e-06
293.15	7.271e-05	7.27e-06
298.15	8.687e-05	8.69e-06
303.15	0.0001109	1.11e-05
308.15	0.0001267	1.27e-05
313.15	0.0001568	1.57e-05
318.15	0.0001768	1.77e-05
323.15	0.0002193	2.19e-05
328.15	0.0002438	2.44e-05

System: D-tryptophan + ethyl acetate; phases: Liquid, Crystal
Fixed: Pressure, kPa = 101.2
Property: Mole fraction of D-tryptophan (Liquid); method: Chromatography
Temperature, K	Mole fraction of D-tryptophan	uncertainty
283.15	0.0002382	2.38e-05
288.15	0.0003018	3.02e-05
293.15	0.0003759	3.76e-05
298.15	0.0004765	4.77e-05
303.15	0.0005414	5.42e-05
308.15	0.0006988	6.99e-05
313.15	0.0008365	8.37e-05
318.15	0.001154	0.000115
323.15	0.001408	0.000141
328.15	0.0018	0.00018

System: D-tryptophan + 1,2-ethanediol; phases: Liquid, Crystal
Fixed: Pressure, kPa = 101.2
Property: Mole fraction of D-tryptophan (Liquid); method: Chromatography
Temperature, K	Mole fraction of D-tryptophan	uncertainty
283.15	0.001477	0.000148
288.15	0.001673	0.000167
293.15	0.002462	0.000246
298.15	0.003182	0.000318
303.15	0.004369	0.000437
308.15	0.005469	0.000547
313.15	0.008036	0.000804
318.15	0.009986	0.000999
323.15	0.01249	0.00125
328.15	0.01606	0.00161

System: D-tryptophan + butan-1-ol; phases: Liquid, Crystal
Fixed: Pressure, kPa = 101.2
Property: Mole fraction of D-tryptophan (Liquid); method: Chromatography
Temperature, K	Mole fraction of D-tryptophan	uncertainty
283.15	1.968e-05	1.97e-06
288.15	2.215e-05	2.22e-06
293.15	2.987e-05	2.99e-06
298.15	3.521e-05	3.52e-06
303.15	4.809e-05	4.81e-06
308.15	5.678e-05	5.68e-06
313.15	7.897e-05	7.9e-06
318.15	9.263e-05	9.27e-06
323.15	0.0001196	1.2e-05
328.15	0.0001368	1.37e-05

System: D-tryptophan + acetonitrile; phases: Liquid, Crystal
Fixed: Pressure, kPa = 101.2
Property: Mole fraction of D-tryptophan (Liquid); method: Chromatography
Temperature, K	Mole fraction of D-tryptophan	uncertainty
283.15	5.75e-05	5.75e-06
288.15	6.838e-05	6.84e-06
293.15	8.138e-05	8.14e-06
298.15	0.0001075	1.08e-05
303.15	0.0001276	1.28e-05
308.15	0.0001504	1.5e-05
313.15	0.0002058	2.06e-05
318.15	0.0002413	2.41e-05
323.15	0.0003065	3.07e-05
328.15	0.0003723	3.72e-05

System: D-tryptophan + octan-1-ol; phases: Liquid, Crystal
Fixed: Pressure, kPa = 101.2
Property: Mole fraction of D-tryptophan (Liquid); method: Chromatography
Temperature, K	Mole fraction of D-tryptophan	uncertainty
283.15	1.361e-05	1.36e-06
288.15	1.531e-05	1.53e-06
293.15	1.877e-05	1.88e-06
298.15	2.489e-05	2.49e-06
303.15	2.798e-05	2.8e-06
308.15	3.613e-05	3.61e-06
313.15	4.019e-05	4.02e-06
318.15	4.831e-05	4.83e-06
323.15	5.865e-05	5.87e-06
328.15	6.534e-05	6.54e-06

System: D-tryptophan + dimethyl sulfoxide; phases: Liquid, Crystal
Fixed: Pressure, kPa = 101.2
Property: Mole fraction of D-tryptophan (Liquid); method: Chromatography
Temperature, K	Mole fraction of D-tryptophan	uncertainty
293.15	0.003589	0.000359
298.15	0.003811	0.000381
303.15	0.004645	0.000465
308.15	0.005508	0.000551
313.15	0.005956	0.000596
318.15	0.007054	0.000706
323.15	0.007779	0.000778
328.15	0.009106	0.000911

System: 3-(p-hydroxyphenyl)-L-alanine + ethyl acetate; phases: Liquid, Crystal
Fixed: Pressure, kPa = 101.2
Property: Mole fraction of 3-(p-hydroxyphenyl)-L-alanine (Liquid); method: Chromatography
Temperature, K	Mole fraction of 3-(p-hydroxyphenyl)-L-alanine	uncertainty
283.15	0.002056	0.000206
288.15	0.002388	0.000239
293.15	0.002575	0.000258
298.15	0.002851	0.000285
303.15	0.003403	0.00034
308.15	0.00357	0.000357
313.15	0.003941	0.000394
318.15	0.004732	0.000473
323.15	0.004997	0.0005
328.15	0.005574	0.000558

System: 3-(p-hydroxyphenyl)-L-alanine + 1,2-ethanediol; phases: Liquid, Crystal
Fixed: Pressure, kPa = 101.2
Property: Mole fraction of 3-(p-hydroxyphenyl)-L-alanine (Liquid); method: Chromatography
Temperature, K	Mole fraction of 3-(p-hydroxyphenyl)-L-alanine	uncertainty
283.15	3.103e-05	3.1e-06
288.15	3.61e-05	3.61e-06
293.15	4.868e-05	4.87e-06
298.15	6.242e-05	6.25e-06
303.15	9.136e-05	9.14e-06
308.15	0.0001127	1.13e-05
313.15	0.0001401	1.4e-05
318.15	0.0001942	1.94e-05
323.15	0.0002393	2.39e-05
328.15	0.0003248	3.25e-05

System: 3-(p-hydroxyphenyl)-L-alanine + propan-2-ol; phases: Liquid, Crystal
Fixed: Pressure, kPa = 101.2
Property: Mole fraction of 3-(p-hydroxyphenyl)-L-alanine (Liquid); method: Chromatography
Temperature, K	Mole fraction of 3-(p-hydroxyphenyl)-L-alanine	uncertainty
283.15	5.544e-06	5.55e-07
288.15	6.096e-06	6.1e-07
293.15	8.974e-06	8.98e-07
298.15	1.053e-05	1.05e-06
303.15	1.239e-05	1.24e-06
308.15	1.69e-05	1.69e-06
313.15	1.963e-05	1.96e-06
318.15	2.239e-05	2.24e-06
323.15	2.927e-05	2.93e-06
328.15	3.55e-05	3.55e-06

System: 3-(p-hydroxyphenyl)-L-alanine + acetonitrile; phases: Liquid, Crystal
Fixed: Pressure, kPa = 101.2
Property: Mole fraction of 3-(p-hydroxyphenyl)-L-alanine (Liquid); method: Chromatography
Temperature, K	Mole fraction of 3-(p-hydroxyphenyl)-L-alanine	uncertainty
283.15	2.982e-06	2.98e-07
288.15	3.404e-06	3.41e-07
293.15	4.521e-06	4.52e-07
298.15	6.127e-06	6.13e-07
303.15	7.714e-06	7.72e-07
308.15	1.082e-05	1.08e-06
313.15	1.406e-05	1.41e-06
318.15	1.679e-05	1.68e-06
323.15	2.263e-05	2.26e-06
328.15	2.881e-05	2.88e-06

System: 3-(p-hydroxyphenyl)-L-alanine + butan-1-ol; phases: Liquid, Crystal
Fixed: Pressure, kPa = 101.2
Property: Mole fraction of 3-(p-hydroxyphenyl)-L-alanine (Liquid); method: Chromatography
Temperature, K	Mole fraction of 3-(p-hydroxyphenyl)-L-alanine	uncertainty
283.15	9.95e-07	9.96e-08
288.15	1.545e-06	1.55e-07
293.15	1.705e-06	1.71e-07
298.15	2.087e-06	2.09e-07
303.15	2.87e-06	2.87e-07
308.15	3.187e-06	3.19e-07
313.15	4.32e-06	4.32e-07
318.15	5.177e-06	5.18e-07
323.15	6.545e-06	6.55e-07
328.15	8.185e-06	8.19e-07

System: 3-(p-hydroxyphenyl)-L-alanine + dimethylformamide; phases: Liquid, Crystal
Fixed: Pressure, kPa = 101.2
Property: Mole fraction of 3-(p-hydroxyphenyl)-L-alanine (Liquid); method: Chromatography
Temperature, K	Mole fraction of 3-(p-hydroxyphenyl)-L-alanine	uncertainty
283.15	0.0004773	4.77e-05
288.15	0.0004859	4.86e-05
293.15	0.0005221	5.22e-05
298.15	0.0005284	5.29e-05
303.15	0.0006188	6.19e-05
308.15	0.0006448	6.45e-05
313.15	0.0006646	6.65e-05
318.15	0.0007449	7.45e-05
323.15	0.0007671	7.67e-05
328.15	0.0008546	8.55e-05
