Measured thermophysical data. Pressurized-Synthetic Methodology for Solubility Determination at Elevated Temperatures with Application to Paracetamol in Pure Solvents
Source: J. Chem. Eng. Data, 2017, 10.1021/acs.jced.7b00118
Compound 1: N-acetyl-p-aminophenol, C8H9NO2, InChI=1S/C8H9NO2/c1-6(10)9-7-2-4-8(11)5-3-7/h2-5,11H,1H3,(H,9,10), purity 99.9%
Compound 2: methanol, CH4O, InChI=1S/CH4O/c1-2/h2H,1H3, purity 99.9%
Compound 3: ethanol, C2H6O, InChI=1S/C2H6O/c1-2-3/h3H,2H2,1H3, purity 99.9%
Compound 4: propan-1-ol, C3H8O, InChI=1S/C3H8O/c1-2-3-4/h4H,2-3H2,1H3, purity 99.9%
Compound 5: propan-2-ol, C3H8O, InChI=1S/C3H8O/c1-3(2)4/h3-4H,1-2H3, purity 99.9%
Compound 6: butan-1-ol, C4H10O, InChI=1S/C4H10O/c1-2-3-4-5/h5H,2-4H2,1H3, purity 99.5%
Compound 7: pentan-1-ol, C5H12O, InChI=1S/C5H12O/c1-2-3-4-5-6/h6H,2-5H2,1H3, purity 99%
Compound 8: water, H2O, InChI=1S/H2O/h1H2, purity 99.8%
Compound 9: acetone, C3H6O, InChI=1S/C3H6O/c1-3(2)4/h1-2H3, purity 99.8%

System: methanol + N-acetyl-p-aminophenol; phases: Liquid, Crystal
Fixed: Pressure, kPa = 125
Property: Mole fraction of N-acetyl-p-aminophenol (Liquid); method: visual
Temperature, K	Mole fraction of N-acetyl-p-aminophenol	uncertainty
293.45	0.0594	0.0036
303.55	0.073	0.0042
313.95	0.0906	0.0052
323.35	0.1105	0.0066
330.95	0.1328	0.0089
341.55	0.1749	0.0108
354.15	0.2288	0.0125

System: methanol + N-acetyl-p-aminophenol; phases: Liquid, Crystal
Fixed: Pressure, kPa = 100
Property: Mole fraction of N-acetyl-p-aminophenol (Liquid); method: gravimetric
Temperature, K	Mole fraction of N-acetyl-p-aminophenol	uncertainty
293.15	0.0594	0.0036
303.15	0.073	0.0043
313.15	0.0906	0.0051

System: ethanol + N-acetyl-p-aminophenol; phases: Liquid, Crystal
Fixed: Pressure, kPa = 125
Property: Mole fraction of N-acetyl-p-aminophenol (Liquid); method: visual
Temperature, K	Mole fraction of N-acetyl-p-aminophenol	uncertainty
295.15	0.0549	0.0031
305.35	0.0662	0.0033
314.15	0.0737	0.0041
322.15	0.0898	0.0058
332.95	0.1157	0.007
341.25	0.1405	0.0094
350.05	0.1797	0.0107
360.15	0.2156	0.0112

System: ethanol + N-acetyl-p-aminophenol; phases: Liquid, Crystal
Fixed: Pressure, kPa = 100
Property: Mole fraction of N-acetyl-p-aminophenol (Liquid); method: gravimetric
Temperature, K	Mole fraction of N-acetyl-p-aminophenol	uncertainty
293.15	0.0542	0.0028
303.15	0.0628	0.0032
313.15	0.0737	0.004
323.15	0.0898	0.0055
333.15	0.1157	0.0069
343.15	0.1405	0.0075

System: propan-1-ol + N-acetyl-p-aminophenol; phases: Liquid, Crystal
Fixed: Pressure, kPa = 125
Property: Mole fraction of N-acetyl-p-aminophenol (Liquid); method: visual
Temperature, K	Mole fraction of N-acetyl-p-aminophenol	uncertainty
293.05	0.0412	0.0024
302.95	0.0501	0.0029
312.55	0.061	0.0034
322.55	0.0735	0.0044
332.25	0.093	0.0058
342.15	0.1173	0.007
351.25	0.1417	0.008
359.15	0.1653	0.0089

System: propan-1-ol + N-acetyl-p-aminophenol; phases: Liquid, Crystal
Fixed: Pressure, kPa = 100
Property: Mole fraction of N-acetyl-p-aminophenol (Liquid); method: gravimetric
Temperature, K	Mole fraction of N-acetyl-p-aminophenol	uncertainty
293.15	0.0412	0.0024
303.15	0.0501	0.0028
313.15	0.061	0.0034
323.15	0.0735	0.0043
333.15	0.093	0.0058
343.15	0.1173	0.0068
353.15	0.1417	0.0075

System: propan-2-ol + N-acetyl-p-aminophenol; phases: Liquid, Crystal
Fixed: Pressure, kPa = 125
Property: Mole fraction of N-acetyl-p-aminophenol (Liquid); method: visual
Temperature, K	Mole fraction of N-acetyl-p-aminophenol	uncertainty
293.65	0.0415	0.0025
304.05	0.0509	0.0028
313.05	0.0604	0.0033
320.25	0.0696	0.0041
325.35	0.0787	0.0048
330.25	0.0876	0.006
336.15	0.1049	0.0066
343.45	0.1215	0.0071
353.05	0.1518	0.0084
348.15	0.1364	0.0083
356.15	0.1593	0.008

System: propan-2-ol + N-acetyl-p-aminophenol; phases: Liquid, Crystal
Fixed: Pressure, kPa = 100
Property: Mole fraction of N-acetyl-p-aminophenol (Liquid); method: gravimetric
Temperature, K	Mole fraction of N-acetyl-p-aminophenol	uncertainty
293.15	0.0415	0.0025
303.15	0.0509	0.0029
313.15	0.0618	0.0034
323.15	0.0749	0.0044
333.15	0.0944	0.0056
343.15	0.1165	0.0064

System: butan-1-ol + N-acetyl-p-aminophenol; phases: Liquid, Crystal
Fixed: Pressure, kPa = 125
Property: Mole fraction of N-acetyl-p-aminophenol (Liquid); method: visual
Temperature, K	Mole fraction of N-acetyl-p-aminophenol	uncertainty
293.05	0.0364	0.0021
302.95	0.0439	0.0024
312.55	0.0526	0.003
323.05	0.0659	0.0037
332.55	0.0792	0.0045
343.65	0.099	0.006
353.15	0.1255	0.0075
362.65	0.1523	0.0083

System: butan-1-ol + N-acetyl-p-aminophenol; phases: Liquid, Crystal
Fixed: Pressure, kPa = 100
Property: Mole fraction of N-acetyl-p-aminophenol (Liquid); method: gravimetric
Temperature, K	Mole fraction of N-acetyl-p-aminophenol	uncertainty
293.15	0.0364	0.0021
303.15	0.0439	0.0024
313.15	0.0526	0.003
323.15	0.0659	0.0037
333.15	0.0792	0.0046
343.15	0.099	0.0061
353.15	0.1255	0.0073

System: pentan-1-ol + N-acetyl-p-aminophenol; phases: Liquid, Crystal
Fixed: Pressure, kPa = 125
Property: Mole fraction of N-acetyl-p-aminophenol (Liquid); method: visual
Temperature, K	Mole fraction of N-acetyl-p-aminophenol	uncertainty
303.55	0.038	0.0023
313.85	0.0468	0.0027
323.65	0.0571	0.0035
333.65	0.073	0.0044
343.55	0.0893	0.005
353.75	0.108	0.0062
361.55	0.1291	0.0075

System: pentan-1-ol + N-acetyl-p-aminophenol; phases: Liquid, Crystal
Fixed: Pressure, kPa = 100
Property: Mole fraction of N-acetyl-p-aminophenol (Liquid); method: gravimetric
Temperature, K	Mole fraction of N-acetyl-p-aminophenol	uncertainty
293.15	0.0348	0.0015
303.15	0.038	0.0019
313.15	0.0468	0.0027
323.15	0.0571	0.0035
333.15	0.073	0.0043
343.15	0.0893	0.005
353.15	0.108	0.0057

System: acetone + N-acetyl-p-aminophenol; phases: Liquid, Crystal
Fixed: Pressure, kPa = 125
Property: Mole fraction of N-acetyl-p-aminophenol (Liquid); method: visual
Temperature, K	Mole fraction of N-acetyl-p-aminophenol	uncertainty
292.95	0.0327	0.0021
302.85	0.0411	0.0027
311.95	0.0534	0.0037
320.65	0.068	0.0043

System: acetone + N-acetyl-p-aminophenol; phases: Liquid, Crystal
Fixed: Pressure, kPa = 100
Property: Mole fraction of N-acetyl-p-aminophenol (Liquid); method: gravimetric
Temperature, K	Mole fraction of N-acetyl-p-aminophenol	uncertainty
293.15	0.0327	0.0021
303.15	0.0411	0.0026
313.15	0.0534	0.0034
323.15	0.068	0.004

System: N-acetyl-p-aminophenol + water; phases: Liquid, Crystal
Fixed: Pressure, kPa = 100
Property: Mole fraction of N-acetyl-p-aminophenol (Liquid); method: gravimetric
Temperature, K	Mole fraction of N-acetyl-p-aminophenol	uncertainty
293.15	0.0015	0.0001
303.15	0.0021	0.0002
313.15	0.0027	0.0002
323.15	0.0038	0.0003
333.15	0.0057	0.0006
343.15	0.0092	0.001
353.15	0.0149	0.0013
