Measured thermophysical data. High Pressure Rheological Behavior of 1-Ethyl-3-methylimidazolium n-Hexylsulfate and Trihexyl(tetradecyl)phosphonium Tris(pentafluoroethyl)trifluorophosphate
Source: J. Chem. Eng. Data, 2017, 10.1021/acs.jced.7b00181
Compound 1: 3-ethyl-1-methyl-1H-imidazolium hexyl sulfate, C12H24N2O4S, InChI=1S/C6H11N2.C6H14O4S/c1-3-8-5-4-7(2)6-8;1-2-3-4-5-6-10-11(7,8)9/h4-6H,3H2,1-2H3;2-6H2,1H3,(H,7,8,9)/q+1;/p-1, purity 99.9%
Compound 2: trihexyl(tetradecyl)phosphonium tris(pentafluoroethyl)trifluorophosphate, C38H68F18P2, InChI=1S/C32H68P.C6F18P/c1-5-9-13-17-18-19-20-21-22-23-24-28-32-33(29-25-14-10-6-2,30-26-15-11-7-3)31-27-16-12-8-4;7-1(8,9)4(16,17)25(22,23,24,5(18,19)2(10,11)12)6(20,21)3(13,14)15/h5-32H2,1-4H3;/q+1;-1, purity 98%

System: 3-ethyl-1-methyl-1H-imidazolium hexyl sulfate; phases: Liquid
Property: Viscosity, Pa*s (Liquid); method: Concentric cylinders viscometry
Temperature, K	Pressure, kPa	Viscosity, Pa*s	uncertainty
298.15	10000	0.354	0.027
298.15	50000	0.571	0.045
298.15	75000	0.737	0.059
313.15	10000	0.154	0.012
313.15	50000	0.238	0.019
313.15	75000	0.304	0.025
323.15	10000	0.094	0.007
323.15	50000	0.142	0.011
323.15	75000	0.186	0.014
333.15	10000	0.0638	0.0046
333.15	50000	0.0948	0.0069
333.15	75000	0.12	0.009
343.15	10000	0.0445	0.0032
343.15	50000	0.0659	0.0048
343.15	75000	0.0821	0.006
353.15	10000	0.0314	0.0023
353.15	50000	0.046	0.0034
353.15	75000	0.0569	0.0042

System: trihexyl(tetradecyl)phosphonium tris(pentafluoroethyl)trifluorophosphate; phases: Liquid
Property: Viscosity, Pa*s (Liquid); method: Concentric cylinders viscometry
Temperature, K	Pressure, kPa	Viscosity, Pa*s	uncertainty
298.15	10000	0.413	0.032
298.15	50000	0.913	0.075
298.15	75000	1.417	0.119
313.15	10000	0.189	0.015
313.15	50000	0.401	0.033
313.15	75000	0.615	0.052
323.15	10000	0.114	0.009
323.15	50000	0.223	0.017
323.15	75000	0.364	0.029
333.15	10000	0.0781	0.0057
333.15	50000	0.159	0.012
333.15	75000	0.232	0.018
343.15	10000	0.0535	0.0039
343.15	50000	0.112	0.008
343.15	75000	0.162	0.012
353.15	10000	0.0379	0.0028
353.15	50000	0.0763	0.0056
353.15	75000	0.109	0.008
