Measured thermophysical data. Solubility Measurement and Correlation of Isobutane with Two Pentaerythritol Tetraalkyl Esters between (293.15 and 348.15) K
Source: J. Chem. Eng. Data, 2015, 10.1021/acs.jced.5b00082
Compound 1: 2-methylpropane, C4H10, InChI=1S/C4H10/c1-4(2)3/h4H,1-3H3
Compound 2: pentaerythritol tetrapentanoate, C25H44O8, InChI=1S/C25H44O8/c1-5-9-13-21(26)30-17-25(18-31-22(27)14-10-6-2,19-32-23(28)15-11-7-3)20-33-24(29)16-12-8-4/h5-20H2,1-4H3, purity 98%
Compound 3: pentaerythritol tetraheptanoate, C33H60O8, InChI=1S/C33H60O8/c1-5-9-13-17-21-29(34)38-25-33(26-39-30(35)22-18-14-10-6-2,27-40-31(36)23-19-15-11-7-3)28-41-32(37)24-20-16-12-8-4/h5-28H2,1-4H3, purity 98%

System: 2-methylpropane + pentaerythritol tetrapentanoate; phases: Liquid, Gas
Property: Mole fraction of 2-methylpropane (Liquid); method: pressure drop on dissolution
Temperature, K	Pressure, kPa	Mole fraction of 2-methylpropane	uncertainty
293.15	70	0.1849	0.0072
293.15	127	0.316	0.0106
293.15	198	0.4777	0.0152
293.15	244	0.5963	0.0189
293.15	275	0.7107	0.023
293.15	286	0.7805	0.0266
293.15	290	0.847	0.0313
303.15	81	0.1651	0.0063
303.15	145	0.2898	0.0095
303.15	230	0.4481	0.0141
303.15	293	0.57	0.0176
303.15	349	0.6914	0.0213
303.15	370	0.7659	0.0246
303.15	382	0.8384	0.0279
313.15	90	0.1479	0.0054
313.15	165	0.2637	0.0085
313.15	266	0.4158	0.0129
313.15	347	0.5378	0.0165
313.15	426	0.6656	0.0203
313.15	467	0.7478	0.0229
313.15	501	0.8291	0.0253
323.15	100	0.1328	0.0047
323.15	183	0.2395	0.0076
323.15	302	0.383	0.0118
323.15	403	0.5017	0.0153
323.15	511	0.6331	0.0192
323.15	575	0.7231	0.0219
323.15	628	0.8162	0.0247
333.15	110	0.1196	0.0042
333.15	201	0.2178	0.0069
333.15	335	0.3515	0.0108
333.15	460	0.4602	0.014
333.15	606	0.5888	0.0178
333.15	690	0.6913	0.0209
333.15	773	0.7979	0.0241
343.15	118	0.1082	0.0037
343.15	218	0.1954	0.0061
343.15	369	0.3182	0.0097
343.15	507	0.4262	0.013
343.15	683	0.5506	0.0167
343.15	812	0.6499	0.0196
343.15	954	0.768	0.0231
348.15	122	0.1036	0.0035
348.15	226	0.1866	0.0058
348.15	383	0.3055	0.0093
348.15	530	0.4098	0.0124
348.15	720	0.5316	0.0161
348.15	865	0.6302	0.019
348.15	1031	0.7534	0.0227

System: 2-methylpropane + pentaerythritol tetraheptanoate; phases: Liquid, Gas
Property: Mole fraction of 2-methylpropane (Liquid); method: pressure drop on dissolution
Temperature, K	Pressure, kPa	Mole fraction of 2-methylpropane	uncertainty
293.15	56	0.1991	0.0084
293.15	122	0.3928	0.0131
293.15	184	0.553	0.0174
293.15	227	0.6627	0.0206
293.15	258	0.7462	0.0231
293.15	276	0.8031	0.0253
293.15	287	0.8578	0.0276
303.15	66	0.1809	0.0072
303.15	143	0.3657	0.0119
303.15	217	0.5236	0.0163
303.15	278	0.6401	0.0196
303.15	322	0.7295	0.0223
303.15	351	0.7911	0.0241
303.15	377	0.8502	0.0259
313.15	75	0.1628	0.0062
313.15	165	0.3376	0.0108
313.15	256	0.4924	0.0152
313.15	335	0.6117	0.0186
313.15	398	0.707	0.0214
313.15	442	0.7746	0.0235
313.15	479	0.8408	0.0255
323.15	84	0.1475	0.0055
323.15	185	0.3104	0.0098
323.15	294	0.4594	0.0141
323.15	393	0.5797	0.0176
323.15	479	0.6795	0.0206
323.15	544	0.7529	0.0227
323.15	602	0.8276	0.025
333.15	92	0.133	0.0048
333.15	206	0.2842	0.0089
333.15	330	0.4266	0.0131
333.15	450	0.5453	0.0166
333.15	562	0.6469	0.0195
333.15	652	0.7258	0.0219
333.15	740	0.8099	0.0244
343.15	99	0.1198	0.0042
343.15	224	0.2604	0.0081
343.15	367	0.3927	0.012
343.15	503	0.5109	0.0155
343.15	644	0.6099	0.0184
343.15	763	0.6926	0.0209
343.15	894	0.7853	0.0236
348.15	103	0.1147	0.004
348.15	235	0.2468	0.0077
348.15	383	0.3784	0.0115
348.15	531	0.4918	0.0149
348.15	681	0.5927	0.0179
348.15	814	0.6758	0.0203
348.15	967	0.7718	0.0232
