Measured thermophysical data. Solid Liquid Equilibrium of Cellobiose, Sucrose, and Maltose Monohydrate in Ionic Liquids: Experimental and Quantum Chemical Insights
Source: J. Chem. Eng. Data, 2016, 10.1021/acs.jced.5b00914
Compound 1: D-cellobiose, C12H22O11, InChI=1S/C12H22O11/c13-1-3-5(15)6(16)9(19)12(22-3)23-10-4(2-14)21-11(20)8(18)7(10)17/h3-20H,1-2H2/t3-,4-,5-,6+,7-,8-,9-,10-,11-,12+/m1/s1, purity 98%
Compound 2: D-sucrose, C12H22O11, InChI=1S/C12H22O11/c13-1-4-6(16)8(18)9(19)11(21-4)23-12(3-15)10(20)7(17)5(2-14)22-12/h4-11,13-20H,1-3H2/t4-,5-,6-,7-,8+,9-,10+,11-,12+/m1/s1, purity 99.5%
Compound 3: 1-ethyl-3-methylimidazolium thiocyanate, C7H11N3S, InChI=1S/C6H11N2.CHNS/c1-3-8-5-4-7(2)6-8;2-1-3/h4-6H,3H2,1-2H3;3H/q+1;/p-1, purity 95%
Compound 4: tris(2-hydroxyethyl) methylammonium methylsulfate, C8H21NO7S, InChI=1S/C7H18NO3.CH4O4S/c1-8(2-5-9,3-6-10)4-7-11;1-5-6(2,3)4/h9-11H,2-7H2,1H3;1H3,(H,2,3,4)/q+1;/p-1, purity 95%

System: 1-ethyl-3-methylimidazolium thiocyanate; phases: Liquid
Fixed: Pressure, kPa = 101.325
Property: Mass density, kg/m3 (Liquid); method: Vibrating tube method
Temperature, K	Mass density, kg/m3	uncertainty
300.15	1115.1	7.6
303.29	1113.2	7.6
308.29	1110.2	7.5
313.29	1107	7.5
318.29	1104	7.5
323.29	1101.2	7.4

System: 1-ethyl-3-methylimidazolium thiocyanate; phases: Liquid
Fixed: Pressure, kPa = 101.325
Property: Viscosity, Pa*s (Liquid); method: Oscillating disk viscometry
Temperature, K	Viscosity, Pa*s	uncertainty
298.15	0.024	0.0041
303.15	0.0176	0.003
308.15	0.0138	0.0024
313.15	0.011161	0.00192
318.15	0.0097124	0.0016696
323.15	0.0086164	0.0014809
333.15	0.0070783	0.0012166

System: tris(2-hydroxyethyl) methylammonium methylsulfate; phases: Liquid
Fixed: Pressure, kPa = 101.325
Property: Mass density, kg/m3 (Liquid); method: Vibrating tube method
Temperature, K	Mass density, kg/m3	uncertainty
300.15	1341.5	10.4
303.29	1339.7	10.4
308.29	1336.7	10.4
313.29	1333.6	10.3
318.29	1330.9	10.3
323.29	1328	10.3

System: tris(2-hydroxyethyl) methylammonium methylsulfate; phases: Liquid
Fixed: Pressure, kPa = 101.325
Property: Viscosity, Pa*s (Liquid); method: Oscillating disk viscometry
Temperature, K	Viscosity, Pa*s	uncertainty
298.15	0.781	0.135
303.15	0.51	0.088
308.15	0.37	0.064
313.15	0.278	0.048
318.15	0.213	0.037
323.15	0.169	0.029
333.15	0.111	0.019

System: D-cellobiose + 1-ethyl-3-methylimidazolium thiocyanate; phases: Liquid, Crystal
Fixed: Pressure, kPa = 101
Property: Mole fraction of D-cellobiose (Liquid); method: NMR
Temperature, K	Mole fraction of D-cellobiose	uncertainty
304.15	0.048	0.028
314.15	0.0774	0.028
323.5	0.0978	0.028
332.9	0.1111	0.028
344.5	0.1218	0.028
353.15	0.1436	0.028

System: D-sucrose + 1-ethyl-3-methylimidazolium thiocyanate; phases: Liquid, Crystal
Fixed: Pressure, kPa = 101
Property: Mole fraction of D-sucrose (Liquid); method: NMR
Temperature, K	Mole fraction of D-sucrose	uncertainty
304.15	0.0417	0.04
314.15	0.0609	0.04
323.5	0.0712	0.04
332.9	0.1014	0.04
344.5	0.1341	0.04
353.15	0.1635	0.04

System: D-cellobiose + tris(2-hydroxyethyl) methylammonium methylsulfate; phases: Liquid, Crystal
Fixed: Pressure, kPa = 101
Property: Mole fraction of D-cellobiose (Liquid); method: NMR
Temperature, K	Mole fraction of D-cellobiose	uncertainty
302.15	0.0097	0.0097
313.15	0.0169	0.0169
323.8	0.0235	0.02
334.2	0.0402	0.02
343.15	0.0476	0.02
353.15	0.0788	0.02

System: D-sucrose + tris(2-hydroxyethyl) methylammonium methylsulfate; phases: Liquid, Crystal
Fixed: Pressure, kPa = 101
Property: Mole fraction of D-sucrose (Liquid); method: NMR
Temperature, K	Mole fraction of D-sucrose	uncertainty
302.15	0.0092	0.0092
313.15	0.0141	0.0141
323.8	0.0164	0.0164
334.2	0.0342	0.0342
343.15	0.0625	0.036
353.15	0.1284	0.036
