Measured thermophysical data. Solubility of Amorphous Clopidogrel Hydrogen Sulfate in Different Pure Solvents
Source: J. Chem. Eng. Data, 2015, 10.1021/acs.jced.5b00306
Compound 1: butan-1-ol, C4H10O, InChI=1S/C4H10O/c1-2-3-4-5/h5H,2-4H2,1H3, purity 99.5%
Compound 2: (S)-(+)-Clopidogrel hydrogen sulfate, C16H18ClNO6S2, InChI=1S/C16H16ClNO2S.H2O4S/c1-20-16(19)15(12-4-2-3-5-13(12)17)18-8-6-14-11(10-18)7-9-21-14;1-5(2,3)4/h2-5,7,9,15H,6,8,10H2,1H3;(H2,1,2,3,4)/t15-;/m0./s1, purity 99%
Compound 3: acetone, C3H6O, InChI=1S/C3H6O/c1-3(2)4/h1-2H3, purity 99.5%
Compound 4: propan-2-ol, C3H8O, InChI=1S/C3H8O/c1-3(2)4/h3-4H,1-2H3, purity 99.5%
Compound 5: butan-2-ol, C4H10O, InChI=1S/C4H10O/c1-3-4(2)5/h4-5H,3H2,1-2H3, purity 99.5%
Compound 6: methyl ethanoate, C3H6O2, InChI=1S/C3H6O2/c1-3(4)5-2/h1-2H3, purity 99.5%
Compound 7: ethyl acetate, C4H8O2, InChI=1S/C4H8O2/c1-3-6-4(2)5/h3H2,1-2H3, purity 99.5%
Compound 8: 2-methoxy-2-methylpropane, C5H12O, InChI=1S/C5H12O/c1-5(2,3)6-4/h1-4H3, purity 99.5%

System: butan-1-ol + (S)-(+)-Clopidogrel hydrogen sulfate; phases: Liquid, Crystal 2
Fixed: Pressure, kPa = 101
Property: Mole fraction of (S)-(+)-Clopidogrel hydrogen sulfate (Liquid); method: Titration method
Temperature, K	Mole fraction of (S)-(+)-Clopidogrel hydrogen sulfate	uncertainty
293.15	0.001262	0.000126
295.65	0.001429	0.000143
298.15	0.00162	0.000162
300.65	0.001834	0.000183
303.15	0.002076	0.000208
305.65	0.002347	0.000235
308.15	0.002651	0.000265
310.65	0.002991	0.000299
313.15	0.003373	0.000337
315.65	0.003799	0.00038
318.15	0.004276	0.000428

System: butan-1-ol + (S)-(+)-Clopidogrel hydrogen sulfate; phases: Liquid, Glass
Fixed: Pressure, kPa = 101
Property: Mole fraction of (S)-(+)-Clopidogrel hydrogen sulfate (Liquid); method: Titration method
Temperature, K	Mole fraction of (S)-(+)-Clopidogrel hydrogen sulfate	uncertainty
273.15	0.050215	0.005133
278.15	0.056038	0.005729
283.15	0.065471	0.006693
288.15	0.068614	0.007014
293.15	0.077105	0.007882
298.15	0.079987	0.008177
303.15	0.08695	0.008889
308.15	0.095236	0.009736

System: acetone + (S)-(+)-Clopidogrel hydrogen sulfate; phases: Liquid, Glass
Fixed: Pressure, kPa = 101
Property: Mole fraction of (S)-(+)-Clopidogrel hydrogen sulfate (Liquid); method: Titration method
Temperature, K	Mole fraction of (S)-(+)-Clopidogrel hydrogen sulfate	uncertainty
273.15	0.018817	0.001924
278.15	0.026169	0.002675
283.15	0.033942	0.00347
288.15	0.043616	0.004459
293.15	0.047398	0.004845
298.15	0.056702	0.005797
303.15	0.067168	0.006866
308.15	0.07603	0.007772

System: propan-2-ol + (S)-(+)-Clopidogrel hydrogen sulfate; phases: Liquid, Glass
Fixed: Pressure, kPa = 101
Property: Mole fraction of (S)-(+)-Clopidogrel hydrogen sulfate (Liquid); method: Titration method
Temperature, K	Mole fraction of (S)-(+)-Clopidogrel hydrogen sulfate	uncertainty
273.15	0.008147	0.000833
278.15	0.011288	0.001154
283.15	0.013192	0.001349
288.15	0.019813	0.002025
293.15	0.023725	0.002425
298.15	0.03053	0.003121
303.15	0.038168	0.003902
308.15	0.0463	0.004733

System: butan-2-ol + (S)-(+)-Clopidogrel hydrogen sulfate; phases: Liquid, Glass
Fixed: Pressure, kPa = 101
Property: Mole fraction of (S)-(+)-Clopidogrel hydrogen sulfate (Liquid); method: Titration method
Temperature, K	Mole fraction of (S)-(+)-Clopidogrel hydrogen sulfate	uncertainty
273.15	0.003769	0.000385
278.15	0.005279	0.00054
283.15	0.006784	0.000694
288.15	0.009606	0.000982
293.15	0.012715	0.0013
298.15	0.016016	0.001637
303.15	0.019111	0.001954
308.15	0.023846	0.002438

System: methyl ethanoate + (S)-(+)-Clopidogrel hydrogen sulfate; phases: Liquid, Glass
Fixed: Pressure, kPa = 101
Property: Mole fraction of (S)-(+)-Clopidogrel hydrogen sulfate (Liquid); method: Titration method
Temperature, K	Mole fraction of (S)-(+)-Clopidogrel hydrogen sulfate	uncertainty
273.15	0.000959	9.8e-05
278.15	0.001028	0.000105
283.15	0.001119	0.000114
288.15	0.001224	0.000125
293.15	0.001334	0.000136
298.15	0.001507	0.000154
303.15	0.001878	0.000192
308.15	0.002141	0.000219

System: ethyl acetate + (S)-(+)-Clopidogrel hydrogen sulfate; phases: Liquid, Glass
Fixed: Pressure, kPa = 101
Property: Mole fraction of (S)-(+)-Clopidogrel hydrogen sulfate (Liquid); method: Titration method
Temperature, K	Mole fraction of (S)-(+)-Clopidogrel hydrogen sulfate	uncertainty
273.15	0.000278	2.8e-05
278.15	0.000325	3.3e-05
283.15	0.000342	3.5e-05
288.15	0.000401	4.1e-05
293.15	0.000457	4.7e-05
298.15	0.000511	5.2e-05
303.15	0.000543	5.6e-05
308.15	0.000619	6.3e-05

System: 2-methoxy-2-methylpropane + (S)-(+)-Clopidogrel hydrogen sulfate; phases: Liquid, Glass
Fixed: Pressure, kPa = 101
Property: Mole fraction of (S)-(+)-Clopidogrel hydrogen sulfate (Liquid); method: Titration method
Temperature, K	Mole fraction of (S)-(+)-Clopidogrel hydrogen sulfate	uncertainty
273.15	6.2e-05	6e-06
278.15	6.5e-05	7e-06
283.15	7.5e-05	8e-06
288.15	8.6e-05	9e-06
293.15	0.000101	1e-05
298.15	0.00011	1.1e-05
303.15	0.000122	1.2e-05
308.15	0.000125	1.3e-05
