Measured thermophysical data. Surface Tension of Glycine, Alanine, Aminobutyric Acid, Norvaline, and Norleucine in Water and in Aqueous Solutions of Strong Electrolytes at Temperatures from (293.15 to 313.15) K
Source: J. Chem. Eng. Data, 2017, 10.1021/acs.jced.7b00433
Compound 1: 2-aminoacetic acid, C2H5NO2, InChI=1S/C2H5NO2/c3-1-2(4)5/h1,3H2,(H,4,5), purity 98%
Compound 2: DL-2-aminopropanoic acid, C3H7NO2, InChI=1S/C3H7NO2/c1-2(4)3(5)6/h2H,4H2,1H3,(H,5,6), purity 99%
Compound 3: (.+-.)-.alpha.-aminobutyric acid, C4H9NO2, InChI=1S/C4H9NO2/c1-2-3(5)4(6)7/h3H,2,5H2,1H3,(H,6,7), purity 99%
Compound 4: DL-2-aminopentanoic acid, C5H11NO2, InChI=1S/C5H11NO2/c1-2-3-4(6)5(7)8/h4H,2-3,6H2,1H3,(H,7,8), purity 99%
Compound 5: 2-aminohexanoic acid, C6H13NO2, InChI=1S/C6H13NO2/c1-2-3-4-5(7)6(8)9/h5H,2-4,7H2,1H3,(H,8,9), purity 99%
Compound 6: lithium chloride, ClLi, InChI=1S/ClH.Li/h1H;/q;+1/p-1, purity 99%
Compound 7: sodium chloride, ClNa, InChI=1S/ClH.Na/h1H;/q;+1/p-1, purity 99.5%
Compound 8: potassium chloride, ClK, InChI=1S/ClH.K/h1H;/q;+1/p-1, purity 99.5%
Compound 9: ammonium sulfate, H8N2O4S, InChI=1S/2H3N.H2O4S/c;;1-5(2,3)4/h2*1H3;(H2,1,2,3,4), purity 99%
Compound 10: sodium sulfate, Na2O4S, InChI=1S/2Na.H2O4S/c;;1-5(2,3)4/h;;(H2,1,2,3,4)/q2*+1;/p-2, purity 99%
Compound 11: water, H2O, InChI=1S/H2O/h1H2, purity 99.9%

System: 2-aminoacetic acid + water; phases: Liquid, Gas
Property: Surface tension liquid-gas, N/m (Liquid); method: Drop volume
Temperature, K	Mole fraction of 2-aminoacetic acid	Surface tension liquid-gas, N/m	uncertainty
293.15	0	0.07245	0.00028
293.15	0.000175	0.07247	0.00028
293.15	0.000349	0.07249	0.00028
293.15	0.000698	0.07252	0.00028
293.15	0.001043	0.07257	0.00028
293.15	0.001394	0.07262	0.00028
293.15	0.00174	0.07268	0.00028
293.15	0.002087	0.07273	0.00028
293.15	0.002641	0.07281	0.00028
298.15	0	0.07173	0.00027
298.15	0.000175	0.07175	0.00027
298.15	0.000349	0.07179	0.00027
298.15	0.000698	0.07186	0.00027
298.15	0.001043	0.07192	0.00027
298.15	0.001394	0.07199	0.00028
298.15	0.00174	0.07205	0.00028
298.15	0.002087	0.07211	0.00028
298.15	0.002641	0.0722	0.00028
303.15	0	0.071	0.00027
303.15	0.000175	0.07104	0.00027
303.15	0.000349	0.07112	0.00027
303.15	0.000698	0.07123	0.00027
303.15	0.001043	0.07133	0.00027
303.15	0.001394	0.07143	0.00027
303.15	0.00174	0.07154	0.00027
303.15	0.002087	0.07164	0.00027
303.15	0.002641	0.07176	0.00027
308.15	0	0.07022	0.00027
308.15	0.000175	0.07026	0.00027
308.15	0.000349	0.07038	0.00027
308.15	0.000698	0.07052	0.00027
308.15	0.001043	0.07066	0.00027
308.15	0.001394	0.07081	0.00027
308.15	0.00174	0.07095	0.00027
308.15	0.002087	0.07109	0.00027
308.15	0.002641	0.07125	0.00027
313.15	0	0.06945	0.00027
313.15	0.000175	0.06949	0.00027
313.15	0.000349	0.06963	0.00027
313.15	0.000698	0.06979	0.00027
313.15	0.001043	0.06995	0.00027
313.15	0.001394	0.07011	0.00027
313.15	0.00174	0.07027	0.00027
313.15	0.002087	0.07043	0.00027
313.15	0.002641	0.07061	0.00027

System: DL-2-aminopropanoic acid + water; phases: Liquid, Gas
Property: Surface tension liquid-gas, N/m (Liquid); method: Drop volume
Temperature, K	Mole fraction of DL-2-aminopropanoic acid	Surface tension liquid-gas, N/m	uncertainty
293.15	0	0.0725	0.00028
293.15	0.000176	0.07252	0.00028
293.15	0.000353	0.07253	0.00028
293.15	0.000705	0.07255	0.00028
293.15	0.001055	0.07258	0.00028
293.15	0.001406	0.07259	0.00028
293.15	0.001752	0.07262	0.00028
293.15	0.002105	0.07264	0.00028
293.15	0.002642	0.07268	0.00028
298.15	0	0.07173	0.00027
298.15	0.000176	0.07183	0.00027
298.15	0.000353	0.07186	0.00027
298.15	0.000705	0.0719	0.00027
298.15	0.001055	0.07195	0.00027
298.15	0.001406	0.072	0.00028
298.15	0.001752	0.07207	0.00028
298.15	0.002105	0.0721	0.00028
298.15	0.002642	0.07218	0.00028
303.15	0	0.07104	0.00027
303.15	0.000176	0.07111	0.00027
303.15	0.000353	0.07115	0.00027
303.15	0.000705	0.07125	0.00027
303.15	0.001055	0.07135	0.00027
303.15	0.001406	0.07144	0.00027
303.15	0.001752	0.0715	0.00027
303.15	0.002105	0.07161	0.00027
303.15	0.002642	0.07172	0.00027
308.15	0	0.0703	0.00027
308.15	0.000176	0.0704	0.00027
308.15	0.000353	0.07042	0.00027
308.15	0.000705	0.07057	0.00027
308.15	0.001055	0.0707	0.00027
308.15	0.001406	0.07083	0.00027
308.15	0.001752	0.07094	0.00027
308.15	0.002105	0.07109	0.00027
308.15	0.002642	0.07128	0.00027
313.15	0	0.06942	0.00027
313.15	0.000176	0.06948	0.00027
313.15	0.000353	0.06959	0.00027
313.15	0.000705	0.06973	0.00027
313.15	0.001055	0.06987	0.00027
313.15	0.001406	0.07002	0.00027
313.15	0.001752	0.0702	0.00027
313.15	0.002105	0.07036	0.00027
313.15	0.002642	0.07057	0.00027

System: (.+-.)-.alpha.-aminobutyric acid + water; phases: Liquid, Gas
Property: Surface tension liquid-gas, N/m (Liquid); method: Drop volume
Temperature, K	Mole fraction of (.+-.)-.alpha.-aminobutyric acid	Surface tension liquid-gas, N/m	uncertainty
293.15	0	0.0725	0.00028
293.15	0.000177	0.07249	0.00028
293.15	0.000351	0.07249	0.00028
293.15	0.000702	0.07248	0.00028
293.15	0.001053	0.07247	0.00028
293.15	0.001403	0.07246	0.00028
293.15	0.001754	0.07245	0.00028
293.15	0.002103	0.07244	0.00028
293.15	0.002641	0.07243	0.00028
298.15	0	0.07173	0.00027
298.15	0.000177	0.0718	0.00027
298.15	0.000351	0.07179	0.00027
298.15	0.000702	0.07177	0.00027
298.15	0.001053	0.07175	0.00027
298.15	0.001403	0.07174	0.00027
298.15	0.001754	0.07172	0.00027
298.15	0.002103	0.07171	0.00027
298.15	0.002641	0.07169	0.00027
303.15	0	0.0711	0.00027
303.15	0.000177	0.07108	0.00027
303.15	0.000351	0.07107	0.00027
303.15	0.000702	0.07105	0.00027
303.15	0.001053	0.07102	0.00027
303.15	0.001403	0.071	0.00027
303.15	0.001754	0.07098	0.00027
303.15	0.002103	0.07096	0.00027
303.15	0.002641	0.07093	0.00027
308.15	0	0.07027	0.00027
308.15	0.000177	0.07025	0.00027
308.15	0.000351	0.07024	0.00027
308.15	0.000702	0.07021	0.00027
308.15	0.001053	0.07019	0.00027
308.15	0.001403	0.07015	0.00027
308.15	0.001754	0.07013	0.00027
308.15	0.002103	0.07009	0.00027
308.15	0.002641	0.07007	0.00027
313.15	0	0.0695	0.00027
313.15	0.000177	0.06947	0.00027
313.15	0.000351	0.06945	0.00027
313.15	0.000702	0.06942	0.00027
313.15	0.001053	0.06939	0.00027
313.15	0.001403	0.06935	0.00027
313.15	0.001754	0.06931	0.00027
313.15	0.002103	0.06928	0.00027
313.15	0.002641	0.06922	0.00027

System: DL-2-aminopentanoic acid + water; phases: Liquid, Gas
Property: Surface tension liquid-gas, N/m (Liquid); method: Drop volume
Temperature, K	Mole fraction of DL-2-aminopentanoic acid	Surface tension liquid-gas, N/m	uncertainty
293.15	0	0.07258	0.00028
293.15	0.000173	0.07255	0.00028
293.15	0.000347	0.07251	0.00028
293.15	0.000561	0.07243	0.00028
293.15	0.00104	0.07237	0.00028
293.15	0.001386	0.07231	0.00028
293.15	0.001733	0.07225	0.00028
293.15	0.002079	0.07216	0.00028
293.15	0.002641	0.07206	0.00028
298.15	0	0.07173	0.00027
298.15	0.000173	0.07184	0.00027
298.15	0.000347	0.0718	0.00027
298.15	0.000561	0.07171	0.00027
298.15	0.00104	0.07163	0.00027
298.15	0.001386	0.07153	0.00027
298.15	0.001733	0.07147	0.00027
298.15	0.002079	0.07141	0.00027
298.15	0.002641	0.07125	0.00027
303.15	0	0.07121	0.00027
303.15	0.000173	0.07116	0.00027
303.15	0.000347	0.07113	0.00027
303.15	0.000561	0.07101	0.00027
303.15	0.00104	0.07091	0.00027
303.15	0.001386	0.07079	0.00027
303.15	0.001733	0.07071	0.00027
303.15	0.002079	0.07065	0.00027
303.15	0.002641	0.0705	0.00027
308.15	0	0.0704	0.00027
308.15	0.000173	0.07035	0.00027
308.15	0.000347	0.07031	0.00027
308.15	0.000561	0.0702	0.00027
308.15	0.00104	0.0701	0.00027
308.15	0.001386	0.07002	0.00027
308.15	0.001733	0.06985	0.00027
308.15	0.002079	0.06978	0.00027
308.15	0.002641	0.06963	0.00027
313.15	0	0.06946	0.00027
313.15	0.000173	0.06939	0.00027
313.15	0.000347	0.06934	0.00027
313.15	0.000561	0.06922	0.00027
313.15	0.00104	0.06907	0.00027
313.15	0.001386	0.069	0.00027
313.15	0.001733	0.06886	0.00027
313.15	0.002079	0.06875	0.00027
313.15	0.002641	0.06858	0.00027

System: 2-aminohexanoic acid + water; phases: Liquid, Gas
Property: Surface tension liquid-gas, N/m (Liquid); method: Drop volume
Temperature, K	Mole fraction of 2-aminohexanoic acid	Surface tension liquid-gas, N/m	uncertainty
293.15	0	0.0725	0.00028
293.15	0.000156	0.0724	0.00028
293.15	0.000311	0.07221	0.00028
293.15	0.000524	0.07202	0.00028
293.15	0.000699	0.07185	0.00027
293.15	0.000873	0.07171	0.00027
293.15	0.001048	0.07148	0.00027
293.15	0.001222	0.07128	0.00027
293.15	0.001411	0.07109	0.00027
298.15	0	0.07173	0.00027
298.15	0.000156	0.07155	0.00027
298.15	0.000311	0.07128	0.00027
298.15	0.000524	0.07114	0.00027
298.15	0.000699	0.071	0.00027
298.15	0.000873	0.07082	0.00027
298.15	0.001048	0.07059	0.00027
298.15	0.001222	0.07042	0.00027
298.15	0.001411	0.07018	0.00027
303.15	0	0.071	0.00027
303.15	0.000156	0.07074	0.00027
303.15	0.000311	0.07054	0.00027
303.15	0.000524	0.07043	0.00027
303.15	0.000699	0.07022	0.00027
303.15	0.000873	0.07006	0.00027
303.15	0.001048	0.06979	0.00027
303.15	0.001222	0.06965	0.00027
303.15	0.001411	0.06944	0.00027
308.15	0	0.07023	0.00027
308.15	0.000156	0.0699	0.00027
308.15	0.000311	0.0698	0.00027
308.15	0.000524	0.06962	0.00027
308.15	0.000699	0.06944	0.00027
308.15	0.000873	0.06923	0.00027
308.15	0.001048	0.069	0.00027
308.15	0.001222	0.0688	0.00027
308.15	0.001411	0.06859	0.00027
313.15	0	0.06942	0.00027
313.15	0.000156	0.0692	0.00027
313.15	0.000311	0.06902	0.00027
313.15	0.000524	0.06891	0.00027
313.15	0.000699	0.06868	0.00027
313.15	0.000873	0.06847	0.00027
313.15	0.001048	0.06818	0.00026
313.15	0.001222	0.06802	0.00026
313.15	0.001411	0.06787	0.00026

System: 2-aminoacetic acid + lithium chloride + water; phases: Liquid, Gas
Fixed: Solvent: Mole fraction of lithium chloride = 0.0027
Property: Surface tension liquid-gas, N/m (Liquid); method: Drop volume
Temperature, K	Mole fraction of 2-aminoacetic acid	Surface tension liquid-gas, N/m	uncertainty
293.15	0	0.07282	0.00047
293.15	0.000179	0.07284	0.00047
293.15	0.000358	0.07285	0.00047
293.15	0.000717	0.07289	0.00047
293.15	0.001077	0.07292	0.00047
293.15	0.001439	0.07296	0.00047
293.15	0.0018	0.07299	0.00047
293.15	0.002163	0.07303	0.00047
293.15	0.002765	0.07308	0.00047
298.15	0	0.07211	0.00046
298.15	0.000179	0.07212	0.00046
298.15	0.000358	0.07213	0.00046
298.15	0.000717	0.07217	0.00046
298.15	0.001077	0.0722	0.00046
298.15	0.001439	0.07224	0.00046
298.15	0.0018	0.07227	0.00046
298.15	0.002163	0.0723	0.00046
298.15	0.002765	0.07236	0.00046
303.15	0	0.07135	0.00046
303.15	0.000179	0.07136	0.00046
303.15	0.000358	0.07137	0.00046
303.15	0.000717	0.07141	0.00046
303.15	0.001077	0.07144	0.00046
303.15	0.001439	0.07147	0.00046
303.15	0.0018	0.0715	0.00046
303.15	0.002163	0.07154	0.00046
303.15	0.002765	0.07159	0.00046
308.15	0	0.07056	0.00045
308.15	0.000179	0.07058	0.00045
308.15	0.000358	0.07059	0.00045
308.15	0.000717	0.07062	0.00045
308.15	0.001077	0.07065	0.00045
308.15	0.001439	0.07068	0.00045
308.15	0.0018	0.07072	0.00045
308.15	0.002163	0.07075	0.00045
308.15	0.002765	0.0708	0.00045
313.15	0	0.06973	0.00045
313.15	0.000179	0.06975	0.00045
313.15	0.000358	0.06976	0.00045
313.15	0.000717	0.06979	0.00045
313.15	0.001077	0.06982	0.00045
313.15	0.001439	0.06985	0.00045
313.15	0.0018	0.06988	0.00045
313.15	0.002163	0.06991	0.00045
313.15	0.002765	0.06996	0.00045

System: DL-2-aminopropanoic acid + lithium chloride + water; phases: Liquid, Gas
Fixed: Solvent: Mole fraction of lithium chloride = 0.0027
Property: Surface tension liquid-gas, N/m (Liquid); method: Drop volume
Temperature, K	Mole fraction of DL-2-aminopropanoic acid	Surface tension liquid-gas, N/m	uncertainty
293.15	0	0.07282	0.00037
293.15	0.000179	0.07282	0.00037
293.15	0.000358	0.07285	0.00038
293.15	0.000701	0.07286	0.00038
293.15	0.001076	0.07289	0.00038
293.15	0.001436	0.07291	0.00038
293.15	0.001798	0.07293	0.00038
293.15	0.002161	0.07295	0.00038
293.15	0.002737	0.07298	0.00038
298.15	0	0.0721	0.00037
298.15	0.000179	0.0721	0.00037
298.15	0.000358	0.07211	0.00037
298.15	0.000701	0.07212	0.00037
298.15	0.001076	0.07213	0.00037
298.15	0.001436	0.07215	0.00037
298.15	0.001798	0.07217	0.00037
298.15	0.002161	0.07221	0.00037
298.15	0.002737	0.07224	0.00037
303.15	0	0.07137	0.00037
303.15	0.000179	0.07137	0.00037
303.15	0.000358	0.07137	0.00037
303.15	0.000701	0.07139	0.00037
303.15	0.001076	0.07141	0.00037
303.15	0.001436	0.07143	0.00037
303.15	0.001798	0.07144	0.00037
303.15	0.002161	0.07146	0.00037
303.15	0.002737	0.0715	0.00037
308.15	0	0.0706	0.00037
308.15	0.000179	0.0706	0.00037
308.15	0.000358	0.0706	0.00037
308.15	0.000701	0.07062	0.00037
308.15	0.001076	0.07064	0.00037
308.15	0.001436	0.07066	0.00037
308.15	0.001798	0.07068	0.00037
308.15	0.002161	0.0707	0.00037
308.15	0.002737	0.07073	0.00037
313.15	0	0.06977	0.00036
313.15	0.000179	0.06977	0.00036
313.15	0.000358	0.06977	0.00036
313.15	0.000701	0.06979	0.00036
313.15	0.001076	0.06981	0.00036
313.15	0.001436	0.06983	0.00036
313.15	0.001798	0.06984	0.00036
313.15	0.002161	0.06986	0.00036
313.15	0.002737	0.0699	0.00036

System: (.+-.)-.alpha.-aminobutyric acid + lithium chloride + water; phases: Liquid, Gas
Fixed: Solvent: Mole fraction of lithium chloride = 0.0027
Property: Surface tension liquid-gas, N/m (Liquid); method: Drop volume
Temperature, K	Mole fraction of (.+-.)-.alpha.-aminobutyric acid	Surface tension liquid-gas, N/m	uncertainty
293.15	0	0.0728	0.00037
293.15	0.000178	0.07279	0.00037
293.15	0.000356	0.07278	0.00037
293.15	0.000714	0.07277	0.00037
293.15	0.001048	0.07276	0.00037
293.15	0.001433	0.07274	0.00037
293.15	0.001795	0.07273	0.00037
293.15	0.002154	0.07272	0.00037
293.15	0.002738	0.0727	0.00037
298.15	0	0.07211	0.00037
298.15	0.000178	0.0721	0.00037
298.15	0.000356	0.07209	0.00037
298.15	0.000714	0.07208	0.00037
298.15	0.001048	0.07207	0.00037
298.15	0.001433	0.07206	0.00037
298.15	0.001795	0.07204	0.00037
298.15	0.002154	0.07202	0.00037
298.15	0.002738	0.07199	0.00037
303.15	0	0.07139	0.00037
303.15	0.000178	0.07138	0.00037
303.15	0.000356	0.07137	0.00037
303.15	0.000714	0.07135	0.00037
303.15	0.001048	0.07134	0.00037
303.15	0.001433	0.07133	0.00037
303.15	0.001795	0.07131	0.00037
303.15	0.002154	0.07128	0.00037
303.15	0.002738	0.07125	0.00037
308.15	0	0.07056	0.00037
308.15	0.000178	0.07054	0.00036
308.15	0.000356	0.07053	0.00036
308.15	0.000714	0.07051	0.00036
308.15	0.001048	0.07049	0.00036
308.15	0.001433	0.07047	0.00036
308.15	0.001795	0.07044	0.00036
308.15	0.002154	0.0704	0.00036
308.15	0.002738	0.07036	0.00036
313.15	0	0.06977	0.00036
313.15	0.000178	0.06975	0.00036
313.15	0.000356	0.06975	0.00036
313.15	0.000714	0.0697	0.00036
313.15	0.001048	0.06968	0.00036
313.15	0.001433	0.06966	0.00036
313.15	0.001795	0.06961	0.00036
313.15	0.002154	0.06955	0.00036
313.15	0.002738	0.0695	0.00036

System: DL-2-aminopentanoic acid + lithium chloride + water; phases: Liquid, Gas
Fixed: Solvent: Mole fraction of lithium chloride = 0.0027
Property: Surface tension liquid-gas, N/m (Liquid); method: Drop volume
Temperature, K	Mole fraction of DL-2-aminopentanoic acid	Surface tension liquid-gas, N/m	uncertainty
293.15	0	0.07279	0.00037
293.15	0.000176	0.07282	0.00037
293.15	0.000352	0.0728	0.00037
293.15	0.000706	0.07278	0.00037
293.15	0.001061	0.07275	0.00037
293.15	0.001417	0.0727	0.00037
293.15	0.001774	0.07262	0.00037
293.15	0.002134	0.07254	0.00037
293.15	0.002737	0.07238	0.00037
298.15	0	0.07211	0.00037
298.15	0.000176	0.0721	0.00037
298.15	0.000352	0.07209	0.00037
298.15	0.000706	0.07206	0.00037
298.15	0.001061	0.072	0.00037
298.15	0.001417	0.07195	0.00037
298.15	0.001774	0.07188	0.00037
298.15	0.002134	0.07181	0.00037
298.15	0.002737	0.07164	0.00037
303.15	0	0.07135	0.00037
303.15	0.000176	0.07136	0.00037
303.15	0.000352	0.07135	0.00037
303.15	0.000706	0.07132	0.00037
303.15	0.001061	0.07121	0.00037
303.15	0.001417	0.07111	0.00037
303.15	0.001774	0.07102	0.00037
303.15	0.002134	0.07085	0.00037
303.15	0.002737	0.07061	0.00037
308.15	0	0.07058	0.00037
308.15	0.000176	0.0706	0.00037
308.15	0.000352	0.07058	0.00037
308.15	0.000706	0.07055	0.00037
308.15	0.001061	0.07052	0.00036
308.15	0.001417	0.07046	0.00036
308.15	0.001774	0.07037	0.00036
308.15	0.002134	0.07023	0.00036
308.15	0.002737	0.07005	0.00036
313.15	0	0.06975	0.00036
313.15	0.000176	0.06977	0.00036
313.15	0.000352	0.06974	0.00036
313.15	0.000706	0.06971	0.00036
313.15	0.001061	0.06969	0.00036
313.15	0.001417	0.06964	0.00036
313.15	0.001774	0.06957	0.00036
313.15	0.002134	0.06945	0.00036
313.15	0.002737	0.06926	0.00036

System: 2-aminohexanoic acid + lithium chloride + water; phases: Liquid, Gas
Fixed: Solvent: Mole fraction of lithium chloride = 0.0027
Property: Surface tension liquid-gas, N/m (Liquid); method: Drop volume
Temperature, K	Mole fraction of 2-aminohexanoic acid	Surface tension liquid-gas, N/m	uncertainty
293.15	0	0.0728	0.00037
293.15	8.9e-05	0.07284	0.00037
293.15	0.000177	0.07275	0.00037
293.15	0.000355	0.07251	0.00037
293.15	0.000534	0.07232	0.00037
293.15	0.000712	0.07218	0.00037
293.15	0.000891	0.07193	0.00037
293.15	0.00107	0.07163	0.00037
293.15	0.001279	0.07124	0.00037
298.15	0	0.07208	0.00037
298.15	8.9e-05	0.07212	0.00037
298.15	0.000177	0.07198	0.00037
298.15	0.000355	0.07178	0.00037
298.15	0.000534	0.07161	0.00037
298.15	0.000712	0.0714	0.00037
298.15	0.000891	0.07113	0.00037
298.15	0.00107	0.07084	0.00037
298.15	0.001279	0.07064	0.00037
303.15	0	0.07142	0.00037
303.15	8.9e-05	0.07138	0.00037
303.15	0.000177	0.07125	0.00037
303.15	0.000355	0.07104	0.00037
303.15	0.000534	0.07086	0.00037
303.15	0.000712	0.07063	0.00037
303.15	0.000891	0.07033	0.00036
303.15	0.00107	0.07006	0.00036
303.15	0.001279	0.06975	0.00036
308.15	0	0.07056	0.00037
308.15	8.9e-05	0.07057	0.00037
308.15	0.000177	0.07042	0.00036
308.15	0.000355	0.07019	0.00036
308.15	0.000534	0.07	0.00036
308.15	0.000712	0.06979	0.00036
308.15	0.000891	0.06951	0.00036
308.15	0.00107	0.06933	0.00036
308.15	0.001279	0.06899	0.00036
313.15	0	0.06975	0.00036
313.15	8.9e-05	0.0698	0.00036
313.15	0.000177	0.06966	0.00036
313.15	0.000355	0.06942	0.00036
313.15	0.000534	0.06928	0.00036
313.15	0.000712	0.06902	0.00036
313.15	0.000891	0.06877	0.00036
313.15	0.00107	0.06847	0.00036
313.15	0.001279	0.06823	0.00035

System: 2-aminoacetic acid + sodium chloride + water; phases: Liquid, Gas
Fixed: Solvent: Mole fraction of sodium chloride = 0.0027
Property: Surface tension liquid-gas, N/m (Liquid); method: Drop volume
Temperature, K	Mole fraction of 2-aminoacetic acid	Surface tension liquid-gas, N/m	uncertainty
293.15	0	0.07281	0.00042
293.15	0.00018	0.07282	0.00042
293.15	0.000359	0.07284	0.00042
293.15	0.00072	0.07287	0.00042
293.15	0.001081	0.07291	0.00042
293.15	0.001441	0.07294	0.00042
293.15	0.001805	0.07298	0.00042
293.15	0.002168	0.07301	0.00042
293.15	0.002772	0.07306	0.00042
298.15	0	0.07207	0.00041
298.15	0.00018	0.07208	0.00041
298.15	0.000359	0.0721	0.00041
298.15	0.00072	0.07213	0.00042
298.15	0.001081	0.07216	0.00042
298.15	0.001441	0.0722	0.00042
298.15	0.001805	0.07223	0.00042
298.15	0.002168	0.07226	0.00042
298.15	0.002772	0.07231	0.00042
303.15	0	0.07159	0.00041
303.15	0.00018	0.0716	0.00041
303.15	0.000359	0.07161	0.00041
303.15	0.00072	0.07164	0.00041
303.15	0.001081	0.07168	0.00041
303.15	0.001441	0.07171	0.00041
303.15	0.001805	0.07174	0.00041
303.15	0.002168	0.07177	0.00041
303.15	0.002772	0.07182	0.00041
308.15	0	0.07079	0.00041
308.15	0.00018	0.0708	0.00041
308.15	0.000359	0.07081	0.00041
308.15	0.00072	0.07084	0.00041
308.15	0.001081	0.07087	0.00041
308.15	0.001441	0.07091	0.00041
308.15	0.001805	0.07094	0.00041
308.15	0.002168	0.07097	0.00041
308.15	0.002772	0.07101	0.00041
313.15	0	0.06986	0.0004
313.15	0.00018	0.06987	0.0004
313.15	0.000359	0.06992	0.0004
313.15	0.00072	0.06997	0.0004
313.15	0.001081	0.07002	0.0004
313.15	0.001441	0.07007	0.0004
313.15	0.001805	0.07012	0.0004
313.15	0.002168	0.07013	0.0004
313.15	0.002772	0.0702	0.00041

System: DL-2-aminopropanoic acid + sodium chloride + water; phases: Liquid, Gas
Fixed: Solvent: Mole fraction of sodium chloride = 0.0027
Property: Surface tension liquid-gas, N/m (Liquid); method: Drop volume
Temperature, K	Mole fraction of DL-2-aminopropanoic acid	Surface tension liquid-gas, N/m	uncertainty
293.15	0	0.07281	0.00034
293.15	0.000179	0.07281	0.00034
293.15	0.000358	0.07282	0.00034
293.15	0.000718	0.07284	0.00034
293.15	0.001079	0.07286	0.00034
293.15	0.001442	0.07288	0.00034
293.15	0.001743	0.0729	0.00034
293.15	0.002161	0.07291	0.00034
293.15	0.002744	0.07294	0.00034
298.15	0	0.07207	0.00033
298.15	0.000179	0.07207	0.00033
298.15	0.000358	0.07208	0.00033
298.15	0.000718	0.0721	0.00033
298.15	0.001079	0.07211	0.00033
298.15	0.001442	0.07213	0.00033
298.15	0.001743	0.07215	0.00033
298.15	0.002161	0.07217	0.00033
298.15	0.002744	0.0722	0.00033
303.15	0	0.07159	0.00033
303.15	0.000179	0.07159	0.00033
303.15	0.000358	0.0716	0.00033
303.15	0.000718	0.0716	0.00033
303.15	0.001079	0.07162	0.00033
303.15	0.001442	0.07164	0.00033
303.15	0.001743	0.07166	0.00033
303.15	0.002161	0.07168	0.00033
303.15	0.002744	0.07172	0.00033
308.15	0	0.07079	0.00033
308.15	0.000179	0.07079	0.00033
308.15	0.000358	0.0708	0.00033
308.15	0.000718	0.0708	0.00033
308.15	0.001079	0.07082	0.00033
308.15	0.001442	0.07084	0.00033
308.15	0.001743	0.07085	0.00033
308.15	0.002161	0.07088	0.00033
308.15	0.002744	0.07091	0.00033
313.15	0	0.06986	0.00033
313.15	0.000179	0.06986	0.00033
313.15	0.000358	0.06986	0.00033
313.15	0.000718	0.06987	0.00033
313.15	0.001079	0.06989	0.00033
313.15	0.001442	0.06991	0.00033
313.15	0.001743	0.06992	0.00033
313.15	0.002161	0.06994	0.00033
313.15	0.002744	0.06997	0.00033

System: (.+-.)-.alpha.-aminobutyric acid + sodium chloride + water; phases: Liquid, Gas
Fixed: Solvent: Mole fraction of sodium chloride = 0.0027
Property: Surface tension liquid-gas, N/m (Liquid); method: Drop volume
Temperature, K	Mole fraction of (.+-.)-.alpha.-aminobutyric acid	Surface tension liquid-gas, N/m	uncertainty
293.15	0	0.07281	0.00034
293.15	0.000179	0.0728	0.00034
293.15	0.000358	0.07279	0.00034
293.15	0.000717	0.07277	0.00034
293.15	0.001077	0.07275	0.00034
293.15	0.001439	0.07273	0.00034
293.15	0.001762	0.0727	0.00034
293.15	0.002165	0.07269	0.00034
293.15	0.002744	0.07265	0.00034
298.15	0	0.07207	0.00033
298.15	0.000179	0.07206	0.00033
298.15	0.000358	0.07205	0.00033
298.15	0.000717	0.07203	0.00033
298.15	0.001077	0.072	0.00033
298.15	0.001439	0.07198	0.00033
298.15	0.001762	0.07196	0.00033
298.15	0.002165	0.07193	0.00033
298.15	0.002744	0.07188	0.00033
303.15	0	0.07159	0.00033
303.15	0.000179	0.07157	0.00033
303.15	0.000358	0.07156	0.00033
303.15	0.000717	0.07154	0.00033
303.15	0.001077	0.07152	0.00033
303.15	0.001439	0.07149	0.00033
303.15	0.001762	0.07147	0.00033
303.15	0.002165	0.07144	0.00033
303.15	0.002744	0.07139	0.00033
308.15	0	0.07079	0.00033
308.15	0.000179	0.07078	0.00033
308.15	0.000358	0.07075	0.00033
308.15	0.000717	0.07072	0.00033
308.15	0.001077	0.0707	0.00033
308.15	0.001439	0.07067	0.00033
308.15	0.001762	0.07065	0.00033
308.15	0.002165	0.07059	0.00033
308.15	0.002744	0.07054	0.00033
313.15	0	0.06986	0.00033
313.15	0.000179	0.06986	0.00033
313.15	0.000358	0.06985	0.00033
313.15	0.000717	0.06982	0.00033
313.15	0.001077	0.0698	0.00033
313.15	0.001439	0.06976	0.00033
313.15	0.001762	0.06973	0.00033
313.15	0.002165	0.06969	0.00032
313.15	0.002744	0.06962	0.00032

System: DL-2-aminopentanoic acid + sodium chloride + water; phases: Liquid, Gas
Fixed: Solvent: Mole fraction of sodium chloride = 0.0027
Property: Surface tension liquid-gas, N/m (Liquid); method: Drop volume
Temperature, K	Mole fraction of DL-2-aminopentanoic acid	Surface tension liquid-gas, N/m	uncertainty
293.15	0	0.07281	0.00034
293.15	0.000175	0.0728	0.00034
293.15	0.00035	0.07278	0.00034
293.15	0.000702	0.07274	0.00034
293.15	0.001055	0.07269	0.00034
293.15	0.001409	0.07262	0.00034
293.15	0.001757	0.07254	0.00034
293.15	0.00212	0.07241	0.00034
293.15	0.00273	0.07225	0.00033
298.15	0	0.07207	0.00033
298.15	0.000175	0.07204	0.00033
298.15	0.00035	0.07201	0.00033
298.15	0.000702	0.07199	0.00033
298.15	0.001055	0.0719	0.00033
298.15	0.001409	0.07184	0.00033
298.15	0.001757	0.07175	0.00033
298.15	0.00212	0.07168	0.00033
298.15	0.00273	0.07152	0.00033
303.15	0	0.07159	0.00033
303.15	0.000175	0.07154	0.00033
303.15	0.00035	0.07148	0.00033
303.15	0.000702	0.07139	0.00033
303.15	0.001055	0.07133	0.00033
303.15	0.001409	0.07121	0.00033
303.15	0.001757	0.07109	0.00033
303.15	0.00212	0.07093	0.00033
303.15	0.00273	0.07077	0.00033
308.15	0	0.07079	0.00033
308.15	0.000175	0.07072	0.00033
308.15	0.00035	0.0707	0.00033
308.15	0.000702	0.07061	0.00033
308.15	0.001055	0.07051	0.00033
308.15	0.001409	0.0704	0.00033
308.15	0.001757	0.07028	0.00033
308.15	0.00212	0.07011	0.00033
308.15	0.00273	0.06991	0.00033
313.15	0	0.06986	0.00033
313.15	0.000175	0.06981	0.00033
313.15	0.00035	0.06979	0.00033
313.15	0.000702	0.06974	0.00033
313.15	0.001055	0.06966	0.00032
313.15	0.001409	0.06959	0.00032
313.15	0.001757	0.06949	0.00032
313.15	0.00212	0.06933	0.00032
313.15	0.00273	0.06914	0.00032

System: 2-aminohexanoic acid + sodium chloride + water; phases: Liquid, Gas
Fixed: Solvent: Mole fraction of sodium chloride = 0.0027
Property: Surface tension liquid-gas, N/m (Liquid); method: Drop volume
Temperature, K	Mole fraction of 2-aminohexanoic acid	Surface tension liquid-gas, N/m	uncertainty
293.15	0	0.07281	0.00034
293.15	8.9e-05	0.07268	0.00034
293.15	0.000178	0.07258	0.00034
293.15	0.000356	0.07238	0.00034
293.15	0.000534	0.07222	0.00033
293.15	0.000713	0.07187	0.00033
293.15	0.000892	0.07163	0.00033
293.15	0.001112	0.07124	0.00033
293.15	0.001282	0.07096	0.00033
298.15	0	0.07207	0.00033
298.15	8.9e-05	0.07193	0.00033
298.15	0.000178	0.0718	0.00033
298.15	0.000356	0.0716	0.00033
298.15	0.000534	0.07137	0.00033
298.15	0.000713	0.07107	0.00033
298.15	0.000892	0.07083	0.00033
298.15	0.001112	0.07054	0.00033
298.15	0.001282	0.07017	0.00033
303.15	0	0.07159	0.00033
303.15	8.9e-05	0.07133	0.00033
303.15	0.000178	0.07119	0.00033
303.15	0.000356	0.07086	0.00033
303.15	0.000534	0.07057	0.00033
303.15	0.000713	0.07033	0.00033
303.15	0.000892	0.06999	0.00033
303.15	0.001112	0.06961	0.00032
303.15	0.001282	0.06931	0.00032
308.15	0	0.07079	0.00033
308.15	8.9e-05	0.07056	0.00033
308.15	0.000178	0.07042	0.00033
308.15	0.000356	0.07005	0.00033
308.15	0.000534	0.06982	0.00033
308.15	0.000713	0.06955	0.00032
308.15	0.000892	0.0693	0.00032
308.15	0.001112	0.06891	0.00032
308.15	0.001282	0.06863	0.00032
313.15	0	0.06986	0.00033
313.15	8.9e-05	0.06964	0.00032
313.15	0.000178	0.06955	0.00032
313.15	0.000356	0.06927	0.00032
313.15	0.000534	0.06902	0.00032
313.15	0.000713	0.06874	0.00032
313.15	0.000892	0.06848	0.00032
313.15	0.001112	0.06809	0.00032
313.15	0.001282	0.06782	0.00032

System: 2-aminoacetic acid + potassium chloride + water; phases: Liquid, Gas
Fixed: Solvent: Mole fraction of potassium chloride = 0.0027
Property: Surface tension liquid-gas, N/m (Liquid); method: Drop volume
Temperature, K	Mole fraction of 2-aminoacetic acid	Surface tension liquid-gas, N/m	uncertainty
293.15	0	0.07263	0.00042
293.15	0.00018	0.07264	0.00042
293.15	0.000361	0.07266	0.00042
293.15	0.000722	0.07269	0.00042
293.15	0.001084	0.07273	0.00042
293.15	0.001447	0.07276	0.00042
293.15	0.001811	0.0728	0.00042
293.15	0.002173	0.07283	0.00042
293.15	0.002778	0.07289	0.00042
298.15	0	0.07196	0.00041
298.15	0.00018	0.07197	0.00041
298.15	0.000361	0.07199	0.00041
298.15	0.000722	0.07202	0.00041
298.15	0.001084	0.07206	0.00041
298.15	0.001447	0.07209	0.00041
298.15	0.001811	0.07212	0.00042
298.15	0.002173	0.07216	0.00042
298.15	0.002778	0.07221	0.00042
303.15	0	0.07123	0.00041
303.15	0.00018	0.07124	0.00041
303.15	0.000361	0.07125	0.00041
303.15	0.000722	0.07128	0.00041
303.15	0.001084	0.07132	0.00041
303.15	0.001447	0.07135	0.00041
303.15	0.001811	0.07138	0.00041
303.15	0.002173	0.07141	0.00041
303.15	0.002778	0.07147	0.00041
308.15	0	0.07047	0.00041
308.15	0.00018	0.07048	0.00041
308.15	0.000361	0.07049	0.00041
308.15	0.000722	0.07052	0.00041
308.15	0.001084	0.07056	0.00041
308.15	0.001447	0.07059	0.00041
308.15	0.001811	0.07062	0.00041
308.15	0.002173	0.07065	0.00041
308.15	0.002778	0.0707	0.00041
313.15	0	0.0697	0.0004
313.15	0.00018	0.06971	0.0004
313.15	0.000361	0.06972	0.0004
313.15	0.000722	0.06975	0.0004
313.15	0.001084	0.06978	0.0004
313.15	0.001447	0.06981	0.0004
313.15	0.001811	0.06984	0.0004
313.15	0.002173	0.06987	0.0004
313.15	0.002778	0.06993	0.0004

System: DL-2-aminopropanoic acid + potassium chloride + water; phases: Liquid, Gas
Fixed: Solvent: Mole fraction of potassium chloride = 0.0027
Property: Surface tension liquid-gas, N/m (Liquid); method: Drop volume
Temperature, K	Mole fraction of DL-2-aminopropanoic acid	Surface tension liquid-gas, N/m	uncertainty
293.15	0	0.07268	0.00034
293.15	0.000179	0.07268	0.00034
293.15	0.000359	0.07268	0.00034
293.15	0.000719	0.0727	0.00034
293.15	0.001075	0.07272	0.00034
293.15	0.001442	0.07274	0.00034
293.15	0.001805	0.07276	0.00034
293.15	0.002162	0.07277	0.00034
293.15	0.002749	0.0728	0.00034
298.15	0	0.07187	0.00033
298.15	0.000179	0.07187	0.00033
298.15	0.000359	0.07188	0.00033
298.15	0.000719	0.07189	0.00033
298.15	0.001075	0.07191	0.00033
298.15	0.001442	0.07193	0.00033
298.15	0.001805	0.07195	0.00033
298.15	0.002162	0.07197	0.00033
298.15	0.002749	0.07201	0.00033
303.15	0	0.07115	0.00033
303.15	0.000179	0.07115	0.00033
303.15	0.000359	0.07116	0.00033
303.15	0.000719	0.07116	0.00033
303.15	0.001075	0.07118	0.00033
303.15	0.001442	0.0712	0.00033
303.15	0.001805	0.07122	0.00033
303.15	0.002162	0.07124	0.00033
303.15	0.002749	0.07127	0.00033
308.15	0	0.07045	0.00033
308.15	0.000179	0.07045	0.00033
308.15	0.000359	0.07046	0.00033
308.15	0.000719	0.07047	0.00033
308.15	0.001075	0.07048	0.00033
308.15	0.001442	0.0705	0.00033
308.15	0.001805	0.07052	0.00033
308.15	0.002162	0.07054	0.00033
308.15	0.002749	0.07057	0.00033
313.15	0	0.06966	0.00032
313.15	0.000179	0.06966	0.00032
313.15	0.000359	0.06967	0.00032
313.15	0.000719	0.06967	0.00032
313.15	0.001075	0.06969	0.00032
313.15	0.001442	0.06971	0.00032
313.15	0.001805	0.06973	0.00033
313.15	0.002162	0.06974	0.00033
313.15	0.002749	0.06978	0.00033

System: (.+-.)-.alpha.-aminobutyric acid + potassium chloride + water; phases: Liquid, Gas
Fixed: Solvent: Mole fraction of potassium chloride = 0.0027
Property: Surface tension liquid-gas, N/m (Liquid); method: Drop volume
Temperature, K	Mole fraction of (.+-.)-.alpha.-aminobutyric acid	Surface tension liquid-gas, N/m	uncertainty
293.15	0	0.07269	0.00034
293.15	0.00018	0.07268	0.00034
293.15	0.00036	0.07266	0.00034
293.15	0.000721	0.07264	0.00034
293.15	0.001083	0.07261	0.00034
293.15	0.001445	0.07261	0.00034
293.15	0.00181	0.07256	0.00034
293.15	0.002171	0.07255	0.00034
293.15	0.002694	0.07253	0.00034
298.15	0	0.07195	0.00033
298.15	0.00018	0.07193	0.00033
298.15	0.00036	0.07192	0.00033
298.15	0.000721	0.07189	0.00033
298.15	0.001083	0.07186	0.00033
298.15	0.001445	0.07184	0.00033
298.15	0.00181	0.07181	0.00033
298.15	0.002171	0.07179	0.00033
298.15	0.002694	0.07174	0.00033
303.15	0	0.07124	0.00033
303.15	0.00018	0.07122	0.00033
303.15	0.00036	0.07121	0.00033
303.15	0.000721	0.07118	0.00033
303.15	0.001083	0.07116	0.00033
303.15	0.001445	0.07113	0.00033
303.15	0.00181	0.07111	0.00033
303.15	0.002171	0.07108	0.00033
303.15	0.002694	0.07103	0.00033
308.15	0	0.07049	0.00033
308.15	0.00018	0.07047	0.00033
308.15	0.00036	0.07047	0.00033
308.15	0.000721	0.07045	0.00033
308.15	0.001083	0.07042	0.00033
308.15	0.001445	0.0704	0.00033
308.15	0.00181	0.07038	0.00033
308.15	0.002171	0.07034	0.00033
308.15	0.002694	0.07029	0.00033
313.15	0	0.06976	0.00033
313.15	0.00018	0.06974	0.00033
313.15	0.00036	0.06973	0.00033
313.15	0.000721	0.0697	0.00032
313.15	0.001083	0.06967	0.00032
313.15	0.001445	0.06964	0.00032
313.15	0.00181	0.06961	0.00032
313.15	0.002171	0.06957	0.00032
313.15	0.002694	0.06949	0.00032

System: DL-2-aminopentanoic acid + potassium chloride + water; phases: Liquid, Gas
Fixed: Solvent: Mole fraction of potassium chloride = 0.0027
Property: Surface tension liquid-gas, N/m (Liquid); method: Drop volume
Temperature, K	Mole fraction of DL-2-aminopentanoic acid	Surface tension liquid-gas, N/m	uncertainty
293.15	0	0.07265	0.00034
293.15	0.000177	0.07267	0.00034
293.15	0.000355	0.07267	0.00034
293.15	0.000711	0.07263	0.00034
293.15	0.001069	0.07259	0.00034
293.15	0.001428	0.07253	0.00034
293.15	0.001787	0.07246	0.00034
293.15	0.00215	0.07236	0.00033
293.15	0.002749	0.07219	0.00033
298.15	0	0.07187	0.00033
298.15	0.000177	0.07188	0.00033
298.15	0.000355	0.07188	0.00033
298.15	0.000711	0.07184	0.00033
298.15	0.001069	0.07179	0.00033
298.15	0.001428	0.07174	0.00033
298.15	0.001787	0.07168	0.00033
298.15	0.00215	0.07159	0.00033
298.15	0.002749	0.07144	0.00033
303.15	0	0.07117	0.00033
303.15	0.000177	0.07118	0.00033
303.15	0.000355	0.07118	0.00033
303.15	0.000711	0.07116	0.00033
303.15	0.001069	0.07111	0.00033
303.15	0.001428	0.07105	0.00033
303.15	0.001787	0.07095	0.00033
303.15	0.00215	0.07085	0.00033
303.15	0.002749	0.07068	0.00033
308.15	0	0.0705	0.00033
308.15	0.000177	0.07052	0.00033
308.15	0.000355	0.07051	0.00033
308.15	0.000711	0.07047	0.00033
308.15	0.001069	0.0704	0.00033
308.15	0.001428	0.07031	0.00033
308.15	0.001787	0.0702	0.00033
308.15	0.00215	0.07011	0.00033
308.15	0.002749	0.06989	0.00033
313.15	0	0.06978	0.00033
313.15	0.000177	0.06979	0.00033
313.15	0.000355	0.06978	0.00033
313.15	0.000711	0.06972	0.00032
313.15	0.001069	0.06963	0.00032
313.15	0.001428	0.06956	0.00032
313.15	0.001787	0.06945	0.00032
313.15	0.00215	0.06933	0.00032
313.15	0.002749	0.06914	0.00032

System: 2-aminohexanoic acid + potassium chloride + water; phases: Liquid, Gas
Fixed: Solvent: Mole fraction of potassium chloride = 0.0027
Property: Surface tension liquid-gas, N/m (Liquid); method: Drop volume
Temperature, K	Mole fraction of 2-aminohexanoic acid	Surface tension liquid-gas, N/m	uncertainty
293.15	0	0.07271	0.00034
293.15	9e-05	0.07271	0.00034
293.15	0.000178	0.07258	0.00034
293.15	0.000357	0.0724	0.00034
293.15	0.000536	0.07214	0.00033
293.15	0.000715	0.07197	0.00033
293.15	0.000894	0.07168	0.00033
293.15	0.001076	0.07154	0.00033
293.15	0.001285	0.07124	0.00033
298.15	0	0.072	0.00033
298.15	9e-05	0.072	0.00033
298.15	0.000178	0.07186	0.00033
298.15	0.000357	0.07164	0.00033
298.15	0.000536	0.07145	0.00033
298.15	0.000715	0.07127	0.00033
298.15	0.000894	0.07102	0.00033
298.15	0.001076	0.0708	0.00033
298.15	0.001285	0.07048	0.00033
303.15	0	0.07122	0.00033
303.15	9e-05	0.07123	0.00033
303.15	0.000178	0.07111	0.00033
303.15	0.000357	0.07088	0.00033
303.15	0.000536	0.07065	0.00033
303.15	0.000715	0.07047	0.00033
303.15	0.000894	0.07021	0.00033
303.15	0.001076	0.06999	0.00033
303.15	0.001285	0.06967	0.00032
308.15	0	0.07045	0.00033
308.15	9e-05	0.07046	0.00033
308.15	0.000178	0.07038	0.00033
308.15	0.000357	0.07011	0.00033
308.15	0.000536	0.06992	0.00033
308.15	0.000715	0.06972	0.00033
308.15	0.000894	0.06944	0.00032
308.15	0.001076	0.06931	0.00032
308.15	0.001285	0.06894	0.00032
313.15	0	0.0698	0.00033
313.15	9e-05	0.06967	0.00032
313.15	0.000178	0.06963	0.00032
313.15	0.000357	0.06932	0.00032
313.15	0.000536	0.06915	0.00032
313.15	0.000715	0.06891	0.00032
313.15	0.000894	0.06861	0.00032
313.15	0.001076	0.06844	0.00032
313.15	0.001285	0.0681	0.00032

System: 2-aminoacetic acid + ammonium sulfate + water; phases: Liquid, Gas
Fixed: Solvent: Mole fraction of ammonium sulfate = 0.0027
Property: Surface tension liquid-gas, N/m (Liquid); method: Drop volume
Temperature, K	Mole fraction of 2-aminoacetic acid	Surface tension liquid-gas, N/m	uncertainty
293.15	0	0.07295	0.00047
293.15	0.000182	0.07296	0.00047
293.15	0.000363	0.07297	0.00047
293.15	0.000728	0.07301	0.00047
293.15	0.001093	0.07304	0.00047
293.15	0.001458	0.07307	0.00047
293.15	0.001826	0.07311	0.00047
293.15	0.002193	0.07314	0.00047
293.15	0.002802	0.07319	0.00047
298.15	0	0.07198	0.00046
298.15	0.000182	0.07199	0.00046
298.15	0.000363	0.072	0.00046
298.15	0.000728	0.07204	0.00046
298.15	0.001093	0.07207	0.00046
298.15	0.001458	0.0721	0.00046
298.15	0.001826	0.07214	0.00046
298.15	0.002193	0.07217	0.00046
298.15	0.002802	0.07221	0.00046
303.15	0	0.07153	0.00046
303.15	0.000182	0.07154	0.00046
303.15	0.000363	0.07155	0.00046
303.15	0.000728	0.07159	0.00046
303.15	0.001093	0.07162	0.00046
303.15	0.001458	0.07165	0.00046
303.15	0.001826	0.07168	0.00046
303.15	0.002193	0.07171	0.00046
303.15	0.002802	0.07176	0.00046
308.15	0	0.07067	0.00045
308.15	0.000182	0.07068	0.00045
308.15	0.000363	0.07069	0.00045
308.15	0.000728	0.07072	0.00045
308.15	0.001093	0.07075	0.00045
308.15	0.001458	0.07078	0.00045
308.15	0.001826	0.07082	0.00045
308.15	0.002193	0.07085	0.00045
308.15	0.002802	0.07089	0.00045
313.15	0	0.0699	0.00045
313.15	0.000182	0.06991	0.00045
313.15	0.000363	0.06992	0.00045
313.15	0.000728	0.06995	0.00045
313.15	0.001093	0.06998	0.00045
313.15	0.001458	0.07001	0.00045
313.15	0.001826	0.07004	0.00045
313.15	0.002193	0.07007	0.00045
313.15	0.002802	0.07012	0.00045

System: DL-2-aminopropanoic acid + ammonium sulfate + water; phases: Liquid, Gas
Fixed: Solvent: Mole fraction of ammonium sulfate = 0.0027
Property: Surface tension liquid-gas, N/m (Liquid); method: Drop volume
Temperature, K	Mole fraction of DL-2-aminopropanoic acid	Surface tension liquid-gas, N/m	uncertainty
293.15	0	0.07294	0.00038
293.15	0.000181	0.07294	0.00038
293.15	0.000363	0.07295	0.00038
293.15	0.000712	0.07296	0.00038
293.15	0.001072	0.07298	0.00038
293.15	0.001457	0.073	0.00038
293.15	0.001823	0.07302	0.00038
293.15	0.002191	0.07303	0.00038
293.15	0.002774	0.07305	0.00038
298.15	0	0.072	0.00037
298.15	0.000181	0.072	0.00037
298.15	0.000363	0.07201	0.00037
298.15	0.000712	0.07202	0.00037
298.15	0.001072	0.07203	0.00037
298.15	0.001457	0.07205	0.00037
298.15	0.001823	0.07207	0.00037
298.15	0.002191	0.07209	0.00037
298.15	0.002774	0.07211	0.00037
303.15	0	0.07151	0.00037
303.15	0.000181	0.07151	0.00037
303.15	0.000363	0.07152	0.00037
303.15	0.000712	0.07153	0.00037
303.15	0.001072	0.07154	0.00037
303.15	0.001457	0.07156	0.00037
303.15	0.001823	0.07158	0.00037
303.15	0.002191	0.0716	0.00037
303.15	0.002774	0.07162	0.00037
308.15	0	0.07066	0.00037
308.15	0.000181	0.07066	0.00037
308.15	0.000363	0.07067	0.00037
308.15	0.000712	0.07067	0.00037
308.15	0.001072	0.07069	0.00037
308.15	0.001457	0.07071	0.00037
308.15	0.001823	0.07072	0.00037
308.15	0.002191	0.07074	0.00037
308.15	0.002774	0.07078	0.00037
313.15	0	0.06991	0.00036
313.15	0.000181	0.0699	0.00036
313.15	0.000363	0.06991	0.00036
313.15	0.000712	0.06992	0.00036
313.15	0.001072	0.06993	0.00036
313.15	0.001457	0.06995	0.00036
313.15	0.001823	0.06997	0.00036
313.15	0.002191	0.06998	0.00036
313.15	0.002774	0.07002	0.00036

System: (.+-.)-.alpha.-aminobutyric acid + ammonium sulfate + water; phases: Liquid, Gas
Fixed: Solvent: Mole fraction of ammonium sulfate = 0.0027
Property: Surface tension liquid-gas, N/m (Liquid); method: Drop volume
Temperature, K	Mole fraction of (.+-.)-.alpha.-aminobutyric acid	Surface tension liquid-gas, N/m	uncertainty
293.15	0	0.07292	0.00038
293.15	0.000181	0.0729	0.00038
293.15	0.000362	0.07289	0.00038
293.15	0.000725	0.07286	0.00038
293.15	0.00109	0.07284	0.00038
293.15	0.001455	0.07282	0.00037
293.15	0.001822	0.07279	0.00037
293.15	0.00219	0.07277	0.00037
293.15	0.002774	0.07275	0.00037
298.15	0	0.07197	0.00037
298.15	0.000181	0.07195	0.00037
298.15	0.000362	0.07193	0.00037
298.15	0.000725	0.07191	0.00037
298.15	0.00109	0.07188	0.00037
298.15	0.001455	0.07186	0.00037
298.15	0.001822	0.07184	0.00037
298.15	0.00219	0.07181	0.00037
298.15	0.002774	0.07176	0.00037
303.15	0	0.07153	0.00037
303.15	0.000181	0.07152	0.00037
303.15	0.000362	0.07151	0.00037
303.15	0.000725	0.0715	0.00037
303.15	0.00109	0.07147	0.00037
303.15	0.001455	0.07146	0.00037
303.15	0.001822	0.07144	0.00037
303.15	0.00219	0.07141	0.00037
303.15	0.002774	0.07136	0.00037
308.15	0	0.07068	0.00037
308.15	0.000181	0.07066	0.00037
308.15	0.000362	0.07065	0.00037
308.15	0.000725	0.07062	0.00037
308.15	0.00109	0.0706	0.00037
308.15	0.001455	0.07057	0.00037
308.15	0.001822	0.07055	0.00037
308.15	0.00219	0.07051	0.00036
308.15	0.002774	0.07045	0.00036
313.15	0	0.06992	0.00036
313.15	0.000181	0.06991	0.00036
313.15	0.000362	0.06991	0.00036
313.15	0.000725	0.0699	0.00036
313.15	0.00109	0.06988	0.00036
313.15	0.001455	0.06985	0.00036
313.15	0.001822	0.06983	0.00036
313.15	0.00219	0.06978	0.00036
313.15	0.002774	0.06972	0.00036

System: DL-2-aminopentanoic acid + ammonium sulfate + water; phases: Liquid, Gas
Fixed: Solvent: Mole fraction of ammonium sulfate = 0.0027
Property: Surface tension liquid-gas, N/m (Liquid); method: Drop volume
Temperature, K	Mole fraction of DL-2-aminopentanoic acid	Surface tension liquid-gas, N/m	uncertainty
293.15	0	0.07292	0.00038
293.15	0.00018	0.07295	0.00038
293.15	0.000361	0.0729	0.00038
293.15	0.000723	0.07282	0.00037
293.15	0.001087	0.07273	0.00037
293.15	0.001453	0.07263	0.00037
293.15	0.001819	0.07255	0.00037
293.15	0.002188	0.07245	0.00037
293.15	0.002802	0.0723	0.00037
298.15	0	0.07213	0.00037
298.15	0.00018	0.07213	0.00037
298.15	0.000361	0.07212	0.00037
298.15	0.000723	0.0721	0.00037
298.15	0.001087	0.07203	0.00037
298.15	0.001453	0.07195	0.00037
298.15	0.001819	0.07187	0.00037
298.15	0.002188	0.0718	0.00037
298.15	0.002802	0.07163	0.00037
303.15	0	0.07146	0.00037
303.15	0.00018	0.07147	0.00037
303.15	0.000361	0.07144	0.00037
303.15	0.000723	0.07144	0.00037
303.15	0.001087	0.07137	0.00037
303.15	0.001453	0.0713	0.00037
303.15	0.001819	0.07122	0.00037
303.15	0.002188	0.07112	0.00037
303.15	0.002802	0.07096	0.00037
308.15	0	0.07069	0.00037
308.15	0.00018	0.07072	0.00037
308.15	0.000361	0.0707	0.00037
308.15	0.000723	0.07067	0.00037
308.15	0.001087	0.07062	0.00037
308.15	0.001453	0.07057	0.00037
308.15	0.001819	0.07049	0.00036
308.15	0.002188	0.07038	0.00036
308.15	0.002802	0.0702	0.00036
313.15	0	0.07007	0.00036
313.15	0.00018	0.07009	0.00036
313.15	0.000361	0.07004	0.00036
313.15	0.000723	0.06997	0.00036
313.15	0.001087	0.0699	0.00036
313.15	0.001453	0.06984	0.00036
313.15	0.001819	0.06974	0.00036
313.15	0.002188	0.06964	0.00036
313.15	0.002802	0.06945	0.00036

System: 2-aminohexanoic acid + ammonium sulfate + water; phases: Liquid, Gas
Fixed: Solvent: Mole fraction of ammonium sulfate = 0.0027
Property: Surface tension liquid-gas, N/m (Liquid); method: Drop volume
Temperature, K	Mole fraction of 2-aminohexanoic acid	Surface tension liquid-gas, N/m	uncertainty
293.15	0	0.07292	0.00038
293.15	9.1e-05	0.07286	0.00038
293.15	0.000182	0.07275	0.00037
293.15	0.000365	0.07261	0.00037
293.15	0.000548	0.07238	0.00037
293.15	0.000731	0.07213	0.00037
293.15	0.000914	0.07189	0.00037
293.15	0.001099	0.0716	0.00037
293.15	0.00131	0.07121	0.00037
298.15	0	0.07197	0.00037
298.15	9.1e-05	0.07193	0.00037
298.15	0.000182	0.07192	0.00037
298.15	0.000365	0.07181	0.00037
298.15	0.000548	0.07159	0.00037
298.15	0.000731	0.0714	0.00037
298.15	0.000914	0.0711	0.00037
298.15	0.001099	0.07082	0.00037
298.15	0.00131	0.07059	0.00037
303.15	0	0.0715	0.00037
303.15	9.1e-05	0.07139	0.00037
303.15	0.000182	0.07129	0.00037
303.15	0.000365	0.07103	0.00037
303.15	0.000548	0.07083	0.00037
303.15	0.000731	0.07062	0.00037
303.15	0.000914	0.07038	0.00036
303.15	0.001099	0.06999	0.00036
303.15	0.00131	0.06971	0.00036
308.15	0	0.07066	0.00037
308.15	9.1e-05	0.07061	0.00037
308.15	0.000182	0.07049	0.00036
308.15	0.000365	0.07025	0.00036
308.15	0.000548	0.07005	0.00036
308.15	0.000731	0.06982	0.00036
308.15	0.000914	0.06956	0.00036
308.15	0.001099	0.06931	0.00036
308.15	0.00131	0.06904	0.00036
313.15	0	0.06991	0.00036
313.15	9.1e-05	0.06984	0.00036
313.15	0.000182	0.06976	0.00036
313.15	0.000365	0.06953	0.00036
313.15	0.000548	0.06932	0.00036
313.15	0.000731	0.06908	0.00036
313.15	0.000914	0.06881	0.00036
313.15	0.001099	0.06856	0.00036
313.15	0.00131	0.06818	0.00035

System: 2-aminoacetic acid + sodium sulfate + water; phases: Liquid, Gas
Fixed: Solvent: Mole fraction of sodium sulfate = 0.0027
Property: Surface tension liquid-gas, N/m (Liquid); method: Drop volume
Temperature, K	Mole fraction of 2-aminoacetic acid	Surface tension liquid-gas, N/m	uncertainty
293.15	0	0.07292	0.00047
293.15	0.000182	0.07294	0.00047
293.15	0.000364	0.07295	0.00047
293.15	0.000729	0.07298	0.00047
293.15	0.001086	0.07301	0.00047
293.15	0.001462	0.07305	0.00047
293.15	0.001829	0.07308	0.00047
293.15	0.002198	0.07311	0.00047
293.15	0.002806	0.07316	0.00047
298.15	0	0.07205	0.00046
298.15	0.000182	0.07206	0.00046
298.15	0.000364	0.07207	0.00046
298.15	0.000729	0.0721	0.00046
298.15	0.001086	0.07213	0.00046
298.15	0.001462	0.07217	0.00046
298.15	0.001829	0.0722	0.00046
298.15	0.002198	0.07223	0.00046
298.15	0.002806	0.07227	0.00046
303.15	0	0.0715	0.00046
303.15	0.000182	0.07151	0.00046
303.15	0.000364	0.07152	0.00046
303.15	0.000729	0.07155	0.00046
303.15	0.001086	0.07158	0.00046
303.15	0.001462	0.07161	0.00046
303.15	0.001829	0.07165	0.00046
303.15	0.002198	0.07168	0.00046
303.15	0.002806	0.07172	0.00046
308.15	0	0.07069	0.00045
308.15	0.000182	0.0707	0.00045
308.15	0.000364	0.07071	0.00045
308.15	0.000729	0.07074	0.00045
308.15	0.001086	0.07077	0.00045
308.15	0.001462	0.0708	0.00045
308.15	0.001829	0.07083	0.00045
308.15	0.002198	0.07086	0.00045
308.15	0.002806	0.0709	0.00045
313.15	0	0.06985	0.00045
313.15	0.000182	0.06986	0.00045
313.15	0.000364	0.06987	0.00045
313.15	0.000729	0.0699	0.00045
313.15	0.001086	0.06993	0.00045
313.15	0.001462	0.06996	0.00045
313.15	0.001829	0.06999	0.00045
313.15	0.002198	0.07002	0.00045
313.15	0.002806	0.07006	0.00045

System: DL-2-aminopropanoic acid + sodium sulfate + water; phases: Liquid, Gas
Fixed: Solvent: Mole fraction of sodium sulfate = 0.0027
Property: Surface tension liquid-gas, N/m (Liquid); method: Drop volume
Temperature, K	Mole fraction of DL-2-aminopropanoic acid	Surface tension liquid-gas, N/m	uncertainty
293.15	0	0.0729	0.00038
293.15	0.000182	0.07291	0.00038
293.15	0.000363	0.07292	0.00038
293.15	0.000728	0.07294	0.00038
293.15	0.001093	0.07296	0.00038
293.15	0.00146	0.07298	0.00038
293.15	0.001827	0.073	0.00038
293.15	0.002195	0.07301	0.00038
293.15	0.002777	0.07303	0.00038
298.15	0	0.07204	0.00037
298.15	0.000182	0.07204	0.00037
298.15	0.000363	0.07205	0.00037
298.15	0.000728	0.07206	0.00037
298.15	0.001093	0.07208	0.00037
298.15	0.00146	0.0721	0.00037
298.15	0.001827	0.07211	0.00037
298.15	0.002195	0.07213	0.00037
298.15	0.002777	0.07215	0.00037
303.15	0	0.07147	0.00037
303.15	0.000182	0.07147	0.00037
303.15	0.000363	0.07148	0.00037
303.15	0.000728	0.07148	0.00037
303.15	0.001093	0.0715	0.00037
303.15	0.00146	0.07152	0.00037
303.15	0.001827	0.07153	0.00037
303.15	0.002195	0.07155	0.00037
303.15	0.002777	0.07158	0.00037
308.15	0	0.07065	0.00037
308.15	0.000182	0.07065	0.00037
308.15	0.000363	0.07065	0.00037
308.15	0.000728	0.07066	0.00037
308.15	0.001093	0.07068	0.00037
308.15	0.00146	0.07069	0.00037
308.15	0.001827	0.07071	0.00037
308.15	0.002195	0.07072	0.00037
308.15	0.002777	0.07075	0.00037
313.15	0	0.06988	0.00036
313.15	0.000182	0.06987	0.00036
313.15	0.000363	0.06988	0.00036
313.15	0.000728	0.06989	0.00036
313.15	0.001093	0.0699	0.00036
313.15	0.00146	0.06992	0.00036
313.15	0.001827	0.06993	0.00036
313.15	0.002195	0.06995	0.00036
313.15	0.002777	0.06998	0.00036

System: (.+-.)-.alpha.-aminobutyric acid + sodium sulfate + water; phases: Liquid, Gas
Fixed: Solvent: Mole fraction of sodium sulfate = 0.0027
Property: Surface tension liquid-gas, N/m (Liquid); method: Drop volume
Temperature, K	Mole fraction of (.+-.)-.alpha.-aminobutyric acid	Surface tension liquid-gas, N/m	uncertainty
293.15	0	0.07303	0.00038
293.15	0.000181	0.073	0.00038
293.15	0.000362	0.07299	0.00038
293.15	0.000726	0.07296	0.00038
293.15	0.001091	0.07292	0.00038
293.15	0.001456	0.0729	0.00038
293.15	0.001822	0.07287	0.00038
293.15	0.002191	0.07284	0.00038
293.15	0.002778	0.07278	0.00037
298.15	0	0.07199	0.00037
298.15	0.000181	0.07197	0.00037
298.15	0.000362	0.07196	0.00037
298.15	0.000726	0.07194	0.00037
298.15	0.001091	0.07191	0.00037
298.15	0.001456	0.07188	0.00037
298.15	0.001822	0.07186	0.00037
298.15	0.002191	0.07182	0.00037
298.15	0.002778	0.07177	0.00037
303.15	0	0.07153	0.00037
303.15	0.000181	0.07151	0.00037
303.15	0.000362	0.07148	0.00037
303.15	0.000726	0.07144	0.00037
303.15	0.001091	0.0714	0.00037
303.15	0.001456	0.07137	0.00037
303.15	0.001822	0.07134	0.00037
303.15	0.002191	0.0713	0.00037
303.15	0.002778	0.07124	0.00037
308.15	0	0.07076	0.00037
308.15	0.000181	0.07073	0.00037
308.15	0.000362	0.0707	0.00037
308.15	0.000726	0.07067	0.00037
308.15	0.001091	0.07062	0.00037
308.15	0.001456	0.07059	0.00037
308.15	0.001822	0.07056	0.00037
308.15	0.002191	0.07051	0.00036
308.15	0.002778	0.07043	0.00036
313.15	0	0.06994	0.00036
313.15	0.000181	0.06991	0.00036
313.15	0.000362	0.06988	0.00036
313.15	0.000726	0.06984	0.00036
313.15	0.001091	0.0698	0.00036
313.15	0.001456	0.06977	0.00036
313.15	0.001822	0.06973	0.00036
313.15	0.002191	0.06966	0.00036
313.15	0.002778	0.06959	0.00036

System: DL-2-aminopentanoic acid + sodium sulfate + water; phases: Liquid, Gas
Fixed: Solvent: Mole fraction of sodium sulfate = 0.0027
Property: Surface tension liquid-gas, N/m (Liquid); method: Drop volume
Temperature, K	Mole fraction of DL-2-aminopentanoic acid	Surface tension liquid-gas, N/m	uncertainty
293.15	0	0.07299	0.00038
293.15	0.000181	0.07292	0.00038
293.15	0.000362	0.07289	0.00038
293.15	0.000726	0.07281	0.00037
293.15	0.00109	0.07274	0.00037
293.15	0.001456	0.07266	0.00037
293.15	0.001824	0.07259	0.00037
293.15	0.002193	0.07243	0.00037
293.15	0.002806	0.07222	0.00037
298.15	0	0.07207	0.00037
298.15	0.000181	0.07205	0.00037
298.15	0.000362	0.07204	0.00037
298.15	0.000726	0.072	0.00037
298.15	0.00109	0.07193	0.00037
298.15	0.001456	0.07185	0.00037
298.15	0.001824	0.07179	0.00037
298.15	0.002193	0.07168	0.00037
298.15	0.002806	0.07152	0.00037
303.15	0	0.07159	0.00037
303.15	0.000181	0.07154	0.00037
303.15	0.000362	0.07147	0.00037
303.15	0.000726	0.07136	0.00037
303.15	0.00109	0.07126	0.00037
303.15	0.001456	0.07116	0.00037
303.15	0.001824	0.07106	0.00037
303.15	0.002193	0.07089	0.00037
303.15	0.002806	0.07069	0.00037
308.15	0	0.07077	0.00037
308.15	0.000181	0.07074	0.00037
308.15	0.000362	0.07068	0.00037
308.15	0.000726	0.07057	0.00037
308.15	0.00109	0.07051	0.00036
308.15	0.001456	0.07043	0.00036
308.15	0.001824	0.07028	0.00036
308.15	0.002193	0.07011	0.00036
308.15	0.002806	0.0699	0.00036
313.15	0	0.06997	0.00036
313.15	0.000181	0.06995	0.00036
313.15	0.000362	0.0699	0.00036
313.15	0.000726	0.0698	0.00036
313.15	0.00109	0.06972	0.00036
313.15	0.001456	0.06961	0.00036
313.15	0.001824	0.06952	0.00036
313.15	0.002193	0.06932	0.00036
313.15	0.002806	0.06913	0.00036

System: 2-aminohexanoic acid + sodium sulfate + water; phases: Liquid, Gas
Fixed: Solvent: Mole fraction of sodium sulfate = 0.0027
Property: Surface tension liquid-gas, N/m (Liquid); method: Drop volume
Temperature, K	Mole fraction of 2-aminohexanoic acid	Surface tension liquid-gas, N/m	uncertainty
293.15	0	0.073	0.00038
293.15	9.1e-05	0.0729	0.00038
293.15	0.000182	0.07284	0.00038
293.15	0.000364	0.07267	0.00037
293.15	0.000547	0.07253	0.00037
293.15	0.00073	0.07231	0.00037
293.15	0.000914	0.07204	0.00037
293.15	0.001095	0.07161	0.00037
293.15	0.001311	0.07132	0.00037
298.15	0	0.07201	0.00037
298.15	9.1e-05	0.07211	0.00037
298.15	0.000182	0.07205	0.00037
298.15	0.000364	0.07198	0.00037
298.15	0.000547	0.07174	0.00037
298.15	0.00073	0.07146	0.00037
298.15	0.000914	0.07121	0.00037
298.15	0.001095	0.07089	0.00037
298.15	0.001311	0.07049	0.00036
303.15	0	0.07156	0.00037
303.15	9.1e-05	0.07158	0.00037
303.15	0.000182	0.07138	0.00037
303.15	0.000364	0.07122	0.00037
303.15	0.000547	0.0709	0.00037
303.15	0.00073	0.07069	0.00037
303.15	0.000914	0.07042	0.00036
303.15	0.001095	0.07015	0.00036
303.15	0.001311	0.06976	0.00036
308.15	0	0.07072	0.00037
308.15	9.1e-05	0.07079	0.00037
308.15	0.000182	0.07067	0.00037
308.15	0.000364	0.07045	0.00036
308.15	0.000547	0.07023	0.00036
308.15	0.00073	0.06999	0.00036
308.15	0.000914	0.06964	0.00036
308.15	0.001095	0.06934	0.00036
308.15	0.001311	0.06906	0.00036
313.15	0	0.06994	0.00036
313.15	9.1e-05	0.06998	0.00036
313.15	0.000182	0.06989	0.00036
313.15	0.000364	0.06966	0.00036
313.15	0.000547	0.0694	0.00036
313.15	0.00073	0.06916	0.00036
313.15	0.000914	0.06882	0.00036
313.15	0.001095	0.06855	0.00036
313.15	0.001311	0.06824	0.00036
