Measured thermophysical data. Solubility Modeling and Mixing Properties for Benzoin in Different Monosolvents and Solvent Mixtures at the Temperature Range from 273.15 to 313.15 K
Source: J. Chem. Eng. Data, 2018, 10.1021/acs.jced.7b00743
Compound 1: .alpha.-hydroxy-.alpha.-phenylacetophenone, C14H12O2, InChI=1S/C14H12O2/c15-13(11-7-3-1-4-8-11)14(16)12-9-5-2-6-10-12/h1-10,13,15H, purity 98.2%
Compound 2: methanol, CH4O, InChI=1S/CH4O/c1-2/h2H,1H3, purity 99.7%
Compound 3: ethanol, C2H6O, InChI=1S/C2H6O/c1-2-3/h3H,2H2,1H3, purity 99.5%
Compound 4: propan-2-ol, C3H8O, InChI=1S/C3H8O/c1-3(2)4/h3-4H,1-2H3, purity 99.4%
Compound 5: butan-1-ol, C4H10O, InChI=1S/C4H10O/c1-2-3-4-5/h5H,2-4H2,1H3, purity 99.5%
Compound 6: acetone, C3H6O, InChI=1S/C3H6O/c1-3(2)4/h1-2H3, purity 99.4%
Compound 7: ethyl acetate, C4H8O2, InChI=1S/C4H8O2/c1-3-6-4(2)5/h3H2,1-2H3, purity 99.6%
Compound 8: acetonitrile, C2H3N, InChI=1S/C2H3N/c1-2-3/h1H3, purity 99.6%
Compound 9: toluene, C7H8, InChI=1S/C7H8/c1-7-5-3-2-4-6-7/h2-6H,1H3, purity 99.3%
Compound 10: cyclohexane, C6H12, InChI=1S/C6H12/c1-2-4-6-5-3-1/h1-6H2, purity 99.4%
Compound 11: butyl ethanoate, C6H12O2, InChI=1S/C6H12O2/c1-3-4-5-8-6(2)7/h3-5H2,1-2H3, purity 99.5%
Compound 12: propan-1-ol, C3H8O, InChI=1S/C3H8O/c1-2-3-4/h4H,2-3H2,1H3, purity 99.3%
Compound 13: 2-methyl-1-propanol, C4H10O, InChI=1S/C4H10O/c1-4(2)3-5/h4-5H,3H2,1-2H3, purity 99.5%

System: .alpha.-hydroxy-.alpha.-phenylacetophenone; phases: Crystal, Liquid, Air at 1 atmosphere
Property: Triple point temperature, K (Crystal); method: DSC
Triple point temperature, K	uncertainty
410.9	1.2

System: .alpha.-hydroxy-.alpha.-phenylacetophenone; phases: Crystal, Liquid, Air at 1 atmosphere
Property: Molar enthalpy of transition or fusion, kJ/mol (Crystal); method: DSC
Molar enthalpy of transition or fusion, kJ/mol	uncertainty
40.88	1.2

System: .alpha.-hydroxy-.alpha.-phenylacetophenone + methanol; phases: Liquid, Crystal
Fixed: Pressure, kPa = 101.1
Property: Mole fraction of .alpha.-hydroxy-.alpha.-phenylacetophenone (Liquid); method: Chromatography
Temperature, K	Mole fraction of .alpha.-hydroxy-.alpha.-phenylacetophenone	uncertainty
273.15	0.0008116	3.95e-05
278.15	0.001003	4.9e-05
283.15	0.001245	6.1e-05
288.15	0.001571	7.6e-05
293.15	0.001952	9.5e-05
298.15	0.002432	0.000118
303.15	0.002928	0.000142
308.15	0.003497	0.00017
313.15	0.004196	0.000204

System: .alpha.-hydroxy-.alpha.-phenylacetophenone + ethanol; phases: Liquid, Crystal
Fixed: Pressure, kPa = 101.1
Property: Mole fraction of .alpha.-hydroxy-.alpha.-phenylacetophenone (Liquid); method: Chromatography
Temperature, K	Mole fraction of .alpha.-hydroxy-.alpha.-phenylacetophenone	uncertainty
273.15	0.0007712	3.76e-05
278.15	0.0009856	4.8e-05
283.15	0.001214	5.9e-05
288.15	0.00152	7.4e-05
293.15	0.001859	9e-05
298.15	0.002402	0.000117
303.15	0.002801	0.000136
308.15	0.003464	0.000168
313.15	0.004019	0.000195

System: .alpha.-hydroxy-.alpha.-phenylacetophenone + propan-2-ol; phases: Liquid, Crystal
Fixed: Pressure, kPa = 101.1
Property: Mole fraction of .alpha.-hydroxy-.alpha.-phenylacetophenone (Liquid); method: Chromatography
Temperature, K	Mole fraction of .alpha.-hydroxy-.alpha.-phenylacetophenone	uncertainty
273.15	0.000437	2.14e-05
278.15	0.0005798	2.83e-05
283.15	0.000781	3.8e-05
288.15	0.0009724	4.73e-05
293.15	0.001237	6e-05
298.15	0.001587	7.7e-05
303.15	0.00202	9.8e-05
308.15	0.002421	0.000118
313.15	0.002899	0.000141

System: .alpha.-hydroxy-.alpha.-phenylacetophenone + butan-1-ol; phases: Liquid, Crystal
Fixed: Pressure, kPa = 101.1
Property: Mole fraction of .alpha.-hydroxy-.alpha.-phenylacetophenone (Liquid); method: Chromatography
Temperature, K	Mole fraction of .alpha.-hydroxy-.alpha.-phenylacetophenone	uncertainty
273.15	0.0007172	3.49e-05
278.15	0.000903	4.4e-05
283.15	0.001155	5.6e-05
288.15	0.001476	7.2e-05
293.15	0.001856	9e-05
298.15	0.002334	0.000113
303.15	0.002737	0.000133
308.15	0.003266	0.000159
313.15	0.003963	0.000192

System: .alpha.-hydroxy-.alpha.-phenylacetophenone + acetone; phases: Liquid, Crystal
Fixed: Pressure, kPa = 101.1
Property: Mole fraction of .alpha.-hydroxy-.alpha.-phenylacetophenone (Liquid); method: Chromatography
Temperature, K	Mole fraction of .alpha.-hydroxy-.alpha.-phenylacetophenone	uncertainty
273.15	0.004651	0.000226
278.15	0.005753	0.00028
283.15	0.006906	0.000336
288.15	0.008597	0.000418
293.15	0.01078	0.00052
298.15	0.01267	0.00062
303.15	0.01463	0.00071
308.15	0.01712	0.00083
313.15	0.01945	0.00094

System: .alpha.-hydroxy-.alpha.-phenylacetophenone + ethyl acetate; phases: Liquid, Crystal
Fixed: Pressure, kPa = 101.1
Property: Mole fraction of .alpha.-hydroxy-.alpha.-phenylacetophenone (Liquid); method: Chromatography
Temperature, K	Mole fraction of .alpha.-hydroxy-.alpha.-phenylacetophenone	uncertainty
273.15	0.005211	0.000253
278.15	0.006281	0.000305
283.15	0.007786	0.000379
288.15	0.009466	0.00046
293.15	0.01145	0.00056
298.15	0.01335	0.00065
303.15	0.01608	0.00078
308.15	0.01897	0.00092
313.15	0.02235	0.00108

System: .alpha.-hydroxy-.alpha.-phenylacetophenone + acetonitrile; phases: Liquid, Crystal
Fixed: Pressure, kPa = 101.1
Property: Mole fraction of .alpha.-hydroxy-.alpha.-phenylacetophenone (Liquid); method: Chromatography
Temperature, K	Mole fraction of .alpha.-hydroxy-.alpha.-phenylacetophenone	uncertainty
273.15	0.002025	9.9e-05
278.15	0.002586	0.000126
283.15	0.003305	0.000161
288.15	0.004053	0.000197
293.15	0.005061	0.000247
298.15	0.006675	0.000325
303.15	0.007873	0.000382
308.15	0.009439	0.000459
313.15	0.01125	0.00055

System: .alpha.-hydroxy-.alpha.-phenylacetophenone + toluene; phases: Liquid, Crystal
Fixed: Pressure, kPa = 101.1
Property: Mole fraction of .alpha.-hydroxy-.alpha.-phenylacetophenone (Liquid); method: Chromatography
Temperature, K	Mole fraction of .alpha.-hydroxy-.alpha.-phenylacetophenone	uncertainty
273.15	0.002644	0.000128
278.15	0.003103	0.000151
283.15	0.003557	0.000173
288.15	0.004005	0.000194
293.15	0.004667	0.000227
298.15	0.005515	0.000268
303.15	0.006347	0.000308
308.15	0.007494	0.000364
313.15	0.008622	0.000418

System: .alpha.-hydroxy-.alpha.-phenylacetophenone + cyclohexane; phases: Liquid, Crystal
Fixed: Pressure, kPa = 101.1
Property: Mole fraction of .alpha.-hydroxy-.alpha.-phenylacetophenone (Liquid); method: Chromatography
Temperature, K	Mole fraction of .alpha.-hydroxy-.alpha.-phenylacetophenone	uncertainty
283.15	0.0005955	2.91e-05
288.15	0.0008002	3.91e-05
293.15	0.001074	5.2e-05
298.15	0.001358	6.6e-05
303.15	0.001748	8.5e-05
308.15	0.002236	0.000109
313.15	0.002786	0.000135

System: .alpha.-hydroxy-.alpha.-phenylacetophenone + butyl ethanoate; phases: Liquid, Crystal
Fixed: Pressure, kPa = 101.1
Property: Mole fraction of .alpha.-hydroxy-.alpha.-phenylacetophenone (Liquid); method: Chromatography
Temperature, K	Mole fraction of .alpha.-hydroxy-.alpha.-phenylacetophenone	uncertainty
273.15	0.004512	0.00022
278.15	0.005608	0.000272
283.15	0.006456	0.000314
288.15	0.00788	0.000383
293.15	0.009288	0.000451
298.15	0.01077	0.00052
303.15	0.01277	0.00062
308.15	0.01507	0.00073
313.15	0.01758	0.00085

System: .alpha.-hydroxy-.alpha.-phenylacetophenone + propan-1-ol; phases: Liquid, Crystal
Fixed: Pressure, kPa = 101.1
Property: Mole fraction of .alpha.-hydroxy-.alpha.-phenylacetophenone (Liquid); method: Chromatography
Temperature, K	Mole fraction of .alpha.-hydroxy-.alpha.-phenylacetophenone	uncertainty
273.15	0.0007478	3.64e-05
278.15	0.0009472	4.61e-05
283.15	0.001191	5.8e-05
288.15	0.001489	7.2e-05
293.15	0.001862	9.1e-05
298.15	0.002339	0.000114
303.15	0.002768	0.000134
308.15	0.003294	0.00016
313.15	0.003978	0.000193

System: .alpha.-hydroxy-.alpha.-phenylacetophenone + 2-methyl-1-propanol; phases: Liquid, Crystal
Fixed: Pressure, kPa = 101.1
Property: Mole fraction of .alpha.-hydroxy-.alpha.-phenylacetophenone (Liquid); method: Chromatography
Temperature, K	Mole fraction of .alpha.-hydroxy-.alpha.-phenylacetophenone	uncertainty
273.15	0.0005749	2.8e-05
278.15	0.0007252	3.53e-05
283.15	0.0009413	4.59e-05
288.15	0.001234	6e-05
293.15	0.001554	7.6e-05
298.15	0.001924	9.4e-05
303.15	0.002324	0.000113
308.15	0.002816	0.000137
313.15	0.003452	0.000168

System: .alpha.-hydroxy-.alpha.-phenylacetophenone + ethyl acetate + ethanol; phases: Liquid, Crystal
Fixed: Pressure, kPa = 101.1
Property: Mole fraction of .alpha.-hydroxy-.alpha.-phenylacetophenone (Liquid); method: Chromatography
Temperature, K	Solvent: Mass fraction of ethyl acetate	Mole fraction of .alpha.-hydroxy-.alpha.-phenylacetophenone	uncertainty
273.15	0	0.0007712	3.76e-05
273.15	0.1	0.001046	5.1e-05
273.15	0.2	0.001452	7.1e-05
273.15	0.3	0.001977	9.7e-05
273.15	0.4	0.002575	0.000126
273.15	0.5	0.002977	0.000145
273.15	0.6	0.003404	0.000166
273.15	0.7	0.003932	0.000192
273.15	0.8	0.004524	0.00022
273.15	0.9	0.004862	0.000237
273.15	1	0.005211	0.000253
278.15	0	0.0009856	4.8e-05
278.15	0.1	0.001375	6.7e-05
278.15	0.2	0.001951	9.5e-05
278.15	0.3	0.002624	0.000128
278.15	0.4	0.00332	0.00016
278.15	0.5	0.003775	0.000184
278.15	0.6	0.004231	0.000206
278.15	0.7	0.00495	0.00024
278.15	0.8	0.005612	0.000273
278.15	0.9	0.005975	0.000291
278.15	1	0.006281	0.000305
283.15	0	0.001214	5.9e-05
283.15	0.1	0.001848	9e-05
283.15	0.2	0.002611	0.000127
283.15	0.3	0.003292	0.00016
283.15	0.4	0.004086	0.000199
283.15	0.5	0.004779	0.000233
283.15	0.6	0.005334	0.00026
283.15	0.7	0.006031	0.000293
283.15	0.8	0.006749	0.000328
283.15	0.9	0.007414	0.00036
283.15	1	0.007786	0.000379
288.15	0	0.00152	7.4e-05
288.15	0.1	0.002343	0.000114
288.15	0.2	0.003268	0.000159
288.15	0.3	0.004258	0.000207
288.15	0.4	0.005272	0.000256
288.15	0.5	0.005983	0.000291
288.15	0.6	0.006713	0.000326
288.15	0.7	0.00746	0.00036
288.15	0.8	0.008516	0.000414
288.15	0.9	0.009043	0.00044
288.15	1	0.009466	0.00046
293.15	0	0.001859	9e-05
293.15	0.1	0.002956	0.000144
293.15	0.2	0.004031	0.000196
293.15	0.3	0.005308	0.000258
293.15	0.4	0.006273	0.000305
293.15	0.5	0.007144	0.000347
293.15	0.6	0.007939	0.000386
293.15	0.7	0.008727	0.000424
293.15	0.8	0.01005	0.00049
293.15	0.9	0.01095	0.00053
293.15	1	0.01145	0.00056
298.15	0	0.002402	0.000117
298.15	0.1	0.003445	0.000167
298.15	0.2	0.004902	0.000238
298.15	0.3	0.005952	0.000289
298.15	0.4	0.00753	0.00037
298.15	0.5	0.008352	0.000406
298.15	0.6	0.009494	0.000462
298.15	0.7	0.01053	0.00051
298.15	0.8	0.01196	0.00058
298.15	0.9	0.01289	0.00063
298.15	1	0.01335	0.00065
303.15	0	0.002801	0.000136
303.15	0.1	0.004069	0.000198
303.15	0.2	0.005712	0.000277
303.15	0.3	0.007018	0.000341
303.15	0.4	0.00853	0.00041
303.15	0.5	0.009853	0.000478
303.15	0.6	0.01176	0.00057
303.15	0.7	0.01307	0.00064
303.15	0.8	0.0147	0.00071
303.15	0.9	0.01539	0.00075
303.15	1	0.01608	0.00078
308.15	0	0.003464	0.000168
308.15	0.1	0.00503	0.000245
308.15	0.2	0.006938	0.000337
308.15	0.3	0.008376	0.000407
308.15	0.4	0.009822	0.000477
308.15	0.5	0.01151	0.00056
308.15	0.6	0.01406	0.00068
308.15	0.7	0.01551	0.00075
308.15	0.8	0.01698	0.00082
308.15	0.9	0.01815	0.00088
308.15	1	0.01897	0.00092
313.15	0	0.004019	0.000195
313.15	0.1	0.006127	0.000298
313.15	0.2	0.008277	0.000402
313.15	0.3	0.01016	0.00049
313.15	0.4	0.01185	0.00058
313.15	0.5	0.01457	0.00071
313.15	0.6	0.01661	0.00081
313.15	0.7	0.01834	0.00089
313.15	0.8	0.01971	0.00096
313.15	0.9	0.0212	0.00103
313.15	1	0.02235	0.00108
