Measured thermophysical data. Synthesis and Physicochemical Properties of Double-Chain Cationic Surfactants
Source: J. Chem. Eng. Data, 2016, 10.1021/acs.jced.5b00367
Compound 1: dodecyltrimethylammonium bromide, C15H34BrN, InChI=1S/C15H34N.BrH/c1-5-6-7-8-9-10-11-12-13-14-15-16(2,3)4;/h5-15H2,1-4H3;1H/q+1;/p-1, purity 99%
Compound 2: N,N,N-trimethyl-1-hexadecanaminium bromide, C19H42BrN, InChI=1S/C19H42N.BrH/c1-5-6-7-8-9-10-11-12-13-14-15-16-17-18-19-20(2,3)4;/h5-19H2,1-4H3;1H/q+1;/p-1, purity 99%
Compound 3: 1,2-bis(dimethyldodecylammonium)ethane dibromide, C30H66Br2N2, InChI=1S/C30H66N2.2BrH/c1-7-9-11-13-15-17-19-21-23-25-27-31(3,4)29-30-32(5,6)28-26-24-22-20-18-16-14-12-10-8-2;;/h7-30H2,1-6H3;2*1H/q+2;;/p-2
Compound 4: N1,N2-dihexadecyl-N1,N1,N2,N2-tetramethyl-1,2-ethanediaminium bromide, C38H82Br2N2, InChI=1S/C38H82N2.2BrH/c1-7-9-11-13-15-17-19-21-23-25-27-29-31-33-35-39(3,4)37-38-40(5,6)36-34-32-30-28-26-24-22-20-18-16-14-12-10-8-2;;/h7-38H2,1-6H3;2*1H/q+2;;/p-2
Compound 5: didecyldiethylammonium bromide, C24H52BrN, InChI=1S/C24H52N.BrH/c1-5-9-11-13-15-17-19-21-23-25(7-3,8-4)24-22-20-18-16-14-12-10-6-2;/h5-24H2,1-4H3;1H/q+1;/p-1
Compound 6: didodecyldiethylammonium bromide, C28H60BrN, InChI=1S/C28H60N.BrH/c1-5-9-11-13-15-17-19-21-23-25-27-29(7-3,8-4)28-26-24-22-20-18-16-14-12-10-6-2;/h5-28H2,1-4H3;1H/q+1;/p-1
Compound 7: diethyldihexadecylammonium bromide, C36H76BrN, InChI=1S/C36H76N.BrH/c1-5-9-11-13-15-17-19-21-23-25-27-29-31-33-35-37(7-3,8-4)36-34-32-30-28-26-24-22-20-18-16-14-12-10-6-2;/h5-36H2,1-4H3;1H/q+1;/p-1
Compound 8: water, H2O, InChI=1S/H2O/h1H2, purity 99.8%

System: dodecyltrimethylammonium bromide; phases: Crystal, Liquid, Air at 1 atmosphere
Property: Normal melting temperature, K (Crystal); method: VISOBS
Normal melting temperature, K	uncertainty
538.15	1.1

System: N,N,N-trimethyl-1-hexadecanaminium bromide; phases: Crystal, Liquid, Air at 1 atmosphere
Property: Normal melting temperature, K (Crystal); method: VISOBS
Normal melting temperature, K	uncertainty
520.15	1.1

System: 1,2-bis(dimethyldodecylammonium)ethane dibromide; phases: Crystal, Liquid, Air at 1 atmosphere
Property: Normal melting temperature, K (Crystal); method: VISOBS
Normal melting temperature, K	uncertainty
430.15	1.1

System: N1,N2-dihexadecyl-N1,N1,N2,N2-tetramethyl-1,2-ethanediaminium bromide; phases: Crystal, Liquid, Air at 1 atmosphere
Property: Normal melting temperature, K (Crystal); method: VISOBS
Normal melting temperature, K	uncertainty
448.15	1.1

System: didecyldiethylammonium bromide; phases: Crystal, Liquid, Air at 1 atmosphere
Property: Normal melting temperature, K (Crystal); method: VISOBS
Normal melting temperature, K	uncertainty
318.15	1.1

System: didodecyldiethylammonium bromide; phases: Crystal, Liquid, Air at 1 atmosphere
Property: Normal melting temperature, K (Crystal); method: VISOBS
Normal melting temperature, K	uncertainty
325.35	1.1

System: diethyldihexadecylammonium bromide; phases: Crystal, Liquid, Air at 1 atmosphere
Property: Normal melting temperature, K (Crystal); method: VISOBS
Normal melting temperature, K	uncertainty
346.95	1.1

System: water + 1,2-bis(dimethyldodecylammonium)ethane dibromide; phases: Liquid
Fixed: Pressure, kPa = 101
Fixed: Mass fraction of 1,2-bis(dimethyldodecylammonium)ethane dibromide = 0.01
Property: Electrical conductivity, S/m (Liquid); method: Alternating current cell with electrodes
Temperature, K	Electrical conductivity, S/m	uncertainty
275.15	0.0196	0.00784
276.25	0.01962	0.00785
277.35	0.01962	0.00785
278.15	0.01964	0.00786
279.45	0.01965	0.00786
280.25	0.01966	0.00786
281.35	0.01967	0.00787
282.15	0.01968	0.00787
283.15	0.0198	0.00792
284.25	0.01984	0.00794
285.15	0.01985	0.00794
285.65	0.01985	0.00794
286.15	0.0199	0.00796
288.15	0.0202	0.00808
289.15	0.0203	0.00812
290.15	0.0204	0.00816
291.15	0.0205	0.0082
292.15	0.02062	0.00825
293.15	0.02098	0.00839
295.75	0.02122	0.00849
298.15	0.02149	0.0086
299.65	0.0218	0.00872
301.65	0.02198	0.00879
303.45	0.0222	0.00888
305.75	0.02248	0.00899
308.15	0.02282	0.00913
310.25	0.0229	0.00916
311.15	0.02302	0.00921
313.15	0.02325	0.0093
315.15	0.02349	0.0094
317.95	0.02365	0.00946
318.15	0.02398	0.00959
320.55	0.0242	0.00968
323.15	0.02436	0.00974
325.55	0.02448	0.00979
327.15	0.02476	0.0099
329.35	0.02487	0.00995
331.55	0.02502	0.01001
334.15	0.0252	0.01008
335.55	0.02543	0.01017
337.95	0.02551	0.01021
338.35	0.02583	0.01033
340.45	0.02602	0.01041
343.15	0.0263	0.01052
345.15	0.02645	0.01058
347.15	0.0266	0.01064
349.15	0.0267	0.01068
353.05	0.027	0.0108

System: water + 1,2-bis(dimethyldodecylammonium)ethane dibromide; phases: Liquid
Fixed: Pressure, kPa = 100
Fixed: Temperature, K = 303.15
Property: Electrical conductivity, S/m (Liquid); method: Alternating current cell with electrodes
Molality, mol/kg of 1,2-bis(dimethyldodecylammonium)ethane dibromide	Electrical conductivity, S/m	uncertainty
0.000201	0.00422	0.00169
0.000301	0.00612	0.00245
0.000402	0.00816	0.00326
0.000503	0.00967	0.00387
0.000603	0.012	0.0048
0.000703	0.01328	0.00531
0.000803	0.01618	0.00647
0.001206	0.01968	0.00787
0.001407	0.0205	0.0082
0.001608	0.0212	0.00848
0.001809	0.022	0.0088
0.00201	0.0226	0.00904
0.002211	0.0231	0.00924

System: water + didecyldiethylammonium bromide; phases: Liquid
Fixed: Pressure, kPa = 100
Fixed: Temperature, K = 303.15
Property: Electrical conductivity, S/m (Liquid); method: Alternating current cell with electrodes
Molality, mol/kg of didecyldiethylammonium bromide	Electrical conductivity, S/m	uncertainty
1e-05	0.00039	0.00019
2e-05	0.0006	0.00025
3e-05	0.00072	0.0003
4e-05	0.00143	0.00058
5e-05	0.00224	0.0009
6e-05	0.00293	0.00117
0.0001	0.0034	0.00136
0.0005	0.0048	0.00192
0.001	0.0092	0.00368
0.005	0.01058	0.00423
0.01	0.0132	0.00528
0.015	0.016	0.0064
0.02	0.0182	0.00728

System: water + didecyldiethylammonium bromide; phases: Liquid
Fixed: Pressure, kPa = 101
Fixed: Mass fraction of didecyldiethylammonium bromide = 0.01
Property: Electrical conductivity, S/m (Liquid); method: Alternating current cell with electrodes
Temperature, K	Electrical conductivity, S/m	uncertainty
277.55	0.01161	0.00464
277.75	0.01155	0.00462
277.85	0.01157	0.00463
277.95	0.01159	0.00464
278.15	0.01168	0.00467
278.25	0.01167	0.00467
278.35	0.01174	0.0047
278.45	0.01162	0.00465
278.55	0.01162	0.00465
278.65	0.01163	0.00465
278.75	0.01174	0.0047
278.85	0.01173	0.00469
279.05	0.01184	0.00474
279.15	0.0118	0.0047
279.25	0.01183	0.00473
279.35	0.01186	0.00474
279.55	0.01196	0.00478
279.65	0.012	0.0048
279.85	0.01201	0.0048
279.95	0.01196	0.00478
280.15	0.01206	0.00482
280.25	0.01211	0.00485
280.35	0.01216	0.00487
280.45	0.01221	0.00488
280.55	0.01228	0.00491
280.65	0.01231	0.00492
280.75	0.0123	0.0049
280.95	0.01234	0.00494
281.05	0.0124	0.005
281.15	0.01239	0.00496
281.25	0.01245	0.00498
281.35	0.0125	0.005
281.45	0.01255	0.00502
281.55	0.0126	0.005
281.65	0.01272	0.00509
281.75	0.01269	0.00508
281.85	0.01272	0.00509
281.95	0.01266	0.00506
282.05	0.01279	0.00512
282.15	0.01285	0.00514
286.45	0.01552	0.00621
286.55	0.01573	0.0063
286.65	0.01585	0.00635
286.75	0.01599	0.0064
286.85	0.01612	0.00646
286.95	0.01637	0.00656
287.05	0.01644	0.00659
287.15	0.0167	0.0067
287.25	0.01685	0.00675
287.35	0.01716	0.00688
287.45	0.01747	0.00701
287.55	0.01769	0.0071
287.65	0.01794	0.0072
287.75	0.01821	0.00731
287.85	0.01862	0.00748
287.95	0.0189	0.0076
288.05	0.01917	0.00771
288.15	0.01964	0.0079
288.25	0.0201	0.0081
288.35	0.0206	0.0083
288.45	0.021	0.0084
288.55	0.0213	0.0086
288.65	0.0218	0.0087
288.75	0.022	0.0088
288.85	0.0225	0.009
288.95	0.0227	0.0091
289.05	0.0228	0.0091
289.15	0.0233	0.0093
289.25	0.0238	0.0095
289.35	0.0241	0.0097
289.45	0.0243	0.0098
289.55	0.0249	0.01
289.75	0.0256	0.0103
289.85	0.0262	0.0105
289.95	0.0267	0.0107
290.05	0.0274	0.011
290.15	0.028	0.0113
290.25	0.0287	0.0116
290.35	0.0297	0.012
290.45	0.0305	0.0123
290.55	0.0311	0.0126
290.65	0.0319	0.0129
290.75	0.0329	0.0133
290.85	0.0339	0.0137
290.95	0.0352	0.0142
291.15	0.0365	0.0147
291.25	0.0379	0.0153
291.35	0.0395	0.016
296.35	0.0745	0.0298
296.45	0.0746	0.0298
296.55	0.0748	0.0299
296.65	0.0748	0.0299
296.75	0.0749	0.03
296.85	0.075	0.03
296.95	0.075	0.03
297.05	0.0752	0.0301
297.15	0.0752	0.0301
297.25	0.0752	0.0301
297.35	0.0754	0.0302
297.45	0.0755	0.0302
297.55	0.0755	0.0302
297.65	0.0757	0.0303
297.75	0.0757	0.0303
297.85	0.0758	0.0303
297.95	0.0759	0.0304
298.05	0.076	0.0304
301.15	0.0789	0.0316
301.25	0.079	0.0316
301.35	0.0792	0.0317
301.55	0.0794	0.0318
301.65	0.0795	0.0318
301.75	0.0795	0.0318
301.95	0.0797	0.0319
302.05	0.0799	0.032
302.15	0.08	0.032
302.25	0.0801	0.032
302.35	0.0802	0.0321
302.45	0.0802	0.0321
302.55	0.0803	0.0321
302.65	0.0803	0.0321
302.85	0.0806	0.0322
302.95	0.0807	0.0323
303.15	0.0809	0.0324
303.25	0.0811	0.0324
303.35	0.0811	0.0324
303.45	0.0812	0.0325
303.55	0.0814	0.0326
303.75	0.0816	0.0326
303.85	0.0817	0.0327
304.05	0.0818	0.0327
304.15	0.0819	0.0328
304.35	0.0821	0.0328
304.55	0.0823	0.0329
312.45	0.0902	0.0361
312.55	0.0904	0.0362
312.75	0.0906	0.0362
312.95	0.0908	0.0363
313.15	0.091	0.0364
282.35	0.01282	0.00513
282.45	0.01291	0.00516
282.55	0.01296	0.00518
282.65	0.01298	0.00519
282.75	0.01306	0.00522
282.85	0.01307	0.00523
282.95	0.01314	0.00526
283.05	0.01319	0.00528
283.15	0.01325	0.0053
283.25	0.01333	0.00533
283.35	0.01331	0.00532
283.45	0.01335	0.00534
283.55	0.01336	0.00534
283.75	0.01346	0.00538
283.85	0.01358	0.00543
283.95	0.0136	0.0054
284.05	0.01362	0.00545
284.15	0.01365	0.00546
284.25	0.01366	0.00546
284.35	0.01375	0.0055
284.45	0.01387	0.00555
284.55	0.01381	0.00553
284.65	0.01389	0.00556
284.75	0.01404	0.00562
284.85	0.01407	0.00563
284.95	0.01407	0.00563
285.05	0.01434	0.00574
285.15	0.01429	0.00572
285.25	0.01419	0.00568
285.35	0.0144	0.0058
285.45	0.01449	0.0058
285.55	0.01455	0.00582
285.65	0.0146	0.0058
285.75	0.01479	0.00592
285.85	0.01471	0.00589
285.95	0.01499	0.006
286.05	0.01499	0.006
286.15	0.01522	0.00609
286.25	0.01525	0.0061
286.35	0.01536	0.00615
291.45	0.0401	0.0163
291.55	0.0419	0.017
291.65	0.0447	0.0182
291.75	0.0451	0.0185
291.85	0.047	0.0194
291.95	0.0496	0.0209
292.05	0.0526	0.022
292.15	0.0559	0.0231
292.25	0.0648	0.0266
292.35	0.06485	0.02649
292.45	0.0649	0.0264
292.55	0.0676	0.0271
292.65	0.0687	0.0276
292.75	0.0704	0.0283
292.85	0.0711	0.0285
292.95	0.0714	0.0286
293.05	0.0718	0.0287
293.15	0.0718	0.0287
293.35	0.0721	0.0288
293.45	0.0722	0.0289
293.55	0.0723	0.0289
293.65	0.0724	0.029
293.75	0.0725	0.029
293.85	0.0726	0.029
293.95	0.0726	0.029
293.95	0.0726	0.029
294.05	0.0727	0.0291
294.15	0.0728	0.0291
294.35	0.0729	0.0292
294.45	0.073	0.0292
294.55	0.0731	0.0292
294.65	0.0732	0.0293
294.75	0.0732	0.0293
294.85	0.0733	0.0293
294.95	0.0734	0.0294
295.05	0.0735	0.0294
295.15	0.0737	0.0295
295.25	0.0736	0.0294
295.35	0.0738	0.0295
295.45	0.0739	0.0296
295.55	0.074	0.0296
295.65	0.074	0.0296
295.75	0.0741	0.0296
295.85	0.0741	0.0296
295.95	0.0742	0.0297
296.05	0.0743	0.0297
296.15	0.0744	0.0298
296.25	0.0746	0.0298
304.75	0.0825	0.033
304.85	0.0826	0.033
304.95	0.0827	0.0331
305.05	0.0829	0.0332
305.35	0.0831	0.0332
305.55	0.0831	0.0332
305.75	0.0836	0.0334
305.85	0.0838	0.0335
306.05	0.0839	0.0336
306.25	0.084	0.0336
306.35	0.0841	0.0336
306.45	0.0842	0.0337
306.65	0.0843	0.0337
306.75	0.0845	0.0338
306.95	0.0848	0.0339
307.05	0.0849	0.034
307.25	0.0851	0.034
307.55	0.0854	0.0342
307.65	0.0855	0.0342
307.85	0.0857	0.0343
308.15	0.086	0.0344
308.25	0.0861	0.0344
308.35	0.0862	0.0345
308.55	0.0862	0.0345
308.75	0.0864	0.0346
308.85	0.0866	0.0346
309.15	0.0871	0.0348
309.35	0.0872	0.0349
309.55	0.0874	0.035
309.75	0.0876	0.035
309.85	0.0877	0.0351
309.95	0.0878	0.0351
310.25	0.088	0.0352
310.45	0.0882	0.0353
310.55	0.0883	0.0353
310.65	0.0884	0.0354
310.95	0.0888	0.0355
311.05	0.089	0.0356
311.25	0.0893	0.0357
311.45	0.0894	0.0358
311.65	0.0894	0.0358
311.75	0.0896	0.0358
311.85	0.0897	0.0359
312.15	0.09	0.036
312.35	0.0901	0.036

System: water + didodecyldiethylammonium bromide; phases: Liquid
Fixed: Pressure, kPa = 100
Fixed: Temperature, K = 303.15
Property: Electrical conductivity, S/m (Liquid); method: Alternating current cell with electrodes
Molality, mol/kg of didodecyldiethylammonium bromide	Electrical conductivity, S/m	uncertainty
3e-05	0.00146	0.00059
4e-05	0.00189	0.00076
5e-05	0.0025	0.00101
6e-05	0.0032	0.00129
0.0001	0.00362	0.00145
0.0005	0.00484	0.00194
0.001	0.00678	0.00271
0.002	0.00928	0.00371
0.003	0.01213	0.00485

System: water + didodecyldiethylammonium bromide; phases: Liquid
Fixed: Pressure, kPa = 101
Fixed: Mass fraction of didodecyldiethylammonium bromide = 0.01
Property: Electrical conductivity, S/m (Liquid); method: Alternating current cell with electrodes
Temperature, K	Electrical conductivity, S/m	uncertainty
279.25	0.00329	0.00132
279.35	0.00328	0.00131
279.45	0.00328	0.00131
279.55	0.00328	0.00131
279.65	0.00329	0.00132
279.75	0.00331	0.00132
279.75	0.00332	0.00133
279.85	0.00335	0.00134
279.95	0.00338	0.00135
279.95	0.00343	0.00137
280.15	0.00345	0.00138
280.25	0.00348	0.00139
280.35	0.00355	0.00142
280.45	0.00357	0.00143
280.55	0.00359	0.00144
280.65	0.0036	0.00144
280.75	0.00364	0.00146
280.85	0.0037	0.00148
280.85	0.00371	0.00149
280.95	0.00378	0.00151
281.05	0.00381	0.00152
281.15	0.00381	0.00152
281.25	0.00371	0.00148
281.35	0.00377	0.00151
281.45	0.00374	0.0015
281.55	0.00378	0.00151
281.65	0.00378	0.00151
281.85	0.00378	0.00151
281.95	0.00374	0.0015
282.05	0.00366	0.00146
282.25	0.00373	0.00149
282.45	0.00366	0.00146
282.65	0.00365	0.00146
282.75	0.00364	0.00146
282.85	0.00356	0.00142
283.05	0.00356	0.00143
283.15	0.0036	0.00144
283.35	0.0034	0.00136
283.45	0.0036	0.00144
283.55	0.00354	0.00142
283.75	0.0035	0.0014
283.85	0.00351	0.0014
283.95	0.00346	0.00138
284.05	0.0035	0.0014
284.25	0.00354	0.00142
284.35	0.00354	0.00142
284.55	0.0034	0.00136
284.65	0.00355	0.00142
284.75	0.0035	0.0014
284.85	0.00345	0.00138
284.95	0.00352	0.00141
285.05	0.00342	0.00137
285.15	0.00344	0.00138
285.25	0.0035	0.0014
285.35	0.00344	0.00138
285.45	0.00344	0.00138
285.55	0.00342	0.00137
285.65	0.00343	0.00137
285.75	0.0034	0.00136
285.85	0.00342	0.00137
285.95	0.00343	0.00137
286.05	0.00348	0.00139
286.15	0.0034	0.00136
286.25	0.00342	0.00137
286.35	0.00341	0.00136
286.45	0.00343	0.00137
286.55	0.00339	0.00136
286.65	0.0034	0.00136
286.75	0.00347	0.00139
286.95	0.00347	0.00139
287.05	0.00347	0.00139
287.15	0.00344	0.00138
287.25	0.00341	0.00136
287.35	0.00345	0.00138
287.45	0.00347	0.00139
287.55	0.00345	0.00138
287.65	0.00341	0.00136
287.75	0.00342	0.00137
287.85	0.00343	0.00137
287.95	0.00348	0.00139
288.05	0.00344	0.00138
288.15	0.00345	0.00138
288.25	0.00342	0.00137
288.45	0.0035	0.0014
288.55	0.00357	0.00143
288.65	0.00345	0.00138
288.75	0.0035	0.0014
288.85	0.00345	0.00138
288.95	0.00346	0.00138
289.05	0.00344	0.00138
289.15	0.00349	0.0014
289.25	0.00346	0.00138
289.35	0.00352	0.00141
289.45	0.00346	0.00138
289.55	0.00347	0.00139
289.65	0.00352	0.00141
289.75	0.00352	0.00141
289.85	0.00352	0.00141
289.95	0.00351	0.0014
290.05	0.00357	0.00143
290.15	0.00348	0.00139
290.25	0.0035	0.0014
290.35	0.00347	0.00139
290.55	0.00355	0.00142
290.65	0.00364	0.00146
290.75	0.00356	0.00142
290.85	0.00359	0.00144
290.95	0.0036	0.00144
291.05	0.00358	0.00143
291.15	0.00361	0.00144
291.25	0.00357	0.00143
291.35	0.00362	0.00145
291.45	0.0036	0.00144
291.55	0.00366	0.00146
291.65	0.00359	0.00144
291.75	0.0036	0.00144
291.85	0.00363	0.00145
291.95	0.00362	0.00145
292.05	0.00364	0.00146
292.15	0.00366	0.00146
292.25	0.00366	0.00146
292.35	0.00367	0.00147
292.45	0.00362	0.00145
292.55	0.00374	0.0015
292.65	0.00369	0.00148
292.75	0.00367	0.00147
292.85	0.00372	0.00149
292.95	0.00369	0.00148
293.05	0.00378	0.00151
293.15	0.00377	0.00151
293.25	0.00376	0.0015
293.35	0.00376	0.0015
293.45	0.0037	0.00148
293.55	0.00375	0.0015
293.65	0.00376	0.0015
293.75	0.00372	0.00149
293.85	0.00383	0.00153
293.95	0.00378	0.00151
294.05	0.0038	0.00152
294.15	0.00381	0.00152
294.25	0.0038	0.00152
294.35	0.00381	0.00152
294.45	0.00383	0.00153
294.55	0.00382	0.00153
294.65	0.00384	0.00154
294.75	0.00385	0.00154
294.85	0.00386	0.00154
294.95	0.00387	0.00155
295.05	0.00389	0.00156
295.15	0.00389	0.00156
295.25	0.00386	0.00154
294.95	0.00387	0.00155
295.05	0.00389	0.00156
295.25	0.00386	0.00154
294.95	0.00387	0.00155
295.05	0.00389	0.00156
295.15	0.00389	0.00156
295.25	0.00386	0.00154
294.95	0.00387	0.00155
295.05	0.00389	0.00156
295.15	0.00389	0.00156
295.25	0.00386	0.00154
295.35	0.00396	0.00158
295.45	0.00395	0.00158
295.55	0.00387	0.00155
295.65	0.00396	0.00158
296.45	0.00389	0.00156
296.55	0.00397	0.00159
296.75	0.00394	0.00158
297.45	0.00396	0.00158
297.85	0.00401	0.0016
298.15	0.00402	0.00161
298.55	0.00399	0.0016
298.75	0.00405	0.00162
298.95	0.00402	0.00161
299.15	0.00407	0.00163
299.55	0.00409	0.00164
299.75	0.00406	0.00162
300.05	0.00407	0.00163
300.45	0.00419	0.00168
300.75	0.00428	0.00171
300.95	0.00431	0.00173
301.55	0.00453	0.00181
301.85	0.00472	0.00189
302.15	0.0048	0.00192
302.35	0.005	0.002
302.75	0.00518	0.00208
303.05	0.00543	0.00218
303.45	0.00568	0.00228
303.75	0.00609	0.00245
304.55	0.00686	0.00275
304.85	0.00713	0.00286
305.15	0.00765	0.00307
305.55	0.00812	0.00325
305.85	0.00833	0.00335
306.05	0.00891	0.00358
306.35	0.00946	0.00386
307.35	0.01356	0.00548
307.55	0.01567	0.00633
307.95	0.01596	0.00638
308.25	0.01587	0.00635
308.35	0.01602	0.00641
308.75	0.01623	0.00649
308.95	0.01648	0.00659
309.25	0.01673	0.00669
309.75	0.01688	0.00675
310.05	0.01715	0.00686
310.15	0.01716	0.00687
310.45	0.01748	0.007
310.65	0.01768	0.00707
310.85	0.01788	0.00715
311.05	0.01799	0.0072
311.25	0.01814	0.00726
311.45	0.01829	0.00732
311.65	0.0184	0.00736
311.75	0.0185	0.0074
311.85	0.01866	0.00747
311.95	0.01879	0.00752
312.15	0.01889	0.00756
312.35	0.01915	0.00766
312.55	0.01937	0.00775
312.65	0.01938	0.00775
312.85	0.01961	0.00785
312.95	0.01963	0.00785
313.35	0.0201	0.00804
313.65	0.0204	0.00816
313.85	0.0205	0.0082
313.95	0.0207	0.00828
314.05	0.0208	0.00832
314.15	0.0209	0.00836
314.35	0.021	0.0084
314.45	0.0212	0.00848
314.65	0.0213	0.00852
314.75	0.0214	0.00856
314.85	0.0216	0.00864
314.95	0.0217	0.00868
315.05	0.0218	0.00872
315.15	0.0219	0.00876
315.25	0.022	0.0088
315.35	0.0222	0.00888
315.45	0.0223	0.00892
315.55	0.0224	0.00896
315.65	0.0224	0.00896
315.75	0.0226	0.00904
315.85	0.0227	0.00908
315.95	0.0228	0.00912
316.05	0.0228	0.00912
316.15	0.023	0.0092
316.25	0.023	0.0092
316.35	0.0231	0.00924
316.45	0.0233	0.00932
316.55	0.0234	0.00936
316.65	0.0236	0.00944
316.85	0.0238	0.00952
317.05	0.0239	0.00956
317.15	0.0242	0.00968
317.25	0.0242	0.00968
317.35	0.0244	0.00976
317.45	0.0245	0.0098
317.55	0.0246	0.00984
317.65	0.0247	0.00988
317.75	0.0249	0.00996
317.85	0.0249	0.00996
317.95	0.0252	0.01008
318.05	0.0253	0.01012
318.15	0.0253	0.01013
318.25	0.0255	0.0102
318.35	0.0257	0.01028
318.45	0.0259	0.01036
318.55	0.0259	0.01036
318.65	0.026	0.0104
318.75	0.0262	0.01048
318.85	0.0263	0.01052
318.95	0.0264	0.01056
319.05	0.0265	0.0106
319.15	0.0266	0.01064
319.25	0.0268	0.01072
319.35	0.027	0.0108
319.45	0.0271	0.01084
319.55	0.0272	0.01088
319.65	0.0273	0.01092
319.75	0.0275	0.011
319.85	0.0276	0.01104
319.95	0.0277	0.01108
320.05	0.0278	0.01112
320.15	0.028	0.0112
320.25	0.0282	0.01128
320.35	0.0283	0.01132
320.45	0.0283	0.01132
320.55	0.0286	0.01144
320.65	0.0288	0.01152
320.75	0.0289	0.01156
320.85	0.029	0.0116
320.95	0.0292	0.01168
321.05	0.0293	0.01172
321.15	0.0294	0.01176
321.25	0.0296	0.01184
321.35	0.0298	0.01192
321.45	0.03	0.012
321.55	0.0301	0.01204
321.65	0.0303	0.01212
321.75	0.0304	0.01216
321.85	0.0306	0.01224
321.95	0.0308	0.01232
322.15	0.031	0.0124
322.25	0.0312	0.01248
322.35	0.0314	0.01256
322.45	0.0315	0.0126
322.55	0.0316	0.01264
322.65	0.0317	0.01268
322.75	0.0318	0.01272
322.85	0.0319	0.01276
323.35	0.0323	0.01292
323.55	0.0324	0.01296
323.75	0.0326	0.01304
324.05	0.033	0.0132
324.25	0.0332	0.01328
324.55	0.0334	0.01336
324.75	0.0338	0.01352
325.05	0.0339	0.01356
325.35	0.0344	0.01376
325.55	0.0348	0.01392
325.85	0.0352	0.01408
326.35	0.036	0.0144
326.75	0.0368	0.01472
327.35	0.0372	0.01488
327.95	0.0384	0.01536
328.55	0.0392	0.01568
328.85	0.0402	0.01608
329.55	0.0411	0.01644
330.25	0.0426	0.01705
331.05	0.0442	0.01769
331.85	0.0461	0.01844
332.25	0.0461	0.01844
332.95	0.0482	0.01929
333.35	0.049	0.0196
333.55	0.0491	0.01964
333.75	0.0491	0.01964
333.85	0.0493	0.01972
333.95	0.0496	0.01984
334.05	0.0501	0.02005
334.15	0.0501	0.02005
334.25	0.0504	0.02016
334.35	0.0505	0.0202
334.45	0.0507	0.02028
334.55	0.0507	0.02028
334.65	0.0509	0.02036
334.75	0.0512	0.02048
334.85	0.0514	0.02056
334.95	0.0514	0.02056
335.05	0.0514	0.02056
335.15	0.0515	0.0206
335.25	0.0519	0.02076
335.35	0.052	0.0208
335.45	0.0521	0.02084
335.65	0.0524	0.02096
335.75	0.0526	0.02104
335.95	0.0528	0.02112
336.05	0.0531	0.02124
336.15	0.0531	0.02124
336.25	0.0532	0.02128
336.35	0.0536	0.02144
336.45	0.0537	0.02148
336.55	0.0539	0.02156
336.65	0.0542	0.02168
336.75	0.0544	0.02176
336.85	0.0545	0.0218
336.95	0.0546	0.02184
337.05	0.0548	0.02192
337.15	0.0549	0.02196
337.25	0.0551	0.02204
337.35	0.0552	0.02208
337.45	0.0553	0.02212
337.55	0.0556	0.02224
337.65	0.0556	0.02224
337.75	0.0558	0.02232
337.85	0.0559	0.02236
337.95	0.0563	0.02252
338.05	0.0564	0.02256
338.15	0.0566	0.02264
338.25	0.0568	0.02272
338.35	0.0569	0.02276
338.45	0.0571	0.02284
338.55	0.0573	0.02292
338.65	0.0575	0.023
338.75	0.0577	0.02308
338.85	0.0578	0.02312
338.95	0.058	0.0232
339.05	0.0583	0.02332
339.15	0.0582	0.02328
339.25	0.0585	0.0234
339.35	0.0587	0.02348
339.45	0.0588	0.02352
339.55	0.0591	0.02364
339.65	0.0592	0.02368
339.75	0.0593	0.02372
339.85	0.0596	0.02384
339.95	0.0598	0.02392
340.05	0.06	0.024
340.15	0.0602	0.02408
340.25	0.0605	0.0242
340.35	0.0606	0.02424
340.45	0.0608	0.02432
340.55	0.061	0.0244
340.65	0.0612	0.02448
340.75	0.0614	0.02456
340.85	0.0614	0.02456
340.95	0.0616	0.02464
341.05	0.062	0.0248
341.15	0.062	0.0248
341.25	0.0622	0.02488
341.35	0.0624	0.02496
341.45	0.0625	0.025
341.55	0.0627	0.02508
341.65	0.0629	0.02516
341.75	0.063	0.0252
341.85	0.0633	0.02532
341.95	0.0633	0.02532
342.05	0.0637	0.02548
342.15	0.0639	0.02556
342.25	0.064	0.0256
342.35	0.0642	0.02568
342.45	0.0643	0.02572
342.55	0.0645	0.0258
342.65	0.0649	0.02596
342.75	0.0651	0.02604
342.85	0.0654	0.02616
342.95	0.0656	0.02624
343.05	0.0657	0.02628
343.15	0.0658	0.02632
343.25	0.0662	0.02648
343.35	0.0663	0.02652
343.45	0.0663	0.02652
343.55	0.0664	0.02656
343.65	0.0667	0.02668
343.75	0.0667	0.02668
343.85	0.067	0.0268
343.95	0.0674	0.02696
344.05	0.0675	0.027
344.15	0.0674	0.02696
344.25	0.0677	0.02708
344.35	0.0678	0.02712
344.45	0.0679	0.02716
344.55	0.0679	0.02716
344.65	0.068	0.0272
344.75	0.0685	0.0274
344.85	0.0686	0.02744
344.95	0.0689	0.02756
345.05	0.0688	0.02752
345.15	0.069	0.0276
345.25	0.069	0.0276
345.25	0.0692	0.02768
345.35	0.0692	0.02768
345.45	0.0694	0.02776
345.55	0.0697	0.02788
345.65	0.0699	0.02796
345.75	0.0699	0.02796
345.85	0.07	0.028
345.95	0.0701	0.02804
346.05	0.0702	0.02808
346.15	0.0704	0.02816
346.25	0.0707	0.02828
346.35	0.0709	0.02836
346.45	0.0708	0.02832
346.55	0.0709	0.02836
346.65	0.0712	0.02848
346.75	0.0712	0.02848
346.85	0.0713	0.02852

System: water + diethyldihexadecylammonium bromide; phases: Liquid
Fixed: Pressure, kPa = 100
Fixed: Temperature, K = 303.15
Property: Electrical conductivity, S/m (Liquid); method: Alternating current cell with electrodes
Molality, mol/kg of diethyldihexadecylammonium bromide	Electrical conductivity, S/m	uncertainty
5e-06	0.00045	0.00023
1e-05	0.00081	0.00035
1.5e-05	0.00106	0.00042
3e-05	0.00114	0.00046
4e-05	0.00124	0.0005
5e-05	0.00132	0.00053
6e-05	0.00136	0.00054

System: water + diethyldihexadecylammonium bromide; phases: Liquid
Fixed: Pressure, kPa = 101
Fixed: Mass fraction of diethyldihexadecylammonium bromide = 0.01
Property: Electrical conductivity, S/m (Liquid); method: Alternating current cell with electrodes
Temperature, K	Electrical conductivity, S/m	uncertainty
279.15	0.0018	0.00072
279.25	0.00186	0.00074
279.45	0.00186	0.00074
279.55	0.00187	0.00075
279.65	0.00187	0.00075
279.85	0.00188	0.00075
280.15	0.00189	0.00076
280.35	0.00189	0.00076
280.55	0.0019	0.00076
280.65	0.0019	0.00076
281.05	0.0019	0.00076
281.15	0.00191	0.00076
281.55	0.00191	0.00076
281.85	0.00192	0.00077
282.05	0.00192	0.00077
282.25	0.00193	0.00077
282.75	0.00194	0.00078
283.05	0.00195	0.00078
283.15	0.00195	0.00078
283.45	0.00195	0.00078
283.65	0.00195	0.00078
283.85	0.00195	0.00078
283.95	0.00195	0.00078
284.15	0.00195	0.00078
284.55	0.00197	0.00079
284.75	0.00197	0.00079
285.25	0.00197	0.00079
285.45	0.00198	0.00079
285.55	0.00198	0.00079
285.75	0.00198	0.00079
285.85	0.00198	0.00079
286.15	0.00198	0.00079
286.25	0.00198	0.00079
286.55	0.00198	0.00079
286.65	0.00198	0.00079
289.15	0.002	0.0008
290.15	0.00201	0.0008
317.25	0.00323	0.00129
318.65	0.00322	0.00129
318.75	0.00325	0.0013
319.15	0.00326	0.0013
320.75	0.00328	0.00131
320.95	0.00331	0.00132
321.05	0.00333	0.00133
322.05	0.0034	0.00136
322.15	0.0034	0.00136
323.15	0.00347	0.00139
290.85	0.00202	0.00081
291.45	0.00204	0.00082
291.75	0.00205	0.00082
292.05	0.00206	0.00082
292.95	0.00207	0.00083
295.55	0.00209	0.00084
296.65	0.0021	0.00084
297.65	0.00211	0.00084
298.65	0.00212	0.00085
299.45	0.00213	0.00085
300.75	0.00214	0.00086
301.25	0.00215	0.00086
302.35	0.00216	0.00086
303.05	0.00217	0.00087
303.65	0.00219	0.00088
304.05	0.0022	0.00088
305.25	0.00226	0.0009
305.55	0.00229	0.00092
305.95	0.00235	0.00094
306.45	0.00239	0.00096
306.95	0.00247	0.00099
307.35	0.00254	0.00102
307.65	0.00264	0.00106
307.95	0.0027	0.00108
308.15	0.00278	0.00111
308.45	0.00294	0.00118
308.75	0.00294	0.00118
308.95	0.00295	0.00118
309.55	0.00296	0.00118
310.25	0.00297	0.00119
311.35	0.00299	0.0012
312.45	0.00304	0.00122
312.65	0.00305	0.00122
313.55	0.00305	0.00122
313.95	0.00308	0.00123
314.15	0.00314	0.00126
316.55	0.00319	0.00128

System: water + N1,N2-dihexadecyl-N1,N1,N2,N2-tetramethyl-1,2-ethanediaminium bromide; phases: Liquid
Fixed: Pressure, kPa = 100
Fixed: Temperature, K = 303.15
Property: Electrical conductivity, S/m (Liquid); method: Alternating current cell with electrodes
Molality, mol/kg of N1,N2-dihexadecyl-N1,N1,N2,N2-tetramethyl-1,2-ethanediaminium bromide	Electrical conductivity, S/m	uncertainty
5e-06	0.00031	0.00013
1e-05	0.0004	0.00016
1.5e-05	0.00049	0.0002
2e-05	0.00058	0.00023
2.5e-05	0.00065	0.00026
3e-05	0.00073	0.00029
3.5e-05	0.0008	0.00032
4e-05	0.00082	0.00033
5e-05	0.00086	0.00034
6e-05	0.00088	0.00035

System: dodecyltrimethylammonium bromide + water; phases: Liquid
Fixed: Pressure, kPa = 100
Fixed: Temperature, K = 303.15
Property: Electrical conductivity, S/m (Liquid); method: Alternating current cell with electrodes
Molality, mol/kg of dodecyltrimethylammonium bromide	Electrical conductivity, S/m	uncertainty
0.001	0.014	0.0056
0.005	0.055	0.022
0.01	0.1	0.04
0.012	0.12	0.048
0.015	0.15	0.06
0.0181	0.16502	0.06601
0.0201	0.165	0.066
0.0252	0.18	0.072
0.0302	0.195	0.078
0.0402	0.23	0.092
0.0502	0.26	0.104

System: dodecyltrimethylammonium bromide + water; phases: Liquid
Fixed: Pressure, kPa = 101
Fixed: Mass fraction of water = 0.01
Property: Electrical conductivity, S/m (Liquid); method: Alternating current cell with electrodes
Temperature, K	Electrical conductivity, S/m	uncertainty
279.15	0.186	0.0744
279.25	0.1864	0.0746
279.35	0.1865	0.0746
279.45	0.1863	0.0745
279.55	0.1862	0.0745
279.65	0.1862	0.0745
279.85	0.1857	0.0743
279.95	0.1865	0.0746
280.05	0.1862	0.0745
280.15	0.1862	0.0745
280.25	0.1859	0.0744
280.35	0.1858	0.0743
280.45	0.186	0.0744
280.55	0.1858	0.0743
280.65	0.1857	0.0743
280.75	0.1854	0.0742
280.85	0.1855	0.0742
280.95	0.1854	0.0742
281.05	0.1854	0.0742
281.15	0.1852	0.0741
281.25	0.1854	0.0742
281.35	0.1852	0.0741
281.45	0.185	0.074
281.55	0.1849	0.074
281.65	0.1849	0.074
281.85	0.1848	0.0739
281.95	0.1846	0.0738
282.05	0.1847	0.0739
282.15	0.1846	0.0738
282.25	0.1846	0.0738
282.35	0.1844	0.0738
282.45	0.1845	0.0738
282.55	0.1843	0.0737
282.65	0.1844	0.0738
282.75	0.1843	0.0737
282.85	0.1842	0.0737
282.95	0.1841	0.0736
283.05	0.1841	0.0736
290.45	0.1827	0.0731
290.55	0.1828	0.0731
290.65	0.1828	0.0731
290.75	0.1828	0.0731
290.85	0.1828	0.0731
290.95	0.1829	0.0732
291.05	0.1829	0.0732
291.15	0.1829	0.0732
291.25	0.183	0.0732
291.35	0.1829	0.0732
291.45	0.183	0.0732
291.55	0.1831	0.0732
291.65	0.1831	0.0732
291.75	0.1831	0.0732
291.85	0.1832	0.0733
292.15	0.1832	0.0733
292.25	0.1832	0.0733
292.65	0.1832	0.0733
292.75	0.1834	0.0734
292.85	0.1834	0.0734
292.95	0.1836	0.0734
293.05	0.1837	0.0735
293.15	0.1838	0.0735
293.25	0.1839	0.0736
294.25	0.1841	0.0736
294.35	0.1841	0.0736
294.45	0.1841	0.0736
294.55	0.1843	0.0737
294.75	0.1845	0.0738
294.85	0.1846	0.0738
294.95	0.1846	0.0738
295.15	0.1848	0.0739
295.25	0.1848	0.0739
295.45	0.1848	0.0739
295.65	0.1849	0.074
295.75	0.185	0.074
296.05	0.1853	0.0741
296.15	0.1853	0.0741
296.55	0.1855	0.0742
296.85	0.1856	0.0742
297.05	0.1859	0.0744
297.25	0.186	0.0744
297.45	0.1861	0.0744
297.65	0.1863	0.0745
283.15	0.1841	0.0736
283.25	0.1839	0.0736
283.35	0.1839	0.0736
283.45	0.1838	0.0735
283.55	0.1839	0.0736
283.65	0.1838	0.0735
283.75	0.1837	0.0735
283.85	0.1837	0.0735
283.95	0.1837	0.0735
284.05	0.1835	0.0734
284.05	0.1836	0.0734
284.15	0.1836	0.0734
284.25	0.1835	0.0734
284.35	0.1835	0.0734
284.45	0.1834	0.0734
284.55	0.1834	0.0734
284.65	0.1833	0.0733
284.75	0.1834	0.0734
284.85	0.1833	0.0733
284.95	0.1833	0.0733
285.05	0.1833	0.0733
285.15	0.1832	0.0733
288.05	0.1822	0.0729
288.15	0.1823	0.0729
288.25	0.1824	0.073
288.35	0.1824	0.073
288.45	0.1824	0.073
288.55	0.1825	0.073
288.65	0.1824	0.073
288.75	0.1824	0.073
288.85	0.1825	0.073
288.95	0.1825	0.073
289.85	0.1826	0.073
289.95	0.1826	0.073
290.05	0.1826	0.073
290.15	0.1827	0.0731
290.25	0.1827	0.0731
290.35	0.1827	0.0731
297.85	0.1864	0.0746
298.15	0.1865	0.0746
298.65	0.1869	0.0748
298.85	0.1871	0.0748
299.05	0.1872	0.0749
299.25	0.1875	0.075
299.55	0.1876	0.075
299.75	0.1878	0.0751
299.85	0.1878	0.0751
300.05	0.188	0.0752
300.25	0.1882	0.0753
300.45	0.1883	0.0753
300.75	0.1887	0.0755
301.05	0.189	0.0756
301.55	0.1889	0.0756
301.75	0.1893	0.0757
301.95	0.1896	0.0758
302.25	0.1898	0.0759
302.55	0.19	0.076
302.75	0.1903	0.0761
302.95	0.1905	0.0762
303.25	0.1908	0.0763
303.65	0.191	0.0764
303.85	0.1911	0.0764
304.15	0.1915	0.0766
305.45	0.1927	0.0771
306.15	0.194	0.0776
306.45	0.194	0.0776
306.75	0.1943	0.0777
307.05	0.1945	0.0778
307.85	0.1954	0.0782
308.15	0.1958	0.0783
308.45	0.1962	0.0785
308.75	0.1964	0.0786
309.35	0.197	0.0788
309.55	0.1972	0.0789
309.85	0.1976	0.079
310.05	0.1979	0.0792
310.35	0.1986	0.0794
310.65	0.1988	0.0795
310.95	0.1992	0.0797
311.35	0.1994	0.0798

System: N,N,N-trimethyl-1-hexadecanaminium bromide + water; phases: Liquid
Fixed: Pressure, kPa = 100
Fixed: Temperature, K = 303.15
Property: Electrical conductivity, S/m (Liquid); method: Alternating current cell with electrodes
Molality, mol/kg of N,N,N-trimethyl-1-hexadecanaminium bromide	Electrical conductivity, S/m	uncertainty
0.0002	0.0028	0.00112
0.0005	0.0061	0.00244
0.0008	0.0092	0.00368
0.00085	0.01	0.004
0.0009	0.0103	0.00412
0.001	0.011	0.0044
0.0012	0.012	0.0048
0.0014	0.0128	0.00512
0.0016	0.0135	0.0054
0.002	0.0145	0.0058

System: N,N,N-trimethyl-1-hexadecanaminium bromide + water; phases: Liquid
Fixed: Pressure, kPa = 101
Fixed: Mass fraction of water = 0.01
Property: Electrical conductivity, S/m (Liquid); method: Alternating current cell with electrodes
Temperature, K	Electrical conductivity, S/m	uncertainty
278.35	0.0058	0.00233
278.45	0.00619	0.00248
278.65	0.00607	0.00243
278.75	0.00612	0.00245
278.85	0.0062	0.00248
278.95	0.00609	0.00244
279.05	0.00617	0.00247
279.15	0.00614	0.00246
279.25	0.0062	0.00248
279.35	0.00616	0.00246
279.45	0.00619	0.00248
279.55	0.00628	0.00251
279.65	0.00609	0.00244
279.85	0.0061	0.00244
279.95	0.00631	0.00252
280.05	0.00615	0.00246
280.15	0.00638	0.00255
280.25	0.00613	0.00245
280.35	0.00642	0.00257
280.45	0.00634	0.00254
280.55	0.00613	0.00245
280.65	0.00616	0.00247
280.75	0.00638	0.00255
280.95	0.00614	0.00246
281.05	0.00624	0.0025
281.25	0.00621	0.00248
281.35	0.00655	0.00262
281.45	0.00644	0.00258
281.55	0.00622	0.00249
281.75	0.00649	0.0026
281.85	0.00648	0.00259
282.05	0.00651	0.0026
285.85	0.00716	0.00286
285.95	0.00733	0.00293
286.05	0.00702	0.00281
286.15	0.00705	0.00282
286.25	0.007	0.0028
286.35	0.00737	0.00295
286.45	0.00737	0.00295
286.55	0.00715	0.00286
286.65	0.00719	0.00288
286.75	0.00733	0.00293
286.85	0.0074	0.00296
286.95	0.00708	0.00283
287.05	0.00755	0.00302
287.15	0.00733	0.00293
287.25	0.00744	0.00298
287.35	0.00761	0.00304
287.45	0.00728	0.00291
287.55	0.00751	0.003
287.65	0.00752	0.00301
287.75	0.0073	0.00292
287.85	0.0076	0.00304
287.95	0.00774	0.0031
288.05	0.0076	0.00304
288.15	0.00778	0.00312
288.25	0.00766	0.00306
288.35	0.00772	0.00309
288.45	0.00805	0.00322
288.55	0.00791	0.00316
288.65	0.00778	0.00311
288.75	0.00779	0.00312
288.85	0.0077	0.00308
288.95	0.00795	0.00318
289.05	0.00784	0.00314
289.15	0.00787	0.00315
289.25	0.00779	0.00312
289.35	0.00805	0.00322
289.45	0.00794	0.00318
289.55	0.00793	0.00317
289.65	0.00803	0.00321
289.75	0.00826	0.0033
289.85	0.00819	0.00328
289.95	0.00835	0.00334
290.05	0.0079	0.00316
290.15	0.00861	0.00344
294.95	0.01127	0.00452
295.05	0.01144	0.00459
295.15	0.01174	0.0047
295.25	0.01174	0.00471
295.45	0.01218	0.00488
295.65	0.01257	0.00504
295.75	0.0124	0.00497
295.85	0.01281	0.00515
296.05	0.013	0.00522
296.15	0.01386	0.00557
296.35	0.01393	0.00563
296.45	0.01452	0.00584
296.55	0.01482	0.00597
296.75	0.01568	0.00636
296.95	0.01668	0.0068
297.05	0.01777	0.00726
297.15	0.02	0.00819
297.35	0.0201	0.00846
297.45	0.0217	0.00917
297.55	0.0232	0.00971
297.65	0.0257	0.01095
297.95	0.0314	0.01351
298.05	0.0353	0.01521
298.25	0.0406	0.01827
298.35	0.0457	0.01965
298.45	0.0514	0.0218
298.55	0.0565	0.02378
298.75	0.0605	0.02457
298.85	0.0628	0.02527
299.05	0.0642	0.0257
299.15	0.0647	0.02589
299.25	0.0648	0.02593
299.55	0.0651	0.02604
299.75	0.0653	0.02612
299.95	0.0654	0.02616
300.25	0.0657	0.02628
300.85	0.066	0.0264
301.25	0.0662	0.02648
301.45	0.0663	0.02652
302.95	0.0666	0.02664
302.05	0.0667	0.02668
302.25	0.0668	0.02672
302.55	0.067	0.0268
302.65	0.0671	0.02684
302.85	0.0672	0.02688
314.35	0.0753	0.03012
314.55	0.0755	0.0302
314.75	0.0756	0.03024
314.95	0.0759	0.03036
315.45	0.0761	0.03044
315.55	0.0762	0.03048
315.75	0.0764	0.03056
315.95	0.0765	0.0306
316.15	0.0767	0.03068
316.35	0.0769	0.03076
316.65	0.0771	0.03084
317.05	0.0775	0.031
317.15	0.0776	0.03104
318.05	0.0778	0.03112
318.25	0.0783	0.03132
318.45	0.0786	0.03144
318.95	0.079	0.0316
319.25	0.0792	0.03168
319.75	0.0798	0.03192
320.25	0.08	0.032
320.35	0.0802	0.03208
320.65	0.0816	0.03265
321.85	0.0817	0.03268
322.05	0.0819	0.03276
322.25	0.082	0.0328
322.35	0.0823	0.03292
322.75	0.0824	0.03296
322.85	0.0826	0.03304
323.15	0.083	0.0332
323.35	0.0832	0.03328
323.45	0.0834	0.03336
323.65	0.0837	0.03348
323.85	0.0839	0.03356
324.05	0.0841	0.03364
324.35	0.0842	0.03368
324.45	0.0843	0.03372
324.65	0.0846	0.03384
324.75	0.0848	0.03392
324.85	0.0849	0.03397
325.15	0.0853	0.03412
325.35	0.0855	0.0342
325.55	0.0856	0.03424
325.65	0.0858	0.03432
325.85	0.086	0.0344
326.15	0.0862	0.03448
341.35	0.097	0.0388
341.55	0.0971	0.03884
341.65	0.0972	0.03888
341.85	0.0973	0.03892
341.95	0.0974	0.03896
342.05	0.0975	0.039
342.25	0.0977	0.03908
342.45	0.0979	0.03916
342.75	0.098	0.0392
342.95	0.0982	0.03928
343.05	0.0983	0.03932
343.25	0.0987	0.03948
343.45	0.0989	0.03956
343.75	0.099	0.0396
343.95	0.0991	0.03964
344.05	0.0993	0.03972
344.35	0.0995	0.0398
344.55	0.0996	0.03984
344.75	0.1	0.04
345.05	0.1001	0.04004
345.35	0.1003	0.04012
345.55	0.1005	0.0402
345.85	0.1006	0.04024
346.05	0.1009	0.04036
346.25	0.1013	0.04052
346.55	0.1014	0.04056
346.75	0.1015	0.0406
346.85	0.1016	0.04064
347.05	0.1017	0.04068
347.25	0.1019	0.04076
347.55	0.1022	0.04088
347.75	0.1023	0.04092
348.05	0.1027	0.04108
348.15	0.1028	0.04112
282.45	0.00667	0.00267
282.55	0.00678	0.00271
282.65	0.00648	0.00259
282.75	0.00655	0.00262
282.95	0.00662	0.00265
283.05	0.00638	0.00255
283.15	0.00641	0.00256
283.25	0.0067	0.00268
283.35	0.00677	0.00271
283.45	0.00666	0.00267
283.55	0.0068	0.00272
283.75	0.00674	0.0027
283.85	0.0068	0.00272
283.95	0.00686	0.00275
284.05	0.00653	0.00261
284.15	0.00678	0.00271
284.25	0.00646	0.00258
284.45	0.00672	0.00269
284.55	0.007	0.0028
284.65	0.00699	0.0028
284.75	0.00651	0.00261
284.85	0.00686	0.00274
284.65	0.00699	0.0028
284.75	0.00651	0.00261
284.85	0.00686	0.00274
285.05	0.00717	0.00288
285.15	0.00708	0.00284
285.25	0.00696	0.00279
285.35	0.00725	0.0029
285.45	0.00739	0.00296
285.55	0.00715	0.00286
285.65	0.00719	0.00288
290.25	0.00828	0.00331
290.35	0.00849	0.0034
290.45	0.00815	0.00326
290.55	0.00824	0.0033
290.65	0.00834	0.00334
290.75	0.00836	0.00335
290.85	0.00818	0.00327
290.95	0.00836	0.00335
291.05	0.00861	0.00345
291.15	0.00846	0.00339
291.25	0.0088	0.00352
291.35	0.00865	0.00346
291.45	0.00866	0.00346
291.55	0.00853	0.00341
291.65	0.00868	0.00347
291.75	0.00867	0.00347
291.85	0.00897	0.00359
291.95	0.00872	0.00349
292.05	0.00879	0.00352
292.15	0.00913	0.00365
292.25	0.00908	0.00363
292.35	0.00902	0.00361
292.45	0.00905	0.00362
292.55	0.00904	0.00362
292.65	0.00928	0.00372
292.75	0.00942	0.00377
292.85	0.00967	0.00388
292.95	0.00959	0.00384
293.05	0.00954	0.00382
293.15	0.00976	0.00391
293.25	0.01003	0.00402
293.35	0.01012	0.00406
293.45	0.01024	0.0041
293.55	0.01034	0.00414
293.65	0.01049	0.0042
293.75	0.01019	0.00408
294.15	0.01059	0.00424
294.25	0.01088	0.00436
294.35	0.01073	0.0043
294.45	0.01096	0.00439
294.55	0.01114	0.00446
294.65	0.01094	0.00438
294.75	0.01102	0.00441
294.85	0.01136	0.00455
303.05	0.0673	0.02692
303.15	0.0675	0.027
303.35	0.0676	0.02704
303.65	0.0678	0.02712
303.85	0.0679	0.02716
304.05	0.068	0.0272
304.25	0.0682	0.02728
304.45	0.0683	0.02732
304.55	0.0684	0.02736
304.75	0.0685	0.0274
304.95	0.0687	0.02748
305.15	0.0688	0.02752
305.45	0.0689	0.02756
305.65	0.0692	0.02768
306.25	0.0695	0.0278
306.45	0.0696	0.02784
306.85	0.0699	0.02796
307.05	0.07	0.028
307.35	0.0702	0.02808
307.45	0.0703	0.02812
307.75	0.0705	0.0282
307.95	0.0707	0.02828
308.65	0.0712	0.02848
308.85	0.0714	0.02856
309.05	0.0715	0.0286
309.35	0.0712	0.02848
309.55	0.0718	0.02872
309.75	0.0719	0.02876
309.85	0.0721	0.02884
310.05	0.0722	0.02888
310.25	0.0723	0.02892
310.45	0.0724	0.02896
310.65	0.0727	0.02908
310.85	0.0728	0.02912
311.25	0.073	0.0292
311.55	0.0732	0.02928
311.75	0.0735	0.0294
312.05	0.0737	0.02948
312.55	0.074	0.0296
312.95	0.0744	0.02976
313.35	0.0745	0.0298
313.55	0.0747	0.02988
313.75	0.0748	0.02992
313.95	0.075	0.03
314.15	0.0752	0.03008
326.25	0.0863	0.03452
326.45	0.0866	0.03464
326.55	0.0869	0.03476
326.75	0.087	0.0348
326.95	0.0871	0.03484
327.05	0.0873	0.03492
324.55	0.0875	0.035
327.55	0.0876	0.03504
327.75	0.0876	0.03504
333.45	0.0912	0.03648
333.65	0.0914	0.03656
333.75	0.0915	0.0366
334.05	0.0916	0.03664
334.35	0.092	0.0368
334.75	0.0922	0.03688
334.95	0.0924	0.03696
335.35	0.0926	0.03704
335.55	0.0927	0.03708
335.75	0.0929	0.03716
335.95	0.093	0.0372
336.15	0.0932	0.03728
336.55	0.0934	0.03736
336.65	0.0935	0.0374
336.85	0.0936	0.03744
337.05	0.0937	0.03748
337.25	0.0939	0.03756
337.55	0.0942	0.03768
337.75	0.0943	0.03772
338.05	0.0945	0.0378
338.15	0.0947	0.03788
338.55	0.095	0.038
338.75	0.0951	0.03804
338.95	0.0952	0.03808
339.05	0.0953	0.03812
339.15	0.0954	0.03816
339.35	0.0955	0.0382
339.65	0.0957	0.03828
339.85	0.0959	0.03836
340.05	0.096	0.0384
340.35	0.0962	0.03848
340.55	0.0963	0.03852
340.65	0.0964	0.03856
340.85	0.0966	0.03864
341.05	0.0967	0.03868
341.15	0.0968	0.03872
