Measured thermophysical data. Thermodynamic Functions for Solubility of 1-Hydroxybenzotriazole in Sixteen Solvents at Temperatures from (278.15 to 313.15) K and Mixing Property of Mixtures
Source: J. Chem. Eng. Data, 2017, 10.1021/acs.jced.7b00316
Compound 1: 1-benzotriazolol, C6H5N3O, InChI=1S/C6H5N3O/c10-9-6-4-2-1-3-5(6)7-8-9/h1-4,10H, purity 98%
Compound 2: methanol, CH4O, InChI=1S/CH4O/c1-2/h2H,1H3, purity 99.5%
Compound 3: ethanol, C2H6O, InChI=1S/C2H6O/c1-2-3/h3H,2H2,1H3, purity 99.7%
Compound 4: propan-1-ol, C3H8O, InChI=1S/C3H8O/c1-2-3-4/h4H,2-3H2,1H3, purity 99.5%
Compound 5: propan-2-ol, C3H8O, InChI=1S/C3H8O/c1-3(2)4/h3-4H,1-2H3, purity 99.7%
Compound 6: ethyl acetate, C4H8O2, InChI=1S/C4H8O2/c1-3-6-4(2)5/h3H2,1-2H3, purity 99.5%
Compound 7: acetonitrile, C2H3N, InChI=1S/C2H3N/c1-2-3/h1H3, purity 99.3%
Compound 8: toluene, C7H8, InChI=1S/C7H8/c1-7-5-3-2-4-6-7/h2-6H,1H3, purity 99.5%
Compound 9: 1,4-dioxane, C4H8O2, InChI=1S/C4H8O2/c1-2-6-4-3-5-1/h1-4H2, purity 99.5%
Compound 10: acetone, C3H6O, InChI=1S/C3H6O/c1-3(2)4/h1-2H3, purity 99.5%
Compound 11: butanone, C4H8O, InChI=1S/C4H8O/c1-3-4(2)5/h3H2,1-2H3, purity 99.5%
Compound 12: 3-methylbutan-1-ol, C5H12O, InChI=1S/C5H12O/c1-5(2)3-4-6/h5-6H,3-4H2,1-2H3, purity 99.4%
Compound 13: hexan-1-ol, C6H14O, InChI=1S/C6H14O/c1-2-3-4-5-6-7/h7H,2-6H2,1H3, purity 99.5%
Compound 14: heptan-1-ol, C7H16O, InChI=1S/C7H16O/c1-2-3-4-5-6-7-8/h8H,2-7H2,1H3, purity 99.3%
Compound 15: 6-methyl-1-heptanol, C8H18O, InChI=1S/C8H18O/c1-8(2)6-4-3-5-7-9/h8-9H,3-7H2,1-2H3, purity 99.3%
Compound 16: dimethylformamide, C3H7NO, InChI=1S/C3H7NO/c1-4(2)3-5/h3H,1-2H3, purity 99.4%
Compound 17: dimethyl sulfoxide, C2H6OS, InChI=1S/C2H6OS/c1-4(2)3/h1-2H3, purity 99.3%

System: 1-benzotriazolol; phases: Crystal, Liquid, Air at 1 atmosphere
Property: Normal melting temperature, K (Crystal); method: DTA
Normal melting temperature, K	uncertainty
424.26	1.06

System: 1-benzotriazolol; phases: Crystal, Liquid, Air at 1 atmosphere
Property: Molar enthalpy of transition or fusion, kJ/mol (Crystal); method: DSC
Molar enthalpy of transition or fusion, kJ/mol	uncertainty
20.05	0.91

System: 1-benzotriazolol + methanol; phases: Liquid, Crystal
Fixed: Pressure, kPa = 101.1
Property: Mole fraction of 1-benzotriazolol (Liquid); method: Chromatography
Temperature, K	Mole fraction of 1-benzotriazolol	uncertainty
278.15	0.02232	0.00121
280.65	0.02388	0.00129
283.15	0.02542	0.00137
285.65	0.02739	0.00148
288.15	0.02935	0.00159
290.65	0.03138	0.0017
293.15	0.03363	0.00182
295.65	0.03581	0.00194
298.15	0.03861	0.00209
300.65	0.04152	0.00224
303.15	0.04445	0.0024
305.65	0.04799	0.00259
308.15	0.05218	0.00282
310.65	0.05622	0.00304
313.15	0.06093	0.00329

System: 1-benzotriazolol + ethanol; phases: Liquid, Crystal
Fixed: Pressure, kPa = 101.1
Property: Mole fraction of 1-benzotriazolol (Liquid); method: Chromatography
Temperature, K	Mole fraction of 1-benzotriazolol	uncertainty
278.15	0.03181	0.00172
280.65	0.03311	0.00179
283.15	0.03553	0.00192
285.65	0.03771	0.00204
288.15	0.04057	0.00219
290.65	0.04327	0.00234
293.15	0.04621	0.0025
295.65	0.04928	0.00266
298.15	0.05281	0.00285
300.65	0.05655	0.00306
303.15	0.0605	0.00327
305.65	0.06508	0.00352
308.15	0.06967	0.00377
310.65	0.07457	0.00403
313.15	0.08017	0.00433

System: 1-benzotriazolol + propan-1-ol; phases: Liquid, Crystal
Fixed: Pressure, kPa = 101.1
Property: Mole fraction of 1-benzotriazolol (Liquid); method: Chromatography
Temperature, K	Mole fraction of 1-benzotriazolol	uncertainty
278.15	0.02972	0.00161
280.65	0.03185	0.00172
283.15	0.03397	0.00184
285.65	0.03622	0.00196
288.15	0.03871	0.00209
290.65	0.04124	0.00223
293.15	0.04402	0.00238
295.65	0.04721	0.00255
298.15	0.05018	0.00271
300.65	0.05352	0.00289
303.15	0.05731	0.0031
305.65	0.06119	0.00331
308.15	0.06553	0.00354
310.65	0.06976	0.00377
313.15	0.0749	0.00405

System: 1-benzotriazolol + propan-2-ol; phases: Liquid, Crystal
Fixed: Pressure, kPa = 101.1
Property: Mole fraction of 1-benzotriazolol (Liquid); method: Chromatography
Temperature, K	Mole fraction of 1-benzotriazolol	uncertainty
278.15	0.02476	0.00134
280.65	0.02613	0.00141
283.15	0.02813	0.00152
285.65	0.03006	0.00162
288.15	0.03199	0.00173
290.65	0.03415	0.00185
293.15	0.03672	0.00198
295.65	0.0392	0.00212
298.15	0.04208	0.00227
300.65	0.04508	0.00244
303.15	0.04806	0.0026
305.65	0.05147	0.00278
308.15	0.0553	0.00299
310.65	0.05919	0.0032
313.15	0.0637	0.00344

System: 1-benzotriazolol + butanone; phases: Liquid, Crystal
Fixed: Pressure, kPa = 101.1
Property: Mole fraction of 1-benzotriazolol (Liquid); method: Chromatography
Temperature, K	Mole fraction of 1-benzotriazolol	uncertainty
278.15	0.01574	0.00085
280.65	0.01694	0.00092
283.15	0.01814	0.00098
285.65	0.01954	0.00106
288.15	0.02105	0.00114
290.65	0.02245	0.00121
293.15	0.02408	0.0013
295.65	0.0259	0.0014
298.15	0.02785	0.00151
300.65	0.02988	0.00162
303.15	0.03225	0.00174
305.65	0.03467	0.00187
308.15	0.0372	0.00201
310.65	0.04018	0.00217
313.15	0.04327	0.00234

System: 1-benzotriazolol + acetone; phases: Liquid, Crystal
Fixed: Pressure, kPa = 101.1
Property: Mole fraction of 1-benzotriazolol (Liquid); method: Chromatography
Temperature, K	Mole fraction of 1-benzotriazolol	uncertainty
278.15	0.01389	0.00075
280.65	0.01486	0.0008
283.15	0.01596	0.00086
285.65	0.01712	0.00093
288.15	0.01842	0.001
290.65	0.01983	0.00107
293.15	0.02138	0.00116
295.65	0.02294	0.00124
298.15	0.02464	0.00133
300.65	0.02659	0.00144
303.15	0.02855	0.00154
305.65	0.0306	0.00165
308.15	0.03302	0.00178
310.65	0.03549	0.00192
313.15	0.03833	0.00207

System: 1-benzotriazolol + ethyl acetate; phases: Liquid, Crystal
Fixed: Pressure, kPa = 101.1
Property: Mole fraction of 1-benzotriazolol (Liquid); method: Chromatography
Temperature, K	Mole fraction of 1-benzotriazolol	uncertainty
278.15	0.00505	0.000273
280.65	0.005548	0.0003
283.15	0.006062	0.000328
285.65	0.006763	0.000366
288.15	0.007449	0.000403
290.65	0.008206	0.000444
293.15	0.009077	0.000491
295.65	0.01009	0.00055
298.15	0.01152	0.00062
300.65	0.01298	0.0007
303.15	0.01487	0.0008
305.65	0.01686	0.00091
308.15	0.01928	0.00104
310.65	0.02194	0.00119
313.15	0.02474	0.00134

System: 1-benzotriazolol + acetonitrile; phases: Liquid, Crystal
Fixed: Pressure, kPa = 101.1
Property: Mole fraction of 1-benzotriazolol (Liquid); method: Chromatography
Temperature, K	Mole fraction of 1-benzotriazolol	uncertainty
278.15	0.002291	0.000124
280.65	0.002488	0.000134
283.15	0.002707	0.000146
285.65	0.002952	0.00016
288.15	0.003221	0.000174
290.65	0.003476	0.000188
293.15	0.003805	0.000206
295.65	0.004143	0.000224
298.15	0.004491	0.000243
300.65	0.004882	0.000264
303.15	0.005309	0.000287
305.65	0.005802	0.000314
308.15	0.006311	0.000341
310.65	0.006854	0.000371
313.15	0.007493	0.000405

System: 1-benzotriazolol + toluene; phases: Liquid, Crystal
Fixed: Pressure, kPa = 101.1
Property: Mole fraction of 1-benzotriazolol (Liquid); method: Chromatography
Temperature, K	Mole fraction of 1-benzotriazolol	uncertainty
278.15	1.105e-05	6e-07
280.65	1.203e-05	6.5e-07
283.15	1.496e-05	8.1e-07
285.65	1.605e-05	8.7e-07
288.15	1.985e-05	1.07e-06
290.65	2.167e-05	1.17e-06
293.15	2.487e-05	1.35e-06
295.65	2.849e-05	1.54e-06
298.15	3.256e-05	1.76e-06
300.65	3.615e-05	1.96e-06
303.15	4.282e-05	2.32e-06
305.65	4.871e-05	2.63e-06
308.15	5.561e-05	3.01e-06
310.65	6.199e-05	3.35e-06
313.15	6.923e-05	3.74e-06

System: 1-benzotriazolol + 1,4-dioxane; phases: Liquid, Crystal
Fixed: Pressure, kPa = 101.1
Property: Mole fraction of 1-benzotriazolol (Liquid); method: Chromatography
Temperature, K	Mole fraction of 1-benzotriazolol	uncertainty
288.15	0.01452	0.00078
290.65	0.01582	0.00086
293.15	0.01713	0.00093
295.65	0.01869	0.00101
298.15	0.02024	0.00109
300.65	0.02245	0.00121
303.15	0.02466	0.00133
305.65	0.02721	0.00147
308.15	0.02976	0.00161
310.65	0.03309	0.00179
313.15	0.03642	0.00197

System: 1-benzotriazolol + 3-methylbutan-1-ol; phases: Liquid, Crystal
Fixed: Pressure, kPa = 101.1
Property: Mole fraction of 1-benzotriazolol (Liquid); method: Chromatography
Temperature, K	Mole fraction of 1-benzotriazolol	uncertainty
278.15	0.01092	0.00059
280.65	0.01135	0.00061
283.15	0.01182	0.00064
285.65	0.01228	0.00066
288.15	0.01275	0.00069
290.65	0.01321	0.00071
293.15	0.0137	0.00074
295.65	0.01426	0.00077
298.15	0.01483	0.0008
300.65	0.01549	0.00084
303.15	0.01609	0.00087
305.65	0.01673	0.0009
308.15	0.01743	0.00094
310.65	0.0181	0.00098
313.15	0.01882	0.00102

System: 1-benzotriazolol + hexan-1-ol; phases: Liquid, Crystal
Fixed: Pressure, kPa = 101.1
Property: Mole fraction of 1-benzotriazolol (Liquid); method: Chromatography
Temperature, K	Mole fraction of 1-benzotriazolol	uncertainty
278.15	0.01139	0.00062
280.65	0.01182	0.00064
283.15	0.01234	0.00067
285.65	0.01289	0.0007
288.15	0.0134	0.00072
290.65	0.01394	0.00075
293.15	0.01452	0.00078
295.65	0.01519	0.00082
298.15	0.01589	0.00086
300.65	0.0166	0.0009
303.15	0.01738	0.00094
305.65	0.01818	0.00098
308.15	0.01898	0.00103
310.65	0.01976	0.00107
313.15	0.02058	0.00111

System: 1-benzotriazolol + heptan-1-ol; phases: Liquid, Crystal
Fixed: Pressure, kPa = 101.1
Property: Mole fraction of 1-benzotriazolol (Liquid); method: Chromatography
Temperature, K	Mole fraction of 1-benzotriazolol	uncertainty
278.15	0.01188	0.00064
280.65	0.01235	0.00067
283.15	0.0129	0.0007
285.65	0.01342	0.00073
288.15	0.01396	0.00075
290.65	0.01457	0.00079
293.15	0.01519	0.00082
295.65	0.01584	0.00086
298.15	0.01653	0.00089
300.65	0.01731	0.00094
303.15	0.01818	0.00098
305.65	0.01901	0.00103
308.15	0.02005	0.00108
310.65	0.02098	0.00113
313.15	0.02203	0.00119

System: 1-benzotriazolol + 6-methyl-1-heptanol; phases: Liquid, Crystal
Fixed: Pressure, kPa = 101.1
Property: Mole fraction of 1-benzotriazolol (Liquid); method: Chromatography
Temperature, K	Mole fraction of 1-benzotriazolol	uncertainty
278.15	0.0108	0.00058
280.65	0.01115	0.0006
283.15	0.01153	0.00062
285.65	0.01193	0.00064
288.15	0.01232	0.00067
290.65	0.01275	0.00069
293.15	0.01319	0.00071
295.65	0.01372	0.00074
298.15	0.01428	0.00077
300.65	0.01485	0.0008
303.15	0.01543	0.00083
305.65	0.0161	0.00087
308.15	0.01677	0.00091
310.65	0.01748	0.00094
313.15	0.01819	0.00098

System: 1-benzotriazolol + dimethylformamide; phases: Liquid, Crystal
Fixed: Pressure, kPa = 101.1
Property: Mole fraction of 1-benzotriazolol (Liquid); method: Chromatography
Temperature, K	Mole fraction of 1-benzotriazolol	uncertainty
278.15	0.04124	0.00223
280.65	0.04644	0.00251
283.15	0.0522	0.00282
285.65	0.05865	0.00317
288.15	0.06456	0.00349
290.65	0.07199	0.00389
293.15	0.07942	0.00429
295.65	0.08843	0.00478
298.15	0.098	0.0053
300.65	0.109	0.0059
303.15	0.1213	0.0066
305.65	0.1343	0.0073
308.15	0.1485	0.008
310.65	0.1637	0.0089
313.15	0.1798	0.0097

System: 1-benzotriazolol + dimethyl sulfoxide; phases: Liquid, Crystal
Fixed: Pressure, kPa = 101.1
Property: Mole fraction of 1-benzotriazolol (Liquid); method: Chromatography
Temperature, K	Mole fraction of 1-benzotriazolol	uncertainty
278.15	0.03369	0.00182
280.65	0.0377	0.00204
283.15	0.04213	0.00228
285.65	0.04746	0.00257
288.15	0.05287	0.00286
290.65	0.05918	0.0032
293.15	0.06639	0.00359
295.65	0.07377	0.00399
298.15	0.08205	0.00444
300.65	0.09205	0.00498
303.15	0.1026	0.0055
305.65	0.1143	0.0062
308.15	0.1275	0.0069
310.65	0.1416	0.0077
313.15	0.1571	0.0085
