Measured thermophysical data. Measurement and Correlation of Liquid Liquid Equilibrium for Quaternary Systems of Water + Methanol or Ethanol + Ethyl Methyl Carbonate + Heptane at 25 deg C
Source: J. Chem. Eng. Data, 2017, 10.1021/acs.jced.6b01031
Compound 1: ethyl methyl carbonate, C4H8O3, InChI=1S/C4H8O3/c1-3-7-4(5)6-2/h3H2,1-2H3, purity 99.4%
Compound 2: methanol, CH4O, InChI=1S/CH4O/c1-2/h2H,1H3, purity 99.4%
Compound 3: ethanol, C2H6O, InChI=1S/C2H6O/c1-2-3/h3H,2H2,1H3, purity 99.7%
Compound 4: heptane, C7H16, InChI=1S/C7H16/c1-3-5-7-6-4-2/h3-7H2,1-2H3, purity 99.6%
Compound 5: water, H2O, InChI=1S/H2O/h1H2, purity 99%

System: methanol + ethyl methyl carbonate + water; phases: Liquid mixture 1, Liquid mixture 2
Fixed: Temperature, K = 298.15
Fixed: Pressure, kPa = 100
Property: Mole fraction of methanol (Liquid mixture 1); method: Chromatography
Property: Mole fraction of methanol (Liquid mixture 2); method: Chromatography
Property: Mole fraction of water (Liquid mixture 2); method: Chromatography
Mole fraction of water	Mole fraction of methanol	uncertainty	Mole fraction of methanol	uncertainty	Mole fraction of water	uncertainty
0.996	0		0		0.091	
0.961	0.029	0.016	0.011	0.011	0.104	
0.949	0.039	0.016	0.023	0.013	0.13	
0.935	0.05	0.015	0.031	0.013	0.146	
0.926	0.057	0.015	0.038	0.013	0.165	
0.916	0.064	0.015	0.045	0.013	0.182	
0.907	0.071	0.015	0.054	0.013	0.213	
0.889	0.082	0.014	0.065	0.013	0.243	
0.876	0.088	0.012	0.073	0.012	0.271	

System: ethanol + ethyl methyl carbonate + water; phases: Liquid mixture 2, Liquid mixture 1
Fixed: Temperature, K = 298.15
Fixed: Pressure, kPa = 100
Property: Mole fraction of ethanol (Liquid mixture 2); method: Chromatography
Property: Mole fraction of ethanol (Liquid mixture 1); method: Chromatography
Property: Mole fraction of water (Liquid mixture 1); method: Chromatography
Mole fraction of water	Mole fraction of ethanol	uncertainty	Mole fraction of ethanol	uncertainty	Mole fraction of water	uncertainty
0.115	0.029	0.012	0.018	0.012	0.975	
0.144	0.042	0.012	0.023	0.012	0.969	
0.219	0.059	0.013	0.037	0.015	0.954	
0.256	0.077	0.012	0.042	0.015	0.948	
0.301	0.078	0.012	0.045	0.014	0.941	
0.396	0.096	0.012	0.05	0.014	0.93	
0.468	0.106	0.012	0.056	0.014	0.92	
0.487	0.109	0.012	0.066	0.012	0.907	

System: heptane + ethyl methyl carbonate + water; phases: Liquid mixture 2, Liquid mixture 1
Fixed: Temperature, K = 298.15
Fixed: Pressure, kPa = 100
Property: Mole fraction of water (Liquid mixture 2); method: Chromatography
Property: Mole fraction of ethyl methyl carbonate (Liquid mixture 1); method: Chromatography
Property: Mole fraction of water (Liquid mixture 1); method: Chromatography
Mole fraction of ethyl methyl carbonate	Mole fraction of water	uncertainty	Mole fraction of ethyl methyl carbonate	uncertainty	Mole fraction of water	uncertainty
0.794	0.037	0.012	0.008	0.008	0.992	
0.749	0.032	0.012	0.008	0.008	0.992	
0.692	0.026	0.012	0.008	0.008	0.992	
0.642	0.018	0.012	0.008	0.008	0.992	
0.583	0.015	0.012	0.007	0.007	0.993	
0.509	0.011	0.011	0.007	0.007	0.993	
0.466	0.009	0.009	0.007	0.007	0.993	
0.42	0.006	0.006	0.006	0.006	0.994	

System: ethyl methyl carbonate + water; phases: Liquid mixture 1, Liquid mixture 2
Property: Mole fraction of water (Liquid mixture 1); method: Chromatography
Pressure, kPa	Temperature, K	Mole fraction of water	uncertainty
100	298.15	0.996	0.004

System: ethyl methyl carbonate + water; phases: Liquid mixture 2, Liquid mixture 1
Property: Mole fraction of water (Liquid mixture 2); method: Chromatography
Pressure, kPa	Temperature, K	Mole fraction of water	uncertainty
100	298.15	0.091	0.012
