Measured thermophysical data. Saturated Solubility and Thermodynamic Evaluation of l-Tryptophan in Eight Pure Solvents and Three Groups of Binary Mixed Solvents by the Gravimetric Method at T = 278.15-333.15 K
Source: J. Chem. Eng. Data, 2019, 10.1021/acs.jced.9b00562
Compound 1: L-tryptophan, C11H12N2O2, InChI=1S/C11H12N2O2/c12-9(11(14)15)5-7-6-13-10-4-2-1-3-8(7)10/h1-4,6,9,13H,5,12H2,(H,14,15)/t9-/m0/s1, purity 99.9%
Compound 2: water, H2O, InChI=1S/H2O/h1H2, purity 99.8%
Compound 3: methanol, CH4O, InChI=1S/CH4O/c1-2/h2H,1H3, purity 99.9%
Compound 4: butan-1-ol, C4H10O, InChI=1S/C4H10O/c1-2-3-4-5/h5H,2-4H2,1H3, purity 99.5%
Compound 5: acetone, C3H6O, InChI=1S/C3H6O/c1-3(2)4/h1-2H3, purity 99.5%
Compound 6: ethanol, C2H6O, InChI=1S/C2H6O/c1-2-3/h3H,2H2,1H3, purity 99.7%
Compound 7: acetonitrile, C2H3N, InChI=1S/C2H3N/c1-2-3/h1H3, purity 99.9%
Compound 8: ethyl acetate, C4H8O2, InChI=1S/C4H8O2/c1-3-6-4(2)5/h3H2,1-2H3, purity 99.7%
Compound 9: propan-2-ol, C3H8O, InChI=1S/C3H8O/c1-3(2)4/h3-4H,1-2H3, purity 99.7%

System: L-tryptophan + methanol; phases: Liquid, Crystal
Fixed: Pressure, kPa = 100
Property: Mole fraction of L-tryptophan (Liquid); method: gravimetric
Temperature, K	Mole fraction of L-tryptophan	uncertainty
278.15	0.00062	3e-05
283.15	0.00066	3e-05
288.15	0.00072	4e-05
293.15	0.0008	4e-05
298.15	0.0009	5e-05
303.15	0.00102	5e-05
308.15	0.00115	6e-05
313.15	0.00131	7e-05
318.15	0.00149	7e-05
323.15	0.00166	8e-05
328.15	0.00189	9e-05
333.15	0.00217	0.00011

System: L-tryptophan + ethanol; phases: Liquid, Crystal
Fixed: Pressure, kPa = 100
Property: Mole fraction of L-tryptophan (Liquid); method: gravimetric
Temperature, K	Mole fraction of L-tryptophan	uncertainty
278.15	0.00012	1e-05
283.15	0.00013	1e-05
288.15	0.00014	1e-05
293.15	0.00017	1e-05
298.15	0.0002	1e-05
303.15	0.00024	1e-05
308.15	0.00028	2e-05
313.15	0.00033	2e-05
318.15	0.00038	2e-05
323.15	0.00044	2e-05
328.15	0.0005	3e-05
333.15	0.00058	3e-05

System: L-tryptophan + propan-2-ol; phases: Liquid, Crystal
Fixed: Pressure, kPa = 100
Property: Mole fraction of L-tryptophan (Liquid); method: gravimetric
Temperature, K	Mole fraction of L-tryptophan	uncertainty
278.15	0.00011	1e-05
283.15	0.00012	1e-05
288.15	0.00014	1e-05
293.15	0.00015	1e-05
298.15	0.00018	1e-05
303.15	0.00021	1e-05
308.15	0.00024	1e-05
313.15	0.00028	2e-05
318.15	0.00033	2e-05
323.15	0.00037	2e-05
328.15	0.00043	2e-05
333.15	0.0005	3e-05

System: L-tryptophan + butan-1-ol; phases: Liquid, Crystal
Fixed: Pressure, kPa = 100
Property: Mole fraction of L-tryptophan (Liquid); method: gravimetric
Temperature, K	Mole fraction of L-tryptophan	uncertainty
278.15	0.0001	1e-05
283.15	0.00011	1e-05
288.15	0.00012	1e-05
293.15	0.00014	1e-05
298.15	0.00017	1e-05
303.15	0.0002	1e-05
308.15	0.00024	1e-05
313.15	0.00028	2e-05
318.15	0.00034	2e-05
323.15	0.0004	2e-05
328.15	0.00049	3e-05
333.15	0.00059	3e-05

System: L-tryptophan + acetone; phases: Liquid, Crystal
Fixed: Pressure, kPa = 100
Property: Mole fraction of L-tryptophan (Liquid); method: gravimetric
Temperature, K	Mole fraction of L-tryptophan	uncertainty
278.15	0.0001	1e-05
283.15	0.00011	1e-05
288.15	0.00013	1e-05
293.15	0.00015	1e-05
298.15	0.00018	1e-05
303.15	0.00022	1e-05
308.15	0.00026	1e-05
313.15	0.00031	2e-05
318.15	0.00037	2e-05
323.15	0.00045	2e-05
328.15	0.00056	3e-05
333.15	0.00069	4e-05

System: L-tryptophan + ethyl acetate; phases: Liquid, Crystal
Fixed: Pressure, kPa = 100
Property: Mole fraction of L-tryptophan (Liquid); method: gravimetric
Temperature, K	Mole fraction of L-tryptophan	uncertainty
278.15	4e-05	1e-05
283.15	5e-05	1e-05
288.15	7e-05	1e-05
293.15	9e-05	1e-05
298.15	0.00011	1e-05
303.15	0.00014	1e-05
308.15	0.00018	1e-05
313.15	0.00023	1e-05
318.15	0.00028	2e-05
323.15	0.00034	2e-05
328.15	0.00041	2e-05
333.15	0.0005	3e-05

System: L-tryptophan + water; phases: Liquid, Crystal
Fixed: Pressure, kPa = 100
Property: Mole fraction of L-tryptophan (Liquid); method: gravimetric
Temperature, K	Mole fraction of L-tryptophan	uncertainty
278.15	0.00098	5e-05
283.15	0.00105	5e-05
288.15	0.00113	6e-05
293.15	0.00124	6e-05
298.15	0.00137	7e-05
303.15	0.00154	8e-05
308.15	0.00174	9e-05
313.15	0.00199	0.0001
318.15	0.00229	0.00011
323.15	0.00261	0.00013
328.15	0.00294	0.00015
333.15	0.00328	0.00016

System: L-tryptophan + acetonitrile; phases: Liquid, Crystal
Fixed: Pressure, kPa = 100
Property: Mole fraction of L-tryptophan (Liquid); method: gravimetric
Temperature, K	Mole fraction of L-tryptophan	uncertainty
278.15	1e-05	1e-05
283.15	2e-05	1e-05
288.15	2e-05	1e-05
293.15	3e-05	1e-05
298.15	4e-05	1e-05
303.15	5e-05	1e-05
308.15	7e-05	1e-05
313.15	8e-05	1e-05
318.15	0.0001	1e-05
323.15	0.00012	1e-05
328.15	0.00014	1e-05
333.15	0.00017	1e-05

System: L-tryptophan + water + acetonitrile; phases: Liquid, Crystal
Fixed: Pressure, kPa = 100
Property: Mole fraction of L-tryptophan (Liquid); method: gravimetric
Temperature, K	Solvent: Mole fraction of water	Mole fraction of L-tryptophan	uncertainty
278.15	0	1e-05	1e-05
278.15	0.34	0.00034	2e-05
278.15	0.55	0.00055	3e-05
278.15	0.7	0.00069	3e-05
278.15	0.81	0.0008	4e-05
278.15	0.9	0.00088	4e-05
278.15	0.96	0.00094	5e-05
278.15	1	0.00098	5e-05
283.15	0	2e-05	1e-05
283.15	0.34	0.00037	2e-05
283.15	0.55	0.00059	3e-05
283.15	0.7	0.00074	4e-05
283.15	0.81	0.00086	4e-05
283.15	0.9	0.00094	5e-05
283.15	0.96	0.00101	5e-05
283.15	1	0.00105	5e-05
288.15	0	2e-05	1e-05
288.15	0.34	0.0004	2e-05
288.15	0.55	0.00063	3e-05
288.15	0.7	0.0008	4e-05
288.15	0.81	0.00092	5e-05
288.15	0.9	0.00102	5e-05
288.15	0.96	0.00109	5e-05
288.15	1	0.00113	6e-05
293.15	0	3e-05	1e-05
293.15	0.34	0.00044	2e-05
293.15	0.55	0.0007	4e-05
293.15	0.7	0.00088	4e-05
293.15	0.81	0.00101	5e-05
293.15	0.9	0.00111	6e-05
293.15	0.96	0.0012	6e-05
293.15	1	0.00124	6e-05
298.15	0	4e-05	1e-05
298.15	0.34	0.00049	3e-05
298.15	0.55	0.00078	4e-05
298.15	0.7	0.00097	5e-05
298.15	0.81	0.00112	6e-05
298.15	0.9	0.00123	6e-05
298.15	0.96	0.00132	7e-05
298.15	1	0.00137	7e-05
303.15	0	5e-05	1e-05
303.15	0.34	0.00054	3e-05
303.15	0.55	0.00088	4e-05
303.15	0.7	0.0011	6e-05
303.15	0.81	0.00126	6e-05
303.15	0.9	0.00139	7e-05
303.15	0.96	0.00149	7e-05
303.15	1	0.00154	8e-05
308.15	0	7e-05	1e-05
308.15	0.34	0.00062	3e-05
308.15	0.55	0.00099	5e-05
308.15	0.7	0.00124	6e-05
308.15	0.81	0.00143	7e-05
308.15	0.9	0.00157	8e-05
308.15	0.96	0.00168	8e-05
308.15	1	0.00174	9e-05
313.15	0	8e-05	1e-05
313.15	0.34	0.00071	4e-05
313.15	0.55	0.00114	6e-05
313.15	0.7	0.00142	7e-05
313.15	0.81	0.00163	8e-05
313.15	0.9	0.00179	9e-05
313.15	0.96	0.00192	0.0001
313.15	1	0.00199	0.0001
318.15	0	0.0001	1e-05
318.15	0.34	0.00082	4e-05
318.15	0.55	0.00131	7e-05
318.15	0.7	0.00164	8e-05
318.15	0.81	0.00188	9e-05
318.15	0.9	0.00206	0.0001
318.15	0.96	0.00221	0.00011
318.15	1	0.00229	0.00011
323.15	0	0.00012	1e-05
323.15	0.34	0.00094	5e-05
323.15	0.55	0.0015	8e-05
323.15	0.7	0.00187	9e-05
323.15	0.81	0.00214	0.00011
323.15	0.9	0.00235	0.00012
323.15	0.96	0.00252	0.00013
323.15	1	0.00261	0.00013
328.15	0	0.00014	1e-05
328.15	0.34	0.00109	5e-05
328.15	0.55	0.00169	8e-05
328.15	0.7	0.00211	0.00011
328.15	0.81	0.00242	0.00012
328.15	0.9	0.00265	0.00013
328.15	0.96	0.00284	0.00014
328.15	1	0.00294	0.00015
333.15	0	0.00017	1e-05
333.15	0.34	0.00129	6e-05
333.15	0.55	0.00189	9e-05
333.15	0.7	0.00235	0.00012
333.15	0.81	0.0027	0.00014
333.15	0.9	0.00296	0.00015
333.15	0.96	0.00317	0.00016
333.15	1	0.00328	0.00016

System: L-tryptophan + water + methanol; phases: Liquid, Crystal
Fixed: Pressure, kPa = 100
Property: Mole fraction of L-tryptophan (Liquid); method: gravimetric
Temperature, K	Solvent: Mole fraction of water	Mole fraction of L-tryptophan	uncertainty
278.15	0	0.00062	3e-05
278.15	0.28	0.00072	4e-05
278.15	0.49	0.00079	4e-05
278.15	0.65	0.00085	4e-05
278.15	0.77	0.0009	5e-05
278.15	0.87	0.00093	5e-05
278.15	0.95	0.00096	5e-05
278.15	1	0.00098	5e-05
283.15	0	0.00066	3e-05
283.15	0.28	0.00077	4e-05
283.15	0.49	0.00085	4e-05
283.15	0.65	0.00091	5e-05
283.15	0.77	0.00096	5e-05
283.15	0.87	0.001	5e-05
283.15	0.95	0.00103	5e-05
283.15	1	0.00105	5e-05
288.15	0	0.00072	4e-05
288.15	0.28	0.00084	4e-05
288.15	0.49	0.00092	5e-05
288.15	0.65	0.00099	5e-05
288.15	0.77	0.00104	5e-05
288.15	0.87	0.00108	5e-05
288.15	0.95	0.00111	6e-05
288.15	1	0.00113	6e-05
293.15	0	0.00079	4e-05
293.15	0.28	0.00092	5e-05
293.15	0.49	0.00101	5e-05
293.15	0.65	0.00108	5e-05
293.15	0.77	0.00114	6e-05
293.15	0.87	0.00118	6e-05
293.15	0.95	0.00122	6e-05
293.15	1	0.00124	6e-05
298.15	0	0.0009	5e-05
298.15	0.28	0.00103	5e-05
298.15	0.49	0.00113	6e-05
298.15	0.65	0.0012	6e-05
298.15	0.77	0.00126	6e-05
298.15	0.87	0.00131	7e-05
298.15	0.95	0.00135	7e-05
298.15	1	0.00137	7e-05
303.15	0	0.00102	5e-05
303.15	0.28	0.00117	6e-05
303.15	0.49	0.00128	6e-05
303.15	0.65	0.00136	7e-05
303.15	0.77	0.00142	7e-05
303.15	0.87	0.00147	7e-05
303.15	0.95	0.00152	8e-05
303.15	1	0.00154	8e-05
308.15	0	0.00115	6e-05
308.15	0.28	0.00132	7e-05
308.15	0.49	0.00144	7e-05
308.15	0.65	0.00153	8e-05
308.15	0.77	0.00161	8e-05
308.15	0.87	0.00166	8e-05
308.15	0.95	0.00171	9e-05
308.15	1	0.00174	9e-05
313.15	0	0.00131	7e-05
313.15	0.28	0.0015	8e-05
313.15	0.49	0.00164	8e-05
313.15	0.65	0.00175	9e-05
313.15	0.77	0.00183	9e-05
313.15	0.87	0.0019	0.0001
313.15	0.95	0.00196	0.0001
313.15	1	0.00199	0.0001
318.15	0	0.00149	7e-05
318.15	0.28	0.00172	9e-05
318.15	0.49	0.00188	9e-05
318.15	0.65	0.00201	0.0001
318.15	0.77	0.00211	0.00011
318.15	0.87	0.00219	0.00011
318.15	0.95	0.00225	0.00011
318.15	1	0.00229	0.00011
323.15	0	0.00166	8e-05
323.15	0.28	0.00193	0.0001
323.15	0.49	0.00213	0.00011
323.15	0.65	0.00228	0.00011
323.15	0.77	0.00239	0.00012
323.15	0.87	0.00249	0.00012
323.15	0.95	0.00257	0.00013
323.15	1	0.00261	0.00013
328.15	0	0.00189	9e-05
328.15	0.28	0.00219	0.00011
328.15	0.49	0.00241	0.00012
328.15	0.65	0.00257	0.00013
328.15	0.77	0.0027	0.00014
328.15	0.87	0.0028	0.00014
328.15	0.95	0.00289	0.00014
328.15	1	0.00294	0.00015
333.15	0	0.00217	0.00011
333.15	0.28	0.00249	0.00012
333.15	0.49	0.00272	0.00014
333.15	0.65	0.00289	0.00014
333.15	0.77	0.00303	0.00015
333.15	0.87	0.00314	0.00016
333.15	0.95	0.00323	0.00016
333.15	1	0.00328	0.00016

System: L-tryptophan + water + propan-2-ol; phases: Liquid, Crystal
Fixed: Pressure, kPa = 100
Property: Mole fraction of L-tryptophan (Liquid); method: gravimetric
Temperature, K	Solvent: Mole fraction of water	Mole fraction of L-tryptophan	uncertainty
278.15	0	0.00011	1e-05
278.15	0.43	0.00049	5e-05
278.15	0.65	0.00067	7e-05
278.15	0.78	0.00079	8e-05
278.15	0.86	0.00086	9e-05
278.15	0.93	0.00092	9e-05
278.15	0.98	0.00096	0.0001
278.15	1	0.00098	0.0001
283.15	0	0.00012	1e-05
283.15	0.43	0.00052	5e-05
283.15	0.65	0.00072	7e-05
283.15	0.78	0.00084	8e-05
283.15	0.86	0.00092	9e-05
283.15	0.93	0.00098	0.0001
283.15	0.98	0.00103	0.0001
283.15	1	0.00105	0.00011
288.15	0	0.00014	2e-05
288.15	0.43	0.00056	6e-05
288.15	0.65	0.00078	8e-05
288.15	0.78	0.00091	9e-05
288.15	0.86	0.001	0.0001
288.15	0.93	0.00106	0.00011
288.15	0.98	0.0011	0.00011
288.15	1	0.00113	0.00011
293.15	0	0.00015	2e-05
293.15	0.43	0.00062	6e-05
293.15	0.65	0.00086	9e-05
293.15	0.78	0.001	0.0001
293.15	0.86	0.0011	0.00011
293.15	0.93	0.00116	0.00012
293.15	0.98	0.00121	0.00012
293.15	1	0.00124	0.00012
298.15	0	0.00018	2e-05
298.15	0.43	0.00069	7e-05
298.15	0.65	0.00095	0.0001
298.15	0.78	0.0011	0.00011
298.15	0.86	0.00121	0.00012
298.15	0.93	0.00128	0.00013
298.15	0.98	0.00134	0.00013
298.15	1	0.00137	0.00014
303.15	0	0.00021	2e-05
303.15	0.43	0.00078	8e-05
303.15	0.65	0.00107	0.00011
303.15	0.78	0.00124	0.00012
303.15	0.86	0.00136	0.00014
303.15	0.93	0.00144	0.00014
303.15	0.98	0.00151	0.00015
303.15	1	0.00154	0.00015
308.15	0	0.00025	3e-05
308.15	0.43	0.00089	9e-05
308.15	0.65	0.00121	0.00012
308.15	0.78	0.00141	0.00014
308.15	0.86	0.00154	0.00015
308.15	0.93	0.00163	0.00016
308.15	0.98	0.0017	0.00017
308.15	1	0.00174	0.00017
313.15	0	0.00028	3e-05
313.15	0.43	0.00102	0.0001
313.15	0.65	0.00139	0.00014
313.15	0.78	0.00161	0.00016
313.15	0.86	0.00176	0.00018
313.15	0.93	0.00187	0.00019
313.15	0.98	0.00195	0.0002
313.15	1	0.00199	0.0002
318.15	0	0.00033	3e-05
318.15	0.43	0.00117	0.00012
318.15	0.65	0.00159	0.00016
318.15	0.78	0.00185	0.00019
318.15	0.86	0.00203	0.0002
318.15	0.93	0.00215	0.00022
318.15	0.98	0.00224	0.00022
318.15	1	0.00229	0.00023
323.15	0	0.00038	4e-05
323.15	0.43	0.00134	0.00013
323.15	0.65	0.00182	0.00018
323.15	0.78	0.00211	0.00021
323.15	0.86	0.00231	0.00023
323.15	0.93	0.00245	0.00025
323.15	0.98	0.00255	0.00026
323.15	1	0.00261	0.00026
328.15	0	0.00043	4e-05
328.15	0.43	0.00152	0.00015
328.15	0.65	0.00205	0.00021
328.15	0.78	0.00238	0.00024
328.15	0.86	0.0026	0.00026
328.15	0.93	0.00276	0.00028
328.15	0.98	0.00288	0.00029
328.15	1	0.00294	0.00029
333.15	0	0.0005	5e-05
333.15	0.43	0.0017	0.00017
333.15	0.65	0.00229	0.00023
333.15	0.78	0.00266	0.00027
333.15	0.86	0.0029	0.00029
333.15	0.93	0.00308	0.00031
333.15	0.98	0.00321	0.00032
333.15	1	0.00328	0.00033
