Measured thermophysical data. Solid-Liquid Phase Equilibria in the Aqueous Systems (CaCl2 + SrCl2 + H2O) and (NaCl + CaCl2 + SrCl2 + H2O) at 288.15 K
Source: J. Chem. Eng. Data, 2019, 10.1021/acs.jced.9b00154
Compound 1: strontium chloride, Cl2Sr, InChI=1S/2ClH.Sr/h2*1H;/q;;+2/p-2, purity 99.5%
Compound 2: calcium chloride, CaCl2, InChI=1S/Ca.2ClH/h;2*1H/q+2;;/p-2, purity 98%
Compound 3: sodium chloride, ClNa, InChI=1S/ClH.Na/h1H;/q;+1/p-1, purity 99.5%
Compound 4: water, H2O, InChI=1S/H2O/h1H2, purity 99.9%

System: calcium chloride + strontium chloride + water; phases: Liquid, Crystal of intercomponent compound 1
Fixed: Pressure, kPa = 100
Fixed: Temperature, K = 288.15
Property: Mass fraction of strontium chloride (Liquid); method: titration and spectrometry
Mass fraction of calcium chloride	Mass fraction of strontium chloride	uncertainty
0	0.3372	0.0034
0.0194	0.3117	0.0032
0.0368	0.289	0.003
0.0653	0.2536	0.0027
0.0879	0.2264	0.0025
0.1135	0.198	0.0023
0.1625	0.1517	0.0022

System: calcium chloride + strontium chloride + water; phases: Liquid, Crystal
Fixed: Pressure, kPa = 100
Fixed: Temperature, K = 288.15
Property: Mass fraction of strontium chloride (Liquid); method: titration and spectrometry
Mass fraction of calcium chloride	Mass fraction of strontium chloride	uncertainty
0.1625	0.1517	0.0021
0.1878	0.1289	0.0021
0.2198	0.1032	0.0012
0.2221	0.1026	0.0012
0.2701	0.0628	0.0023
0.3101	0.03	0.0022
0.3394	0.0148	0.0011
0.3695	0.0112	0.0053
0.3709	0.0092	0.0053
0.3805	0.0076	0.0004
0.3891	0.0075	0.0001

System: calcium chloride + strontium chloride + water; phases: Liquid, Crystal of intercomponent compound 2
Fixed: Pressure, kPa = 100
Fixed: Temperature, K = 288.15
Property: Mass fraction of strontium chloride (Liquid); method: titration and spectrometry
Mass fraction of calcium chloride	Mass fraction of strontium chloride	uncertainty
0.3891	0.0075	0.0019
0.3911	0.0065	0.002
0.4012	0.0062	0.0005
0.4042	0.0045	0.0029
0.4099	0	

System: sodium chloride + strontium chloride + water; phases: Liquid, Crystal of intercomponent compound 1
Property: Mass fraction of strontium chloride (Liquid); method: titration and spectrometry
Mass fraction of sodium chloride	Pressure, kPa	Temperature, K	Mass fraction of strontium chloride	uncertainty
0.0996	100	288.15	0.2539	0.0026

System: sodium chloride + strontium chloride + water; phases: Liquid, Crystal
Property: Mass fraction of strontium chloride (Liquid); method: titration and spectrometry
Mass fraction of sodium chloride	Pressure, kPa	Temperature, K	Mass fraction of strontium chloride	uncertainty
0.0996	100	288.15	0.2539	0.0026

System: sodium chloride + calcium chloride + water; phases: Liquid, Crystal of intercomponent compound 1
Property: Mass fraction of calcium chloride (Liquid); method: titration and spectrometry
Mass fraction of sodium chloride	Pressure, kPa	Temperature, K	Mass fraction of calcium chloride	uncertainty
0.0055	100	288.15	0.4045	0.0041

System: sodium chloride + calcium chloride + water; phases: Liquid, Crystal
Property: Mass fraction of calcium chloride (Liquid); method: titration and spectrometry
Mass fraction of sodium chloride	Pressure, kPa	Temperature, K	Mass fraction of calcium chloride	uncertainty
0.0055	100	288.15	0.4045	0.0041

System: strontium chloride + water; phases: Liquid, Crystal of intercomponent compound 1
Property: Mass fraction of strontium chloride (Liquid); method: titration and spectrometry
Pressure, kPa	Temperature, K	Mass fraction of strontium chloride	uncertainty
100	288.15	0.3372	0.0034

System: calcium chloride + water; phases: Liquid, Crystal of intercomponent compound 2
Property: Mass fraction of calcium chloride (Liquid); method: titration and spectrometry
Pressure, kPa	Temperature, K	Mass fraction of calcium chloride	uncertainty
100	288.15	0.4099	0.0042
