Measured thermophysical data. Equilibrium Diagrams of Water + NaCl or KCl + 2-Methyl 2-Propanol at the Boiling Temperature and 101.3 kPa
Source: J. Chem. Eng. Data, 2018, 10.1021/acs.jced.8b00550
Compound 1: sodium chloride, ClNa, InChI=1S/ClH.Na/h1H;/q;+1/p-1, purity 99.9%
Compound 2: potassium chloride, ClK, InChI=1S/ClH.K/h1H;/q;+1/p-1, purity 99.5%
Compound 3: 2-methylpropan-2-ol, C4H10O, InChI=1S/C4H10O/c1-4(2,3)5/h5H,1-3H3, purity 99.9%
Compound 4: water, H2O, InChI=1S/H2O/h1H2, purity 99.9%

System: water + sodium chloride + 2-methylpropan-2-ol; phases: Liquid mixture 1, Crystal
Fixed: Pressure, kPa = 101.3
Property: Mole fraction of sodium chloride (Liquid mixture 1); method: gravimetric
Temperature, K	Mole fraction of water	Mole fraction of sodium chloride	uncertainty
352.95	0.334	0.0022	0.0022
352.96	0.321	0.0015	0.0015
353.07	0.24	0.00061	0.00061
354.27	0.073	0.00031	0.00031

System: water + sodium chloride + 2-methylpropan-2-ol; phases: Liquid mixture 2, Liquid mixture 1
Fixed: Pressure, kPa = 101.3
Property: Mole fraction of 2-methylpropan-2-ol (Liquid mixture 2); method: gravimetric
Property: Mole fraction of sodium chloride (Liquid mixture 1); method: gravimetric
Property: Mole fraction of water (Liquid mixture 1); method: gravimetric
Temperature, K	Mole fraction of water	Mole fraction of 2-methylpropan-2-ol	uncertainty	Mole fraction of sodium chloride	uncertainty	Mole fraction of water	uncertainty
352.95	0.895	0.004	0.004	0.0022	0.0003	0.334	
353.75	0.933	0.0567	0.0099	0.004	0.0006	0.77	
353.63	0.946	0.0388	0.0081	0.0036	0.0007	0.705	
353.49	0.949	0.0283	0.0076	0.0031	0.0005	0.641	
353.23	0.943	0.0155	0.0074	0.0027	0.0003	0.534	
352.99	0.918	0.0061	0.0061	0.0024	0.0003	0.403	

System: water + sodium chloride + 2-methylpropan-2-ol; phases: Liquid mixture 1, Gas
Fixed: Pressure, kPa = 101.3
Property: Mole fraction of sodium chloride (Liquid mixture 1); method: OTHER
Property: Mole fraction of 2-methylpropan-2-ol (Gas); method: OTHER
Property: Mole fraction of water (Gas); method: OTHER
Temperature, K	Mole fraction of water	Mole fraction of sodium chloride	uncertainty	Mole fraction of 2-methylpropan-2-ol	uncertainty	Mole fraction of water	uncertainty
353.49	0.641	0.0031	0.0003	0.584	0.018	0.416	
353.23	0.534	0.0027	0.0003	0.599	0.017	0.401	
352.99	0.403	0.0024	0.0002	0.63	0.016	0.37	
352.96	0.321	0.0015	0.0002	0.66	0.014	0.34	
353.07	0.24	0.00061	6e-05	0.71	0.012	0.29	
354.27	0.073	0.00031	3e-05	0.859	0.006	0.141	
354.01	0.946	0.0095	0.001	0.581	0.018	0.419	
355.31	0.962	0.0156	0.0016	0.57	0.018	0.43	
354.31	0.96	0.0081	0.0008	0.574	0.018	0.426	
353.9	0.894	0.0052	0.0005	0.576	0.018	0.424	
354.25	0.939	0.0034	0.0003	0.57	0.018	0.43	
352.95	0.334	0.0022	0.0002	0.658	0.015	0.342	
353.75	0.77	0.004	0.0004	0.577	0.018	0.423	
353.63	0.705	0.0036	0.0004	0.58	0.018	0.42	

System: water + potassium chloride + 2-methylpropan-2-ol; phases: Liquid mixture 1, Crystal
Fixed: Pressure, kPa = 101.3
Property: Mole fraction of potassium chloride (Liquid mixture 1); method: gravimetric
Temperature, K	Mole fraction of water	Mole fraction of potassium chloride	uncertainty
352.93	0.37	0.0013	0.0002
353.79	0.128	0.0001	4e-05
353.65	0.145	0.00017	0.00017
353.33	0.189	0.00018	0.00011
353.23	0.2	0.00021	5e-05
353.18	0.222	0.00026	3e-05
353.09	0.238	0.00029	4e-05
353.01	0.274	0.00035	0.00035
352.95	0.306	0.00071	0.00071
352.94	0.354	0.0012	0.0003

System: water + potassium chloride + 2-methylpropan-2-ol; phases: Liquid mixture 2, Liquid mixture 1
Fixed: Pressure, kPa = 101.3
Property: Mole fraction of 2-methylpropan-2-ol (Liquid mixture 2); method: OTHER
Property: Mole fraction of potassium chloride (Liquid mixture 1); method: OTHER
Property: Mole fraction of water (Liquid mixture 1); method: OTHER
Temperature, K	Mole fraction of water	Mole fraction of 2-methylpropan-2-ol	uncertainty	Mole fraction of potassium chloride	uncertainty	Mole fraction of water	uncertainty
352.93	0.892	0.0049	0.0049	0.0013	0.0009	0.37	
352.95	0.902	0.0061	0.0061	0.0017	0.0013	0.396	
353	0.911	0.0076	0.0076	0.0018	0.0005	0.424	
353.09	0.927	0.0107	0.009	0.002	0.002	0.476	
353.13	0.934	0.0114	0.009	0.002	0.002	0.491	
353.31	0.945	0.0196	0.0078	0.0025	0.0003	0.569	
353.41	0.946	0.0233	0.008	0.0027	0.0004	0.598	
353.5	0.947	0.0313	0.0084	0.0029	0.0008	0.653	
353.6	0.945	0.0364	0.0081	0.0031	0.0016	0.678	
353.66	0.943	0.042	0.0082	0.0035	0.0005	0.711	
353.74	0.93	0.0583	0.0094	0.0037	0.0016	0.754	
353.8	0.907	0.0853	0.0123	0.0052	0.0012	0.834	

System: water + potassium chloride + 2-methylpropan-2-ol; phases: Liquid mixture 1, Gas
Fixed: Pressure, kPa = 101.3
Property: Mole fraction of potassium chloride (Liquid mixture 1); method: OTHER
Property: Mole fraction of 2-methylpropan-2-ol (Gas); method: OTHER
Property: Mole fraction of water (Gas); method: OTHER
Temperature, K	Mole fraction of water	Mole fraction of potassium chloride	uncertainty	Mole fraction of 2-methylpropan-2-ol	uncertainty	Mole fraction of water	uncertainty
352.93	0.37	0.0013	0.0001	0.643	0.015	0.357	
352.95	0.396	0.0017	0.0002	0.627	0.016	0.373	
353	0.424	0.0018	0.0002	0.617	0.016	0.383	
353.09	0.476	0.002	0.0002	0.604	0.017	0.396	
353.13	0.491	0.002	0.0002	0.601	0.017	0.399	
353.31	0.569	0.0025	0.0003	0.587	0.018	0.413	
353.41	0.598	0.0027	0.0003	0.571	0.018	0.429	
353.5	0.653	0.0029	0.0003	0.572	0.018	0.428	
353.6	0.678	0.0031	0.0003	0.57	0.018	0.43	
353.66	0.711	0.0035	0.0004	0.57	0.018	0.43	
353.74	0.754	0.0037	0.0004	0.568	0.018	0.432	
353.8	0.834	0.0052	0.0005	0.562	0.019	0.438	
353.79	0.128	0.0001	1e-05	0.814	0.008	0.186	
353.65	0.145	0.00017	2e-05	0.803	0.008	0.197	
353.33	0.189	0.00018	2e-05	0.766	0.01	0.234	
353.23	0.2	0.00021	2e-05	0.752	0.011	0.248	
353.18	0.222	0.00026	3e-05	0.732	0.011	0.268	
353.09	0.238	0.00029	3e-05	0.719	0.012	0.281	
353.01	0.274	0.00035	4e-05	0.694	0.013	0.306	
352.95	0.306	0.00071	7e-05	0.674	0.014	0.326	
352.94	0.354	0.0012	0.0001	0.655	0.015	0.345	
353.06	0.923	0.073	0.0073	0.613	0.016	0.387	
353.12	0.937	0.0559	0.0056	0.598	0.017	0.402	
353.31	0.949	0.0398	0.004	0.584	0.018	0.416	
353.52	0.958	0.0229	0.0023	0.569	0.018	0.431	
353.56	0.96	0.0202	0.002	0.566	0.018	0.434	
353.71	0.957	0.0147	0.0015	0.564	0.019	0.436	
353.89	0.961	0.0098	0.001	0.559	0.019	0.441	
353.84	0.901	0.0062	0.0006	0.559	0.019	0.441	
354.24	0.962	0.0045	0.0005	0.551	0.019	0.449	
