Measured thermophysical data. Liquid-Liquid Equilibrium for Ternary Systems of Water + 2,2,3,3-Tetrafluoro-1-propanol + Anisole/1-Octanol at 298.2, 308.2, and 318.2 K
Source: J. Chem. Eng. Data, 2018, 10.1021/acs.jced.8b00393
Compound 1: 2,2,3,3-tetrafluoro-1-propanol, C3H4F4O, InChI=1S/C3H4F4O/c4-2(5)3(6,7)1-8/h2,8H,1H2, purity 98%
Compound 2: anisole, C7H8O, InChI=1S/C7H8O/c1-8-7-5-3-2-4-6-7/h2-6H,1H3, purity 99%
Compound 3: octan-1-ol, C8H18O, InChI=1S/C8H18O/c1-2-3-4-5-6-7-8-9/h9H,2-8H2,1H3, purity 99%
Compound 4: water, H2O, InChI=1S/H2O/h1H2, purity 99.8%

System: water + 2,2,3,3-tetrafluoro-1-propanol + anisole; phases: Liquid mixture 2, Liquid mixture 1
Fixed: Pressure, kPa = 101.3
Property: Mass fraction of anisole (Liquid mixture 2); method: Chromatography
Property: Mass fraction of water (Liquid mixture 1); method: Chromatography
Property: Mass fraction of anisole (Liquid mixture 1); method: Chromatography
Temperature, K	Mass fraction of water	Mass fraction of anisole	uncertainty	Mass fraction of water	uncertainty	Mass fraction of anisole	uncertainty
298.2	0.9977	0.0023	0.0023	0.0025	0.0025	0.9975	
298.2	0.9664	0.0035	0.0035	0.0034	0.0034	0.9614	
298.2	0.9384	0.004	0.004	0.0052	0.0052	0.9211	
298.2	0.9115	0.0041	0.0041	0.0066	0.0066	0.8745	
298.2	0.8835	0.0038	0.0038	0.0107	0.01	0.8061	
298.2	0.8673	0.0045	0.0045	0.0141	0.01	0.7651	
298.2	0.8555	0.0039	0.0039	0.0164	0.0101	0.7239	
298.2	0.8464	0.0035	0.0035	0.0236	0.0101	0.6841	
298.2	0.8389	0.0035	0.0035	0.0247	0.01	0.66	
298.2	0.8298	0.0035	0.0035	0.0286	0.01	0.628	
298.2	0.8228	0.0036	0.0036	0.0289	0.01	0.5996	
308.2	0.9967	0.0033	0.0033	0.0035	0.0035	0.9965	
308.2	0.9644	0.0026	0.0026	0.0096	0.0096	0.9418	
308.2	0.9423	0.003	0.003	0.011	0.01	0.9015	
308.2	0.9249	0.0027	0.0027	0.0123	0.01	0.8639	
308.2	0.9106	0.0025	0.0025	0.0173	0.01	0.8262	
308.2	0.8967	0.0026	0.0026	0.0206	0.01	0.786	
308.2	0.8712	0.003	0.003	0.0211	0.01	0.7172	
308.2	0.86	0.0032	0.0032	0.0226	0.01	0.6882	
308.2	0.8501	0.0025	0.0025	0.0241	0.01	0.6565	
318.2	0.9949	0.0051	0.0051	0.0017	0.0017	0.9983	
318.2	0.9774	0.0024	0.0024	0.0081	0.0081	0.9632	
318.2	0.9626	0.0038	0.0038	0.0086	0.0086	0.941	
318.2	0.948	0.0023	0.0023	0.0112	0.01	0.9119	
318.2	0.931	0.0052	0.0052	0.0122	0.01	0.8834	
318.2	0.9199	0.0024	0.0024	0.0138	0.01	0.8512	
318.2	0.9078	0.0024	0.0024	0.0147	0.01	0.8221	
318.2	0.8846	0.0029	0.0029	0.0227	0.0101	0.7528	
318.2	0.8761	0.0026	0.0026	0.0249	0.01	0.7269	
318.2	0.8677	0.0022	0.0022	0.0253	0.01	0.7028	

System: water + 2,2,3,3-tetrafluoro-1-propanol + octan-1-ol; phases: Liquid mixture 2, Liquid mixture 1
Fixed: Pressure, kPa = 101.3
Property: Mass fraction of water (Liquid mixture 2); method: Chromatography
Property: Mass fraction of octan-1-ol (Liquid mixture 1); method: Chromatography
Property: Mass fraction of water (Liquid mixture 1); method: Chromatography
Temperature, K	Mass fraction of octan-1-ol	Mass fraction of water	uncertainty	Mass fraction of octan-1-ol	uncertainty	Mass fraction of water	uncertainty
298.2	0.9535	0.0465	0.01	0.0015	0.0015	0.9985	
298.2	0.6008	0.0598	0.0101	0.0035	0.0035	0.8634	
298.2	0.5731	0.0635	0.0101	0.0035	0.0035	0.8448	
308.2	0.9517	0.0483	0.0102	0.0015	0.0015	0.9985	
308.2	0.883	0.061	0.0101	0.0026	0.0026	0.9831	
308.2	0.8368	0.0639	0.01	0.0027	0.0027	0.9706	
308.2	0.7997	0.0649	0.01	0.0029	0.0029	0.9577	
308.2	0.7674	0.0626	0.01	0.003	0.003	0.9484	
308.2	0.7324	0.0644	0.01	0.0033	0.0033	0.9346	
308.2	0.7061	0.0633	0.01	0.0033	0.0033	0.9248	
308.2	0.6732	0.0675	0.0101	0.0035	0.0035	0.9184	
298.2	0.9012	0.0491	0.01	0.0021	0.0021	0.9844	
308.2	0.6513	0.0661	0.01	0.0043	0.0043	0.9063	
308.2	0.6215	0.0664	0.01	0.0035	0.0035	0.8972	
318.2	0.9477	0.0523	0.01	0.0023	0.0023	0.9977	
318.2	0.8919	0.0544	0.01	0.0068	0.0068	0.9778	
318.2	0.8636	0.0533	0.01	0.006	0.006	0.9682	
318.2	0.834	0.0549	0.01	0.006	0.006	0.9604	
318.2	0.806	0.0558	0.01	0.0043	0.0043	0.9537	
318.2	0.7768	0.0583	0.01	0.0041	0.0041	0.9444	
318.2	0.7455	0.0605	0.01	0.0046	0.0046	0.9309	
318.2	0.7217	0.0601	0.01	0.0037	0.0037	0.9229	
298.2	0.8496	0.0479	0.01	0.0023	0.0023	0.9681	
318.2	0.6941	0.0633	0.0101	0.0049	0.0049	0.9103	
298.2	0.8008	0.0484	0.01	0.0023	0.0023	0.9501	
298.2	0.7582	0.0519	0.01	0.0025	0.0025	0.9363	
298.2	0.7151	0.0529	0.01	0.0027	0.0027	0.9157	
298.2	0.6826	0.0568	0.01	0.0027	0.0027	0.9047	
298.2	0.6542	0.0559	0.01	0.0027	0.0027	0.8912	
298.2	0.6283	0.0574	0.01	0.0025	0.0025	0.8777	

System: water + anisole; phases: Liquid mixture 2, Liquid mixture 1
Fixed: Pressure, kPa = 101.3
Property: Mass fraction of anisole (Liquid mixture 2); method: Chromatography
Temperature, K	Mass fraction of anisole	uncertainty
298.2	0.0023	0.0023
308.2	0.0033	0.0033
318.2	0.0051	0.0051

System: water + anisole; phases: Liquid mixture 1, Liquid mixture 2
Fixed: Pressure, kPa = 101.3
Property: Mass fraction of water (Liquid mixture 1); method: Chromatography
Temperature, K	Mass fraction of water	uncertainty
298.2	0.0025	0.0025
308.2	0.0035	0.0035
318.2	0.0017	0.0017

System: water + octan-1-ol; phases: Liquid mixture 1, Liquid mixture 2
Fixed: Pressure, kPa = 101.3
Property: Mass fraction of octan-1-ol (Liquid mixture 1); method: Chromatography
Temperature, K	Mass fraction of octan-1-ol	uncertainty
298.2	0.0015	0.0015
308.2	0.0015	0.0015
318.2	0.0023	0.0023

System: water + octan-1-ol; phases: Liquid mixture 2, Liquid mixture 1
Fixed: Pressure, kPa = 101.3
Property: Mass fraction of water (Liquid mixture 2); method: Chromatography
Temperature, K	Mass fraction of water	uncertainty
298.2	0.0465	0.01
308.2	0.0483	0.01
318.2	0.0523	0.01
