Measured thermophysical data. Solubility of Hydrogen Sulfide in Ethanediol, 1,2-Propanediol, 1-Propanol, and 2-Propanol: Experimental Measurement and Modeling
Source: J. Chem. Eng. Data, 2016, 10.1021/acs.jced.5b00680
Compound 1: hydrogen sulfide, H2S, InChI=1S/H2S/h1H2, purity 99.95%
Compound 2: 1,2-ethanediol, C2H6O2, InChI=1S/C2H6O2/c3-1-2-4/h3-4H,1-2H2, purity 99%
Compound 3: propan-1-ol, C3H8O, InChI=1S/C3H8O/c1-2-3-4/h4H,2-3H2,1H3, purity 99%
Compound 4: propan-2-ol, C3H8O, InChI=1S/C3H8O/c1-3(2)4/h3-4H,1-2H3, purity 99.5%
Compound 5: 1,2-propanediol, C3H8O2, InChI=1S/C3H8O2/c1-3(5)2-4/h3-5H,2H2,1H3, purity 99%

System: 1,2-ethanediol + hydrogen sulfide; phases: Liquid, Gas
Property: Mole fraction of hydrogen sulfide (Liquid); method: Phase equilibration
Temperature, K	Pressure, kPa	Mole fraction of hydrogen sulfide	uncertainty
303.15	86	0.0097	0.0023
303.15	179	0.0202	0.0031
303.15	379	0.0468	0.0051
303.15	512	0.0619	0.0063
303.15	810	0.1011	0.0114
303.15	969	0.124	0.0101
303.15	1079	0.1398	0.0085
313.15	91	0.009	0.0023
313.15	191	0.0187	0.0031
313.15	400	0.0388	0.005
313.15	620	0.0586	0.0074
313.15	770	0.076	0.0114
313.15	950	0.0956	0.009
313.15	1069	0.1087	0.0084
313.15	1279	0.1321	0.0078
323.15	103	0.0085	0.0023
323.15	209	0.018	0.0032
323.15	445	0.0371	0.005
323.15	695	0.0558	0.0114
323.15	900	0.0733	0.0116
323.15	1079	0.0907	0.0088
323.15	1232	0.1044	0.0086
323.15	1500	0.1252	0.0082
333.15	114	0.0081	0.0023
333.15	229	0.0173	0.0032
333.15	491	0.0355	0.0052
333.15	767	0.0533	0.0108
333.15	988	0.0704	0.0102
333.15	1199	0.0862	0.0088
333.15	1377	0.1	0.0088
333.15	1623	0.1193	0.0086
353.15	132	0.0076	0.0022
353.15	270	0.0161	0.0032
353.15	574	0.0332	0.0054
353.15	904	0.0494	0.0056
353.15	1168	0.0652	0.0096
353.15	1420	0.0797	0.0092
353.15	1630	0.0919	0.0094
353.15	1920	0.1093	0.0096

System: 1,2-propanediol + hydrogen sulfide; phases: Liquid, Gas
Property: Mole fraction of hydrogen sulfide (Liquid); method: Phase equilibration
Temperature, K	Pressure, kPa	Mole fraction of hydrogen sulfide	uncertainty
303.15	82	0.0152	0.004
303.15	224	0.0421	0.0083
303.15	376	0.0709	0.0121
303.15	524	0.0975	0.0117
303.15	691	0.1268	0.0107
303.15	872	0.1585	0.0101
313.15	89	0.015	0.0037
313.15	259	0.0402	0.0083
313.15	431	0.068	0.012
313.15	602	0.0934	0.0116
313.15	797	0.1213	0.0108
313.15	1014	0.1522	0.0102
323.15	99	0.0145	0.0037
323.15	290	0.0386	0.0082
323.15	486	0.0652	0.0122
323.15	679	0.0896	0.0116
323.15	895	0.1167	0.011
323.15	1141	0.1465	0.0104
333.15	110	0.0139	0.0037
333.15	320	0.0372	0.0082
333.15	540	0.0627	0.0122
333.15	753	0.0862	0.0118
333.15	997	0.1121	0.011
333.15	1280	0.1415	0.0104
343.15	122	0.0133	0.0036
343.15	351	0.0356	0.0082
343.15	590	0.0603	0.0122
343.15	825	0.0803	0.0118
343.15	1083	0.1087	0.0112
343.15	1378	0.1369	0.0106
353.15	134	0.0124	0.0036
353.15	379	0.0336	0.0082
353.15	639	0.057	0.0124
353.15	893	0.0784	0.012
353.15	1164	0.1035	0.0114
353.15	1469	0.13	0.0108

System: propan-1-ol + hydrogen sulfide; phases: Liquid, Gas
Property: Mole fraction of hydrogen sulfide (Liquid); method: Phase equilibration
Temperature, K	Pressure, kPa	Mole fraction of hydrogen sulfide	uncertainty
303.15	70	0.0177	0.0056
303.15	163	0.0405	0.0077
303.15	268	0.0666	0.0095
303.15	431	0.1074	0.0089
303.15	650	0.1543	0.0081
313.15	84	0.0172	0.0056
313.15	188	0.0398	0.0077
313.15	308	0.0653	0.0095
313.15	500	0.1051	0.0089
313.15	736	0.1516	0.0083
323.15	98	0.0169	0.0055
323.15	215	0.039	0.0077
323.15	348	0.0641	0.0095
323.15	564	0.1032	0.0089
323.15	832	0.1489	0.0083
333.15	115	0.0166	0.0055
333.15	246	0.0382	0.0077
333.15	392	0.063	0.0095
333.15	631	0.1014	0.0091
333.15	930	0.1464	0.0083
343.15	281	0.0374	0.0055
343.15	443	0.0617	0.0077
343.15	705	0.0996	0.0094
343.15	1032	0.1439	0.009
353.15	322	0.0363	0.0045
353.15	499	0.0599	0.0094
353.15	781	0.097	0.0096
353.15	1145	0.14	0.0094

System: propan-2-ol + hydrogen sulfide; phases: Liquid, Gas
Property: Mole fraction of hydrogen sulfide (Liquid); method: Phase equilibration
Temperature, K	Pressure, kPa	Mole fraction of hydrogen sulfide	uncertainty
303.15	123	0.0283	0.0083
303.15	252	0.0607	0.0087
303.15	366	0.0856	0.0091
303.15	595	0.1442	0.0084
303.15	745	0.1896	0.0078
313.15	145	0.0277	0.0083
313.15	293	0.0593	0.0087
313.15	414	0.0842	0.0091
313.15	676	0.1416	0.0085
313.15	868	0.1856	0.0077
323.15	171	0.0271	0.0083
323.15	337	0.0581	0.0087
323.15	473	0.0825	0.0091
323.15	766	0.1391	0.0085
323.15	985	0.1824	0.0079
333.15	202	0.0266	0.0083
333.15	385	0.057	0.0087
333.15	536	0.0809	0.0091
333.15	862	0.1367	0.0085
333.15	1105	0.1795	0.0079
343.15	239	0.026	0.0079
343.15	441	0.0558	0.0086
343.15	604	0.0794	0.009
343.15	965	0.1343	0.0085
343.15	1233	0.1767	0.0079
353.15	284	0.0254	0.0082
353.15	504	0.0543	0.0086
353.15	681	0.0774	0.009
353.15	1078	0.1309	0.0086
353.15	1365	0.1728	0.0081
