Measured thermophysical data. Thermodynamic Properties of 1,1,1,2,2,4,5,5,5-nonafluoro- 4-(trifluoromethyl)-3-pentanone: Vapor Pressure, (p, .rho., T) Behavior, and Speed of Sound Measurements, and Equation of State
Source: J. Chem. Eng. Data, 2015, 10.1021/acs.jced.5b00623
Compound 1: dodecafluoro-2-methylpentan-3-one, C6F12O, InChI=1S/C6F12O/c7-2(4(10,11)12,5(13,14)15)1(19)3(8,9)6(16,17)18, purity 99.8%

System: dodecafluoro-2-methylpentan-3-one; phases: Liquid, Gas
Property: Vapor or sublimation pressure, kPa (Liquid); method: Closed cell (Static) method
Temperature, K	Vapor or sublimation pressure, kPa	uncertainty
324.983	111.6	1.3
349.99	242.7	1.4
374.991	467.9	1.6
374.988	467.6	1.6
390.032	663.7	1.8
410.028	1014.3	2.2
324.963	111.4	1.3
324.963	111.4	1.4
324.969	111.4	1.4
324.97	111.3	1.4
339.95	180.3	1.4
354.978	278.7	1.4
370.002	413.4	1.5
400.012	826	2
400.015	826	2
400.012	826	2
410.021	1016	2.2
420.016	1238.2	2.5
420.019	1238.3	2.5
420.019	1238.3	2.5

System: dodecafluoro-2-methylpentan-3-one; phases: Liquid
Property: Mass density, kg/m3 (Liquid); method: Buoyancy - hydrostatic balance with magnetic suspension - two sinkers
Temperature, K	Pressure, kPa	Mass density, kg/m3	uncertainty
225.006	992.5	1809.67	0.228
302.999	1007.3	1592.529	0.225
359.997	1009.8	1401.619	0.179
302.996	1089	1592.936	0.224
339.997	1091.8	1474.85	0.184
260.001	1145.1	1716.091	0.212
400.005	2018.5	1244.046	0.169
400.005	3987.4	1284.552	0.172
339.996	4035.6	1497.226	0.187
370.001	4182.9	1400.059	0.18
309.997	4843.5	1590.921	0.196
302.995	5959.8	1615.537	0.22
359.998	6002.5	1449.565	0.184
302.999	6069.2	1616.008	0.199
420.025	6075.7	1241.692	0.169
260.001	6242.2	1731.206	0.214
225.007	6306.6	1821.024	0.229
379.999	7353.3	1398.505	0.181
339.998	7986.5	1522.496	0.19
429.992	8117.7	1240.568	0.17
400.005	8129.1	1342.482	0.178
360.005	8915.5	1471.341	0.186
269.997	8922.2	1713.199	0.212
318.004	9214.8	1589.199	0.197
385.985	9254.1	1397.629	0.182
317.995	9295.7	1589.587	0.197
439.996	10172	1239.425	0.172
359.996	11021.2	1485.323	0.189
234.995	11155.4	1806.222	0.226
393.978	11788	1396.477	0.184
339.998	11938	1544.058	0.193
400.006	11998.6	1381.276	0.183
303	12121	1639.931	0.203
260.001	12121.7	1746.985	0.217
274.999	12791.4	1711.877	0.212
326.006	13558.3	1587.573	0.198
402	14323.2	1395.323	0.185
400.007	16056	1413.676	0.188
359.998	16073.2	1514.429	0.194
339.997	16170.6	1564.25	0.197
240	16199.7	1804.64	0.228
280.002	16635.8	1710.601	0.213
380.038	16688.5	1468.097	0.191
410.014	16854.1	1394.239	0.187
334.009	17866.2	1585.991	0.2
334.023	17984.1	1586.441	0.2
260	18392.4	1762.269	0.221
420.001	19987	1392.849	0.189
285.002	20456	1709.375	0.214
359.999	21145.5	1539.182	0.198
339.997	21183.9	1585.306	0.202
245	21227.4	1803.184	0.229
342.009	22145.4	1584.493	0.202
303	22348	1673.62	0.211
430.019	23113.4	1391.482	0.193
290.005	24254.6	1708.196	0.216
400.01	24343.2	1465.039	0.196
250.003	26208.4	1801.773	0.231
440.013	26213.8	1390.136	0.196
349.999	26384.6	1583.038	0.204
260	27930.5	1783.137	0.228
295.001	28025.8	1707.058	0.218
302.999	28346.4	1690.631	0.216
359.999	31620.1	1581.195	0.209
303	33973	1705.207	0.222
260	36059.5	1799.134	0.236

System: dodecafluoro-2-methylpentan-3-one; phases: Gas
Property: Mass density, kg/m3 (Gas); method: Buoyancy - hydrostatic balance with magnetic suspension - two sinkers
Pressure, kPa	Temperature, K	Mass density, kg/m3	uncertainty
12225.6	449.995	1238.266	0.176
913.4	450.006	93.929	0.202
394.1	450.006	35.895	0.171
2500.6	450.007	856.702	0.453
2042.6	450.007	417.845	0.772
3997.1	450.008	1026.462	0.173
1478.4	450.008	185.135	0.397
29286.5	450.008	1388.749	11.462
19948	450.009	1321.881	0.187
5983.6	450.009	1111.424	0.167
2998.2	450.009	943.857	0.183
8215.2	450.009	1169.392	0.17
15954.2	450.01	1283.62	0.181
12009.9	450.01	1235.173	0.175
4993.9	450.01	1075.631	0.178
14282.4	459.996	1237.166	0.177
6087.4	469.994	1018.112	0.153
2186.2	469.994	306.462	0.369
3424.1	469.994	779.472	0.232
2797.9	469.994	560.84	0.417
680	469.995	61.543	0.17
11977.3	469.995	1173.863	0.173
16332.4	469.995	1236.023	0.18
14031.2	469.995	1205.915	0.177
4374.3	469.995	910.538	0.155
9768.9	469.995	1131.109	0.162
7969.1	469.995	1085.6	0.158
1356.4	469.996	142.264	0.234

System: dodecafluoro-2-methylpentan-3-one; phases: Gas
Property: Speed of sound, m/s (Gas); method: Spherical resonator
Temperature, K	Pressure, kPa	Speed of sound, m/s	uncertainty
350.001	191.03	88.881	0.186
350.003	152.11	90.822	0.189
350.003	104.66	93.003	0.191
350.003	53.94	95.198	0.196
375.01	316.42	89.109	0.186
375.011	220.4	93.071	0.191
375.011	123.45	96.638	0.196
375.012	57.06	98.909	0.199
400.049	667.8	81.519	0.175
400.049	554.73	86.448	0.182
400.05	451.42	90.396	0.187
400.05	354.19	93.749	0.192
400.05	252.99	96.943	0.196
400.051	154.66	99.83	0.201
400.051	54.88	102.635	0.205
400.052	54.92	102.635	0.205
425.039	1061.69	75.845	0.168
425.038	951.86	80.492	0.174
425.036	845.73	84.469	0.179
425.038	696.35	89.446	0.186
425.038	546.05	93.91	0.192
425.038	399.11	97.857	0.197
425.038	258	101.356	0.203
425.037	144.61	103.996	0.207
425.038	60.31	105.936	0.209
449.975	1680.76	66.676	0.155
449.974	1491.96	74.053	0.165
449.975	1292.1	80.706	0.173
449.977	1104.8	86.187	0.181
449.976	901.63	91.502	0.188
449.975	701.04	96.257	0.195
449.975	499.37	100.64	0.202
449.977	296.98	104.717	0.208
449.975	99.8	108.429	0.213
475.01	1685.03	82.694	0.177
475.009	1496.58	86.779	0.182
475.01	1296.23	90.916	0.187
475.008	1150.88	93.767	0.192
475.006	898.52	98.512	0.198
475.008	697.46	102.078	0.204
475.013	501.77	105.378	0.208
475.013	501.76	105.379	0.208
475.013	501.76	105.378	0.208
475.013	501.78	105.377	0.208
475.012	501.8	105.38	0.208
475.011	501.77	105.377	0.208
475.013	349.5	107.829	0.212
475.012	147.79	110.979	0.217
500.017	1746.86	91.994	0.189
500.016	1746.7	91.996	0.189
500.014	1746.46	91.998	0.189
500.014	1503.6	95.589	0.194
500.014	1308.11	98.443	0.198
500.014	1100.83	101.422	0.203
500.012	1100.41	101.424	0.203
500.01	893.84	104.33	0.207
500.008	703.51	106.946	0.211
500.013	503	109.636	0.215
500.012	502.81	109.636	0.215
500.011	502.7	109.634	0.215
500.01	502.62	109.633	0.215
500.01	502.55	109.631	0.215
500.008	502.44	109.63	0.215
500.008	301.45	112.251	0.219
500.006	103.24	114.768	0.222
324.97	100.58	88.408	0.186
324.971	100.55	88.41	0.186
324.972	100.55	88.41	0.186
324.972	100.57	88.408	0.186
324.97	82.58	89.491	0.187
324.971	65.34	90.45	0.189
349.971	191.77	88.849	0.186
349.974	150.02	90.927	0.189
349.975	106.24	92.934	0.191
349.976	61.83	94.862	0.195

System: dodecafluoro-2-methylpentan-3-one; phases: Liquid
Fixed: Pressure, kPa = 83
Property: Mass density, kg/m3 (Liquid); method: Vibrating tube method
Temperature, K	Mass density, kg/m3	uncertainty
308.15	1571.82	0.46
303.15	1587.28	0.46
298.15	1602.48	0.46
293.15	1617.51	0.46
288.15	1632.33	0.47
283.15	1646.79	0.49
278.15	1660.83	0.49

System: dodecafluoro-2-methylpentan-3-one; phases: Liquid
Fixed: Pressure, kPa = 83
Fixed: Frequency, MHz = 3
Property: Speed of sound, m/s (Liquid); method: Sing-around technique in a fixed-path interferometer
Temperature, K	Speed of sound, m/s	uncertainty
308.15	472.63	0.87
303.15	488.11	0.87
298.15	503.72	0.88
293.15	519.58	0.88
288.15	535.45	0.88
283.15	551.54	0.89
278.15	567.88	0.89
