Measured thermophysical data. Determination of Solubility of Sodium Salts in Aqueous Surfactant and STPP Solutions Using an Ion Selective Electrode
Source: J. Chem. Eng. Data, 2016, 10.1021/acs.jced.5b00926
Compound 1: sodium chloride, ClNa, InChI=1S/ClH.Na/h1H;/q;+1/p-1, purity 99.5%
Compound 2: sodium carbonate, CNa2O3, InChI=1S/CH2O3.2Na/c2-1(3)4;;/h(H2,2,3,4);;/q;2*+1/p-2, purity 99.8%
Compound 3: sodium sulfate, Na2O4S, InChI=1S/2Na.H2O4S/c;;1-5(2,3)4/h;;(H2,1,2,3,4)/q2*+1;/p-2, purity 99%
Compound 4: sodium dodecyl sulfate, C12H25NaO4S, InChI=1S/C12H26O4S.Na/c1-2-3-4-5-6-7-8-9-10-11-12-16-17(13,14)15;/h2-12H2,1H3,(H,13,14,15);/q;+1/p-1, purity 99%
Compound 5: pentasodium tripolyphosphate, Na5O10P3, InChI=1S/5Na.H5O10P3/c;;;;;1-11(2,3)9-13(7,8)10-12(4,5)6/h;;;;;(H,7,8)(H2,1,2,3)(H2,4,5,6)/q5*+1;/p-5, purity 95.66%
Compound 6: water, H2O, InChI=1S/H2O/h1H2

System: sodium dodecyl sulfate + water + sodium sulfate; phases: Liquid, Crystal of intercomponent compound 1
Fixed: Pressure, kPa = 101
Fixed: Temperature, K = 298.15
Property: Mass fraction of sodium sulfate (Liquid); method: ion selective electrode
Mass fraction of sodium dodecyl sulfate	Mass fraction of sodium sulfate	uncertainty
0	0.219	0.0015
0.0081	0.2032	0.003
0.0161	0.1892	0.0029
0.0241	0.1752	0.0027
0.0322	0.1629	0.0023
0.0405	0.1536	0.0022
0.0485	0.144	0.0021
0.0611	0.1315	0.002
0.0806	0.1131	0.0019

System: sodium dodecyl sulfate + sodium carbonate + water; phases: Liquid, Crystal of intercomponent compound 1
Fixed: Pressure, kPa = 101
Fixed: Temperature, K = 298.15
Property: Mass fraction of sodium carbonate (Liquid); method: ion selective electrode
Mass fraction of sodium dodecyl sulfate	Mass fraction of sodium carbonate	uncertainty
0	0.23	0.004
0.0077	0.2314	0.004
0.0151	0.2343	0.004
0.0224	0.2336	0.004
0.0296	0.2304	0.0041
0.0372	0.2248	0.0041
0.0479	0.2194	0.0041
0.0586	0.2138	0.0041
0.0722	0.2082	0.0041

System: sodium dodecyl sulfate + sodium chloride + water; phases: Liquid, Crystal
Fixed: Pressure, kPa = 101
Fixed: Temperature, K = 298.15
Property: Mass fraction of sodium chloride (Liquid); method: ion selective electrode
Mass fraction of sodium dodecyl sulfate	Mass fraction of sodium chloride	uncertainty
0	0.2656	0.0015
0.008	0.2631	0.0016
0.0144	0.2611	0.0016
0.0219	0.2594	0.0016
0.0287	0.2565	0.0016
0.0368	0.2542	0.0016
0.045	0.2509	0.0016
0.057	0.2465	0.0016
0.0682	0.2435	0.0015

System: water + sodium sulfate + pentasodium tripolyphosphate; phases: Liquid, Crystal of intercomponent compound 1
Fixed: Pressure, kPa = 101
Fixed: Temperature, K = 298.15
Property: Mass fraction of sodium sulfate (Liquid); method: ion selective electrode
Mass fraction of pentasodium tripolyphosphate	Mass fraction of sodium sulfate	uncertainty
0	0.219	0.0015
0.0081	0.2141	0.0016
0.0155	0.2127	0.0015
0.0232	0.2102	0.0018
0.0305	0.2017	0.002
0.0379	0.1966	0.0018

System: sodium chloride + water + pentasodium tripolyphosphate; phases: Liquid, Crystal
Fixed: Pressure, kPa = 101
Fixed: Temperature, K = 298.15
Property: Mass fraction of sodium chloride (Liquid); method: ion selective electrode
Mass fraction of pentasodium tripolyphosphate	Mass fraction of sodium chloride	uncertainty
0	0.2656	0.0015
0.0078	0.2629	0.0016
0.0145	0.2603	0.0016
0.0217	0.2573	0.0016
0.0287	0.255	0.0016
0.0356	0.2518	0.0016

System: water + sodium sulfate; phases: Liquid, Crystal of intercomponent compound 1
Property: Mass fraction of sodium sulfate (Liquid); method: ion selective electrode
Pressure, kPa	Temperature, K	Mass fraction of sodium sulfate	uncertainty
101	298.15	0.219	0.0015

System: sodium carbonate + water; phases: Liquid, Crystal of intercomponent compound 1
Property: Mass fraction of sodium carbonate (Liquid); method: ion selective electrode
Pressure, kPa	Temperature, K	Mass fraction of sodium carbonate	uncertainty
101	298.15	0.23	0.0015

System: sodium chloride + water; phases: Liquid, Crystal
Property: Mass fraction of sodium chloride (Liquid); method: ion selective electrode
Pressure, kPa	Temperature, K	Mass fraction of sodium chloride	uncertainty
101	298.15	0.2656	0.0015
