Measured thermophysical data. Physical Chemical Characterization of Binary Mixtures of 1-Butyl-1-methylpyrrolidinium Bis{(trifluoromethyl)sulfonyl}imide and Aliphatic Nitrile Solvents as Potential Electrolytes for Electrochemical Energy Storage Applications
Source: J. Chem. Eng. Data, 2017, 10.1021/acs.jced.6b00718
Compound 1: 1-butyl-1-methylpyrrolidinium bis[(trifluoromethyl)sulfonyl]imide, C11H20F6N2O4S2, InChI=1S/C9H20N.C2F6NO4S2/c1-3-4-7-10(2)8-5-6-9-10;3-1(4,5)14(10,11)9-15(12,13)2(6,7)8/h3-9H2,1-2H3;/q+1;-1, purity 99%
Compound 2: butanenitrile, C4H7N, InChI=1S/C4H7N/c1-2-3-4-5/h2-3H2,1H3, purity 99%
Compound 3: pentanedinitrile, C5H6N2, InChI=1S/C5H6N2/c6-4-2-1-3-5-7/h1-3H2, purity 99%
Compound 4: hexanedinitrile, C6H8N2, InChI=1S/C6H8N2/c7-5-3-1-2-4-6-8/h1-4H2, purity 99%

System: 1-butyl-1-methylpyrrolidinium bis[(trifluoromethyl)sulfonyl]imide; phases: Metastable crystal, Liquid, Air at 1 atmosphere
Property: Normal melting temperature, K (Metastable crystal); method: DTA
Normal melting temperature, K	uncertainty
253	2

System: 1-butyl-1-methylpyrrolidinium bis[(trifluoromethyl)sulfonyl]imide; phases: Liquid
Fixed: Pressure, kPa = 101.325
Property: Electrical conductivity, S/m (Liquid); method: Alternating current cell with electrodes
Temperature, K	Electrical conductivity, S/m	uncertainty
293.4	0.22	0.006
296.1	0.249	0.006
299.3	0.285	0.008
303.3	0.334	0.008
309.3	0.419	0.01
313.2	0.481	0.012
320	0.6	0.014
323.2	0.66	0.016
333.5	0.88	0.02

System: 1-butyl-1-methylpyrrolidinium bis[(trifluoromethyl)sulfonyl]imide; phases: Liquid
Fixed: Pressure, kPa = 101
Property: Mass density, kg/m3 (Liquid); method: Vibrating tube method
Temperature, K	Mass density, kg/m3	uncertainty
293.15	1399.8	2.8
298.15	1395.2	2.8
303.15	1390.7	2.8
313.15	1381.7	2.8
323.15	1372.8	2.8
333.15	1363.8	2.8

System: 1-butyl-1-methylpyrrolidinium bis[(trifluoromethyl)sulfonyl]imide; phases: Liquid
Fixed: Pressure, kPa = 101
Property: Viscosity, Pa*s (Liquid); method: Falling or rolling sphere viscometry
Temperature, K	Viscosity, Pa*s	uncertainty
293.15	0.09872	0.00235
298.15	0.07766	0.00127
303.15	0.06229	0.0006
313.15	0.04187	0.00042
323.15	0.02961	0.00029
333.15	0.02182	0.00022

System: butanenitrile; phases: Liquid
Fixed: Pressure, kPa = 101
Property: Mass density, kg/m3 (Liquid); method: Vibrating tube method
Temperature, K	Mass density, kg/m3	uncertainty
293.15	791.1	1.6
298.15	786.4	1.6
303.15	781.8	1.6
313.15	772.4	1.6
323.15	763	1.5
333.15	753.5	1.5

System: butanenitrile; phases: Liquid
Fixed: Pressure, kPa = 101
Property: Viscosity, Pa*s (Liquid); method: Falling or rolling sphere viscometry
Temperature, K	Viscosity, Pa*s	uncertainty
293.15	0.00088	5e-05
298.15	0.00086	5e-05
303.15	0.00084	5e-05
313.15	0.00081	5e-05
323.15	0.00078	5e-05
333.15	0.00075	5e-05

System: pentanedinitrile; phases: Liquid
Fixed: Pressure, kPa = 101
Property: Mass density, kg/m3 (Liquid); method: Vibrating tube method
Temperature, K	Mass density, kg/m3	uncertainty
293.15	987	2
298.15	983.1	2
303.15	979.1	2
313.15	971.2	2
323.15	963.4	1.9
333.15	955.6	1.9

System: pentanedinitrile; phases: Liquid
Fixed: Pressure, kPa = 101
Property: Viscosity, Pa*s (Liquid); method: Falling or rolling sphere viscometry
Temperature, K	Viscosity, Pa*s	uncertainty
293.15	0.00697	7e-05
298.15	0.00612	6e-05
303.15	0.00539	5e-05
313.15	0.00425	4e-05
323.15	0.00347	3e-05
333.15	0.00288	3e-05

System: hexanedinitrile; phases: Crystal, Liquid, Air at 1 atmosphere
Property: Normal melting temperature, K (Crystal); method: DTA
Normal melting temperature, K	uncertainty
279.3	2

System: hexanedinitrile; phases: Liquid
Fixed: Pressure, kPa = 101
Property: Mass density, kg/m3 (Liquid); method: Vibrating tube method
Temperature, K	Mass density, kg/m3	uncertainty
293.15	962.3	1.9
298.15	958.6	1.9
303.15	954.8	1.9
313.15	947.2	1.9
323.15	939.8	1.9
333.15	932.3	1.9

System: hexanedinitrile; phases: Liquid
Fixed: Pressure, kPa = 101
Property: Viscosity, Pa*s (Liquid); method: Falling or rolling sphere viscometry
Temperature, K	Viscosity, Pa*s	uncertainty
293.15	0.00717	0.00044
298.15	0.00631	0.00038
303.15	0.00553	0.00034
313.15	0.00454	0.00028
323.15	0.00373	0.00023
333.15	0.00302	0.00018

System: butanenitrile + 1-butyl-1-methylpyrrolidinium bis[(trifluoromethyl)sulfonyl]imide; phases: Liquid
Fixed: Pressure, kPa = 101
Property: Mass density, kg/m3 (Liquid); method: Vibrating tube method
Temperature, K	Mole fraction of 1-butyl-1-methylpyrrolidinium bis[(trifluoromethyl)sulfonyl]imide	Mass density, kg/m3	uncertainty
293.15	0	791.1	1.6
293.15	0.1003	965	4
293.15	0.1994	1078.7	3.2
293.15	0.3001	1160.1	2.9
293.15	0.4006	1220.4	2.8
293.15	0.4999	1267.7	2.8
293.15	0.6	1304.7	2.8
293.15	0.7	1335.1	2.8
293.15	0.8	1360.6	2.8
293.15	0.9007	1382	2.9
293.15	1	1399.8	2.8
298.15	0	786.4	1.6
298.15	0.1003	960.4	4
298.15	0.1994	1074.3	3.2
298.15	0.3001	1155.4	2.9
298.15	0.4006	1216.1	2.8
298.15	0.4999	1263.2	2.8
298.15	0.6	1300	2.8
298.15	0.7	1330.5	2.8
298.15	0.8	1356	2.8
298.15	0.9007	1377.5	2.8
298.15	1	1395.2	2.8
303.15	0	781.8	1.6
303.15	0.1003	955.7	4
303.15	0.1994	1069.6	3.2
303.15	0.3001	1150.8	2.9
303.15	0.4006	1211.4	2.8
303.15	0.4999	1258.6	2.7
303.15	0.6	1295.5	2.7
303.15	0.7	1326	2.8
303.15	0.8	1351.5	2.8
303.15	0.9007	1373	2.8
303.15	1	1390.7	2.8
313.15	0	772.4	1.6
313.15	0.1003	946.2	4
313.15	0.1994	1060.1	3.2
313.15	0.3001	1141.4	2.9
313.15	0.4006	1202.1	2.8
313.15	0.4999	1249.3	2.7
313.15	0.6	1286.2	2.7
313.15	0.7	1316.8	2.8
313.15	0.8	1342.3	2.8
313.15	0.9007	1363.8	2.8
313.15	1	1381.7	2.8
323.15	0	763	1.5
323.15	0.1003	936.8	3.9
323.15	0.1994	1050.7	3.2
323.15	0.3001	1132.1	2.8
323.15	0.4006	1192.9	2.7
323.15	0.4999	1240.2	2.7
323.15	0.6	1277.2	2.7
323.15	0.7	1307.9	2.7
323.15	0.8	1333.3	2.8
323.15	0.9007	1354.9	2.8
323.15	1	1372.8	2.8
333.15	0	753.5	1.5
333.15	0.1003	927.3	3.9
333.15	0.1994	1041.1	3.1
333.15	0.3001	1122.9	2.8
333.15	0.4006	1183.7	2.7
333.15	0.4999	1231	2.7
333.15	0.6	1268.3	2.7
333.15	0.7	1298.9	2.7
333.15	0.8	1324.1	2.7
333.15	0.9007	1345.7	2.8
333.15	1	1363.8	2.8

System: butanenitrile + 1-butyl-1-methylpyrrolidinium bis[(trifluoromethyl)sulfonyl]imide; phases: Liquid
Fixed: Pressure, kPa = 101
Property: Viscosity, Pa*s (Liquid); method: Falling or rolling sphere viscometry
Temperature, K	Mole fraction of 1-butyl-1-methylpyrrolidinium bis[(trifluoromethyl)sulfonyl]imide	Viscosity, Pa*s	uncertainty
293.15	0	0.00088	5e-05
298.15	0	0.00086	5e-05
303.15	0	0.00084	5e-05
313.15	0	0.00081	5e-05
323.15	0	0.00078	5e-05
333.15	0	0.00075	5e-05
293.15	0.1009	0.00151	9e-05
298.15	0.1009	0.00145	9e-05
303.15	0.1009	0.00137	9e-05
313.15	0.1009	0.00125	8e-05
323.15	0.1009	0.00117	7e-05
333.15	0.1009	0.00112	7e-05
298.15	0.1987	0.00253	0.00016
293.15	0.1987	0.00273	0.00018
303.15	0.1987	0.00237	0.00015
313.15	0.1987	0.00207	0.00013
323.15	0.1987	0.00184	0.00012
333.15	0.1987	0.00165	0.0001
298.15	0.3002	0.00572	0.00035
303.15	0.3002	0.00513	0.00032
293.15	0.3002	0.00643	0.0004
313.15	0.3002	0.00422	0.00026
323.15	0.3002	0.00352	0.00022
333.15	0.3002	0.00303	0.00019
303.15	0.4	0.00714	0.00044
298.15	0.4	0.00781	0.00048
313.15	0.4	0.00568	0.00035
293.15	0.4	0.00877	0.00054
323.15	0.4	0.00462	0.00028
333.15	0.4	0.00385	0.00024
313.15	0.5012	0.00838	0.00051
303.15	0.5012	0.01081	0.00066
298.15	0.5012	0.01244	0.00077
323.15	0.5012	0.00667	0.00041
293.15	0.5012	0.01445	0.00089
333.15	0.5012	0.00543	0.00033
313.15	0.6	0.01218	0.00075
303.15	0.6	0.0162	0.001
323.15	0.6	0.00947	0.00058
293.15	0.6	0.02239	0.00138
298.15	0.6	0.01894	0.00117
333.15	0.6	0.00755	0.00046
293.15	0.7	0.03365	0.00207
298.15	0.7	0.02795	0.00172
323.15	0.7	0.01304	0.0008
313.15	0.7	0.01718	0.00105
303.15	0.7	0.02351	0.00144
333.15	0.7	0.0102	0.00062
303.15	0.8	0.03368	0.00206
323.15	0.8	0.01769	0.00108
293.15	0.8	0.04994	0.00307
298.15	0.8	0.04071	0.0025
313.15	0.8	0.02391	0.00146
333.15	0.8	0.01355	0.00083
293.15	0.9	0.07301	0.00453
303.15	0.9	0.04741	0.0029
298.15	0.9	0.05833	0.00356
313.15	0.9	0.03267	0.002
323.15	0.9	0.02359	0.00144
333.15	0.9	0.01771	0.00108
323.15	1	0.02961	0.0018
298.15	1	0.07766	0.00481
293.15	1	0.09872	0.00631
313.15	1	0.04187	0.00254
303.15	1	0.06229	0.00378
333.15	1	0.02182	0.00133

System: butanenitrile + 1-butyl-1-methylpyrrolidinium bis[(trifluoromethyl)sulfonyl]imide; phases: Crystal 1, Liquid
Fixed: Pressure, kPa = 101
Property: Solid-liquid equilibrium temperature, K (Crystal 1); method: DTA
Mole fraction of 1-butyl-1-methylpyrrolidinium bis[(trifluoromethyl)sulfonyl]imide	Solid-liquid equilibrium temperature, K	uncertainty
0.9007	262.6	2
0.8	259.7	2
0.7	246.4	2
0.6	238	2

System: butanenitrile + 1-butyl-1-methylpyrrolidinium bis[(trifluoromethyl)sulfonyl]imide; phases: Liquid
Fixed: Mole fraction of 1-butyl-1-methylpyrrolidinium bis[(trifluoromethyl)sulfonyl]imide = 0.1402
Fixed: Pressure, kPa = 101
Property: Electrical conductivity, S/m (Liquid); method: Alternating current cell with electrodes
Temperature, K	Electrical conductivity, S/m	uncertainty
293.2	1.694	0.035
299.5	1.847	0.038
302.7	1.969	0.042
310	2.19	0.046
313.7	2.3	0.047
324.6	2.62	0.053
334	2.9	0.059

System: pentanedinitrile + 1-butyl-1-methylpyrrolidinium bis[(trifluoromethyl)sulfonyl]imide; phases: Liquid
Fixed: Pressure, kPa = 101
Property: Mass density, kg/m3 (Liquid); method: Vibrating tube method
Temperature, K	Mole fraction of 1-butyl-1-methylpyrrolidinium bis[(trifluoromethyl)sulfonyl]imide	Mass density, kg/m3	uncertainty
293.15	0	987	2
293.15	0.1003	1094.2	3.1
293.15	0.1997	1167.5	2.8
293.15	0.2999	1222.5	2.7
293.15	0.4002	1266.7	2.7
293.15	0.5006	1300.5	2.7
293.15	0.6003	1327.5	2.8
293.15	0.6998	1349.1	2.8
293.15	0.8004	1368.5	2.8
293.15	0.9002	1385.4	2.8
293.15	1	1399.8	2.8
298.15	0	983.1	2
298.15	0.1003	1090.3	3.1
298.15	0.1997	1163.3	2.8
298.15	0.2999	1218.1	2.7
298.15	0.4002	1262.2	2.7
298.15	0.5006	1296.1	2.7
298.15	0.6003	1323.1	2.7
298.15	0.6998	1344.8	2.8
298.15	0.8004	1364.3	2.8
298.15	0.9002	1380.9	2.8
298.15	1	1395.2	2.8
303.15	0	979.1	2
303.15	0.1003	1086.2	3.1
303.15	0.1997	1159	2.8
303.15	0.2999	1213.8	2.7
303.15	0.4002	1257.9	2.7
303.15	0.5006	1291.7	2.7
303.15	0.6003	1318.6	2.7
303.15	0.6998	1340.3	2.8
303.15	0.8004	1359.8	2.8
303.15	0.9002	1376.4	2.8
303.15	1	1390.7	2.8
313.15	0	971.2	2
313.15	0.1003	1077.9	3.1
313.15	0.1997	1150.5	2.8
313.15	0.2999	1205.1	2.7
313.15	0.4002	1249	2.7
313.15	0.5006	1282.8	2.7
313.15	0.6003	1309.7	2.7
313.15	0.6998	1331.3	2.7
313.15	0.8004	1350.8	2.8
313.15	0.9002	1367.2	2.8
313.15	1	1381.7	2.8
323.15	0	963.4	1.9
323.15	0.1003	1069.7	3
323.15	0.1997	1142	2.8
323.15	0.2999	1196.5	2.7
323.15	0.4002	1240.3	2.7
323.15	0.5006	1274	2.7
323.15	0.6003	1300.9	2.7
323.15	0.6998	1322.5	2.7
323.15	0.8004	1342	2.8
323.15	0.9002	1358.2	2.8
323.15	1	1372.8	2.8
333.15	0	955.6	1.9
333.15	0.1003	1061.5	3
333.15	0.1997	1133.7	2.7
333.15	0.2999	1188	2.7
333.15	0.4002	1231.7	2.7
333.15	0.5006	1265.2	2.7
333.15	0.6003	1291.9	2.7
333.15	0.6998	1313.8	2.7
333.15	0.8004	1333	2.7
333.15	1	1363.8	2.8

System: pentanedinitrile + 1-butyl-1-methylpyrrolidinium bis[(trifluoromethyl)sulfonyl]imide; phases: Liquid
Fixed: Pressure, kPa = 101
Property: Viscosity, Pa*s (Liquid); method: Falling or rolling sphere viscometry
Temperature, K	Mole fraction of 1-butyl-1-methylpyrrolidinium bis[(trifluoromethyl)sulfonyl]imide	Viscosity, Pa*s	uncertainty
293.15	0	0.00697	0.00042
293.15	0.1003	0.00992	0.00061
293.15	0.1997	0.01334	0.00082
293.15	0.2999	0.01757	0.00107
293.15	0.4002	0.02288	0.0014
293.15	0.5006	0.02892	0.00177
293.15	0.6003	0.03847	0.00235
293.15	0.6998	0.04833	0.00295
293.15	0.8004	0.06137	0.00374
293.15	0.9002	0.07819	0.00486
293.15	1	0.09872	0.00631
298.15	0	0.00612	0.00037
298.15	0.1003	0.00855	0.00052
298.15	0.1997	0.01142	0.0007
298.15	0.2999	0.01481	0.0009
298.15	0.4002	0.01917	0.00117
298.15	0.5006	0.02395	0.00146
298.15	0.6003	0.0315	0.00192
298.15	0.6998	0.03956	0.00241
298.15	0.8004	0.0494	0.00301
298.15	0.9002	0.06215	0.00379
298.15	1	0.07766	0.00481
303.15	0	0.00539	0.00033
303.15	0.1003	0.00742	0.00045
303.15	0.1997	0.00983	0.0006
303.15	0.2999	0.01269	0.00077
303.15	0.4002	0.01622	0.00099
303.15	0.5006	0.0201	0.00123
303.15	0.6003	0.02613	0.00159
303.15	0.6998	0.03256	0.00198
303.15	0.8004	0.04038	0.00246
303.15	0.9002	0.05027	0.00304
303.15	1	0.06229	0.00378
313.15	0	0.00425	0.00026
313.15	0.1003	0.00578	0.00035
313.15	0.1997	0.00746	0.00045
313.15	0.2999	0.00952	0.00058
313.15	0.4002	0.01197	0.00073
313.15	0.5006	0.01466	0.00089
313.15	0.6003	0.01867	0.00114
313.15	0.6998	0.02297	0.0014
313.15	0.8004	0.02801	0.00171
313.15	0.9002	0.03437	0.00209
313.15	1	0.04187	0.00254
323.15	0	0.00347	0.00021
323.15	0.1003	0.0046	0.00028
323.15	0.1997	0.00584	0.00036
323.15	0.2999	0.00739	0.00045
323.15	0.4002	0.00916	0.00056
323.15	0.5006	0.01111	0.00068
323.15	0.6003	0.01388	0.00085
323.15	0.6998	0.01693	0.00103
323.15	0.8004	0.01872	0.00188
323.15	0.9002	0.02465	0.0015
323.15	1	0.02961	0.0018
333.15	0	0.00288	0.00017
333.15	0.1003	0.00372	0.00023
333.15	0.1997	0.00471	0.00029
333.15	0.2999	0.00585	0.00036
333.15	0.4002	0.00727	0.00044
333.15	0.5006	0.00867	0.00053
333.15	0.6003	0.01069	0.00065
333.15	0.6998	0.01301	0.00079
333.15	0.8004	0.0142	0.00143
333.15	0.9002	0.01839	0.00112
333.15	1	0.02182	0.00133

System: pentanedinitrile + 1-butyl-1-methylpyrrolidinium bis[(trifluoromethyl)sulfonyl]imide; phases: Liquid
Fixed: Mole fraction of 1-butyl-1-methylpyrrolidinium bis[(trifluoromethyl)sulfonyl]imide = 0.2589
Fixed: Pressure, kPa = 100
Property: Electrical conductivity, S/m (Liquid); method: Alternating current cell with electrodes
Temperature, K	Electrical conductivity, S/m	uncertainty
292.9	0.572	0.014
297.4	0.651	0.016
304.3	0.782	0.018
314.5	1.005	0.022
323.2	1.21	0.026
336	1.546	0.032

System: hexanedinitrile + 1-butyl-1-methylpyrrolidinium bis[(trifluoromethyl)sulfonyl]imide; phases: Liquid
Fixed: Pressure, kPa = 101
Property: Mass density, kg/m3 (Liquid); method: Vibrating tube method
Temperature, K	Mole fraction of 1-butyl-1-methylpyrrolidinium bis[(trifluoromethyl)sulfonyl]imide	Mass density, kg/m3	uncertainty
293.15	0	962.3	1.9
293.15	0.1002	1063.5	3
293.15	0.1996	1138	2.8
293.15	0.3004	1196.8	2.7
293.15	0.3995	1243	2.7
293.15	0.5001	1281.6	2.7
293.15	0.6	1313.1	2.8
293.15	0.7011	1340	2.8
293.15	0.7996	1362.5	2.8
293.15	0.8997	1382.3	2.8
293.15	1	1399.8	2.8
298.15	0	958.6	1.9
298.15	0.1002	1059.5	3
298.15	0.1996	1133.9	2.8
298.15	0.3004	1192.5	2.7
298.15	0.3995	1238.7	2.7
298.15	0.5001	1277.3	2.7
298.15	0.6	1308.6	2.7
298.15	0.7011	1335.6	2.8
298.15	0.7996	1358.2	2.8
298.15	0.8997	1378	2.8
298.15	1	1395.2	2.8
303.15	0	954.8	1.9
303.15	0.1002	1055.6	3
303.15	0.1996	1129.8	2.8
303.15	0.3004	1188.3	2.7
303.15	0.3995	1234.4	2.7
303.15	0.5001	1272.9	2.7
303.15	0.6	1304.2	2.7
303.15	0.7011	1331.2	2.8
303.15	0.7996	1353.8	2.8
303.15	0.8997	1373.5	2.8
303.15	1	1390.7	2.8
313.15	0	947.2	1.9
313.15	0.1002	1047.6	3
313.15	0.1996	1121.5	2.8
313.15	0.3004	1179.9	2.7
313.15	0.3995	1225.8	2.7
313.15	0.5001	1264.2	2.7
313.15	0.6	1295.3	2.7
313.15	0.7011	1322.3	2.7
313.15	0.7996	1344.8	2.8
313.15	0.8997	1364.5	2.8
313.15	1	1381.7	2.8
323.15	0	939.8	1.9
323.15	0.1002	1039.8	3
323.15	0.1996	1113.4	2.7
323.15	0.3004	1171.6	2.7
323.15	0.3995	1217.3	2.7
323.15	0.5001	1255.6	2.7
323.15	0.6	1286.7	2.7
323.15	0.7011	1313.6	2.7
323.15	0.7996	1336	2.8
323.15	0.8997	1355.6	2.8
323.15	1	1372.8	2.8
333.15	0	932.3	1.9
333.15	0.1002	1031.9	2.9
333.15	0.1996	1105.4	2.7
333.15	0.3004	1163.3	2.6
333.15	0.3995	1206.3	2.6
333.15	0.5001	1246.8	2.7
333.15	0.6	1277.9	2.7
333.15	0.7011	1304.7	2.7
333.15	0.7996	1326.7	2.7
333.15	0.8997	1346.3	2.8
333.15	1	1363.8	2.8

System: hexanedinitrile + 1-butyl-1-methylpyrrolidinium bis[(trifluoromethyl)sulfonyl]imide; phases: Liquid
Fixed: Pressure, kPa = 101
Property: Viscosity, Pa*s (Liquid); method: Falling or rolling sphere viscometry
Temperature, K	Mole fraction of 1-butyl-1-methylpyrrolidinium bis[(trifluoromethyl)sulfonyl]imide	Viscosity, Pa*s	uncertainty
293.15	0	0.00717	0.00044
293.15	0.1002	0.00985	0.0006
293.15	0.1996	0.01322	0.00081
293.15	0.3004	0.01756	0.00108
293.15	0.3995	0.02501	0.00153
293.15	0.5001	0.031	0.00189
293.15	0.6	0.03748	0.00229
293.15	0.7011	0.04832	0.00295
293.15	0.7996	0.05996	0.00365
293.15	0.8997	0.07723	0.0048
293.15	1	0.09872	0.00631
298.15	0	0.00631	0.00038
298.15	0.1002	0.00845	0.00052
298.15	0.1996	0.01127	0.00069
298.15	0.3004	0.01479	0.00091
298.15	0.3995	0.02146	0.00131
298.15	0.5001	0.02562	0.00156
298.15	0.6	0.03092	0.00189
298.15	0.7011	0.03922	0.00239
298.15	0.7996	0.04821	0.00294
298.15	0.8997	0.06149	0.00375
298.15	1	0.07766	0.00481
303.15	0	0.00553	0.00034
303.15	0.1002	0.00735	0.00045
303.15	0.1996	0.00971	0.00059
303.15	0.3004	0.01261	0.00077
303.15	0.3995	0.01854	0.00113
303.15	0.5001	0.02153	0.00131
303.15	0.6	0.02559	0.00156
303.15	0.7011	0.03233	0.00197
303.15	0.7996	0.03941	0.0024
303.15	0.8997	0.04974	0.00303
303.15	1	0.06229	0.00378
313.15	0	0.00454	0.00028
313.15	0.1002	0.00572	0.00035
313.15	0.1996	0.00743	0.00045
313.15	0.3004	0.00944	0.00058
313.15	0.3995	0.01405	0.00086
313.15	0.5001	0.01563	0.00095
313.15	0.6	0.01834	0.00112
313.15	0.7011	0.02283	0.00139
313.15	0.7996	0.02742	0.00167
313.15	0.8997	0.03401	0.00207
313.15	1	0.04187	0.00254
323.15	0	0.00373	0.00023
323.15	0.1002	0.00453	0.00028
323.15	0.1996	0.00586	0.00036
323.15	0.3004	0.00732	0.00045
323.15	0.3995	0.01001	0.00061
323.15	0.5001	0.01182	0.00072
323.15	0.6	0.0137	0.00083
323.15	0.7011	0.01683	0.00102
323.15	0.7996	0.01997	0.00122
323.15	0.8997	0.02442	0.00149
323.15	1	0.02961	0.0018
333.15	0	0.00302	0.00018
333.15	0.1002	0.00374	0.00023
333.15	0.1996	0.0048	0.00029
333.15	0.3004	0.00587	0.00036
333.15	0.3995	0.00786	0.00048
333.15	0.5001	0.00921	0.00056
333.15	0.6	0.01059	0.00064
333.15	0.7011	0.01285	0.00078
333.15	0.7996	0.01509	0.00092
333.15	0.8997	0.01822	0.00111
333.15	1	0.02182	0.00133

System: hexanedinitrile + 1-butyl-1-methylpyrrolidinium bis[(trifluoromethyl)sulfonyl]imide; phases: Metastable crystal, Liquid
Fixed: Pressure, kPa = 101
Property: Solid-liquid equilibrium temperature, K (Metastable crystal); method: DTA
Mole fraction of 1-butyl-1-methylpyrrolidinium bis[(trifluoromethyl)sulfonyl]imide	Solid-liquid equilibrium temperature, K	uncertainty
1	253	2
0.8997	251.7	2
0.7996	245.3	2
0.7011	241.6	2

System: hexanedinitrile + 1-butyl-1-methylpyrrolidinium bis[(trifluoromethyl)sulfonyl]imide; phases: Crystal, Liquid
Fixed: Pressure, kPa = 101
Property: Solid-liquid equilibrium temperature, K (Crystal); method: DTA
Mole fraction of 1-butyl-1-methylpyrrolidinium bis[(trifluoromethyl)sulfonyl]imide	Solid-liquid equilibrium temperature, K	uncertainty
0.3995	256.1	2
0.3004	261	2
0.1996	265.8	2
0.1002	271.5	2
0	279.3	2

System: hexanedinitrile + 1-butyl-1-methylpyrrolidinium bis[(trifluoromethyl)sulfonyl]imide; phases: Liquid
Fixed: Mole fraction of 1-butyl-1-methylpyrrolidinium bis[(trifluoromethyl)sulfonyl]imide = 0.2889
Fixed: Pressure, kPa = 101
Property: Electrical conductivity, S/m (Liquid); method: Alternating current cell with electrodes
Temperature, K	Electrical conductivity, S/m	uncertainty
291.8	0.495	0.012
295.2	0.551	0.014
299.3	0.62	0.014
303.9	0.702	0.016
313.4	0.9	0.02
322.2	1.101	0.024
332.9	1.371	0.03
