Measured thermophysical data. Vapor Liquid Equilibrium of Carbon Dioxide + Ethyl Acetate + Oleic Acid Mixtures at High Pressures
Source: J. Chem. Eng. Data, 2017, 10.1021/acs.jced.7b00163
Compound 1: (Z)-9-octadecenoic acid, C18H34O2, InChI=1S/C18H34O2/c1-2-3-4-5-6-7-8-9-10-11-12-13-14-15-16-17-18(19)20/h9-10H,2-8,11-17H2,1H3,(H,19,20)/b10-9-, purity 99%
Compound 2: ethyl acetate, C4H8O2, InChI=1S/C4H8O2/c1-3-6-4(2)5/h3H2,1-2H3, purity 99.5%
Compound 3: carbon dioxide, CO2, InChI=1S/CO2/c2-1-3, purity 99.9%

System: carbon dioxide + ethyl acetate + (Z)-9-octadecenoic acid; phases: Liquid, Gas
Property: Vapor or sublimation pressure, kPa (Liquid); method: Closed cell (Static) method
Temperature, K	Mole fraction of carbon dioxide	Mole fraction of ethyl acetate	Vapor or sublimation pressure, kPa	uncertainty
308	0.5	0.375	3440	50
308	0.6	0.3	4000	70
308	0.7	0.22	5060	70
308	0.8	0.15	5200	120
318	0.5	0.375	3240	40
318	0.6	0.3	4060	60
318	0.7	0.22	4980	70
318	0.8	0.15	6240	140
328	0.5	0.375	3810	90
328	0.6	0.3	5090	110
328	0.7	0.22	6170	140
328	0.8	0.15	7490	160
338	0.5	0.375	4500	90
338	0.6	0.3	5850	100
338	0.7	0.22	7450	140
338	0.8	0.15	9340	190
308	0.5	0.45	3340	70
308	0.6	0.36	4450	70
308	0.7	0.27	4620	90
308	0.8	0.18	5550	140
308	0.85	0.13	6140	130
308	0.9	0.09	6480	3360
308	0.95	0.045	13370	360
318	0.5	0.45	4020	70
318	0.6	0.36	4520	80
318	0.7	0.27	5590	110
318	0.8	0.18	6810	130
318	0.85	0.13	7270	140
318	0.9	0.09	8830	2670
318	0.95	0.045	15660	360
328	0.5	0.45	4250	80
328	0.6	0.36	5310	110
328	0.7	0.27	6580	110
328	0.8	0.18	7870	130
328	0.85	0.13	8610	150
338	0.5	0.45	4930	70
338	0.6	0.36	6280	120
338	0.7	0.27	7620	120
338	0.8	0.18	9190	130
308	0.5	0.498	3450	60
308	0.6	0.398	4030	110
308	0.7	0.299	4700	90
308	0.8	0.199	5880	90
318	0.5	0.498	3810	60
318	0.6	0.398	4870	90
318	0.7	0.299	5590	100
318	0.8	0.199	6580	100
328	0.5	0.498	4430	70
328	0.6	0.398	5340	70
328	0.7	0.299	6470	100
328	0.8	0.199	7530	120
338	0.5	0.498	4960	60
338	0.6	0.398	6120	100
338	0.7	0.299	7410	100
338	0.8	0.199	8670	140

System: carbon dioxide + ethyl acetate + (Z)-9-octadecenoic acid; phases: Gas, Liquid
Property: Vapor or sublimation pressure, kPa (Gas); method: Closed cell (Static) method
Temperature, K	Mole fraction of carbon dioxide	Mole fraction of ethyl acetate	Vapor or sublimation pressure, kPa	uncertainty
308	0.9	0.075	12600	600
318	0.9	0.075	13550	620
328	0.9	0.075	15250	650
338	0.9	0.075	16920	590
328	0.9	0.09	11330	700
328	0.95	0.045	18280	1880
338	0.85	0.135	10140	220
338	0.9	0.09	13750	740
338	0.95	0.045	21350	2280
308	0.85	0.149	5830	990
308	0.9	0.1	6560	670
308	0.95	0.05	7000	2040
318	0.85	0.149	7010	1010
318	0.9	0.1	7620	640
318	0.95	0.05	8200	2030
328	0.85	0.149	8130	970
328	0.9	0.1	9030	600
328	0.95	0.05	9470	2030
338	0.85	0.149	9420	230
338	0.9	0.1	10150	890
338	0.95	0.05	10680	2450

System: carbon dioxide + ethyl acetate; phases: Liquid, Gas
Property: Vapor or sublimation pressure, kPa (Liquid); method: Closed cell (Static) method
Temperature, K	Mole fraction of carbon dioxide	Vapor or sublimation pressure, kPa	uncertainty
308	0.5	3450	60
308	0.6	4030	100
308	0.7	4700	80
308	0.8	5880	90
318	0.5	3810	60
318	0.6	4870	90
318	0.7	5590	100
318	0.8	6580	100
328	0.5	4430	70
328	0.6	5340	70
328	0.7	6470	100
328	0.8	7530	120
338	0.5	4960	60
338	0.6	6120	100
338	0.7	7410	100
338	0.8	8670	130

System: carbon dioxide + ethyl acetate; phases: Gas, Liquid
Property: Vapor or sublimation pressure, kPa (Gas); method: Closed cell (Static) method
Temperature, K	Mole fraction of carbon dioxide	Vapor or sublimation pressure, kPa	uncertainty
308	0.85	5830	120
308	0.9	6560	120
308	0.95	7000	120
318	0.85	7010	120
318	0.9	7620	130
318	0.95	8200	130
328	0.85	8130	130
328	0.9	9030	140
328	0.95	9470	130
338	0.85	9420	140
338	0.9	10150	110
338	0.95	10680	130
