Measured thermophysical data. Vapor - Liquid Equilibria, Excess Enthalpy and Density of Aqueous Gamma-valerolactone Solutions
Source: J. Chem. Eng. Data, 2016, 10.1021/acs.jced.5b00724
Compound 1: .gamma.-valerolactone, C5H8O2, InChI=1S/C5H8O2/c1-4-2-3-5(6)7-4/h4H,2-3H2,1H3, purity 98%
Compound 2: water, H2O, InChI=1S/H2O/h1H2, purity 99.9%

System: .gamma.-valerolactone; phases: Liquid
Property: Refractive index (Na D-line) (Liquid); method: Standard Abbe refractometry
Temperature, K	Pressure, kPa	Refractive index (Na D-line)	uncertainty
298.15	101.325	1.4316	0.0012

System: .gamma.-valerolactone; phases: Liquid
Property: Mass density, kg/m3 (Liquid); method: Vibrating tube method
Temperature, K	Pressure, kPa	Mass density, kg/m3	uncertainty
298	101.325	1049.2	1.2

System: .gamma.-valerolactone; phases: Liquid, Gas
Property: Boiling temperature at pressure P, K (Liquid); method: Ebulliometric method (Recirculating still)
Pressure, kPa	Boiling temperature at pressure P, K	uncertainty
0.58	338.1	6.3
1.14	350.6	5.7
1.49	356.19	3.93
1.86	360.62	3.02
2.49	366.92	2.09
4.37	379.6	1.3
8.66	396.8	1.1
10.61	402.5	0.8
11.92	405.9	0.6
16.51	415.3	0.6
20.17	421.2	0.5
27.32	430.93	0.35
35.64	439.6	0.3
43.21	446.33	0.23
61.04	458.87	0.2
82.18	470.19	0.18

System: .gamma.-valerolactone; phases: Liquid
Property: Mass density, kg/m3 (Liquid); method: Vibrating tube method
Temperature, K	Pressure, kPa	Mass density, kg/m3	uncertainty
293.151	186.004	1053.378	1.002
293.151	187.0053	1053.428	1.002
293.151	476.371	1053.677	1.002
293.151	977.0036	1054.066	1.002
293.151	1979.27	1054.812	1.002
293.151	2978.533	1055.467	1.002
293.151	3976.795	1056.08	1
293.151	4978.06	1056.652	1.002
298.157	187.0053	1048.677	1.002
298.157	189.0078	1048.828	1.002
298.157	480.376	1048.975	1.002
298.157	978.0049	1049.414	1.002
298.157	1980.271	1050.159	1.002
298.157	2980.536	1050.863	1.002
298.157	3977.796	1051.476	1.002
298.157	4976.057	1052.048	1.002
353.15	187.0053	996.3842	1.0204
353.156	188.0065	997.1693	1.0148
353.149	190.0091	996.7342	1.0134
353.152	194.0141	997.077	1.028
353.152	198.0192	997.1267	1.0402
353.152	484.3811	996.8242	1.124
353.156	489.3874	997.3144	1.0012
353.152	492.3912	997.2718	1.124
353.152	979.0061	997.655	1.081
353.152	984.0125	997.9036	1.0012
353.155	985.0137	997.8981	1.0812
353.151	1981.273	998.74	1.03
353.155	1987.28	998.8317	1.0342
353.152	1988.282	998.8371	1.0259
353.151	2979.534	999.6329	1.0254
353.152	2985.542	999.7298	1.0254
353.155	2985.542	999.7244	1.0248
353.151	3979.798	1000.435	1.018
353.152	3983.803	1000.532	1.001
353.155	3986.807	1000.526	1.019
353.151	4978.06	1001.195	1.02
353.152	4983.066	1001.292	1.001
353.155	4984.067	1001.286	1.02
393.148	179.9964	958.0671	1.0275
393.147	181.9989	958.8573	1.0101
393.147	181.9989	958.4631	1.0193
393.156	203.0255	958.9391	1.0033
393.147	486.3836	958.0647	1.0019
393.155	491.3899	958.8876	1.0018
393.147	978.0049	959.4296	1.0589
393.154	984.0125	959.7121	1.0039
393.147	1981.273	960.8467	1.0019
393.154	1985.278	960.8828	1.0019
393.147	2980.536	961.9272	1.0019
393.15	2984.541	961.9212	1.0019
393.147	3978.797	962.9174	1.002
393.149	3981.801	962.9132	1.002
393.147	4977.059	963.8665	1.002
393.15	4979.061	963.8606	1.002
433.147	180.9977	918.395	1.003
433.145	184.0015	918.9842	1.003
433.157	491.3899	919.299	1.003
433.147	492.3912	919.5616	1.003
433.157	982.0099	920.3087	1.003
433.149	1984.277	921.7748	1.0032
433.147	2984.541	923.0911	1.0033
433.147	3983.803	924.3138	1.0034
433.147	4980.062	925.496	1.004
453.141	183.0002	898.494	1.014
453.153	199.0205	898.9081	1.014
453.151	490.3887	898.8591	1.0038
453.15	983.0112	900.0594	1.004
453.15	1982.274	901.6	1
453.15	2985.542	903.0505	1.0044
453.15	3983.803	904.4119	1.0046
453.151	4981.064	905.7305	1.0048

System: .gamma.-valerolactone; phases: Liquid
Property: Mass density, kg/m3 (Liquid); method: Vibrating tube method
Pressure, kPa	Temperature, K	Mass density, kg/m3	uncertainty
107	298.1	1048.8	1.2

System: .gamma.-valerolactone; phases: Liquid, Gas
Property: Vapor or sublimation pressure, kPa (Liquid); method: Closed cell (Static) method
Temperature, K	Vapor or sublimation pressure, kPa	uncertainty
350.18	1.2	0.2

System: water; phases: Liquid
Property: Refractive index (Na D-line) (Liquid); method: Standard Abbe refractometry
Temperature, K	Pressure, kPa	Refractive index (Na D-line)	uncertainty
298.15	101.325	1.3325	0.0008

System: water; phases: Liquid
Property: Mass density, kg/m3 (Liquid); method: Vibrating tube method
Temperature, K	Pressure, kPa	Mass density, kg/m3	uncertainty
298	101.325	997	1

System: water; phases: Liquid
Property: Mass density, kg/m3 (Liquid); method: Vibrating tube method
Pressure, kPa	Temperature, K	Mass density, kg/m3	uncertainty
109	298.1	997	0.8

System: water; phases: Liquid, Gas
Property: Vapor or sublimation pressure, kPa (Liquid); method: Closed cell (Static) method
Temperature, K	Vapor or sublimation pressure, kPa	uncertainty
350.12	41.9	0.2

System: .gamma.-valerolactone + water; phases: Liquid
Fixed: Pressure, kPa = 130
Property: Excess molar enthalpy (molar enthalpy of mixing), kJ/mol (Liquid); method: Calvet calorimetry
Temperature, K	Mole fraction of water	Excess molar enthalpy (molar enthalpy of mixing), kJ/mol	uncertainty
322.6	0.204	0.864	0.023
322.6	0.401	1.043	0.027
322.6	0.503	0.969	0.026
322.6	0.602	0.823	0.023
322.6	0.602	0.826	0.023
322.6	0.7	0.635	0.019
322.6	0.801	0.406	0.014
322.6	0.9	0.168	0.011
322.6	0.95	0.0484	0.0098
303.2	0.097	0.52	0.054
303.2	0.203	0.826	0.087
303.2	0.303	0.928	0.094
303.2	0.4	0.907	0.092
303.2	0.514	0.812	0.083
303.2	0.601	0.629	0.066
303.2	0.7	0.446	0.046
303.2	0.801	0.243	0.025
303.2	0.9	0.043	0.009
303.2	0.841	0.162	0.018
303.2	0.894	0.053	0.007
303.2	0.914	0.0129	0.0045
303.2	0.914	0.01	0.0045
303.2	0.93	-0.0183	0.004
303.2	0.946	-0.041	0.005
303.2	0.9815	-0.076	0.008
303.2	0.9906	-0.043	0.005
303.2	0.99624	-0.0174	0.0035
303.2	0.99811	-0.0088	0.0031

System: .gamma.-valerolactone + water; phases: Liquid
Fixed: Temperature, K = 298.1
Property: Mass density, kg/m3 (Liquid); method: Vibrating tube method
Mass fraction of water	Pressure, kPa	Mass density, kg/m3	uncertainty
1	109	997	0.8
0.89968	109	1005.5	0.8
0.79987	109	1013.8	0.8
0.69993	108	1021.1	0.8
0.59999	107	1027.1	0.8
0.50001	107	1032.9	0.8
0.40003	107	1037.6	0.8
0.30254	107	1041.7	0.8
0.20047	107	1044.9	0.8
0.10041	107	1047	0.8
0	107	1048.8	0.8

System: .gamma.-valerolactone + water; phases: Gas, Liquid
Property: Vapor or sublimation pressure, kPa (Gas); method: Closed cell (Static) method
Mole fraction of water	Temperature, K	Vapor or sublimation pressure, kPa	uncertainty
0	350.18	1.2	0.2
0.051	350.18	9.5	0.7
0.097	350.19	15.5	0.6
0.2	350.19	25.6	0.7
0.301	350.19	31.9	0.6
0.396	350.19	35.8	0.5
0.501	350.2	38.5	0.4
0.551	350.19	39.4	0.3
0.593	350.24	40.1	0.3
0.606	350.19	40.4	0.3
0.693	350.24	40.6	0.3
0.796	350.24	40.9	0.2
0.898	350.23	41.2	0.3
0.9688	350.23	41.7	0.3
0.9878	350.21	41.8	0.3
1	350.12	41.9	0.3

System: .gamma.-valerolactone + water; phases: Gas, Liquid
Property: Mole fraction of water (Gas); method: Chromatography
Mole fraction of water	Temperature, K	Mole fraction of water	uncertainty
0	350.18	0	
0.051	350.18	0.88	0.12
0.097	350.19	0.93	0.06
0.2	350.19	0.96	0.04
0.301	350.19	0.97	0.02
0.396	350.19	0.98	0.02
0.501	350.2	0.98	0.02
0.551	350.19	0.98	0.02
0.593	350.24	0.98	0.02
0.606	350.19	0.98	0.02
0.693	350.24	0.981	0.018
0.796	350.24	0.981	0.018
0.898	350.23	0.981	0.016
0.9688	350.23	0.987	0.012
0.9878	350.21	0.994	0.006
1	350.12	1	
