Measured thermophysical data. Mutual Solubilities of Cyclohexane and Water in Aqueous Methyldiethanolamine /Cyclohexane Liquid-Liquid Equilibria
Source: J. Chem. Eng. Data, 2018, 10.1021/acs.jced.7b00873
Compound 1: cyclohexane, C6H12, InChI=1S/C6H12/c1-2-4-6-5-3-1/h1-6H2
Compound 2: N-methyldiethanolamine, C5H13NO2, InChI=1S/C5H13NO2/c1-6(2-4-7)3-5-8/h7-8H,2-5H2,1H3
Compound 3: water, H2O, InChI=1S/H2O/h1H2, purity 99.9%

System: cyclohexane + N-methyldiethanolamine + water; phases: Liquid mixture 1, Liquid mixture 2
Property: Mole fraction of cyclohexane (Liquid mixture 1); method: Chromatography
Temperature, K	Mole fraction of N-methyldiethanolamine	Pressure, kPa	Mole fraction of cyclohexane	uncertainty
318	0.047951	100	0.000113	4.5e-05

System: cyclohexane + N-methyldiethanolamine + water; phases: Liquid mixture 1, Liquid mixture 2
Fixed: Pressure, kPa = 100
Property: Mole fraction of cyclohexane (Liquid mixture 1); method: Chromatography
Property: Mole fraction of N-methyldiethanolamine (Liquid mixture 2); method: Chromatography
Property: Mole fraction of cyclohexane (Liquid mixture 2); method: Chromatography
Temperature, K	Mole fraction of N-methyldiethanolamine	Mole fraction of cyclohexane	uncertainty	Mole fraction of N-methyldiethanolamine	uncertainty	Mole fraction of cyclohexane	uncertainty
295	0	1.67e-05	6.7e-06	0		0.999748	
298	0.0479536	3.97e-05	1.59e-05	0		0.999748	
308	0.0479539	5.22e-05	2.09e-05	0		0.999659	
298	0.091524	0.000102	4.1e-05	0		0.999742	
308	0.091521	0.000158	6.3e-05	0		0.999647	
318	0.091519	0.000198	7.9e-05	0		0.999547	
298	0.11003	0.0001668	6.67e-05	0		0.99973	
308	0.110028	0.000211	8.4e-05	0		0.999644	
318	0.110026	0.00026	0.0001	0		0.999524	
295	0.13131	0.000202	8.1e-05	0		0.999768	
298	0.13131	0.000225	9e-05	0		0.999741	
308	0.1313	0.000335	0.000134	0		0.999661	
318	0.13129	0.000464	0.000186	0		0.999535	

System: cyclohexane + water; phases: Liquid mixture 1, Liquid mixture 2
Property: Mole fraction of cyclohexane (Liquid mixture 1); method: Chromatography
Temperature, K	Pressure, kPa	Mole fraction of cyclohexane	uncertainty
295	100	1.67e-05	6.7e-06

System: cyclohexane + water; phases: Liquid mixture 2, Liquid mixture 1
Property: Mole fraction of water (Liquid mixture 2); method: Chromatography
Temperature, K	Pressure, kPa	Mole fraction of water	uncertainty
295	100	0.000252	6.6e-05
