Measured thermophysical data. High-Pressure Speed of Sound Measurements of trans-1-Chloro-3,3,3-trifluoropropene (R1233zd(E)) in Liquid Region for Temperature from (273.15 to 353.15) K
Source: J. Chem. Eng. Data, 2018, 10.1021/acs.jced.8b00427
Compound 1: (E)-1-chloro-3,3,3-trifluoroprop-1-ene, C3H2ClF3, InChI=1S/C3H2ClF3/c4-2-1-3(5,6)7/h1-2H/b2-1+, purity 99.5%

System: (E)-1-chloro-3,3,3-trifluoroprop-1-ene; phases: Liquid
Fixed: Frequency, MHz = 4
Property: Speed of sound, m/s (Liquid); method: Pulse-echo method
Temperature, K	Pressure, kPa	Speed of sound, m/s	uncertainty
273.16	190	786.78	1.03
273.16	1000	791.78	1.04
273.15	5030	815.43	1.06
273.16	10050	842.75	1.08
273.15	20150	892.92	1.13
273.15	25090	915.36	1.15
273.14	30070	936.9	1.17
273.16	35030	957.33	1.19
283.15	190	746.74	1
283.16	980	752.01	1
283.14	5170	778.28	1.03
283.14	10020	806.46	1.05
283.16	20000	858.64	1.1
283.14	24930	882.24	1.12
283.14	30260	906.25	1.14
283.16	34920	926.3	1.16
293.15	170	707.09	0.96
293.16	1030	713.25	0.97
293.16	5090	740.63	0.99
293.15	9990	771.05	1.02
293.15	20000	826.3	1.07
293.16	30100	875.12	1.11
293.15	35000	896.92	1.13
313.14	270	628.5	0.9
313.16	1180	636.05	0.9
313.15	5010	666.72	0.93
313.15	10000	702.15	0.96
313.15	19990	763.58	1.01
313.15	30050	816.73	1.06
313.15	34920	840.09	1.08
333.14	5010	594.52	0.86
333.14	9980	634.9	0.9
333.15	19990	704.25	0.95
333.15	29970	761.64	1.01
333.15	35060	787.99	1.03
353.14	10010	571.03	0.84
353.14	15090	612.03	0.87
353.14	20150	648.34	0.91
353.15	24990	679.91	0.93
353.15	30000	710.32	0.96
353.15	35040	738.23	0.98
