Measured thermophysical data. Measurement and Correlation of Activity, Density, and Speed of Sound for Binary Mixtures of 1-Propanol + Poly(Propylene Glycol) 400, 725, and 1025
Source: J. Chem. Eng. Data, 2017, 10.1021/acs.jced.7b00581
Compound 1: propan-1-ol, C3H8O, InChI=1S/C3H8O/c1-2-3-4/h4H,2-3H2,1H3, purity 99.8%

System: propan-1-ol; phases: Liquid
Fixed: Pressure, kPa = 100
Property: Mass density, kg/m3 (Liquid); method: Vibrating tube method
Temperature, K	Mass density, kg/m3	uncertainty
288.15	807.8337	0.1479
298.15	799.597	0.152
308.15	791.399	0.156
318.15	783.121	0.16

System: propan-1-ol; phases: Liquid
Fixed: Pressure, kPa = 100
Property: Speed of sound, m/s (Liquid); method: Single path-length method
Temperature, K	Speed of sound, m/s	uncertainty
288.15	1242.34	0.42
298.15	1205.33	0.41
308.15	1170.36	0.39
318.15	1137.31	0.39
