Measured thermophysical data. Viscosity, Density, and Volatility of Binary Mixtures of Imidazole, 2-Methylimidazole, 2,4,5-Trimethylimidazole, and 1,2,4,5-Tetramethylimidazole with Water
Source: J. Chem. Eng. Data, 2019, 10.1021/acs.jced.8b00674
Compound 1: 1H-imidazole, C3H4N2, InChI=1S/C3H4N2/c1-2-5-3-4-1/h1-3H,(H,4,5), purity 99%
Compound 2: 2-methylimidazole, C4H6N2, InChI=1S/C4H6N2/c1-4-5-2-3-6-4/h2-3H,1H3,(H,5,6), purity 99%
Compound 3: water, H2O, InChI=1S/H2O/h1H2, purity 99.9%
Compound 4: 2,4,5-trimethylimidazole, C6H10N2, InChI=1S/C6H10N2/c1-4-5(2)8-6(3)7-4/h1-3H3,(H,7,8)
Compound 5: 1,2,4,5-tetramethylimidazole, C7H12N2, InChI=1S/C7H12N2/c1-5-6(2)9(4)7(3)8-5/h1-4H3, purity 98%
Compound 6: carbon dioxide, CO2, InChI=1S/CO2/c2-1-3, purity 99.999%
Compound 7: 2-aminoethan-1-ol, C2H7NO, InChI=1S/C2H7NO/c3-1-2-4/h4H,1-3H2, purity 99.5%
Compound 8: N-methyldiethanolamine, C5H13NO2, InChI=1S/C5H13NO2/c1-6(2-4-7)3-5-8/h7-8H,2-5H2,1H3, purity 99%

System: water; phases: Liquid
Fixed: Pressure, kPa = 101.3
Property: Viscosity, Pa*s (Liquid); method: Falling or rolling sphere viscometry
Temperature, K	Viscosity, Pa*s	uncertainty
298.16	0.0008923	3.63e-05
298.15	0.0008927	3.63e-05
303.15	0.0008026	3.26e-05
303.15	0.0008022	3.26e-05
313.15	0.0006594	2.68e-05
313.15	0.0006598	2.68e-05
323.16	0.0005613	2.28e-05
323.15	0.0005612	2.28e-05
333.15	0.0004806	1.95e-05
333.15	0.0004802	1.95e-05
343.14	0.0004182	1.7e-05
343.15	0.0004184	1.7e-05
353.14	0.0003688	1.5e-05
353.15	0.0003684	1.5e-05

System: 1H-imidazole + water; phases: Liquid
Fixed: Pressure, kPa = 100
Property: Viscosity, Pa*s (Liquid); method: Falling or rolling sphere viscometry
Mole fraction of 1H-imidazole	Temperature, K	Viscosity, Pa*s	uncertainty
0.0286	298.15	0.001058	4.3e-05
0.0621	298.15	0.001242	5e-05
0.102	298.15	0.00147	6e-05
0.15	298.15	0.001737	7.1e-05
0.209	298.15	0.00214	9e-05
0.0286	303.15	0.000944	3.8e-05
0.0621	303.15	0.001103	4.5e-05
0.102	303.15	0.001301	5.4e-05
0.15	303.15	0.001541	6.4e-05
0.209	303.15	0.001881	7.8e-05
0.0286	313.15	0.000771	3.1e-05
0.0621	313.15	0.000892	3.6e-05
0.102	313.15	0.001043	4.3e-05
0.15	313.15	0.001261	5.2e-05
0.209	313.15	0.001543	6.4e-05
0.0286	323.15	0.000647	2.6e-05
0.0621	323.15	0.000742	3e-05
0.102	323.15	0.000862	3.6e-05
0.15	323.15	0.001034	4.3e-05
0.209	323.15	0.001254	5.2e-05
0.0286	333.15	0.000555	4.5e-05
0.0621	333.15	0.000632	5.1e-05
0.102	333.15	0.000728	5.9e-05
0.15	333.15	0.000865	7e-05
0.209	333.15	0.001045	8.4e-05
0.0286	343.15	0.000486	3.9e-05
0.0621	343.15	0.000549	4.4e-05
0.102	343.15	0.000628	5.1e-05
0.15	343.15	0.000739	6e-05
0.209	343.15	0.000863	7e-05
0.0286	353.15	0.000433	3.5e-05
0.0621	353.15	0.000486	3.9e-05
0.102	353.15	0.000551	4.4e-05
0.15	353.15	0.000644	5.2e-05
0.209	353.15	0.000766	6.2e-05

System: 1H-imidazole + water; phases: Liquid
Fixed: Pressure, kPa = 100
Property: Mass density, kg/m3 (Liquid); method: Vibrating tube method
Temperature, K	Mole fraction of 1H-imidazole	Mass density, kg/m3	uncertainty
298.15	0.0286	1009.1	4
298.15	0.0621	1020.9	4
298.15	0.102	1032.4	4
298.15	0.15	1043.4	4
298.15	0.209	1054.1	4
303.15	0.0286	1007.3	4
303.15	0.0621	1018.7	4
303.15	0.102	1029.7	4
303.15	0.15	1040.6	4
303.15	0.209	1051	4
313.15	0.0286	1003	4
313.15	0.0621	1013.6	4
313.15	0.102	1024.1	4
313.15	0.15	1035.5	4
313.15	0.209	1045.6	4
323.15	0.0286	998.2	4
323.15	0.0621	1008.2	4
323.15	0.102	1018.1	4
323.15	0.15	1028.9	4
323.15	0.209	1038.8	4
333.15	0.0286	992.6	4
333.15	0.0621	1002.2	4
333.15	0.102	1011.6	4
333.15	0.15	1022	4
333.15	0.209	1031.5	4
343.15	0.0621	995.8	4
343.15	0.102	1004.8	4
343.15	0.15	1014.7	4
343.15	0.209	1023	4
353.15	0.0621	989	4
353.15	0.102	997.6	4
353.15	0.15	1007.2	4
353.15	0.209	1015.2	4

System: 1H-imidazole + water; phases: Liquid, Gas
Property: Vapor or sublimation pressure, kPa (Liquid); method: Ebulliometric method (Recirculating still)
Mole fraction of 1H-imidazole	Temperature, K	Vapor or sublimation pressure, kPa	uncertainty
0.277	313.12	6.29	0.61
0.241	313.09	6.49	0.61
0.197	313.09	6.69	0.61
0.161	313.1	6.78	0.61
0.128	313.07	6.89	0.61
0.279	333.1	16.79	0.81
0.239	333.15	17.38	0.62
0.195	333.15	17.99	0.62
0.161	333.14	18.19	0.62
0.131	333.19	18.39	1.16
0.286	353.13	38.99	0.84
0.239	353.17	41.01	0.69
0.195	353.17	42.1	0.75
0.162	353.17	42.99	0.71
0.131	353.17	43.69	1.86
0.28	373.15	83.27	0.93
0.238	373.19	87.51	0.86
0.187	373.05	90.1	0.81
0.158	373.1	91.78	0.79
0.126	373.15	92.98	0.77

System: 1H-imidazole + water; phases: Gas, Liquid
Property: Mole fraction of 1H-imidazole (Gas); method: titration and chromatography
Mole fraction of 1H-imidazole	Temperature, K	Mole fraction of 1H-imidazole	uncertainty
0.277	313.12	0.00015	2e-05
0.241	313.09	0.00014	2e-05
0.197	313.09	0.00014	2e-05
0.161	313.1	0.00013	2e-05
0.128	313.07	0.0001	2e-05
0.279	333.1	0.00014	2e-05
0.239	333.15	0.00012	2e-05
0.195	333.15	0.00015	2e-05
0.161	333.14	0.00016	2e-05
0.131	333.19	0.00011	2e-05
0.286	353.13	0.00012	2e-05
0.239	353.17	0.00012	2e-05
0.195	353.17	0.00013	2e-05
0.162	353.17	0.00014	2e-05
0.131	353.17	0.00012	2e-05
0.28	373.15	0.00019	2e-05
0.238	373.19	0.00016	2e-05
0.187	373.05	0.00015	2e-05
0.158	373.1	0.00015	2e-05
0.126	373.15	0.00012	2e-05

System: 2-methylimidazole + water; phases: Liquid, Gas
Property: Vapor or sublimation pressure, kPa (Liquid); method: Ebulliometric method (Recirculating still)
Mole fraction of 2-methylimidazole	Temperature, K	Vapor or sublimation pressure, kPa	uncertainty
0.0813	313.15	7.19	0.61
0.0682	313.1	7.19	0.61
0.0544	313.24	7.28	0.61
0.0438	313.13	7.28	0.61
0.0379	313.33	7.32	0.61
0.0816	333.21	19.19	5.55
0.07	333.24	19.29	0.62
0.0523	333.2	19.39	0.66
0.0426	333.09	19.39	0.62
0.0358	333.14	19.49	3.27
0.0778	353.25	45.49	0.69
0.0673	353.2	45.58	0.98
0.0527	353.14	45.79	0.88
0.0432	353.09	45.89	1
0.0364	353.21	46	7.68
0.0795	373.17	96.68	0.78
0.068	373.09	96.88	0.8
0.0536	373.1	97.58	0.8
0.0435	373.06	97.87	0.81
0.0369	373.12	98.47	0.86

System: 2-methylimidazole + water; phases: Gas, Liquid
Property: Mole fraction of 2-methylimidazole (Gas); method: titration and chromatography
Mole fraction of 2-methylimidazole	Temperature, K	Mole fraction of 2-methylimidazole	uncertainty
0.0813	313.15	4e-05	2e-05
0.0682	313.1	4e-05	2e-05
0.0544	313.24	3e-05	2e-05
0.0438	313.13	3e-05	2e-05
0.0379	313.33	2e-05	2e-05
0.0816	333.21	8e-05	2e-05
0.07	333.24	7e-05	2e-05
0.0523	333.2	6e-05	2e-05
0.0426	333.09	5e-05	2e-05
0.0358	333.14	5e-05	2e-05
0.0778	353.25	0.00013	2e-05
0.0673	353.2	0.00015	2e-05
0.0527	353.14	0.0001	2e-05
0.0432	353.09	0.00013	2e-05
0.0364	353.21	0.00014	2e-05
0.0795	373.17	0.00017	2e-05
0.068	373.09	0.00018	2e-05
0.0536	373.1	0.00016	2e-05
0.0435	373.06	0.00016	2e-05
0.0369	373.12	0.00018	3e-05

System: 2-methylimidazole + water; phases: Liquid
Fixed: Pressure, kPa = 100
Property: Viscosity, Pa*s (Liquid); method: Falling or rolling sphere viscometry
Mole fraction of 2-methylimidazole	Temperature, K	Viscosity, Pa*s	uncertainty
0.0238	298.15	0.001151	4.7e-05
0.0373	298.15	0.001312	5.3e-05
0.052	298.15	0.001494	6.1e-05
0.0682	298.15	0.001718	7e-05
0.086	298.15	0.001971	8e-05
0.0238	303.15	0.00102	4.1e-05
0.0373	303.15	0.00116	4.7e-05
0.052	303.15	0.001315	5.3e-05
0.0682	303.15	0.001498	6.1e-05
0.086	303.15	0.001707	6.9e-05
0.0238	313.15	0.000838	3.4e-05
0.0373	313.15	0.000933	3.8e-05
0.052	313.15	0.00107	4.4e-05
0.0682	313.15	0.001214	4.9e-05
0.086	313.15	0.001379	5.6e-05
0.0238	323.15	0.000696	2.8e-05
0.0373	323.15	0.000767	3.1e-05
0.052	323.15	0.00087	3.5e-05
0.0682	323.15	0.000978	4e-05
0.086	323.15	0.0011	4.5e-05
0.0238	333.15	0.000591	2.4e-05
0.0373	333.15	0.000647	2.6e-05
0.052	333.15	0.000713	2.9e-05
0.0682	333.15	0.000792	3.2e-05
0.086	333.15	0.000886	3.6e-05
0.0238	343.15	0.000508	2.1e-05
0.0373	343.15	0.000558	2.3e-05
0.052	343.15	0.00061	2.5e-05
0.0682	343.15	0.000673	2.7e-05
0.086	343.15	0.000746	3e-05
0.0238	353.15	0.000453	1.8e-05
0.0373	353.15	0.00049	2e-05
0.052	353.15	0.000534	2.2e-05
0.0682	353.15	0.000585	2.4e-05
0.086	353.15	0.000643	2.6e-05

System: 2-methylimidazole + water; phases: Liquid
Fixed: Pressure, kPa = 100
Property: Mass density, kg/m3 (Liquid); method: Vibrating tube method
Temperature, K	Mole fraction of 2-methylimidazole	Mass density, kg/m3	uncertainty
298.15	0.0238	1003.5	4
298.15	0.0373	1007.1	4
298.15	0.052	1010.7	4
298.15	0.0682	1014.3	4
298.15	0.086	1017.9	4
303.15	0.0238	1001.8	4
303.15	0.0373	1005.2	4
303.15	0.052	1008.6	4
303.15	0.0682	1011.9	4
303.15	0.086	1015.4	4
313.15	0.0238	998.1	4
313.15	0.0373	1000.7	4
313.15	0.052	1004.6	4
313.15	0.0682	1007.2	4
313.15	0.086	1010.8	4
323.15	0.0238	993.4	4
323.15	0.0373	995.7	4
323.15	0.052	999.1	4
323.15	0.0682	1002.9	4
323.15	0.086	1004.7	4
333.15	0.0238	988.1	4
333.15	0.0373	990.2	4
333.15	0.052	992.7	4
333.15	0.0682	995.2	4
333.15	0.086	997.7	4
343.15	0.0238	981.8	4
343.15	0.052	986.3	4
343.15	0.0682	988.6	4
343.15	0.086	990.9	4
353.15	0.052	979.6	4
353.15	0.0682	981.7	4
353.15	0.086	983.8	4

System: 2,4,5-trimethylimidazole + water; phases: Liquid, Gas
Property: Vapor or sublimation pressure, kPa (Liquid); method: Ebulliometric method (Recirculating still)
Mole fraction of 2,4,5-trimethylimidazole	Temperature, K	Vapor or sublimation pressure, kPa	uncertainty
0.0767	313.19	7.29	0.61
0.0588	313.12	7.29	0.61
0.0459	313.03	7.29	0.61
0.0352	313.19	7.39	0.61
0.0183	313.07	7.39	0.61
0.121	333.16	19.28	0.63
0.0915	333.06	19.39	0.62
0.074	333.1	19.49	0.62
0.0596	333.15	19.59	0.62
0.0446	333.21	19.69	0.62
0.0331	333.15	19.69	0.7
0.0176	333.15	19.79	1.99
0.115	353.17	45.79	2.2
0.0904	353.15	46.09	0.71
0.0741	353.18	46.29	0.68
0.0601	353.18	46.39	0.66
0.0448	353.15	46.48	0.76
0.0335	353.2	46.68	0.71
0.0178	353.12	46.79	3.48
0.117	373.05	97.28	0.78
0.0913	373.12	98.17	0.78
0.0749	373.21	98.77	0.77
0.0603	373.19	98.97	0.77
0.0452	373.15	99.17	0.77
0.0337	373.13	99.37	0.78
0.018	373.09	99.77	0.79

System: 2,4,5-trimethylimidazole + water; phases: Gas, Liquid
Property: Mole fraction of 2,4,5-trimethylimidazole (Gas); method: titration and chromatography
Mole fraction of 2,4,5-trimethylimidazole	Temperature, K	Mole fraction of 2,4,5-trimethylimidazole	uncertainty
0.0767	313.19	1e-05	1e-05
0.0588	313.12	2e-05	2e-05
0.0459	313.03	1e-05	1e-05
0.0352	313.19	1e-05	1e-05
0.0183	313.07	1e-05	1e-05
0.121	333.16	6e-05	2e-05
0.0915	333.06	6e-05	2e-05
0.074	333.1	5e-05	2e-05
0.0596	333.15	6e-05	2e-05
0.0446	333.21	6e-05	2e-05
0.0331	333.15	4e-05	2e-05
0.0176	333.15	4e-05	2e-05
0.115	353.17	9e-05	2e-05
0.0904	353.15	0.0001	2e-05
0.0741	353.18	7e-05	2e-05
0.0601	353.18	8e-05	2e-05
0.0448	353.15	0.0001	2e-05
0.0335	353.2	0.0001	2e-05
0.0178	353.12	8e-05	2e-05
0.117	373.05	0.00015	2e-05
0.0913	373.12	0.00016	2e-05
0.0749	373.21	0.00016	2e-05
0.0603	373.19	0.00014	2e-05
0.0452	373.15	0.00013	2e-05
0.0337	373.13	0.00014	2e-05
0.018	373.09	0.00011	2e-05

System: 2,4,5-trimethylimidazole + water; phases: Liquid
Fixed: Pressure, kPa = 100
Property: Viscosity, Pa*s (Liquid); method: Falling or rolling sphere viscometry
Mole fraction of 2,4,5-trimethylimidazole	Temperature, K	Viscosity, Pa*s	uncertainty
0.0179	298.15	0.001317	5.4e-05
0.0393	298.15	0.00201	8e-05
0.0655	298.15	0.00312	0.00013
0.0983	298.15	0.00527	0.00021
0.141	298.15	0.00935	0.00043
0.0179	303.15	0.001157	4.7e-05
0.0393	303.15	0.001754	7.2e-05
0.0655	303.15	0.00271	0.00011
0.0983	303.15	0.00441	0.00018
0.141	303.15	0.00738	0.00034
0.0179	313.15	0.000944	3.9e-05
0.0393	313.15	0.001384	5.6e-05
0.0655	313.15	0.00208	8e-05
0.0983	313.15	0.00324	0.00013
0.141	313.15	0.00487	0.00022
0.0179	323.15	0.000774	3.2e-05
0.0393	323.15	0.0011	4.5e-05
0.0655	323.15	0.001598	6.5e-05
0.0983	323.15	0.0024	0.0001
0.141	323.15	0.00344	0.00015
0.0179	333.15	0.000651	2.7e-05
0.0393	333.15	0.000877	3.6e-05
0.0655	333.15	0.001228	5e-05
0.0983	333.15	0.001765	7.2e-05
0.141	333.15	0.00261	0.00011
0.0179	343.15	0.000552	2.3e-05
0.0393	343.15	0.000736	3e-05
0.0655	343.15	0.00101	4.1e-05
0.0983	343.15	0.001407	5.7e-05
0.141	343.15	0.00202	9e-05
0.0179	353.15	0.000485	2e-05
0.0393	353.15	0.000631	2.6e-05
0.0655	353.15	0.000843	3.4e-05
0.0983	353.15	0.001148	4.7e-05
0.141	353.15	0.001618	6.9e-05

System: 2,4,5-trimethylimidazole + water; phases: Liquid
Fixed: Pressure, kPa = 100
Property: Mass density, kg/m3 (Liquid); method: Vibrating tube method
Temperature, K	Mole fraction of 2,4,5-trimethylimidazole	Mass density, kg/m3	uncertainty
298.15	0.0179	998.7	4
298.15	0.0393	1002	4
298.15	0.0655	1005.6	4
298.15	0.0983	1008.6	4
298.15	0.141	1011.5	4
303.15	0.0179	997.1	4
303.15	0.0393	1000	4
303.15	0.0655	1003.1	4
303.15	0.0983	1005.7	4
303.15	0.141	1007.1	4
313.15	0.0179	993.9	4
313.15	0.0393	996.1	4
313.15	0.0655	998.4	4
313.15	0.0983	1000	4
313.15	0.141	1000.2	4
323.15	0.0179	989.2	4
323.15	0.0393	990.8	4
323.15	0.0655	992.4	4
323.15	0.0983	993.4	4
323.15	0.141	994.1	4
333.15	0.0179	984	4
333.15	0.0393	984.4	4
333.15	0.0655	985.4	4
333.15	0.0983	985.9	4
333.15	0.141	985.9	4
343.15	0.0179	977.6	4
343.15	0.0393	978	4
343.15	0.0655	978.6	4
343.15	0.0983	978.6	4
343.15	0.141	978.3	4
353.15	0.0179	971.3	4
353.15	0.0393	971.2	4
353.15	0.0655	971.4	4
353.15	0.0983	971	4
353.15	0.141	970.3	4

System: 1,2,4,5-tetramethylimidazole + water; phases: Liquid, Gas
Property: Vapor or sublimation pressure, kPa (Liquid); method: Ebulliometric method (Recirculating still)
Mole fraction of 1,2,4,5-tetramethylimidazole	Temperature, K	Vapor or sublimation pressure, kPa	uncertainty
0.131	312.98	6.99	0.61
0.0972	313.08	7.19	0.61
0.0794	313.14	7.19	0.61
0.0695	313.15	7.28	0.61
0.0589	313.27	7.38	0.61
0.0428	313.17	7.39	0.61
0.116	333.15	19.18	0.63
0.0907	333.12	19.38	0.63
0.0787	333.14	19.49	0.63
0.07	333.19	19.58	0.69
0.0571	333.22	19.69	0.65
0.042	333.13	19.69	2.01
0.118	353.1	45.38	0.66
0.0914	353.08	45.89	0.96
0.0796	353.08	46.09	0.93
0.0708	353.13	46.29	0.79
0.0574	353.14	46.49	0.68
0.0425	353.15	46.69	3.58
0.111	373.12	97.37	0.81
0.092	373.09	98.17	0.8
0.0799	373.07	98.48	0.78
0.0713	373.12	98.88	0.78
0.0587	373.13	99.28	0.78
0.0437	373.16	99.78	0.78

System: 1,2,4,5-tetramethylimidazole + water; phases: Gas, Liquid
Property: Mole fraction of 1,2,4,5-tetramethylimidazole (Gas); method: titration and chromatography
Mole fraction of 1,2,4,5-tetramethylimidazole	Temperature, K	Mole fraction of 1,2,4,5-tetramethylimidazole	uncertainty
0.131	312.98	0.00014	2e-05
0.0972	313.08	0.00014	2e-05
0.0794	313.14	0.00012	2e-05
0.0695	313.15	0.00014	2e-05
0.0589	313.27	0.00013	2e-05
0.0428	313.17	0.00012	2e-05
0.116	333.15	0.00032	2e-05
0.0907	333.12	0.00031	2e-05
0.0787	333.14	0.00028	3e-05
0.07	333.19	0.00023	2e-05
0.0571	333.22	0.0003	2e-05
0.042	333.13	0.00028	2e-05
0.118	353.1	0.00055	2e-05
0.0914	353.08	0.00054	2e-05
0.0796	353.08	0.00053	2e-05
0.0708	353.13	0.00056	4e-05
0.0574	353.14	0.00043	3e-05
0.0425	353.15	0.00044	3e-05
0.111	373.12	0.00082	3e-05
0.092	373.09	0.00079	2e-05
0.0799	373.07	0.0008	2e-05
0.0713	373.12	0.00079	4e-05
0.0587	373.13	0.00071	3e-05
0.0437	373.16	0.00067	3e-05

System: 1,2,4,5-tetramethylimidazole + water; phases: Liquid
Fixed: Pressure, kPa = 100
Property: Viscosity, Pa*s (Liquid); method: Falling or rolling sphere viscometry
Mole fraction of 1,2,4,5-tetramethylimidazole	Temperature, K	Viscosity, Pa*s	uncertainty
0.0159	298.15	0.001258	5.1e-05
0.035	298.15	0.001817	7.4e-05
0.0585	298.15	0.00265	0.00011
0.0882	298.15	0.00386	0.00016
0.127	298.15	0.00577	0.00025
0.0159	303.15	0.001125	4.6e-05
0.035	303.15	0.00161	6.6e-05
0.0585	303.15	0.00231	9e-05
0.0882	303.15	0.00335	0.00014
0.127	303.15	0.00491	0.00022
0.0159	313.15	0.000899	3.7e-05
0.035	313.15	0.001244	5.1e-05
0.0585	313.15	0.001733	7.1e-05
0.0882	313.15	0.00253	0.0001
0.127	313.15	0.00336	0.00015
0.0159	323.15	0.000756	3.1e-05
0.035	323.15	0.000998	4.1e-05
0.0585	323.15	0.001344	5.5e-05
0.0882	323.15	0.001806	7.3e-05
0.127	323.15	0.00244	0.00011
0.0159	333.15	0.000626	2.6e-05
0.035	333.15	0.000849	3.5e-05
0.0585	333.15	0.001084	4.4e-05
0.0882	333.15	0.001433	5.8e-05
0.127	333.15	0.001843	7.9e-05
0.0159	343.15	0.000541	2.2e-05
0.035	343.15	0.000696	2.8e-05
0.0585	343.15	0.000894	3.6e-05
0.0882	343.15	0.001154	4.7e-05
0.127	343.15	0.001444	6.1e-05
0.0159	353.15	0.000477	1.9e-05
0.035	353.15	0.0006	2.4e-05
0.0585	353.15	0.000755	3.1e-05
0.0882	353.15	0.000946	3.8e-05
0.127	353.15	0.001166	4.9e-05

System: 1,2,4,5-tetramethylimidazole + water; phases: Liquid
Fixed: Pressure, kPa = 100
Property: Mass density, kg/m3 (Liquid); method: Vibrating tube method
Temperature, K	Mole fraction of 1,2,4,5-tetramethylimidazole	Mass density, kg/m3	uncertainty
298.15	0.0159	997.5	4
298.15	0.035	999.6	4
298.15	0.0585	1002.1	4
298.15	0.0882	1004.9	4
298.15	0.127	1007.3	4
303.15	0.0159	995.8	4
303.15	0.035	997.4	4
303.15	0.0585	999.5	4
303.15	0.0882	1001.7	4
303.15	0.127	1003.7	4
313.15	0.0159	991.7	4
313.15	0.035	992.5	4
313.15	0.0585	993.6	4
313.15	0.0882	996.1	4
313.15	0.127	996	4
323.15	0.0159	987.8	4
323.15	0.035	987	4
323.15	0.0585	987.3	4
323.15	0.0882	987.9	4
323.15	0.127	988.1	4
333.15	0.0159	981.8	4
333.15	0.035	981.8	4
333.15	0.0585	980.8	4
333.15	0.0882	980.7	4
333.15	0.127	979.9	4
343.15	0.0159	975.9	4
343.15	0.035	974.6	4
343.15	0.0585	973.6	4
343.15	0.0882	972.8	4
343.15	0.127	971.5	4
353.15	0.0159	969.4	4
353.15	0.035	967.6	4
353.15	0.0585	966	4
353.15	0.0882	964.7	4
353.15	0.127	962.7	4

System: 1H-imidazole + water + carbon dioxide; phases: Liquid
Fixed: Amount ratio of solute to solvent of carbon dioxide = 0.19
Fixed: Pressure, kPa = 100
Fixed: Mass ratio of solute to solvent of water = 2.333
Property: Viscosity, Pa*s (Liquid); method: Falling or rolling sphere viscometry
Temperature, K	Viscosity, Pa*s	uncertainty
298.15	0.00205	8e-05
313.15	0.00135	6e-05

System: 2-methylimidazole + water + carbon dioxide; phases: Liquid
Fixed: Amount ratio of solute to solvent of carbon dioxide = 0.4
Fixed: Pressure, kPa = 100
Fixed: Mass ratio of solute to solvent of water = 2.333
Property: Viscosity, Pa*s (Liquid); method: Falling or rolling sphere viscometry
Temperature, K	Viscosity, Pa*s	uncertainty
298.15	0.00284	0.00012
313.15	0.00192	8e-05

System: 2,4,5-trimethylimidazole + water + carbon dioxide; phases: Liquid
Property: Viscosity, Pa*s (Liquid); method: Falling or rolling sphere viscometry
Amount ratio of solute to solvent of carbon dioxide	Temperature, K	Pressure, kPa	Mass ratio of solute to solvent of water	Viscosity, Pa*s	uncertainty
0.4	313.15	100	2.333	0.00297	0.00012

System: 1,2,4,5-tetramethylimidazole + water + carbon dioxide; phases: Liquid
Fixed: Amount ratio of solute to solvent of carbon dioxide = 0.4
Fixed: Pressure, kPa = 100
Fixed: Mass ratio of solute to solvent of water = 2.333
Property: Viscosity, Pa*s (Liquid); method: Falling or rolling sphere viscometry
Temperature, K	Viscosity, Pa*s	uncertainty
298.15	0.00385	0.00016
313.15	0.00247	0.0001

System: 2-aminoethan-1-ol + water; phases: Liquid
Fixed: Mass fraction of 2-aminoethan-1-ol = 0.3
Fixed: Pressure, kPa = 100
Property: Viscosity, Pa*s (Liquid); method: Falling or rolling sphere viscometry
Temperature, K	Viscosity, Pa*s	uncertainty
298.14	0.002464	0.0001
298.15	0.002467	0.0001
313.15	0.001645	6.7e-05
313.15	0.001646	6.7e-05
333.14	0.001072	8.6e-05
333.15	0.001074	8.6e-05
353.14	0.000758	6.1e-05
353.15	0.000758	6.1e-05

System: N-methyldiethanolamine + water; phases: Liquid
Fixed: Mass fraction of N-methyldiethanolamine = 0.5
Fixed: Pressure, kPa = 100
Property: Viscosity, Pa*s (Liquid); method: Falling or rolling sphere viscometry
Temperature, K	Viscosity, Pa*s	uncertainty
298.15	0.009324	0.00038
298.15	0.00932	0.000379
313.15	0.00519	0.000211
313.15	0.005193	0.000211
343.14	0.002111	0.00017
343.15	0.002106	0.000169
353.15	0.001658	0.000133
353.15	0.001658	0.000133
