Measured thermophysical data. Vapor Pressure Measurement and Isobaric Vapor-Liquid Equilibria for Binary Mixtures with ZE-2-Methyl-2-butenenitrile and 2-Methyl-3-butenonitrile
Source: J. Chem. Eng. Data, 2016, 10.1021/acs.jced.5b00943
Compound 1: 2-methyl-3-butenenitrile, C5H7N, InChI=1S/C5H7N/c1-3-5(2)4-6/h3,5H,1H2,2H3, purity 91.63%

System: 2-methyl-3-butenenitrile; phases: Liquid, Gas
Property: Vapor or sublimation pressure, kPa (Liquid); method: Ebulliometric method (Recirculating still)
Temperature, K	Vapor or sublimation pressure, kPa	uncertainty
297.57	2.701	0.055
304.35	3.664	0.074
309.86	4.608	0.093
315.95	6.064	0.122
318.68	6.731	0.135
321.34	7.521	0.151
324.85	8.987	0.18
327.15	9.9	0.198
331.76	11.747	0.235
335.25	13.48	0.27
339.53	15.747	0.315
343.65	18.68	0.374
352.65	25.346	0.507
356.05	29.212	0.585
359.56	33.212	0.665
364.85	38.545	0.772
369.25	44.678	0.894
373.25	50.01	1.001
376.09	55.477	1.111
379.75	62.676	1.255
382.83	68.942	1.38
387.65	79.228	1.586
391.95	90.16	1.805
394.25	95.76	1.917
