Measured thermophysical data. Measurements and Correlation of Water Activity in Aqueous Solutions Containing Diphenhydramine-Hydrochloride Drug, (D+)-Galactose, (D-)-Fructose, (D+)-Lactose, and Sucrose at 298.15 K
Source: J. Chem. Eng. Data, 2019, 10.1021/acs.jced.9b00694
Compound 1: 2-diphenylmethoxy-N,N-dimethylethanamine hydrochloride, C17H22ClNO, InChI=1S/C17H21NO.ClH/c1-18(2)13-14-19-17(15-9-5-3-6-10-15)16-11-7-4-8-12-16;/h3-12,17H,13-14H2,1-2H3;1H, purity 99.4%
Compound 2: D-fructose, C6H12O6, InChI=1S/C6H12O6/c7-1-3(9)5(11)6(12)4(10)2-8/h3,5-9,11-12H,1-2H2/t3-,5-,6-/m1/s1, purity 99%
Compound 3: (+)-galactose, C6H12O6, InChI=1S/C6H12O6/c7-1-3(9)5(11)6(12)4(10)2-8/h1,3-6,8-12H,2H2/t3-,4+,5+,6-/m0/s1, purity 97%
Compound 4: 4-O-.beta.-D-galactopyranosyl-D-glucose, C12H22O11, InChI=1S/C12H22O11/c13-1-4(16)7(18)11(5(17)2-14)23-12-10(21)9(20)8(19)6(3-15)22-12/h1,4-12,14-21H,2-3H2/t4-,5+,6+,7+,8-,9-,10+,11+,12-/m0/s1, purity 99%
Compound 5: D-sucrose, C12H22O11, InChI=1S/C12H22O11/c13-1-4-6(16)8(18)9(19)11(21-4)23-12(3-15)10(20)7(17)5(2-14)22-12/h4-11,13-20H,1-3H2/t4-,5-,6-,7-,8+,9-,10+,11-,12+/m1/s1, purity 99%
Compound 6: water, H2O, InChI=1S/H2O/h1H2, purity 99.9%

System: 2-diphenylmethoxy-N,N-dimethylethanamine hydrochloride + (+)-galactose + water; phases: Liquid, Gas
Fixed: Temperature, K = 298.15
Property: (Relative) activity of water (Liquid); method: ISOPIE
Molality, mol/kg of 2-diphenylmethoxy-N,N-dimethylethanamine hydrochloride	Molality, mol/kg of (+)-galactose	(Relative) activity of water	uncertainty
4.8306	0	0.9206	0.0388
1.9385	1.1896	0.9206	0.0387
0.5977	1.6789	0.9206	0.0388
0	1.88	0.9206	0.0388
3.5073	0	0.942	0.0387
1.4334	0.8923	0.942	0.0387
0.4733	1.3178	0.942	0.0388
0	1.472	0.942	0.0388
3.0572	0	0.9504	0.0387
1.2958	0.8067	0.9504	0.0387
0.433	1.2015	0.9504	0.0388
0	1.3403	0.9504	0.0388
2.536	0	0.9594	0.0387
1.061	0.7128	0.9594	0.0387
0.3869	1.0842	0.9594	0.0388
0	1.2168	0.9594	0.0388
2.1552	0	0.9653	0.0387
0.9579	0.6632	0.9653	0.0387
0.3549	0.9807	0.9653	0.0387
0	1.1144	0.9653	0.0388
1.9109	0	0.9699	0.0387
0.8337	0.6222	0.9699	0.0387
0.3199	0.9423	0.9699	0.0387
0	1.051	0.9699	0.0387
1.7473	0	0.9731	0.0387
0.7369	0.5833	0.9731	0.0387
0.2877	0.8267	0.9731	0.0387
0	0.9765	0.9731	0.0387
1.635	0	0.9752	0.0387
0.6759	0.5528	0.9752	0.0387
0.263	0.7743	0.9752	0.0387
0	0.927	0.9752	0.0387
1.4243	0	0.9798	0.0387
0.5596	0.51	0.9798	0.0387
0.2032	0.6774	0.9798	0.0387
0	0.7908	0.9798	0.0387

System: 2-diphenylmethoxy-N,N-dimethylethanamine hydrochloride + D-fructose + water; phases: Liquid, Gas
Fixed: Temperature, K = 298.15
Property: (Relative) activity of water (Liquid); method: ISOPIE
Molality, mol/kg of 2-diphenylmethoxy-N,N-dimethylethanamine hydrochloride	Molality, mol/kg of D-fructose	(Relative) activity of water	uncertainty
1.1736	0	0.978	0.0387
0.4785	0.6951	0.978	0.0387
0.3233	0.8433	0.978	0.0387
0	1.1864	0.978	0.0387
1.2649	0	0.977	0.0387
0.5175	0.7265	0.977	0.0387
0.333	0.8876	0.977	0.0387
0	1.24	0.977	0.0387
1.4113	0	0.9758	0.0387
0.5708	0.7476	0.9758	0.0387
0.368	0.9413	0.9758	0.0387
0	1.3062	0.9758	0.0387
1.578	0	0.9732	0.0387
0.6395	0.8391	0.9732	0.0387
0.4085	1.0587	0.9732	0.0387
0	1.448	0.9732	0.0387
1.9018	0	0.9692	0.0387
0.7679	0.9795	0.9692	0.0387
0.4578	1.2443	0.9692	0.0387
0	1.6617	0.9692	0.0387
2.1371	0	0.9661	0.0387
0.8692	1.0638	0.9661	0.0387
0.4913	1.3649	0.9661	0.0387
0	1.8207	0.9661	0.0387
2.9737	0	0.9549	0.0387
1.1445	1.4653	0.9549	0.0387
0.6819	1.8477	0.9549	0.0387
0	2.429	0.9549	0.0387
3.8488	0	0.9418	0.0387
1.4638	1.9287	0.9418	0.0387
0.934	2.327	0.9418	0.0387
0	3.129	0.9418	0.0387

System: 2-diphenylmethoxy-N,N-dimethylethanamine hydrochloride + 4-O-.beta.-D-galactopyranosyl-D-glucose + water; phases: Liquid, Gas
Fixed: Temperature, K = 298.15
Property: (Relative) activity of water (Liquid); method: ISOPIE
Molality, mol/kg of 2-diphenylmethoxy-N,N-dimethylethanamine hydrochloride	Molality, mol/kg of 4-O-.beta.-D-galactopyranosyl-D-glucose	(Relative) activity of water	uncertainty
0.0325	0	0.9984	0.0387
0.0303	0.0205	0.9984	0.0387
0.0202	0.0369	0.9984	0.0387
0	0.0866	0.9984	0.0387
0.0614	0	0.998	0.0387
0.0464	0.0341	0.998	0.0387
0.0296	0.0549	0.998	0.0387
0	0.1072	0.998	0.0387
0.0973	0	0.9974	0.0387
0.0614	0.0536	0.9974	0.0387
0.0445	0.0734	0.9974	0.0387
0	0.1386	0.9974	0.0387
0.1113	0	0.9969	0.0387
0.0756	0.0697	0.9969	0.0387
0.0568	0.0937	0.9969	0.0387
0	0.1648	0.9969	0.0387
0.1826	0	0.9964	0.0387
0.0984	0.0894	0.9964	0.0387
0.0752	0.1128	0.9964	0.0387
0	0.1931	0.9964	0.0387
0.329	0	0.9947	0.0387
0.1796	0.1291	0.9947	0.0387
0.1137	0.1913	0.9947	0.0387
0	0.2836	0.9947	0.0387
0.4409	0	0.9933	0.0387
0.2289	0.1692	0.9933	0.0387
0.1417	0.2307	0.9933	0.0387
0	0.3478	0.9933	0.0387
0.5976	0	0.9921	0.0387
0.2766	0.2206	0.9921	0.0387
0.1707	0.293	0.9921	0.0387
0	0.4109	0.9921	0.0387
0.7918	0	0.9902	0.0387
0.3599	0.2819	0.9902	0.0387
0.1996	0.3809	0.9902	0.0387
0	0.5051	0.9902	0.0387

System: 2-diphenylmethoxy-N,N-dimethylethanamine hydrochloride + D-sucrose + water; phases: Liquid, Gas
Fixed: Temperature, K = 298.15
Property: (Relative) activity of water (Liquid); method: ISOPIE
Molality, mol/kg of 2-diphenylmethoxy-N,N-dimethylethanamine hydrochloride	Molality, mol/kg of D-sucrose	(Relative) activity of water	uncertainty
3.7258	0	0.9464	0.0387
1.845	1.2128	0.9464	0.0387
0.9128	1.7846	0.9464	0.0387
0	2.3538	0.9464	0.0388
3.0536	0	0.9538	0.0387
1.4158	1.0921	0.9538	0.0387
0.7315	1.5624	0.9538	0.0387
0	2.0845	0.9538	0.0387
2.8425	0	0.9579	0.0387
1.3455	1.0184	0.9579	0.0387
0.6425	1.4699	0.9579	0.0388
0	1.9138	0.9579	0.0387
2.4958	0	0.9658	0.0387
1.1621	0.9111	0.9658	0.0387
0.5563	1.3232	0.9658	0.0387
0	1.7077	0.9658	0.0387
2.2561	0	0.9687	0.0387
1.0623	0.8242	0.9687	0.0387
0.4558	1.2032	0.9687	0.0387
0	1.5124	0.9687	0.0387
2.0083	0	0.9738	0.0387
0.9188	0.6685	0.9738	0.0387
0.3527	1.0678	0.9738	0.0387
0	1.331	0.9738	0.0387
1.4147	0	0.9817	0.0387
0.6165	0.4692	0.9817	0.0387
0.1482	0.8278	0.9817	0.0387
0	0.9059	0.9817	0.0387
1.2578	0	0.9839	0.0387
0.5272	0.4153	0.9839	0.0387
0.1091	0.7363	0.9839	0.0387
0	0.8346	0.9839	0.0387

System: 2-diphenylmethoxy-N,N-dimethylethanamine hydrochloride + water; phases: Liquid, Gas
Fixed: Temperature, K = 298.15
Property: (Relative) activity of water (Liquid); method: ISOPIE
Molality, mol/kg of 2-diphenylmethoxy-N,N-dimethylethanamine hydrochloride	(Relative) activity of water	uncertainty
4.8306	0.9206	0.0388
3.5073	0.942	0.0387
3.0572	0.9504	0.0389
2.536	0.9594	0.0396
2.1552	0.9653	0.0388
1.9109	0.9699	0.0388
1.7473	0.9731	0.0387
1.635	0.9752	0.0387
1.4243	0.9798	0.0397
1.1736	0.978	0.0388
1.2649	0.977	0.0459
1.4113	0.9758	0.0397
1.578	0.9732	0.0387
1.9018	0.9692	0.0388
2.1371	0.9661	0.0388
2.9737	0.9549	0.0387
3.8488	0.9418	0.0388
0.0325	0.9984	0.0387
0.0614	0.998	0.0387
0.0973	0.9974	0.0387
0.1113	0.9969	0.0387
0.1826	0.9964	0.0387
0.329	0.9947	0.0387
0.4409	0.9933	0.0387
0.5976	0.9921	0.0387
0.7918	0.9902	0.0387
3.7258	0.9464	0.0387
3.0536	0.9538	0.0387
2.8425	0.9579	0.0387
2.4958	0.9658	0.0395
2.2561	0.9687	0.0387
2.0083	0.9738	0.0387
1.4147	0.9817	0.0391
1.2578	0.9839	0.0458

System: (+)-galactose + water; phases: Liquid, Gas
Fixed: Temperature, K = 298.15
Property: (Relative) activity of water (Liquid); method: ISOPIE
Molality, mol/kg of (+)-galactose	(Relative) activity of water	uncertainty
1.88	0.9206	0.0388
1.472	0.942	0.0388
1.3403	0.9504	0.0388
1.2168	0.9594	0.0388
1.1144	0.9653	0.0388
1.051	0.9699	0.0387
0.9765	0.9731	0.0387
0.927	0.9752	0.0387
0.7908	0.9798	0.0387

System: D-fructose + water; phases: Liquid, Gas
Fixed: Temperature, K = 298.15
Property: (Relative) activity of water (Liquid); method: ISOPIE
Molality, mol/kg of D-fructose	(Relative) activity of water	uncertainty
1.1864	0.978	0.0387
1.24	0.977	0.0387
1.3062	0.9758	0.0387
1.448	0.9732	0.0387
1.6617	0.9692	0.0387
1.8207	0.9661	0.0387
2.429	0.9549	0.0387
3.129	0.9418	0.0387

System: 4-O-.beta.-D-galactopyranosyl-D-glucose + water; phases: Liquid, Gas
Fixed: Temperature, K = 298.15
Property: (Relative) activity of water (Liquid); method: ISOPIE
Molality, mol/kg of 4-O-.beta.-D-galactopyranosyl-D-glucose	(Relative) activity of water	uncertainty
0.0866	0.9984	0.0387
0.1072	0.998	0.0387
0.1386	0.9974	0.0387
0.1648	0.9969	0.0387
0.1931	0.9964	0.0387
0.2836	0.9947	0.0387
0.3478	0.9933	0.0387
0.4109	0.9921	0.0387
0.5051	0.9902	0.0387

System: D-sucrose + water; phases: Liquid, Gas
Fixed: Temperature, K = 298.15
Property: (Relative) activity of water (Liquid); method: ISOPIE
Molality, mol/kg of D-sucrose	(Relative) activity of water	uncertainty
2.3538	0.9464	0.0388
2.0845	0.9538	0.0387
1.9138	0.9579	0.0387
1.7077	0.9658	0.0387
1.5124	0.9687	0.0387
1.331	0.9738	0.0387
0.9059	0.9817	0.0387
0.8346	0.9839	0.0387
