Measured thermophysical data. Determination and Modeling of Solubility of 4-Aminobenzamide in Different Pure Solvents
Source: J. Chem. Eng. Data, 2019, 10.1021/acs.jced.8b01144
Compound 1: 4-aminobenzamide, C7H8N2O, InChI=1S/C7H8N2O/c8-6-3-1-5(2-4-6)7(9)10/h1-4H,8H2,(H2,9,10), purity 99.5%
Compound 2: ethanol, C2H6O, InChI=1S/C2H6O/c1-2-3/h3H,2H2,1H3, purity 99.5%
Compound 3: methanol, CH4O, InChI=1S/CH4O/c1-2/h2H,1H3, purity 99.5%
Compound 4: propan-1-ol, C3H8O, InChI=1S/C3H8O/c1-2-3-4/h4H,2-3H2,1H3, purity 99.5%
Compound 5: propan-2-ol, C3H8O, InChI=1S/C3H8O/c1-3(2)4/h3-4H,1-2H3, purity 99.5%
Compound 6: butan-1-ol, C4H10O, InChI=1S/C4H10O/c1-2-3-4-5/h5H,2-4H2,1H3, purity 99.5%
Compound 7: acetone, C3H6O, InChI=1S/C3H6O/c1-3(2)4/h1-2H3, purity 99.5%
Compound 8: ethyl acetate, C4H8O2, InChI=1S/C4H8O2/c1-3-6-4(2)5/h3H2,1-2H3, purity 99.5%
Compound 9: methyl ethanoate, C3H6O2, InChI=1S/C3H6O2/c1-3(4)5-2/h1-2H3, purity 99.5%
Compound 10: 2-methyl-1-propanol, C4H10O, InChI=1S/C4H10O/c1-4(2)3-5/h4-5H,3H2,1-2H3, purity 99.5%
Compound 11: butyl ethanoate, C6H12O2, InChI=1S/C6H12O2/c1-3-4-5-8-6(2)7/h3-5H2,1-2H3, purity 99.5%
Compound 12: acetonitrile, C2H3N, InChI=1S/C2H3N/c1-2-3/h1H3, purity 99.5%
Compound 13: water, H2O, InChI=1S/H2O/h1H2, purity 99.9%

System: 4-aminobenzamide; phases: Crystal, Liquid, Air at 1 atmosphere
Property: Triple point temperature, K (Crystal); method: DSC
Triple point temperature, K	uncertainty
453.4	1.2

System: 4-aminobenzamide + water; phases: Liquid, Crystal
Fixed: Pressure, kPa = 100
Property: Mole fraction of 4-aminobenzamide (Liquid); method: gravimetric
Temperature, K	Mole fraction of 4-aminobenzamide	uncertainty
283.15	0.0008584	0.0001717
288.15	0.0009831	0.0001967
293.15	0.001179	0.000236
298.15	0.001464	0.000293
303.15	0.001837	0.000368
308.15	0.002285	0.000457
313.15	0.002815	0.000563
318.15	0.003635	0.000727
323.15	0.004493	0.000899

System: 4-aminobenzamide + ethanol; phases: Liquid, Crystal
Fixed: Pressure, kPa = 100
Property: Mole fraction of 4-aminobenzamide (Liquid); method: gravimetric
Temperature, K	Mole fraction of 4-aminobenzamide	uncertainty
283.15	0.006212	0.001242
288.15	0.006486	0.001297
293.15	0.006969	0.001394
298.15	0.007771	0.001554
303.15	0.008833	0.001767
308.15	0.01041	0.00208
313.15	0.01211	0.00242
318.15	0.01407	0.00281
323.15	0.01603	0.00321

System: 4-aminobenzamide + methanol; phases: Liquid, Crystal
Fixed: Pressure, kPa = 100
Property: Mole fraction of 4-aminobenzamide (Liquid); method: gravimetric
Temperature, K	Mole fraction of 4-aminobenzamide	uncertainty
283.15	0.01209	0.00242
288.15	0.01318	0.00264
293.15	0.01451	0.0029
298.15	0.01629	0.00326
303.15	0.01879	0.00376
308.15	0.02137	0.00427
313.15	0.02465	0.00493
318.15	0.02866	0.00573
323.15	0.03284	0.00657

System: 4-aminobenzamide + propan-1-ol; phases: Liquid, Crystal
Fixed: Pressure, kPa = 100
Property: Mole fraction of 4-aminobenzamide (Liquid); method: gravimetric
Temperature, K	Mole fraction of 4-aminobenzamide	uncertainty
283.15	0.004011	0.000802
288.15	0.004109	0.000822
293.15	0.004398	0.00088
298.15	0.004964	0.000993
303.15	0.005851	0.00117
308.15	0.007106	0.001422
313.15	0.008394	0.001679
318.15	0.01005	0.00201
323.15	0.01168	0.00234

System: 4-aminobenzamide + propan-2-ol; phases: Liquid, Crystal
Fixed: Pressure, kPa = 100
Property: Mole fraction of 4-aminobenzamide (Liquid); method: gravimetric
Temperature, K	Mole fraction of 4-aminobenzamide	uncertainty
283.15	0.003315	0.000663
288.15	0.003539	0.000708
293.15	0.003929	0.000786
298.15	0.004307	0.000861
303.15	0.004867	0.000974
308.15	0.005774	0.001155
313.15	0.006775	0.001355
318.15	0.008187	0.001638
323.15	0.009654	0.001931

System: 4-aminobenzamide + butan-1-ol; phases: Liquid, Crystal
Fixed: Pressure, kPa = 100
Property: Mole fraction of 4-aminobenzamide (Liquid); method: gravimetric
Temperature, K	Mole fraction of 4-aminobenzamide	uncertainty
283.15	0.002571	0.000514
288.15	0.002737	0.000547
293.15	0.002919	0.000584
298.15	0.003129	0.000626
303.15	0.003447	0.000689
308.15	0.003746	0.000749
313.15	0.004206	0.000841
318.15	0.004676	0.000935
323.15	0.005141	0.001028

System: 4-aminobenzamide + 2-methyl-1-propanol; phases: Liquid, Crystal
Fixed: Pressure, kPa = 100
Property: Mole fraction of 4-aminobenzamide (Liquid); method: gravimetric
Temperature, K	Mole fraction of 4-aminobenzamide	uncertainty
283.15	0.002388	0.000478
288.15	0.002492	0.000498
293.15	0.002629	0.000526
298.15	0.002799	0.00056
303.15	0.003089	0.000618
308.15	0.003415	0.000683
313.15	0.003843	0.000769
318.15	0.004225	0.000845
323.15	0.004673	0.000935

System: 4-aminobenzamide + butyl ethanoate; phases: Liquid, Crystal
Fixed: Pressure, kPa = 100
Property: Mole fraction of 4-aminobenzamide (Liquid); method: gravimetric
Temperature, K	Mole fraction of 4-aminobenzamide	uncertainty
283.15	0.000749	0.0001498
288.15	0.0008188	0.0001638
293.15	0.0009738	0.0001948
298.15	0.001208	0.000242
303.15	0.001517	0.000303
308.15	0.001857	0.000372
313.15	0.002292	0.000459
318.15	0.002753	0.000551
323.15	0.003306	0.000661

System: 4-aminobenzamide + acetonitrile; phases: Liquid, Crystal
Fixed: Pressure, kPa = 100
Property: Mole fraction of 4-aminobenzamide (Liquid); method: gravimetric
Temperature, K	Mole fraction of 4-aminobenzamide	uncertainty
283.15	0.001933	0.000387
288.15	0.002037	0.000407
293.15	0.002247	0.000449
298.15	0.002506	0.000501
303.15	0.002982	0.000597
308.15	0.003599	0.00072
313.15	0.004472	0.000895
318.15	0.00546	0.001092
323.15	0.006608	0.001322

System: 4-aminobenzamide + acetone; phases: Liquid, Crystal
Fixed: Pressure, kPa = 100
Property: Mole fraction of 4-aminobenzamide (Liquid); method: gravimetric
Temperature, K	Mole fraction of 4-aminobenzamide	uncertainty
283.15	0.007454	0.001491
288.15	0.007948	0.00159
293.15	0.008604	0.001721
298.15	0.009559	0.001912
303.15	0.0105	0.0021
308.15	0.01184	0.00237
313.15	0.01369	0.00274
318.15	0.01541	0.00308
323.15	0.01762	0.00352

System: 4-aminobenzamide + ethyl acetate; phases: Liquid, Crystal
Fixed: Pressure, kPa = 100
Property: Mole fraction of 4-aminobenzamide (Liquid); method: gravimetric
Temperature, K	Mole fraction of 4-aminobenzamide	uncertainty
283.15	0.0005393	0.0001079
288.15	0.0006055	0.0001211
293.15	0.0006971	0.0001394
298.15	0.0008449	0.000169
303.15	0.001032	0.000206
308.15	0.001311	0.000262
313.15	0.001661	0.000332
318.15	0.002068	0.000414
323.15	0.002569	0.000514

System: 4-aminobenzamide + methyl ethanoate; phases: Liquid, Crystal
Fixed: Pressure, kPa = 100
Property: Mole fraction of 4-aminobenzamide (Liquid); method: gravimetric
Temperature, K	Mole fraction of 4-aminobenzamide	uncertainty
283.15	0.001467	0.000293
288.15	0.001545	0.000309
293.15	0.001702	0.00034
298.15	0.001935	0.000387
303.15	0.002174	0.000435
308.15	0.00247	0.000494
313.15	0.002744	0.000549
318.15	0.003113	0.000623
323.15	0.003475	0.000695
