Measured thermophysical data. Determination of Activity Coefficients at Infinite Dilution of Organic Solutes in the Ionic Liquid 1-(2-Hydroxyethyl)-3-methylimidazolium Nonafluoro-1-butanesulfonate Using Gas-Liquid Chromatography
Source: J. Chem. Eng. Data, 2018, 10.1021/acs.jced.8b00080
Compound 1: 1-(2-hydroxyethyl)-3-methylimidazolium nonafluoro-1-butanesulfonate, C10H11F9N2O4S, InChI=1S/C6H11N2O.C4HF9O3S/c1-7-2-3-8(6-7)4-5-9;5-1(6,3(9,10)11)2(7,8)4(12,13)17(14,15)16/h2-3,6,9H,4-5H2,1H3;(H,14,15,16)/q+1;/p-1
Compound 2: pentane, C5H12, InChI=1S/C5H12/c1-3-5-4-2/h3-5H2,1-2H3
Compound 3: hexane, C6H14, InChI=1S/C6H14/c1-3-5-6-4-2/h3-6H2,1-2H3
Compound 4: heptane, C7H16, InChI=1S/C7H16/c1-3-5-7-6-4-2/h3-7H2,1-2H3
Compound 5: octane, C8H18, InChI=1S/C8H18/c1-3-5-7-8-6-4-2/h3-8H2,1-2H3
Compound 6: nonane, C9H20, InChI=1S/C9H20/c1-3-5-7-9-8-6-4-2/h3-9H2,1-2H3
Compound 7: cyclohexane, C6H12, InChI=1S/C6H12/c1-2-4-6-5-3-1/h1-6H2
Compound 8: methylcyclohexane, C7H14, InChI=1S/C7H14/c1-7-5-3-2-4-6-7/h7H,2-6H2,1H3
Compound 9: hex-1-ene, C6H12, InChI=1S/C6H12/c1-3-5-6-4-2/h3H,1,4-6H2,2H3
Compound 10: oct-1-ene, C8H16, InChI=1S/C8H16/c1-3-5-7-8-6-4-2/h3H,1,4-8H2,2H3
Compound 11: 1-decene, C10H20, InChI=1S/C10H20/c1-3-5-7-9-10-8-6-4-2/h3H,1,4-10H2,2H3
Compound 12: 1-pentyne, C5H8, InChI=1S/C5H8/c1-3-5-4-2/h1H,4-5H2,2H3
Compound 13: 1-hexyne, C6H10, InChI=1S/C6H10/c1-3-5-6-4-2/h1H,4-6H2,2H3
Compound 14: 1-heptyne, C7H12, InChI=1S/C7H12/c1-3-5-7-6-4-2/h1H,4-7H2,2H3
Compound 15: 1-octyne, C8H14, InChI=1S/C8H14/c1-3-5-7-8-6-4-2/h1H,4-8H2,2H3
Compound 16: benzene, C6H6, InChI=1S/C6H6/c1-2-4-6-5-3-1/h1-6H
Compound 17: toluene, C7H8, InChI=1S/C7H8/c1-7-5-3-2-4-6-7/h2-6H,1H3
Compound 18: ethylbenzene, C8H10, InChI=1S/C8H10/c1-2-8-6-4-3-5-7-8/h3-7H,2H2,1H3
Compound 19: 1,2-dimethylbenzene, C8H10, InChI=1S/C8H10/c1-7-5-3-4-6-8(7)2/h3-6H,1-2H3
Compound 20: 1,3-dimethylbenzene, C8H10, InChI=1S/C8H10/c1-7-4-3-5-8(2)6-7/h3-6H,1-2H3
Compound 21: 1,4-dimethylbenzene, C8H10, InChI=1S/C8H10/c1-7-3-5-8(2)6-4-7/h3-6H,1-2H3
Compound 22: methanol, CH4O, InChI=1S/CH4O/c1-2/h2H,1H3
Compound 23: ethanol, C2H6O, InChI=1S/C2H6O/c1-2-3/h3H,2H2,1H3
Compound 24: propan-1-ol, C3H8O, InChI=1S/C3H8O/c1-2-3-4/h4H,2-3H2,1H3
Compound 25: 1,4-dioxane, C4H8O2, InChI=1S/C4H8O2/c1-2-6-4-3-5-1/h1-4H2
Compound 26: acetonitrile, C2H3N, InChI=1S/C2H3N/c1-2-3/h1H3
Compound 27: acetone, C3H6O, InChI=1S/C3H6O/c1-3(2)4/h1-2H3
Compound 28: tetrahydrofuran, C4H8O, InChI=1S/C4H8O/c1-2-4-5-3-1/h1-4H2
Compound 29: trichloromethane, CHCl3, InChI=1S/CHCl3/c2-1(3)4/h1H
Compound 30: dichloromethane, CH2Cl2, InChI=1S/CH2Cl2/c2-1-3/h1H2

System: 1-(2-hydroxyethyl)-3-methylimidazolium nonafluoro-1-butanesulfonate + pentane; phases: Liquid
Fixed: Mole fraction of pentane = 0
Fixed: Pressure, kPa = 101.325
Property: Activity coefficient of pentane (Liquid); method: Chromatography
Temperature, K	Activity coefficient of pentane	uncertainty
303	9.38	0.34
313	6.94	0.25
323	5.46	0.2
333	4.34	0.16
343	3.39	0.14
353	2.75	0.12

System: 1-(2-hydroxyethyl)-3-methylimidazolium nonafluoro-1-butanesulfonate + hexane; phases: Liquid
Fixed: Mole fraction of hexane = 0
Fixed: Pressure, kPa = 101.325
Property: Activity coefficient of hexane (Liquid); method: Chromatography
Temperature, K	Activity coefficient of hexane	uncertainty
303	23.53	0.85
313	17.67	0.64
323	13.71	0.49
333	10.61	0.38
343	8	0.29
353	6.31	0.23

System: 1-(2-hydroxyethyl)-3-methylimidazolium nonafluoro-1-butanesulfonate + heptane; phases: Liquid
Fixed: Mole fraction of heptane = 0
Fixed: Pressure, kPa = 101.325
Property: Activity coefficient of heptane (Liquid); method: Chromatography
Temperature, K	Activity coefficient of heptane	uncertainty
303	53.01	1.93
313	39.68	1.45
323	30.88	1.12
333	23.62	0.86
343	18.03	0.65
353	13.93	0.5

System: 1-(2-hydroxyethyl)-3-methylimidazolium nonafluoro-1-butanesulfonate + octane; phases: Liquid
Fixed: Mole fraction of octane = 0
Fixed: Pressure, kPa = 101.325
Property: Activity coefficient of octane (Liquid); method: Chromatography
Temperature, K	Activity coefficient of octane	uncertainty
303	98.96	3.63
313	75.84	2.78
323	61.19	2.23
333	47.31	1.72
343	37.15	1.35
353	28.44	1.04

System: 1-(2-hydroxyethyl)-3-methylimidazolium nonafluoro-1-butanesulfonate + nonane; phases: Liquid
Fixed: Mole fraction of nonane = 0
Fixed: Pressure, kPa = 101.325
Property: Activity coefficient of nonane (Liquid); method: Chromatography
Temperature, K	Activity coefficient of nonane	uncertainty
303	156.76	5.74
313	131.62	4.83
323	104.69	3.83
333	88.02	3.21
343	70.96	2.59
353	54.11	1.98

System: 1-(2-hydroxyethyl)-3-methylimidazolium nonafluoro-1-butanesulfonate + cyclohexane; phases: Liquid
Fixed: Mole fraction of cyclohexane = 0
Fixed: Pressure, kPa = 101.325
Property: Activity coefficient of cyclohexane (Liquid); method: Chromatography
Temperature, K	Activity coefficient of cyclohexane	uncertainty
303	24.28	0.88
313	19.15	0.69
323	15.2	0.55
333	11.72	0.42
343	9.39	0.34
353	7.54	0.27

System: 1-(2-hydroxyethyl)-3-methylimidazolium nonafluoro-1-butanesulfonate + methylcyclohexane; phases: Liquid
Fixed: Mole fraction of methylcyclohexane = 0
Fixed: Pressure, kPa = 101.325
Property: Activity coefficient of methylcyclohexane (Liquid); method: Chromatography
Temperature, K	Activity coefficient of methylcyclohexane	uncertainty
303	38.08	1.38
313	29.74	1.08
323	24.27	0.88
333	19.02	0.69
343	15.22	0.55
353	12.33	0.44

System: 1-(2-hydroxyethyl)-3-methylimidazolium nonafluoro-1-butanesulfonate + hex-1-ene; phases: Liquid
Fixed: Mole fraction of hex-1-ene = 0
Fixed: Pressure, kPa = 101.325
Property: Activity coefficient of hex-1-ene (Liquid); method: Chromatography
Temperature, K	Activity coefficient of hex-1-ene	uncertainty
303	15.74	0.57
313	12.41	0.45
323	9.71	0.35
333	7.62	0.27
343	6.07	0.22
353	4.97	0.18

System: 1-(2-hydroxyethyl)-3-methylimidazolium nonafluoro-1-butanesulfonate + oct-1-ene; phases: Liquid
Fixed: Mole fraction of oct-1-ene = 0
Fixed: Pressure, kPa = 101.325
Property: Activity coefficient of oct-1-ene (Liquid); method: Chromatography
Temperature, K	Activity coefficient of oct-1-ene	uncertainty
303	53.89	1.96
313	45.18	1.64
323	36.62	1.33
333	29.53	1.07
343	24.29	0.88
353	19.93	0.72

System: 1-(2-hydroxyethyl)-3-methylimidazolium nonafluoro-1-butanesulfonate + 1-decene; phases: Liquid
Fixed: Mole fraction of 1-decene = 0
Fixed: Pressure, kPa = 101.325
Property: Activity coefficient of 1-decene (Liquid); method: Chromatography
Temperature, K	Activity coefficient of 1-decene	uncertainty
303	122.1	4.46
313	106.91	3.9
323	91.55	3.34
333	79.61	2.9
343	67.69	2.46
353	59.25	2.15

System: 1-(2-hydroxyethyl)-3-methylimidazolium nonafluoro-1-butanesulfonate + 1-pentyne; phases: Liquid
Fixed: Mole fraction of 1-pentyne = 0
Fixed: Pressure, kPa = 101.325
Property: Activity coefficient of 1-pentyne (Liquid); method: Chromatography
Temperature, K	Activity coefficient of 1-pentyne	uncertainty
303	5.99	0.21
313	5.07	0.18
323	4.21	0.16
333	3.68	0.14
343	3.11	0.13
353	2.59	0.12

System: 1-(2-hydroxyethyl)-3-methylimidazolium nonafluoro-1-butanesulfonate + 1-hexyne; phases: Liquid
Fixed: Mole fraction of 1-hexyne = 0
Fixed: Pressure, kPa = 101.325
Property: Activity coefficient of 1-hexyne (Liquid); method: Chromatography
Temperature, K	Activity coefficient of 1-hexyne	uncertainty
303	10.38	0.37
313	9.24	0.33
323	7.92	0.28
333	6.97	0.25
343	6.03	0.21
353	5.18	0.19

System: 1-(2-hydroxyethyl)-3-methylimidazolium nonafluoro-1-butanesulfonate + 1-heptyne; phases: Liquid
Fixed: Mole fraction of 1-heptyne = 0
Fixed: Pressure, kPa = 101.325
Property: Activity coefficient of 1-heptyne (Liquid); method: Chromatography
Temperature, K	Activity coefficient of 1-heptyne	uncertainty
303	16.74	0.6
313	15.07	0.54
323	13.36	0.48
333	11.93	0.43
343	10.44	0.37
353	9.29	0.33

System: 1-(2-hydroxyethyl)-3-methylimidazolium nonafluoro-1-butanesulfonate + 1-octyne; phases: Liquid
Fixed: Mole fraction of 1-octyne = 0
Fixed: Pressure, kPa = 101.325
Property: Activity coefficient of 1-octyne (Liquid); method: Chromatography
Temperature, K	Activity coefficient of 1-octyne	uncertainty
303	26.23	0.94
313	23.76	0.85
323	21.16	0.76
333	19.15	0.69
343	16.88	0.61
353	14.77	0.53

System: 1-(2-hydroxyethyl)-3-methylimidazolium nonafluoro-1-butanesulfonate + benzene; phases: Liquid
Fixed: Mole fraction of benzene = 0
Fixed: Pressure, kPa = 101.325
Property: Activity coefficient of benzene (Liquid); method: Chromatography
Temperature, K	Activity coefficient of benzene	uncertainty
303	4.71	0.17
313	4.27	0.16
323	3.85	0.15
333	3.34	0.13
343	2.95	0.12
353	2.65	0.12

System: 1-(2-hydroxyethyl)-3-methylimidazolium nonafluoro-1-butanesulfonate + toluene; phases: Liquid
Fixed: Mole fraction of toluene = 0
Fixed: Pressure, kPa = 101.325
Property: Activity coefficient of toluene (Liquid); method: Chromatography
Temperature, K	Activity coefficient of toluene	uncertainty
303	7.4	0.26
313	6.83	0.24
323	6.21	0.22
333	5.44	0.19
343	4.94	0.18
353	4.44	0.16

System: 1-(2-hydroxyethyl)-3-methylimidazolium nonafluoro-1-butanesulfonate + ethylbenzene; phases: Liquid
Fixed: Mole fraction of ethylbenzene = 0
Fixed: Pressure, kPa = 101.325
Property: Activity coefficient of ethylbenzene (Liquid); method: Chromatography
Temperature, K	Activity coefficient of ethylbenzene	uncertainty
303	12.12	0.43
313	11.01	0.39
323	10.08	0.36
333	8.82	0.31
343	7.93	0.28
353	7.09	0.25

System: 1-(2-hydroxyethyl)-3-methylimidazolium nonafluoro-1-butanesulfonate + 1,2-dimethylbenzene; phases: Liquid
Fixed: Mole fraction of 1,2-dimethylbenzene = 0
Fixed: Pressure, kPa = 101.325
Property: Activity coefficient of 1,2-dimethylbenzene (Liquid); method: Chromatography
Temperature, K	Activity coefficient of 1,2-dimethylbenzene	uncertainty
303	10.44	0.37
313	9.7	0.35
323	8.9	0.32
333	7.81	0.28
343	7.04	0.25
353	6.52	0.23

System: 1-(2-hydroxyethyl)-3-methylimidazolium nonafluoro-1-butanesulfonate + 1,3-dimethylbenzene; phases: Liquid
Fixed: Mole fraction of 1,3-dimethylbenzene = 0
Fixed: Pressure, kPa = 101.325
Property: Activity coefficient of 1,3-dimethylbenzene (Liquid); method: Chromatography
Temperature, K	Activity coefficient of 1,3-dimethylbenzene	uncertainty
303	11.64	0.42
313	10.83	0.39
323	9.86	0.35
333	8.71	0.31
343	7.91	0.28
353	7.2	0.26

System: 1-(2-hydroxyethyl)-3-methylimidazolium nonafluoro-1-butanesulfonate + 1,4-dimethylbenzene; phases: Liquid
Fixed: Mole fraction of 1,4-dimethylbenzene = 0
Fixed: Pressure, kPa = 101.325
Property: Activity coefficient of 1,4-dimethylbenzene (Liquid); method: Chromatography
Temperature, K	Activity coefficient of 1,4-dimethylbenzene	uncertainty
303	11.92	0.43
313	10.96	0.39
323	9.88	0.35
333	8.78	0.31
343	8	0.28
353	7.59	0.27

System: 1-(2-hydroxyethyl)-3-methylimidazolium nonafluoro-1-butanesulfonate + methanol; phases: Liquid
Fixed: Mole fraction of methanol = 0
Fixed: Pressure, kPa = 101.325
Property: Activity coefficient of methanol (Liquid); method: Chromatography
Temperature, K	Activity coefficient of methanol	uncertainty
303	1.1	0.08
313	1.02	0.08
323	0.93	0.08
333	0.9	0.08
343	0.87	0.08
353	0.82	0.08

System: 1-(2-hydroxyethyl)-3-methylimidazolium nonafluoro-1-butanesulfonate + ethanol; phases: Liquid
Fixed: Mole fraction of ethanol = 0
Fixed: Pressure, kPa = 101.325
Property: Activity coefficient of ethanol (Liquid); method: Chromatography
Temperature, K	Activity coefficient of ethanol	uncertainty
303	1.56	0.09
313	1.48	0.09
323	1.38	0.09
333	1.31	0.09
343	1.22	0.08
353	1.14	0.08

System: 1-(2-hydroxyethyl)-3-methylimidazolium nonafluoro-1-butanesulfonate + propan-1-ol; phases: Liquid
Fixed: Mole fraction of propan-1-ol = 0
Fixed: Pressure, kPa = 101.325
Property: Activity coefficient of propan-1-ol (Liquid); method: Chromatography
Temperature, K	Activity coefficient of propan-1-ol	uncertainty
303	2.22	0.11
313	2.07	0.1
323	1.91	0.1
333	1.81	0.1
343	1.66	0.09
353	1.53	0.09

System: 1-(2-hydroxyethyl)-3-methylimidazolium nonafluoro-1-butanesulfonate + 1,4-dioxane; phases: Liquid
Fixed: Mole fraction of 1,4-dioxane = 0
Fixed: Pressure, kPa = 101.325
Property: Activity coefficient of 1,4-dioxane (Liquid); method: Chromatography
Temperature, K	Activity coefficient of 1,4-dioxane	uncertainty
303	1.67	0.09
313	1.64	0.09
323	1.61	0.09
333	1.59	0.09
343	1.56	0.09
353	1.53	0.09

System: 1-(2-hydroxyethyl)-3-methylimidazolium nonafluoro-1-butanesulfonate + acetonitrile; phases: Liquid
Fixed: Mole fraction of acetonitrile = 0
Fixed: Pressure, kPa = 101.325
Property: Activity coefficient of acetonitrile (Liquid); method: Chromatography
Temperature, K	Activity coefficient of acetonitrile	uncertainty
303	0.99	0.08
313	0.97	0.08
323	0.93	0.08
333	0.9	0.08
343	0.87	0.08
353	0.84	0.08

System: 1-(2-hydroxyethyl)-3-methylimidazolium nonafluoro-1-butanesulfonate + acetone; phases: Liquid
Fixed: Mole fraction of acetone = 0
Fixed: Pressure, kPa = 101.325
Property: Activity coefficient of acetone (Liquid); method: Chromatography
Temperature, K	Activity coefficient of acetone	uncertainty
303	0.93	0.08
313	0.91	0.08
323	0.9	0.08
333	0.88	0.08
343	0.85	0.08
353	0.83	0.08

System: 1-(2-hydroxyethyl)-3-methylimidazolium nonafluoro-1-butanesulfonate + tetrahydrofuran; phases: Liquid
Fixed: Mole fraction of tetrahydrofuran = 0
Fixed: Pressure, kPa = 101.325
Property: Activity coefficient of tetrahydrofuran (Liquid); method: Chromatography
Temperature, K	Activity coefficient of tetrahydrofuran	uncertainty
303	1.73	0.1
313	1.7	0.09
323	1.64	0.09
333	1.59	0.09
343	1.52	0.09
353	1.48	0.09

System: 1-(2-hydroxyethyl)-3-methylimidazolium nonafluoro-1-butanesulfonate + trichloromethane; phases: Liquid
Fixed: Mole fraction of trichloromethane = 0
Fixed: Pressure, kPa = 101.325
Property: Activity coefficient of trichloromethane (Liquid); method: Chromatography
Temperature, K	Activity coefficient of trichloromethane	uncertainty
303	2.27	0.11
313	2.2	0.11
323	2.11	0.1
333	2.01	0.1
343	1.91	0.1
353	1.84	0.1

System: 1-(2-hydroxyethyl)-3-methylimidazolium nonafluoro-1-butanesulfonate + dichloromethane; phases: Liquid
Fixed: Mole fraction of dichloromethane = 0
Fixed: Pressure, kPa = 101.325
Property: Activity coefficient of dichloromethane (Liquid); method: Chromatography
Temperature, K	Activity coefficient of dichloromethane	uncertainty
303	2.14	0.11
313	1.99	0.1
323	1.85	0.1
333	1.69	0.09
343	1.54	0.09
353	1.45	0.09
