Measured thermophysical data. Isothermal Vapor Liquid Equilibrium of HFC-161 + DMETrEG within the Temperature Range of 293.15 353.15 K and Comparison for HFC-161 Combined with Different Absorbents
Source: J. Chem. Eng. Data, 2016, 10.1021/acs.jced.5b00951
Compound 1: fluoroethane, C2H5F, InChI=1S/C2H5F/c1-2-3/h2H2,1H3, purity 99.7%
Compound 2: difluoromethane, CH2F2, InChI=1S/CH2F2/c2-1-3/h1H2, purity 99.98%
Compound 3: 2,5,8,11-tetraoxadodecane, C8H18O4, InChI=1S/C8H18O4/c1-9-3-5-11-7-8-12-6-4-10-2/h3-8H2,1-2H3, purity 99%
Compound 4: 2,5,8-trioxanonane, C6H14O3, InChI=1S/C6H14O3/c1-7-3-5-9-6-4-8-2/h3-6H2,1-2H3, purity 99.5%

System: difluoromethane + 2,5,8-trioxanonane; phases: Liquid, Gas
Fixed: Temperature, K = 313.15
Property: Vapor or sublimation pressure, kPa (Liquid); method: Ebulliometric method (Recirculating still)
Mole fraction of difluoromethane	Vapor or sublimation pressure, kPa	uncertainty
0.198	379.9	45.8
0.5053	1082	47.3
0.6138	1364.6	54.6
0.7004	1612.2	60.6
0.7367	1739	60.5
0.7892	1881.2	54.7

System: 2,5,8,11-tetraoxadodecane + fluoroethane; phases: Liquid, Gas
Property: Vapor or sublimation pressure, kPa (Liquid); method: Ebulliometric method (Recirculating still)
Temperature, K	Mole fraction of fluoroethane	Vapor or sublimation pressure, kPa	uncertainty
293.15	0.1718	143.2	14.1
293.15	0.2983	230.3	13.5
293.15	0.468	338.4	12.8
293.15	0.6086	423.3	13.6
293.15	0.7221	506.3	18
293.15	0.8172	608.3	23.5
293.15	0.8624	671.3	28.1
303.15	0.1335	143.8	20.2
303.15	0.2378	247.9	19.4
303.15	0.3501	351	17.3
303.15	0.5151	484.3	17.3
303.15	0.6768	628.4	19.7
303.15	0.7997	761.4	25.5
303.15	0.8546	861.7	42.8
313.15	0.1179	149.3	22.9
313.15	0.2508	305.1	23.3
313.15	0.378	450.3	22.3
313.15	0.5418	626.5	23.9
313.15	0.6806	808.1	26.3
313.15	0.8134	979.8	33.2
313.15	0.8588	1121.3	62
323.15	0.1014	168.9	34.4
323.15	0.1698	282.2	28
323.15	0.3748	554.7	28
323.15	0.5254	776.3	28.3
323.15	0.6843	987.8	31.9
323.15	0.8023	1216	43.8
323.15	0.8722	1406	63.8
333.15	0.0997	199.4	38.6
333.15	0.202	410.3	35.3
333.15	0.3752	688.7	33.7
333.15	0.5411	978.6	36.3
333.15	0.6805	1238.8	40.7
333.15	0.8209	1542.5	52.3
333.15	0.8837	1782.7	91.6
343.15	0.1485	348.3	41.5
343.15	0.3325	729	43.1
343.15	0.4915	1085.5	43.5
343.15	0.6687	1455.9	35.4
343.15	0.6997	1524.6	71.4
343.15	0.787	1865.3	85.8
343.15	0.8457	2153	98.4
353.15	0.1401	426.7	42
353.15	0.3273	818.3	46
353.15	0.5269	1312.6	54.5
353.15	0.6635	1736.5	70.3
353.15	0.7869	2223.7	90.4
353.15	0.8711	2679.4	108.8
