Measured thermophysical data. Solubility Measurement and Thermodynamic Modeling of 4-Nitrophthalimide in Twelve Pure Solvents at Elevated Temperatures Ranging from (273.15 to 323.15) K
Source: J. Chem. Eng. Data, 2016, 10.1021/acs.jced.6b00230
Compound 1: 4-nitrophthalimide, C8H4N2O4, InChI=1S/C8H4N2O4/c11-7-5-2-1-4(10(13)14)3-6(5)8(12)9-7/h1-3H,(H,9,11,12), purity 98.5%
Compound 2: methanol, CH4O, InChI=1S/CH4O/c1-2/h2H,1H3, purity 99.4%
Compound 3: ethanol, C2H6O, InChI=1S/C2H6O/c1-2-3/h3H,2H2,1H3, purity 99.4%
Compound 4: propan-2-ol, C3H8O, InChI=1S/C3H8O/c1-3(2)4/h3-4H,1-2H3, purity 99.5%
Compound 5: cyclohexanone, C6H10O, InChI=1S/C6H10O/c7-6-4-2-1-3-5-6/h1-5H2, purity 99.7%
Compound 6: acetone, C3H6O, InChI=1S/C3H6O/c1-3(2)4/h1-2H3, purity 99.5%
Compound 7: acetonitrile, C2H3N, InChI=1S/C2H3N/c1-2-3/h1H3, purity 99.7%
Compound 8: ethyl acetate, C4H8O2, InChI=1S/C4H8O2/c1-3-6-4(2)5/h3H2,1-2H3, purity 99.5%
Compound 9: butanone, C4H8O, InChI=1S/C4H8O/c1-3-4(2)5/h3H2,1-2H3, purity 99.3%
Compound 10: trichloromethane, CHCl3, InChI=1S/CHCl3/c2-1(3)4/h1H, purity 99.4%
Compound 11: benzenemethanol, C7H8O, InChI=1S/C7H8O/c8-6-7-4-2-1-3-5-7/h1-5,8H,6H2
Compound 12: 1,4-dioxane, C4H8O2, InChI=1S/C4H8O2/c1-2-6-4-3-5-1/h1-4H2, purity 99.5%
Compound 13: dimethylformamide, C3H7NO, InChI=1S/C3H7NO/c1-4(2)3-5/h3H,1-2H3, purity 99.2%
Compound 14: benzoic acid, C7H6O2, InChI=1S/C7H6O2/c8-7(9)6-4-2-1-3-5-6/h1-5H,(H,8,9), purity 99.5%
Compound 15: toluene, C7H8, InChI=1S/C7H8/c1-7-5-3-2-4-6-7/h2-6H,1H3, purity 99.3%

System: 4-nitrophthalimide; phases: Crystal, Liquid, Air at 1 atmosphere
Property: Normal melting temperature, K (Crystal); method: DTA
Normal melting temperature, K	uncertainty
474.71	1.06

System: 4-nitrophthalimide; phases: Crystal, Liquid, Air at 1 atmosphere
Property: Molar enthalpy of transition or fusion, kJ/mol (Crystal); method: DSC
Molar enthalpy of transition or fusion, kJ/mol	uncertainty
34.6	1.05

System: 4-nitrophthalimide; phases: Crystal
Property: Mass density, kg/m3 (Crystal); method: Buoyancy - hydrostatic balance
Temperature, K	Pressure, kPa	Mass density, kg/m3	uncertainty
298.15	101.325	1594.7	2.1

System: methanol + 4-nitrophthalimide; phases: Liquid, Crystal
Fixed: Pressure, kPa = 100
Property: Mole fraction of 4-nitrophthalimide (Liquid); method: Chromatography
Temperature, K	Mole fraction of 4-nitrophthalimide	uncertainty
273.15	0.001397	6e-05
275.65	0.001506	6.4e-05
278.15	0.001666	7.1e-05
283.15	0.001955	8.3e-05
285.65	0.002121	9.1e-05
288.15	0.002329	9.9e-05
293.15	0.002724	0.000116
295.65	0.002954	0.000126
298.15	0.003185	0.000136
303.15	0.003716	0.000159
305.65	0.003967	0.000169
308.15	0.004273	0.000182
313.15	0.004934	0.000211
315.65	0.005271	0.000225
318.15	0.005656	0.000241
323.15	0.006456	0.000275

System: ethanol + 4-nitrophthalimide; phases: Liquid, Crystal
Fixed: Pressure, kPa = 100
Property: Mole fraction of 4-nitrophthalimide (Liquid); method: Chromatography
Temperature, K	Mole fraction of 4-nitrophthalimide	uncertainty
273.15	0.0007129	3.04e-05
275.65	0.0007989	3.41e-05
278.15	0.0008972	3.83e-05
283.15	0.001118	4.77e-05
285.65	0.001234	5.27e-05
288.15	0.001368	5.84e-05
293.15	0.00166	7.08e-05
295.65	0.001825	7.79e-05
298.15	0.002014	8.6e-05
303.15	0.002435	0.0001039
305.65	0.002654	0.0001133
308.15	0.002879	0.0001229
313.15	0.003474	0.0001483
315.65	0.003778	0.0001612
318.15	0.004053	0.000173
323.15	0.004793	0.0002045

System: propan-2-ol + 4-nitrophthalimide; phases: Liquid, Crystal
Fixed: Pressure, kPa = 100
Property: Mole fraction of 4-nitrophthalimide (Liquid); method: Chromatography
Temperature, K	Mole fraction of 4-nitrophthalimide	uncertainty
273.15	0.0005861	2.5e-05
275.65	0.0006434	2.75e-05
278.15	0.0007411	3.16e-05
283.15	0.000937	4e-05
285.65	0.001039	4.43e-05
288.15	0.001146	4.89e-05
293.15	0.001433	6.12e-05
295.65	0.001588	6.78e-05
298.15	0.001753	7.48e-05
303.15	0.002141	9.14e-05
305.65	0.002345	0.0001001
308.15	0.002573	0.0001098
313.15	0.003105	0.0001325
315.65	0.003399	0.0001451
318.15	0.003702	0.000158
323.15	0.004434	0.0001892

System: 4-nitrophthalimide + cyclohexanone; phases: Liquid, Crystal
Fixed: Pressure, kPa = 100
Property: Mole fraction of 4-nitrophthalimide (Liquid); method: Chromatography
Temperature, K	Mole fraction of 4-nitrophthalimide	uncertainty
273.15	0.02952	0.00126
275.65	0.03074	0.00131
278.15	0.03213	0.00137
283.15	0.03524	0.0015
285.65	0.03674	0.00157
288.15	0.03868	0.00165
293.15	0.04219	0.0018
295.65	0.04399	0.00188
298.15	0.04613	0.00197
303.15	0.05062	0.00216
305.65	0.0527	0.00225
308.15	0.05524	0.00236
313.15	0.06041	0.00258
315.65	0.06288	0.00268
318.15	0.06552	0.00279
323.15	0.07079	0.00302

System: acetone + 4-nitrophthalimide; phases: Liquid, Crystal
Fixed: Pressure, kPa = 100
Property: Mole fraction of 4-nitrophthalimide (Liquid); method: Chromatography
Temperature, K	Mole fraction of 4-nitrophthalimide	uncertainty
273.15	0.01753	0.00075
275.65	0.01846	0.00079
278.15	0.01932	0.00082
283.15	0.02114	0.0009
285.65	0.02199	0.00094
288.15	0.02297	0.00098
293.15	0.02502	0.00107
295.65	0.02611	0.00111
298.15	0.02713	0.00116
303.15	0.02933	0.00125
305.65	0.03046	0.0013
308.15	0.03167	0.00135
313.15	0.034	0.00145
315.65	0.03526	0.0015
318.15	0.0366	0.00156
323.15	0.03917	0.00167

System: acetonitrile + 4-nitrophthalimide; phases: Liquid, Crystal
Fixed: Pressure, kPa = 100
Property: Mole fraction of 4-nitrophthalimide (Liquid); method: Chromatography
Temperature, K	Mole fraction of 4-nitrophthalimide	uncertainty
273.15	0.003593	0.000153
275.65	0.003816	0.000163
278.15	0.004031	0.000172
283.15	0.004489	0.000192
285.65	0.004736	0.000202
288.15	0.005032	0.000215
293.15	0.005553	0.000237
295.65	0.005836	0.000249
298.15	0.006181	0.000264
303.15	0.006794	0.00029
305.65	0.007089	0.000302
308.15	0.007492	0.00032
313.15	0.008217	0.000351
315.65	0.008579	0.000366
318.15	0.008945	0.000382
323.15	0.009763	0.000416

System: 4-nitrophthalimide + ethyl acetate; phases: Liquid, Crystal
Fixed: Pressure, kPa = 100
Property: Mole fraction of 4-nitrophthalimide (Liquid); method: Chromatography
Temperature, K	Mole fraction of 4-nitrophthalimide	uncertainty
273.15	0.009192	0.000392
275.65	0.009807	0.000418
278.15	0.01043	0.000445
283.15	0.01172	0.0005
285.65	0.01234	0.000526
288.15	0.01312	0.00056
293.15	0.01463	0.000624
295.65	0.01547	0.00066
298.15	0.01627	0.000694
303.15	0.01805	0.00077
305.65	0.019	0.000811
308.15	0.02	0.000853
313.15	0.02201	0.000939
315.65	0.02307	0.000984
318.15	0.02425	0.001035
323.15	0.02664	0.001136

System: butanone + 4-nitrophthalimide; phases: Liquid, Crystal
Fixed: Pressure, kPa = 100
Property: Mole fraction of 4-nitrophthalimide (Liquid); method: Chromatography
Temperature, K	Mole fraction of 4-nitrophthalimide	uncertainty
273.15	0.01609	0.00069
275.65	0.01687	0.00072
278.15	0.01775	0.00076
283.15	0.01954	0.00083
285.65	0.02047	0.00087
288.15	0.02145	0.00092
293.15	0.02341	0.001
295.65	0.02439	0.00104
298.15	0.02557	0.00109
303.15	0.02794	0.00119
305.65	0.02901	0.00124
308.15	0.03023	0.00129
313.15	0.03273	0.0014
315.65	0.03388	0.00145
318.15	0.03535	0.00151
323.15	0.03798	0.00162

System: trichloromethane + 4-nitrophthalimide; phases: Liquid, Crystal
Fixed: Pressure, kPa = 100
Property: Mole fraction of 4-nitrophthalimide (Liquid); method: Chromatography
Temperature, K	Mole fraction of 4-nitrophthalimide	uncertainty
273.15	0.0005352	2.28e-05
275.65	0.0005768	2.46e-05
278.15	0.0006252	2.67e-05
283.15	0.0007222	3.08e-05
285.65	0.0007745	3.3e-05
288.15	0.0008365	3.57e-05
293.15	0.000959	4.09e-05
295.65	0.00102	4.35e-05
298.15	0.001087	4.64e-05
303.15	0.001241	5.29e-05
305.65	0.001313	5.6e-05
308.15	0.001404	5.99e-05
313.15	0.001598	6.82e-05
315.65	0.001685	7.19e-05
318.15	0.001784	7.61e-05
323.15	0.002006	8.56e-05

System: 4-nitrophthalimide + benzenemethanol; phases: Liquid, Crystal
Fixed: Pressure, kPa = 100
Property: Mole fraction of 4-nitrophthalimide (Liquid); method: Chromatography
Temperature, K	Mole fraction of 4-nitrophthalimide	uncertainty
273.15	0.01343	0.00057
275.65	0.01426	0.00061
278.15	0.01538	0.00066
283.15	0.01747	0.00075
285.65	0.01883	0.0008
288.15	0.02018	0.00086
293.15	0.02298	0.00098
295.65	0.02453	0.00105
298.15	0.0261	0.00111
303.15	0.02944	0.00126
305.65	0.03122	0.00133
308.15	0.03314	0.00141
313.15	0.03715	0.00158
315.65	0.03932	0.00168
318.15	0.04172	0.00178
323.15	0.04659	0.00199

System: 4-nitrophthalimide + 1,4-dioxane; phases: Liquid, Crystal
Fixed: Pressure, kPa = 100
Property: Mole fraction of 4-nitrophthalimide (Liquid); method: Chromatography
Temperature, K	Mole fraction of 4-nitrophthalimide	uncertainty
283.15	0.02278	0.00097
285.65	0.02383	0.00102
288.15	0.02493	0.00106
293.15	0.02713	0.00116
295.65	0.02823	0.0012
298.15	0.02948	0.00126
303.15	0.03181	0.00136
305.65	0.03308	0.00141
308.15	0.03449	0.00147
313.15	0.03706	0.00158
315.65	0.03842	0.00164
318.15	0.03991	0.0017
323.15	0.04249	0.00181

System: dimethylformamide + 4-nitrophthalimide; phases: Liquid, Crystal
Fixed: Pressure, kPa = 100
Property: Mole fraction of 4-nitrophthalimide (Liquid); method: Chromatography
Temperature, K	Mole fraction of 4-nitrophthalimide	uncertainty
273.15	0.0357	0.00152
275.65	0.03899	0.00166
278.15	0.04253	0.00181
283.15	0.0497	0.00212
285.65	0.05346	0.00228
288.15	0.05859	0.0025
293.15	0.06817	0.00291
295.65	0.07316	0.00312
298.15	0.0789	0.00337
303.15	0.09125	0.00389
305.65	0.09761	0.00416
308.15	0.1045	0.00446
313.15	0.1198	0.00511
315.65	0.1279	0.00546
318.15	0.1367	0.00583
323.15	0.1546	0.0066

System: benzoic acid + toluene; phases: Liquid, Crystal
Fixed: Pressure, kPa = 100
Property: Mole fraction of benzoic acid (Liquid); method: Chromatography
Temperature, K	Mole fraction of benzoic acid	uncertainty
273.15	0.03387	0.0019
283.15	0.04284	0.0024
293.15	0.06157	0.00345
298.15	0.07418	0.00416
303.15	0.08929	0.00501
313.15	0.1273	0.0071
323.15	0.178	0.01
