Measured thermophysical data. Solubility of Phenylphosphinic Acid in Supercritical Carbon Dioxide and the Influence of Methanol on the Solubility Behavior
Source: J. Chem. Eng. Data, 2019, 10.1021/acs.jced.9b00732
Compound 1: carbon dioxide, CO2, InChI=1S/CO2/c2-1-3, purity 99.9%
Compound 2: methanol, CH4O, InChI=1S/CH4O/c1-2/h2H,1H3, purity 99.8%
Compound 3: phenylphosphinic acid, C6H7O2P, InChI=1S/C6H7O2P/c7-9(8)6-4-2-1-3-5-6/h1-5,9H,(H,7,8), purity 99%
Compound 4: mandelic acid, C8H8O3, InChI=1S/C8H8O3/c9-7(8(10)11)6-4-2-1-3-5-6/h1-5,7,9H,(H,10,11), purity 99%

System: phenylphosphinic acid + carbon dioxide; phases: Fluid (supercritical or subcritical phases), Crystal
Property: Mole fraction of phenylphosphinic acid (Fluid (supercritical or subcritical phases)); method: Chromatography
Temperature, K	Pressure, kPa	Mole fraction of phenylphosphinic acid	uncertainty
313	10000	2e-05	2e-06
313	12000	4.1e-05	5e-06
313	14000	6.1e-05	7e-06
313	16000	7.5e-05	9e-06
313	18000	9.5e-05	1.1e-05
313	20000	0.000109	1.3e-05
323	10000	2.6e-06	4e-07
323	12000	2.6e-05	3e-06
323	14000	5.6e-05	7e-06
323	16000	8.6e-05	1e-05
323	18000	0.00011	1.3e-05
323	20000	0.000124	1.5e-05
333	10000	1e-06	1e-07
333	12000	8.8e-06	1.1e-06
333	14000	3.6e-05	4e-06
333	16000	7.1e-05	9e-06
333	18000	0.000124	1.5e-05
333	20000	0.00016	1.9e-05

System: phenylphosphinic acid + carbon dioxide + methanol; phases: Fluid (supercritical or subcritical phases), Crystal
Property: Mole fraction of phenylphosphinic acid (Fluid (supercritical or subcritical phases)); method: Chromatography
Pressure, kPa	Temperature, K	Solvent: Mole fraction of methanol	Mole fraction of phenylphosphinic acid	uncertainty
10000	313	0.01	2.8e-05	1.1e-05
12000	313	0.01	0.000103	2.2e-05
14000	313	0.01	0.00011	3.4e-05
16000	313	0.01	0.000201	5.5e-05
18000	313	0.01	0.00029	8e-05
20000	313	0.01	0.0004	0.0001
10000	323	0.01	3e-06	2e-06
12000	323	0.01	1.9e-05	6e-06
14000	323	0.01	4.9e-05	1.4e-05
16000	323	0.01	8.7e-05	2.7e-05
18000	323	0.01	0.000155	4.6e-05
20000	323	0.01	0.00021	6e-05
10000	313	0.04	0.00023	6e-05
12000	313	0.04	0.00062	0.00011
14000	313	0.04	0.00106	0.00019
16000	313	0.04	0.00167	0.00029
18000	313	0.04	0.00234	0.00039
20000	313	0.04	0.00292	0.00049
10000	323	0.04	2.4e-05	1.5e-05
12000	323	0.04	0.000158	3.7e-05
14000	323	0.04	0.000401	8.1e-05
16000	323	0.04	0.00083	0.00015
18000	323	0.04	0.00139	0.00024
20000	323	0.04	0.00181	0.00031

System: mandelic acid + carbon dioxide; phases: Fluid (supercritical or subcritical phases), Crystal
Property: Mole fraction of mandelic acid (Fluid (supercritical or subcritical phases)); method: Chromatography
Temperature, K	Pressure, kPa	Mole fraction of mandelic acid	uncertainty
308.1	10100	8.8e-05	1.5e-05
308.1	14000	0.0003	4e-05
308.1	18900	0.00096	0.00012
308.1	22800	0.00118	0.00014
328.1	10400	3e-05	2e-05
328.1	14300	0.00032	5e-05
328.1	18500	0.00111	0.00014
328.1	23100	0.00276	0.00034
