Measured thermophysical data. Solubility Measurement and Modeling for the NaCl-NH4Cl-Monoethylene Glycol-H2O System from (278 to 353) K
Source: J. Chem. Eng. Data, 2015, 10.1021/acs.jced.5b00053
Compound 1: sodium chloride, ClNa, InChI=1S/ClH.Na/h1H;/q;+1/p-1, purity 99.5%
Compound 2: ammonium chloride (NH4Cl), ClH4N, InChI=1S/ClH.H3N/h1H;1H3, purity 99.5%
Compound 3: 1,2-ethanediol, C2H6O2, InChI=1S/C2H6O2/c3-1-2-4/h3-4H,1-2H2, purity 99.8%
Compound 4: water, H2O, InChI=1S/H2O/h1H2, purity 99.8%

System: 1,2-ethanediol + water + ammonium chloride (NH4Cl); phases: Liquid, Crystal
Fixed: Pressure, kPa = 100
Property: Molality, mol/kg of ammonium chloride (NH4Cl) (Liquid); method: titration
Temperature, K	Solvent: Mole fraction of 1,2-ethanediol	Molality, mol/kg of ammonium chloride (NH4Cl)	uncertainty
278	0	5.835	0.234
278	0.11	4.241	0.17
278	0.31	2.888	0.116
278	0.5	2.274	0.091
278	0.72	1.855	0.074
278	1	1.489	0.06
288	0	6.708	0.269
288	0.11	4.851	0.195
288	0.31	3.237	0.13
288	0.5	2.539	0.102
288	0.72	2.045	0.082
288	1	1.724	0.069
298	0	7.526	0.302
298	0.11	5.402	0.217
298	0.31	3.586	0.144
298	0.5	2.788	0.112
298	0.72	2.22	0.089
298	1	1.895	0.076
313	0	8.61	0.345
313	0.11	6.168	0.247
313	0.31	4.134	0.166
313	0.5	3.16	0.127
313	0.72	2.474	0.099
313	1	2.062	0.083
333	0	9.987	0.4
333	0.11	7.327	0.294
333	0.31	4.88	0.196
333	0.5	3.66	0.147
333	0.72	2.845	0.114
333	1	2.288	0.092
353	0	11.906	0.477
353	0.11	8.611	0.345
353	0.31	5.66	0.227
353	0.5	4.199	0.168
353	0.72	3.26	0.131
353	1	2.551	0.102
278	0.3	2.889	0.116
298	0.3	3.609	0.145
313	0.3	4.176	0.167
333	0.3	4.928	0.198
353	0.3	5.731	0.23

System: 1,2-ethanediol + sodium chloride + water; phases: Liquid, Crystal
Fixed: Pressure, kPa = 100
Property: Molality, mol/kg of sodium chloride (Liquid); method: titration
Temperature, K	Solvent: Mole fraction of 1,2-ethanediol	Molality, mol/kg of sodium chloride	uncertainty
278	0	6.115	0.245
278	0.1	4.224	0.169
278	0.2	3.2	0.128
278	0.5	1.818	0.073
278	0.72	1.449	0.058
278	1	1.265	0.051
298	0	6.164	0.247
298	0.1	4.298	0.172
298	0.2	3.247	0.13
298	0.5	1.857	0.074
298	0.72	1.467	0.059
298	1	1.201	0.048
313	0	6.212	0.249
313	0.1	4.359	0.175
313	0.2	3.306	0.132
313	0.5	1.886	0.076
313	0.72	1.494	0.06
313	1	1.191	0.048
323	0	6.236	0.25
323	0.1	4.375	0.175
323	0.2	3.333	0.134
323	0.5	1.894	0.076
323	0.72	1.5	0.06
323	1	1.164	0.047
353	0	6.46	0.259
353	0.1	4.554	0.182
353	0.2	3.428	0.137
353	0.5	1.962	0.079
353	0.72	1.451	0.058
353	1	1.173	0.047
278	0.3	2.514	0.101
313	0.3	2.62	0.105
353	0.3	2.7	0.108
298	0.3	2.577	0.103
333	0.3	2.65	0.106

System: sodium chloride + water + ammonium chloride (NH4Cl); phases: Liquid, Crystal
Fixed: Pressure, kPa = 100
Fixed: Temperature, K = 353
Property: Molality, mol/kg of sodium chloride (Liquid); method: titration
Molality, mol/kg of ammonium chloride (NH4Cl)	Molality, mol/kg of sodium chloride	uncertainty
11.906	0	0.545
11.029	1.004	0.535
10.256	1.997	0.527
9.83	2.525	0.586
9.581	3.007	0.752

System: sodium chloride + water + ammonium chloride (NH4Cl); phases: Liquid, Crystal
Fixed: Temperature, K = 353
Fixed: Pressure, kPa = 100
Property: Molality, mol/kg of ammonium chloride (NH4Cl) (Liquid); method: titration
Molality, mol/kg of sodium chloride	Molality, mol/kg of ammonium chloride (NH4Cl)	uncertainty
6.46	0	0.059
5.589	2.001	0.058
4.92	3.956	0.063
4.295	5.998	0.066
3.775	7.976	0.068

System: sodium chloride + water + ammonium chloride (NH4Cl); phases: Liquid, Crystal, Crystal
Property: Molality, mol/kg of sodium chloride (Liquid); method: titration
Molality, mol/kg of ammonium chloride (NH4Cl)	Temperature, K	Molality, mol/kg of sodium chloride	uncertainty
8.6	353	3.969	0.018

System: water + ammonium chloride (NH4Cl); phases: Liquid, Crystal
Fixed: Pressure, kPa = 100
Property: Molality, mol/kg of ammonium chloride (NH4Cl) (Liquid); method: titration
Temperature, K	Molality, mol/kg of ammonium chloride (NH4Cl)	uncertainty
278	5.835	0.032
288	6.708	0.035
298	7.526	0.037
313	8.61	0.041
333	9.987	0.048
353	11.906	0.057

System: 1,2-ethanediol + ammonium chloride (NH4Cl); phases: Liquid, Crystal
Fixed: Pressure, kPa = 100
Property: Molality, mol/kg of ammonium chloride (NH4Cl) (Liquid); method: titration
Temperature, K	Molality, mol/kg of ammonium chloride (NH4Cl)	uncertainty
278	1.489	0.008
288	1.724	0.009
298	1.895	0.009
313	2.062	0.01
333	2.288	0.011
353	2.551	0.012

System: sodium chloride + water; phases: Liquid, Crystal
Fixed: Pressure, kPa = 100
Property: Molality, mol/kg of sodium chloride (Liquid); method: titration
Temperature, K	Molality, mol/kg of sodium chloride	uncertainty
278	6.115	0.028
298	6.164	0.028
313	6.212	0.028
323	6.236	0.028
353	6.46	0.029

System: 1,2-ethanediol + sodium chloride; phases: Liquid, Crystal
Fixed: Pressure, kPa = 100
Property: Molality, mol/kg of sodium chloride (Liquid); method: titration
Temperature, K	Molality, mol/kg of sodium chloride	uncertainty
278	1.265	0.006
298	1.201	0.005
313	1.191	0.005
323	1.164	0.005
353	1.173	0.005
