Measured thermophysical data. Phase Equilibrium Measurements and Modeling of 1-Propanethiol +1-Butanethiol + CH4 in Methane Ternary System at 303, 336, and 368 K and Pressure Up to 9 MPa
Source: J. Chem. Eng. Data, 2016, 10.1021/acs.jced.5b00134
Compound 1: 1-propanethiol, C3H8S, InChI=1S/C3H8S/c1-2-3-4/h4H,2-3H2,1H3, purity 99%
Compound 2: 1-butanethiol, C4H10S, InChI=1S/C4H10S/c1-2-3-4-5/h5H,2-4H2,1H3, purity 99%
Compound 3: methane, CH4, InChI=1S/CH4/h1H4, purity 99.8%

System: methane + 1-propanethiol + 1-butanethiol; phases: Liquid, Gas
Property: Vapor or sublimation pressure, kPa (Liquid); method: Closed cell (Static) method
Temperature, K	Mole fraction of 1-propanethiol	Mole fraction of 1-butanethiol	Vapor or sublimation pressure, kPa	uncertainty
302.98	0.432	0.553	653	4
303.06	0.429	0.525	1716	340
303.08	0.43	0.504	2507	323
303.18	0.429	0.47	3689	27
303.19	0.419	0.449	4785	17
303.09	0.398	0.429	6481	23
303.08	0.384	0.416	7928	28
336.11	0.435	0.531	1491	6
336.05	0.422	0.514	2554	10
336.15	0.413	0.474	4377	16
336.11	0.396	0.467	5325	19
335.97	0.389	0.445	6538	23
335.97	0.369	0.43	8108	29
336.02	0.361	0.415	9088	32
367.84	0.393	0.574	1562	9
368.91	0.389	0.561	2195	9
367.94	0.379	0.54	3405	15
366.78	0.371	0.527	4396	20
368.36	0.367	0.505	5309	20
368.54	0.361	0.487	6480	23
368.56	0.347	0.478	7565	27

System: methane + 1-propanethiol + 1-butanethiol; phases: Liquid, Gas
Property: Vapor or sublimation pressure, kPa (Liquid); method: Closed cell (Static) method
Temperature, K	Mole fraction of 1-propanethiol	Mole fraction of 1-butanethiol	Vapor or sublimation pressure, kPa	uncertainty
302.92	0.059	0.05	652	4
303	0.019	0.013	1715	7
303.06	0.014	0.01	2505	10
303.18	0.007	0.004	3687	15
303.19	0.007	0.005	4784	19
303.09	0.007	0.005	6478	26
303.02	0.007	0.005	7916	31
336.14	0.062	0.046	1486	6
336.16	0.041	0.028	2550	10
336.15	0.018	0.015	4371	17
336.11	0.017	0.013	5320	21
335.99	0.017	0.013	6533	220
335.98	0.016	0.013	8100	180
335.76	0.016	0.014	9078	36
367.59	0.051	0.046	1541	7
368.78	0.046	0.036	2145	9
367.89	0.038	0.028	3398	14
366.45	0.032	0.024	4325	17
368.16	0.029	0.023	5216	21
368.1	0.027	0.02	6454	105
368.53	0.027	0.02	7560	30

System: methane + 1-propanethiol + 1-butanethiol; phases: Liquid, Gas
Property: Mole fraction of 1-propanethiol (Liquid); method: CHROM:UFactor:64
Property: Mole fraction of 1-propanethiol (Gas); method: CHROM:UFactor:64
Property: Mole fraction of 1-butanethiol (Gas); method: CHROM:UFactor:64
Temperature, K	Pressure, kPa	Mole fraction of 1-butanethiol	Mole fraction of 1-propanethiol	uncertainty	Mole fraction of 1-propanethiol	uncertainty	Mole fraction of 1-butanethiol	uncertainty
302.98	653	0.553	0.432	0.214	0.059	0.035	0.05	
336.02	9088	0.415	0.361	0.179	0.016	0.013	0.014	
367.84	1562	0.574	0.393	0.195	0.051	0.03	0.046	
366.78	4396	0.527	0.371	0.184	0.032	0.02	0.024	
368.91	2195	0.561	0.389	0.193	0.046	0.027	0.036	
367.94	3405	0.54	0.379	0.188	0.038	0.023	0.028	
368.36	5309	0.505	0.367	0.182	0.029	0.018	0.023	
303.06	1716	0.525	0.429	0.213	0.019	0.014	0.013	
368.54	6480	0.487	0.361	0.179	0.027	0.017	0.02	
368.56	7565	0.478	0.347	0.172	0.027	0.017	0.02	
303.08	2507	0.504	0.43	0.213	0.014	0.012	0.01	
303.09	6481	0.429	0.398	0.197	0.007	0.007	0.005	
303.18	3689	0.47	0.429	0.213	0.007	0.007	0.004	
303.19	4785	0.449	0.419	0.208	0.007	0.007	0.005	
303.08	7928	0.416	0.384	0.19	0.007	0.007	0.005	
336.15	4377	0.474	0.413	0.205	0.018	0.013	0.015	
336.11	1491	0.531	0.435	0.216	0.062	0.037	0.046	
336.05	2554	0.514	0.422	0.209	0.041	0.024	0.028	
336.11	5325	0.467	0.396	0.196	0.017	0.013	0.013	
335.97	6538	0.445	0.389	0.193	0.017	0.013	0.013	
335.97	8108	0.43	0.369	0.183	0.016	0.013	0.013	
