Measured thermophysical data. Solubilities of 2,5-Furandicarboxylic Acid in Binary Acetic Acid + Water, Methanol + Water, and Ethanol + Water Solvent Mixtures
Source: J. Chem. Eng. Data, 2018, 10.1021/acs.jced.7b01112
Compound 1: 2,5-furandicarboxylic acid, C6H4O5, InChI=1S/C6H4O5/c7-5(8)3-1-2-4(11-3)6(9)10/h1-2H,(H,7,8)(H,9,10), purity 98%
Compound 2: methanol, CH4O, InChI=1S/CH4O/c1-2/h2H,1H3, purity 99.5%
Compound 3: ethanol, C2H6O, InChI=1S/C2H6O/c1-2-3/h3H,2H2,1H3, purity 99.5%
Compound 4: acetic acid, C2H4O2, InChI=1S/C2H4O2/c1-2(3)4/h1H3,(H,3,4), purity 99.5%
Compound 5: water, H2O, InChI=1S/H2O/h1H2, purity 99.9%

System: 2,5-furandicarboxylic acid; phases: Crystal, Liquid, Air at 1 atmosphere
Property: Normal melting temperature, K (Crystal); method: DTA
Normal melting temperature, K	uncertainty
614.45	0.7

System: 2,5-furandicarboxylic acid; phases: Crystal, Liquid, Air at 1 atmosphere
Property: Molar enthalpy of transition or fusion, kJ/mol (Crystal); method: DSC
Molar enthalpy of transition or fusion, kJ/mol	uncertainty
55.131	3.469

System: 2,5-furandicarboxylic acid + water + acetic acid; phases: Liquid, Crystal
Fixed: Pressure, kPa = 100
Property: Mole fraction of 2,5-furandicarboxylic acid (Liquid); method: Chromatography
Solvent: Mass fraction of water	Temperature, K	Mole fraction of 2,5-furandicarboxylic acid	uncertainty
0	303.55	0.0002424	4.86e-05
0	313.25	0.0003188	6.39e-05
0	322.95	0.0004706	9.44e-05
0	332.75	0.0006563	0.0001315
0	342.45	0.0008737	0.000175
0	352.25	0.001114	0.000223
0.05	303.55	0.0002732	5.5e-05
0.05	313.25	0.0004285	8.61e-05
0.05	322.95	0.0006422	0.000129
0.05	332.75	0.001015	0.000204
0.05	342.45	0.001659	0.000333
0.05	352.25	0.00209	0.000418
0.1	303.55	0.0003541	7.11e-05
0.1	313.25	0.000482	9.68e-05
0.1	322.95	0.0007506	0.0001508
0.1	332.75	0.001167	0.000234
0.1	342.45	0.00169	0.000339
0.1	352.25	0.002219	0.000444
0.2	303.55	0.0004088	8.21e-05
0.2	313.25	0.0005862	0.0001176
0.2	322.95	0.0008221	0.0001649
0.2	332.75	0.001184	0.000238
0.2	342.45	0.001716	0.000344
0.2	352.25	0.002165	0.000434
0.3	303.55	0.0005102	0.0001024
0.3	313.25	0.0006443	0.0001292
0.3	322.95	0.0008562	0.0001718
0.3	332.75	0.001257	0.000252
0.3	342.45	0.001767	0.000354
0.3	352.25	0.002312	0.000463
1	303.55	0.0001407	2.82e-05
1	313.25	0.0001946	3.91e-05
1	322.95	0.0003023	6.07e-05
1	332.75	0.0004705	9.44e-05
1	342.45	0.0006717	0.0001346
1	352.25	0.0008727	0.0001747

System: 2,5-furandicarboxylic acid + water + methanol; phases: Liquid, Crystal
Fixed: Pressure, kPa = 100
Property: Mole fraction of 2,5-furandicarboxylic acid (Liquid); method: Chromatography
Solvent: Mass fraction of water	Temperature, K	Mole fraction of 2,5-furandicarboxylic acid	uncertainty
0	297.35	0.003711	0.000743
0	303.35	0.004079	0.000817
0	309.35	0.00484	0.000969
0	315.25	0.005631	0.001128
0	321.15	0.006607	0.001323
0	326.85	0.007578	0.001518
0	332.65	0.008837	0.00177
0.05	297.35	0.003201	0.000641
0.05	303.35	0.003653	0.000732
0.05	309.35	0.004219	0.000845
0.05	315.25	0.004988	0.001
0.05	321.15	0.005968	0.001196
0.05	326.85	0.006888	0.00138
0.05	332.65	0.008056	0.001613
0.1	297.35	0.002783	0.000557
0.1	303.35	0.003047	0.00061
0.1	309.35	0.003456	0.000693
0.1	315.25	0.004218	0.000846
0.1	321.15	0.005203	0.001043
0.1	326.85	0.006112	0.001225
0.1	332.65	0.007251	0.001453
0.2	297.35	0.002314	0.000463
0.2	303.35	0.002536	0.000508
0.2	309.35	0.002957	0.000593
0.2	315.25	0.003527	0.000707
0.2	321.15	0.0043	0.000862
0.2	326.85	0.005103	0.001023
0.2	332.65	0.006081	0.001219
0.3	297.35	0.00189	0.000379
0.3	303.35	0.002047	0.000411
0.3	309.35	0.00242	0.000486
0.3	315.25	0.002864	0.000575
0.3	321.15	0.003501	0.000703
0.3	326.85	0.004185	0.00084
0.3	332.65	0.005143	0.001032

System: 2,5-furandicarboxylic acid + water + ethanol; phases: Liquid, Crystal
Fixed: Pressure, kPa = 100
Property: Mole fraction of 2,5-furandicarboxylic acid (Liquid); method: Chromatography
Solvent: Mass fraction of water	Temperature, K	Mole fraction of 2,5-furandicarboxylic acid	uncertainty
0	299.35	0.00298	0.000597
0	305.35	0.003374	0.000676
0	311.25	0.003997	0.0008
0	319.25	0.004779	0.000957
0	323.15	0.005257	0.001053
0	328.95	0.006205	0.001243
0	334.75	0.007202	0.001442
0	340.55	0.008137	0.001629
0	346.35	0.0093	0.001862
0.05	299.35	0.002395	0.00048
0.05	305.35	0.002782	0.000557
0.05	311.25	0.003332	0.000667
0.05	319.25	0.003989	0.000799
0.05	323.15	0.004448	0.000891
0.05	328.95	0.005232	0.001048
0.05	334.75	0.005997	0.001201
0.05	340.55	0.006854	0.001373
0.05	346.35	0.008023	0.001607
0.1	299.35	0.001709	0.000343
0.1	305.35	0.00211	0.000424
0.1	311.25	0.002664	0.000534
0.1	319.25	0.003211	0.000644
0.1	323.15	0.003741	0.00075
0.1	328.95	0.004413	0.000884
0.1	334.75	0.005056	0.001013
0.1	340.55	0.005894	0.001181
0.1	346.35	0.007087	0.001421
0.2	299.35	0.001164	0.000236
0.2	305.35	0.001523	0.000306
0.2	311.25	0.001842	0.00037
0.2	319.25	0.002462	0.000494
0.2	323.15	0.002733	0.000549
0.2	328.95	0.00339	0.000681
0.2	334.75	0.00401	0.000805
0.2	340.55	0.00473	0.000949
0.2	346.35	0.005781	0.001159
0.3	299.35	0.000785	0.000159
0.3	305.35	0.001019	0.000207
0.3	311.25	0.001302	0.000263
0.3	319.25	0.001723	0.000348
0.3	323.15	0.001997	0.000403
0.3	328.95	0.0024	0.000484
0.3	334.75	0.002853	0.000576
0.3	340.55	0.003649	0.000735
0.3	346.35	0.004445	0.000894

System: 2,5-furandicarboxylic acid + acetic acid; phases: Liquid, Crystal
Fixed: Pressure, kPa = 100
Property: Mole fraction of 2,5-furandicarboxylic acid (Liquid); method: Chromatography
Temperature, K	Mole fraction of 2,5-furandicarboxylic acid	uncertainty
303.55	0.0002424	4.86e-05
313.25	0.0003188	6.39e-05
322.95	0.0004706	9.44e-05
332.75	0.0006563	0.0001315
342.45	0.0008737	0.000175
352.25	0.001114	0.000223

System: 2,5-furandicarboxylic acid + water; phases: Liquid, Crystal
Fixed: Pressure, kPa = 100
Property: Mole fraction of 2,5-furandicarboxylic acid (Liquid); method: Chromatography
Temperature, K	Mole fraction of 2,5-furandicarboxylic acid	uncertainty
303.55	0.0001407	2.82e-05
313.25	0.0001946	3.91e-05
322.95	0.0003023	6.07e-05
332.75	0.0004705	9.44e-05
342.45	0.0006717	0.0001346
352.25	0.0008727	0.0001747

System: 2,5-furandicarboxylic acid + methanol; phases: Liquid, Crystal
Fixed: Pressure, kPa = 100
Property: Mole fraction of 2,5-furandicarboxylic acid (Liquid); method: Chromatography
Temperature, K	Mole fraction of 2,5-furandicarboxylic acid	uncertainty
297.35	0.003711	0.000743
303.35	0.004079	0.000817
309.35	0.00484	0.000969
315.25	0.005631	0.001128
321.15	0.006607	0.001323
326.85	0.007578	0.001518
332.65	0.008837	0.00177

System: 2,5-furandicarboxylic acid + ethanol; phases: Liquid, Crystal
Fixed: Pressure, kPa = 100
Property: Mole fraction of 2,5-furandicarboxylic acid (Liquid); method: Chromatography
Temperature, K	Mole fraction of 2,5-furandicarboxylic acid	uncertainty
299.35	0.00298	0.000597
305.35	0.003374	0.000676
311.25	0.003997	0.0008
319.25	0.004779	0.000957
323.15	0.005257	0.001053
328.95	0.006205	0.001243
334.75	0.007202	0.001442
340.55	0.008137	0.001629
346.35	0.0093	0.001862
