Measured thermophysical data. The Research and Measurement about the Solubility of l-Serine in Eight Common Pure Solvents and Four Binary Mixed Solvents for T = (278.15-333.15) K
Source: J. Chem. Eng. Data, 2019, 10.1021/acs.jced.9b00460
Compound 1: L-serine, C3H7NO3, InChI=1S/C3H7NO3/c4-2(1-5)3(6)7/h2,5H,1,4H2,(H,6,7)/t2-/m0/s1, purity 98%
Compound 2: methanol, CH4O, InChI=1S/CH4O/c1-2/h2H,1H3, purity 99.97%
Compound 3: ethanol, C2H6O, InChI=1S/C2H6O/c1-2-3/h3H,2H2,1H3, purity 99.9%
Compound 4: propan-2-ol, C3H8O, InChI=1S/C3H8O/c1-3(2)4/h3-4H,1-2H3, purity 99.9%
Compound 5: butan-1-ol, C4H10O, InChI=1S/C4H10O/c1-2-3-4-5/h5H,2-4H2,1H3, purity 99.9%
Compound 6: acetonitrile, C2H3N, InChI=1S/C2H3N/c1-2-3/h1H3, purity 99.95%
Compound 7: ethyl acetate, C4H8O2, InChI=1S/C4H8O2/c1-3-6-4(2)5/h3H2,1-2H3, purity 99.93%
Compound 8: acetone, C3H6O, InChI=1S/C3H6O/c1-3(2)4/h1-2H3, purity 99.93%
Compound 9: water, H2O, InChI=1S/H2O/h1H2, purity 99.8%

System: L-serine; phases: Crystal, Liquid, Air at 1 atmosphere
Property: Triple point temperature, K (Crystal); method: DSC
Triple point temperature, K	uncertainty
498.15	1

System: L-serine; phases: Crystal, Liquid, Air at 1 atmosphere
Property: Molar enthalpy of transition or fusion, kJ/mol (Crystal); method: DSC
Molar enthalpy of transition or fusion, kJ/mol	uncertainty
19.13	0.59

System: L-serine + methanol; phases: Liquid, Crystal
Fixed: Pressure, kPa = 101.3
Property: Mole fraction of L-serine (Liquid); method: gravimetric
Temperature, K	Mole fraction of L-serine	uncertainty
278.15	3.5e-05	7e-06
283.15	3.8e-05	8e-06
288.15	4.1e-05	8e-06
293.15	4.5e-05	9e-06
298.15	5e-05	1e-05
303.15	5.5e-05	1.1e-05
308.15	6.1e-05	1.2e-05
313.15	6.7e-05	1.3e-05
318.15	7.4e-05	1.5e-05
323.15	8.1e-05	1.6e-05
328.15	8.9e-05	1.8e-05
333.15	9.9e-05	2e-05

System: L-serine + ethanol; phases: Liquid, Crystal
Fixed: Pressure, kPa = 101.3
Property: Mole fraction of L-serine (Liquid); method: gravimetric
Temperature, K	Mole fraction of L-serine	uncertainty
278.15	1e-05	2e-06
283.15	1.1e-05	2e-06
288.15	1.2e-05	2e-06
293.15	1.4e-05	3e-06
298.15	1.6e-05	3e-06
303.15	1.9e-05	4e-06
308.15	2.2e-05	4e-06
313.15	2.6e-05	5e-06
318.15	3e-05	6e-06
323.15	3.5e-05	7e-06
328.15	4.1e-05	8e-06
333.15	4.8e-05	1e-05

System: L-serine + propan-2-ol; phases: Liquid, Crystal
Fixed: Pressure, kPa = 101.3
Property: Mole fraction of L-serine (Liquid); method: gravimetric
Temperature, K	Mole fraction of L-serine	uncertainty
278.15	3e-06	1e-06
283.15	3e-06	1e-06
288.15	4e-06	1e-06
293.15	4e-06	1e-06
298.15	5e-06	1e-06
303.15	5e-06	1e-06
308.15	6e-06	1e-06
313.15	7e-06	2e-06
318.15	8e-06	2e-06
323.15	9e-06	2e-06
328.15	1e-05	2e-06
333.15	1.2e-05	2e-06

System: L-serine + butan-1-ol; phases: Liquid, Crystal
Fixed: Pressure, kPa = 101.3
Property: Mole fraction of L-serine (Liquid); method: gravimetric
Temperature, K	Mole fraction of L-serine	uncertainty
278.15	5e-06	1e-06
283.15	6e-06	1e-06
288.15	7e-06	2e-06
293.15	9e-06	2e-06
298.15	1e-05	2e-06
303.15	1.3e-05	3e-06
308.15	1.5e-05	3e-06
313.15	1.8e-05	4e-06
318.15	2.1e-05	4e-06
323.15	2.5e-05	5e-06
328.15	2.9e-05	6e-06
333.15	3.4e-05	7e-06

System: L-serine + acetonitrile; phases: Liquid, Crystal
Fixed: Pressure, kPa = 101.3
Property: Mole fraction of L-serine (Liquid); method: gravimetric
Temperature, K	Mole fraction of L-serine	uncertainty
278.15	9.9e-05	2e-05
283.15	0.000112	2.2e-05
288.15	0.000124	2.5e-05
293.15	0.000144	2.9e-05
298.15	0.000169	3.4e-05
303.15	0.000198	4e-05
308.15	0.000231	4.6e-05
313.15	0.000263	5.3e-05
318.15	0.000299	6e-05
323.15	0.000332	6.6e-05
328.15	0.000366	7.3e-05
333.15	0.000404	8.1e-05

System: L-serine + ethyl acetate; phases: Liquid, Crystal
Fixed: Pressure, kPa = 101.3
Property: Mole fraction of L-serine (Liquid); method: gravimetric
Temperature, K	Mole fraction of L-serine	uncertainty
278.15	2.4e-05	5e-06
283.15	2.6e-05	5e-06
288.15	2.9e-05	6e-06
293.15	3.2e-05	6e-06
298.15	3.6e-05	7e-06
303.15	4e-05	8e-06
308.15	4.4e-05	9e-06
313.15	5e-05	1e-05
318.15	5.5e-05	1.1e-05
323.15	6.1e-05	1.2e-05
328.15	6.8e-05	1.4e-05
333.15	7.6e-05	1.5e-05

System: L-serine + acetone; phases: Liquid, Crystal
Fixed: Pressure, kPa = 101.3
Property: Mole fraction of L-serine (Liquid); method: gravimetric
Temperature, K	Mole fraction of L-serine	uncertainty
278.15	2.9e-05	6e-06
283.15	3.1e-05	6e-06
288.15	3.3e-05	7e-06
293.15	3.7e-05	7e-06
298.15	4.1e-05	8e-06
303.15	4.5e-05	9e-06
308.15	4.9e-05	1e-05
313.15	5.4e-05	1.1e-05
318.15	5.9e-05	1.2e-05
323.15	6.5e-05	1.3e-05
328.15	7.2e-05	1.4e-05

System: L-serine + water; phases: Liquid, Crystal
Fixed: Pressure, kPa = 101.3
Property: Mole fraction of L-serine (Liquid); method: gravimetric
Temperature, K	Mole fraction of L-serine	uncertainty
278.15	0.03892	0.007785
283.15	0.04436	0.008873
288.15	0.04979	0.009959
293.15	0.05629	0.01126
298.15	0.06416	0.012834
303.15	0.07166	0.014334
308.15	0.07938	0.015878
313.15	0.08775	0.017552
318.15	0.09605	0.019212
323.15	0.10412	0.020826
328.15	0.11352	0.022706
333.15	0.12354	0.02471

System: L-serine + water + acetonitrile; phases: Liquid, Crystal
Fixed: Pressure, kPa = 101.3
Property: Mole fraction of L-serine (Liquid); method: Chromatography
Temperature, K	Solvent: Mole fraction of water	Mole fraction of L-serine	uncertainty
278.15	0	9.9e-05	2e-05
283.15	0	0.000112	2.2e-05
288.15	0	0.000124	2.5e-05
293.15	0	0.000144	2.9e-05
298.15	0	0.000169	3.4e-05
303.15	0	0.000198	4e-05
308.15	0	0.000231	4.6e-05
313.15	0	0.000263	5.3e-05
318.15	0	0.000299	6e-05
323.15	0	0.000332	6.6e-05
328.15	0	0.000366	7.3e-05
333.15	0	0.000404	8.1e-05
288.15	0.337	0.0079	0.0016
293.15	0.337	0.0087	0.0017
298.15	0.337	0.0099	0.002
303.15	0.337	0.0114	0.0023
308.15	0.337	0.0131	0.0026
313.15	0.337	0.0149	0.003
278.15	0.337	0.0068	0.0014
318.15	0.337	0.0171	0.0034
283.15	0.337	0.0073	0.0015
323.15	0.337	0.0197	0.0039
328.15	0.337	0.0226	0.0045
333.15	0.337	0.0256	0.0051
293.15	0.553	0.019	0.0038
298.15	0.553	0.0209	0.0042
303.15	0.553	0.0237	0.0047
278.15	0.553	0.013	0.0026
308.15	0.553	0.0274	0.0055
313.15	0.553	0.0315	0.0063
288.15	0.553	0.0166	0.0033
318.15	0.553	0.0358	0.0072
323.15	0.553	0.0409	0.0082
283.15	0.553	0.0146	0.0029
328.15	0.553	0.0462	0.0092
333.15	0.553	0.053	0.0106
278.15	0.702	0.0192	0.0038
303.15	0.702	0.0348	0.007
293.15	0.702	0.0274	0.0055
308.15	0.702	0.0392	0.0078
313.15	0.702	0.0437	0.0087
288.15	0.702	0.0244	0.0049
318.15	0.702	0.05	0.01
323.15	0.702	0.0568	0.0114
328.15	0.702	0.064	0.0128
283.15	0.702	0.0216	0.0043
298.15	0.702	0.0313	0.0063
333.15	0.702	0.0719	0.0144
293.15	0.812	0.0365	0.0073
308.15	0.812	0.051	0.0102
283.15	0.812	0.0287	0.0057
313.15	0.812	0.0571	0.0114
298.15	0.812	0.0405	0.0081
318.15	0.812	0.0635	0.0127
288.15	0.812	0.0321	0.0064
278.15	0.812	0.0254	0.0051
323.15	0.812	0.0713	0.0143
303.15	0.812	0.0453	0.0091
328.15	0.812	0.0797	0.0159
333.15	0.812	0.0878	0.0176
313.15	0.896	0.0673	0.0135
308.15	0.896	0.06	0.012
318.15	0.896	0.0759	0.0152
288.15	0.896	0.038	0.0076
298.15	0.896	0.0478	0.0096
323.15	0.896	0.0846	0.0169
283.15	0.896	0.0332	0.0066
293.15	0.896	0.0434	0.0087
328.15	0.896	0.0942	0.0188
303.15	0.896	0.0537	0.0107
278.15	0.896	0.029	0.0058
333.15	0.896	0.1041	0.0208
308.15	0.963	0.0729	0.0146
293.15	0.963	0.0517	0.0103
323.15	0.963	0.0972	0.0194
283.15	0.963	0.0411	0.0082
288.15	0.963	0.0465	0.0093
278.15	0.963	0.0362	0.0072
298.15	0.963	0.0583	0.0117
328.15	0.963	0.1062	0.0212
313.15	0.963	0.0805	0.0161
303.15	0.963	0.065	0.013
318.15	0.963	0.0879	0.0176
333.15	0.963	0.1163	0.0233
308.15	1	0.0794	0.0159
298.15	1	0.0642	0.0128
323.15	1	0.1041	0.0208
328.15	1	0.1135	0.0227
313.15	1	0.0878	0.0176
288.15	1	0.0498	0.01
278.15	1	0.0389	0.0078
303.15	1	0.0717	0.0143
293.15	1	0.0563	0.0113
318.15	1	0.0961	0.0192
283.15	1	0.0444	0.0089
333.15	1	0.1235	0.0247

System: L-serine + water + propan-2-ol; phases: Liquid, Crystal
Fixed: Pressure, kPa = 101.3
Property: Mole fraction of L-serine (Liquid); method: Chromatography
Temperature, K	Solvent: Mole fraction of water	Mole fraction of L-serine	uncertainty
278.15	0	3e-06	1e-06
278.15	0.428	0.000514	0.000103
278.15	0.645	0.000729	0.000146
278.15	0.776	0.00261	0.000526
278.15	0.864	0.00752	0.001516
278.15	0.927	0.01704	0.003432
278.15	0.974	0.02979	0.005988
278.15	1	0.03892	0.007785
283.15	0	3e-06	1e-06
283.15	0.428	0.000534	0.000107
283.15	0.645	0.00101	0.000203
283.15	0.776	0.00316	0.000636
283.15	0.864	0.00901	0.001815
283.15	0.927	0.02014	0.004054
283.15	0.974	0.03427	0.006885
283.15	1	0.04436	0.008873
288.15	0	4e-06	1e-06
288.15	0.428	0.00056	0.000112
288.15	0.645	0.00144	0.000289
288.15	0.776	0.00415	0.000834
288.15	0.864	0.01085	0.002183
288.15	0.927	0.02277	0.00458
288.15	0.974	0.03801	0.007637
288.15	1	0.04979	0.009959
293.15	0	4e-06	1e-06
293.15	0.428	0.000601	0.00012
293.15	0.645	0.00195	0.000391
293.15	0.776	0.0053	0.001064
293.15	0.864	0.01289	0.002592
293.15	0.927	0.02623	0.005273
293.15	0.974	0.04241	0.008521
293.15	1	0.05629	0.01126
298.15	0	5e-06	1e-06
298.15	0.428	0.000646	0.000129
298.15	0.645	0.00257	0.000515
298.15	0.776	0.00666	0.001337
298.15	0.864	0.01519	0.003053
298.15	0.927	0.02981	0.005992
298.15	0.974	0.04814	0.009672
298.15	1	0.06416	0.012834
303.15	0	5e-06	1e-06
303.15	0.428	0.000695	0.000139
303.15	0.645	0.00316	0.000633
303.15	0.776	0.00823	0.001651
303.15	0.864	0.01797	0.003609
303.15	0.927	0.03385	0.006801
303.15	0.974	0.05411	0.010869
303.15	1	0.07166	0.014334
308.15	0	6e-06	1e-06
308.15	0.428	0.000754	0.000151
308.15	0.645	0.00383	0.000768
308.15	0.776	0.00964	0.001934
308.15	0.864	0.02076	0.004169
308.15	0.927	0.03838	0.007708
308.15	0.974	0.05966	0.011982
308.15	1	0.07938	0.015878
313.15	0	7e-06	2e-06
313.15	0.428	0.000814	0.000163
313.15	0.645	0.00462	0.000926
313.15	0.776	0.01159	0.002324
313.15	0.864	0.02361	0.004739
313.15	0.927	0.04282	0.008598
313.15	0.974	0.06584	0.013222
313.15	1	0.08775	0.017552
318.15	0	8e-06	2e-06
318.15	0.428	0.000878	0.000176
318.15	0.645	0.00527	0.001056
318.15	0.776	0.01292	0.002591
318.15	0.864	0.02635	0.005288
318.15	0.927	0.0469	0.009417
318.15	0.974	0.07231	0.01452
318.15	1	0.09605	0.019212
323.15	0	9e-06	2e-06
323.15	0.428	0.000945	0.00019
323.15	0.645	0.00632	0.001266
323.15	0.776	0.0152	0.003047
323.15	0.864	0.02873	0.005765
323.15	0.927	0.05164	0.010365
323.15	0.974	0.07734	0.01553
323.15	1	0.10412	0.020826
328.15	0	1e-05	2e-06
328.15	0.428	0.00101	0.000203
328.15	0.645	0.00702	0.001407
328.15	0.776	0.01732	0.003472
328.15	0.864	0.03299	0.006618
328.15	0.927	0.05641	0.011322
328.15	0.974	0.08581	0.017229
328.15	1	0.11352	0.022706
333.15	0	1.2e-05	2e-06
333.15	0.428	0.00107	0.000223
333.15	0.645	0.00844	0.001694
333.15	0.776	0.02025	0.00406
333.15	0.864	0.03669	0.00736
333.15	0.927	0.06136	0.012316
333.15	0.974	0.09278	0.018633
333.15	1	0.12354	0.02471

System: L-serine + water + methanol; phases: Liquid, Crystal
Fixed: Pressure, kPa = 101.3
Property: Mole fraction of L-serine (Liquid); method: Chromatography
Temperature, K	Solvent: Mole fraction of water	Mole fraction of L-serine	uncertainty
278.15	0	3.5e-05	7e-06
283.15	0	3.8e-05	8e-06
288.15	0	4.1e-05	8e-06
293.15	0	4.5e-05	9e-06
298.15	0	5e-05	1e-05
303.15	0	5.5e-05	1.1e-05
308.15	0	6.1e-05	1.2e-05
313.15	0	6.7e-05	1.3e-05
318.15	0	7.4e-05	1.5e-05
323.15	0	8.1e-05	1.6e-05
328.15	0	8.9e-05	1.8e-05
333.15	0	9.9e-05	2e-05
288.15	0.284	0.00326	0.00065
293.15	0.284	0.00365	0.00073
298.15	0.284	0.00425	0.00085
303.15	0.284	0.00488	0.00098
308.15	0.284	0.00576	0.00115
313.15	0.284	0.00675	0.00135
278.15	0.284	0.00266	0.00053
318.15	0.284	0.00782	0.00157
283.15	0.284	0.00286	0.00057
323.15	0.284	0.00921	0.00184
328.15	0.284	0.01092	0.00219
333.15	0.284	0.01302	0.00261
293.15	0.49	0.00774	0.00155
298.15	0.49	0.00909	0.00182
303.15	0.49	0.011	0.0022
278.15	0.49	0.00473	0.00095
308.15	0.49	0.01294	0.00259
313.15	0.49	0.01545	0.00309
288.15	0.49	0.00655	0.00131
318.15	0.49	0.01791	0.00358
323.15	0.49	0.02136	0.00428
283.15	0.49	0.00548	0.0011
328.15	0.49	0.02517	0.00504
333.15	0.49	0.02934	0.00587
278.15	0.648	0.00699	0.0014
303.15	0.648	0.02041	0.00409
293.15	0.648	0.01449	0.0029
308.15	0.648	0.02335	0.00467
313.15	0.648	0.02668	0.00534
288.15	0.648	0.01191	0.00238
318.15	0.648	0.03034	0.00607
323.15	0.648	0.03411	0.00683
328.15	0.648	0.03931	0.00787
283.15	0.648	0.00937	0.00188
298.15	0.648	0.01711	0.00343
333.15	0.648	0.04352	0.00871
293.15	0.771	0.02225	0.00445
308.15	0.771	0.03789	0.00758
283.15	0.771	0.01359	0.00272
313.15	0.771	0.04436	0.00888
298.15	0.771	0.02741	0.00549
318.15	0.771	0.05054	0.01012
288.15	0.771	0.01735	0.00347
278.15	0.771	0.0104	0.00208
323.15	0.771	0.05622	0.01125
303.15	0.771	0.03306	0.00662
328.15	0.771	0.06169	0.01235
333.15	0.771	0.06757	0.01353
313.15	0.871	0.06408	0.01282
308.15	0.871	0.05568	0.01114
318.15	0.871	0.07167	0.01434
288.15	0.871	0.02875	0.00576
298.15	0.871	0.0416	0.00833
323.15	0.871	0.07996	0.016
283.15	0.871	0.02328	0.00466
293.15	0.871	0.03479	0.00697
328.15	0.871	0.08974	0.01796
303.15	0.871	0.04905	0.00982
278.15	0.871	0.01894	0.0038
333.15	0.871	0.09878	0.01977
308.15	0.953	0.0733	0.01467
293.15	0.953	0.04971	0.00995
323.15	0.953	0.0995	0.01991
283.15	0.953	0.03716	0.00744
288.15	0.953	0.04292	0.00859
278.15	0.953	0.03196	0.0064
298.15	0.953	0.05718	0.01144
328.15	0.953	0.10899	0.0218
313.15	0.953	0.08175	0.01636
303.15	0.953	0.06492	0.01299
318.15	0.953	0.08974	0.01795
333.15	0.953	0.11805	0.02361
308.15	1	0.07938	0.01588
298.15	1	0.06416	0.01283
323.15	1	0.10412	0.02083
328.15	1	0.11352	0.02271
313.15	1	0.08775	0.01755
288.15	1	0.04979	0.00996
278.15	1	0.03892	0.00779
303.15	1	0.07166	0.01433
293.15	1	0.05629	0.01126
318.15	1	0.09605	0.01921
283.15	1	0.04436	0.00887
333.15	1	0.12354	0.02471

System: L-serine + water + acetone; phases: Liquid, Crystal
Fixed: Pressure, kPa = 101.3
Property: Mole fraction of L-serine (Liquid); method: Chromatography
Temperature, K	Solvent: Mole fraction of water	Mole fraction of L-serine	uncertainty
278.15	0	2.9e-05	6e-06
283.15	0	3.1e-05	6e-06
288.15	0	3.3e-05	7e-06
293.15	0	3.7e-05	7e-06
298.15	0	4.1e-05	8e-06
303.15	0	4.5e-05	9e-06
308.15	0	4.9e-05	1e-05
313.15	0	5.4e-05	1.1e-05
318.15	0	5.9e-05	1.2e-05
323.15	0	6.5e-05	1.3e-05
328.15	0	7.2e-05	1.4e-05
288.15	0.419	0.00392	0.00079
293.15	0.419	0.0048	0.00096
298.15	0.419	0.00663	0.00133
303.15	0.419	0.00889	0.00178
308.15	0.419	0.01118	0.00224
313.15	0.419	0.0147	0.00294
278.15	0.419	0.00166	0.00033
318.15	0.419	0.01818	0.00364
283.15	0.419	0.00254	0.00051
323.15	0.419	0.02304	0.00461
328.15	0.419	0.02788	0.00558
293.15	0.637	0.01535	0.00307
298.15	0.637	0.01841	0.00369
303.15	0.637	0.02277	0.00456
308.15	0.637	0.0272	0.00544
278.15	0.637	0.00789	0.00158
313.15	0.637	0.0321	0.00642
288.15	0.637	0.0126	0.00252
318.15	0.637	0.03783	0.00757
323.15	0.637	0.04437	0.00888
283.15	0.637	0.01016	0.00203
328.15	0.637	0.05171	0.01035
298.15	0.77	0.03068	0.00614
278.15	0.77	0.01669	0.00334
303.15	0.77	0.036	0.0072
308.15	0.77	0.04146	0.0083
293.15	0.77	0.02648	0.0053
313.15	0.77	0.04701	0.00941
283.15	0.77	0.02001	0.00401
318.15	0.77	0.05385	0.01078
288.15	0.77	0.0233	0.00466
323.15	0.77	0.06192	0.01239
328.15	0.77	0.07098	0.0142
303.15	0.86	0.04835	0.00968
283.15	0.86	0.02812	0.00563
298.15	0.86	0.04238	0.00848
308.15	0.86	0.055	0.01101
313.15	0.86	0.06173	0.01235
293.15	0.86	0.03703	0.00741
318.15	0.86	0.06938	0.01388
288.15	0.86	0.03279	0.00656
323.15	0.86	0.07718	0.01544
278.15	0.86	0.02376	0.00476
328.15	0.86	0.08482	0.01697
298.15	0.925	0.05206	0.01042
313.15	0.925	0.07481	0.01497
293.15	0.925	0.04617	0.00924
278.15	0.925	0.03053	0.00611
303.15	0.925	0.05944	0.01189
318.15	0.925	0.08291	0.01659
323.15	0.925	0.09178	0.01836
288.15	0.925	0.04066	0.00814
308.15	0.925	0.06704	0.01341
283.15	0.925	0.03519	0.00704
328.15	0.925	0.10046	0.0201
288.15	0.974	0.04586	0.00918
298.15	0.974	0.05886	0.01178
278.15	0.974	0.03611	0.00723
318.15	0.974	0.09132	0.01827
283.15	0.974	0.04101	0.00821
303.15	0.974	0.06662	0.01333
293.15	0.974	0.05213	0.01043
323.15	0.974	0.10004	0.02001
313.15	0.974	0.08276	0.01656
308.15	0.974	0.07461	0.01493
328.15	0.974	0.10876	0.02176
278.15	1	0.03892	0.00779
318.15	1	0.09605	0.01921
323.15	1	0.10412	0.02083
293.15	1	0.05629	0.01126
308.15	1	0.07938	0.01588
313.15	1	0.08775	0.01755
298.15	1	0.06416	0.01283
288.15	1	0.04979	0.00996
283.15	1	0.04436	0.00887
303.15	1	0.07166	0.01433
328.15	1	0.11352	0.02271
