Measured thermophysical data. Solubility of Sodium Oxalate in Concentrated Electrolyte Solutions
Source: J. Chem. Eng. Data, 2018, 10.1021/acs.jced.7b00690
Compound 1: water, H2O, InChI=1S/H2O/h1H2, purity 99.9%
Compound 2: cesium chloride, ClCs, InChI=1S/ClH.Cs/h1H;/q;+1/p-1, purity 99.9%
Compound 3: lithium chloride, ClLi, InChI=1S/ClH.Li/h1H;/q;+1/p-1, purity 99%
Compound 4: potassium chloride, ClK, InChI=1S/ClH.K/h1H;/q;+1/p-1, purity 99.8%
Compound 5: potassium hydroxide, HKO, InChI=1S/K.H2O/h;1H2/q+1;/p-1, purity 85%
Compound 6: sodium chloride, ClNa, InChI=1S/ClH.Na/h1H;/q;+1/p-1, purity 99.5%
Compound 7: sodium hydroxide, HNaO, InChI=1S/Na.H2O/h;1H2/q+1;/p-1, purity 97%
Compound 8: sodium oxalate, C2Na2O4, InChI=1S/C2H2O4.2Na/c3-1(4)2(5)6;;/h(H,3,4)(H,5,6);;/q;2*+1/p-2, purity 99.9%
Compound 9: sodium perchlorate, ClNaO4, InChI=1S/ClHO4.Na/c2-1(3,4)5;/h(H,2,3,4,5);/q;+1/p-1, purity 99%
Compound 10: tetramethylammonium chloride, C4H12ClN, InChI=1S/C4H12N.ClH/c1-5(2,3)4;/h1-4H3;1H/q+1;/p-1, purity 97%

System: sodium oxalate + water; phases: Liquid, Crystal
Property: Molality, mol/kg of sodium oxalate (Liquid); method: gravimetric
Temperature, K	Pressure, kPa	Molality, mol/kg of sodium oxalate	uncertainty
298.15	100	0.272	0.028

System: sodium oxalate + water; phases: Liquid, Crystal
Fixed: Pressure, kPa = 100
Property: Molality, mol/kg of sodium oxalate (Liquid); method: titration
Temperature, K	Molality, mol/kg of sodium oxalate	uncertainty
298.15	0.265	0.028
298.15	0.263	0.026
323.15	0.317	0.032
323.15	0.334	0.034
343.15	0.385	0.042
343.15	0.383	0.038

System: sodium oxalate + water; phases: Liquid
Fixed: Pressure, kPa = 100
Property: Mass density, kg/m3 (Liquid); method: Vibrating tube method
Temperature, K	Molality, mol/kg of sodium oxalate	Mass density, kg/m3	uncertainty
298.15	0.272	1020.9	8
298.15	0.265	1020.9	12.5
298.15	0.263	1025.1	55.2
323.15	0.317	1020.3	8.9
323.15	0.334	1022.4	9
343.15	0.385	1016.5	9.5

System: sodium oxalate + water + sodium chloride; phases: Liquid, Crystal
Fixed: Pressure, kPa = 100
Property: Molality, mol/kg of sodium oxalate (Liquid); method: titration
Temperature, K	Solvent: Molality, mol/kg of sodium chloride	Molality, mol/kg of sodium oxalate	uncertainty
298.15	0.506	0.132	0.024
298.15	1.02	0.0703	0.008
298.15	2.088	0.028	0.003
298.15	2.088	0.0318	0.0034
298.15	5.611	0.0043	0.0028
298.15	5.611	0.0042	0.0028
323.15	1.02	0.103	0.012
323.15	3.2	0.0214	0.0034
323.15	5.61	0.00705	0.0015
343.15	0.51	0.223	0.024
343.15	1.02	0.131	0.019
343.15	3.2	0.0273	0.0046
343.15	5.61	0.0099	0.0024
343.15	5.61	0.01	0.003

System: sodium oxalate + water + sodium chloride; phases: Liquid
Fixed: Pressure, kPa = 100
Property: Mass density, kg/m3 (Liquid); method: Vibrating tube method
Temperature, K	Solvent: Molality, mol/kg of sodium chloride	Molality, mol/kg of sodium oxalate	Mass density, kg/m3	uncertainty
298.15	0.506	0.132	1030.5	8
298.15	1.02	0.0703	1043.6	8.1
298.15	2.088	0.028	1073	9.3
298.15	2.088	0.0318	1067.1	9.6
298.15	5.611	0.0043	1181.7	10.6
298.15	5.611	0.0042	1183.3	10.7
323.15	1.02	0.103	1036	8.2
323.15	3.2	0.0214	1100.1	8.8
323.15	5.61	0.00705	1169.4	13.6
343.15	0.51	0.223	1019.5	8
343.15	1.02	0.131	1029.1	8.3
343.15	3.2	0.0273	1094.5	8.7
343.15	5.61	0.0099	1161.7	15.2

System: sodium oxalate + water + sodium perchlorate; phases: Liquid, Crystal
Fixed: Pressure, kPa = 100
Property: Molality, mol/kg of sodium oxalate (Liquid); method: titration
Temperature, K	Solvent: Molality, mol/kg of sodium perchlorate	Molality, mol/kg of sodium oxalate	uncertainty
298.15	0.521	0.143	0.022
298.15	1.04	0.078	0.013
298.15	1.04	0.085	0.011
298.15	3.5	0.013	0.008
298.15	10.9	0.0025	0.0009
298.15	13.8	0.0019	0.0064
323.15	1.04	0.084	0.008
323.15	3.5	0.0136	0.0017
323.15	11	0.0029	0.0007

System: sodium oxalate + water + sodium perchlorate; phases: Liquid
Fixed: Pressure, kPa = 100
Property: Mass density, kg/m3 (Liquid); method: Vibrating tube method
Temperature, K	Solvent: Molality, mol/kg of sodium perchlorate	Molality, mol/kg of sodium oxalate	Mass density, kg/m3	uncertainty
298.15	0.521	0.143	1046	16.5
298.15	1.04	0.078	1068.1	11.4
298.15	1.04	0.085	1063.5	10.5
298.15	3.5	0.013	1226.6	12.6
298.15	10.9	0.0025	1515.4	15.7
298.15	13.8	0.0019	1592.5	16.7
323.15	1.04	0.084	1078	8.8
323.15	3.5	0.0136	1224.4	9.8
323.15	11	0.0029	1530.4	19.7

System: sodium oxalate + water + sodium hydroxide; phases: Liquid, Crystal
Fixed: Pressure, kPa = 100
Property: Molality, mol/kg of sodium oxalate (Liquid); method: titration
Temperature, K	Solvent: Molality, mol/kg of sodium hydroxide	Molality, mol/kg of sodium oxalate	uncertainty
298.15	0.508	0.138	0.02
298.15	1.006	0.077	0.013
298.15	1.006	0.076	0.013
298.15	3.01	0.0177	0.004
298.15	5.09	0.0062	0.001
298.15	7.31	0.0049	0.0008
298.15	8.47	0.0037	0.0006
298.15	10.9	0.0009	0.0011
323.15	1	0.118	0.012
323.15	3.01	0.0272	0.0042
323.15	5.09	0.013	0.002
323.15	5.09	0.013	0.006
323.15	7.31	0.0046	0.0013
343.15	1	0.14	0.018
343.15	5.09	0.014	0.007
343.15	5.09	0.017	0.013

System: sodium oxalate + water + sodium hydroxide; phases: Liquid
Fixed: Pressure, kPa = 100
Property: Mass density, kg/m3 (Liquid); method: Vibrating tube method
Temperature, K	Solvent: Molality, mol/kg of sodium hydroxide	Molality, mol/kg of sodium oxalate	Mass density, kg/m3	uncertainty
298.15	0.508	0.138	1032	8
298.15	1.006	0.077	1045.6	8
298.15	1.006	0.076	1045.7	8
298.15	3.01	0.0177	1113.1	8
298.15	5.09	0.0062	1178.6	8
298.15	7.31	0.0049	1210.9	34.6
298.15	8.47	0.0037	1257.9	17.8
298.15	10.9	0.0009	1320.5	8
323.15	1	0.118	1037.1	8
323.15	3.01	0.0272	1102	8
323.15	5.09	0.013	1154.3	8
323.15	5.09	0.013	1150.4	8.2
323.15	7.31	0.0046	1212.2	8.4
343.15	1	0.14	1033.5	8
343.15	5.09	0.014	1160.4	14.1

System: sodium oxalate + water + potassium chloride; phases: Liquid, Crystal
Fixed: Temperature, K = 298.15
Fixed: Pressure, kPa = 100
Property: Molality, mol/kg of sodium oxalate (Liquid); method: titration
Solvent: Molality, mol/kg of potassium chloride	Molality, mol/kg of sodium oxalate	uncertainty
0.5	0.306	0.03
1	0.329	0.034
1	0.323	0.032
3	0.354	0.036
3.999	0.348	0.038

System: sodium oxalate + water + potassium chloride; phases: Liquid
Fixed: Temperature, K = 298.15
Fixed: Pressure, kPa = 100
Property: Mass density, kg/m3 (Liquid); method: Vibrating tube method
Solvent: Molality, mol/kg of potassium chloride	Molality, mol/kg of sodium oxalate	Mass density, kg/m3	uncertainty
0.5	0.306	1050.5	8.2
1	0.329	1072.7	8.3
1	0.323	1072.3	8.3
3	0.354	1146.5	16.2
3.999	0.348	1175	16.9

System: sodium oxalate + water + cesium chloride; phases: Liquid, Crystal
Fixed: Pressure, kPa = 100
Property: Molality, mol/kg of sodium oxalate (Liquid); method: titration
Temperature, K	Solvent: Molality, mol/kg of cesium chloride	Molality, mol/kg of sodium oxalate	uncertainty
298.15	0.5	0.304	0.03
298.15	1	0.329	0.034
298.15	3.001	0.355	0.036
298.15	5	0.376	0.038
323.15	1.026	0.372	0.038
323.15	4	0.469	0.048
323.15	5	0.461	0.046
343.15	1	0.429	0.042
343.15	4	0.483	0.048
343.15	5	0.522	0.054

System: sodium oxalate + water + cesium chloride; phases: Liquid
Fixed: Pressure, kPa = 100
Property: Mass density, kg/m3 (Liquid); method: Vibrating tube method
Temperature, K	Solvent: Molality, mol/kg of cesium chloride	Molality, mol/kg of sodium oxalate	Mass density, kg/m3	uncertainty
298.15	0.5	0.304	1089.6	8.2
298.15	1	0.329	1148.6	8.6
298.15	3.001	0.355	1354.9	8.7
298.15	5	0.376	1525.9	8.7
323.15	1.026	0.372	1158.5	8.4
323.15	4	0.469	1416.3	8.2
323.15	5	0.461	1498	8.3
343.15	1	0.429	1140.2	10.1
343.15	4	0.483	1416.6	9.1
343.15	5	0.522	1494.2	8

System: sodium oxalate + water + potassium hydroxide; phases: Liquid, Crystal
Fixed: Temperature, K = 298.15
Fixed: Pressure, kPa = 100
Property: Molality, mol/kg of sodium oxalate (Liquid); method: titration
Solvent: Molality, mol/kg of potassium hydroxide	Molality, mol/kg of sodium oxalate	uncertainty
0.5	0.313	0.034
1	0.336	0.034
1	0.333	0.034
2.999	0.373	0.038
4.998	0.364	0.036

System: sodium oxalate + water + potassium hydroxide; phases: Liquid
Fixed: Temperature, K = 298.15
Fixed: Pressure, kPa = 100
Property: Mass density, kg/m3 (Liquid); method: Vibrating tube method
Solvent: Molality, mol/kg of potassium hydroxide	Molality, mol/kg of sodium oxalate	Mass density, kg/m3	uncertainty
0.5	0.313	1052.5	8
1	0.336	1077.3	8
1	0.333	1076.7	8
2.999	0.373	1160.3	8
4.998	0.364	1226.2	8

System: sodium oxalate + water + tetramethylammonium chloride; phases: Liquid, Crystal
Fixed: Temperature, K = 298.15
Fixed: Pressure, kPa = 100
Property: Molality, mol/kg of sodium oxalate (Liquid); method: titration
Solvent: Molality, mol/kg of tetramethylammonium chloride	Molality, mol/kg of sodium oxalate	uncertainty
0.501	0.249	0.026
1	0.227	0.026
3	0.149	0.014
3	0.146	0.014
5	0.113	0.012

System: sodium oxalate + water + tetramethylammonium chloride; phases: Liquid
Fixed: Temperature, K = 298.15
Fixed: Pressure, kPa = 100
Property: Mass density, kg/m3 (Liquid); method: Vibrating tube method
Solvent: Molality, mol/kg of tetramethylammonium chloride	Molality, mol/kg of sodium oxalate	Mass density, kg/m3	uncertainty
0.501	0.249	1023.4	8
1	0.227	1018.6	8
3	0.149	1010.4	8
3	0.146	1010.4	8
5	0.113	999.8	8

System: sodium oxalate + water + lithium chloride; phases: Liquid, Crystal
Fixed: Temperature, K = 298.15
Fixed: Pressure, kPa = 100
Property: Molality, mol/kg of sodium oxalate (Liquid); method: titration
Solvent: Molality, mol/kg of lithium chloride	Molality, mol/kg of sodium oxalate	uncertainty
0.499	0.301	0.03
1.001	0.32	0.032
1.001	0.321	0.032

System: sodium oxalate + water + lithium chloride; phases: Liquid
Fixed: Temperature, K = 298.15
Fixed: Pressure, kPa = 100
Property: Mass density, kg/m3 (Liquid); method: Vibrating tube method
Solvent: Amount concentration (molarity), mol/dm3 of lithium chloride	Molality, mol/kg of sodium oxalate	Mass density, kg/m3	uncertainty
0.499	0.301	1038.2	8
1.001	0.32	1049.6	8.1
1.001	0.321	1050.1	8.1
