Measured thermophysical data. Isopiestic Measurements of Water Activities for an Arsenic Acid Aqueous Solution at 298.15 K
Source: J. Chem. Eng. Data, 2017, 10.1021/acs.jced.7b00349
Compound 1: arsenic acid, AsH3O4, InChI=1S/AsH3O4/c2-1(3,4)5/h(H3,2,3,4,5), purity 99.95%
Compound 2: water, H2O, InChI=1S/H2O/h1H2, purity 99.8%

System: arsenic acid + water; phases: Liquid
Fixed: Temperature, K = 298.15
Fixed: Pressure, kPa = 100
Property: (Relative) activity of water (Liquid); method: ISOPIE
Molality, mol/kg of arsenic acid	(Relative) activity of water	uncertainty
0.0011	1	0.05
0.0023	0.9999	0.05
0.0042	0.9999	0.05
0.0064	0.9998	0.05
0.0082	0.9998	0.05
0.0105	0.9997	0.05
0.0203	0.9995	0.05
0.0406	0.999	0.05
0.0608	0.9986	0.05
0.0802	0.9982	0.05
0.1008	0.9978	0.05
0.2012	0.9957	0.05
0.3014	0.9937	0.05
0.3324	0.9925	0.05
0.8527	0.9833	0.05
1.3278	0.9736	0.05
1.7958	0.9634	0.05
2.3723	0.9508	0.05
2.9038	0.938	0.05
3.3744	0.9265	0.05
3.6253	0.9205	0.05
3.9651	0.9116	0.05
5.2355	0.8742	0.05
7.7286	0.8026	0.05
10.7306	0.7223	0.05
14.8903	0.6068	0.05
17.8124	0.5281	0.05
