Measured thermophysical data. Solubilities of Organic Semiconductors and Nonsteroidal Anti-inflammatory Drugs in Pure and Mixed Organic Solvents: Measurement and Modeling with Hansen Solubility Parameter
Source: J. Chem. Eng. Data, 2018, 10.1021/acs.jced.8b00536
Compound 1: propan-1-ol, C3H8O, InChI=1S/C3H8O/c1-2-3-4/h4H,2-3H2,1H3
Compound 2: (S)-(+)-naproxen, C14H14O3, InChI=1S/C14H14O3/c1-9(14(15)16)10-3-4-12-8-13(17-2)6-5-11(12)7-10/h3-9H,1-2H3,(H,15,16)/t9-/m0/s1
Compound 3: propan-2-ol, C3H8O, InChI=1S/C3H8O/c1-3(2)4/h3-4H,1-2H3
Compound 4: ethyl acetate, C4H8O2, InChI=1S/C4H8O2/c1-3-6-4(2)5/h3H2,1-2H3
Compound 5: 1-(4-chlorobenzoyl)-5-methoxy-2-methyl-1H-indole-3-acetic acid, C19H16ClNO4, InChI=1S/C19H16ClNO4/c1-11-15(10-18(22)23)16-9-14(25-2)7-8-17(16)21(11)19(24)12-3-5-13(20)6-4-12/h3-9H,10H2,1-2H3,(H,22,23)
Compound 6: methanol, CH4O, InChI=1S/CH4O/c1-2/h2H,1H3
Compound 7: ethanol, C2H6O, InChI=1S/C2H6O/c1-2-3/h3H,2H2,1H3
Compound 8: anthracene, C14H10, InChI=1S/C14H10/c1-2-6-12-10-14-8-4-3-7-13(14)9-11(12)5-1/h1-10H
Compound 9: perylene, C20H12, InChI=1S/C20H12/c1-5-13-6-2-11-17-18-12-4-8-14-7-3-10-16(20(14)18)15(9-1)19(13)17/h1-12H
Compound 10: acetonitrile, C2H3N, InChI=1S/C2H3N/c1-2-3/h1H3
Compound 11: hexane, C6H14, InChI=1S/C6H14/c1-3-5-6-4-2/h3-6H2,1-2H3
Compound 12: acetone, C3H6O, InChI=1S/C3H6O/c1-3(2)4/h1-2H3
Compound 13: tetrachloromethane, CCl4, InChI=1S/CCl4/c2-1(3,4)5
Compound 14: chlorobenzene, C6H5Cl, InChI=1S/C6H5Cl/c7-6-4-2-1-3-5-6/h1-5H
Compound 15: trichloromethane, CHCl3, InChI=1S/CHCl3/c2-1(3)4/h1H
Compound 16: (2-((2,6-dichlorophenyl)amino)phenyl)acetic acid, C14H11Cl2NO2, InChI=1S/C14H11Cl2NO2/c15-10-5-3-6-11(16)14(10)17-12-7-2-1-4-9(12)8-13(18)19/h1-7,17H,8H2,(H,18,19)
Compound 17: 2-[[3-(trifluoromethyl)phenyl]amino]-3-pyridinecarboxylic acid, C13H9F3N2O2, InChI=1S/C13H9F3N2O2/c14-13(15,16)8-3-1-4-9(7-8)18-11-10(12(19)20)5-2-6-17-11/h1-7H,(H,17,18)(H,19,20)
Compound 18: pentane, C5H12, InChI=1S/C5H12/c1-3-5-4-2/h3-5H2,1-2H3
Compound 19: heptane, C7H16, InChI=1S/C7H16/c1-3-5-7-6-4-2/h3-7H2,1-2H3
Compound 20: cyclohexane, C6H12, InChI=1S/C6H12/c1-2-4-6-5-3-1/h1-6H2
Compound 21: 1,2-ethanediol, C2H6O2, InChI=1S/C2H6O2/c3-1-2-4/h3-4H,1-2H2
Compound 22: toluene, C7H8, InChI=1S/C7H8/c1-7-5-3-2-4-6-7/h2-6H,1H3
Compound 23: N,N'-di(1-naphthyl)-N,N'-diphenyl benzidine, C44H32N2, InChI=1S/C44H32N2/c1-3-17-37(18-4-1)45(43-23-11-15-35-13-7-9-21-41(35)43)39-29-25-33(26-30-39)34-27-31-40(32-28-34)46(38-19-5-2-6-20-38)44-24-12-16-36-14-8-10-22-42(36)44/h1-32H
Compound 24: 4,4'-bis(N-carbazole)biphenyl, C36H24N2, InChI=1S/C36H24N2/c1-5-13-33-29(9-1)30-10-2-6-14-34(30)37(33)27-21-17-25(18-22-27)26-19-23-28(24-20-26)38-35-15-7-3-11-31(35)32-12-4-8-16-36(32)38/h1-24H
Compound 25: 2,3-benzanthracene, C18H12, InChI=1S/C18H12/c1-2-6-14-10-18-12-16-8-4-3-7-15(16)11-17(18)9-13(14)5-1/h1-12H

System: N,N'-di(1-naphthyl)-N,N'-diphenyl benzidine; phases: Crystal, Liquid, Air at 1 atmosphere
Property: Triple point temperature, K (Crystal); method: DSC
Triple point temperature, K	uncertainty
551.75	1.22

System: N,N'-di(1-naphthyl)-N,N'-diphenyl benzidine; phases: Crystal, Liquid, Air at 1 atmosphere
Property: Molar enthalpy of transition or fusion, kJ/mol (Crystal); method: DSC
Molar enthalpy of transition or fusion, kJ/mol	uncertainty
58.9	6

System: 4,4'-bis(N-carbazole)biphenyl; phases: Crystal, Liquid, Air at 1 atmosphere
Property: Triple point temperature, K (Crystal); method: DSC
Triple point temperature, K	uncertainty
555.35	1.22

System: 4,4'-bis(N-carbazole)biphenyl; phases: Crystal, Liquid, Air at 1 atmosphere
Property: Molar enthalpy of transition or fusion, kJ/mol (Crystal); method: DSC
Molar enthalpy of transition or fusion, kJ/mol	uncertainty
41.9	4.3

System: 2,3-benzanthracene; phases: Crystal, Liquid, Air at 1 atmosphere
Property: Triple point temperature, K (Crystal); method: DSC
Triple point temperature, K	uncertainty
623.75	1.22

System: 2,3-benzanthracene; phases: Crystal, Liquid, Air at 1 atmosphere
Property: Molar enthalpy of transition or fusion, kJ/mol (Crystal); method: DSC
Molar enthalpy of transition or fusion, kJ/mol	uncertainty
37.4	3.8

System: propan-1-ol + (S)-(+)-naproxen; phases: Liquid, Crystal
Property: Mole fraction of (S)-(+)-naproxen (Liquid); method: Chromatography
Temperature, K	Pressure, kPa	Mole fraction of (S)-(+)-naproxen	uncertainty
298.15	100	0.0133	0.0013

System: propan-1-ol + (S)-(+)-naproxen; phases: Liquid, Crystal
Property: Mass density, kg/m3 (Liquid); method: Pycnometric method
Temperature, K	Pressure, kPa	Mass density, kg/m3	uncertainty
298.15	100	785	31

System: propan-2-ol + (S)-(+)-naproxen; phases: Liquid, Crystal
Property: Mole fraction of (S)-(+)-naproxen (Liquid); method: Chromatography
Temperature, K	Pressure, kPa	Mole fraction of (S)-(+)-naproxen	uncertainty
298.15	100	0.0126	0.0013

System: propan-2-ol + (S)-(+)-naproxen; phases: Liquid, Crystal
Property: Mass density, kg/m3 (Liquid); method: Pycnometric method
Temperature, K	Pressure, kPa	Mass density, kg/m3	uncertainty
298.15	100	775	31

System: ethyl acetate + (S)-(+)-naproxen; phases: Liquid, Crystal
Property: Mole fraction of (S)-(+)-naproxen (Liquid); method: Chromatography
Temperature, K	Pressure, kPa	Mole fraction of (S)-(+)-naproxen	uncertainty
298.15	100	0.0244	0.0024

System: ethyl acetate + (S)-(+)-naproxen; phases: Liquid, Crystal
Property: Mass density, kg/m3 (Liquid); method: Pycnometric method
Temperature, K	Pressure, kPa	Mass density, kg/m3	uncertainty
298.15	100	906	36

System: 1-(4-chlorobenzoyl)-5-methoxy-2-methyl-1H-indole-3-acetic acid + methanol; phases: Liquid, Crystal
Property: Mole fraction of 1-(4-chlorobenzoyl)-5-methoxy-2-methyl-1H-indole-3-acetic acid (Liquid); method: Chromatography
Temperature, K	Pressure, kPa	Mole fraction of 1-(4-chlorobenzoyl)-5-methoxy-2-methyl-1H-indole-3-acetic acid	uncertainty
298.15	100	0.00228	0.00023

System: 1-(4-chlorobenzoyl)-5-methoxy-2-methyl-1H-indole-3-acetic acid + methanol; phases: Liquid, Crystal
Property: Mass density, kg/m3 (Liquid); method: Pycnometric method
Temperature, K	Pressure, kPa	Mass density, kg/m3	uncertainty
298.15	100	783	31

System: 1-(4-chlorobenzoyl)-5-methoxy-2-methyl-1H-indole-3-acetic acid + ethyl acetate; phases: Liquid, Crystal
Property: Mole fraction of 1-(4-chlorobenzoyl)-5-methoxy-2-methyl-1H-indole-3-acetic acid (Liquid); method: Chromatography
Temperature, K	Pressure, kPa	Mole fraction of 1-(4-chlorobenzoyl)-5-methoxy-2-methyl-1H-indole-3-acetic acid	uncertainty
298.15	100	0.0111	0.0011

System: 1-(4-chlorobenzoyl)-5-methoxy-2-methyl-1H-indole-3-acetic acid + ethyl acetate; phases: Liquid, Crystal
Property: Mass density, kg/m3 (Liquid); method: Pycnometric method
Temperature, K	Pressure, kPa	Mass density, kg/m3	uncertainty
298.15	100	900	36

System: ethanol + N,N'-di(1-naphthyl)-N,N'-diphenyl benzidine; phases: Liquid, Crystal
Property: Mole fraction of N,N'-di(1-naphthyl)-N,N'-diphenyl benzidine (Liquid); method: Chromatography
Temperature, K	Pressure, kPa	Mole fraction of N,N'-di(1-naphthyl)-N,N'-diphenyl benzidine	uncertainty
298.15	100	5.8e-07	5.8e-08

System: ethanol + N,N'-di(1-naphthyl)-N,N'-diphenyl benzidine; phases: Liquid, Crystal
Property: Mass density, kg/m3 (Liquid); method: Pycnometric method
Temperature, K	Pressure, kPa	Mass density, kg/m3	uncertainty
298.15	100	777	31

System: ethanol + 4,4'-bis(N-carbazole)biphenyl; phases: Liquid, Crystal
Property: Mole fraction of 4,4'-bis(N-carbazole)biphenyl (Liquid); method: Chromatography
Temperature, K	Pressure, kPa	Mole fraction of 4,4'-bis(N-carbazole)biphenyl	uncertainty
298.15	100	2.25e-06	2.3e-07

System: ethanol + 4,4'-bis(N-carbazole)biphenyl; phases: Liquid, Crystal
Property: Mass density, kg/m3 (Liquid); method: Pycnometric method
Temperature, K	Pressure, kPa	Mass density, kg/m3	uncertainty
298.15	100	779	31

System: ethanol + anthracene; phases: Liquid, Crystal
Property: Mole fraction of anthracene (Liquid); method: Chromatography
Temperature, K	Pressure, kPa	Mole fraction of anthracene	uncertainty
298.15	100	0.000428	4.3e-05

System: ethanol + anthracene; phases: Liquid, Crystal
Property: Mass density, kg/m3 (Liquid); method: Pycnometric method
Temperature, K	Pressure, kPa	Mass density, kg/m3	uncertainty
298.15	100	785	31

System: ethanol + 2,3-benzanthracene; phases: Liquid, Crystal
Property: Mole fraction of 2,3-benzanthracene (Liquid); method: Chromatography
Temperature, K	Pressure, kPa	Mole fraction of 2,3-benzanthracene	uncertainty
298.15	100	6.91e-06	6.9e-07

System: ethanol + 2,3-benzanthracene; phases: Liquid, Crystal
Property: Mass density, kg/m3 (Liquid); method: Pycnometric method
Temperature, K	Pressure, kPa	Mass density, kg/m3	uncertainty
298.15	100	778	31

System: ethanol + perylene; phases: Liquid, Crystal
Property: Mole fraction of perylene (Liquid); method: Chromatography
Temperature, K	Pressure, kPa	Mole fraction of perylene	uncertainty
298.15	100	2.42e-05	2.4e-06

System: ethanol + perylene; phases: Liquid, Crystal
Property: Mass density, kg/m3 (Liquid); method: Pycnometric method
Temperature, K	Pressure, kPa	Mass density, kg/m3	uncertainty
298.15	100	780	31

System: acetonitrile + N,N'-di(1-naphthyl)-N,N'-diphenyl benzidine; phases: Liquid, Crystal
Property: Mole fraction of N,N'-di(1-naphthyl)-N,N'-diphenyl benzidine (Liquid); method: Chromatography
Temperature, K	Pressure, kPa	Mole fraction of N,N'-di(1-naphthyl)-N,N'-diphenyl benzidine	uncertainty
298.15	100	1.64e-06	1.6e-07

System: acetonitrile + N,N'-di(1-naphthyl)-N,N'-diphenyl benzidine; phases: Liquid, Crystal
Property: Mass density, kg/m3 (Liquid); method: Pycnometric method
Temperature, K	Pressure, kPa	Mass density, kg/m3	uncertainty
298.15	100	773	31

System: acetonitrile + 4,4'-bis(N-carbazole)biphenyl; phases: Liquid, Crystal
Property: Mole fraction of 4,4'-bis(N-carbazole)biphenyl (Liquid); method: Chromatography
Temperature, K	Pressure, kPa	Mole fraction of 4,4'-bis(N-carbazole)biphenyl	uncertainty
298.15	100	7.54e-06	7.5e-07

System: acetonitrile + 4,4'-bis(N-carbazole)biphenyl; phases: Liquid, Crystal
Property: Mass density, kg/m3 (Liquid); method: Pycnometric method
Temperature, K	Pressure, kPa	Mass density, kg/m3	uncertainty
298.15	100	777	31

System: acetonitrile + anthracene; phases: Liquid, Crystal
Property: Mole fraction of anthracene (Liquid); method: Chromatography
Temperature, K	Pressure, kPa	Mole fraction of anthracene	uncertainty
298.15	100	0.000765	7.7e-05

System: acetonitrile + anthracene; phases: Liquid, Crystal
Property: Mass density, kg/m3 (Liquid); method: Pycnometric method
Temperature, K	Pressure, kPa	Mass density, kg/m3	uncertainty
298.15	100	780	31

System: acetonitrile + 2,3-benzanthracene; phases: Liquid, Crystal
Property: Mole fraction of 2,3-benzanthracene (Liquid); method: Chromatography
Temperature, K	Pressure, kPa	Mole fraction of 2,3-benzanthracene	uncertainty
298.15	100	7.97e-06	8e-07

System: acetonitrile + 2,3-benzanthracene; phases: Liquid, Crystal
Property: Mass density, kg/m3 (Liquid); method: Pycnometric method
Temperature, K	Pressure, kPa	Mass density, kg/m3	uncertainty
298.15	100	775	31

System: acetonitrile + perylene; phases: Liquid, Crystal
Property: Mole fraction of perylene (Liquid); method: Chromatography
Temperature, K	Pressure, kPa	Mole fraction of perylene	uncertainty
298.15	100	4.68e-05	4.7e-06

System: acetonitrile + perylene; phases: Liquid, Crystal
Property: Mass density, kg/m3 (Liquid); method: Pycnometric method
Temperature, K	Pressure, kPa	Mass density, kg/m3	uncertainty
298.15	100	778	31

System: hexane + N,N'-di(1-naphthyl)-N,N'-diphenyl benzidine; phases: Liquid, Crystal
Property: Mole fraction of N,N'-di(1-naphthyl)-N,N'-diphenyl benzidine (Liquid); method: Chromatography
Temperature, K	Pressure, kPa	Mole fraction of N,N'-di(1-naphthyl)-N,N'-diphenyl benzidine	uncertainty
298.15	100	3.31e-06	3.3e-07

System: hexane + N,N'-di(1-naphthyl)-N,N'-diphenyl benzidine; phases: Liquid, Crystal
Property: Mass density, kg/m3 (Liquid); method: Pycnometric method
Temperature, K	Pressure, kPa	Mass density, kg/m3	uncertainty
298.15	100	654	26

System: hexane + 4,4'-bis(N-carbazole)biphenyl; phases: Liquid, Crystal
Property: Mole fraction of 4,4'-bis(N-carbazole)biphenyl (Liquid); method: Chromatography
Temperature, K	Pressure, kPa	Mole fraction of 4,4'-bis(N-carbazole)biphenyl	uncertainty
298.15	100	9.41e-06	9.4e-07

System: hexane + 4,4'-bis(N-carbazole)biphenyl; phases: Liquid, Crystal
Property: Mass density, kg/m3 (Liquid); method: Pycnometric method
Temperature, K	Pressure, kPa	Mass density, kg/m3	uncertainty
298.15	100	660	26

System: hexane + anthracene; phases: Liquid, Crystal
Property: Mole fraction of anthracene (Liquid); method: Chromatography
Temperature, K	Pressure, kPa	Mole fraction of anthracene	uncertainty
298.15	100	0.0012	0.00012

System: hexane + anthracene; phases: Liquid, Crystal
Property: Mass density, kg/m3 (Liquid); method: Pycnometric method
Temperature, K	Pressure, kPa	Mass density, kg/m3	uncertainty
298.15	100	658	26

System: 2,3-benzanthracene + hexane; phases: Liquid, Crystal
Property: Mole fraction of 2,3-benzanthracene (Liquid); method: Chromatography
Temperature, K	Pressure, kPa	Mole fraction of 2,3-benzanthracene	uncertainty
298.15	100	1.5e-05	1.5e-06

System: 2,3-benzanthracene + hexane; phases: Liquid, Crystal
Property: Mass density, kg/m3 (Liquid); method: Pycnometric method
Temperature, K	Pressure, kPa	Mass density, kg/m3	uncertainty
298.15	100	650	26

System: hexane + perylene; phases: Liquid, Crystal
Property: Mole fraction of perylene (Liquid); method: Chromatography
Temperature, K	Pressure, kPa	Mole fraction of perylene	uncertainty
298.15	100	5.53e-05	5.5e-06

System: hexane + perylene; phases: Liquid, Crystal
Property: Mass density, kg/m3 (Liquid); method: Pycnometric method
Temperature, K	Pressure, kPa	Mass density, kg/m3	uncertainty
298.15	100	657	26

System: acetone + N,N'-di(1-naphthyl)-N,N'-diphenyl benzidine; phases: Liquid, Crystal
Property: Mole fraction of N,N'-di(1-naphthyl)-N,N'-diphenyl benzidine (Liquid); method: Chromatography
Temperature, K	Pressure, kPa	Mole fraction of N,N'-di(1-naphthyl)-N,N'-diphenyl benzidine	uncertainty
298.15	100	2.02e-05	2e-06

System: acetone + N,N'-di(1-naphthyl)-N,N'-diphenyl benzidine; phases: Liquid, Crystal
Property: Mass density, kg/m3 (Liquid); method: Pycnometric method
Temperature, K	Pressure, kPa	Mass density, kg/m3	uncertainty
298.15	100	783	31

System: acetone + 4,4'-bis(N-carbazole)biphenyl; phases: Liquid, Crystal
Property: Mole fraction of 4,4'-bis(N-carbazole)biphenyl (Liquid); method: Chromatography
Temperature, K	Pressure, kPa	Mole fraction of 4,4'-bis(N-carbazole)biphenyl	uncertainty
298.15	100	0.000153	1.5e-05

System: acetone + 4,4'-bis(N-carbazole)biphenyl; phases: Liquid, Crystal
Property: Mass density, kg/m3 (Liquid); method: Pycnometric method
Temperature, K	Pressure, kPa	Mass density, kg/m3	uncertainty
298.15	100	786	31

System: acetone + anthracene; phases: Liquid, Crystal
Property: Mole fraction of anthracene (Liquid); method: Chromatography
Temperature, K	Pressure, kPa	Mole fraction of anthracene	uncertainty
298.15	100	0.00318	0.00032

System: acetone + anthracene; phases: Liquid, Crystal
Property: Mass density, kg/m3 (Liquid); method: Pycnometric method
Temperature, K	Pressure, kPa	Mass density, kg/m3	uncertainty
298.15	100	790	32

System: acetone + 2,3-benzanthracene; phases: Liquid, Crystal
Property: Mole fraction of 2,3-benzanthracene (Liquid); method: Chromatography
Temperature, K	Pressure, kPa	Mole fraction of 2,3-benzanthracene	uncertainty
298.15	100	3.27e-05	3.3e-06

System: acetone + 2,3-benzanthracene; phases: Liquid, Crystal
Property: Mass density, kg/m3 (Liquid); method: Pycnometric method
Temperature, K	Pressure, kPa	Mass density, kg/m3	uncertainty
298.15	100	785	31

System: acetone + perylene; phases: Liquid, Crystal
Property: Mole fraction of perylene (Liquid); method: Chromatography
Temperature, K	Pressure, kPa	Mole fraction of perylene	uncertainty
298.15	100	0.000301	3e-05

System: acetone + perylene; phases: Liquid, Crystal
Property: Mass density, kg/m3 (Liquid); method: Pycnometric method
Temperature, K	Pressure, kPa	Mass density, kg/m3	uncertainty
298.15	100	781	31

System: tetrachloromethane + N,N'-di(1-naphthyl)-N,N'-diphenyl benzidine; phases: Liquid, Crystal
Property: Mole fraction of N,N'-di(1-naphthyl)-N,N'-diphenyl benzidine (Liquid); method: Chromatography
Temperature, K	Pressure, kPa	Mole fraction of N,N'-di(1-naphthyl)-N,N'-diphenyl benzidine	uncertainty
298.15	100	0.000215	2.2e-05

System: tetrachloromethane + N,N'-di(1-naphthyl)-N,N'-diphenyl benzidine; phases: Liquid, Crystal
Property: Mass density, kg/m3 (Liquid); method: Pycnometric method
Temperature, K	Pressure, kPa	Mass density, kg/m3	uncertainty
298.15	100	1565	63

System: tetrachloromethane + 4,4'-bis(N-carbazole)biphenyl; phases: Liquid, Crystal
Property: Mole fraction of 4,4'-bis(N-carbazole)biphenyl (Liquid); method: Chromatography
Temperature, K	Pressure, kPa	Mole fraction of 4,4'-bis(N-carbazole)biphenyl	uncertainty
298.15	100	0.000997	0.0001

System: tetrachloromethane + 4,4'-bis(N-carbazole)biphenyl; phases: Liquid, Crystal
Property: Mass density, kg/m3 (Liquid); method: Pycnometric method
Temperature, K	Pressure, kPa	Mass density, kg/m3	uncertainty
298.15	100	1568	63

System: tetrachloromethane + anthracene; phases: Liquid, Crystal
Property: Mole fraction of anthracene (Liquid); method: Chromatography
Temperature, K	Pressure, kPa	Mole fraction of anthracene	uncertainty
298.15	100	0.00481	0.00048

System: tetrachloromethane + anthracene; phases: Liquid, Crystal
Property: Mass density, kg/m3 (Liquid); method: Pycnometric method
Temperature, K	Pressure, kPa	Mass density, kg/m3	uncertainty
298.15	100	1548	62

System: tetrachloromethane + 2,3-benzanthracene; phases: Liquid, Crystal
Property: Mole fraction of 2,3-benzanthracene (Liquid); method: Chromatography
Temperature, K	Pressure, kPa	Mole fraction of 2,3-benzanthracene	uncertainty
298.15	100	4.61e-05	4.6e-06

System: tetrachloromethane + 2,3-benzanthracene; phases: Liquid, Crystal
Property: Mass density, kg/m3 (Liquid); method: Pycnometric method
Temperature, K	Pressure, kPa	Mass density, kg/m3	uncertainty
298.15	100	1553	62

System: tetrachloromethane + perylene; phases: Liquid, Crystal
Property: Mole fraction of perylene (Liquid); method: Chromatography
Temperature, K	Pressure, kPa	Mole fraction of perylene	uncertainty
298.15	100	0.000444	4.4e-05

System: tetrachloromethane + perylene; phases: Liquid, Crystal
Property: Mass density, kg/m3 (Liquid); method: Pycnometric method
Temperature, K	Pressure, kPa	Mass density, kg/m3	uncertainty
298.15	100	1562	63

System: chlorobenzene + N,N'-di(1-naphthyl)-N,N'-diphenyl benzidine; phases: Liquid, Crystal
Property: Mole fraction of N,N'-di(1-naphthyl)-N,N'-diphenyl benzidine (Liquid); method: Chromatography
Temperature, K	Pressure, kPa	Mole fraction of N,N'-di(1-naphthyl)-N,N'-diphenyl benzidine	uncertainty
298.15	100	0.00125	0.00013

System: chlorobenzene + N,N'-di(1-naphthyl)-N,N'-diphenyl benzidine; phases: Liquid, Crystal
Property: Mass density, kg/m3 (Liquid); method: Pycnometric method
Temperature, K	Pressure, kPa	Mass density, kg/m3	uncertainty
298.15	100	1089	44

System: chlorobenzene + 4,4'-bis(N-carbazole)biphenyl; phases: Liquid, Crystal
Property: Mole fraction of 4,4'-bis(N-carbazole)biphenyl (Liquid); method: Chromatography
Temperature, K	Pressure, kPa	Mole fraction of 4,4'-bis(N-carbazole)biphenyl	uncertainty
298.15	100	0.00491	0.00049

System: chlorobenzene + 4,4'-bis(N-carbazole)biphenyl; phases: Liquid, Crystal
Property: Mass density, kg/m3 (Liquid); method: Pycnometric method
Temperature, K	Pressure, kPa	Mass density, kg/m3	uncertainty
298.15	100	1087	44

System: chlorobenzene + anthracene; phases: Liquid, Crystal
Property: Mole fraction of anthracene (Liquid); method: Chromatography
Temperature, K	Pressure, kPa	Mole fraction of anthracene	uncertainty
298.15	100	0.00946	0.00095

System: chlorobenzene + anthracene; phases: Liquid, Crystal
Property: Mass density, kg/m3 (Liquid); method: Pycnometric method
Temperature, K	Pressure, kPa	Mass density, kg/m3	uncertainty
298.15	100	1079	43

System: 2,3-benzanthracene + chlorobenzene; phases: Liquid, Crystal
Property: Mole fraction of 2,3-benzanthracene (Liquid); method: Chromatography
Temperature, K	Pressure, kPa	Mole fraction of 2,3-benzanthracene	uncertainty
298.15	100	0.00014	1.4e-05

System: 2,3-benzanthracene + chlorobenzene; phases: Liquid, Crystal
Property: Mass density, kg/m3 (Liquid); method: Pycnometric method
Temperature, K	Pressure, kPa	Mass density, kg/m3	uncertainty
298.15	100	1088	44

System: chlorobenzene + perylene; phases: Liquid, Crystal
Property: Mole fraction of perylene (Liquid); method: Chromatography
Temperature, K	Pressure, kPa	Mole fraction of perylene	uncertainty
298.15	100	0.00177	0.00018

System: chlorobenzene + perylene; phases: Liquid, Crystal
Property: Mass density, kg/m3 (Liquid); method: Pycnometric method
Temperature, K	Pressure, kPa	Mass density, kg/m3	uncertainty
298.15	100	1083	43

System: trichloromethane + N,N'-di(1-naphthyl)-N,N'-diphenyl benzidine; phases: Liquid, Crystal
Property: Mole fraction of N,N'-di(1-naphthyl)-N,N'-diphenyl benzidine (Liquid); method: Chromatography
Temperature, K	Pressure, kPa	Mole fraction of N,N'-di(1-naphthyl)-N,N'-diphenyl benzidine	uncertainty
298.15	100	0.00282	0.00028

System: trichloromethane + N,N'-di(1-naphthyl)-N,N'-diphenyl benzidine; phases: Liquid, Crystal
Property: Mass density, kg/m3 (Liquid); method: Pycnometric method
Temperature, K	Pressure, kPa	Mass density, kg/m3	uncertainty
298.15	100	1447	58

System: trichloromethane + 4,4'-bis(N-carbazole)biphenyl; phases: Liquid, Crystal
Property: Mole fraction of 4,4'-bis(N-carbazole)biphenyl (Liquid); method: Chromatography
Temperature, K	Pressure, kPa	Mole fraction of 4,4'-bis(N-carbazole)biphenyl	uncertainty
298.15	100	0.0083	0.00083

System: trichloromethane + 4,4'-bis(N-carbazole)biphenyl; phases: Liquid, Crystal
Property: Mass density, kg/m3 (Liquid); method: Pycnometric method
Temperature, K	Pressure, kPa	Mass density, kg/m3	uncertainty
298.15	100	1445	58

System: trichloromethane + anthracene; phases: Liquid, Crystal
Property: Mole fraction of anthracene (Liquid); method: Chromatography
Temperature, K	Pressure, kPa	Mole fraction of anthracene	uncertainty
298.15	100	0.00995	0.001

System: trichloromethane + anthracene; phases: Liquid, Crystal
Property: Mass density, kg/m3 (Liquid); method: Pycnometric method
Temperature, K	Pressure, kPa	Mass density, kg/m3	uncertainty
298.15	100	1444	58

System: trichloromethane + 2,3-benzanthracene; phases: Liquid, Crystal
Property: Mole fraction of 2,3-benzanthracene (Liquid); method: Chromatography
Temperature, K	Pressure, kPa	Mole fraction of 2,3-benzanthracene	uncertainty
298.15	100	0.000132	1.3e-05

System: trichloromethane + 2,3-benzanthracene; phases: Liquid, Crystal
Property: Mass density, kg/m3 (Liquid); method: Pycnometric method
Temperature, K	Pressure, kPa	Mass density, kg/m3	uncertainty
298.15	100	1450	58

System: trichloromethane + perylene; phases: Liquid, Crystal
Property: Mole fraction of perylene (Liquid); method: Chromatography
Temperature, K	Pressure, kPa	Mole fraction of perylene	uncertainty
298.15	100	0.00134	0.00013

System: trichloromethane + perylene; phases: Liquid, Crystal
Property: Mass density, kg/m3 (Liquid); method: Pycnometric method
Temperature, K	Pressure, kPa	Mass density, kg/m3	uncertainty
298.15	100	1447	58

System: hexane + (S)-(+)-naproxen; phases: Liquid, Crystal
Property: Mole fraction of (S)-(+)-naproxen (Liquid); method: Chromatography
Temperature, K	Pressure, kPa	Mole fraction of (S)-(+)-naproxen	uncertainty
298.15	100	3.2e-05	3.2e-06

System: hexane + (S)-(+)-naproxen; phases: Liquid, Crystal
Property: Mass density, kg/m3 (Liquid); method: Pycnometric method
Temperature, K	Pressure, kPa	Mass density, kg/m3	uncertainty
298.15	100	650	26

System: hexane + (2-((2,6-dichlorophenyl)amino)phenyl)acetic acid; phases: Liquid, Crystal
Property: Mole fraction of (2-((2,6-dichlorophenyl)amino)phenyl)acetic acid (Liquid); method: Chromatography
Temperature, K	Pressure, kPa	Mole fraction of (2-((2,6-dichlorophenyl)amino)phenyl)acetic acid	uncertainty
298.15	100	1.08e-05	1.1e-06

System: hexane + (2-((2,6-dichlorophenyl)amino)phenyl)acetic acid; phases: Liquid, Crystal
Property: Mass density, kg/m3 (Liquid); method: Pycnometric method
Temperature, K	Pressure, kPa	Mass density, kg/m3	uncertainty
298.15	100	646	26

System: 1-(4-chlorobenzoyl)-5-methoxy-2-methyl-1H-indole-3-acetic acid + hexane; phases: Liquid, Crystal
Property: Mole fraction of 1-(4-chlorobenzoyl)-5-methoxy-2-methyl-1H-indole-3-acetic acid (Liquid); method: Chromatography
Temperature, K	Pressure, kPa	Mole fraction of 1-(4-chlorobenzoyl)-5-methoxy-2-methyl-1H-indole-3-acetic acid	uncertainty
298.15	100	4.84e-07	4.8e-08

System: 1-(4-chlorobenzoyl)-5-methoxy-2-methyl-1H-indole-3-acetic acid + hexane; phases: Liquid, Crystal
Property: Mass density, kg/m3 (Liquid); method: Pycnometric method
Temperature, K	Pressure, kPa	Mass density, kg/m3	uncertainty
298.15	100	648	26

System: hexane + 2-[[3-(trifluoromethyl)phenyl]amino]-3-pyridinecarboxylic acid; phases: Liquid, Crystal
Property: Mole fraction of 2-[[3-(trifluoromethyl)phenyl]amino]-3-pyridinecarboxylic acid (Liquid); method: Chromatography
Temperature, K	Pressure, kPa	Mole fraction of 2-[[3-(trifluoromethyl)phenyl]amino]-3-pyridinecarboxylic acid	uncertainty
298.15	100	5.35e-06	5.4e-07

System: hexane + 2-[[3-(trifluoromethyl)phenyl]amino]-3-pyridinecarboxylic acid; phases: Liquid, Crystal
Property: Mass density, kg/m3 (Liquid); method: Pycnometric method
Temperature, K	Pressure, kPa	Mass density, kg/m3	uncertainty
298.15	100	654	26

System: tetrachloromethane + (S)-(+)-naproxen; phases: Liquid, Crystal
Property: Mole fraction of (S)-(+)-naproxen (Liquid); method: Chromatography
Temperature, K	Pressure, kPa	Mole fraction of (S)-(+)-naproxen	uncertainty
298.15	100	0.00172	0.00017

System: tetrachloromethane + (S)-(+)-naproxen; phases: Liquid, Crystal
Property: Mass density, kg/m3 (Liquid); method: Pycnometric method
Temperature, K	Pressure, kPa	Mass density, kg/m3	uncertainty
298.15	100	1569	63

System: tetrachloromethane + (2-((2,6-dichlorophenyl)amino)phenyl)acetic acid; phases: Liquid, Crystal
Property: Mole fraction of (2-((2,6-dichlorophenyl)amino)phenyl)acetic acid (Liquid); method: Chromatography
Temperature, K	Pressure, kPa	Mole fraction of (2-((2,6-dichlorophenyl)amino)phenyl)acetic acid	uncertainty
298.15	100	0.000591	5.9e-05

System: tetrachloromethane + (2-((2,6-dichlorophenyl)amino)phenyl)acetic acid; phases: Liquid, Crystal
Property: Mass density, kg/m3 (Liquid); method: Pycnometric method
Temperature, K	Pressure, kPa	Mass density, kg/m3	uncertainty
298.15	100	1559	62

System: 1-(4-chlorobenzoyl)-5-methoxy-2-methyl-1H-indole-3-acetic acid + tetrachloromethane; phases: Liquid, Crystal of unknown type
Property: Mole fraction of 1-(4-chlorobenzoyl)-5-methoxy-2-methyl-1H-indole-3-acetic acid (Liquid); method: Chromatography
Temperature, K	Pressure, kPa	Mole fraction of 1-(4-chlorobenzoyl)-5-methoxy-2-methyl-1H-indole-3-acetic acid	uncertainty
298.15	100	4.2e-05	4.2e-06

System: 1-(4-chlorobenzoyl)-5-methoxy-2-methyl-1H-indole-3-acetic acid + tetrachloromethane; phases: Liquid, Crystal of unknown type
Property: Mass density, kg/m3 (Liquid); method: Pycnometric method
Temperature, K	Pressure, kPa	Mass density, kg/m3	uncertainty
298.15	100	1562	63

System: tetrachloromethane + 2-[[3-(trifluoromethyl)phenyl]amino]-3-pyridinecarboxylic acid; phases: Liquid, Crystal
Property: Mole fraction of 2-[[3-(trifluoromethyl)phenyl]amino]-3-pyridinecarboxylic acid (Liquid); method: Chromatography
Temperature, K	Pressure, kPa	Mole fraction of 2-[[3-(trifluoromethyl)phenyl]amino]-3-pyridinecarboxylic acid	uncertainty
298.15	100	7.06e-05	7.1e-06

System: tetrachloromethane + 2-[[3-(trifluoromethyl)phenyl]amino]-3-pyridinecarboxylic acid; phases: Liquid, Crystal
Property: Mass density, kg/m3 (Liquid); method: Pycnometric method
Temperature, K	Pressure, kPa	Mass density, kg/m3	uncertainty
298.15	100	1567	63

System: acetonitrile + (S)-(+)-naproxen; phases: Liquid, Crystal
Property: Mole fraction of (S)-(+)-naproxen (Liquid); method: Chromatography
Temperature, K	Pressure, kPa	Mole fraction of (S)-(+)-naproxen	uncertainty
298.15	100	0.00598	0.0006

System: acetonitrile + (S)-(+)-naproxen; phases: Liquid, Crystal
Property: Mass density, kg/m3 (Liquid); method: Pycnometric method
Temperature, K	Pressure, kPa	Mass density, kg/m3	uncertainty
298.15	100	788	32

System: acetonitrile + (2-((2,6-dichlorophenyl)amino)phenyl)acetic acid; phases: Liquid, Crystal
Property: Mole fraction of (2-((2,6-dichlorophenyl)amino)phenyl)acetic acid (Liquid); method: Chromatography
Temperature, K	Pressure, kPa	Mole fraction of (2-((2,6-dichlorophenyl)amino)phenyl)acetic acid	uncertainty
298.15	100	0.00249	0.00025

System: acetonitrile + (2-((2,6-dichlorophenyl)amino)phenyl)acetic acid; phases: Liquid, Crystal
Property: Mass density, kg/m3 (Liquid); method: Pycnometric method
Temperature, K	Pressure, kPa	Mass density, kg/m3	uncertainty
298.15	100	788	32

System: 1-(4-chlorobenzoyl)-5-methoxy-2-methyl-1H-indole-3-acetic acid + acetonitrile; phases: Liquid, Crystal
Property: Mole fraction of 1-(4-chlorobenzoyl)-5-methoxy-2-methyl-1H-indole-3-acetic acid (Liquid); method: Chromatography
Temperature, K	Pressure, kPa	Mole fraction of 1-(4-chlorobenzoyl)-5-methoxy-2-methyl-1H-indole-3-acetic acid	uncertainty
298.15	100	0.00239	0.00024

System: 1-(4-chlorobenzoyl)-5-methoxy-2-methyl-1H-indole-3-acetic acid + acetonitrile; phases: Liquid, Crystal
Property: Mass density, kg/m3 (Liquid); method: Pycnometric method
Temperature, K	Pressure, kPa	Mass density, kg/m3	uncertainty
298.15	100	782	31

System: acetonitrile + 2-[[3-(trifluoromethyl)phenyl]amino]-3-pyridinecarboxylic acid; phases: Liquid, Crystal
Property: Mole fraction of 2-[[3-(trifluoromethyl)phenyl]amino]-3-pyridinecarboxylic acid (Liquid); method: Chromatography
Temperature, K	Pressure, kPa	Mole fraction of 2-[[3-(trifluoromethyl)phenyl]amino]-3-pyridinecarboxylic acid	uncertainty
298.15	100	0.00131	0.00013

System: acetonitrile + 2-[[3-(trifluoromethyl)phenyl]amino]-3-pyridinecarboxylic acid; phases: Liquid, Crystal
Property: Mass density, kg/m3 (Liquid); method: Pycnometric method
Temperature, K	Pressure, kPa	Mass density, kg/m3	uncertainty
298.15	100	784	31

System: chlorobenzene + (S)-(+)-naproxen; phases: Liquid, Crystal
Property: Mole fraction of (S)-(+)-naproxen (Liquid); method: Chromatography
Temperature, K	Pressure, kPa	Mole fraction of (S)-(+)-naproxen	uncertainty
298.15	100	0.00636	0.00064

System: chlorobenzene + (S)-(+)-naproxen; phases: Liquid, Crystal
Property: Mass density, kg/m3 (Liquid); method: Pycnometric method
Temperature, K	Pressure, kPa	Mass density, kg/m3	uncertainty
298.15	100	1094	44

System: chlorobenzene + (2-((2,6-dichlorophenyl)amino)phenyl)acetic acid; phases: Liquid, Crystal
Property: Mole fraction of (2-((2,6-dichlorophenyl)amino)phenyl)acetic acid (Liquid); method: Chromatography
Temperature, K	Pressure, kPa	Mole fraction of (2-((2,6-dichlorophenyl)amino)phenyl)acetic acid	uncertainty
298.15	100	0.00258	0.00026

System: chlorobenzene + (2-((2,6-dichlorophenyl)amino)phenyl)acetic acid; phases: Liquid, Crystal
Property: Mass density, kg/m3 (Liquid); method: Pycnometric method
Temperature, K	Pressure, kPa	Mass density, kg/m3	uncertainty
298.15	100	1091	44

System: 1-(4-chlorobenzoyl)-5-methoxy-2-methyl-1H-indole-3-acetic acid + chlorobenzene; phases: Liquid, Crystal
Property: Mole fraction of 1-(4-chlorobenzoyl)-5-methoxy-2-methyl-1H-indole-3-acetic acid (Liquid); method: Chromatography
Temperature, K	Pressure, kPa	Mole fraction of 1-(4-chlorobenzoyl)-5-methoxy-2-methyl-1H-indole-3-acetic acid	uncertainty
298.15	100	0.0023	0.00023

System: 1-(4-chlorobenzoyl)-5-methoxy-2-methyl-1H-indole-3-acetic acid + chlorobenzene; phases: Liquid, Crystal
Property: Mass density, kg/m3 (Liquid); method: Pycnometric method
Temperature, K	Pressure, kPa	Mass density, kg/m3	uncertainty
298.15	100	1097	44

System: chlorobenzene + 2-[[3-(trifluoromethyl)phenyl]amino]-3-pyridinecarboxylic acid; phases: Liquid, Crystal
Property: Mole fraction of 2-[[3-(trifluoromethyl)phenyl]amino]-3-pyridinecarboxylic acid (Liquid); method: Chromatography
Temperature, K	Pressure, kPa	Mole fraction of 2-[[3-(trifluoromethyl)phenyl]amino]-3-pyridinecarboxylic acid	uncertainty
298.15	100	0.000297	3e-05

System: chlorobenzene + 2-[[3-(trifluoromethyl)phenyl]amino]-3-pyridinecarboxylic acid; phases: Liquid, Crystal
Property: Mass density, kg/m3 (Liquid); method: Pycnometric method
Temperature, K	Pressure, kPa	Mass density, kg/m3	uncertainty
298.15	100	1103	44

System: ethanol + (S)-(+)-naproxen; phases: Liquid, Crystal
Property: Mole fraction of (S)-(+)-naproxen (Liquid); method: Chromatography
Temperature, K	Pressure, kPa	Mole fraction of (S)-(+)-naproxen	uncertainty
298.15	100	0.0139	0.0014

System: ethanol + (S)-(+)-naproxen; phases: Liquid, Crystal
Property: Mass density, kg/m3 (Liquid); method: Pycnometric method
Temperature, K	Pressure, kPa	Mass density, kg/m3	uncertainty
298.15	100	794	32

System: ethanol + (2-((2,6-dichlorophenyl)amino)phenyl)acetic acid; phases: Liquid, Crystal
Property: Mole fraction of (2-((2,6-dichlorophenyl)amino)phenyl)acetic acid (Liquid); method: Chromatography
Temperature, K	Pressure, kPa	Mole fraction of (2-((2,6-dichlorophenyl)amino)phenyl)acetic acid	uncertainty
298.15	100	0.00984	0.00098

System: ethanol + (2-((2,6-dichlorophenyl)amino)phenyl)acetic acid; phases: Liquid, Crystal
Property: Mass density, kg/m3 (Liquid); method: Pycnometric method
Temperature, K	Pressure, kPa	Mass density, kg/m3	uncertainty
298.15	100	795	32

System: 1-(4-chlorobenzoyl)-5-methoxy-2-methyl-1H-indole-3-acetic acid + ethanol; phases: Liquid, Crystal
Property: Mole fraction of 1-(4-chlorobenzoyl)-5-methoxy-2-methyl-1H-indole-3-acetic acid (Liquid); method: Chromatography
Temperature, K	Pressure, kPa	Mole fraction of 1-(4-chlorobenzoyl)-5-methoxy-2-methyl-1H-indole-3-acetic acid	uncertainty
298.15	100	0.00441	0.00044

System: 1-(4-chlorobenzoyl)-5-methoxy-2-methyl-1H-indole-3-acetic acid + ethanol; phases: Liquid, Crystal
Property: Mass density, kg/m3 (Liquid); method: Pycnometric method
Temperature, K	Pressure, kPa	Mass density, kg/m3	uncertainty
298.15	100	786	31

System: ethanol + 2-[[3-(trifluoromethyl)phenyl]amino]-3-pyridinecarboxylic acid; phases: Liquid, Crystal
Property: Mole fraction of 2-[[3-(trifluoromethyl)phenyl]amino]-3-pyridinecarboxylic acid (Liquid); method: Chromatography
Temperature, K	Pressure, kPa	Mole fraction of 2-[[3-(trifluoromethyl)phenyl]amino]-3-pyridinecarboxylic acid	uncertainty
298.15	100	0.0138	0.0014

System: ethanol + 2-[[3-(trifluoromethyl)phenyl]amino]-3-pyridinecarboxylic acid; phases: Liquid, Crystal
Property: Mass density, kg/m3 (Liquid); method: Pycnometric method
Temperature, K	Pressure, kPa	Mass density, kg/m3	uncertainty
298.15	100	788	32

System: trichloromethane + (S)-(+)-naproxen; phases: Liquid, Crystal
Property: Mole fraction of (S)-(+)-naproxen (Liquid); method: Chromatography
Temperature, K	Pressure, kPa	Mole fraction of (S)-(+)-naproxen	uncertainty
298.15	100	0.0255	0.0026

System: trichloromethane + (S)-(+)-naproxen; phases: Liquid, Crystal
Property: Mass density, kg/m3 (Liquid); method: Pycnometric method
Temperature, K	Pressure, kPa	Mass density, kg/m3	uncertainty
298.15	100	1446	58

System: trichloromethane + (2-((2,6-dichlorophenyl)amino)phenyl)acetic acid; phases: Liquid, Crystal
Property: Mole fraction of (2-((2,6-dichlorophenyl)amino)phenyl)acetic acid (Liquid); method: Chromatography
Temperature, K	Pressure, kPa	Mole fraction of (2-((2,6-dichlorophenyl)amino)phenyl)acetic acid	uncertainty
298.15	100	0.0061	0.00061

System: trichloromethane + (2-((2,6-dichlorophenyl)amino)phenyl)acetic acid; phases: Liquid, Crystal
Property: Mass density, kg/m3 (Liquid); method: Pycnometric method
Temperature, K	Pressure, kPa	Mass density, kg/m3	uncertainty
298.15	100	1455	58

System: 1-(4-chlorobenzoyl)-5-methoxy-2-methyl-1H-indole-3-acetic acid + trichloromethane; phases: Liquid, Crystal of unknown type
Property: Mole fraction of 1-(4-chlorobenzoyl)-5-methoxy-2-methyl-1H-indole-3-acetic acid (Liquid); method: Chromatography
Temperature, K	Pressure, kPa	Mole fraction of 1-(4-chlorobenzoyl)-5-methoxy-2-methyl-1H-indole-3-acetic acid	uncertainty
298.15	100	0.00876	0.00088

System: 1-(4-chlorobenzoyl)-5-methoxy-2-methyl-1H-indole-3-acetic acid + trichloromethane; phases: Liquid, Crystal of unknown type
Property: Mass density, kg/m3 (Liquid); method: Pycnometric method
Temperature, K	Pressure, kPa	Mass density, kg/m3	uncertainty
298.15	100	1453	58

System: trichloromethane + 2-[[3-(trifluoromethyl)phenyl]amino]-3-pyridinecarboxylic acid; phases: Liquid, Crystal
Property: Mole fraction of 2-[[3-(trifluoromethyl)phenyl]amino]-3-pyridinecarboxylic acid (Liquid); method: Chromatography
Temperature, K	Pressure, kPa	Mole fraction of 2-[[3-(trifluoromethyl)phenyl]amino]-3-pyridinecarboxylic acid	uncertainty
298.15	100	0.00166	0.00017

System: trichloromethane + 2-[[3-(trifluoromethyl)phenyl]amino]-3-pyridinecarboxylic acid; phases: Liquid, Crystal
Property: Mass density, kg/m3 (Liquid); method: Pycnometric method
Temperature, K	Pressure, kPa	Mass density, kg/m3	uncertainty
298.15	100	1467	59

System: acetone + (S)-(+)-naproxen; phases: Liquid, Crystal
Property: Mole fraction of (S)-(+)-naproxen (Liquid); method: Chromatography
Temperature, K	Pressure, kPa	Mole fraction of (S)-(+)-naproxen	uncertainty
298.15	100	0.047	0.0047

System: acetone + (S)-(+)-naproxen; phases: Liquid, Crystal
Property: Mass density, kg/m3 (Liquid); method: Pycnometric method
Temperature, K	Pressure, kPa	Mass density, kg/m3	uncertainty
298.15	100	832	33

System: acetone + (2-((2,6-dichlorophenyl)amino)phenyl)acetic acid; phases: Liquid, Crystal
Property: Mole fraction of (2-((2,6-dichlorophenyl)amino)phenyl)acetic acid (Liquid); method: Chromatography
Temperature, K	Pressure, kPa	Mole fraction of (2-((2,6-dichlorophenyl)amino)phenyl)acetic acid	uncertainty
298.15	100	0.0267	0.0027

System: acetone + (2-((2,6-dichlorophenyl)amino)phenyl)acetic acid; phases: Liquid, Crystal
Property: Mass density, kg/m3 (Liquid); method: Pycnometric method
Temperature, K	Pressure, kPa	Mass density, kg/m3	uncertainty
298.15	100	806	32

System: 1-(4-chlorobenzoyl)-5-methoxy-2-methyl-1H-indole-3-acetic acid + acetone; phases: Liquid, Crystal
Property: Mole fraction of 1-(4-chlorobenzoyl)-5-methoxy-2-methyl-1H-indole-3-acetic acid (Liquid); method: Chromatography
Temperature, K	Pressure, kPa	Mole fraction of 1-(4-chlorobenzoyl)-5-methoxy-2-methyl-1H-indole-3-acetic acid	uncertainty
298.15	100	0.0234	0.0023

System: 1-(4-chlorobenzoyl)-5-methoxy-2-methyl-1H-indole-3-acetic acid + acetone; phases: Liquid, Crystal
Property: Mass density, kg/m3 (Liquid); method: Pycnometric method
Temperature, K	Pressure, kPa	Mass density, kg/m3	uncertainty
298.15	100	813	33

System: acetone + 2-[[3-(trifluoromethyl)phenyl]amino]-3-pyridinecarboxylic acid; phases: Liquid, Crystal
Property: Mole fraction of 2-[[3-(trifluoromethyl)phenyl]amino]-3-pyridinecarboxylic acid (Liquid); method: Chromatography
Temperature, K	Pressure, kPa	Mole fraction of 2-[[3-(trifluoromethyl)phenyl]amino]-3-pyridinecarboxylic acid	uncertainty
298.15	100	0.0288	0.0029

System: acetone + 2-[[3-(trifluoromethyl)phenyl]amino]-3-pyridinecarboxylic acid; phases: Liquid, Crystal
Property: Mass density, kg/m3 (Liquid); method: Pycnometric method
Temperature, K	Pressure, kPa	Mass density, kg/m3	uncertainty
298.15	100	809	32

System: pentane + (S)-(+)-naproxen; phases: Liquid, Crystal
Property: Mole fraction of (S)-(+)-naproxen (Liquid); method: Chromatography
Temperature, K	Pressure, kPa	Mole fraction of (S)-(+)-naproxen	uncertainty
298.15	100	2.22e-05	2.2e-06

System: pentane + (S)-(+)-naproxen; phases: Liquid, Crystal
Property: Mass density, kg/m3 (Liquid); method: Pycnometric method
Temperature, K	Pressure, kPa	Mass density, kg/m3	uncertainty
298.15	100	628	25

System: 1-(4-chlorobenzoyl)-5-methoxy-2-methyl-1H-indole-3-acetic acid + pentane; phases: Liquid, Crystal
Property: Mole fraction of 1-(4-chlorobenzoyl)-5-methoxy-2-methyl-1H-indole-3-acetic acid (Liquid); method: Chromatography
Temperature, K	Pressure, kPa	Mole fraction of 1-(4-chlorobenzoyl)-5-methoxy-2-methyl-1H-indole-3-acetic acid	uncertainty
298.15	100	3.31e-07	3.3e-08

System: 1-(4-chlorobenzoyl)-5-methoxy-2-methyl-1H-indole-3-acetic acid + pentane; phases: Liquid, Crystal
Property: Mass density, kg/m3 (Liquid); method: Pycnometric method
Temperature, K	Pressure, kPa	Mass density, kg/m3	uncertainty
298.15	100	614	25

System: heptane + (S)-(+)-naproxen; phases: Liquid, Crystal
Property: Mole fraction of (S)-(+)-naproxen (Liquid); method: Chromatography
Temperature, K	Pressure, kPa	Mole fraction of (S)-(+)-naproxen	uncertainty
298.15	100	3.88e-05	3.9e-06

System: heptane + (S)-(+)-naproxen; phases: Liquid, Crystal
Property: Mass density, kg/m3 (Liquid); method: Pycnometric method
Temperature, K	Pressure, kPa	Mass density, kg/m3	uncertainty
298.15	100	675	27

System: 1-(4-chlorobenzoyl)-5-methoxy-2-methyl-1H-indole-3-acetic acid + heptane; phases: Liquid, Crystal
Property: Mole fraction of 1-(4-chlorobenzoyl)-5-methoxy-2-methyl-1H-indole-3-acetic acid (Liquid); method: Chromatography
Temperature, K	Pressure, kPa	Mole fraction of 1-(4-chlorobenzoyl)-5-methoxy-2-methyl-1H-indole-3-acetic acid	uncertainty
298.15	100	6.13e-07	6.1e-08

System: 1-(4-chlorobenzoyl)-5-methoxy-2-methyl-1H-indole-3-acetic acid + heptane; phases: Liquid, Crystal
Property: Mass density, kg/m3 (Liquid); method: Pycnometric method
Temperature, K	Pressure, kPa	Mass density, kg/m3	uncertainty
298.15	100	671	27

System: cyclohexane + (S)-(+)-naproxen; phases: Liquid, Crystal
Property: Mole fraction of (S)-(+)-naproxen (Liquid); method: Chromatography
Temperature, K	Pressure, kPa	Mole fraction of (S)-(+)-naproxen	uncertainty
298.15	100	7.5e-05	7.5e-06

System: cyclohexane + (S)-(+)-naproxen; phases: Liquid, Crystal
Property: Mass density, kg/m3 (Liquid); method: Pycnometric method
Temperature, K	Pressure, kPa	Mass density, kg/m3	uncertainty
298.15	100	778	31

System: 1-(4-chlorobenzoyl)-5-methoxy-2-methyl-1H-indole-3-acetic acid + cyclohexane; phases: Liquid, Crystal
Property: Mole fraction of 1-(4-chlorobenzoyl)-5-methoxy-2-methyl-1H-indole-3-acetic acid (Liquid); method: Chromatography
Temperature, K	Pressure, kPa	Mole fraction of 1-(4-chlorobenzoyl)-5-methoxy-2-methyl-1H-indole-3-acetic acid	uncertainty
298.15	100	1.87e-05	1.9e-06

System: 1-(4-chlorobenzoyl)-5-methoxy-2-methyl-1H-indole-3-acetic acid + cyclohexane; phases: Liquid, Crystal
Property: Mass density, kg/m3 (Liquid); method: Pycnometric method
Temperature, K	Pressure, kPa	Mass density, kg/m3	uncertainty
298.15	100	769	31

System: 1,2-ethanediol + (S)-(+)-naproxen; phases: Liquid, Crystal
Property: Mole fraction of (S)-(+)-naproxen (Liquid); method: Chromatography
Temperature, K	Pressure, kPa	Mole fraction of (S)-(+)-naproxen	uncertainty
298.15	100	0.00284	0.00028

System: 1,2-ethanediol + (S)-(+)-naproxen; phases: Liquid, Crystal
Property: Mass density, kg/m3 (Liquid); method: Pycnometric method
Temperature, K	Pressure, kPa	Mass density, kg/m3	uncertainty
298.15	100	1041	42

System: 1-(4-chlorobenzoyl)-5-methoxy-2-methyl-1H-indole-3-acetic acid + 1,2-ethanediol; phases: Liquid, Crystal
Property: Mole fraction of 1-(4-chlorobenzoyl)-5-methoxy-2-methyl-1H-indole-3-acetic acid (Liquid); method: Chromatography
Temperature, K	Pressure, kPa	Mole fraction of 1-(4-chlorobenzoyl)-5-methoxy-2-methyl-1H-indole-3-acetic acid	uncertainty
298.15	100	0.000509	5.1e-05

System: 1-(4-chlorobenzoyl)-5-methoxy-2-methyl-1H-indole-3-acetic acid + 1,2-ethanediol; phases: Liquid, Crystal
Property: Mass density, kg/m3 (Liquid); method: Pycnometric method
Temperature, K	Pressure, kPa	Mass density, kg/m3	uncertainty
298.15	100	1072	43

System: toluene + (S)-(+)-naproxen; phases: Liquid, Crystal
Property: Mole fraction of (S)-(+)-naproxen (Liquid); method: Chromatography
Temperature, K	Pressure, kPa	Mole fraction of (S)-(+)-naproxen	uncertainty
298.15	100	0.00347	0.00035

System: toluene + (S)-(+)-naproxen; phases: Liquid, Crystal
Property: Mass density, kg/m3 (Liquid); method: Pycnometric method
Temperature, K	Pressure, kPa	Mass density, kg/m3	uncertainty
298.15	100	865	35

System: 1-(4-chlorobenzoyl)-5-methoxy-2-methyl-1H-indole-3-acetic acid + toluene; phases: Liquid, Crystal
Property: Mole fraction of 1-(4-chlorobenzoyl)-5-methoxy-2-methyl-1H-indole-3-acetic acid (Liquid); method: Chromatography
Temperature, K	Pressure, kPa	Mole fraction of 1-(4-chlorobenzoyl)-5-methoxy-2-methyl-1H-indole-3-acetic acid	uncertainty
298.15	100	0.000908	9.1e-05

System: 1-(4-chlorobenzoyl)-5-methoxy-2-methyl-1H-indole-3-acetic acid + toluene; phases: Liquid, Crystal
Property: Mass density, kg/m3 (Liquid); method: Pycnometric method
Temperature, K	Pressure, kPa	Mass density, kg/m3	uncertainty
298.15	100	858	34

System: methanol + (S)-(+)-naproxen; phases: Liquid, Crystal
Property: Mole fraction of (S)-(+)-naproxen (Liquid); method: Chromatography
Temperature, K	Pressure, kPa	Mole fraction of (S)-(+)-naproxen	uncertainty
298.15	100	0.0122	0.0012

System: methanol + (S)-(+)-naproxen; phases: Liquid, Crystal
Property: Mass density, kg/m3 (Liquid); method: Pycnometric method
Temperature, K	Pressure, kPa	Mass density, kg/m3	uncertainty
298.15	100	786	31

System: 1-(4-chlorobenzoyl)-5-methoxy-2-methyl-1H-indole-3-acetic acid + propan-1-ol; phases: Liquid, Crystal
Property: Mole fraction of 1-(4-chlorobenzoyl)-5-methoxy-2-methyl-1H-indole-3-acetic acid (Liquid); method: Chromatography
Temperature, K	Pressure, kPa	Mole fraction of 1-(4-chlorobenzoyl)-5-methoxy-2-methyl-1H-indole-3-acetic acid	uncertainty
298.15	100	0.00433	0.00043

System: 1-(4-chlorobenzoyl)-5-methoxy-2-methyl-1H-indole-3-acetic acid + propan-1-ol; phases: Liquid, Crystal
Property: Mass density, kg/m3 (Liquid); method: Pycnometric method
Temperature, K	Pressure, kPa	Mass density, kg/m3	uncertainty
298.15	100	783	31

System: 1-(4-chlorobenzoyl)-5-methoxy-2-methyl-1H-indole-3-acetic acid + propan-2-ol; phases: Liquid, Crystal
Property: Mole fraction of 1-(4-chlorobenzoyl)-5-methoxy-2-methyl-1H-indole-3-acetic acid (Liquid); method: Chromatography
Temperature, K	Pressure, kPa	Mole fraction of 1-(4-chlorobenzoyl)-5-methoxy-2-methyl-1H-indole-3-acetic acid	uncertainty
298.15	100	0.00465	0.00047

System: 1-(4-chlorobenzoyl)-5-methoxy-2-methyl-1H-indole-3-acetic acid + propan-2-ol; phases: Liquid, Crystal
Property: Mass density, kg/m3 (Liquid); method: Pycnometric method
Temperature, K	Pressure, kPa	Mass density, kg/m3	uncertainty
298.15	100	772	31

System: 1-(4-chlorobenzoyl)-5-methoxy-2-methyl-1H-indole-3-acetic acid + ethanol + ethyl acetate; phases: Liquid, Crystal
Fixed: Pressure, kPa = 100
Fixed: Temperature, K = 298.15
Property: Mole fraction of 1-(4-chlorobenzoyl)-5-methoxy-2-methyl-1H-indole-3-acetic acid (Liquid); method: Chromatography
Solvent: Mole fraction of ethanol	Mole fraction of 1-(4-chlorobenzoyl)-5-methoxy-2-methyl-1H-indole-3-acetic acid	uncertainty
0	0.0111	0.0011
0.091	0.0197	0.002
0.175	0.0248	0.0025
0.289	0.0272	0.0027
0.389	0.03	0.003
0.507	0.0266	0.0027
0.61	0.0252	0.0025
0.7	0.0206	0.0021
0.817	0.0134	0.0013
0.916	0.00725	0.00073
1	0.00441	0.00044

System: 1-(4-chlorobenzoyl)-5-methoxy-2-methyl-1H-indole-3-acetic acid + ethanol + ethyl acetate; phases: Liquid, Crystal
Fixed: Temperature, K = 298.15
Fixed: Pressure, kPa = 100
Property: Mass density, kg/m3 (Liquid); method: Pycnometric method
Solvent: Mole fraction of ethanol	Mass density, kg/m3	uncertainty
0	900	36
0.091	900	36
0.175	897	36
0.289	896	36
0.389	893	36
0.507	883	35
0.61	875	35
0.7	859	34
0.817	832	33
0.916	804	32
1	786	31

System: 1-(4-chlorobenzoyl)-5-methoxy-2-methyl-1H-indole-3-acetic acid + ethanol + acetone; phases: Liquid, Crystal
Fixed: Pressure, kPa = 100
Fixed: Temperature, K = 298.15
Property: Mole fraction of 1-(4-chlorobenzoyl)-5-methoxy-2-methyl-1H-indole-3-acetic acid (Liquid); method: Chromatography
Solvent: Mole fraction of ethanol	Mole fraction of 1-(4-chlorobenzoyl)-5-methoxy-2-methyl-1H-indole-3-acetic acid	uncertainty
0	0.0234	0.0023
0.123	0.0328	0.0033
0.24	0.0377	0.0038
0.351	0.0396	0.004
0.457	0.039	0.0039
0.558	0.0329	0.0033
0.654	0.0273	0.0027
0.746	0.021	0.0021
0.835	0.0147	0.0015
0.919	0.0074	0.00075
1	0.00441	0.00044

System: 1-(4-chlorobenzoyl)-5-methoxy-2-methyl-1H-indole-3-acetic acid + ethanol + acetone; phases: Liquid, Crystal
Fixed: Temperature, K = 298.15
Fixed: Pressure, kPa = 100
Property: Mass density, kg/m3 (Liquid); method: Pycnometric method
Solvent: Mole fraction of ethanol	Mass density, kg/m3	uncertainty
0	813	33
0.123	838	34
0.24	850	34
0.351	860	34
0.457	862	34
0.558	851	34
0.654	842	34
0.746	826	33
0.835	814	33
0.919	796	32
1	786	31

System: 1-(4-chlorobenzoyl)-5-methoxy-2-methyl-1H-indole-3-acetic acid + ethanol + acetonitrile; phases: Liquid, Crystal
Fixed: Pressure, kPa = 100
Fixed: Temperature, K = 298.15
Property: Mole fraction of 1-(4-chlorobenzoyl)-5-methoxy-2-methyl-1H-indole-3-acetic acid (Liquid); method: Chromatography
Solvent: Mole fraction of ethanol	Mole fraction of 1-(4-chlorobenzoyl)-5-methoxy-2-methyl-1H-indole-3-acetic acid	uncertainty
0	0.00239	0.00024
0.09	0.00608	0.00062
0.182	0.0109	0.0011
0.276	0.0169	0.0017
0.373	0.0199	0.002
0.471	0.0202	0.002
0.572	0.0205	0.0021
0.675	0.0188	0.0019
0.781	0.0132	0.0013
0.889	0.00934	0.00094
1	0.00441	0.00044

System: 1-(4-chlorobenzoyl)-5-methoxy-2-methyl-1H-indole-3-acetic acid + ethanol + acetonitrile; phases: Liquid, Crystal
Fixed: Temperature, K = 298.15
Fixed: Pressure, kPa = 100
Property: Mass density, kg/m3 (Liquid); method: Pycnometric method
Solvent: Mole fraction of ethanol	Mass density, kg/m3	uncertainty
0	782	31
0.09	802	32
0.182	813	33
0.276	818	33
0.373	824	33
0.471	830	33
0.572	830	33
0.675	820	33
0.781	810	32
0.889	794	32
1	786	31
