Measured thermophysical data. Liquid-Liquid Equilibrium Measurements for the Ternary System of Water/2,3-Butanediol/4-Methyl-2-pentanol at Various Temperatures
Source: J. Chem. Eng. Data, 2019, 10.1021/acs.jced.9b00290
Compound 1: water, H2O, InChI=1S/H2O/h1H2, purity 99.9%
Compound 2: 4-methyl-2-pentanol, C6H14O, InChI=1S/C6H14O/c1-5(2)4-6(3)7/h5-7H,4H2,1-3H3, purity 99%
Compound 3: (2R,3R)-2,3-butanediol, C4H10O2, InChI=1S/C4H10O2/c1-3(5)4(2)6/h3-6H,1-2H3/t3-,4-/m1/s1, purity 98%

System: 4-methyl-2-pentanol + water; phases: Liquid mixture 1, Liquid mixture 2
Fixed: Pressure, kPa = 100
Property: Mass fraction of water (Liquid mixture 1); method: Titration method
Temperature, K	Mass fraction of water	uncertainty
298.2	0.0557	0.01
308.2	0.0622	0.01
318.2	0.0673	0.01
298.2	0.9845	0.0155
308.2	0.9842	0.01
318.2	0.9869	0.0131

System: 4-methyl-2-pentanol + (2R,3R)-2,3-butanediol + water; phases: Liquid mixture 1, Liquid mixture 2
Fixed: Pressure, kPa = 100
Property: Mass fraction of (2R,3R)-2,3-butanediol (Liquid mixture 1); method: Titration method
Temperature, K	Mass fraction of water	Mass fraction of (2R,3R)-2,3-butanediol	uncertainty
298.2	0.0557	0	
298.2	0.0653	0.0293	0.0293
298.2	0.0772	0.0816	0.0452
298.2	0.0875	0.127	0.0343
298.2	0.0966	0.1668	0.0356
298.2	0.1126	0.2001	0.0197
298.2	0.134	0.2273	0.0159
298.2	0.2075	0.3017	0.0162
308.2	0.0622	0	
308.2	0.0775	0.0567	0.0375
308.2	0.0904	0.1076	0.0353
308.2	0.104	0.1491	0.0256
308.2	0.122	0.184	0.0219
308.2	0.1375	0.2142	0.0217
308.2	0.1529	0.2403	0.0165
308.2	0.1846	0.2697	0.0164
308.2	0.2075	0.3017	0.0147
318.2	0.0673	0	
318.2	0.0706	0.0557	0.029
318.2	0.0905	0.1097	0.0258
318.2	0.1102	0.1489	0.0237
318.2	0.1252	0.1832	0.0228
318.2	0.142	0.2122	0.018
318.2	0.1632	0.2358	0.0164
318.2	0.19	0.2657	0.0155
298.2	0.2389	0.3247	0.0147
298.2	0.2844	0.3464	0.0148
298.2	0.3214	0.3632	0.0146
298.2	0.3583	0.3676	0.0145
298.2	0.3838	0.3727	0.0147
298.2	0.4186	0.3816	0.0149
298.2	0.4532	0.3897	0.015
298.2	0.4919	0.3934	0.0151
308.2	0.213	0.2927	0.0148
308.2	0.2487	0.3153	0.0147
308.2	0.2842	0.3364	0.0149
308.2	0.3077	0.3496	0.0149
308.2	0.3299	0.359	0.0149
308.2	0.3639	0.3733	0.0152
308.2	0.4023	0.3858	0.015
308.2	0.4406	0.3927	0.0149
318.2	0.2198	0.2876	0.0147
318.2	0.2537	0.3102	0.0143
318.2	0.3014	0.3315	0.0142
318.2	0.3437	0.3438	0.0142
318.2	0.3887	0.353	0.0143
318.2	0.433	0.3621	0.0144
318.2	0.4646	0.3663	0.0144
318.2	0.5119	0.3695	0.0145
298.2	0.5743	0.3714	0.0151
298.2	0.6371	0.3295	0.0157
298.2	0.7019	0.2723	0.0156
298.2	0.7783	0.2013	0.0149
298.2	0.8213	0.1593	0.0147
298.2	0.8694	0.1124	0.0143
298.2	0.9233	0.0597	0.0141
298.2	0.9845	0	
308.2	0.5203	0.3869	0.0149
308.2	0.5692	0.3759	0.0154
308.2	0.63	0.3328	0.0157
308.2	0.6983	0.2766	0.0155
308.2	0.7746	0.2046	0.015
308.2	0.8182	0.1621	0.0147
308.2	0.8669	0.1145	0.0143
308.2	0.9218	0.0609	0.0141
308.2	0.9842	0	
318.2	0.6262	0.3288	0.0153
318.2	0.5614	0.3684	0.0149
318.2	0.6975	0.2746	0.015
318.2	0.7565	0.2234	0.015
318.2	0.8209	0.1616	0.0146
318.2	0.8696	0.1141	0.0143
318.2	0.9246	0.0607	0.0141
318.2	0.9869	0	

System: 4-methyl-2-pentanol + (2R,3R)-2,3-butanediol + water; phases: Liquid mixture 2, Liquid mixture 1
Fixed: Pressure, kPa = 100
Property: Mass fraction of water (Liquid mixture 2); method: Chromatography
Property: Mass fraction of water (Liquid mixture 1); method: Chromatography
Property: Mass fraction of (2R,3R)-2,3-butanediol (Liquid mixture 1); method: Chromatography
Temperature, K	Mass fraction of (2R,3R)-2,3-butanediol	Mass fraction of water	uncertainty	Mass fraction of water	uncertainty	Mass fraction of (2R,3R)-2,3-butanediol	uncertainty
298.2	0.1589	0.1049	0.0044	0.6852	0.0063	0.2916	
298.2	0.1336	0.094	0.0043	0.7173	0.0062	0.2617	
298.2	0.1167	0.0888	0.0041	0.7374	0.006	0.2437	
298.2	0.0988	0.0862	0.0042	0.7609	0.006	0.2195	
298.2	0.0871	0.0802	0.0043	0.7847	0.0059	0.1974	
298.2	0.0753	0.077	0.0043	0.8024	0.0059	0.1788	
298.2	0.0515	0.0684	0.0042	0.8469	0.0058	0.1362	
298.2	0.0389	0.0657	0.0041	0.8702	0.0057	0.1122	
308.2	0.1983	0.122	0.0044	0.6669	0.0063	0.3034	
308.2	0.177	0.113	0.0043	0.6902	0.0064	0.2809	
308.2	0.1337	0.0988	0.0044	0.7406	0.0062	0.2385	
308.2	0.0834	0.0752	0.0043	0.8103	0.006	0.1718	
308.2	0.058	0.0724	0.0043	0.8553	0.0058	0.1295	
308.2	0.0263	0.0534	0.0047	0.919	0.0057	0.0661	
318.2	0.2368	0.1514	0.0052	0.6502	0.0071	0.3107	
318.2	0.2153	0.1346	0.0052	0.6723	0.007	0.2942	
318.2	0.1927	0.1165	0.0046	0.6919	0.0068	0.2792	
318.2	0.1815	0.1193	0.0045	0.7089	0.0065	0.2653	
318.2	0.1455	0.0955	0.0044	0.7468	0.0061	0.2324	
318.2	0.0965	0.0808	0.0042	0.8122	0.0059	0.1689	
318.2	0.0636	0.0685	0.0042	0.8595	0.0058	0.1222	
318.2	0.0506	0.0666	0.0041	0.8784	0.006	0.1047	
