Measured thermophysical data. Determination and Modeling of MgCl2 Solubility in Methanol, Ethanol, 2-Propanol and Their Mixtures from 283 to 343 K
Source: J. Chem. Eng. Data, 2016, 10.1021/acs.jced.5b00624
Compound 1: magnesium chloride, Cl2Mg, InChI=1S/2ClH.Mg/h2*1H;/q;;+2/p-2
Compound 2: methanol, CH4O, InChI=1S/CH4O/c1-2/h2H,1H3
Compound 3: ethanol, C2H6O, InChI=1S/C2H6O/c1-2-3/h3H,2H2,1H3
Compound 4: propan-2-ol, C3H8O, InChI=1S/C3H8O/c1-3(2)4/h3-4H,1-2H3

System: methanol + magnesium chloride; phases: Liquid, Crystal of intercomponent compound 1
Fixed: Pressure, kPa = 100
Property: Mole fraction of magnesium chloride (Liquid); method: X-Ray Diffraction
Temperature, K	Mole fraction of magnesium chloride	uncertainty
283.2	0.0488	0.002
289.2	0.0498	0.002
300.2	0.0516	0.002
305.7	0.0526	0.002
311.2	0.0538	0.002
313.2	0.0545	0.002
317.2	0.0552	0.002
323.2	0.0559	0.002
328.2	0.0564	0.002
334.2	0.0573	0.002

System: ethanol + magnesium chloride; phases: Liquid, Crystal of intercomponent compound 1
Fixed: Pressure, kPa = 100
Property: Mole fraction of magnesium chloride (Liquid); method: X-Ray Diffraction
Temperature, K	Mole fraction of magnesium chloride	uncertainty
287.2	0.0213	0.002
295.7	0.0289	0.002
302.7	0.0359	0.002
308.2	0.0426	0.002
314.2	0.0495	0.002
318.2	0.0544	0.002
324.2	0.0607	0.002
328.7	0.0668	0.002
332.7	0.0726	0.002
342.2	0.0848	0.002

System: propan-2-ol + magnesium chloride; phases: Liquid, Crystal of intercomponent compound 1
Fixed: Pressure, kPa = 100
Property: Mole fraction of magnesium chloride (Liquid); method: X-Ray Diffraction
Temperature, K	Mole fraction of magnesium chloride	uncertainty
283.2	0.00153	0.00153
288.2	0.00157	0.00157
298.2	0.00169	0.00169
302.7	0.00173	0.00173
309.2	0.00183	0.00183
313.2	0.00189	0.00189
319.7	0.00206	0.002
325.7	0.00237	0.002
328.2	0.00247	0.002
332.2	0.00274	0.002
337.2	0.00313	0.002
342.2	0.00376	0.002

System: ethanol + methanol + magnesium chloride; phases: Liquid, Crystal of intercomponent compound 1
Fixed: Pressure, kPa = 101
Property: Mole fraction of magnesium chloride (Liquid); method: X-Ray Diffraction
Solvent: Mole fraction of methanol	Temperature, K	Mole fraction of magnesium chloride	uncertainty
0.2	298.2	0.0645	0.002
0.2	304.2	0.0683	0.002
0.2	308.2	0.0732	0.002
0.2	314.7	0.0783	0.002
0.2	319.2	0.0822	0.002
0.2	324.2	0.0873	0.002
0.2	329.2	0.0912	0.002
0.2	334.7	0.0965	0.002
0.2	341.2	0.1021	0.002
0.4	298.2	0.0867	0.002
0.4	303.7	0.0913	0.002
0.4	309.7	0.0978	0.002
0.4	319.2	0.1028	0.002
0.4	327.7	0.1067	0.002
0.4	330.2	0.1087	0.002
0.4	336.2	0.1113	0.002
0	287.2	0.0213	0.002
0	295.7	0.0289	0.002
0	302.7	0.0359	0.002
0	308.2	0.0426	0.002
0	314.2	0.0495	0.002
0	318.2	0.0544	0.002
0	324.2	0.0607	0.002
0	328.7	0.0668	0.002
0	332.7	0.0726	0.002
0	342.2	0.0848	0.002

System: ethanol + methanol + magnesium chloride; phases: Liquid, Crystal of intercomponent compound 2
Fixed: Pressure, kPa = 101
Property: Mole fraction of magnesium chloride (Liquid); method: X-Ray Diffraction
Solvent: Mole fraction of methanol	Temperature, K	Mole fraction of magnesium chloride	uncertainty
0.6	298.2	0.071	0.002
0.6	303.7	0.0725	0.002
0.6	314.2	0.0757	0.002
0.6	329.2	0.0797	0.002
0.6	332.2	0.0804	0.002
0.6	343.2	0.0821	0.002
0.8	298.2	0.0554	0.002
0.8	307.2	0.0568	0.002
0.8	316.2	0.0572	0.002
0.8	318.7	0.0576	0.0021
0.8	337.2	0.0589	0.002
1	283.2	0.0488	0.002
1	289.2	0.0498	0.002
1	300.2	0.0516	0.002
1	305.7	0.0526	0.002
1	311.2	0.0538	0.002
1	313.2	0.0545	0.002
1	317.2	0.0552	0.002
1	323.2	0.0559	0.002
1	328.2	0.0564	0.002
1	334.2	0.0573	0.002

System: methanol + propan-2-ol + magnesium chloride; phases: Liquid, Crystal of intercomponent compound 1
Fixed: Pressure, kPa = 100
Property: Mole fraction of magnesium chloride (Liquid); method: X-Ray Diffraction
Solvent: Mole fraction of methanol	Temperature, K	Mole fraction of magnesium chloride	uncertainty
0	283.2	0.00153	0.00153
0	288.2	0.00157	0.00157
0	298.2	0.00169	0.00169
0	302.7	0.00173	0.00173
0	309.2	0.00183	0.00183
0	313.2	0.00189	0.00189
0	319.7	0.00206	0.002
0	325.7	0.00237	0.002
0	328.2	0.00247	0.002
0	332.2	0.00274	0.002
0	337.2	0.00313	0.002
0	342.2	0.00376	0.002
0.2	294.2	0.0362	0.002
0.2	306.7	0.038	0.002
0.2	311.2	0.0388	0.002
0.2	313.7	0.0393	0.002
0.2	317.2	0.04	0.002
0.2	320.2	0.0408	0.002
0.2	325.7	0.0419	0.002
0.2	329.7	0.0434	0.002

System: methanol + propan-2-ol + magnesium chloride; phases: Liquid, Crystal of intercomponent compound 2
Fixed: Pressure, kPa = 100
Property: Mole fraction of magnesium chloride (Liquid); method: X-Ray Diffraction
Solvent: Mole fraction of methanol	Temperature, K	Mole fraction of magnesium chloride	uncertainty
0.8	286.2	0.0382	0.002
0.8	289.7	0.0391	0.002
0.8	300.7	0.0413	0.002
0.8	305.7	0.0427	0.002
0.8	308.2	0.0436	0.002
0.8	311.7	0.0444	0.002
0.8	315.7	0.0458	0.002
0.8	320.2	0.0475	0.002
0.8	324.2	0.0489	0.002
0.8	328.2	0.0505	0.002
1	283.2	0.0488	0.002
1	289.2	0.0498	0.002
1	300.2	0.0516	0.002
1	305.7	0.0526	0.002
1	311.2	0.0538	0.002
1	313.2	0.0545	0.002
1	317.2	0.0552	0.002
1	323.2	0.0559	0.002
1	328.2	0.0564	0.002
1	334.2	0.0573	0.002
0.6	293.2	0.0313	0.002
0.6	298.2	0.0327	0.002
0.6	300.7	0.0338	0.002
0.6	306.7	0.036	0.002
0.6	311.2	0.0385	0.002
0.6	315.2	0.0409	0.002
0.6	320.7	0.0441	0.002
0.6	325.2	0.0471	0.002
0.6	328.2	0.0501	0.002

System: ethanol + propan-2-ol + magnesium chloride; phases: Liquid, Crystal of intercomponent compound 1
Fixed: Pressure, kPa = 101
Property: Mole fraction of magnesium chloride (Liquid); method: X-Ray Diffraction
Solvent: Mole fraction of ethanol	Temperature, K	Mole fraction of magnesium chloride	uncertainty
0.2	297.2	0.0164	0.002
0.2	302.2	0.0172	0.002
0.2	309.2	0.0182	0.002
0.2	317.2	0.0196	0.002
0.2	321.7	0.0204	0.002
0.2	327.2	0.0219	0.002
0.2	335.2	0.0242	0.002
0.2	340.2	0.0257	0.002
0.2	345.2	0.0274	0.002
0.4	303.2	0.0527	0.002
0.4	317.2	0.0603	0.002
0.4	323.2	0.0614	0.002
0.4	332.2	0.0629	0.002
0.4	337.2	0.0638	0.002
0.4	344.2	0.0675	0.002
0.6	316.2	0.0998	0.002
0.6	322.2	0.101	0.002
0.6	328.2	0.1017	0.002
0.6	334.2	0.1026	0.002
0.6	338.2	0.1034	0.002
0.6	342.2	0.1044	0.002
0.6	345.2	0.1054	0.002
0	283.2	0.00153	0.00153
0	288.2	0.00157	0.00157
0	298.2	0.00169	0.00169
0	302.7	0.00173	0.00173
0	309.2	0.00183	0.00183
0	313.2	0.00189	0.00189
0	319.7	0.00206	0.002
0	325.7	0.00237	0.002
0	328.2	0.00247	0.002
0	332.2	0.00274	0.002
0	337.2	0.00313	0.002
0	342.2	0.00376	0.002

System: ethanol + propan-2-ol + magnesium chloride; phases: Liquid, Crystal of intercomponent compound 2
Fixed: Pressure, kPa = 101
Property: Mole fraction of magnesium chloride (Liquid); method: X-Ray Diffraction
Solvent: Mole fraction of ethanol	Temperature, K	Mole fraction of magnesium chloride	uncertainty
0.6	293.2	0.0276	0.002
0.6	296.7	0.0345	0.0021
0.6	300.2	0.0434	0.0021
0.6	303.2	0.0503	0.0021
0.6	304.2	0.0568	0.0023
0.6	307.7	0.0738	0.0022
0.6	312.2	0.092	0.0021
0.6	313.2	0.094	0.0021
0.8	288.2	0.0184	0.002
0.8	294.2	0.0236	0.002
0.8	298.7	0.0275	0.002
0.8	302.2	0.0338	0.002
0.8	308.2	0.0437	0.002
0.8	315.2	0.0543	0.002
0.8	320.2	0.0663	0.0021
0.8	323.2	0.0726	0.002
0.8	327.2	0.0783	0.002
0.8	329.2	0.0834	0.0021
0.8	334.7	0.0971	0.0021
0.8	340.2	0.111	0.0021
1	287.2	0.0213	0.002
1	295.7	0.0289	0.002
1	302.7	0.0359	0.002
1	308.2	0.0426	0.002
1	314.2	0.0495	0.002
1	318.2	0.0544	0.002
1	324.2	0.0607	0.002
1	328.7	0.0668	0.002
1	332.7	0.0726	0.002
1	342.2	0.0848	0.002
