Measured thermophysical data. Investigation of the Thermodynamic Properties in Aqueous Solutions Containing d-Fructose and Some Imidazolium-Based Ionic Liquids at Different Temperatures
Source: J. Chem. Eng. Data, 2019, 10.1021/acs.jced.8b00958
Compound 1: D-fructose, C6H12O6, InChI=1S/C6H12O6/c7-1-3(9)5(11)6(12)4(10)2-8/h3,5-9,11-12H,1-2H2/t3-,5-,6-/m1/s1, purity 99.5%
Compound 2: 1-butyl-3-methylimidazolium bromide, C8H15BrN2, InChI=1S/C8H15N2.BrH/c1-3-4-5-10-7-6-9(2)8-10;/h6-8H,3-5H2,1-2H3;1H/q+1;/p-1
Compound 3: 1-methyl-3-octylimidazolium bromide, C12H23BrN2, InChI=1S/C12H23N2.BrH/c1-3-4-5-6-7-8-9-14-11-10-13(2)12-14;/h10-12H,3-9H2,1-2H3;1H/q+1;/p-1
Compound 4: 1-methyl-3-octylimidazolium chloride, C12H23ClN2, InChI=1S/C12H23N2.ClH/c1-3-4-5-6-7-8-9-14-11-10-13(2)12-14;/h10-12H,3-9H2,1-2H3;1H/q+1;/p-1
Compound 5: water, H2O, InChI=1S/H2O/h1H2, purity 99.9%

System: D-fructose + water + 1-butyl-3-methylimidazolium bromide; phases: Liquid
Fixed: Pressure, kPa = 85
Property: Mass density, kg/m3 (Liquid); method: Vibrating tube method
Temperature, K	Solvent: Molality, mol/kg of 1-butyl-3-methylimidazolium bromide	Molality, mol/kg of D-fructose	Mass density, kg/m3	uncertainty
288.15	0	0.0498	1002.61	0.62
288.15	0	0.1521	1009.69	0.63
288.15	0	0.2488	1016.24	0.65
288.15	0	0.3494	1022.9	0.67
288.15	0	0.4476	1029.24	0.69
288.15	0	0.5483	1035.58	0.72
288.15	0	0.6491	1041.8	0.75
298.15	0	0.0498	1000.49	0.62
298.15	0	0.1521	1007.43	0.63
298.15	0	0.2488	1013.83	0.65
298.15	0	0.3494	1020.36	0.66
298.15	0	0.4476	1026.59	0.69
298.15	0	0.5483	1032.83	0.71
298.15	0	0.6491	1038.95	0.73
308.15	0	0.0498	997.41	0.62
308.15	0	0.1521	1004.25	0.63
308.15	0	0.2488	1010.55	0.64
308.15	0	0.3494	1016.98	0.66
308.15	0	0.4476	1023.1	0.68
308.15	0	0.5483	1029.27	0.71
308.15	0	0.6491	1035.3	0.73
318.15	0	0.0498	993.54	0.62
318.15	0	0.1521	1000.27	0.63
318.15	0	0.2488	1006.48	0.64
318.15	0	0.3494	1012.8	0.66
318.15	0	0.4476	1018.84	0.68
318.15	0	0.5483	1024.89	0.71
318.15	0	0.6491	1030.8	0.73
288.15	0.1005	0.0499	1007.75	0.66
288.15	0.1005	0.1499	1014.61	0.66
288.15	0.1005	0.2493	1021.3	0.68
288.15	0.1005	0.3495	1027.89	0.69
288.15	0.1005	0.4496	1034.34	0.72
288.15	0.1005	0.5494	1040.64	0.74
288.15	0.1005	0.6492	1046.82	0.77
298.15	0.1005	0.0499	1005.5	0.65
298.15	0.1005	0.1499	1012.24	0.66
298.15	0.1005	0.2493	1018.81	0.67
298.15	0.1005	0.3495	1025.29	0.69
298.15	0.1005	0.4496	1031.62	0.71
298.15	0.1005	0.5494	1037.81	0.74
298.15	0.1005	0.6492	1043.86	0.76
308.15	0.1005	0.0499	1002.29	0.65
308.15	0.1005	0.1499	1008.9	0.66
308.15	0.1005	0.2493	1015.35	0.67
308.15	0.1005	0.3495	1021.73	0.69
308.15	0.1005	0.4496	1027.94	0.71
308.15	0.1005	0.5494	1034.04	0.73
308.15	0.1005	0.6492	1040.01	0.76
318.15	0.1005	0.0499	998.32	0.65
318.15	0.1005	0.1499	1004.85	0.66
318.15	0.1005	0.2493	1011.21	0.67
318.15	0.1005	0.3495	1017.48	0.69
318.15	0.1005	0.4496	1023.62	0.71
318.15	0.1005	0.5494	1029.6	0.73
318.15	0.1005	0.6492	1035.45	0.75
288.15	0.2004	0.0476	1012.4	0.73
288.15	0.2004	0.1491	1019.32	0.74
288.15	0.2004	0.2498	1026.06	0.75
288.15	0.2004	0.3499	1032.64	0.77
288.15	0.2004	0.4471	1038.89	0.79
288.15	0.2004	0.5167	1043.29	0.8
288.15	0.2004	0.648	1051.41	0.84
298.15	0.2004	0.0476	1010.02	0.73
298.15	0.2004	0.1491	1016.82	0.73
298.15	0.2004	0.2498	1023.45	0.74
298.15	0.2004	0.3499	1029.88	0.76
298.15	0.2004	0.4471	1036	0.78
298.15	0.2004	0.5167	1040.3	0.79
298.15	0.2004	0.648	1048.25	0.82
308.15	0.2004	0.0476	1006.72	0.72
308.15	0.2004	0.1491	1013.4	0.73
308.15	0.2004	0.2498	1019.91	0.74
308.15	0.2004	0.3499	1026.23	0.75
308.15	0.2004	0.4471	1032.27	0.77
308.15	0.2004	0.5167	1036.5	0.79
308.15	0.2004	0.648	1044.35	0.82
318.15	0.2004	0.0476	1002.66	0.72
318.15	0.2004	0.1491	1009.26	0.72
318.15	0.2004	0.2498	1015.68	0.74
318.15	0.2004	0.3499	1021.92	0.75
318.15	0.2004	0.4471	1027.86	0.77
318.15	0.2004	0.5167	1032.04	0.78
318.15	0.2004	0.648	1039.75	0.81
288.15	0.3001	0.0497	1017.32	0.85
288.15	0.3001	0.1496	1024.09	0.85
288.15	0.3001	0.2486	1030.7	0.86
288.15	0.3001	0.3495	1037.28	0.87
288.15	0.3001	0.449	1043.68	0.89
288.15	0.3001	0.5501	1050.03	0.91
288.15	0.3001	0.6486	1056.07	0.93
298.15	0.3001	0.0497	1014.81	0.82
298.15	0.3001	0.1496	1021.48	0.83
298.15	0.3001	0.2486	1027.94	0.83
298.15	0.3001	0.3495	1034.4	0.85
298.15	0.3001	0.449	1040.63	0.86
298.15	0.3001	0.5501	1046.83	0.88
298.15	0.3001	0.6486	1052.74	0.89
308.15	0.3001	0.0497	1011.4	0.81
308.15	0.3001	0.1496	1017.95	0.82
308.15	0.3001	0.2486	1024.32	0.83
308.15	0.3001	0.3495	1030.67	0.84
308.15	0.3001	0.449	1036.82	0.86
308.15	0.3001	0.5501	1042.94	0.88
308.15	0.3001	0.6486	1048.76	0.88
318.15	0.3001	0.0497	1007.24	0.82
318.15	0.3001	0.1496	1013.71	0.82
318.15	0.3001	0.2486	1020.01	0.83
318.15	0.3001	0.3495	1026.27	0.84
318.15	0.3001	0.449	1032.32	0.86
318.15	0.3001	0.5501	1038.34	0.88
318.15	0.3001	0.6486	1044.08	0.9

System: D-fructose + water + 1-butyl-3-methylimidazolium bromide; phases: Liquid
Fixed: Pressure, kPa = 85
Fixed: Frequency, MHz = 3
Property: Speed of sound, m/s (Liquid); method: Single path-length method
Temperature, K	Solvent: Molality, mol/kg of 1-butyl-3-methylimidazolium bromide	Molality, mol/kg of D-fructose	Speed of sound, m/s	uncertainty
288.15	0	0.0498	1470.03	1.33
288.15	0	0.1521	1477.33	1.33
288.15	0	0.2488	1484.3	1.34
288.15	0	0.3494	1491.58	1.35
288.15	0	0.4476	1498.57	1.36
288.15	0	0.5483	1505.64	1.38
288.15	0	0.6491	1512.58	1.4
298.15	0	0.0498	1500	1.33
298.15	0	0.1521	1506.7	1.33
298.15	0	0.2488	1513.13	1.33
298.15	0	0.3494	1519.4	1.34
298.15	0	0.4476	1525.58	1.36
298.15	0	0.5483	1532.05	1.37
298.15	0	0.6491	1538.38	1.35
308.15	0	0.0498	1522.73	1.33
308.15	0	0.1521	1528.75	1.33
308.15	0	0.2488	1534.44	1.33
308.15	0	0.3494	1540.28	1.34
308.15	0	0.4476	1545.95	1.35
308.15	0	0.5483	1551.32	1.36
308.15	0	0.6491	1556.86	1.35
318.15	0	0.0498	1539.01	1.32
318.15	0	0.1521	1544.5	1.33
318.15	0	0.2488	1549.8	1.33
318.15	0	0.3494	1555.01	1.34
318.15	0	0.4476	1559.91	1.34
318.15	0	0.5483	1565.3	1.35
318.15	0	0.6491	1570.3	1.36
288.15	0.1005	0.0499	1481.75	1.4
288.15	0.1005	0.1499	1488.81	1.41
288.15	0.1005	0.2493	1495.91	1.41
288.15	0.1005	0.3495	1503.08	1.42
288.15	0.1005	0.4496	1510.02	1.43
288.15	0.1005	0.5494	1517.1	1.45
288.15	0.1005	0.6492	1523.98	1.46
298.15	0.1005	0.0499	1509.51	1.38
298.15	0.1005	0.1499	1516.01	1.38
298.15	0.1005	0.2493	1522.32	1.38
298.15	0.1005	0.3495	1528.76	1.39
298.15	0.1005	0.4496	1535.3	1.41
298.15	0.1005	0.5494	1541.94	1.41
298.15	0.1005	0.6492	1547.51	1.39
308.15	0.1005	0.0499	1530.4	1.36
308.15	0.1005	0.1499	1536.5	1.36
308.15	0.1005	0.2493	1542.42	1.37
308.15	0.1005	0.3495	1548.09	1.37
308.15	0.1005	0.4496	1553.6	1.38
308.15	0.1005	0.5494	1559.21	1.39
308.15	0.1005	0.6492	1565.2	1.39
318.15	0.1005	0.0499	1544.9	1.35
318.15	0.1005	0.1499	1550.3	1.35
318.15	0.1005	0.2493	1555.62	1.35
318.15	0.1005	0.3495	1560.6	1.36
318.15	0.1005	0.4496	1565.85	1.37
318.15	0.1005	0.5494	1570.97	1.37
318.15	0.1005	0.6492	1576.3	1.39
288.15	0.2004	0.0476	1492.74	1.6
288.15	0.2004	0.1491	1499.85	1.6
288.15	0.2004	0.2498	1506.76	1.59
288.15	0.2004	0.3499	1513.65	1.6
288.15	0.2004	0.4471	1520.34	1.61
288.15	0.2004	0.5167	1525.2	1.62
288.15	0.2004	0.648	1534.67	1.64
298.15	0.2004	0.0476	1518.7	1.52
298.15	0.2004	0.1491	1525.1	1.51
298.15	0.2004	0.2498	1531.46	1.52
298.15	0.2004	0.3499	1537.89	1.52
298.15	0.2004	0.4471	1543.61	1.52
298.15	0.2004	0.5167	1548.1	1.53
298.15	0.2004	0.648	1555.2	1.54
308.15	0.2004	0.0476	1537.96	1.46
308.15	0.2004	0.1491	1543.95	1.45
308.15	0.2004	0.2498	1549.61	1.45
308.15	0.2004	0.3499	1555.35	1.45
308.15	0.2004	0.4471	1560.72	1.46
308.15	0.2004	0.5167	1564.7	1.48
308.15	0.2004	0.648	1571.95	1.47
318.15	0.2004	0.0476	1551.01	1.41
318.15	0.2004	0.1491	1556.27	1.41
318.15	0.2004	0.2498	1561.53	1.41
318.15	0.2004	0.3499	1566.68	1.42
318.15	0.2004	0.4471	1571.64	1.42
318.15	0.2004	0.5167	1575.2	1.43
318.15	0.2004	0.648	1581.81	1.44
288.15	0.3001	0.0497	1503.95	1.88
288.15	0.3001	0.1496	1510.76	1.87
288.15	0.3001	0.2486	1517.54	1.87
288.15	0.3001	0.3495	1524.5	1.88
288.15	0.3001	0.449	1531.41	1.89
288.15	0.3001	0.5501	1538.28	1.9
288.15	0.3001	0.6486	1545.09	1.88
298.15	0.3001	0.0497	1527.87	1.56
298.15	0.3001	0.1496	1534.07	1.62
298.15	0.3001	0.2486	1540.24	1.62
298.15	0.3001	0.3495	1546.57	1.61
298.15	0.3001	0.449	1552.8	1.65
298.15	0.3001	0.5501	1559.29	1.65
298.15	0.3001	0.6486	1564.98	1.64
308.15	0.3001	0.0497	1545.42	1.47
308.15	0.3001	0.1496	1551.1	1.51
308.15	0.3001	0.2486	1556.67	1.51
308.15	0.3001	0.3495	1562.24	1.51
308.15	0.3001	0.449	1567.85	1.53
308.15	0.3001	0.5501	1573.54	1.54
308.15	0.3001	0.6486	1578.98	1.49
318.15	0.3001	0.0497	1557.18	1.51
318.15	0.3001	0.1496	1562.21	1.51
318.15	0.3001	0.2486	1567.2	1.5
318.15	0.3001	0.3495	1572.35	1.5
318.15	0.3001	0.449	1577.5	1.51
318.15	0.3001	0.5501	1582.66	1.52
318.15	0.3001	0.6486	1587.74	1.54

System: D-fructose + water + 1-butyl-3-methylimidazolium bromide; phases: Liquid
Fixed: Pressure, kPa = 85
Property: Viscosity, Pa*s (Liquid); method: Falling or rolling sphere viscometry
Temperature, K	Solvent: Molality, mol/kg of 1-butyl-3-methylimidazolium bromide	Molality, mol/kg of D-fructose	Viscosity, Pa*s	uncertainty
288.15	0	0.0498	0.001163	3.2e-05
288.15	0	0.1521	0.001224	3.2e-05
288.15	0	0.2488	0.001274	3.2e-05
288.15	0	0.3494	0.001335	3.2e-05
288.15	0	0.4476	0.001394	3.2e-05
288.15	0	0.5483	0.001465	3.3e-05
288.15	0	0.6491	0.001529	3.3e-05
298.15	0	0.0498	0.000912	3.1e-05
298.15	0	0.1521	0.000964	3.1e-05
298.15	0	0.2488	0.000993	3.1e-05
298.15	0	0.3494	0.001038	3.1e-05
298.15	0	0.4476	0.00108	3.1e-05
298.15	0	0.5483	0.001133	3.2e-05
298.15	0	0.6491	0.001178	3.2e-05
308.15	0	0.0498	0.000743	3.1e-05
308.15	0	0.1521	0.000774	3.1e-05
308.15	0	0.2488	0.000804	3.1e-05
308.15	0	0.3494	0.000836	3.1e-05
308.15	0	0.4476	0.00087	3.1e-05
308.15	0	0.5483	0.000909	3.1e-05
308.15	0	0.6491	0.000941	3.1e-05
318.15	0	0.0498	0.000624	3e-05
318.15	0	0.1521	0.000648	3e-05
318.15	0	0.2488	0.00067	3.1e-05
318.15	0	0.3494	0.000699	3.1e-05
318.15	0	0.4476	0.000718	3.1e-05
318.15	0	0.5483	0.000747	3.1e-05
318.15	0	0.6491	0.000777	3.1e-05
288.15	0.1005	0.0499	0.001223	3.2e-05
288.15	0.1005	0.1499	0.001281	3.2e-05
288.15	0.1005	0.2493	0.001349	3.2e-05
288.15	0.1005	0.3495	0.001435	3.3e-05
288.15	0.1005	0.4496	0.001501	3.3e-05
288.15	0.1005	0.5494	0.001583	3.3e-05
288.15	0.1005	0.6492	0.001672	3.4e-05
298.15	0.1005	0.0499	0.000954	3.1e-05
298.15	0.1005	0.1499	0.001004	3.1e-05
298.15	0.1005	0.2493	0.001046	3.1e-05
298.15	0.1005	0.3495	0.00111	3.2e-05
298.15	0.1005	0.4496	0.00116	3.2e-05
298.15	0.1005	0.5494	0.001216	3.2e-05
298.15	0.1005	0.6492	0.00127	3.2e-05
308.15	0.1005	0.0499	0.00078	3.1e-05
308.15	0.1005	0.1499	0.000816	3.1e-05
308.15	0.1005	0.2493	0.000842	3.1e-05
308.15	0.1005	0.3495	0.000888	3.1e-05
308.15	0.1005	0.4496	0.000925	3.1e-05
308.15	0.1005	0.5494	0.00097	3.1e-05
308.15	0.1005	0.6492	0.001019	3.1e-05
318.15	0.1005	0.0499	0.00064	3e-05
318.15	0.1005	0.1499	0.000672	3.1e-05
318.15	0.1005	0.2493	0.000697	3.1e-05
318.15	0.1005	0.3495	0.00073	3.1e-05
318.15	0.1005	0.4496	0.000758	3.1e-05
318.15	0.1005	0.5494	0.000793	3.1e-05
318.15	0.1005	0.6492	0.000832	3.1e-05
288.15	0.2004	0.0476	0.001268	3.2e-05
288.15	0.2004	0.1491	0.00134	3.2e-05
288.15	0.2004	0.2498	0.001414	3.3e-05
288.15	0.2004	0.3499	0.001492	3.3e-05
288.15	0.2004	0.4471	0.001569	3.3e-05
288.15	0.2004	0.5167	0.001628	3.4e-05
288.15	0.2004	0.648	0.001748	3.5e-05
298.15	0.2004	0.0476	0.000987	3.1e-05
298.15	0.2004	0.1491	0.001039	3.1e-05
298.15	0.2004	0.2498	0.001093	3.2e-05
298.15	0.2004	0.3499	0.00115	3.2e-05
298.15	0.2004	0.4471	0.001207	3.2e-05
298.15	0.2004	0.5167	0.001247	3.2e-05
298.15	0.2004	0.648	0.001334	3.3e-05
308.15	0.2004	0.0476	0.000796	3.1e-05
308.15	0.2004	0.1491	0.000836	3.1e-05
308.15	0.2004	0.2498	0.000877	3.1e-05
308.15	0.2004	0.3499	0.000921	3.1e-05
308.15	0.2004	0.4471	0.000957	3.1e-05
308.15	0.2004	0.5167	0.000991	3.1e-05
308.15	0.2004	0.648	0.001055	3.2e-05
318.15	0.2004	0.0476	0.000662	3.1e-05
318.15	0.2004	0.1491	0.000692	3.1e-05
318.15	0.2004	0.2498	0.000724	3.1e-05
318.15	0.2004	0.3499	0.000758	3.1e-05
318.15	0.2004	0.4471	0.000786	3.1e-05
318.15	0.2004	0.5167	0.000811	3.1e-05
318.15	0.2004	0.648	0.00086	3.1e-05
288.15	0.3001	0.0497	0.00132	3.3e-05
288.15	0.3001	0.1496	0.001398	3.3e-05
288.15	0.3001	0.2486	0.001477	3.3e-05
288.15	0.3001	0.3495	0.00156	3.4e-05
288.15	0.3001	0.449	0.001644	3.4e-05
288.15	0.3001	0.5501	0.001738	3.5e-05
288.15	0.3001	0.6486	0.001833	3.6e-05
298.15	0.3001	0.0497	0.00103	3.2e-05
298.15	0.3001	0.1496	0.001081	3.2e-05
298.15	0.3001	0.2486	0.001139	3.3e-05
298.15	0.3001	0.3495	0.001198	3.3e-05
298.15	0.3001	0.449	0.001259	3.3e-05
298.15	0.3001	0.5501	0.001326	3.4e-05
298.15	0.3001	0.6486	0.001396	3.6e-05
308.15	0.3001	0.0497	0.000825	3.1e-05
308.15	0.3001	0.1496	0.000866	3.1e-05
308.15	0.3001	0.2486	0.00091	3.1e-05
308.15	0.3001	0.3495	0.000955	3.2e-05
308.15	0.3001	0.449	0.001001	3.2e-05
308.15	0.3001	0.5501	0.001049	3.2e-05
308.15	0.3001	0.6486	0.001101	3.3e-05
318.15	0.3001	0.0497	0.00068	3.1e-05
318.15	0.3001	0.1496	0.000715	3.1e-05
318.15	0.3001	0.2486	0.000749	3.1e-05
318.15	0.3001	0.3495	0.000784	3.1e-05
318.15	0.3001	0.449	0.000819	3.1e-05
318.15	0.3001	0.5501	0.000855	3.1e-05
318.15	0.3001	0.6486	0.000896	3.1e-05

System: D-fructose + water + 1-methyl-3-octylimidazolium bromide; phases: Liquid
Fixed: Pressure, kPa = 85
Property: Mass density, kg/m3 (Liquid); method: Vibrating tube method
Temperature, K	Solvent: Molality, mol/kg of 1-methyl-3-octylimidazolium bromide	Molality, mol/kg of D-fructose	Mass density, kg/m3	uncertainty
288.15	0.1009	0.0501	1007.12	0.65
288.15	0.1009	0.1498	1013.96	0.66
288.15	0.1009	0.2481	1020.58	0.67
288.15	0.1009	0.3486	1027.2	0.69
288.15	0.1009	0.4491	1033.68	0.71
288.15	0.1009	0.5499	1040.05	0.74
288.15	0.1009	0.6476	1046.12	0.77
298.15	0.1009	0.0501	1004.77	0.65
298.15	0.1009	0.1498	1011.5	0.65
298.15	0.1009	0.2481	1018	0.67
298.15	0.1009	0.3486	1024.5	0.69
298.15	0.1009	0.4491	1030.87	0.71
298.15	0.1009	0.5499	1037.16	0.73
298.15	0.1009	0.6476	1043.11	0.75
308.15	0.1009	0.0501	1001.48	0.64
308.15	0.1009	0.1498	1008.1	0.65
308.15	0.1009	0.2481	1014.46	0.66
308.15	0.1009	0.3486	1020.87	0.68
308.15	0.1009	0.4491	1027.13	0.7
308.15	0.1009	0.5499	1033.27	0.73
308.15	0.1009	0.6476	1039.12	0.75
318.15	0.1009	0.0501	997.41	0.64
318.15	0.1009	0.1498	1003.9	0.65
318.15	0.1009	0.2481	1010.2	0.66
318.15	0.1009	0.3486	1016.47	0.68
318.15	0.1009	0.4491	1022.62	0.7
318.15	0.1009	0.5499	1028.67	0.72
318.15	0.1009	0.6476	1034.5	0.75
288.15	0.2009	0.0508	1011.45	0.7
288.15	0.2009	0.1503	1018.23	0.71
288.15	0.2009	0.2491	1024.85	0.72
288.15	0.2009	0.3507	1031.54	0.74
288.15	0.2009	0.45	1037.92	0.76
288.15	0.2009	0.5459	1043.96	0.78
288.15	0.2009	0.648	1050.27	0.8
298.15	0.2009	0.0508	1008.83	0.7
298.15	0.2009	0.1503	1015.5	0.7
298.15	0.2009	0.2491	1022.01	0.71
298.15	0.2009	0.3507	1028.55	0.73
298.15	0.2009	0.45	1034.83	0.75
298.15	0.2009	0.5459	1040.75	0.77
298.15	0.2009	0.648	1046.95	0.79
308.15	0.2009	0.0508	1005.33	0.69
308.15	0.2009	0.1503	1011.88	0.7
308.15	0.2009	0.2491	1018.29	0.71
308.15	0.2009	0.3507	1024.75	0.72
308.15	0.2009	0.45	1030.91	0.74
308.15	0.2009	0.5459	1036.73	0.76
308.15	0.2009	0.648	1042.83	0.78
318.15	0.2009	0.0508	1001.1	0.68
318.15	0.2009	0.1503	1007.55	0.69
318.15	0.2009	0.2491	1013.84	0.7
318.15	0.2009	0.3507	1020.2	0.72
318.15	0.2009	0.45	1026.25	0.74
318.15	0.2009	0.5459	1032.01	0.76
318.15	0.2009	0.648	1037.99	0.78
288.15	0.2975	0.0507	1015.14	0.77
288.15	0.2975	0.1492	1021.82	0.78
288.15	0.2975	0.2482	1028.42	0.78
288.15	0.2975	0.3497	1035.04	0.8
288.15	0.2975	0.4531	1041.63	0.81
288.15	0.2975	0.5522	1047.85	0.83
288.15	0.2975	0.6497	1053.85	0.86
298.15	0.2975	0.0507	1012.35	0.74
298.15	0.2975	0.1492	1018.92	0.75
298.15	0.2975	0.2482	1025.39	0.76
298.15	0.2975	0.3497	1031.89	0.77
298.15	0.2975	0.4531	1038.36	0.79
298.15	0.2975	0.5522	1044.42	0.81
298.15	0.2975	0.6497	1050.31	0.83
308.15	0.2975	0.0507	1008.71	0.73
308.15	0.2975	0.1492	1015.18	0.75
308.15	0.2975	0.2482	1021.57	0.75
308.15	0.2975	0.3497	1027.98	0.77
308.15	0.2975	0.4531	1034.37	0.78
308.15	0.2975	0.5522	1040.35	0.81
308.15	0.2975	0.6497	1046.15	0.82
318.15	0.2975	0.0507	1004.35	0.74
318.15	0.2975	0.1492	1010.72	0.74
318.15	0.2975	0.2482	1017	0.75
318.15	0.2975	0.3497	1023.33	0.77
318.15	0.2975	0.4531	1029.63	0.79
318.15	0.2975	0.5522	1035.52	0.8
318.15	0.2975	0.6497	1041.22	0.83

System: D-fructose + water + 1-methyl-3-octylimidazolium bromide; phases: Liquid
Fixed: Pressure, kPa = 85
Fixed: Frequency, MHz = 3
Property: Speed of sound, m/s (Liquid); method: Single path-length method
Temperature, K	Solvent: Molality, mol/kg of 1-methyl-3-octylimidazolium bromide	Molality, mol/kg of D-fructose	Speed of sound, m/s	uncertainty
288.15	0.1009	0.0501	1488.58	1.46
288.15	0.1009	0.1498	1495.68	1.46
288.15	0.1009	0.2481	1502.45	1.46
288.15	0.1009	0.3486	1509.56	1.47
288.15	0.1009	0.4491	1516.46	1.48
288.15	0.1009	0.5499	1523.55	1.49
288.15	0.1009	0.6476	1530.18	1.5
298.15	0.1009	0.0501	1515.12	1.44
298.15	0.1009	0.1498	1521.42	1.43
298.15	0.1009	0.2481	1527.58	1.43
298.15	0.1009	0.3486	1533.96	1.44
298.15	0.1009	0.4491	1540.25	1.44
298.15	0.1009	0.5499	1546.7	1.45
298.15	0.1009	0.6476	1553.16	1.44
308.15	0.1009	0.0501	1534.55	1.4
308.15	0.1009	0.1498	1540.3	1.39
308.15	0.1009	0.2481	1546.01	1.39
308.15	0.1009	0.3486	1551.6	1.39
308.15	0.1009	0.4491	1557.32	1.4
308.15	0.1009	0.5499	1562.99	1.41
308.15	0.1009	0.6476	1568.21	1.4
318.15	0.1009	0.0501	1548.03	1.35
318.15	0.1009	0.1498	1553.28	1.35
318.15	0.1009	0.2481	1558.41	1.35
318.15	0.1009	0.3486	1563.73	1.36
318.15	0.1009	0.4491	1568.47	1.36
318.15	0.1009	0.5499	1573.65	1.37
318.15	0.1009	0.6476	1578.5	1.38
288.15	0.2009	0.0508	1503.7	1.57
288.15	0.2009	0.1503	1510.55	1.56
288.15	0.2009	0.2491	1517.29	1.56
288.15	0.2009	0.3507	1524.05	1.55
288.15	0.2009	0.45	1530.84	1.56
288.15	0.2009	0.5459	1537.16	1.56
288.15	0.2009	0.648	1543.77	1.53
298.15	0.2009	0.0508	1526.78	1.46
298.15	0.2009	0.1503	1532.95	1.46
298.15	0.2009	0.2491	1539.06	1.46
298.15	0.2009	0.3507	1545.25	1.46
298.15	0.2009	0.45	1551.35	1.47
298.15	0.2009	0.5459	1557	1.47
298.15	0.2009	0.648	1563.01	1.45
308.15	0.2009	0.0508	1543.6	1.4
308.15	0.2009	0.1503	1549.18	1.4
308.15	0.2009	0.2491	1554.71	1.4
308.15	0.2009	0.3507	1560.2	1.41
308.15	0.2009	0.45	1565.5	1.41
308.15	0.2009	0.5459	1570.51	1.42
308.15	0.2009	0.648	1576.08	1.4
318.15	0.2009	0.0508	1554.84	1.37
318.15	0.2009	0.1503	1559.73	1.37
318.15	0.2009	0.2491	1564.6	1.37
318.15	0.2009	0.3507	1569.64	1.37
318.15	0.2009	0.45	1574.56	1.38
318.15	0.2009	0.5459	1579.28	1.39
318.15	0.2009	0.648	1584.23	1.37
288.15	0.2975	0.0507	1509.02	1.48
288.15	0.2975	0.1492	1515.49	1.47
288.15	0.2975	0.2482	1522.04	1.46
288.15	0.2975	0.3497	1528.45	1.46
288.15	0.2975	0.4531	1535.31	1.45
288.15	0.2975	0.5522	1541.66	1.46
288.15	0.2975	0.6497	1548.01	1.48
298.15	0.2975	0.0507	1529.92	1.34
298.15	0.2975	0.1492	1535.95	1.35
298.15	0.2975	0.2482	1542.07	1.36
298.15	0.2975	0.3497	1548.18	1.36
298.15	0.2975	0.4531	1554.36	1.37
298.15	0.2975	0.5522	1560.54	1.39
298.15	0.2975	0.6497	1566.41	1.35
308.15	0.2975	0.0507	1545.68	1.33
308.15	0.2975	0.1492	1551.3	1.33
308.15	0.2975	0.2482	1556.9	1.34
308.15	0.2975	0.3497	1562.35	1.34
308.15	0.2975	0.4531	1567.77	1.35
308.15	0.2975	0.5522	1573.03	1.37
308.15	0.2975	0.6497	1578.26	1.35
318.15	0.2975	0.0507	1556.18	1.33
318.15	0.2975	0.1492	1561.1	1.34
318.15	0.2975	0.2482	1566	1.34
318.15	0.2975	0.3497	1570.9	1.35
318.15	0.2975	0.4531	1576.2	1.36
318.15	0.2975	0.5522	1581.25	1.36
318.15	0.2975	0.6497	1585.63	1.37

System: D-fructose + water + 1-methyl-3-octylimidazolium bromide; phases: Liquid
Fixed: Pressure, kPa = 85
Property: Viscosity, Pa*s (Liquid); method: Falling or rolling sphere viscometry
Temperature, K	Solvent: Molality, mol/kg of 1-methyl-3-octylimidazolium bromide	Molality, mol/kg of D-fructose	Viscosity, Pa*s	uncertainty
288.15	0.1009	0.0501	0.001268	3.2e-05
288.15	0.1009	0.1498	0.001342	3.2e-05
288.15	0.1009	0.2481	0.001404	3.3e-05
288.15	0.1009	0.3486	0.001488	3.3e-05
288.15	0.1009	0.4491	0.001562	3.3e-05
288.15	0.1009	0.5499	0.001649	3.4e-05
288.15	0.1009	0.6476	0.001735	3.4e-05
298.15	0.1009	0.0501	0.000986	3.1e-05
298.15	0.1009	0.1498	0.001038	3.1e-05
298.15	0.1009	0.2481	0.001083	3.1e-05
298.15	0.1009	0.3486	0.001143	3.2e-05
298.15	0.1009	0.4491	0.001197	3.2e-05
298.15	0.1009	0.5499	0.00126	3.2e-05
298.15	0.1009	0.6476	0.001322	3.3e-05
308.15	0.1009	0.0501	0.000793	3.1e-05
308.15	0.1009	0.1498	0.000832	3.1e-05
308.15	0.1009	0.2481	0.00087	3.1e-05
308.15	0.1009	0.3486	0.000911	3.1e-05
308.15	0.1009	0.4491	0.000953	3.1e-05
308.15	0.1009	0.5499	0.000999	3.1e-05
308.15	0.1009	0.6476	0.001045	3.2e-05
318.15	0.1009	0.0501	0.000658	3.1e-05
318.15	0.1009	0.1498	0.000688	3.1e-05
318.15	0.1009	0.2481	0.000719	3.1e-05
318.15	0.1009	0.3486	0.000748	3.1e-05
318.15	0.1009	0.4491	0.00078	3.1e-05
318.15	0.1009	0.5499	0.000816	3.1e-05
318.15	0.1009	0.6476	0.000853	3.1e-05
288.15	0.2009	0.0508	0.001377	3.3e-05
288.15	0.2009	0.1503	0.001441	3.3e-05
288.15	0.2009	0.2491	0.001515	3.4e-05
288.15	0.2009	0.3507	0.001598	3.5e-05
288.15	0.2009	0.45	0.00169	3.5e-05
288.15	0.2009	0.5459	0.001781	3.6e-05
288.15	0.2009	0.648	0.001869	3.6e-05
298.15	0.2009	0.0508	0.001055	3.2e-05
298.15	0.2009	0.1503	0.001108	3.2e-05
298.15	0.2009	0.2491	0.001161	3.2e-05
298.15	0.2009	0.3507	0.001228	3.3e-05
298.15	0.2009	0.45	0.001289	3.3e-05
298.15	0.2009	0.5459	0.001356	3.3e-05
298.15	0.2009	0.648	0.001421	3.4e-05
308.15	0.2009	0.0508	0.000847	3.1e-05
308.15	0.2009	0.1503	0.000888	3.1e-05
308.15	0.2009	0.2491	0.000925	3.1e-05
308.15	0.2009	0.3507	0.000969	3.2e-05
308.15	0.2009	0.45	0.001026	3.2e-05
308.15	0.2009	0.5459	0.001069	3.2e-05
308.15	0.2009	0.648	0.001121	3.3e-05
318.15	0.2009	0.0508	0.000708	3.1e-05
318.15	0.2009	0.1503	0.000735	3.1e-05
318.15	0.2009	0.2491	0.000764	3.1e-05
318.15	0.2009	0.3507	0.000799	3.1e-05
318.15	0.2009	0.45	0.000834	3.1e-05
318.15	0.2009	0.5459	0.000873	3.1e-05
318.15	0.2009	0.648	0.000912	3.2e-05
288.15	0.2975	0.0507	0.001462	3.4e-05
288.15	0.2975	0.1492	0.00153	3.5e-05
288.15	0.2975	0.2482	0.001631	3.6e-05
288.15	0.2975	0.3497	0.00174	3.7e-05
288.15	0.2975	0.4531	0.001825	3.8e-05
288.15	0.2975	0.5522	0.001923	3.8e-05
288.15	0.2975	0.6497	0.002025	4e-05
298.15	0.2975	0.0507	0.001137	3.4e-05
298.15	0.2975	0.1492	0.0012	3.4e-05
298.15	0.2975	0.2482	0.00125	3.5e-05
298.15	0.2975	0.3497	0.001338	3.6e-05
298.15	0.2975	0.4531	0.001395	3.6e-05
298.15	0.2975	0.5522	0.001456	3.6e-05
298.15	0.2975	0.6497	0.001533	4e-05
308.15	0.2975	0.0507	0.000906	3.3e-05
308.15	0.2975	0.1492	0.000953	3.3e-05
308.15	0.2975	0.2482	0.001	3.3e-05
308.15	0.2975	0.3497	0.001057	3.4e-05
308.15	0.2975	0.4531	0.001105	3.4e-05
308.15	0.2975	0.5522	0.001153	3.4e-05
308.15	0.2975	0.6497	0.001224	3.6e-05
318.15	0.2975	0.0507	0.00077	3.2e-05
318.15	0.2975	0.1492	0.000807	3.2e-05
318.15	0.2975	0.2482	0.00083	3.2e-05
318.15	0.2975	0.3497	0.00086	3.2e-05
318.15	0.2975	0.4531	0.000902	3.2e-05
318.15	0.2975	0.5522	0.000952	3.2e-05
318.15	0.2975	0.6497	0.000984	3.2e-05

System: D-fructose + water + 1-methyl-3-octylimidazolium chloride; phases: Liquid
Fixed: Pressure, kPa = 85
Property: Mass density, kg/m3 (Liquid); method: Vibrating tube method
Temperature, K	Solvent: Molality, mol/kg of 1-methyl-3-octylimidazolium chloride	Molality, mol/kg of D-fructose	Mass density, kg/m3	uncertainty
288.15	0.1008	0.0507	1003.5	0.62
288.15	0.1008	0.1495	1010.31	0.63
288.15	0.1008	0.2499	1017.09	0.65
288.15	0.1008	0.3479	1023.57	0.67
288.15	0.1008	0.4486	1030.08	0.69
288.15	0.1008	0.5432	1036.1	0.72
288.15	0.1008	0.6484	1042.65	0.75
298.15	0.1008	0.0507	1001.16	0.62
298.15	0.1008	0.1495	1007.83	0.63
298.15	0.1008	0.2499	1014.48	0.65
298.15	0.1008	0.3479	1020.83	0.66
298.15	0.1008	0.4486	1027.22	0.69
298.15	0.1008	0.5432	1033.11	0.71
298.15	0.1008	0.6484	1039.53	0.74
308.15	0.1008	0.0507	997.89	0.62
308.15	0.1008	0.1495	1004.45	0.63
308.15	0.1008	0.2499	1010.99	0.64
308.15	0.1008	0.3479	1017.25	0.66
308.15	0.1008	0.4486	1023.56	0.69
308.15	0.1008	0.5432	1029.35	0.71
308.15	0.1008	0.6484	1035.65	0.73
318.15	0.1008	0.0507	993.83	0.62
318.15	0.1008	0.1495	1000.33	0.63
318.15	0.1008	0.2499	1006.79	0.64
318.15	0.1008	0.3479	1012.98	0.66
318.15	0.1008	0.4486	1019.2	0.68
318.15	0.1008	0.5432	1024.94	0.71
318.15	0.1008	0.6484	1031.18	0.74
288.15	0.2001	0.0507	1004.28	0.63
288.15	0.2001	0.1508	1011.16	0.63
288.15	0.2001	0.2489	1017.76	0.65
288.15	0.2001	0.3494	1024.39	0.67
288.15	0.2001	0.4491	1030.83	0.69
288.15	0.2001	0.5465	1036.99	0.72
288.15	0.2001	0.645	1043.12	0.75
298.15	0.2001	0.0507	1001.7	0.62
298.15	0.2001	0.1508	1008.45	0.63
298.15	0.2001	0.2489	1014.93	0.65
298.15	0.2001	0.3494	1021.44	0.67
298.15	0.2001	0.4491	1027.76	0.69
298.15	0.2001	0.5465	1033.81	0.71
298.15	0.2001	0.645	1039.82	0.736
308.15	0.2001	0.0507	998.24	0.62
308.15	0.2001	0.1508	1004.88	0.63
308.15	0.2001	0.2489	1011.26	0.64
308.15	0.2001	0.3494	1017.67	0.66
308.15	0.2001	0.4491	1023.89	0.69
308.15	0.2001	0.5465	1029.85	0.71
308.15	0.2001	0.645	1035.77	0.73
318.15	0.2001	0.0507	994.08	0.62
318.15	0.2001	0.1508	1000.63	0.63
318.15	0.2001	0.2489	1006.92	0.64
318.15	0.2001	0.3494	1013.3	0.66
318.15	0.2001	0.4491	1019.47	0.68
318.15	0.2001	0.5465	1025.36	0.71
318.15	0.2001	0.645	1031.19	0.73
288.15	0.3004	0.0505	1005	0.63
288.15	0.3004	0.1492	1011.74	0.64
288.15	0.3004	0.2448	1018.15	0.65
288.15	0.3004	0.3496	1025.01	0.67
288.15	0.3004	0.4488	1031.39	0.69
288.15	0.3004	0.5497	1037.75	0.72
288.15	0.3004	0.6491	1043.87	0.75
298.15	0.3004	0.0505	1002.17	0.62
298.15	0.3004	0.1492	1008.79	0.63
298.15	0.3004	0.2448	1015.07	0.65
298.15	0.3004	0.3496	1021.81	0.66
298.15	0.3004	0.4488	1028.05	0.69
298.15	0.3004	0.5497	1034.28	0.71
298.15	0.3004	0.6491	1040.28	0.74
308.15	0.3004	0.0505	998.55	0.62
308.15	0.3004	0.1492	1005.07	0.63
308.15	0.3004	0.2448	1011.27	0.64
308.15	0.3004	0.3496	1017.91	0.66
308.15	0.3004	0.4488	1024.12	0.68
308.15	0.3004	0.5497	1030.28	0.71
308.15	0.3004	0.6491	1036.21	0.73
318.15	0.3004	0.0505	994.2	0.62
318.15	0.3004	0.1492	1000.65	0.63
318.15	0.3004	0.2448	1006.77	0.64
318.15	0.3004	0.3496	1013.32	0.66
318.15	0.3004	0.4488	1019.46	0.68
318.15	0.3004	0.5497	1025.53	0.71
318.15	0.3004	0.6491	1031.37	0.73

System: D-fructose + water + 1-methyl-3-octylimidazolium chloride; phases: Liquid
Fixed: Pressure, kPa = 85
Fixed: Frequency, MHz = 3
Property: Speed of sound, m/s (Liquid); method: Single path-length method
Temperature, K	Solvent: Molality, mol/kg of 1-methyl-3-octylimidazolium chloride	Molality, mol/kg of D-fructose	Speed of sound, m/s	uncertainty
288.15	0.1008	0.0507	1491.75	1.53
288.15	0.1008	0.1495	1498.75	1.53
288.15	0.1008	0.2499	1505.89	1.54
288.15	0.1008	0.3479	1512.46	1.54
288.15	0.1008	0.4486	1519.39	1.55
288.15	0.1008	0.5432	1525.8	1.6
288.15	0.1008	0.6484	1533.38	1.57
298.15	0.1008	0.0507	1518.4	1.52
298.15	0.1008	0.1495	1524.95	1.5
298.15	0.1008	0.2499	1531.05	1.5
298.15	0.1008	0.3479	1537.16	1.5
298.15	0.1008	0.4486	1543.27	1.51
298.15	0.1008	0.5432	1549.13	1.51
298.15	0.1008	0.6484	1555.8	1.5
308.15	0.1008	0.0507	1538.05	1.45
308.15	0.1008	0.1495	1543.95	1.44
308.15	0.1008	0.2499	1549.75	1.45
308.15	0.1008	0.3479	1555.44	1.45
308.15	0.1008	0.4486	1560.97	1.46
308.15	0.1008	0.5432	1565.68	1.46
308.15	0.1008	0.6484	1571.53	1.46
318.15	0.1008	0.0507	1551.85	1.38
318.15	0.1008	0.1495	1557.32	1.39
318.15	0.1008	0.2499	1562.25	1.39
318.15	0.1008	0.3479	1567.17	1.4
318.15	0.1008	0.4486	1572.1	1.4
318.15	0.1008	0.5432	1577.04	1.41
318.15	0.1008	0.6484	1582.02	1.42
288.15	0.2001	0.0507	1510.57	1.92
288.15	0.2001	0.1508	1517.59	1.91
288.15	0.2001	0.2489	1524.54	1.89
288.15	0.2001	0.3494	1531.17	1.89
288.15	0.2001	0.4491	1537.51	1.87
288.15	0.2001	0.5465	1543.87	1.88
288.15	0.2001	0.645	1550.3	1.85
298.15	0.2001	0.0507	1534.45	1.73
298.15	0.2001	0.1508	1540.62	1.72
298.15	0.2001	0.2489	1546.82	1.72
298.15	0.2001	0.3494	1552.31	1.7
298.15	0.2001	0.4491	1558.43	1.7
298.15	0.2001	0.5465	1563.95	1.7
298.15	0.2001	0.645	1569.96	1.67
308.15	0.2001	0.0507	1550.83	1.6
308.15	0.2001	0.1508	1556.75	1.59
308.15	0.2001	0.2489	1562.4	1.59
308.15	0.2001	0.3494	1567.96	1.58
308.15	0.2001	0.4491	1573.25	1.57
308.15	0.2001	0.5465	1578.53	1.58
308.15	0.2001	0.645	1583.5	1.57
318.15	0.2001	0.0507	1561.7	1.5
318.15	0.2001	0.1508	1566.99	1.49
318.15	0.2001	0.2489	1572.18	1.49
318.15	0.2001	0.3494	1577.48	1.5
318.15	0.2001	0.4491	1582.34	1.49
318.15	0.2001	0.5465	1587.16	1.5
318.15	0.2001	0.645	1592.15	1.49
288.15	0.3004	0.0505	1526.3	2.3
288.15	0.3004	0.1492	1532.9	2.3
288.15	0.3004	0.2448	1538.94	2.21
288.15	0.3004	0.3496	1545.56	2.18
288.15	0.3004	0.4488	1551.7	2.19
288.15	0.3004	0.5497	1558.31	2.18
288.15	0.3004	0.6491	1564.6	2.18
298.15	0.3004	0.0505	1546.05	1.77
298.15	0.3004	0.1492	1552	1.8
298.15	0.3004	0.2448	1557.72	1.79
298.15	0.3004	0.3496	1563.55	1.81
298.15	0.3004	0.4488	1569.19	1.78
298.15	0.3004	0.5497	1574.97	1.79
298.15	0.3004	0.6491	1580.38	1.71
308.15	0.3004	0.0505	1560.2	1.6
308.15	0.3004	0.1492	1565.77	1.64
308.15	0.3004	0.2448	1570.9	1.6
308.15	0.3004	0.3496	1576.4	1.6
308.15	0.3004	0.4488	1581.32	1.59
308.15	0.3004	0.5497	1586.52	1.59
308.15	0.3004	0.6491	1591.82	1.55
318.15	0.3004	0.0505	1569.26	1.61
318.15	0.3004	0.1492	1574.18	1.58
318.15	0.3004	0.2448	1578.84	1.56
318.15	0.3004	0.3496	1584.02	1.54
318.15	0.3004	0.4488	1588.5	1.54
318.15	0.3004	0.5497	1593.31	1.53
318.15	0.3004	0.6491	1598.12	1.53

System: D-fructose + water + 1-methyl-3-octylimidazolium chloride; phases: Liquid
Fixed: Pressure, kPa = 85
Property: Viscosity, Pa*s (Liquid); method: Falling or rolling sphere viscometry
Temperature, K	Solvent: Molality, mol/kg of 1-methyl-3-octylimidazolium chloride	Molality, mol/kg of D-fructose	Viscosity, Pa*s	uncertainty
288.15	0.1008	0.0507	0.001264	3.2e-05
288.15	0.1008	0.1495	0.001331	3.2e-05
288.15	0.1008	0.2499	0.001409	3.3e-05
288.15	0.1008	0.3479	0.001475	3.3e-05
288.15	0.1008	0.4486	0.00156	3.3e-05
288.15	0.1008	0.5432	0.00164	3.4e-05
288.15	0.1008	0.6484	0.001727	3.4e-05
298.15	0.1008	0.0507	0.000982	3.1e-05
298.15	0.1008	0.1495	0.001034	3.1e-05
298.15	0.1008	0.2499	0.001084	3.1e-05
298.15	0.1008	0.3479	0.001138	3.2e-05
298.15	0.1008	0.4486	0.001198	3.2e-05
298.15	0.1008	0.5432	0.001261	3.2e-05
298.15	0.1008	0.6484	0.00132	3.3e-05
308.15	0.1008	0.0507	0.000791	3.1e-05
308.15	0.1008	0.1495	0.000829	3.1e-05
308.15	0.1008	0.2499	0.000868	3.1e-05
308.15	0.1008	0.3479	0.000907	3.1e-05
308.15	0.1008	0.4486	0.000955	3.1e-05
308.15	0.1008	0.5432	0.001003	3.1e-05
308.15	0.1008	0.6484	0.001046	3.2e-05
318.15	0.1008	0.0507	0.000656	3.1e-05
318.15	0.1008	0.1495	0.000683	3.1e-05
318.15	0.1008	0.2499	0.000716	3.1e-05
318.15	0.1008	0.3479	0.000747	3.1e-05
318.15	0.1008	0.4486	0.000785	3.1e-05
318.15	0.1008	0.5432	0.000825	3.1e-05
318.15	0.1008	0.6484	0.000856	3.1e-05
288.15	0.2001	0.0507	0.001362	3.3e-05
288.15	0.2001	0.1508	0.00144	3.3e-05
288.15	0.2001	0.2489	0.001512	3.4e-05
288.15	0.2001	0.3494	0.001595	3.4e-05
288.15	0.2001	0.4491	0.001683	3.5e-05
288.15	0.2001	0.5465	0.001763	3.5e-05
288.15	0.2001	0.645	0.001845	3.6e-05
298.15	0.2001	0.0507	0.00105	3.2e-05
298.15	0.2001	0.1508	0.001104	3.2e-05
298.15	0.2001	0.2489	0.00116	3.2e-05
298.15	0.2001	0.3494	0.001219	3.2e-05
298.15	0.2001	0.4491	0.001284	3.3e-05
298.15	0.2001	0.5465	0.001345	3.3e-05
298.15	0.2001	0.645	0.001398	3.4e-05
308.15	0.2001	0.0507	0.000839	3.1e-05
308.15	0.2001	0.1508	0.00088	3.1e-05
308.15	0.2001	0.2489	0.000926	3.1e-05
308.15	0.2001	0.3494	0.00097	3.2e-05
308.15	0.2001	0.4491	0.001015	3.2e-05
308.15	0.2001	0.5465	0.001055	3.2e-05
308.15	0.2001	0.645	0.0011	3.2e-05
318.15	0.2001	0.0507	0.000695	3.1e-05
318.15	0.2001	0.1508	0.00073	3.1e-05
318.15	0.2001	0.2489	0.00076	3.1e-05
318.15	0.2001	0.3494	0.000792	3.1e-05
318.15	0.2001	0.4491	0.000831	3.1e-05
318.15	0.2001	0.5465	0.000865	3.1e-05
318.15	0.2001	0.645	0.0009	3.1e-05
288.15	0.3004	0.0505	0.00146	3.4e-05
288.15	0.3004	0.1492	0.001547	3.5e-05
288.15	0.3004	0.2448	0.00163	3.6e-05
288.15	0.3004	0.3496	0.00172	3.7e-05
288.15	0.3004	0.4488	0.001809	3.7e-05
288.15	0.3004	0.5497	0.001903	3.8e-05
288.15	0.3004	0.6491	0.002	3.9e-05
298.15	0.3004	0.0505	0.001127	3.4e-05
298.15	0.3004	0.1492	0.001169	3.4e-05
298.15	0.3004	0.2448	0.001241	3.4e-05
298.15	0.3004	0.3496	0.001307	3.5e-05
298.15	0.3004	0.4488	0.00137	3.5e-05
298.15	0.3004	0.5497	0.001437	3.6e-05
298.15	0.3004	0.6491	0.001523	3.9e-05
308.15	0.3004	0.0505	0.000896	3.2e-05
308.15	0.3004	0.1492	0.000928	3.2e-05
308.15	0.3004	0.2448	0.000981	3.2e-05
308.15	0.3004	0.3496	0.001031	3.3e-05
308.15	0.3004	0.4488	0.001077	3.3e-05
308.15	0.3004	0.5497	0.001138	3.4e-05
308.15	0.3004	0.6491	0.001191	3.5e-05
318.15	0.3004	0.0505	0.000733	3.1e-05
318.15	0.3004	0.1492	0.000759	3.1e-05
318.15	0.3004	0.2448	0.000799	3.1e-05
318.15	0.3004	0.3496	0.000838	3.1e-05
318.15	0.3004	0.4488	0.000873	3.1e-05
318.15	0.3004	0.5497	0.00092	3.2e-05
318.15	0.3004	0.6491	0.00096	3.2e-05

System: D-fructose + water; phases: Liquid
Fixed: Pressure, kPa = 85
Property: Mass density, kg/m3 (Liquid); method: Vibrating tube method
Temperature, K	Molality, mol/kg of D-fructose	Mass density, kg/m3	uncertainty
288.15	0.0498	1002.61	0.62
288.15	0.1521	1009.69	0.63
288.15	0.2488	1016.24	0.65
288.15	0.3494	1022.9	0.67
288.15	0.4476	1029.24	0.69
288.15	0.5483	1035.58	0.72
288.15	0.6491	1041.8	0.75
298.15	0.0498	1000.49	0.62
298.15	0.1521	1007.43	0.63
298.15	0.2488	1013.83	0.65
298.15	0.3494	1020.36	0.66
298.15	0.4476	1026.59	0.69
298.15	0.5483	1032.83	0.71
298.15	0.6491	1038.95	0.73
308.15	0.0498	997.41	0.62
308.15	0.1521	1004.25	0.63
308.15	0.2488	1010.55	0.64
308.15	0.3494	1016.98	0.66
308.15	0.4476	1023.1	0.68
308.15	0.5483	1029.27	0.71
308.15	0.6491	1035.3	0.73
318.15	0.0498	993.54	0.62
318.15	0.1521	1000.27	0.63
318.15	0.2488	1006.48	0.64
318.15	0.3494	1012.8	0.66
318.15	0.4476	1018.84	0.68
318.15	0.5483	1024.89	0.71
318.15	0.6491	1030.8	0.73

System: D-fructose + water; phases: Liquid
Fixed: Pressure, kPa = 85
Fixed: Frequency, MHz = 3
Property: Speed of sound, m/s (Liquid); method: Single path-length method
Temperature, K	Molality, mol/kg of D-fructose	Speed of sound, m/s	uncertainty
288.15	0.0498	1470.03	1.33
288.15	0.1521	1477.33	1.33
288.15	0.2488	1484.3	1.34
288.15	0.3494	1491.58	1.35
288.15	0.4476	1498.57	1.36
288.15	0.5483	1505.64	1.38
288.15	0.6491	1512.58	1.4
298.15	0.0498	1500	1.33
298.15	0.1521	1506.7	1.33
298.15	0.2488	1513.13	1.33
298.15	0.3494	1519.4	1.34
298.15	0.4476	1525.58	1.36
298.15	0.5483	1532.05	1.37
298.15	0.6491	1538.38	1.35
308.15	0.0498	1522.73	1.33
308.15	0.1521	1528.75	1.33
308.15	0.2488	1534.44	1.33
308.15	0.3494	1540.28	1.34
308.15	0.4476	1545.95	1.35
308.15	0.5483	1551.32	1.36
308.15	0.6491	1556.86	1.35
318.15	0.0498	1539.01	1.32
318.15	0.1521	1544.5	1.33
318.15	0.2488	1549.8	1.33
318.15	0.3494	1555.01	1.34
318.15	0.4476	1559.91	1.34
318.15	0.5483	1565.3	1.35
318.15	0.6491	1570.3	1.36

System: D-fructose + water; phases: Liquid
Fixed: Pressure, kPa = 85
Property: Viscosity, Pa*s (Liquid); method: Falling or rolling sphere viscometry
Temperature, K	Molality, mol/kg of D-fructose	Viscosity, Pa*s	uncertainty
288.15	0.0498	0.001163	3.2e-05
288.15	0.1521	0.001224	3.2e-05
288.15	0.2488	0.001274	3.2e-05
288.15	0.3494	0.001335	3.2e-05
288.15	0.4476	0.001394	3.2e-05
288.15	0.5483	0.001465	3.3e-05
288.15	0.6491	0.001529	3.3e-05
298.15	0.0498	0.000912	3.1e-05
298.15	0.1521	0.000964	3.1e-05
298.15	0.2488	0.000993	3.1e-05
298.15	0.3494	0.001038	3.1e-05
298.15	0.4476	0.00108	3.1e-05
298.15	0.5483	0.001133	3.2e-05
298.15	0.6491	0.001178	3.2e-05
308.15	0.0498	0.000743	3.1e-05
308.15	0.1521	0.000774	3.1e-05
308.15	0.2488	0.000804	3.1e-05
308.15	0.3494	0.000836	3.1e-05
308.15	0.4476	0.00087	3.1e-05
308.15	0.5483	0.000909	3.1e-05
308.15	0.6491	0.000941	3.1e-05
318.15	0.0498	0.000624	3e-05
318.15	0.1521	0.000648	3e-05
318.15	0.2488	0.00067	3.1e-05
318.15	0.3494	0.000699	3.1e-05
318.15	0.4476	0.000718	3.1e-05
318.15	0.5483	0.000747	3.1e-05
318.15	0.6491	0.000777	3.1e-05
