Measured thermophysical data. Effect of the Type of Ammonium Salt on the Extractive Desulfurization of Fuels Using Deep Eutectic Solvents
Source: J. Chem. Eng. Data, 2018, 10.1021/acs.jced.7b00832
Compound 1: thiophene, C4H4S, InChI=1S/C4H4S/c1-2-4-5-3-1/h1-4H, purity 99%
Compound 2: hexane, C6H14, InChI=1S/C6H14/c1-3-5-6-4-2/h3-6H2,1-2H3, purity 95%
Compound 3: methyltriphenylphosphonium bromide, C19H18BrP, InChI=1S/C19H18P.BrH/c1-20(17-11-5-2-6-12-17,18-13-7-3-8-14-18)19-15-9-4-10-16-19;/h2-16H,1H3;1H/q+1;/p-1, purity 99%
Compound 4: tetraethylammonium chloride, C8H20ClN, InChI=1S/C8H20N.ClH/c1-5-9(6-2,7-3)8-4;/h5-8H2,1-4H3;1H/q+1;/p-1, purity 99%
Compound 5: glycerol, C3H8O3, InChI=1S/C3H8O3/c4-1-3(6)2-5/h3-6H,1-2H2, purity 99%
Compound 6: 1,2-ethanediol, C2H6O2, InChI=1S/C2H6O2/c3-1-2-4/h3-4H,1-2H2, purity 99%

System: tetraethylammonium chloride + 1,2-ethanediol + hexane; phases: Liquid mixture 1, Liquid mixture 2
Property: Mass fraction of hexane (Liquid mixture 1); method: Chromatography
Solvent: Amount ratio of component to other component of binary solvent of tetraethylammonium chloride	Temperature, K	Pressure, kPa	Mass fraction of hexane	uncertainty
0.5	298	101	0.0036	0.0028

System: tetraethylammonium chloride + 1,2-ethanediol + thiophene; phases: Liquid mixture 1, Liquid mixture 2
Property: Mass fraction of thiophene (Liquid mixture 1); method: Chromatography
Solvent: Amount ratio of component to other component of binary solvent of tetraethylammonium chloride	Temperature, K	Pressure, kPa	Mass fraction of thiophene	uncertainty
0.5	298	101	0.3253	0.0059

System: tetraethylammonium chloride + glycerol + hexane; phases: Liquid mixture 1, Liquid mixture 2
Property: Mass fraction of hexane (Liquid mixture 1); method: Chromatography
Solvent: Amount ratio of component to other component of binary solvent of tetraethylammonium chloride	Temperature, K	Pressure, kPa	Mass fraction of hexane	uncertainty
0.5	298	101	0.0008	0.0006

System: tetraethylammonium chloride + glycerol + thiophene; phases: Liquid mixture 1, Liquid mixture 2
Property: Mass fraction of thiophene (Liquid mixture 1); method: Chromatography
Solvent: Amount ratio of component to other component of binary solvent of tetraethylammonium chloride	Temperature, K	Pressure, kPa	Mass fraction of thiophene	uncertainty
0.5	298	101	0.1527	0.0032

System: methyltriphenylphosphonium bromide + 1,2-ethanediol + hexane; phases: Liquid mixture 1, Liquid mixture 2
Property: Mass fraction of hexane (Liquid mixture 1); method: Chromatography
Solvent: Amount ratio of component to other component of binary solvent of methyltriphenylphosphonium bromide	Temperature, K	Pressure, kPa	Mass fraction of hexane	uncertainty
0.3333	298	101	0.0034	0.0002

System: methyltriphenylphosphonium bromide + 1,2-ethanediol + thiophene; phases: Liquid mixture 1, Liquid mixture 2
Property: Mass fraction of thiophene (Liquid mixture 1); method: Chromatography
Solvent: Amount ratio of component to other component of binary solvent of methyltriphenylphosphonium bromide	Temperature, K	Pressure, kPa	Mass fraction of thiophene	uncertainty
0.5	298	101	0.4968	0.0087

System: methyltriphenylphosphonium bromide + glycerol + hexane; phases: Liquid mixture 1, Liquid mixture 2
Property: Mass fraction of hexane (Liquid mixture 1); method: Chromatography
Solvent: Amount ratio of component to other component of binary solvent of methyltriphenylphosphonium bromide	Temperature, K	Pressure, kPa	Mass fraction of hexane	uncertainty
0.5	298	101	0.0091	0.0006

System: methyltriphenylphosphonium bromide + glycerol + thiophene; phases: Liquid mixture 1, Liquid mixture 2
Property: Mass fraction of thiophene (Liquid mixture 1); method: Chromatography
Solvent: Amount ratio of component to other component of binary solvent of methyltriphenylphosphonium bromide	Temperature, K	Pressure, kPa	Mass fraction of thiophene	uncertainty
0.5	298	101	0.1165	0.0022
