Measured thermophysical data. Effect of Citrate Salts on the Volumetric and Ultrasonic Properties of Sucrose in Aqueous Solutions at Temperatures T = (288.15-318.15) K
Source: J. Chem. Eng. Data, 2018, 10.1021/acs.jced.8b00370
Compound 1: D-sucrose, C12H22O11, InChI=1S/C12H22O11/c13-1-4-6(16)8(18)9(19)11(21-4)23-12(3-15)10(20)7(17)5(2-14)22-12/h4-11,13-20H,1-3H2/t4-,5-,6-,7-,8+,9-,10+,11-,12+/m1/s1, purity 99%
Compound 2: trisodium citrate, C6H5Na3O7, InChI=1S/C6H8O7.3Na/c7-3(8)1-6(13,5(11)12)2-4(9)10;;;/h13H,1-2H2,(H,7,8)(H,9,10)(H,11,12);;;/q;3*+1/p-3, purity 99%
Compound 3: potassium citrate, C6H5K3O7, InChI=1S/C6H8O7.3K/c7-3(8)1-6(13,5(11)12)2-4(9)10;;;/h13H,1-2H2,(H,7,8)(H,9,10)(H,11,12);;;/q;3*+1/p-3, purity 99%
Compound 4: water, H2O, InChI=1S/H2O/h1H2, purity 99.9%

System: water; phases: Liquid
Fixed: Pressure, kPa = 100
Property: Mass density, kg/m3 (Liquid); method: Vibrating tube method
Temperature, K	Mass density, kg/m3	uncertainty
288.15	999.125	2
298.15	997.074	2
308.15	994.061	2
318.15	990.221	2

System: water; phases: Liquid
Fixed: Pressure, kPa = 100
Fixed: Frequency, MHz = 3
Property: Speed of sound, m/s (Liquid); method: Single path-length method
Temperature, K	Speed of sound, m/s	uncertainty
288.15	1466.62	3.01
298.15	1497.02	3.01
308.15	1519.93	3.01
318.15	1536.46	3

System: D-sucrose + trisodium citrate + water; phases: Liquid
Fixed: Pressure, kPa = 100
Property: Mass density, kg/m3 (Liquid); method: Vibrating tube method
Temperature, K	Solvent: Molality, mol/kg of trisodium citrate	Molality, mol/kg of D-sucrose	Mass density, kg/m3	uncertainty
288.15	0	0	999.125	2.003
288.15	0	0.1002	1012.006	2.004
288.15	0	0.20074	1024.37	2.004
288.15	0	0.30115	1036.192	2.005
288.15	0	0.4034	1047.719	2.005
288.15	0	0.49965	1058.125	2.005
288.15	0	0.60185	1068.729	2.006
288.15	0	0.70218	1078.714	2.006
288.15	0	0.79785	1087.865	2.007
288.15	0	0.89555	1096.857	2.007
288.15	0	0.99691	1105.825	2.008
298.15	0	0	997.074	2.003
298.15	0	0.1002	1009.811	2.004
298.15	0	0.20074	1022.039	2.004
298.15	0	0.30115	1033.732	2.005
298.15	0	0.4034	1045.134	2.005
298.15	0	0.49965	1055.43	2.005
298.15	0	0.60185	1065.922	2.006
298.15	0	0.70218	1075.805	2.006
298.15	0	0.79785	1084.864	2.007
298.15	0	0.89555	1093.768	2.007
298.15	0	0.99691	1102.651	2.007
308.15	0	0	994.061	2.004
308.15	0	0.1002	1006.682	2.004
308.15	0	0.20074	1018.799	2.004
308.15	0	0.30115	1030.387	2.005
308.15	0	0.4034	1041.687	2.005
308.15	0	0.49965	1051.891	2.005
308.15	0	0.60185	1062.292	2.006
308.15	0	0.70218	1072.09	2.006
308.15	0	0.79785	1081.072	2.007
308.15	0	0.89555	1089.901	2.007
308.15	0	0.99691	1098.711	2.007
318.15	0	0	990.221	2.004
318.15	0	0.1002	1002.772	2.004
318.15	0	0.20074	1014.821	2.004
318.15	0	0.30115	1026.343	2.004
318.15	0	0.4034	1037.582	2.005
318.15	0	0.49965	1047.727	2.005
318.15	0	0.60185	1058.065	2.006
318.15	0	0.70218	1067.815	2.006
318.15	0	0.79785	1076.722	2.006
318.15	0	0.89555	1085.489	2.007
318.15	0	0.99691	1094.231	2.007
288.15	0.2	0.09995	1047.2	2.005
288.15	0.2	0.19932	1059.115	2.006
288.15	0.2	0.29959	1070.62	2.006
288.15	0.2	0.39992	1081.643	2.007
288.15	0.2	0.49809	1091.98	2.007
288.15	0.2	0.60003	1102.278	2.007
288.15	0.2	0.69853	1111.822	2.008
288.15	0.2	0.79852	1121.133	2.008
288.15	0.2	0.89785	1130.011	2.009
288.15	0.2	0.99766	1138.605	2.009
298.15	0.2	0.09995	1044.355	2.005
298.15	0.2	0.19932	1056.115	2.005
298.15	0.2	0.29959	1067.467	2.006
298.15	0.2	0.39992	1078.344	2.006
298.15	0.2	0.49809	1088.544	2.007
298.15	0.2	0.60003	1098.699	2.007
298.15	0.2	0.69853	1108.113	2.008
298.15	0.2	0.79852	1117.285	2.008
298.15	0.2	0.89785	1126.042	2.009
298.15	0.2	0.99766	1134.499	2.009
308.15	0.2	0.09995	1040.752	2.005
308.15	0.2	0.19932	1052.394	2.005
308.15	0.2	0.29959	1063.63	2.006
308.15	0.2	0.39992	1074.389	2.006
308.15	0.2	0.49809	1084.481	2.007
308.15	0.2	0.60003	1094.518	2.007
308.15	0.2	0.69853	1103.83	2.008
308.15	0.2	0.79852	1112.893	2.008
308.15	0.2	0.89785	1121.548	2.008
308.15	0.2	0.99766	1129.904	2.009
318.15	0.2	0.09995	1036.527	2.005
318.15	0.2	0.19932	1048.089	2.005
318.15	0.2	0.29959	1059.252	2.006
318.15	0.2	0.39992	1069.933	2.006
318.15	0.2	0.49809	1079.948	2.007
318.15	0.2	0.60003	1089.918	2.007
318.15	0.2	0.69853	1099.163	2.007
318.15	0.2	0.79852	1108.156	2.008
318.15	0.2	0.89785	1116.744	2.008
318.15	0.2	0.99766	1125.041	2.009
288.15	0.4	0.10001	1083.36	2.007
288.15	0.4	0.19968	1094.917	2.007
288.15	0.4	0.29913	1105.936	2.008
288.15	0.4	0.39911	1116.528	2.008
288.15	0.4	0.47224	1123.969	2.009
288.15	0.4	0.59768	1136.232	2.009
288.15	0.4	0.70026	1145.77	2.01
288.15	0.4	0.79805	1154.498	2.01
288.15	0.4	0.8975	1163.01	2.011
288.15	0.4	0.99932	1171.371	2.011
298.15	0.4	0.10001	1079.9148	2.0065
298.15	0.4	0.19968	1091.309	2.007
298.15	0.4	0.29913	1102.1717	2.0075
298.15	0.4	0.39911	1112.6206	2.008
298.15	0.4	0.47224	1119.9592	2.0084
298.15	0.4	0.59768	1132.0447	2.009
298.15	0.4	0.70026	1141.4536	2.0095
298.15	0.4	0.79805	1150.04	2.01
298.15	0.4	0.8975	1158.4454	2.0105
298.15	0.4	0.99932	1166.6936	2.0109
308.15	0.4	0.10001	1075.972	2.006
308.15	0.4	0.19968	1087.239	2.007
308.15	0.4	0.29913	1097.977	2.007
308.15	0.4	0.39911	1108.297	2.008
308.15	0.4	0.47224	1115.548	2.008
308.15	0.4	0.59768	1127.487	2.009
308.15	0.4	0.70026	1136.78	2.009
308.15	0.4	0.79805	1145.265	2.01
308.15	0.4	0.8975	1153.553	2.01
308.15	0.4	0.99932	1161.694	2.011
318.15	0.4	0.10001	1070.998	2.006
318.15	0.4	0.19968	1082.189	2.007
318.15	0.4	0.29913	1092.855	2.007
318.15	0.4	0.39911	1103.106	2.008
318.15	0.4	0.47224	1110.31	2.008
318.15	0.4	0.59768	1122.161	2.009
318.15	0.4	0.70026	1131.396	2.009
318.15	0.4	0.79805	1139.822	2.01
318.15	0.4	0.8975	1148.051	2.01
318.15	0.4	0.99932	1156.136	2.01
288.15	0.6	0.09906	1116.066	2.008
288.15	0.6	0.19992	1127.357	2.009
288.15	0.6	0.29761	1137.792	2.009
288.15	0.6	0.39856	1148.088	2.01
288.15	0.6	0.49766	1157.743	2.01
288.15	0.6	0.59677	1166.983	2.011
288.15	0.6	0.69992	1176.191	2.011
288.15	0.6	0.79666	1184.451	2.012
288.15	0.6	0.89423	1192.421	2.013
288.15	0.6	0.99389	1200.259	2.013
298.15	0.6	0.09906	1112.139	2.008
298.15	0.6	0.19992	1123.254	2.009
298.15	0.6	0.29761	1133.525	2.009
298.15	0.6	0.39856	1143.659	2.01
298.15	0.6	0.49766	1153.164	2.01
298.15	0.6	0.59677	1162.255	2.011
298.15	0.6	0.69992	1171.306	2.011
298.15	0.6	0.79666	1179.43	2.012
298.15	0.6	0.89423	1187.29	2.012
298.15	0.6	0.99389	1194.994	2.013
308.15	0.6	0.09906	1108.283	2.008
308.15	0.6	0.19992	1119.268	2.008
308.15	0.6	0.29761	1129.415	2.009
308.15	0.6	0.39856	1139.43	2.009
308.15	0.6	0.49766	1148.818	2.01
308.15	0.6	0.59677	1157.796	2.01
308.15	0.6	0.69992	1166.728	2.011
308.15	0.6	0.79666	1174.74	2.011
308.15	0.6	0.89423	1182.49	2.012
308.15	0.6	0.99389	1190.103	2.012
318.15	0.6	0.09906	1103.501	2.008
318.15	0.6	0.19992	1114.407	2.008
318.15	0.6	0.29761	1124.487	2.009
318.15	0.6	0.39856	1134.424	2.009
318.15	0.6	0.49766	1143.745	2.01
318.15	0.6	0.59677	1152.672	2.01
318.15	0.6	0.69992	1161.547	2.011
318.15	0.6	0.79666	1169.528	2.011
318.15	0.6	0.89423	1177.243	2.012
318.15	0.6	0.99389	1184.805	2.012

System: D-sucrose + trisodium citrate + water; phases: Liquid
Fixed: Pressure, kPa = 100
Fixed: Frequency, MHz = 3
Property: Speed of sound, m/s (Liquid); method: Single path-length method
Temperature, K	Solvent: Molality, mol/kg of trisodium citrate	Molality, mol/kg of D-sucrose	Speed of sound, m/s	uncertainty
288.15	0	0	1466.62	3.09
288.15	0	0.1002	1476.33	3.09
288.15	0	0.20074	1486.15	3.09
288.15	0	0.30115	1495.97	3.09
288.15	0	0.4034	1506.01	3.09
288.15	0	0.49965	1515.31	3.09
288.15	0	0.60185	1525.24	3.09
288.15	0	0.70218	1534.87	3.09
288.15	0	0.79785	1543.87	3.09
288.15	0	0.89555	1552.92	3.09
288.15	0	0.99691	1562.21	3.08
298.15	0	0	1497.02	3.09
298.15	0	0.1002	1505.99	3.09
298.15	0	0.20074	1515.01	3.09
298.15	0	0.30115	1523.98	3.09
298.15	0	0.4034	1533.15	3.09
298.15	0	0.49965	1541.67	3.09
298.15	0	0.60185	1550.57	3.09
298.15	0	0.70218	1559.26	3.08
298.15	0	0.79785	1567.41	3.08
298.15	0	0.89555	1575.57	3.08
298.15	0	0.99691	1583.77	3.08
308.15	0	0	1519.93	3.08
308.15	0	0.1002	1528.16	3.08
308.15	0	0.20074	1536.45	3.08
308.15	0	0.30115	1544.74	3.08
308.15	0	0.4034	1553.12	3.08
308.15	0	0.49965	1561	3.08
308.15	0	0.60185	1569.28	3.08
308.15	0	0.70218	1577.23	3.08
308.15	0	0.79785	1584.82	3.08
308.15	0	0.89555	1592.35	3.08
308.15	0	0.99691	1600.08	3.08
318.15	0	0	1536.46	3.08
318.15	0	0.1002	1543.97	3.08
318.15	0	0.20074	1551.57	3.08
318.15	0	0.30115	1559.1	3.08
318.15	0	0.4034	1566.72	3.08
318.15	0	0.49965	1574.27	3.08
318.15	0	0.60185	1581.71	3.08
318.15	0	0.70218	1589.26	3.08
318.15	0	0.79785	1596.07	3.08
318.15	0	0.89555	1603.2	3.08
318.15	0	0.99691	1610.99	3.08
288.15	0.2	0.09995	1518.21	3.09
288.15	0.2	0.19932	1528.24	3.09
288.15	0.2	0.29959	1538.18	3.09
288.15	0.2	0.39992	1547.94	3.09
288.15	0.2	0.49809	1557.26	3.09
288.15	0.2	0.60003	1566.97	3.09
288.15	0.2	0.69853	1575.88	3.09
288.15	0.2	0.79852	1584.89	3.08
288.15	0.2	0.89785	1593.9	3.1
288.15	0.2	0.99766	1602.77	3.08
298.15	0.2	0.09995	1545.69	3.09
298.15	0.2	0.19932	1555.21	3.09
298.15	0.2	0.29959	1564.62	3.09
298.15	0.2	0.39992	1573.77	3.09
298.15	0.2	0.49809	1582.59	3.09
298.15	0.2	0.60003	1591.4	3.08
298.15	0.2	0.69853	1599.75	3.08
298.15	0.2	0.79852	1608.13	3.08
298.15	0.2	0.89785	1616.05	3.08
298.15	0.2	0.99766	1623.74	3.08
308.15	0.2	0.09995	1566.08	3.08
308.15	0.2	0.19932	1575.16	3.08
308.15	0.2	0.29959	1584.03	3.08
308.15	0.2	0.39992	1592.86	3.08
308.15	0.2	0.49809	1601.23	3.08
308.15	0.2	0.60003	1609.65	3.08
308.15	0.2	0.69853	1617.28	3.08
308.15	0.2	0.79852	1625.14	3.08
308.15	0.2	0.89785	1632.65	3.08
308.15	0.2	0.99766	1640.35	3.08
318.15	0.2	0.09995	1580.44	3.08
318.15	0.2	0.19932	1588.85	3.08
318.15	0.2	0.29959	1597.15	3.08
318.15	0.2	0.39992	1605.34	3.08
318.15	0.2	0.49809	1613.17	3.08
318.15	0.2	0.60003	1621.15	3.08
318.15	0.2	0.69853	1628.35	3.08
318.15	0.2	0.79852	1635.41	3.08
318.15	0.2	0.89785	1642.29	3.08
318.15	0.2	0.99766	1648.78	3.08
288.15	0.4	0.10001	1563.76	3.09
288.15	0.4	0.19968	1574.95	3.09
288.15	0.4	0.29913	1585.78	3.09
288.15	0.4	0.39911	1596.41	3.09
288.15	0.4	0.47224	1603.89	3.09
288.15	0.4	0.59768	1616.05	3.09
288.15	0.4	0.70026	1625.57	3.09
288.15	0.4	0.79805	1634.29	3.09
288.15	0.4	0.8975	1643.1	3.1
288.15	0.4	0.99932	1651.71	3.09
298.15	0.4	0.10001	1588.39	3.08
298.15	0.4	0.19968	1598.92	3.08
298.15	0.4	0.29913	1609.02	3.08
298.15	0.4	0.39911	1618.83	3.08
298.15	0.4	0.47224	1625.95	3.08
298.15	0.4	0.59768	1637.57	3.08
298.15	0.4	0.70026	1646.67	3.08
298.15	0.4	0.79805	1654.88	3.08
298.15	0.4	0.8975	1662.99	3.08
298.15	0.4	0.99932	1671.56	3.08
308.15	0.4	0.10001	1606.06	3.08
308.15	0.4	0.19968	1615.94	3.08
308.15	0.4	0.29913	1625.51	3.08
308.15	0.4	0.39911	1634.83	3.08
308.15	0.4	0.47224	1641.24	3.08
308.15	0.4	0.59768	1651.85	3.08
308.15	0.4	0.70026	1660.02	3.08
308.15	0.4	0.79805	1667.47	3.08
308.15	0.4	0.8975	1674.71	3.08
308.15	0.4	0.99932	1681.89	3.08
318.15	0.4	0.10001	1618.34	3.08
318.15	0.4	0.19968	1628.01	3.08
318.15	0.4	0.29913	1637.24	3.08
318.15	0.4	0.39911	1646.24	3.08
318.15	0.4	0.47224	1652.6	3.1
318.15	0.4	0.59768	1662.78	3.08
318.15	0.4	0.70026	1670.73	3.08
318.15	0.4	0.79805	1677.98	3.08
318.15	0.4	0.8975	1685.17	3.08
318.15	0.4	0.99932	1691.9	3.08
288.15	0.6	0.09906	1603.43	3.09
288.15	0.6	0.19992	1615.3	3.1
288.15	0.6	0.29761	1626.34	3.08
288.15	0.6	0.39856	1637.44	3.08
288.15	0.6	0.49766	1647.79	3.08
288.15	0.6	0.59677	1657.89	3.08
288.15	0.6	0.69992	1667.69	3.08
288.15	0.6	0.79666	1676.3	3.1
288.15	0.6	0.89423	1684.35	3.08
288.15	0.6	0.99389	1692.32	3.08
298.15	0.6	0.09906	1625.55	3.08
298.15	0.6	0.19992	1636.85	3.08
298.15	0.6	0.29761	1647.46	3.08
298.15	0.6	0.39856	1657.86	3.08
298.15	0.6	0.49766	1667.79	3.08
298.15	0.6	0.59677	1677.07	3.08
298.15	0.6	0.69992	1686.04	3.08
298.15	0.6	0.79666	1694.21	3.08
298.15	0.6	0.89423	1701.36	3.08
298.15	0.6	0.99389	1708.47	3.08
308.15	0.6	0.09906	1641.37	3.08
308.15	0.6	0.19992	1652.21	3.08
308.15	0.6	0.29761	1662.25	3.08
308.15	0.6	0.39856	1672.12	3.08
308.15	0.6	0.49766	1681.2	3.1
308.15	0.6	0.59677	1689.89	3.08
308.15	0.6	0.69992	1698.19	3.08
308.15	0.6	0.79666	1705.57	3.08
308.15	0.6	0.89423	1712.45	3.08
308.15	0.6	0.99389	1718.89	3.08
318.15	0.6	0.09906	1652.1	3.1
318.15	0.6	0.19992	1662.76	3.08
318.15	0.6	0.29761	1672.57	3.08
318.15	0.6	0.39856	1682.23	3.08
318.15	0.6	0.49766	1691.03	3.08
318.15	0.6	0.59677	1699.47	3.08
318.15	0.6	0.69992	1707.45	3.08
318.15	0.6	0.79666	1714.49	3.08
318.15	0.6	0.89423	1720.85	3.08
318.15	0.6	0.99389	1727.22	3.08

System: D-sucrose + potassium citrate + water; phases: Liquid
Fixed: Pressure, kPa = 100
Property: Mass density, kg/m3 (Liquid); method: Vibrating tube method
Temperature, K	Solvent: Molality, mol/kg of potassium citrate	Molality, mol/kg of D-sucrose	Mass density, kg/m3	uncertainty
288.15	0.2	0.09917	1049.207	2.005
288.15	0.2	0.20225	1061.521	2.006
288.15	0.2	0.30505	1073.258	2.006
288.15	0.2	0.39942	1083.574	2.007
288.15	0.2	0.50124	1094.252	2.007
288.15	0.2	0.59769	1103.957	2.008
288.15	0.2	0.69666	1113.517	2.008
288.15	0.2	0.80608	1123.661	2.009
288.15	0.2	0.90456	1132.406	2.009
288.15	0.2	0.99387	1140.052	2.009
298.15	0.2	0.09917	1046.457	2.005
298.15	0.2	0.20225	1058.609	2.006
298.15	0.2	0.30505	1070.187	2.006
298.15	0.2	0.39942	1080.364	2.006
298.15	0.2	0.50124	1090.9	2.007
298.15	0.2	0.59769	1100.47	2.007
298.15	0.2	0.69666	1109.894	2.008
298.15	0.2	0.80608	1119.886	2.008
298.15	0.2	0.90456	1128.511	2.009
298.15	0.2	0.99387	1136.028	2.009
308.15	0.2	0.09917	1042.935	2.005
308.15	0.2	0.20225	1054.964	2.005
308.15	0.2	0.30505	1066.423	2.006
308.15	0.2	0.39942	1076.49	2.006
308.15	0.2	0.50124	1086.912	2.007
308.15	0.2	0.59769	1096.365	2.007
308.15	0.2	0.69666	1105.693	2.008
308.15	0.2	0.80608	1115.564	2.008
308.15	0.2	0.90456	1124.082	2.009
308.15	0.2	0.99387	1131.512	2.009
318.15	0.2	0.09917	1038.762	2.005
318.15	0.2	0.20225	1050.709	2.005
318.15	0.2	0.30505	1062.091	2.006
318.15	0.2	0.39942	1072.085	2.006
318.15	0.2	0.50124	1082.426	2.007
318.15	0.2	0.59769	1091.816	2.007
318.15	0.2	0.69666	1101.074	2.008
318.15	0.2	0.80608	1110.871	2.008
318.15	0.2	0.90456	1119.324	2.008
318.15	0.2	0.99387	1126.698	2.009
288.15	0.4	0.09994	1085.534	2.007
288.15	0.4	0.19911	1096.991	2.008
288.15	0.4	0.29917	1108.036	2.008
288.15	0.4	0.39843	1118.51	2.009
288.15	0.4	0.49989	1128.753	2.009
288.15	0.4	0.59981	1138.404	2.01
288.15	0.4	0.6986	1147.545	2.01
288.15	0.4	0.79777	1156.361	2.011
288.15	0.4	0.89679	1164.798	2.011
288.15	0.4	0.99981	1173.219	2.012
298.15	0.4	0.09994	1082.334	2.007
298.15	0.4	0.19911	1093.626	2.007
298.15	0.4	0.29917	1104.511	2.008
298.15	0.4	0.39843	1114.84	2.008
298.15	0.4	0.49989	1124.936	2.009
298.15	0.4	0.59981	1134.444	2.009
298.15	0.4	0.6986	1143.458	2.01
298.15	0.4	0.79777	1152.128	2.01
298.15	0.4	0.89679	1160.456	2.011
298.15	0.4	0.99981	1168.76	2.011
308.15	0.4	0.09994	1078.474	2.006
308.15	0.4	0.19911	1089.637	2.007
308.15	0.4	0.29917	1100.394	2.007
308.15	0.4	0.39843	1110.594	2.008
308.15	0.4	0.49989	1120.568	2.008
308.15	0.4	0.59981	1129.959	2.009
308.15	0.4	0.6986	1138.861	2.009
308.15	0.4	0.79777	1147.426	2.01
308.15	0.4	0.89679	1155.636	2.01
308.15	0.4	0.99981	1163.83	2.011
318.15	0.4	0.09994	1074.043	2.006
318.15	0.4	0.19911	1085.125	2.007
318.15	0.4	0.29917	1095.804	2.007
318.15	0.4	0.39843	1105.93	2.008
318.15	0.4	0.49989	1115.832	2.008
318.15	0.4	0.59981	1125.145	2.009
318.15	0.4	0.6986	1133.985	2.009
318.15	0.4	0.79777	1142.485	2.009
318.15	0.4	0.89679	1150.631	2.01
318.15	0.4	0.99981	1158.761	2.01
288.15	0.6	0.09962	1139.385	2.009
288.15	0.6	0.19936	1150.228	2.01
288.15	0.6	0.29984	1160.637	2.011
288.15	0.6	0.3991	1170.44	2.011
288.15	0.6	0.49958	1179.909	2.012
288.15	0.6	0.59695	1188.682	2.012
288.15	0.6	0.69944	1197.521	2.013
288.15	0.6	0.79799	1205.643	2.013
288.15	0.6	0.89612	1213.364	2.014
288.15	0.6	0.99844	1221.108	2.014
298.15	0.6	0.09962	1135.602	2.009
298.15	0.6	0.19936	1146.265	2.01
298.15	0.6	0.29984	1156.497	2.01
298.15	0.6	0.3991	1166.135	2.011
298.15	0.6	0.49958	1175.447	2.011
298.15	0.6	0.59695	1184.068	2.012
298.15	0.6	0.69944	1192.745	2.013
298.15	0.6	0.79799	1200.722	2.013
298.15	0.6	0.89612	1208.329	2.014
298.15	0.6	0.99844	1215.931	2.014
308.15	0.6	0.09962	1131.332	2.009
308.15	0.6	0.19936	1141.868	2.01
308.15	0.6	0.29984	1151.975	2.01
308.15	0.6	0.3991	1161.498	2.011
308.15	0.6	0.49958	1170.693	2.011
308.15	0.6	0.59695	1179.207	2.012
308.15	0.6	0.69944	1187.768	2.012
308.15	0.6	0.79799	1195.634	2.013
308.15	0.6	0.89612	1203.133	2.013
308.15	0.6	0.99844	1210.645	2.014
318.15	0.6	0.09962	1126.658	2.009
318.15	0.6	0.19936	1137.114	2.009
318.15	0.6	0.29984	1147.15	2.01
318.15	0.6	0.3991	1156.594	2.01
318.15	0.6	0.49958	1165.719	2.011
318.15	0.6	0.59695	1174.18	2.011
318.15	0.6	0.69944	1182.683	2.012
318.15	0.6	0.79799	1190.516	2.012
318.15	0.6	0.89612	1197.979	2.013
318.15	0.6	0.99844	1205.437	2.013

System: D-sucrose + potassium citrate + water; phases: Liquid
Fixed: Pressure, kPa = 100
Fixed: Frequency, MHz = 3
Property: Speed of sound, m/s (Liquid); method: Single path-length method
Temperature, K	Solvent: Molality, mol/kg of potassium citrate	Molality, mol/kg of D-sucrose	Speed of sound, m/s	uncertainty
288.15	0.2	0.09917	1515.51	3.08
288.15	0.2	0.20225	1525.85	3.08
288.15	0.2	0.30505	1535.99	3.08
288.15	0.2	0.39942	1545.39	3.08
288.15	0.2	0.50124	1555.38	3.08
288.15	0.2	0.59769	1564.86	3.08
288.15	0.2	0.69666	1574.18	3.09
288.15	0.2	0.80608	1584.87	3.09
288.15	0.2	0.90456	1593.87	3.1
288.15	0.2	0.99387	1602.69	3.1
298.15	0.2	0.09917	1542.5	3.08
298.15	0.2	0.20225	1552.28	3.1
298.15	0.2	0.30505	1562.07	3.09
298.15	0.2	0.39942	1571	3.08
298.15	0.2	0.50124	1580.24	3.08
298.15	0.2	0.59769	1589.08	3.08
298.15	0.2	0.69666	1597.63	3.11
298.15	0.2	0.80608	1606.79	3.08
298.15	0.2	0.90456	1615.25	3.18
298.15	0.2	0.99387	1623.22	3.14
308.15	0.2	0.09917	1562.95	3.08
308.15	0.2	0.20225	1572.17	3.08
308.15	0.2	0.30505	1581.31	3.09
308.15	0.2	0.39942	1589.5	3.08
308.15	0.2	0.50124	1598.18	3.08
308.15	0.2	0.59769	1606.09	3.08
308.15	0.2	0.69666	1614.29	3.1
308.15	0.2	0.80608	1623.21	3.09
308.15	0.2	0.90456	1630.74	3.28
308.15	0.2	0.99387	1638.14	3.09
318.15	0.2	0.09917	1577.42	3.08
318.15	0.2	0.20225	1586.21	3.08
318.15	0.2	0.30505	1594.67	3.09
318.15	0.2	0.39942	1602.48	3.09
318.15	0.2	0.50124	1610.46	3.09
318.15	0.2	0.59769	1617.97	3.1
318.15	0.2	0.69666	1625.32	3.1
318.15	0.2	0.80608	1633.35	3.11
318.15	0.2	0.90456	1640.06	3.12
318.15	0.2	0.99387	1646.04	3.12
288.15	0.4	0.09994	1555.48	3.08
288.15	0.4	0.19911	1566.27	3.08
288.15	0.4	0.29917	1576.78	3.08
288.15	0.4	0.39843	1586.74	3.08
288.15	0.4	0.49989	1596.68	3.08
288.15	0.4	0.59981	1606.22	3.08
288.15	0.4	0.6986	1615.25	3.08
288.15	0.4	0.79777	1624.55	3.08
288.15	0.4	0.89679	1633.16	3.08
288.15	0.4	0.99981	1642.43	3.08
298.15	0.4	0.09994	1579.81	3.08
298.15	0.4	0.19911	1590.04	3.08
298.15	0.4	0.29917	1599.98	3.1
298.15	0.4	0.39843	1609.52	3.12
298.15	0.4	0.49989	1618.99	3.11
298.15	0.4	0.59981	1628.22	3.14
298.15	0.4	0.6986	1636.46	3.08
298.15	0.4	0.79777	1644.71	3.15
298.15	0.4	0.89679	1652.77	5.31
298.15	0.4	0.99981	1661.02	3.22
308.15	0.4	0.09994	1598.21	3.08
308.15	0.4	0.19911	1608.12	3.08
308.15	0.4	0.29917	1617.76	3.08
308.15	0.4	0.39843	1626.85	3.09
308.15	0.4	0.49989	1635.52	3.11
308.15	0.4	0.59981	1643.88	3.71
308.15	0.4	0.6986	1651.94	3.08
308.15	0.4	0.79777	1659.46	3.1
308.15	0.4	0.89679	1666.71	3.1
308.15	0.4	0.99981	1674.45	3.1
318.15	0.4	0.09994	1611.31	3.08
318.15	0.4	0.19911	1621.05	3.08
318.15	0.4	0.29917	1630.28	3.08
318.15	0.4	0.39843	1639.14	3.08
318.15	0.4	0.49989	1647.8	3.08
318.15	0.4	0.59981	1656.08	3.08
318.15	0.4	0.6986	1663.7	3.08
318.15	0.4	0.79777	1671.3	3.08
318.15	0.4	0.89679	1678.29	3.08
318.15	0.4	0.99981	1685.14	3.08
288.15	0.6	0.09962	1615.98	3.08
288.15	0.6	0.19936	1626.8	3.08
288.15	0.6	0.29984	1637.06	3.08
288.15	0.6	0.3991	1646.39	3.08
288.15	0.6	0.49958	1654.72	3.08
288.15	0.6	0.59695	1662.35	3.08
288.15	0.6	0.69944	1670.31	3.09
288.15	0.6	0.79799	1677.69	3.09
288.15	0.6	0.89612	1685.15	3.09
288.15	0.6	0.99844	1691.72	3.1
298.15	0.6	0.09962	1637.82	3.08
298.15	0.6	0.19936	1648.42	3.09
298.15	0.6	0.29984	1658.31	3.08
298.15	0.6	0.3991	1666.99	3.13
298.15	0.6	0.49958	1675.57	3.08
298.15	0.6	0.59695	1682.45	3.13
298.15	0.6	0.69944	1689.58	3.09
298.15	0.6	0.79799	1696.15	6.57
298.15	0.6	0.89612	1701.97	3.08
298.15	0.6	0.99844	1707.78	3.09
308.15	0.6	0.09962	1653.54	3.08
308.15	0.6	0.19936	1663.82	3.14
308.15	0.6	0.29984	1673.61	3.09
308.15	0.6	0.3991	1682.26	3.79
308.15	0.6	0.49958	1690.31	3.1
308.15	0.6	0.59695	1696.92	3.13
308.15	0.6	0.69944	1703.57	3.18
308.15	0.6	0.79799	1709.79	4.23
308.15	0.6	0.89612	1715.24	3.14
308.15	0.6	0.99844	1720	3.08
318.15	0.6	0.09962	1664.44	3.08
318.15	0.6	0.19936	1674.42	3.08
318.15	0.6	0.29984	1683.79	3.09
318.15	0.6	0.3991	1692.01	3.09
318.15	0.6	0.49958	1699.55	3.09
318.15	0.6	0.59695	1706.27	3.1
318.15	0.6	0.69944	1712.54	3.1
318.15	0.6	0.79799	1717.76	3.1
318.15	0.6	0.89612	1722.41	3.11
318.15	0.6	0.99844	1725.78	3.11

System: D-sucrose + water; phases: Liquid
Fixed: Pressure, kPa = 100
Property: Mass density, kg/m3 (Liquid); method: Vibrating tube method
Temperature, K	Molality, mol/kg of D-sucrose	Mass density, kg/m3	uncertainty
288.15	0.1002	1012.006	2
288.15	0.20074	1024.37	2
288.15	0.30115	1036.192	2.001
288.15	0.4034	1047.719	2.001
288.15	0.49965	1058.125	2.001
288.15	0.60185	1068.729	2.001
288.15	0.70218	1078.714	2.001
288.15	0.79785	1087.865	2.002
288.15	0.89555	1096.857	2.002
288.15	0.99691	1105.825	2.002
298.15	0.1002	1009.811	2
298.15	0.20074	1022.039	2
298.15	0.30115	1033.732	2.001
298.15	0.4034	1045.134	2.001
298.15	0.49965	1055.43	2.001
298.15	0.60185	1065.922	2.001
298.15	0.70218	1075.805	2.001
298.15	0.79785	1084.864	2.002
298.15	0.89555	1093.768	2.002
298.15	0.99691	1102.651	2.002
308.15	0.1002	1006.682	2
308.15	0.20074	1018.799	2.001
308.15	0.30115	1030.387	2.001
308.15	0.4034	1041.687	2.001
308.15	0.49965	1051.891	2.001
308.15	0.60185	1062.292	2.001
308.15	0.70218	1072.09	2.001
308.15	0.79785	1081.072	2.002
308.15	0.89555	1089.901	2.002
308.15	0.99691	1098.711	2.002
318.15	0.1002	1002.772	2
318.15	0.20074	1014.821	2.001
318.15	0.30115	1026.343	2.001
318.15	0.4034	1037.582	2.001
318.15	0.49965	1047.727	2.001
318.15	0.60185	1058.065	2.001
318.15	0.70218	1067.815	2.001
318.15	0.79785	1076.722	2.002
318.15	0.89555	1085.489	2.002
318.15	0.99691	1094.231	2.002

System: D-sucrose + water; phases: Liquid
Fixed: Pressure, kPa = 100
Fixed: Frequency, MHz = 3
Property: Speed of sound, m/s (Liquid); method: Single path-length method
Temperature, K	Molality, mol/kg of D-sucrose	Speed of sound, m/s	uncertainty
288.15	0.1002	1476.33	3.01
288.15	0.20074	1486.15	3.01
288.15	0.30115	1495.97	3.01
288.15	0.4034	1506.01	3.01
288.15	0.49965	1515.31	3.01
288.15	0.60185	1525.24	3.02
288.15	0.70218	1534.87	3.02
288.15	0.79785	1543.87	3.02
288.15	0.89555	1552.92	3.02
288.15	0.99691	1562.21	3.02
298.15	0.1002	1505.99	3.01
298.15	0.20074	1515.01	3.01
298.15	0.30115	1523.98	3.01
298.15	0.4034	1533.15	3.01
298.15	0.49965	1541.67	3.01
298.15	0.60185	1550.57	3.02
298.15	0.70218	1559.26	3.02
298.15	0.79785	1567.41	3.02
298.15	0.89555	1575.57	3.02
298.15	0.99691	1583.77	3.02
308.15	0.1002	1528.16	3.01
308.15	0.20074	1536.45	3.01
308.15	0.30115	1544.74	3.01
308.15	0.4034	1553.12	3.01
308.15	0.49965	1561	3.01
308.15	0.60185	1569.28	3.01
308.15	0.70218	1577.23	3.02
308.15	0.79785	1584.82	3.02
308.15	0.89555	1592.35	3.02
308.15	0.99691	1600.08	3.02
318.15	0.1002	1543.97	3.01
318.15	0.20074	1551.57	3.01
318.15	0.30115	1559.1	3.01
318.15	0.4034	1566.72	3.01
318.15	0.49965	1574.27	3.01
318.15	0.60185	1581.71	3.01
318.15	0.70218	1589.26	3.02
318.15	0.79785	1596.07	3.02
318.15	0.89555	1603.2	3.02
318.15	0.99691	1610.99	3.02
