Measured thermophysical data. Synthesis and Solubility of 5,5-Dimethyl-2-(phenyl(phenylamino)methyl)-1,3,2-dioxaphosphinane 2-oxide in Selected Solvents between 278.15 K and 347.15 K
Source: J. Chem. Eng. Data, 2017, 10.1021/acs.jced.7b00585
Compound 1: 5,5-dimethyl-2-(phenyl(phenylamino)methyl)-1,3,2-dioxaphosphinane 2-oxide, C18H22NO3P, InChI=1S/C18H22NO3P/c1-18(2)13-21-23(20,22-14-18)17(15-9-5-3-6-10-15)19-16-11-7-4-8-12-16/h3-12,17,19H,13-14H2,1-2H3, purity 99.8%
Compound 2: acetone, C3H6O, InChI=1S/C3H6O/c1-3(2)4/h1-2H3, purity 99.5%
Compound 3: acetonitrile, C2H3N, InChI=1S/C2H3N/c1-2-3/h1H3, purity 99.8%
Compound 4: trichloromethane, CHCl3, InChI=1S/CHCl3/c2-1(3)4/h1H, purity 99.7%
Compound 5: 1,2-dichloroethane, C2H4Cl2, InChI=1S/C2H4Cl2/c3-1-2-4/h1-2H2, purity 99%
Compound 6: ethyl acetate, C4H8O2, InChI=1S/C4H8O2/c1-3-6-4(2)5/h3H2,1-2H3, purity 99.5%
Compound 7: methanol, CH4O, InChI=1S/CH4O/c1-2/h2H,1H3, purity 99.5%
Compound 8: 1,4-dioxane, C4H8O2, InChI=1S/C4H8O2/c1-2-6-4-3-5-1/h1-4H2, purity 99.5%
Compound 9: dichloromethane, CH2Cl2, InChI=1S/CH2Cl2/c2-1-3/h1H2, purity 99.5%
Compound 10: tetrachloromethane, CCl4, InChI=1S/CCl4/c2-1(3,4)5, purity 99.5%
Compound 11: benzene, C6H6, InChI=1S/C6H6/c1-2-4-6-5-3-1/h1-6H, purity 99.5%
Compound 12: propan-2-ol, C3H8O, InChI=1S/C3H8O/c1-3(2)4/h3-4H,1-2H3, purity 99.7%
Compound 13: tetrahydrofuran, C4H8O, InChI=1S/C4H8O/c1-2-4-5-3-1/h1-4H2, purity 99.5%
Compound 14: butanedioic acid, C4H6O4, InChI=1S/C4H6O4/c5-3(6)1-2-4(7)8/h1-2H2,(H,5,6)(H,7,8), purity 99.5%
Compound 15: water, H2O, InChI=1S/H2O/h1H2, purity 99.8%

System: 5,5-dimethyl-2-(phenyl(phenylamino)methyl)-1,3,2-dioxaphosphinane 2-oxide; phases: Crystal, Liquid, Air at 1 atmosphere
Property: Normal melting temperature, K (Crystal); method: VISOBS
Normal melting temperature, K	uncertainty
448	2

System: ethyl acetate + 5,5-dimethyl-2-(phenyl(phenylamino)methyl)-1,3,2-dioxaphosphinane 2-oxide; phases: Liquid, Crystal
Fixed: Pressure, kPa = 100
Property: Mole fraction of 5,5-dimethyl-2-(phenyl(phenylamino)methyl)-1,3,2-dioxaphosphinane 2-oxide (Liquid); method: Gravimetric
Temperature, K	Mole fraction of 5,5-dimethyl-2-(phenyl(phenylamino)methyl)-1,3,2-dioxaphosphinane 2-oxide	uncertainty
293.65	0.00232	0.00023
298.25	0.00278	0.00028
303.15	0.00385	0.00039
308.05	0.0046	0.00046
312.95	0.00561	0.00056
317.95	0.00671	0.00067
322.95	0.00781	0.00078
327.95	0.00913	0.00091
332.75	0.0097	0.00097
337.65	0.01112	0.00111

System: trichloromethane + 5,5-dimethyl-2-(phenyl(phenylamino)methyl)-1,3,2-dioxaphosphinane 2-oxide; phases: Liquid, Crystal
Fixed: Pressure, kPa = 100
Property: Mole fraction of 5,5-dimethyl-2-(phenyl(phenylamino)methyl)-1,3,2-dioxaphosphinane 2-oxide (Liquid); method: Gravimetric
Temperature, K	Mole fraction of 5,5-dimethyl-2-(phenyl(phenylamino)methyl)-1,3,2-dioxaphosphinane 2-oxide	uncertainty
278.75	0.03522	0.00352
283.65	0.03817	0.00382
288.85	0.04034	0.00403
293.95	0.04196	0.0042
298.35	0.04442	0.00444
303.25	0.04715	0.00472
307.75	0.04916	0.00492
313.15	0.05267	0.00527
317.95	0.05484	0.00549
322.75	0.0591	0.00591
327.95	0.06461	0.00646

System: 1,4-dioxane + 5,5-dimethyl-2-(phenyl(phenylamino)methyl)-1,3,2-dioxaphosphinane 2-oxide; phases: Liquid, Crystal
Fixed: Pressure, kPa = 100
Property: Mole fraction of 5,5-dimethyl-2-(phenyl(phenylamino)methyl)-1,3,2-dioxaphosphinane 2-oxide (Liquid); method: Gravimetric
Temperature, K	Mole fraction of 5,5-dimethyl-2-(phenyl(phenylamino)methyl)-1,3,2-dioxaphosphinane 2-oxide	uncertainty
285.65	0.00609	0.00061
288.65	0.00661	0.00066
293.65	0.00739	0.00074
298.15	0.00887	0.00089
303.15	0.01026	0.00103
308.15	0.01206	0.00121
313.15	0.01386	0.00139
318.15	0.01615	0.00162
323.15	0.01898	0.0019
328.15	0.02295	0.0023

System: acetone + 5,5-dimethyl-2-(phenyl(phenylamino)methyl)-1,3,2-dioxaphosphinane 2-oxide; phases: Liquid, Crystal
Fixed: Pressure, kPa = 100
Property: Mole fraction of 5,5-dimethyl-2-(phenyl(phenylamino)methyl)-1,3,2-dioxaphosphinane 2-oxide (Liquid); method: Gravimetric
Temperature, K	Mole fraction of 5,5-dimethyl-2-(phenyl(phenylamino)methyl)-1,3,2-dioxaphosphinane 2-oxide	uncertainty
278.15	0.00244	0.00024
283.75	0.00314	0.00031
288.15	0.00432	0.00043
293.75	0.00578	0.00058
298.65	0.00728	0.00073
302.75	0.00898	0.0009
307.85	0.0112	0.00112
311.75	0.01375	0.00138
317.15	0.01713	0.00171
321.25	0.01859	0.00186

System: tetrachloromethane + 5,5-dimethyl-2-(phenyl(phenylamino)methyl)-1,3,2-dioxaphosphinane 2-oxide; phases: Liquid, Crystal
Fixed: Pressure, kPa = 100
Property: Mole fraction of 5,5-dimethyl-2-(phenyl(phenylamino)methyl)-1,3,2-dioxaphosphinane 2-oxide (Liquid); method: Gravimetric
Temperature, K	Mole fraction of 5,5-dimethyl-2-(phenyl(phenylamino)methyl)-1,3,2-dioxaphosphinane 2-oxide	uncertainty
278.15	0.00015	2e-05
283.15	0.00019	2e-05
288.35	0.00026	3e-05
293.65	0.00034	3e-05
298.15	0.00044	4e-05
302.17	0.00051	5e-05
307.95	0.00066	7e-05
312.55	0.00085	9e-05
317.55	0.00103	0.0001
321.55	0.00121	0.00012
326.65	0.00143	0.00014
332.15	0.00203	0.0002
337.15	0.00246	0.00025

System: propan-2-ol + 5,5-dimethyl-2-(phenyl(phenylamino)methyl)-1,3,2-dioxaphosphinane 2-oxide; phases: Liquid, Crystal
Fixed: Pressure, kPa = 100
Property: Mole fraction of 5,5-dimethyl-2-(phenyl(phenylamino)methyl)-1,3,2-dioxaphosphinane 2-oxide (Liquid); method: Gravimetric
Temperature, K	Mole fraction of 5,5-dimethyl-2-(phenyl(phenylamino)methyl)-1,3,2-dioxaphosphinane 2-oxide	uncertainty
278.15	0.0004	4e-05
283.15	0.0005	5e-05
288.35	0.00066	7e-05
293.65	0.0008	8e-05
298.15	0.00106	0.00011
302.17	0.00128	0.00013
307.95	0.00177	0.00018
312.55	0.00203	0.0002
317.55	0.00254	0.00025
321.55	0.00318	0.00032
326.65	0.00389	0.00039
332.15	0.00485	0.00049
337.55	0.00626	0.00063
343.15	0.00791	0.00079
347.5	0.00958	0.00096

System: acetonitrile + 5,5-dimethyl-2-(phenyl(phenylamino)methyl)-1,3,2-dioxaphosphinane 2-oxide; phases: Liquid, Crystal
Fixed: Pressure, kPa = 100
Property: Mole fraction of 5,5-dimethyl-2-(phenyl(phenylamino)methyl)-1,3,2-dioxaphosphinane 2-oxide (Liquid); method: Gravimetric
Temperature, K	Mole fraction of 5,5-dimethyl-2-(phenyl(phenylamino)methyl)-1,3,2-dioxaphosphinane 2-oxide	uncertainty
278	0.00557	0.00056
285.65	0.0068	0.00068
288.75	0.00746	0.00075
293.75	0.00887	0.00089
298.25	0.01007	0.00101
303.25	0.01187	0.00119
308.15	0.01423	0.00142
312.75	0.01613	0.00161
317.65	0.01915	0.00192
322.45	0.02182	0.00218
327.75	0.02576	0.00258
335.35	0.03283	0.00328

System: 1,2-dichloroethane + 5,5-dimethyl-2-(phenyl(phenylamino)methyl)-1,3,2-dioxaphosphinane 2-oxide; phases: Liquid, Crystal
Fixed: Pressure, kPa = 100
Property: Mole fraction of 5,5-dimethyl-2-(phenyl(phenylamino)methyl)-1,3,2-dioxaphosphinane 2-oxide (Liquid); method: Gravimetric
Temperature, K	Mole fraction of 5,5-dimethyl-2-(phenyl(phenylamino)methyl)-1,3,2-dioxaphosphinane 2-oxide	uncertainty
278.65	0.01021	0.00102
283.65	0.01188	0.00119
288.65	0.01426	0.00143
293.25	0.01694	0.00169
298.15	0.01911	0.00191
303.15	0.02292	0.00229
308.25	0.0265	0.00265
313.15	0.03101	0.0031
318.15	0.03498	0.0035
323.15	0.03947	0.00395
333.15	0.04369	0.00437

System: methanol + 5,5-dimethyl-2-(phenyl(phenylamino)methyl)-1,3,2-dioxaphosphinane 2-oxide; phases: Liquid, Crystal
Fixed: Pressure, kPa = 100
Property: Mole fraction of 5,5-dimethyl-2-(phenyl(phenylamino)methyl)-1,3,2-dioxaphosphinane 2-oxide (Liquid); method: Gravimetric
Temperature, K	Mole fraction of 5,5-dimethyl-2-(phenyl(phenylamino)methyl)-1,3,2-dioxaphosphinane 2-oxide	uncertainty
278.15	0.00151	0.00015
283.65	0.002	0.0002
289.15	0.00246	0.00025
293.65	0.00312	0.00031
298.15	0.00367	0.00037
303.15	0.0045	0.00045
307.95	0.00541	0.00054
313.15	0.00662	0.00066
318.15	0.00796	0.0008
323.15	0.00984	0.00098

System: dichloromethane + 5,5-dimethyl-2-(phenyl(phenylamino)methyl)-1,3,2-dioxaphosphinane 2-oxide; phases: Liquid, Crystal
Fixed: Pressure, kPa = 100
Property: Mole fraction of 5,5-dimethyl-2-(phenyl(phenylamino)methyl)-1,3,2-dioxaphosphinane 2-oxide (Liquid); method: Gravimetric
Temperature, K	Mole fraction of 5,5-dimethyl-2-(phenyl(phenylamino)methyl)-1,3,2-dioxaphosphinane 2-oxide	uncertainty
278.65	0.00771	0.00077
283.25	0.00994	0.00099
288.65	0.01205	0.00121
293.25	0.01519	0.00152
298.85	0.0189	0.00189
302.95	0.02315	0.00232
308.35	0.02737	0.00274
310.95	0.03166	0.00317

System: benzene + 5,5-dimethyl-2-(phenyl(phenylamino)methyl)-1,3,2-dioxaphosphinane 2-oxide; phases: Liquid, Crystal
Fixed: Pressure, kPa = 100
Property: Mole fraction of 5,5-dimethyl-2-(phenyl(phenylamino)methyl)-1,3,2-dioxaphosphinane 2-oxide (Liquid); method: Gravimetric
Temperature, K	Mole fraction of 5,5-dimethyl-2-(phenyl(phenylamino)methyl)-1,3,2-dioxaphosphinane 2-oxide	uncertainty
278.65	0.0011	0.00011
283.65	0.00131	0.00013
288.15	0.00162	0.00016
293.25	0.00201	0.0002
298.25	0.00245	0.00025
303.15	0.00301	0.0003
307.95	0.00381	0.00038
313.15	0.00464	0.00046
318.05	0.00519	0.00052
322.65	0.00634	0.00063
327.15	0.00711	0.00071
332.65	0.0093	0.00093
337.55	0.01073	0.00107
343.15	0.01229	0.00123
347.5	0.01491	0.00149

System: tetrahydrofuran + 5,5-dimethyl-2-(phenyl(phenylamino)methyl)-1,3,2-dioxaphosphinane 2-oxide; phases: Liquid, Crystal
Fixed: Pressure, kPa = 100
Property: Mole fraction of 5,5-dimethyl-2-(phenyl(phenylamino)methyl)-1,3,2-dioxaphosphinane 2-oxide (Liquid); method: Gravimetric
Temperature, K	Mole fraction of 5,5-dimethyl-2-(phenyl(phenylamino)methyl)-1,3,2-dioxaphosphinane 2-oxide	uncertainty
278.65	0.00583	0.00058
283.65	0.00648	0.00065
288.15	0.00764	0.00076
293.25	0.00858	0.00086
298.25	0.01022	0.00102
303.15	0.01173	0.00117
307.95	0.01328	0.00133
313.15	0.01525	0.00153
318.05	0.01692	0.00169
322.65	0.01872	0.00187
327.15	0.02149	0.00215
332.65	0.02366	0.00237

System: butanedioic acid + water; phases: Liquid, Crystal
Fixed: Pressure, kPa = 100
Property: Mole fraction of butanedioic acid (Liquid); method: Gravimetric
Temperature, K	Mole fraction of butanedioic acid	uncertainty
283.65	0.00663	0.00066
289	0.00837	0.00084
293.75	0.0104	0.00104
298.25	0.01265	0.00127
303.15	0.01557	0.00156
308.06	0.01875	0.00188
312.85	0.02285	0.00229
317.77	0.02773	0.00277
322.55	0.03382	0.00338
327.45	0.04063	0.00406
333.15	0.0481	0.00481
337.5	0.059	0.0059
342.25	0.06887	0.00689
