Measured thermophysical data. Determination and Correlation of Liquid-Liquid Equilibria Data for Ternary System Isopropyl Acetate + Isopropanol + Water at Different Temperatures
Source: J. Chem. Eng. Data, 2019, 10.1021/acs.jced.8b00844
Compound 1: water, H2O, InChI=1S/H2O/h1H2, purity 99.92%
Compound 2: 1-methylethyl ethanoate, C5H10O2, InChI=1S/C5H10O2/c1-4(2)7-5(3)6/h4H,1-3H3, purity 99.5%
Compound 3: propan-2-ol, C3H8O, InChI=1S/C3H8O/c1-3(2)4/h3-4H,1-2H3, purity 98.5%

System: water; phases: Liquid
Property: Mass density, kg/m3 (Liquid); method: Vibrating tube method
Temperature, K	Pressure, kPa	Mass density, kg/m3	uncertainty
298.15	101.325	997	16

System: water; phases: Liquid
Property: Refractive index (Na D-line) (Liquid); method: Standard Abbe refractometry
Temperature, K	Pressure, kPa	Refractive index (Na D-line)	uncertainty
298.15	101.325	1.3325	0.012

System: 1-methylethyl ethanoate; phases: Liquid
Property: Mass density, kg/m3 (Liquid); method: Vibrating tube method
Temperature, K	Pressure, kPa	Mass density, kg/m3	uncertainty
298.15	101.325	867.6	16

System: 1-methylethyl ethanoate; phases: Liquid
Property: Refractive index (Na D-line) (Liquid); method: Standard Abbe refractometry
Temperature, K	Pressure, kPa	Refractive index (Na D-line)	uncertainty
298.15	101.325	1.3701	0.012

System: propan-2-ol; phases: Liquid
Property: Mass density, kg/m3 (Liquid); method: Vibrating tube method
Temperature, K	Pressure, kPa	Mass density, kg/m3	uncertainty
298.15	101.325	781.4	16

System: propan-2-ol; phases: Liquid
Property: Refractive index (Na D-line) (Liquid); method: Standard Abbe refractometry
Temperature, K	Pressure, kPa	Refractive index (Na D-line)	uncertainty
298.15	101.325	1.375	0.012

System: 1-methylethyl ethanoate + propan-2-ol + water; phases: Liquid mixture 1, Liquid mixture 2
Fixed: Pressure, kPa = 101.3
Property: Mass fraction of 1-methylethyl ethanoate (Liquid mixture 1); method: Chromatography
Property: Mass fraction of water (Liquid mixture 2); method: Chromatography
Property: Mass fraction of 1-methylethyl ethanoate (Liquid mixture 2); method: Chromatography
Temperature, K	Mass fraction of water	Mass fraction of 1-methylethyl ethanoate	uncertainty	Mass fraction of water	uncertainty	Mass fraction of 1-methylethyl ethanoate	uncertainty
298.15	0.9729	0.0271	0.0061	0.0168	0.0068	0.9832	
298.15	0.9402	0.0328	0.006	0.0397	0.0066	0.9395	
298.15	0.9165	0.0337	0.006	0.0515	0.0062	0.9047	
298.15	0.8937	0.0341	0.006	0.0576	0.0061	0.8735	
298.15	0.8607	0.0371	0.006	0.0629	0.0061	0.8151	
298.15	0.8466	0.0392	0.006	0.0673	0.0061	0.7848	
298.15	0.8355	0.0384	0.006	0.0757	0.0062	0.7511	
298.15	0.8242	0.038	0.006	0.0846	0.0063	0.718	
298.15	0.8134	0.0394	0.0061	0.0963	0.0064	0.6842	
303.15	0.9742	0.0258	0.0066	0.0176	0.0063	0.9824	
303.15	0.9255	0.048	0.0062	0.0291	0.0062	0.9464	
303.15	0.9043	0.0462	0.006	0.0322	0.0061	0.9175	
303.15	0.887	0.0439	0.0061	0.0402	0.0063	0.8832	
303.15	0.8656	0.0492	0.006	0.0529	0.0062	0.8428	
303.15	0.8542	0.0462	0.006	0.0611	0.0062	0.8067	
303.15	0.8387	0.0505	0.006	0.0734	0.0063	0.7681	
303.15	0.8309	0.047	0.006	0.0856	0.0064	0.7294	
303.15	0.8112	0.0488	0.006	0.111	0.0064	0.6573	
308.15	0.9767	0.0233	0.0062	0.0209	0.0061	0.9791	
308.15	0.9436	0.0324	0.0063	0.0253	0.0062	0.9518	
308.15	0.9151	0.0412	0.0061	0.0378	0.0063	0.9135	
308.15	0.8971	0.0415	0.006	0.0469	0.0062	0.8779	
308.15	0.8573	0.0413	0.006	0.0742	0.0062	0.7721	
308.15	0.8448	0.0426	0.006	0.0828	0.0062	0.7374	
308.15	0.8404	0.0384	0.006	0.0909	0.0063	0.7043	
308.15	0.8252	0.0436	0.0061	0.1058	0.0065	0.6674	
308.15	0.8129	0.048	0.0072	0.1151	0.0063	0.6378	
313.15	0.9779	0.0221	0.0068	0.0228	0.0062	0.9772	
313.15	0.9303	0.047	0.0065	0.0324	0.0062	0.9407	
313.15	0.9067	0.0502	0.0061	0.0408	0.0062	0.9039	
313.15	0.8891	0.0502	0.0061	0.0541	0.0062	0.8617	
313.15	0.8699	0.054	0.006	0.0623	0.0062	0.8241	
313.15	0.8555	0.0554	0.0061	0.0765	0.0063	0.7805	
313.15	0.8474	0.0519	0.0061	0.0895	0.0064	0.7398	
313.15	0.8314	0.0572	0.0062	0.1043	0.0065	0.6985	
313.15	0.8188	0.0601	0.0063	0.1205	0.0062	0.6578	
318.15	0.9782	0.0218	0.0067	0.0232	0.0061	0.9768	
318.15	0.9353	0.0432	0.0064	0.0294	0.0061	0.9438	
318.15	0.9161	0.0431	0.0061	0.0353	0.0061	0.9099	
318.15	0.878	0.0496	0.0061	0.0495	0.0062	0.828	
318.15	0.8635	0.0523	0.006	0.0634	0.0064	0.7951	
318.15	0.8541	0.0504	0.0061	0.0779	0.0063	0.7534	
318.15	0.8452	0.0491	0.0061	0.0873	0.0063	0.718	
318.15	0.8375	0.0483	0.0062	0.0993	0.0064	0.6818	
318.15	0.8232	0.0535	0.0067	0.1119	0.0064	0.6472	
323.15	0.9789	0.0211	0.0065	0.0254	0.0062	0.9746	
323.15	0.9407	0.0369	0.0063	0.0367	0.0062	0.9331	
323.15	0.915	0.042	0.0061	0.0448	0.0061	0.8966	
323.15	0.8928	0.0454	0.0061	0.0506	0.0061	0.8624	
323.15	0.8781	0.0491	0.0061	0.0576	0.0062	0.8243	
323.15	0.8647	0.0499	0.006	0.0684	0.0063	0.7904	
323.15	0.8329	0.0533	0.006	0.0852	0.0063	0.7401	
323.15	0.8226	0.0533	0.0062	0.0922	0.0064	0.7071	
323.15	0.8085	0.0593	0.0065	0.1106	0.0065	0.6629	

System: 1-methylethyl ethanoate + water; phases: Liquid mixture 2, Liquid mixture 1
Fixed: Pressure, kPa = 101.3
Property: Mass fraction of 1-methylethyl ethanoate (Liquid mixture 2); method: Chromatography
Temperature, K	Mass fraction of 1-methylethyl ethanoate	uncertainty
298.15	0.0271	0.006
303.15	0.0258	0.006
308.15	0.0233	0.006
313.15	0.0221	0.006
318.15	0.0218	0.006
323.15	0.0211	0.006

System: 1-methylethyl ethanoate + water; phases: Liquid mixture 1, Liquid mixture 2
Fixed: Pressure, kPa = 101.3
Property: Mass fraction of water (Liquid mixture 1); method: Chromatography
Temperature, K	Mass fraction of water	uncertainty
298.15	0.0168	0.006
303.15	0.0176	0.006
308.15	0.0209	0.006
313.15	0.0228	0.006
318.15	0.0232	0.006
323.15	0.0254	0.006
