Measured thermophysical data. Lamotrigine Solubility in Some Nonaqueous Solvent  Mixtures at 298.2 K
Source: J. Chem. Eng. Data, 2015, 10.1021/acs.jced.5b00355
Compound 1: lamotrigine, C9H7Cl2N5, InChI=1S/C9H7Cl2N5/c10-5-3-1-2-4(6(5)11)7-8(12)14-9(13)16-15-7/h1-3H,(H4,12,13,14,16), purity 99.9%
Compound 2: ethanol, C2H6O, InChI=1S/C2H6O/c1-2-3/h3H,2H2,1H3, purity 99.5%
Compound 3: methanol, CH4O, InChI=1S/CH4O/c1-2/h2H,1H3, purity 99.5%
Compound 4: acetone, C3H6O, InChI=1S/C3H6O/c1-3(2)4/h1-2H3, purity 99.5%
Compound 5: propan-1-ol, C3H8O, InChI=1S/C3H8O/c1-2-3-4/h4H,2-3H2,1H3, purity 99.5%
Compound 6: ethyl acetate, C4H8O2, InChI=1S/C4H8O2/c1-3-6-4(2)5/h3H2,1-2H3, purity 99.5%

System: methanol + acetone + lamotrigine; phases: Liquid, Crystal
Fixed: Temperature, K = 298.2
Fixed: Pressure, kPa = 101
Property: Amount concentration (molarity), mol/dm3 of lamotrigine (Liquid); method: UV-spectroscopy
Solvent: Mass fraction of methanol	Amount concentration (molarity), mol/dm3 of lamotrigine	uncertainty
0	0.0167	0.0014
0.1	0.0297	0.0026
0.2	0.0383	0.0033
0.3	0.0453	0.0039
0.4	0.0468	0.004
0.5	0.0425	0.0037
0.6	0.0355	0.0031
0.7	0.0322	0.0029
0.8	0.0246	0.0022
0.9	0.024	0.0021
1	0.0199	0.0017

System: methanol + acetone + lamotrigine; phases: Liquid
Fixed: Temperature, K = 298.2
Fixed: Pressure, kPa = 101
Property: Mass density, kg/m3 (Liquid); method: Pycnometric method
Solvent: Mass fraction of methanol	Amount concentration (molarity), mol/dm3 of lamotrigine	Mass density, kg/m3	uncertainty
0	0.0167	852.8	6.9
0.1	0.0297	852.2	6.8
0.2	0.0383	851.3	6.8
0.3	0.0453	850.4	6.8
0.4	0.0468	849.4	6.8
0.5	0.0425	848.1	6.8
0.6	0.0355	846.7	6.8
0.7	0.0322	844.8	6.8
0.8	0.0246	842.4	6.8
0.9	0.024	839.1	6.8
1	0.0199	834.7	6.7

System: ethanol + acetone + lamotrigine; phases: Liquid, Crystal
Fixed: Temperature, K = 298.2
Fixed: Pressure, kPa = 101
Property: Amount concentration (molarity), mol/dm3 of lamotrigine (Liquid); method: UV-spectroscopy
Solvent: Mass fraction of ethanol	Amount concentration (molarity), mol/dm3 of lamotrigine	uncertainty
0	0.0167	0.0014
0.1	0.0262	0.0023
0.2	0.0414	0.0036
0.3	0.0521	0.0045
0.4	0.0438	0.0038
0.5	0.0378	0.0033
0.6	0.0332	0.0029
0.7	0.0292	0.0027
0.8	0.0205	0.0021
0.9	0.0154	0.0015
1	0.0134	0.0012

System: ethanol + acetone + lamotrigine; phases: Liquid
Fixed: Temperature, K = 298.2
Fixed: Pressure, kPa = 101
Property: Mass density, kg/m3 (Liquid); method: Pycnometric method
Solvent: Mass fraction of ethanol	Amount concentration (molarity), mol/dm3 of lamotrigine	Mass density, kg/m3	uncertainty
0	0.0167	852.8	6.9
0.1	0.0262	853	6.9
0.2	0.0414	853.1	6.9
0.3	0.0521	853.1	6.9
0.4	0.0438	853.2	6.9
0.5	0.0378	853.2	6.9
0.6	0.0332	853.2	6.9
0.7	0.0292	853.1	6.9
0.8	0.0205	852.9	6.9
0.9	0.0154	852.4	6.8
1	0.0134	851.7	6.8

System: acetone + propan-1-ol + lamotrigine; phases: Liquid, Crystal
Fixed: Temperature, K = 298.2
Fixed: Pressure, kPa = 101
Property: Amount concentration (molarity), mol/dm3 of lamotrigine (Liquid); method: UV-spectroscopy
Solvent: Mass fraction of propan-1-ol	Amount concentration (molarity), mol/dm3 of lamotrigine	uncertainty
0	0.0167	0.0014
0.1	0.0293	0.0025
0.2	0.0385	0.0033
0.3	0.0498	0.0043
0.4	0.0585	0.0051
0.5	0.0632	0.0055
0.6	0.0682	0.0059
0.7	0.0741	0.0064
0.8	0.0577	0.0057
0.9	0.04	0.0046
1	0.0245	0.0021

System: acetone + propan-1-ol + lamotrigine; phases: Liquid
Fixed: Temperature, K = 298.2
Fixed: Pressure, kPa = 101
Property: Mass density, kg/m3 (Liquid); method: Pycnometric method
Solvent: Mass fraction of propan-1-ol	Amount concentration (molarity), mol/dm3 of lamotrigine	Mass density, kg/m3	uncertainty
0	0.0167	852.8	6.9
0.1	0.0293	856.8	6.9
0.2	0.0385	860.8	6.9
0.3	0.0498	864.9	7
0.4	0.0585	869	7
0.5	0.0632	873.1	7
0.6	0.0682	877.3	7.1
0.7	0.0741	881.4	7.1
0.8	0.0577	885.6	7.1
0.9	0.04	889.7	7.2
1	0.0245	893.8	7.2

System: acetone + ethyl acetate + lamotrigine; phases: Liquid, Crystal
Fixed: Temperature, K = 298.2
Fixed: Pressure, kPa = 101
Property: Amount concentration (molarity), mol/dm3 of lamotrigine (Liquid); method: UV-spectroscopy
Solvent: Mass fraction of ethyl acetate	Amount concentration (molarity), mol/dm3 of lamotrigine	uncertainty
0	0.0167	0.0014
0.1	0.0201	0.0017
0.2	0.0218	0.0019
0.3	0.025	0.0022
0.4	0.0219	0.0019
0.5	0.0209	0.0018
0.6	0.0187	0.0016
0.7	0.0182	0.0016
0.8	0.0175	0.0015
0.9	0.0138	0.0013
1	0.0106	0.0009

System: acetone + ethyl acetate + lamotrigine; phases: Liquid
Fixed: Temperature, K = 298.2
Fixed: Pressure, kPa = 101
Property: Mass density, kg/m3 (Liquid); method: Pycnometric method
Solvent: Mass fraction of ethyl acetate	Amount concentration (molarity), mol/dm3 of lamotrigine	Mass density, kg/m3	uncertainty
0	0.0167	852.8	6.9
0.1	0.0201	870.4	7.1
0.2	0.0218	887	7.2
0.3	0.025	902.7	7.3
0.4	0.0219	917.7	7.5
0.5	0.0209	932	7.7
0.6	0.0187	945.7	7.8
0.7	0.0182	958.8	7.9
0.8	0.0175	971.4	8.1
0.9	0.0138	983.6	8.4
1	0.0106	995.4	8

System: methanol + ethyl acetate + lamotrigine; phases: Liquid, Crystal
Fixed: Temperature, K = 298.2
Fixed: Pressure, kPa = 101
Property: Amount concentration (molarity), mol/dm3 of lamotrigine (Liquid); method: UV-spectroscopy
Solvent: Mass fraction of ethyl acetate	Amount concentration (molarity), mol/dm3 of lamotrigine	uncertainty
0	0.0199	0.0017
0.1	0.0221	0.0019
0.2	0.0258	0.0022
0.3	0.0288	0.0025
0.4	0.0314	0.0027
0.5	0.0334	0.0029
0.6	0.0355	0.0031
0.7	0.0301	0.0027
0.8	0.0252	0.0025
0.9	0.0154	0.0019
1	0.0106	0.0009

System: methanol + ethyl acetate + lamotrigine; phases: Liquid
Fixed: Temperature, K = 298.2
Fixed: Pressure, kPa = 101
Property: Mass density, kg/m3 (Liquid); method: Pycnometric method
Solvent: Mass fraction of ethyl acetate	Amount concentration (molarity), mol/dm3 of lamotrigine	Mass density, kg/m3	uncertainty
0	0.0199	834.7	8.7
0.1	0.0221	863.3	8.3
0.2	0.0258	887.1	8.9
0.3	0.0288	906.9	8.9
0.4	0.0314	923.8	8.1
0.5	0.0334	938.6	7.8
0.6	0.0355	951.8	7.8
0.7	0.0301	964	8
0.8	0.0252	975.3	8.2
0.9	0.0154	985.9	8.5
1	0.0106	995.4	8.1

System: ethanol + ethyl acetate + lamotrigine; phases: Liquid, Crystal
Fixed: Temperature, K = 298.2
Fixed: Pressure, kPa = 101
Property: Amount concentration (molarity), mol/dm3 of lamotrigine (Liquid); method: UV-spectroscopy
Solvent: Mass fraction of ethyl acetate	Amount concentration (molarity), mol/dm3 of lamotrigine	uncertainty
0	0.0134	0.0012
0.1	0.0156	0.0013
0.2	0.02	0.0017
0.3	0.0234	0.002
0.4	0.0277	0.0024
0.5	0.0316	0.0027
0.6	0.0336	0.0029
0.7	0.0332	0.0029
0.8	0.0303	0.0026
0.9	0.0275	0.003
1	0.0106	0.0009

System: ethanol + ethyl acetate + lamotrigine; phases: Liquid
Fixed: Temperature, K = 298.2
Fixed: Pressure, kPa = 101
Property: Mass density, kg/m3 (Liquid); method: Pycnometric method
Solvent: Mass fraction of ethyl acetate	Amount concentration (molarity), mol/dm3 of lamotrigine	Mass density, kg/m3	uncertainty
0	0.0134	851.7	6.9
0.1	0.0156	871.8	7.1
0.2	0.02	890	7.6
0.3	0.0234	906.7	7.4
0.4	0.0277	922	7.6
0.5	0.0316	936.1	7.7
0.6	0.0336	949.3	7.8
0.7	0.0332	961.7	8
0.8	0.0303	973.4	8.1
0.9	0.0275	984.6	8.2
1	0.0106	995.4	8

System: propan-1-ol + ethyl acetate + lamotrigine; phases: Liquid, Crystal
Fixed: Temperature, K = 298.2
Fixed: Pressure, kPa = 101
Property: Amount concentration (molarity), mol/dm3 of lamotrigine (Liquid); method: UV-spectroscopy
Solvent: Mass fraction of ethyl acetate	Amount concentration (molarity), mol/dm3 of lamotrigine	uncertainty
0	0.0245	0.0021
0.1	0.0332	0.0029
0.2	0.0484	0.0042
0.3	0.0534	0.0046
0.4	0.0572	0.0049
0.5	0.0606	0.0052
0.6	0.0592	0.0051
0.7	0.0561	0.005
0.8	0.0387	0.0041
0.9	0.0264	0.0034
1	0.0106	0.0009

System: propan-1-ol + ethyl acetate + lamotrigine; phases: Liquid
Fixed: Temperature, K = 298.2
Fixed: Pressure, kPa = 101
Property: Mass density, kg/m3 (Liquid); method: Pycnometric method
Solvent: Mass fraction of ethyl acetate	Amount concentration (molarity), mol/dm3 of lamotrigine	Mass density, kg/m3	uncertainty
0	0.0245	893.8	7.2
0.1	0.0332	905.8	7.3
0.2	0.0484	917.4	7.4
0.3	0.0534	928.6	7.5
0.4	0.0572	939.4	7.6
0.5	0.0606	949.9	7.7
0.6	0.0592	959.9	7.8
0.7	0.0561	969.5	7.9
0.8	0.0387	978.6	8
0.9	0.0264	987.2	8.1
1	0.0106	995.4	8

System: acetone + lamotrigine; phases: Liquid, Crystal
Property: Amount concentration (molarity), mol/dm3 of lamotrigine (Liquid); method: UV-spectroscopy
Temperature, K	Pressure, kPa	Amount concentration (molarity), mol/dm3 of lamotrigine	uncertainty
298.2	101	0.0167	0.0014

System: acetone + lamotrigine; phases: Liquid
Property: Mass density, kg/m3 (Liquid); method: Pycnometric method
Amount concentration (molarity), mol/dm3 of lamotrigine	Temperature, K	Pressure, kPa	Mass density, kg/m3	uncertainty
0.0167	298.2	101	852.8	6.9

System: methanol + lamotrigine; phases: Liquid, Crystal
Property: Amount concentration (molarity), mol/dm3 of lamotrigine (Liquid); method: UV-spectroscopy
Temperature, K	Pressure, kPa	Amount concentration (molarity), mol/dm3 of lamotrigine	uncertainty
298.2	101	0.0199	0.0017

System: methanol + lamotrigine; phases: Liquid
Property: Mass density, kg/m3 (Liquid); method: Pycnometric method
Amount concentration (molarity), mol/dm3 of lamotrigine	Temperature, K	Pressure, kPa	Mass density, kg/m3	uncertainty
0.0199	298.2	101	834.7	6.7

System: ethanol + lamotrigine; phases: Liquid, Crystal
Property: Amount concentration (molarity), mol/dm3 of lamotrigine (Liquid); method: UV-spectroscopy
Temperature, K	Pressure, kPa	Amount concentration (molarity), mol/dm3 of lamotrigine	uncertainty
298.2	101	0.0134	0.0012

System: ethanol + lamotrigine; phases: Liquid
Property: Mass density, kg/m3 (Liquid); method: Pycnometric method
Amount concentration (molarity), mol/dm3 of lamotrigine	Temperature, K	Pressure, kPa	Mass density, kg/m3	uncertainty
0.0134	298.2	101	851.7	6.8

System: propan-1-ol + lamotrigine; phases: Liquid, Crystal
Property: Amount concentration (molarity), mol/dm3 of lamotrigine (Liquid); method: UV-spectroscopy
Temperature, K	Pressure, kPa	Amount concentration (molarity), mol/dm3 of lamotrigine	uncertainty
298.2	101	0.0245	0.0021

System: propan-1-ol + lamotrigine; phases: Liquid
Property: Mass density, kg/m3 (Liquid); method: Pycnometric method
Amount concentration (molarity), mol/dm3 of lamotrigine	Temperature, K	Pressure, kPa	Mass density, kg/m3	uncertainty
0.0245	298.2	101	893.8	7.2

System: ethyl acetate + lamotrigine; phases: Liquid, Crystal
Property: Amount concentration (molarity), mol/dm3 of lamotrigine (Liquid); method: UV-spectroscopy
Temperature, K	Pressure, kPa	Amount concentration (molarity), mol/dm3 of lamotrigine	uncertainty
298.2	101	0.0106	0.0009

System: ethyl acetate + lamotrigine; phases: Liquid
Property: Mass density, kg/m3 (Liquid); method: Pycnometric method
Amount concentration (molarity), mol/dm3 of lamotrigine	Temperature, K	Pressure, kPa	Mass density, kg/m3	uncertainty
0.0106	298.2	101	995.4	8
