Measured thermophysical data. Solid-Liquid Equilibrium of Azacyclotridecan-2-one in 15 Pure Solvents from T = 273.15 to 323.15 K: Experimental Determination and Thermodynamic Modeling
Source: J. Chem. Eng. Data, 2019, 10.1021/acs.jced.8b01193
Compound 1: 2-azacyclotridecanone, C12H23NO, InChI=1S/C12H23NO/c14-12-10-8-6-4-2-1-3-5-7-9-11-13-12/h1-11H2,(H,13,14), purity 99%
Compound 2: sodium nitrate, NNaO3, InChI=1S/NO3.Na/c2-1(3)4;/q-1;+1, purity 99%
Compound 3: methanol, CH4O, InChI=1S/CH4O/c1-2/h2H,1H3, purity 99.5%
Compound 4: ethanol, C2H6O, InChI=1S/C2H6O/c1-2-3/h3H,2H2,1H3, purity 99.7%
Compound 5: propan-1-ol, C3H8O, InChI=1S/C3H8O/c1-2-3-4/h4H,2-3H2,1H3, purity 99.8%
Compound 6: propan-2-ol, C3H8O, InChI=1S/C3H8O/c1-3(2)4/h3-4H,1-2H3, purity 99.7%
Compound 7: butan-1-ol, C4H10O, InChI=1S/C4H10O/c1-2-3-4-5/h5H,2-4H2,1H3, purity 99.5%
Compound 8: 2-methyl-1-propanol, C4H10O, InChI=1S/C4H10O/c1-4(2)3-5/h4-5H,3H2,1-2H3, purity 99.5%
Compound 9: pentan-1-ol, C5H12O, InChI=1S/C5H12O/c1-2-3-4-5-6/h6H,2-5H2,1H3, purity 99.5%
Compound 10: ethyl acetate, C4H8O2, InChI=1S/C4H8O2/c1-3-6-4(2)5/h3H2,1-2H3, purity 99.5%
Compound 11: acetone, C3H6O, InChI=1S/C3H6O/c1-3(2)4/h1-2H3, purity 99.5%
Compound 12: toluene, C7H8, InChI=1S/C7H8/c1-7-5-3-2-4-6-7/h2-6H,1H3, purity 99.5%
Compound 13: acetonitrile, C2H3N, InChI=1S/C2H3N/c1-2-3/h1H3, purity 99.5%
Compound 14: dichloromethane, CH2Cl2, InChI=1S/CH2Cl2/c2-1-3/h1H2, purity 99.5%
Compound 15: 1,2-dichlorobenzene, C6H4Cl2, InChI=1S/C6H4Cl2/c7-5-3-1-2-4-6(5)8/h1-4H, purity 99.5%
Compound 16: cyclohexanone, C6H10O, InChI=1S/C6H10O/c7-6-4-2-1-3-5-6/h1-5H2, purity 99%
Compound 17: tetrahydrofuran, C4H8O, InChI=1S/C4H8O/c1-2-4-5-3-1/h1-4H2, purity 99%
Compound 18: water, H2O, InChI=1S/H2O/h1H2, purity 99%

System: 2-azacyclotridecanone; phases: Crystal, Liquid, Air at 1 atmosphere
Property: Triple point temperature, K (Crystal); method: DSC
Triple point temperature, K	uncertainty
425.95	0.93

System: 2-azacyclotridecanone; phases: Crystal, Liquid, Air at 1 atmosphere
Property: Molar enthalpy of transition or fusion, kJ/mol (Crystal); method: DSC
Molar enthalpy of transition or fusion, kJ/mol	uncertainty
16.3	0.5

System: sodium nitrate + water; phases: Liquid, Crystal
Fixed: Pressure, kPa = 100
Property: Mole fraction of sodium nitrate (Liquid); method: gravimetric
Temperature, K	Mole fraction of sodium nitrate	uncertainty
273.15	0.134	0.005
283.15	0.145	0.006
293.15	0.157	0.006
303.15	0.169	0.007
313.15	0.18	0.007
333.15	0.208	0.008
353.15	0.239	0.01
373.15	0.276	0.011

System: 2-azacyclotridecanone + methanol; phases: Liquid, Crystal
Fixed: Pressure, kPa = 100
Property: Mole fraction of 2-azacyclotridecanone (Liquid); method: gravimetric
Temperature, K	Mole fraction of 2-azacyclotridecanone	uncertainty
273.15	0.03236	0.00324
278.15	0.03695	0.0037
283.15	0.04547	0.00455
288.15	0.05546	0.00555
293.15	0.07024	0.00703
298.15	0.0849	0.0085
303.15	0.09833	0.00984
308.15	0.1218	0.0122
313.15	0.1502	0.015
318.15	0.1782	0.0178
323.15	0.1946	0.0195

System: 2-azacyclotridecanone + ethanol; phases: Liquid, Crystal
Fixed: Pressure, kPa = 100
Property: Mole fraction of 2-azacyclotridecanone (Liquid); method: gravimetric
Temperature, K	Mole fraction of 2-azacyclotridecanone	uncertainty
273.15	0.04302	0.0043
278.15	0.04931	0.00493
283.15	0.05687	0.00569
288.15	0.07067	0.00707
293.15	0.08278	0.00828
298.15	0.09464	0.00947
303.15	0.109	0.0109
308.15	0.1262	0.0126
313.15	0.1534	0.0154
318.15	0.1821	0.0182
323.15	0.2106	0.0211

System: 2-azacyclotridecanone + propan-1-ol; phases: Liquid, Crystal
Fixed: Pressure, kPa = 100
Property: Mole fraction of 2-azacyclotridecanone (Liquid); method: gravimetric
Temperature, K	Mole fraction of 2-azacyclotridecanone	uncertainty
273.15	0.06909	0.00691
278.15	0.07721	0.00773
283.15	0.09064	0.00907
288.15	0.1017	0.0102
293.15	0.1116	0.0112
298.15	0.1256	0.0126
303.15	0.1442	0.0144
308.15	0.1648	0.0165
313.15	0.1892	0.0189
318.15	0.2158	0.0216
323.15	0.2385	0.0239

System: 2-azacyclotridecanone + propan-2-ol; phases: Liquid, Crystal
Fixed: Pressure, kPa = 100
Property: Mole fraction of 2-azacyclotridecanone (Liquid); method: gravimetric
Temperature, K	Mole fraction of 2-azacyclotridecanone	uncertainty
273.15	0.0455	0.00455
278.15	0.05225	0.00523
283.15	0.06037	0.00604
288.15	0.06808	0.00681
293.15	0.08698	0.0087
298.15	0.09339	0.00934
303.15	0.1121	0.0112
308.15	0.1204	0.012
313.15	0.1399	0.014
318.15	0.1568	0.0157
323.15	0.1841	0.0184

System: 2-azacyclotridecanone + butan-1-ol; phases: Liquid, Crystal
Fixed: Pressure, kPa = 100
Property: Mole fraction of 2-azacyclotridecanone (Liquid); method: gravimetric
Temperature, K	Mole fraction of 2-azacyclotridecanone	uncertainty
273.15	0.08217	0.00822
278.15	0.08816	0.00882
283.15	0.1012	0.0101
288.15	0.1163	0.0116
293.15	0.1332	0.0133
298.15	0.1438	0.0144
303.15	0.1731	0.0173
308.15	0.1943	0.0194
313.15	0.2157	0.0216
318.15	0.2445	0.0245
323.15	0.2641	0.0264

System: 2-azacyclotridecanone + 2-methyl-1-propanol; phases: Liquid, Crystal
Fixed: Pressure, kPa = 100
Property: Mole fraction of 2-azacyclotridecanone (Liquid); method: gravimetric
Temperature, K	Mole fraction of 2-azacyclotridecanone	uncertainty
273.15	0.05422	0.00543
278.15	0.06819	0.00683
283.15	0.08296	0.0083
288.15	0.09851	0.00986
293.15	0.1148	0.0115
298.15	0.1319	0.0132
303.15	0.1507	0.0151
308.15	0.1689	0.0169
313.15	0.1874	0.0187
318.15	0.2067	0.0207
323.15	0.2305	0.0231

System: 2-azacyclotridecanone + pentan-1-ol; phases: Liquid, Crystal
Fixed: Pressure, kPa = 100
Property: Mole fraction of 2-azacyclotridecanone (Liquid); method: gravimetric
Temperature, K	Mole fraction of 2-azacyclotridecanone	uncertainty
273.15	0.085	0.00851
278.15	0.1	0.01
283.15	0.1091	0.0109
288.15	0.1249	0.0125
293.15	0.1358	0.0136
298.15	0.1506	0.0151
303.15	0.1705	0.0171
308.15	0.1825	0.0183
313.15	0.202	0.0202
318.15	0.222	0.0222
323.15	0.2424	0.0242

System: 2-azacyclotridecanone + ethyl acetate; phases: Liquid, Crystal
Fixed: Pressure, kPa = 100
Property: Mole fraction of 2-azacyclotridecanone (Liquid); method: gravimetric
Temperature, K	Mole fraction of 2-azacyclotridecanone	uncertainty
273.15	0.007357	0.000736
278.15	0.008589	0.000859
283.15	0.009386	0.000939
288.15	0.01104	0.0011
293.15	0.01304	0.0013
298.15	0.01517	0.00152
303.15	0.01824	0.00183
308.15	0.0208	0.00208
313.15	0.02445	0.00245
318.15	0.0291	0.00291
323.15	0.03509	0.00351

System: 2-azacyclotridecanone + acetone; phases: Liquid, Crystal
Fixed: Pressure, kPa = 100
Property: Mole fraction of 2-azacyclotridecanone (Liquid); method: gravimetric
Temperature, K	Mole fraction of 2-azacyclotridecanone	uncertainty
273.15	0.00638	0.000641
278.15	0.009173	0.000919
283.15	0.0113	0.00113
288.15	0.01395	0.0014
293.15	0.0172	0.00172
298.15	0.02151	0.00215
303.15	0.02417	0.00242
308.15	0.02773	0.00277
313.15	0.03213	0.00322
318.15	0.03762	0.00376
323.15	0.04324	0.00433

System: 2-azacyclotridecanone + toluene; phases: Liquid, Crystal
Fixed: Pressure, kPa = 100
Property: Mole fraction of 2-azacyclotridecanone (Liquid); method: gravimetric
Temperature, K	Mole fraction of 2-azacyclotridecanone	uncertainty
273.15	0.01768	0.00177
278.15	0.02048	0.00205
283.15	0.02494	0.0025
288.15	0.03005	0.00301
293.15	0.03386	0.00339
298.15	0.03903	0.00391
303.15	0.04454	0.00446
308.15	0.05035	0.00504
313.15	0.05768	0.00577
318.15	0.06408	0.00641
323.15	0.0724	0.00724

System: 2-azacyclotridecanone + acetonitrile; phases: Liquid, Crystal
Fixed: Pressure, kPa = 100
Property: Mole fraction of 2-azacyclotridecanone (Liquid); method: gravimetric
Temperature, K	Mole fraction of 2-azacyclotridecanone	uncertainty
273.15	0.001565	0.000157
278.15	0.001998	0.0002
283.15	0.002359	0.000236
288.15	0.002928	0.000293
293.15	0.003673	0.000368
298.15	0.004621	0.000463
303.15	0.005899	0.000591
308.15	0.00722	0.000723
313.15	0.008799	0.000881
318.15	0.01087	0.00109
323.15	0.01334	0.00134

System: 2-azacyclotridecanone + dichloromethane; phases: Liquid, Crystal
Fixed: Pressure, kPa = 100
Property: Mole fraction of 2-azacyclotridecanone (Liquid); method: gravimetric
Temperature, K	Mole fraction of 2-azacyclotridecanone	uncertainty
273.15	0.02412	0.00241
278.15	0.02642	0.00264
283.15	0.03199	0.0032
288.15	0.04355	0.00436
293.15	0.05576	0.00558
298.15	0.07177	0.00719
303.15	0.09173	0.00918
308.15	0.1111	0.0111
313.15	0.14	0.014
318.15	0.1692	0.0169
323.15	0.2025	0.0203

System: 2-azacyclotridecanone + 1,2-dichlorobenzene; phases: Liquid, Crystal
Fixed: Pressure, kPa = 100
Property: Mole fraction of 2-azacyclotridecanone (Liquid); method: gravimetric
Temperature, K	Mole fraction of 2-azacyclotridecanone	uncertainty
273.15	0.006844	0.000685
278.15	0.008633	0.000864
283.15	0.009725	0.000974
288.15	0.01291	0.00129
293.15	0.01817	0.00182
298.15	0.02404	0.00241
303.15	0.03505	0.00351
308.15	0.0429	0.0043
313.15	0.05699	0.00571
318.15	0.07522	0.00753
323.15	0.09499	0.00951

System: 2-azacyclotridecanone + cyclohexanone; phases: Liquid, Crystal
Fixed: Pressure, kPa = 100
Property: Mole fraction of 2-azacyclotridecanone (Liquid); method: gravimetric
Temperature, K	Mole fraction of 2-azacyclotridecanone	uncertainty
273.15	0.01612	0.00161
278.15	0.01908	0.00191
283.15	0.02264	0.00227
288.15	0.02752	0.00275
293.15	0.03361	0.00336
298.15	0.0408	0.00408
303.15	0.05016	0.00502
308.15	0.06068	0.00607
313.15	0.07312	0.00732
318.15	0.08583	0.00859
323.15	0.1045	0.0105

System: 2-azacyclotridecanone + tetrahydrofuran; phases: Liquid, Crystal
Fixed: Pressure, kPa = 100
Property: Mole fraction of 2-azacyclotridecanone (Liquid); method: gravimetric
Temperature, K	Mole fraction of 2-azacyclotridecanone	uncertainty
273.15	0.02296	0.0023
278.15	0.02914	0.00292
283.15	0.03471	0.00347
288.15	0.04298	0.0043
293.15	0.05386	0.00539
298.15	0.0688	0.00689
303.15	0.08585	0.00859
308.15	0.1021	0.0102
313.15	0.1223	0.0122
318.15	0.147	0.0147
323.15	0.1763	0.0176
