Measured thermophysical data. Phase Diagram of AlCl3-FeCl3-H2O(-HCl) Salt Water System at 298.15 K and Its Application in the Crystallization of AlCl3*6H2O
Source: J. Chem. Eng. Data, 2019, 10.1021/acs.jced.9b00238
Compound 1: aluminum chloride, AlCl3, InChI=1S/Al.3ClH/h;3*1H/q+3;;;/p-3, purity 98%
Compound 2: ferric chloride, Cl3Fe, InChI=1S/3ClH.Fe/h3*1H;/q;;;+3/p-3, purity 99%
Compound 3: water, H2O, InChI=1S/H2O/h1H2, purity 99.9%
Compound 4: hydrogen chloride, ClH, InChI=1S/ClH/h1H, purity 99%

System: aluminum chloride + hydrogen chloride + water; phases: Liquid, Crystal of intercomponent compound 1
Fixed: Temperature, K = 298.15
Fixed: Pressure, kPa = 100
Property: Mass fraction of aluminum chloride (Liquid); method: spectroscopy
Solvent: Molality, mol/kg of hydrogen chloride	Mass fraction of aluminum chloride	uncertainty
0	0.312	0.006
1.27	0.3058	0.006
3.78	0.2516	0.006
5.51	0.1798	0.006
7.14	0.0936	0.006
8.68	0.0178	0.006
9.74	0.0051	0.0051
10.15	0.0013	0.0013

System: aluminum chloride + hydrogen chloride + water; phases: Liquid
Fixed: Temperature, K = 298.15
Fixed: Pressure, kPa = 100
Property: Mass density, kg/m3 (Liquid); method: Pycnometric method
Solvent: Molality, mol/kg of hydrogen chloride	Mass fraction of aluminum chloride	Mass density, kg/m3	uncertainty
1.27	0.3058	1288.6	10.1
3.78	0.2516	1244.6	10.2
9.74	0.0051	1180	10

System: ferric chloride + hydrogen chloride + water; phases: Liquid, Crystal of intercomponent compound 1
Fixed: Temperature, K = 298.15
Fixed: Pressure, kPa = 100
Property: Mass fraction of ferric chloride (Liquid); method: spectroscopy
Solvent: Amount concentration (molarity), mol/dm3 of hydrogen chloride	Mass fraction of ferric chloride	uncertainty
0	0.4893	0.0101
1.27	0.4752	0.0101
3.78	0.4846	0.0101
5.51	0.4671	0.01
7.14	0.467	0.01
8.68	0.4758	0.0101
9.74	0.4801	0.0101
10.15	0.478	0.0101

System: ferric chloride + hydrogen chloride + water; phases: Liquid
Fixed: Temperature, K = 298.15
Fixed: Pressure, kPa = 100
Property: Mass density, kg/m3 (Liquid); method: Pycnometric method
Solvent: Amount concentration (molarity), mol/dm3 of hydrogen chloride	Mass fraction of ferric chloride	Mass density, kg/m3	uncertainty
1.27	0.4752	1539.4	10.1
3.78	0.4846	1521.1	10.1
9.74	0.4801	1509.5	10.1

System: aluminum chloride + water; phases: Liquid, Crystal of intercomponent compound 1
Property: Mass fraction of aluminum chloride (Liquid); method: spectroscopy
Temperature, K	Pressure, kPa	Mass fraction of aluminum chloride	uncertainty
298.15	100	0.312	0.006

System: ferric chloride + water; phases: Liquid, Crystal of intercomponent compound 1
Property: Mass fraction of ferric chloride (Liquid); method: spectroscopy
Temperature, K	Pressure, kPa	Mass fraction of ferric chloride	uncertainty
298.15	100	0.4893	0.0101
