Measured thermophysical data. Densities, Viscosities, and Correlations for the Ternary System of Ethanol + Methylbenzene + 2-Methyl-2-propanol and Its Binary Subsystems at T = 298.15 and 318.15 K
Source: J. Chem. Eng. Data, 2016, 10.1021/acs.jced.6b00096
Compound 1: ethanol, C2H6O, InChI=1S/C2H6O/c1-2-3/h3H,2H2,1H3, purity 99.9%
Compound 2: 2-methylpropan-2-ol, C4H10O, InChI=1S/C4H10O/c1-4(2,3)5/h5H,1-3H3, purity 99%
Compound 3: toluene, C7H8, InChI=1S/C7H8/c1-7-5-3-2-4-6-7/h2-6H,1H3, purity 99.8%

System: ethanol; phases: Liquid
Fixed: Pressure, kPa = 100
Property: Mass density, kg/m3 (Liquid); method: Vibrating tube method
Temperature, K	Mass density, kg/m3	uncertainty
298.15	785.01	1.57
318.15	767.54	1.54

System: ethanol; phases: Liquid
Fixed: Pressure, kPa = 100
Property: Viscosity, Pa*s (Liquid); method: Falling or rolling sphere viscometry
Temperature, K	Viscosity, Pa*s	uncertainty
298.15	0.001084	1.3e-05
318.15	0.000752	9e-06

System: 2-methylpropan-2-ol; phases: Metastable liquid
Fixed: Pressure, kPa = 100
Property: Mass density, kg/m3 (Metastable liquid); method: Vibrating tube method
Temperature, K	Mass density, kg/m3	uncertainty
298.15	780.99	1.58
318.15	759.66	1.54

System: 2-methylpropan-2-ol; phases: Metastable liquid
Fixed: Pressure, kPa = 100
Property: Viscosity, Pa*s (Metastable liquid); method: Falling or rolling sphere viscometry
Temperature, K	Viscosity, Pa*s	uncertainty
298.15	0.004426	6e-05
318.15	0.001706	2.6e-05

System: toluene; phases: Liquid
Fixed: Pressure, kPa = 100
Property: Mass density, kg/m3 (Liquid); method: Vibrating tube method
Temperature, K	Mass density, kg/m3	uncertainty
298.15	862.01	1.73
318.15	843.51	1.69

System: toluene; phases: Liquid
Fixed: Pressure, kPa = 100
Property: Viscosity, Pa*s (Liquid); method: Falling or rolling sphere viscometry
Temperature, K	Viscosity, Pa*s	uncertainty
298.15	0.000533	7e-06
318.15	0.000447	6e-06

System: ethanol + 2-methylpropan-2-ol + toluene; phases: Liquid
Fixed: Pressure, kPa = 100
Property: Mass density, kg/m3 (Liquid); method: Vibrating tube method
Temperature, K	Mole fraction of ethanol	Mole fraction of toluene	Mass density, kg/m3	uncertainty
298.15	0.1003	0.8997	857.16	1.72
298.15	0.2002	0.7998	852.38	1.71
298.15	0.3	0.7	847.27	1.7
298.15	0.4	0.6	841.65	1.69
298.15	0.5002	0.4998	835.35	1.67
298.15	0.6001	0.3999	828.22	1.66
298.15	0.7	0.3	819.95	1.64
298.15	0.8	0.2	810.35	1.62
298.15	0.9	0.1	798.87	1.6
298.15	0.045	0	781.92	1.58
298.15	0.082	0	782.51	1.58
298.15	0.1518	0	783.11	1.58
298.15	0.287	0	783.69	1.58
298.15	0.4085	0	783.95	1.58
298.15	0.5174	0	784.15	1.57
298.15	0.6167	0	784.31	1.57
298.15	0.707	0	784.42	1.57
298.15	0.7896	0	784.55	1.57
298.15	0.8654	0	784.72	1.57
298.15	0.9355	0	784.85	1.57
298.15	0	0.0822	786.59	1.59
298.15	0	0.1678	792.96	1.6
298.15	0	0.2564	799.78	1.61
298.15	0	0.3488	807.09	1.62
298.15	0	0.4458	815	1.64
298.15	0	0.5468	823.34	1.65
298.15	0	0.6525	832.08	1.67
298.15	0	0.7621	841.26	1.69
298.15	0	0.8787	851.02	1.7
298.15	0.0886	0.7954	847.43	1.7
298.15	0.1779	0.7115	843.65	1.69
298.15	0.2686	0.6264	839.43	1.68
298.15	0.8365	0.0929	797.07	1.6
298.15	0.0776	0.6944	838.27	1.68
298.15	0.1563	0.625	835.24	1.67
298.15	0.2373	0.5537	831.77	1.67
298.15	0.3203	0.4805	827.81	1.66
298.15	0.4055	0.4055	823.21	1.65
298.15	0.4927	0.3286	817.83	1.64
298.15	0.5825	0.2496	811.59	1.63
298.15	0.6741	0.1686	804.23	1.61
298.15	0.7685	0.0854	795.23	1.59
298.15	0.0849	0.5817	829.08	1.66
298.15	0.1708	0.5115	825.87	1.66
298.15	0.2617	0.4363	822.01	1.65
298.15	0.3572	0.3573	817.32	1.64
298.15	0.4573	0.2745	811.54	1.63
298.15	0.5623	0.1879	804.48	1.61
298.15	0.6728	0.0967	795.57	1.6
298.15	0.0851	0.4811	820.43	1.65
298.15	0.1761	0.4107	817.22	1.64
298.15	0.2742	0.3348	813.14	1.63
298.15	0.3799	0.2533	807.84	1.62
298.15	0.4943	0.1648	800.91	1.61
298.15	0.6182	0.0686	791.63	1.59
298.15	0.0844	0.3847	812.32	1.63
298.15	0.1775	0.3177	809.22	1.62
298.15	0.2835	0.2411	804.79	1.62
298.15	0.4009	0.1561	798.65	1.6
298.15	0.5345	0.0597	789.94	1.59
298.15	0.0747	0.2986	804.89	1.62
298.15	0.1606	0.2409	802.21	1.61
298.15	0.259	0.1749	798.33	1.6
298.15	0.3775	0.0948	792.32	1.59
298.15	0.3599	0.5399	834.62	1.67
298.15	0.4529	0.4531	829.24	1.66
298.15	0.5471	0.3648	823.01	1.65
298.15	0.6422	0.2754	815.79	1.63
298.15	0.7387	0.1847	807.25	1.62
298.15	0.0709	0.2122	797.71	1.6
298.15	0.1573	0.1576	795.08	1.6
298.15	0.2667	0.0888	790.63	1.59
298.15	0.0643	0.1299	791.08	1.59
298.15	0.1559	0.0766	788.31	1.59
318.15	0.1004	0.8996	838.1	1.68
318.15	0.2002	0.7998	833.2	1.67
318.15	0.3003	0.6997	828.01	1.66
318.15	0.4003	0.5997	822.39	1.65
318.15	0.5	0.5	816.2	1.64
318.15	0.6001	0.3999	809.19	1.62
318.15	0.7001	0.2999	801.21	1.61
318.15	0.7996	0.2004	791.97	1.59
318.15	0.9	0.1	780.91	1.57
318.15	0.045	0	761.37	1.54
318.15	0.082	0	762.26	1.54
318.15	0.1516	0	763.35	1.54
318.15	0.2872	0	764.69	1.54
318.15	0.4083	0	765.58	1.54
318.15	0.5174	0	766.2	1.54
318.15	0.6168	0	766.59	1.54
318.15	0.7072	0	766.91	1.54
318.15	0.7896	0	767.15	1.54
318.15	0.8656	0	767.35	1.54
318.15	0.9355	0	767.46	1.54
318.15	0	0.0822	765.3	1.54
318.15	0	0.1676	771.88	1.56
318.15	0	0.2565	778.96	1.57
318.15	0	0.3491	786.64	1.58
318.15	0	0.4459	794.84	1.6
318.15	0	0.5467	803.43	1.61
318.15	0	0.6524	812.43	1.63
318.15	0	0.7627	821.89	1.65
318.15	0	0.8788	832.02	1.67
318.15	0.0887	0.7954	827.98	1.66
318.15	0.1776	0.7113	824.15	1.65
318.15	0.2682	0.6265	819.99	1.64
318.15	0.3599	0.5403	815.27	1.63
318.15	0.454	0.4513	809.86	1.62
318.15	0.5471	0.3643	803.95	1.61
318.15	0.6426	0.2752	797.02	1.6
318.15	0.7385	0.1849	788.88	1.58
318.15	0.8364	0.093	779.12	1.56
318.15	0.0771	0.6948	818.59	1.64
318.15	0.1567	0.6248	815.59	1.64
318.15	0.2376	0.5534	812.19	1.63
318.15	0.3202	0.4807	808.33	1.62
318.15	0.4057	0.4055	803.91	1.61
318.15	0.4933	0.3283	798.77	1.6
318.15	0.5824	0.2494	792.85	1.59
318.15	0.6741	0.1685	785.8	1.58
318.15	0.7684	0.0857	777.35	1.56
318.15	0.0835	0.5833	809.58	1.62
318.15	0.1707	0.5112	806.09	1.62
318.15	0.2627	0.4356	802.38	1.61
318.15	0.3573	0.3573	797.96	1.6
318.15	0.4575	0.2746	792.57	1.59
318.15	0.5627	0.1874	785.84	1.58
318.15	0.6733	0.0961	777.48	1.56
318.15	0.0852	0.4812	800.53	1.61
318.15	0.1764	0.4105	797.45	1.6
318.15	0.2742	0.3346	793.53	1.59
318.15	0.3801	0.2529	788.62	1.58
318.15	0.4941	0.1648	782.24	1.57
318.15	0.6182	0.0686	773.65	1.55
318.15	0.0846	0.3847	792.26	1.59
318.15	0.1781	0.317	789.3	1.59
318.15	0.2832	0.2412	785.31	1.58
318.15	0.4014	0.1558	779.74	1.57
318.15	0.5345	0.0594	771.84	1.55
318.15	0.0746	0.2989	784.69	1.58
318.15	0.161	0.2406	782.2	1.57
318.15	0.2601	0.1735	778.7	1.56
318.15	0.3776	0.0946	773.52	1.55
318.15	0.0708	0.2121	777.41	1.56
318.15	0.1576	0.1576	775.11	1.56
318.15	0.2665	0.0889	771.35	1.55
318.15	0.0647	0.1301	770.66	1.55
318.15	0.1554	0.0767	768.38	1.55

System: ethanol + 2-methylpropan-2-ol + toluene; phases: Liquid
Fixed: Pressure, kPa = 100
Property: Viscosity, Pa*s (Liquid); method: Falling or rolling sphere viscometry
Temperature, K	Mole fraction of ethanol	Mole fraction of toluene	Viscosity, Pa*s	uncertainty
298.15	0.1005	0.8995	0.000549	7e-06
298.15	0.2013	0.7987	0.000558	7e-06
298.15	0.3002	0.6998	0.000577	7e-06
298.15	0.4003	0.5997	0.000606	8e-06
298.15	0.5001	0.4999	0.000644	8e-06
298.15	0.6001	0.3999	0.000693	9e-06
298.15	0.7	0.3	0.000754	9e-06
298.15	0.8	0.2	0.000831	1e-05
298.15	0.9	0.1	0.000926	1.2e-05
298.15	0.045	0	0.004314	5.8e-05
298.15	0.082	0	0.004195	5.6e-05
298.15	0.1518	0	0.003939	5.2e-05
298.15	0.287	0	0.003395	4.4e-05
298.15	0.4085	0	0.00286	3.7e-05
298.15	0.5174	0	0.002384	3e-05
298.15	0.6167	0	0.002026	2.6e-05
298.15	0.707	0	0.001749	2.2e-05
298.15	0.7896	0	0.001532	1.9e-05
298.15	0.8654	0	0.001349	1.7e-05
298.15	0.9355	0	0.001205	1.5e-05
298.15	0	0.0822	0.002579	3.5e-05
298.15	0	0.1678	0.001625	2.2e-05
298.15	0	0.2564	0.001184	1.6e-05
298.15	0	0.3488	0.000991	1.3e-05
298.15	0	0.4458	0.000868	1.1e-05
298.15	0	0.5468	0.000744	9e-06
298.15	0	0.6525	0.000624	8e-06
298.15	0	0.7621	0.000562	7e-06
298.15	0	0.8787	0.000561	7e-06
298.15	0.0884	0.7959	0.000576	7e-06
298.15	0.1786	0.7103	0.000595	7e-06
298.15	0.2685	0.6266	0.000622	8e-06
298.15	0.3605	0.5403	0.000659	8e-06
298.15	0.4528	0.4526	0.000706	9e-06
298.15	0.5469	0.3649	0.000763	1e-05
298.15	0.6421	0.2754	0.000833	1e-05
298.15	0.7387	0.1846	0.00092	1.1e-05
298.15	0.8364	0.0929	0.001026	1.3e-05
298.15	0.0776	0.6944	0.000616	8e-06
298.15	0.1562	0.6252	0.000642	8e-06
298.15	0.2373	0.554	0.000678	8e-06
298.15	0.3204	0.4807	0.000723	9e-06
298.15	0.4053	0.4055	0.000778	1e-05
298.15	0.4928	0.3286	0.000845	1.1e-05
298.15	0.5825	0.2494	0.000926	1.2e-05
298.15	0.6739	0.1689	0.001023	1.3e-05
298.15	0.7685	0.0854	0.001146	1.4e-05
298.15	0.0834	0.5843	0.000682	9e-06
298.15	0.171	0.511	0.000731	9e-06
298.15	0.262	0.4359	0.000793	1e-05
298.15	0.3575	0.3571	0.000873	1.1e-05
298.15	0.4571	0.2747	0.000972	1.2e-05
298.15	0.5627	0.1873	0.001099	1.4e-05
298.15	0.6734	0.096	0.00126	1.6e-05
298.15	0.0852	0.4809	0.000777	1e-05
298.15	0.1767	0.4104	0.000852	1.1e-05
298.15	0.2739	0.335	0.000953	1.2e-05
298.15	0.3795	0.2534	0.001083	1.4e-05
298.15	0.4939	0.1648	0.001252	1.6e-05
298.15	0.6185	0.0692	0.001477	1.9e-05
298.15	0.0844	0.3849	0.000906	1.2e-05
298.15	0.1784	0.317	0.001017	1.3e-05
298.15	0.283	0.2413	0.001185	1.5e-05
298.15	0.4004	0.1563	0.001403	1.8e-05
298.15	0.5338	0.0603	0.001706	2.2e-05
298.15	0.0748	0.2987	0.001103	1.4e-05
298.15	0.1599	0.241	0.001256	1.6e-05
298.15	0.26	0.1736	0.001473	1.9e-05
298.15	0.3778	0.0942	0.00178	2.3e-05
298.15	0.0708	0.2119	0.00141	1.8e-05
298.15	0.1578	0.1574	0.001656	2.2e-05
298.15	0.2671	0.089	0.002038	2.6e-05
298.15	0.0653	0.1297	0.001936	2.6e-05
298.15	0.1545	0.078	0.002376	3.2e-05
318.15	0.1004	0.8996	0.000439	5e-06
318.15	0.2004	0.7996	0.000442	6e-06
318.15	0.2997	0.7003	0.000449	6e-06
318.15	0.4007	0.5993	0.000464	6e-06
318.15	0.5007	0.4993	0.000483	6e-06
318.15	0.5998	0.4002	0.000508	6e-06
318.15	0.6998	0.3002	0.000542	7e-06
318.15	0.7999	0.2001	0.000585	7e-06
318.15	0.8998	0.1002	0.000641	8e-06
318.15	0.045	0	0.001724	2.6e-05
318.15	0.082	0	0.001721	2.6e-05
318.15	0.1516	0	0.001692	2.5e-05
318.15	0.2872	0	0.001577	2.2e-05
318.15	0.4083	0	0.001442	2e-05
318.15	0.5174	0	0.001308	1.7e-05
318.15	0.6168	0	0.001188	1.5e-05
318.15	0.7072	0	0.001078	1.4e-05
318.15	0.7896	0	0.000983	1.2e-05
318.15	0.8656	0	0.000895	1.1e-05
318.15	0.9355	0	0.000817	1e-05
318.15	0	0.0822	0.001171	1.7e-05
318.15	0	0.1676	0.000899	1.2e-05
318.15	0	0.2565	0.000744	1e-05
318.15	0	0.3491	0.000649	9e-06
318.15	0	0.4459	0.000582	8e-06
318.15	0	0.5467	0.000528	7e-06
318.15	0	0.6524	0.000486	6e-06
318.15	0	0.7627	0.000461	6e-06
318.15	0	0.8788	0.000454	6e-06
318.15	0.0884	0.7954	0.000452	6e-06
318.15	0.1783	0.7112	0.00046	6e-06
318.15	0.2685	0.6261	0.000473	6e-06
318.15	0.3594	0.5409	0.00049	6e-06
318.15	0.4527	0.4534	0.000513	6e-06
318.15	0.5558	0.3544	0.000548	7e-06
318.15	0.6427	0.275	0.000582	7e-06
318.15	0.7384	0.1849	0.000631	8e-06
318.15	0.8358	0.0933	0.000692	9e-06
318.15	0.0782	0.6946	0.000473	6e-06
318.15	0.1571	0.6246	0.000485	6e-06
318.15	0.2368	0.5538	0.000501	6e-06
318.15	0.32	0.4806	0.000523	7e-06
318.15	0.4055	0.4057	0.00055	7e-06
318.15	0.4924	0.3288	0.000585	7e-06
318.15	0.5827	0.2496	0.000628	8e-06
318.15	0.674	0.169	0.000683	9e-06
318.15	0.7685	0.0853	0.000753	1e-05
318.15	0.0836	0.5835	0.000504	6e-06
318.15	0.1703	0.5116	0.000526	7e-06
318.15	0.262	0.4361	0.000555	7e-06
318.15	0.3569	0.3574	0.000594	8e-06
318.15	0.4571	0.2745	0.000644	8e-06
318.15	0.563	0.1872	0.000712	9e-06
318.15	0.6731	0.0962	0.0008	1e-05
318.15	0.0854	0.4857	0.000546	7e-06
318.15	0.1765	0.4108	0.000581	7e-06
318.15	0.2742	0.3347	0.000628	8e-06
318.15	0.38	0.2532	0.000691	9e-06
318.15	0.491	0.1662	0.000777	1e-05
318.15	0.6186	0.0688	0.0009	1.2e-05
318.15	0.0841	0.3853	0.000609	8e-06
318.15	0.1782	0.3169	0.00066	9e-06
318.15	0.2829	0.2414	0.000733	1e-05
318.15	0.4016	0.1558	0.000838	1.1e-05
318.15	0.5344	0.0594	0.000993	1.3e-05
318.15	0.0746	0.2989	0.00069	9e-06
318.15	0.1598	0.2411	0.000756	1e-05
318.15	0.2605	0.1735	0.000852	1.1e-05
318.15	0.3778	0.0942	0.000998	1.3e-05
318.15	0.0707	0.2109	0.000815	1.1e-05
318.15	0.1575	0.1572	0.000913	1.2e-05
318.15	0.2666	0.0888	0.001072	1.5e-05
318.15	0.0648	0.1301	0.000996	1.4e-05
318.15	0.157	0.0788	0.00115	1.6e-05

System: ethanol + toluene; phases: Liquid
Fixed: Pressure, kPa = 100
Property: Mass density, kg/m3 (Liquid); method: Vibrating tube method
Temperature, K	Mole fraction of ethanol	Mass density, kg/m3	uncertainty
298.15	0.1003	857.16	1.72
298.15	0.2002	852.38	1.71
298.15	0.3	847.27	1.7
298.15	0.4	841.65	1.69
298.15	0.5002	835.35	1.67
298.15	0.6001	828.22	1.66
298.15	0.7	819.95	1.64
298.15	0.8	810.35	1.62
298.15	0.9	798.87	1.6
318.15	0.1004	838.1	1.68
318.15	0.2002	833.2	1.67
318.15	0.3003	828.01	1.66
318.15	0.4003	822.39	1.65
318.15	0.5	816.2	1.64
318.15	0.6001	809.19	1.62
318.15	0.7001	801.21	1.61
318.15	0.7996	791.97	1.59
318.15	0.9	780.91	1.57

System: ethanol + toluene; phases: Liquid
Fixed: Pressure, kPa = 100
Property: Viscosity, Pa*s (Liquid); method: Falling or rolling sphere viscometry
Temperature, K	Mole fraction of ethanol	Viscosity, Pa*s	uncertainty
298.15	0.1005	0.000549	7e-06
298.15	0.2013	0.000558	7e-06
298.15	0.3002	0.000577	7e-06
298.15	0.4003	0.000606	8e-06
298.15	0.5001	0.000644	8e-06
298.15	0.6001	0.000693	9e-06
298.15	0.7	0.000754	9e-06
298.15	0.8	0.000831	1e-05
298.15	0.9	0.000926	1.1e-05
318.15	0.1004	0.000439	5e-06
318.15	0.2004	0.000442	6e-06
318.15	0.2997	0.000449	6e-06
318.15	0.4007	0.000464	6e-06
318.15	0.5007	0.000483	6e-06
318.15	0.5998	0.000508	6e-06
318.15	0.6998	0.000542	7e-06
318.15	0.7999	0.000585	7e-06
318.15	0.8998	0.000641	8e-06

System: ethanol + 2-methylpropan-2-ol; phases: Liquid
Fixed: Pressure, kPa = 100
Property: Mass density, kg/m3 (Liquid); method: Vibrating tube method
Temperature, K	Mole fraction of ethanol	Mass density, kg/m3	uncertainty
298.15	0.045	781.92	1.58
298.15	0.082	782.51	1.58
298.15	0.1518	783.11	1.58
298.15	0.287	783.69	1.58
298.15	0.4085	783.95	1.58
298.15	0.5174	784.15	1.57
298.15	0.6167	784.31	1.57
298.15	0.707	784.42	1.57
298.15	0.7896	784.55	1.57
298.15	0.8654	784.72	1.57
298.15	0.9355	784.85	1.57
318.15	0.045	761.37	1.54
318.15	0.082	762.26	1.54
318.15	0.1516	763.35	1.54
318.15	0.2872	764.69	1.54
318.15	0.4083	765.58	1.54
318.15	0.5174	766.2	1.54
318.15	0.6168	766.59	1.54
318.15	0.7072	766.91	1.54
318.15	0.7896	767.15	1.54
318.15	0.8656	767.35	1.54
318.15	0.9355	767.46	1.54

System: ethanol + 2-methylpropan-2-ol; phases: Liquid
Fixed: Pressure, kPa = 100
Property: Viscosity, Pa*s (Liquid); method: Falling or rolling sphere viscometry
Temperature, K	Mole fraction of ethanol	Viscosity, Pa*s	uncertainty
298.15	0.045	0.004314	5.8e-05
298.15	0.082	0.004195	5.6e-05
298.15	0.1518	0.003939	5.2e-05
298.15	0.287	0.003395	4.4e-05
298.15	0.4085	0.00286	3.7e-05
298.15	0.5174	0.002384	3e-05
298.15	0.6167	0.002026	2.6e-05
298.15	0.707	0.001749	2.2e-05
298.15	0.7896	0.001532	1.9e-05
298.15	0.8654	0.001349	1.7e-05
298.15	0.9355	0.001205	1.5e-05
318.15	0.045	0.001724	2.6e-05
318.15	0.082	0.001721	2.6e-05
318.15	0.1516	0.001692	2.5e-05
318.15	0.2872	0.001577	2.2e-05
318.15	0.4083	0.001442	2e-05
318.15	0.5174	0.001308	1.7e-05
318.15	0.6168	0.001188	1.5e-05
318.15	0.7072	0.001078	1.4e-05
318.15	0.7896	0.000983	1.2e-05
318.15	0.8656	0.000895	1.1e-05
318.15	0.9355	0.000817	1e-05

System: 2-methylpropan-2-ol + toluene; phases: Liquid
Fixed: Pressure, kPa = 100
Property: Mass density, kg/m3 (Liquid); method: Vibrating tube method
Temperature, K	Mole fraction of toluene	Mass density, kg/m3	uncertainty
298.15	0.0822	786.59	1.59
298.15	0.1678	792.96	1.6
298.15	0.2564	799.78	1.61
298.15	0.3488	807.09	1.62
298.15	0.4458	815	1.64
298.15	0.5468	823.34	1.65
298.15	0.6525	832.08	1.67
298.15	0.7621	841.26	1.69
298.15	0.8787	851.02	1.7
318.15	0.0822	765.3	1.54
318.15	0.1676	771.88	1.56
318.15	0.2565	778.96	1.57
318.15	0.3491	786.64	1.58
318.15	0.4459	794.84	1.6
318.15	0.5467	803.43	1.61
318.15	0.6524	812.43	1.63
318.15	0.7627	821.89	1.65
318.15	0.8788	832.02	1.67

System: 2-methylpropan-2-ol + toluene; phases: Liquid
Fixed: Pressure, kPa = 100
Property: Viscosity, Pa*s (Liquid); method: Falling or rolling sphere viscometry
Temperature, K	Mole fraction of toluene	Viscosity, Pa*s	uncertainty
298.15	0.0822	0.002579	3.5e-05
298.15	0.1678	0.001625	2.2e-05
298.15	0.2564	0.001184	1.6e-05
298.15	0.3488	0.000991	1.3e-05
298.15	0.4458	0.000868	1.1e-05
298.15	0.5468	0.000744	9e-06
298.15	0.6525	0.000624	8e-06
298.15	0.7621	0.000562	7e-06
298.15	0.8787	0.000561	7e-06
318.15	0.0822	0.001171	1.7e-05
318.15	0.1676	0.000899	1.2e-05
318.15	0.2565	0.000744	1e-05
318.15	0.3491	0.000649	9e-06
318.15	0.4459	0.000582	8e-06
318.15	0.5467	0.000528	7e-06
318.15	0.6524	0.000486	6e-06
318.15	0.7627	0.000461	6e-06
318.15	0.8788	0.000454	6e-06
