Measured thermophysical data. Standard Volumetric Properties of Tetra-N-ethylglycoluril (Bicaret) in Ordinary and Heavy Water at Temperatures from (278.15 to 318.15) K and Ambient Pressure
Source: J. Chem. Eng. Data, 2015, 10.1021/acs.jced.5b00154
Compound 1: bicaret, C12H22N4O2, InChI=1S/C12H22N4O2/c1-5-13-9-10(15(7-3)11(13)17)16(8-4)12(18)14(9)6-2/h9-10H,5-8H2,1-4H3, purity 98%
Compound 2: water, H2O, InChI=1S/H2O/h1H2
Compound 3: water-d2, D2O, InChI=1S/H2O/h1H2/i/hD2, purity 99.9%

System: bicaret; phases: Crystal, Liquid, Air at 1 atmosphere
Property: Normal melting temperature, K (Crystal); method: DTA
Normal melting temperature, K	uncertainty
388.2	1.1

System: water-d2; phases: Liquid
Fixed: Pressure, kPa = 101.325
Property: Mass density, kg/m3 (Liquid); method: Vibrating tube method
Temperature, K	Mass density, kg/m3	uncertainty
278.15	1105.526	0.08
288.15	1105.771	0.08
298.15	1104.364	0.079
308.15	1101.634	0.079
318.15	1097.843	0.078

System: water-d2 + bicaret; phases: Liquid
Fixed: Pressure, kPa = 99.6
Property: Mass density, kg/m3 (Liquid); method: Vibrating tube method
Temperature, K	Molality, mol/kg of bicaret	Mass density, kg/m3	uncertainty
278.15	0.022463	1105.814	0.076
278.15	0.026754	1105.871	0.076
278.15	0.041437	1106.063	0.076
278.15	0.058624	1106.297	0.076
278.15	0.072017	1106.481	0.077
278.15	0.08847	1106.715	0.077
278.15	0.10106	1106.891	0.077
278.15	0.10538	1106.963	0.077
278.15	0.11894	1107.159	0.077
278.15	0.13781	1107.441	0.078
278.15	0.15649	1107.73	0.078
278.15	0.1664	1107.884	0.078
288.15	0.022463	1105.993	0.157
288.15	0.026754	1106.04	0.079
288.15	0.041437	1106.185	0.076
288.15	0.058624	1106.373	0.076
288.15	0.072017	1106.519	0.077
288.15	0.08847	1106.705	0.076
288.15	0.10106	1106.847	0.076
288.15	0.10538	1106.904	0.081
288.15	0.11894	1107.06	0.077
288.15	0.13781	1107.291	0.077
288.15	0.15649	1107.522	0.076
288.15	0.1664	1107.647	0.086
298.15	0.022463	1104.537	0.133
298.15	0.026754	1104.573	0.077
298.15	0.041437	1104.688	0.075
298.15	0.058624	1104.835	0.075
298.15	0.072017	1104.947	0.076
298.15	0.08847	1105.099	0.075
298.15	0.10106	1105.215	0.075
298.15	0.10538	1105.259	0.078
298.15	0.11894	1105.384	0.076
298.15	0.13781	1105.573	0.076
298.15	0.15649	1105.759	0.076
298.15	0.1664	1105.859	0.082
308.15	0.022463	1101.767	0.115
308.15	0.026754	1101.798	0.075
308.15	0.041437	1101.884	0.074
308.15	0.058624	1101.999	0.074
308.15	0.072017	1102.087	0.074
308.15	0.08847	1102.205	0.074
308.15	0.10106	1102.291	0.074
308.15	0.10538	1102.331	0.076
308.15	0.11894	1102.429	0.075
308.15	0.13781	1102.582	0.075
308.15	0.15649	1102.726	0.075
308.15	0.1664	1102.805	0.079
318.15	0.022463	1097.944	0.072
318.15	0.026754	1097.967	0.072
318.15	0.041437	1098.032	0.072
318.15	0.058624	1098.121	0.073
318.15	0.072017	1098.187	0.073
318.15	0.08847	1098.281	0.073
318.15	0.10106	1098.353	0.073
318.15	0.10538	1098.381	0.073
318.15	0.11894	1098.457	0.073
318.15	0.13781	1098.573	0.073
318.15	0.15649	1098.693	0.073
318.15	0.1664	1098.758	0.074
278.15	0	1105.526	0.076
288.15	0	1105.771	0.082
298.15	0	1104.364	0.079
308.15	0	1101.634	0.077
318.15	0	1097.843	0.072

System: water + bicaret; phases: Liquid
Fixed: Pressure, kPa = 99.6
Property: Mass density, kg/m3 (Liquid); method: Vibrating tube method
Temperature, K	Molality, mol/kg of bicaret	Mass density, kg/m3	uncertainty
278.15	0	999.965	0.052
278.15	0.022869	1000.826	0.052
278.15	0.036761	1001.347	0.052
278.15	0.048679	1001.791	0.053
278.15	0.065917	1002.443	0.053
278.15	0.081661	1003.034	0.053
278.15	0.09935	1003.705	0.053
278.15	0.11587	1004.327	0.055
278.15	0.11965	1004.476	0.054
278.15	0.12735	1004.767	0.053
278.15	0.14301	1005.352	0.054
278.15	0.15833	1005.942	0.054
278.15	0.17525	1006.574	0.054
288.15	0	999.101	0.064
288.15	0.022869	999.914	0.049
288.15	0.036761	1000.412	0.05
288.15	0.048679	1000.829	0.053
288.15	0.065917	1001.447	0.051
288.15	0.081661	1002.012	0.052
288.15	0.09935	1002.636	0.051
288.15	0.11587	1003.233	0.144
288.15	0.11965	1003.371	0.061
288.15	0.12735	1003.637	0.056
288.15	0.14301	1004.202	0.052
288.15	0.15833	1004.754	0.053
288.15	0.17525	1005.356	0.041
298.15	0	997.047	0.061
298.15	0.022869	997.822	0.049
298.15	0.036761	998.292	0.049
298.15	0.048679	998.695	0.052
298.15	0.065917	999.282	0.05
298.15	0.081661	999.814	0.05
298.15	0.09935	1000.415	0.05
298.15	0.11587	1000.978	0.123
298.15	0.11965	1001.112	0.057
298.15	0.12735	1001.36	0.054
298.15	0.14301	1001.894	0.051
298.15	0.15833	1002.415	0.051
298.15	0.17525	1003	0.041
308.15	0	994.035	0.059
308.15	0.022869	994.779	0.049
308.15	0.036761	995.227	0.049
308.15	0.048679	995.612	0.051
308.15	0.065917	996.17	0.05
308.15	0.081661	996.686	0.05
308.15	0.09935	997.256	0.05
308.15	0.11587	997.794	0.107
308.15	0.11965	997.915	0.056
308.15	0.12735	998.165	0.053
308.15	0.14301	998.675	0.05
308.15	0.15833	999.166	0.05
308.15	0.17525	999.719	0.041
318.15	0	990.216	0.051
318.15	0.022869	990.931	0.05
318.15	0.036761	991.363	0.05
318.15	0.048679	991.738	0.05
318.15	0.065917	992.273	0.05
318.15	0.081661	992.767	0.05
318.15	0.09935	993.315	0.05
318.15	0.11587	993.833	0.049
318.15	0.11965	993.947	0.05
318.15	0.12735	994.195	0.05
318.15	0.14301	994.673	0.05
318.15	0.15833	995.157	0.05
318.15	0.17525	995.68	0.05
