Measured thermophysical data. Excess Molar Volume and Viscosity Deviation of [C2mim][NTf2]/[C4mim][NTf2] + DMC/DEC
Source: J. Chem. Eng. Data, 2018, 10.1021/acs.jced.8b00591
Compound 1: dimethyl carbonate, C3H6O3, InChI=1S/C3H6O3/c1-5-3(4)6-2/h1-2H3, purity 99%
Compound 2: diethyl carbonate, C5H10O3, InChI=1S/C5H10O3/c1-3-7-5(6)8-4-2/h3-4H2,1-2H3, purity 99%
Compound 3: 1-ethyl-3-methylimidazolium bis((trifluoromethyl)sulfonyl)imide, C8H11F6N3O4S2, InChI=1S/C6H11N2.C2F6NO4S2/c1-3-8-5-4-7(2)6-8;3-1(4,5)14(10,11)9-15(12,13)2(6,7)8/h4-6H,3H2,1-2H3;/q+1;-1, purity 99%
Compound 4: 1-butyl-3-methylimidazolium bis(trifluoromethylsulfonyl)imide, C10H15F6N3O4S2, InChI=1S/C8H15N2.C2F6NO4S2/c1-3-4-5-10-7-6-9(2)8-10;3-1(4,5)14(10,11)9-15(12,13)2(6,7)8/h6-8H,3-5H2,1-2H3;/q+1;-1, purity 99%

System: dimethyl carbonate; phases: Liquid
Fixed: Pressure, kPa = 101.3
Property: Mass density, kg/m3 (Liquid); method: Vibrating tube method
Temperature, K	Mass density, kg/m3	uncertainty
288.15	1076.39	2.6
293.15	1069.86	2.58
298.15	1063.27	2.57
303.15	1056.65	2.55
308.15	1050	2.54
313.15	1043.29	2.52
318.15	1036.57	2.5
323.15	1029.83	2.49
328.15	1023.03	2.47

System: dimethyl carbonate; phases: Liquid
Fixed: Pressure, kPa = 101.3
Property: Viscosity, Pa*s (Liquid); method: Falling or rolling sphere viscometry
Temperature, K	Viscosity, Pa*s	uncertainty
288.15	0.000669	1.5e-05
293.15	0.000626	1.4e-05
298.15	0.000587	1.3e-05
303.15	0.000552	1.2e-05
308.15	0.00052	1.1e-05
313.15	0.000498	1.1e-05
318.15	0.000472	1e-05
323.15	0.00045	1e-05
328.15	0.000429	9e-06

System: diethyl carbonate; phases: Liquid
Fixed: Pressure, kPa = 101.3
Property: Mass density, kg/m3 (Liquid); method: Vibrating tube method
Temperature, K	Mass density, kg/m3	uncertainty
288.15	980.49	2.37
293.15	974.91	2.35
298.15	969.3	2.34
303.15	963.66	2.32
308.15	958	2.31
313.15	952.32	2.3
318.15	946.6	2.28
323.15	940.86	2.27
328.15	935.08	2.26

System: diethyl carbonate; phases: Liquid
Fixed: Pressure, kPa = 101.3
Property: Viscosity, Pa*s (Liquid); method: Falling or rolling sphere viscometry
Temperature, K	Viscosity, Pa*s	uncertainty
288.15	0.000871	1.9e-05
293.15	0.000812	1.8e-05
298.15	0.000757	1.7e-05
303.15	0.000708	1.5e-05
308.15	0.000664	1.5e-05
313.15	0.000625	1.4e-05
318.15	0.000589	1.3e-05
323.15	0.000556	1.2e-05
328.15	0.000525	1.1e-05

System: 1-ethyl-3-methylimidazolium bis((trifluoromethyl)sulfonyl)imide; phases: Liquid
Fixed: Pressure, kPa = 101.3
Property: Mass density, kg/m3 (Liquid); method: Vibrating tube method
Temperature, K	Mass density, kg/m3	uncertainty
288.15	1528.55	3.73
293.15	1523.47	3.71
298.15	1518.39	3.7
303.15	1513.34	3.69
308.15	1508.3	3.67
313.15	1503.28	3.66
318.15	1498.27	3.65
323.15	1493.28	3.64
328.15	1488.31	3.62

System: 1-ethyl-3-methylimidazolium bis((trifluoromethyl)sulfonyl)imide; phases: Liquid
Fixed: Pressure, kPa = 101.3
Property: Viscosity, Pa*s (Liquid); method: Falling or rolling sphere viscometry
Temperature, K	Viscosity, Pa*s	uncertainty
288.15	0.04941	0.00109
293.15	0.04036	0.00089
298.15	0.03352	0.00074
303.15	0.02835	0.00062
308.15	0.02415	0.00053
313.15	0.02076	0.00046
318.15	0.0179	0.00039
323.15	0.01593	0.00035
328.15	0.01426	0.00031

System: 1-butyl-3-methylimidazolium bis(trifluoromethylsulfonyl)imide; phases: Liquid
Fixed: Pressure, kPa = 101.3
Property: Mass density, kg/m3 (Liquid); method: Vibrating tube method
Temperature, K	Mass density, kg/m3	uncertainty
288.15	1445.66	3.52
293.15	1440.84	3.5
298.15	1436.01	3.49
303.15	1431.21	3.48
308.15	1426.43	3.47
313.15	1421.66	3.46
318.15	1416.91	3.44
323.15	1412.17	3.43
328.15	1407.45	3.42

System: 1-butyl-3-methylimidazolium bis(trifluoromethylsulfonyl)imide; phases: Liquid
Fixed: Pressure, kPa = 101.3
Property: Viscosity, Pa*s (Liquid); method: Falling or rolling sphere viscometry
Temperature, K	Viscosity, Pa*s	uncertainty
288.15	0.07802	0.00196
293.15	0.06132	0.00135
298.15	0.04893	0.00109
303.15	0.03984	0.00088
308.15	0.03291	0.00073
313.15	0.02756	0.00061
318.15	0.02333	0.00051
323.15	0.01997	0.00044
328.15	0.01741	0.00038

System: 1-ethyl-3-methylimidazolium bis((trifluoromethyl)sulfonyl)imide + dimethyl carbonate; phases: Liquid
Fixed: Pressure, kPa = 101.3
Property: Mass density, kg/m3 (Liquid); method: Vibrating tube method
Temperature, K	Mole fraction of 1-ethyl-3-methylimidazolium bis((trifluoromethyl)sulfonyl)imide	Mass density, kg/m3	uncertainty
288.15	0	1076.39	2.6
288.15	0.0989	1199.15	2.93
288.15	0.1983	1282.85	3.12
288.15	0.2973	1342.57	3.26
288.15	0.3958	1387.69	3.37
288.15	0.496	1423.97	3.46
288.15	0.5954	1452.55	3.53
288.15	0.6967	1476.87	3.6
288.15	0.7982	1497.52	3.65
288.15	0.9004	1514.5	3.69
288.15	1	1528.55	3.73
293.15	0	1069.86	2.58
293.15	0.0989	1193.1	2.92
293.15	0.1983	1277.11	3.11
293.15	0.2973	1337.02	3.25
293.15	0.3958	1382.28	3.36
293.15	0.496	1418.62	3.45
293.15	0.5954	1447.28	3.52
293.15	0.6967	1471.62	3.58
293.15	0.7982	1492.37	3.63
293.15	0.9004	1509.39	3.68
293.15	1	1523.47	3.71
298.15	0	1063.27	2.57
298.15	0.0989	1187.03	2.9
298.15	0.1983	1271.35	3.1
298.15	0.2973	1331.47	3.24
298.15	0.3958	1376.85	3.35
298.15	0.496	1413.28	3.44
298.15	0.5954	1442.02	3.51
298.15	0.6967	1466.42	3.57
298.15	0.7982	1487.23	3.62
298.15	0.9004	1504.28	3.66
298.15	1	1518.39	3.7
303.15	0	1056.65	2.55
303.15	0.0989	1180.95	2.89
303.15	0.1983	1265.59	3.08
303.15	0.2973	1325.91	3.22
303.15	0.3958	1371.44	3.34
303.15	0.496	1407.96	3.42
303.15	0.5954	1436.78	3.5
303.15	0.6967	1461.24	3.56
303.15	0.7982	1482.09	3.61
303.15	0.9004	1499.19	3.65
303.15	1	1513.34	3.69
308.15	0	1050	2.54
308.15	0.0989	1174.86	2.87
308.15	0.1983	1259.83	3.07
308.15	0.2973	1320.35	3.21
308.15	0.3958	1366.03	3.32
308.15	0.496	1402.66	3.41
308.15	0.5954	1431.55	3.48
308.15	0.6967	1456.07	3.54
308.15	0.7982	1476.98	3.6
308.15	0.9004	1494.12	3.64
308.15	1	1508.3	3.67
313.15	0	1043.29	2.52
313.15	0.0989	1168.75	2.86
313.15	0.1983	1254.07	3.05
313.15	0.2973	1314.81	3.2
313.15	0.3958	1360.63	3.31
313.15	0.496	1397.36	3.4
313.15	0.5954	1426.34	3.47
313.15	0.6967	1450.93	3.53
313.15	0.7982	1471.88	3.58
313.15	0.9004	1489.06	3.63
313.15	1	1503.28	3.66
318.15	0	1036.57	2.5
318.15	0.0989	1162.63	2.84
318.15	0.1983	1248.3	3.04
318.15	0.2973	1309.26	3.18
318.15	0.3958	1355.23	3.29
318.15	0.496	1392.08	3.39
318.15	0.5954	1421.14	3.46
318.15	0.6967	1445.79	3.52
318.15	0.7982	1466.8	3.57
318.15	0.9004	1484.02	3.61
318.15	1	1498.27	3.65
323.15	0	1029.83	2.49
323.15	0.0989	1156.5	2.83
323.15	0.1983	1242.54	3.02
323.15	0.2973	1303.72	3.17
323.15	0.3958	1349.85	3.28
323.15	0.496	1386.81	3.37
323.15	0.5954	1415.92	3.44
323.15	0.6967	1440.67	3.51
323.15	0.7982	1461.74	3.56
323.15	0.9004	1479	3.6
323.15	1	1493.28	3.64
328.15	0	1023.03	2.47
328.15	0.0989	1150.34	2.84
328.15	0.1983	1236.76	3.02
328.15	0.2973	1298.19	3.16
328.15	0.3958	1344.47	3.27
328.15	0.496	1381.55	3.36
328.15	0.5954	1410.75	3.43
328.15	0.6967	1435.57	3.49
328.15	0.7982	1456.69	3.55
328.15	0.9004	1474	3.59
328.15	1	1488.31	3.62

System: 1-ethyl-3-methylimidazolium bis((trifluoromethyl)sulfonyl)imide + dimethyl carbonate; phases: Liquid
Fixed: Pressure, kPa = 101.3
Property: Viscosity, Pa*s (Liquid); method: Falling or rolling sphere viscometry
Temperature, K	Mole fraction of 1-ethyl-3-methylimidazolium bis((trifluoromethyl)sulfonyl)imide	Viscosity, Pa*s	uncertainty
288.15	0	0.000669	1.5e-05
288.15	0.0989	0.001579	3.5e-05
288.15	0.1983	0.002913	6.5e-05
288.15	0.2973	0.004862	0.000108
288.15	0.3958	0.007561	0.000167
288.15	0.496	0.01121	0.00025
288.15	0.5954	0.01689	0.00037
288.15	0.6967	0.02256	0.0005
288.15	0.7982	0.03007	0.00066
288.15	0.9004	0.03855	0.00085
288.15	1	0.04941	0.00109
293.15	0	0.000626	1.4e-05
293.15	0.0989	0.001451	3.2e-05
293.15	0.1983	0.002637	5.8e-05
293.15	0.2973	0.004332	9.5e-05
293.15	0.3958	0.006635	0.000146
293.15	0.496	0.009698	0.000214
293.15	0.5954	0.01458	0.00032
293.15	0.6967	0.01902	0.00042
293.15	0.7982	0.02512	0.00056
293.15	0.9004	0.03187	0.00071
293.15	1	0.04036	0.00089
298.15	0	0.000587	1.3e-05
298.15	0.0989	0.001348	3e-05
298.15	0.1983	0.0024	5.3e-05
298.15	0.2973	0.003884	8.5e-05
298.15	0.3958	0.005878	0.000129
298.15	0.496	0.008484	0.000187
298.15	0.5954	0.01253	0.00028
298.15	0.6967	0.01666	0.00037
298.15	0.7982	0.02125	0.00047
298.15	0.9004	0.02671	0.00059
298.15	1	0.03352	0.00074
303.15	0	0.000552	1.2e-05
303.15	0.0989	0.00125	2.8e-05
303.15	0.1983	0.002195	4.8e-05
303.15	0.2973	0.003507	7.7e-05
303.15	0.3958	0.005241	0.000115
303.15	0.496	0.007472	0.000164
303.15	0.5954	0.0108	0.00024
303.15	0.6967	0.01452	0.00032
303.15	0.7982	0.01837	0.0004
303.15	0.9004	0.02266	0.0005
303.15	1	0.02835	0.00062
308.15	0	0.00052	1.1e-05
308.15	0.0989	0.001162	2.6e-05
308.15	0.1983	0.002019	4.4e-05
308.15	0.2973	0.003177	7e-05
308.15	0.3958	0.004706	0.000103
308.15	0.496	0.00664	0.000146
308.15	0.5954	0.009382	0.000207
308.15	0.6967	0.01262	0.00028
308.15	0.7982	0.01622	0.00036
308.15	0.9004	0.01942	0.00043
308.15	1	0.02415	0.00053
313.15	0	0.000498	1.1e-05
313.15	0.0989	0.001086	2.4e-05
313.15	0.1983	0.001865	4.1e-05
313.15	0.2973	0.002904	6.4e-05
313.15	0.3958	0.004247	9.3e-05
313.15	0.496	0.005946	0.00013
313.15	0.5954	0.008189	0.00018
313.15	0.6967	0.01096	0.00024
313.15	0.7982	0.01422	0.00031
313.15	0.9004	0.01721	0.00038
313.15	1	0.02076	0.00046
318.15	0	0.000472	1e-05
318.15	0.0989	0.001016	2.2e-05
318.15	0.1983	0.001729	3.8e-05
318.15	0.2973	0.002661	5.8e-05
318.15	0.3958	0.003831	8.4e-05
318.15	0.496	0.005358	0.000118
318.15	0.5954	0.007249	0.000159
318.15	0.6967	0.009578	0.000211
318.15	0.7982	0.01243	0.00027
318.15	0.9004	0.01516	0.00033
318.15	1	0.0179	0.00039
323.15	0	0.00045	1e-05
323.15	0.0989	0.000954	2.1e-05
323.15	0.1983	0.001608	3.5e-05
323.15	0.2973	0.002452	5.4e-05
323.15	0.3958	0.003512	7.7e-05
323.15	0.496	0.004857	0.000106
323.15	0.5954	0.006332	0.000139
323.15	0.6967	0.008381	0.000184
323.15	0.7982	0.0109	0.00024
323.15	0.9004	0.01329	0.00029
323.15	1	0.01593	0.00035
328.15	0	0.000429	9e-06
328.15	0.0989	0.000898	2e-05
328.15	0.1983	0.001501	3.3e-05
328.15	0.2973	0.002268	5e-05
328.15	0.3958	0.003224	7.1e-05
328.15	0.496	0.004421	9.7e-05
328.15	0.5954	0.005588	0.000122
328.15	0.6967	0.007456	0.000164
328.15	0.7982	0.00961	0.000211
328.15	0.9004	0.01168	0.00026
328.15	1	0.01426	0.00031

System: 1-ethyl-3-methylimidazolium bis((trifluoromethyl)sulfonyl)imide + diethyl carbonate; phases: Liquid
Fixed: Pressure, kPa = 101.3
Property: Mass density, kg/m3 (Liquid); method: Vibrating tube method
Temperature, K	Mole fraction of 1-ethyl-3-methylimidazolium bis((trifluoromethyl)sulfonyl)imide	Mass density, kg/m3	uncertainty
288.15	0	980.49	2.37
288.15	0.0991	1090.45	2.66
288.15	0.1982	1179.3	2.87
288.15	0.3024	1254.64	3.05
288.15	0.3979	1312.21	3.19
288.15	0.4982	1362.22	3.31
288.15	0.5963	1404.91	3.42
288.15	0.6992	1442.62	3.51
288.15	0.7987	1475.05	3.59
288.15	0.9	1503.75	3.66
288.15	1	1528.55	3.73
293.15	0	974.91	2.35
293.15	0.0991	1085.01	2.65
293.15	0.1982	1173.95	2.86
293.15	0.3024	1249.39	3.04
293.15	0.3979	1306.99	3.18
293.15	0.4982	1357.04	3.3
293.15	0.5963	1399.78	3.41
293.15	0.6992	1437.5	3.5
293.15	0.7987	1469.95	3.58
293.15	0.9	1498.66	3.65
293.15	1	1523.47	3.71
298.15	0	969.3	2.34
298.15	0.0991	1079.54	2.64
298.15	0.1982	1168.6	2.85
298.15	0.3024	1244.11	3.03
298.15	0.3979	1301.78	3.16
298.15	0.4982	1351.87	3.29
298.15	0.5963	1394.64	3.39
298.15	0.6992	1432.38	3.49
298.15	0.7987	1464.86	3.57
298.15	0.9	1493.58	3.64
298.15	1	1518.39	3.7
303.15	0	963.66	2.32
303.15	0.0991	1074.07	2.62
303.15	0.1982	1163.23	2.83
303.15	0.3024	1238.83	3.01
303.15	0.3979	1296.56	3.15
303.15	0.4982	1346.7	3.27
303.15	0.5963	1389.51	3.38
303.15	0.6992	1427.28	3.47
303.15	0.7987	1459.77	3.55
303.15	0.9	1488.51	3.63
303.15	1	1513.34	3.69
308.15	0	958	2.31
308.15	0.0991	1068.56	2.61
308.15	0.1982	1157.86	2.82
308.15	0.3024	1233.56	3
308.15	0.3979	1291.36	3.14
308.15	0.4982	1341.55	3.26
308.15	0.5963	1384.4	3.37
308.15	0.6992	1422.19	3.46
308.15	0.7987	1454.71	3.54
308.15	0.9	1483.46	3.61
308.15	1	1508.3	3.67
313.15	0	952.32	2.3
313.15	0.0991	1063.05	2.6
313.15	0.1982	1152.48	2.81
313.15	0.3024	1228.28	2.99
313.15	0.3979	1286.15	3.13
313.15	0.4982	1336.41	3.25
313.15	0.5963	1379.3	3.35
313.15	0.6992	1417.12	3.45
313.15	0.7987	1449.66	3.53
313.15	0.9	1478.42	3.6
313.15	1	1503.28	3.66
318.15	0	946.6	2.28
318.15	0.0991	1057.53	2.58
318.15	0.1982	1147.11	2.79
318.15	0.3024	1223.01	2.97
318.15	0.3979	1280.95	3.11
318.15	0.4982	1331.27	3.24
318.15	0.5963	1374.2	3.34
318.15	0.6992	1412.06	3.44
318.15	0.7987	1444.62	3.52
318.15	0.9	1473.41	3.59
318.15	1	1498.27	3.65
323.15	0	940.86	2.27
323.15	0.0991	1051.98	2.57
323.15	0.1982	1141.72	2.78
323.15	0.3024	1217.74	2.96
323.15	0.3979	1275.76	3.1
323.15	0.4982	1326.13	3.22
323.15	0.5963	1369.11	3.33
323.15	0.6992	1407.01	3.42
323.15	0.7987	1439.6	3.5
323.15	0.9	1468.41	3.58
323.15	1	1493.28	3.64
328.15	0	935.08	2.26
328.15	0.0991	1046.42	2.57
328.15	0.1982	1136.32	2.77
328.15	0.3024	1212.46	2.95
328.15	0.3979	1270.58	3.09
328.15	0.4982	1321.01	3.21
328.15	0.5963	1364.03	3.32
328.15	0.6992	1401.98	3.41
328.15	0.7987	1434.59	3.49
328.15	0.9	1463.42	3.56
328.15	1	1488.31	3.62

System: 1-ethyl-3-methylimidazolium bis((trifluoromethyl)sulfonyl)imide + diethyl carbonate; phases: Liquid
Fixed: Pressure, kPa = 101.3
Property: Viscosity, Pa*s (Liquid); method: Falling or rolling sphere viscometry
Temperature, K	Mole fraction of 1-ethyl-3-methylimidazolium bis((trifluoromethyl)sulfonyl)imide	Viscosity, Pa*s	uncertainty
288.15	0	0.000871	1.9e-05
288.15	0.0991	0.001938	4.3e-05
288.15	0.1982	0.003368	7.5e-05
288.15	0.3024	0.005628	0.000125
288.15	0.3979	0.008533	0.000188
288.15	0.4982	0.01238	0.00027
288.15	0.5963	0.01723	0.00038
288.15	0.6992	0.02414	0.00053
288.15	0.7987	0.03113	0.00069
288.15	0.9	0.03907	0.00087
288.15	1	0.04941	0.00109
293.15	0	0.000812	1.8e-05
293.15	0.0991	0.001769	3.9e-05
293.15	0.1982	0.003032	6.7e-05
293.15	0.3024	0.004987	0.00011
293.15	0.3979	0.00745	0.000164
293.15	0.4982	0.01066	0.00023
293.15	0.5963	0.01465	0.00032
293.15	0.6992	0.02032	0.00045
293.15	0.7987	0.02596	0.00057
293.15	0.9	0.03229	0.00071
293.15	1	0.04036	0.00089
298.15	0	0.000757	1.7e-05
298.15	0.0991	0.001623	3.6e-05
298.15	0.1982	0.002746	6e-05
298.15	0.3024	0.004452	9.8e-05
298.15	0.3979	0.006552	0.000144
298.15	0.4982	0.009269	0.000204
298.15	0.5963	0.01259	0.00028
298.15	0.6992	0.01765	0.00039
298.15	0.7987	0.02191	0.00048
298.15	0.9	0.02704	0.0006
298.15	1	0.03352	0.00074
303.15	0	0.000708	1.5e-05
303.15	0.0991	0.001495	3.3e-05
303.15	0.1982	0.002498	5.5e-05
303.15	0.3024	0.003992	8.8e-05
303.15	0.3979	0.005819	0.000128
303.15	0.4982	0.008127	0.000179
303.15	0.5963	0.01093	0.00024
303.15	0.6992	0.01541	0.00034
303.15	0.7987	0.01879	0.00041
303.15	0.9	0.02293	0.00051
303.15	1	0.02835	0.00062
308.15	0	0.000664	1.5e-05
308.15	0.0991	0.001389	3.1e-05
308.15	0.1982	0.002288	5e-05
308.15	0.3024	0.003607	7.9e-05
308.15	0.3979	0.005196	0.000114
308.15	0.4982	0.007192	0.000158
308.15	0.5963	0.009572	0.00021
308.15	0.6992	0.01337	0.00029
308.15	0.7987	0.01659	0.00036
308.15	0.9	0.01965	0.00043
308.15	1	0.02415	0.00053
313.15	0	0.000625	1.4e-05
313.15	0.0991	0.00129	2.8e-05
313.15	0.1982	0.002102	4.6e-05
313.15	0.3024	0.003278	7.2e-05
313.15	0.3979	0.004672	0.000103
313.15	0.4982	0.00641	0.000141
313.15	0.5963	0.008445	0.000186
313.15	0.6992	0.0116	0.00026
313.15	0.7987	0.01456	0.00032
313.15	0.9	0.01736	0.00038
313.15	1	0.02076	0.00046
318.15	0	0.000589	1.3e-05
318.15	0.0991	0.001204	2.6e-05
318.15	0.1982	0.001939	4.3e-05
318.15	0.3024	0.002993	6.6e-05
318.15	0.3979	0.004223	9.3e-05
318.15	0.4982	0.005749	0.000126
318.15	0.5963	0.007525	0.000165
318.15	0.6992	0.01014	0.00022
318.15	0.7987	0.01272	0.00028
318.15	0.9	0.01535	0.00034
318.15	1	0.0179	0.00039
323.15	0	0.000556	1.2e-05
323.15	0.0991	0.001121	2.5e-05
323.15	0.1982	0.001794	3.9e-05
323.15	0.3024	0.002746	6e-05
323.15	0.3979	0.003839	8.4e-05
323.15	0.4982	0.005184	0.000114
323.15	0.5963	0.006739	0.000148
323.15	0.6992	0.008895	0.000195
323.15	0.7987	0.01115	0.00025
323.15	0.9	0.01353	0.0003
323.15	1	0.01593	0.00035
328.15	0	0.000525	1.1e-05
328.15	0.0991	0.001049	2.3e-05
328.15	0.1982	0.001667	3.6e-05
328.15	0.3024	0.002528	5.5e-05
328.15	0.3979	0.003509	7.7e-05
328.15	0.4982	0.004704	0.000103
328.15	0.5963	0.006075	0.000133
328.15	0.6992	0.007875	0.000173
328.15	0.7987	0.009813	0.000216
328.15	0.9	0.01193	0.00026
328.15	1	0.01426	0.00031

System: 1-butyl-3-methylimidazolium bis(trifluoromethylsulfonyl)imide + dimethyl carbonate; phases: Liquid
Fixed: Pressure, kPa = 101.3
Property: Mass density, kg/m3 (Liquid); method: Vibrating tube method
Temperature, K	Mole fraction of 1-butyl-3-methylimidazolium bis(trifluoromethylsulfonyl)imide	Mass density, kg/m3	uncertainty
288.15	0	1076.39	2.6
288.15	0.0898	1178.03	2.87
288.15	0.1882	1250.71	3.04
288.15	0.2749	1295.36	3.14
288.15	0.3754	1334.26	3.24
288.15	0.472	1362.15	3.31
288.15	0.5745	1385.8	3.37
288.15	0.673	1404.16	3.41
288.15	0.7799	1419.88	3.45
288.15	0.8948	1434.65	3.49
288.15	1	1445.66	3.52
293.15	0	1069.86	2.58
293.15	0.0898	1172.07	2.86
293.15	0.1882	1245.1	3.03
293.15	0.2749	1289.95	3.13
293.15	0.3754	1329.02	3.23
293.15	0.472	1357.02	3.3
293.15	0.5745	1380.77	3.36
293.15	0.673	1399.14	3.4
293.15	0.7799	1414.97	3.44
293.15	0.8948	1429.79	3.48
293.15	1	1440.84	3.5
298.15	0	1063.27	2.57
298.15	0.0898	1166.07	2.85
298.15	0.1882	1239.48	3.01
298.15	0.2749	1284.55	3.12
298.15	0.3754	1323.78	3.21
298.15	0.472	1351.9	3.28
298.15	0.5745	1375.74	3.34
298.15	0.673	1394.18	3.39
298.15	0.7799	1410.07	3.43
298.15	0.8948	1424.93	3.46
298.15	1	1436.01	3.49
303.15	0	1056.65	2.55
303.15	0.0898	1160.05	2.83
303.15	0.1882	1233.85	3
303.15	0.2749	1279.14	3.11
303.15	0.3754	1318.55	3.2
303.15	0.472	1346.78	3.27
303.15	0.5745	1370.71	3.33
303.15	0.673	1389.23	3.38
303.15	0.7799	1405.18	3.42
303.15	0.8948	1420.08	3.45
303.15	1	1431.21	3.48
308.15	0	1050	2.54
308.15	0.0898	1154.02	2.82
308.15	0.1882	1228.22	2.99
308.15	0.2749	1273.73	3.09
308.15	0.3754	1313.32	3.19
308.15	0.472	1341.67	3.26
308.15	0.5745	1365.7	3.32
308.15	0.673	1384.29	3.36
308.15	0.7799	1400.31	3.4
308.15	0.8948	1415.26	3.44
308.15	1	1426.43	3.47
313.15	0	1043.29	2.52
313.15	0.0898	1147.98	2.8
313.15	0.1882	1222.58	2.97
313.15	0.2749	1268.32	3.08
313.15	0.3754	1308.09	3.18
313.15	0.472	1336.58	3.25
313.15	0.5745	1360.7	3.31
313.15	0.673	1379.37	3.35
313.15	0.7799	1395.44	3.39
313.15	0.8948	1410.45	3.43
313.15	1	1421.66	3.46
318.15	0	1036.57	2.5
318.15	0.0898	1141.93	2.79
318.15	0.1882	1216.94	2.96
318.15	0.2749	1262.92	3.07
318.15	0.3754	1302.88	3.16
318.15	0.472	1331.49	3.23
318.15	0.5745	1355.71	3.29
318.15	0.673	1374.45	3.34
318.15	0.7799	1390.59	3.38
318.15	0.8948	1405.67	3.42
318.15	1	1416.91	3.44
323.15	0	1029.83	2.49
323.15	0.0898	1135.85	2.77
323.15	0.1882	1211.3	2.94
323.15	0.2749	1257.51	3.05
323.15	0.3754	1297.67	3.15
323.15	0.472	1326.4	3.22
323.15	0.5745	1350.73	3.28
323.15	0.673	1369.55	3.33
323.15	0.7799	1385.74	3.37
323.15	0.8948	1400.88	3.4
323.15	1	1412.17	3.43
328.15	0	1023.03	2.47
328.15	0.0898	1129.76	2.78
328.15	0.1882	1205.65	2.94
328.15	0.2749	1252.1	3.04
328.15	0.3754	1292.46	3.14
328.15	0.472	1321.33	3.21
328.15	0.5745	1345.75	3.27
328.15	0.673	1364.66	3.32
328.15	0.7799	1380.9	3.36
328.15	0.8948	1396.12	3.39
328.15	1	1407.45	3.42

System: 1-butyl-3-methylimidazolium bis(trifluoromethylsulfonyl)imide + dimethyl carbonate; phases: Liquid
Fixed: Pressure, kPa = 101.3
Property: Viscosity, Pa*s (Liquid); method: Falling or rolling sphere viscometry
Temperature, K	Mole fraction of 1-butyl-3-methylimidazolium bis(trifluoromethylsulfonyl)imide	Viscosity, Pa*s	uncertainty
288.15	0	0.000669	1.5e-05
288.15	0.0898	0.001605	3.6e-05
288.15	0.1882	0.003207	7.1e-05
288.15	0.2749	0.005396	0.00012
288.15	0.3754	0.009186	0.000204
288.15	0.472	0.0143	0.00032
288.15	0.5745	0.02253	0.0005
288.15	0.673	0.03206	0.00071
288.15	0.7799	0.04452	0.00099
288.15	0.8948	0.06153	0.00135
288.15	1	0.07802	0.00196
293.15	0	0.000626	1.4e-05
293.15	0.0898	0.001473	3.3e-05
293.15	0.1882	0.002886	6.4e-05
293.15	0.2749	0.004762	0.000105
293.15	0.3754	0.00793	0.000175
293.15	0.472	0.01212	0.00027
293.15	0.5745	0.01887	0.00042
293.15	0.673	0.0263	0.00058
293.15	0.7799	0.03581	0.0008
293.15	0.8948	0.04874	0.00109
293.15	1	0.06132	0.00135
298.15	0	0.000587	1.3e-05
298.15	0.0898	0.001365	3e-05
298.15	0.1882	0.002611	5.7e-05
298.15	0.2749	0.004235	9.3e-05
298.15	0.3754	0.006922	0.000153
298.15	0.472	0.01039	0.00023
298.15	0.5745	0.0163	0.00036
298.15	0.673	0.02186	0.00048
298.15	0.7799	0.02938	0.00065
298.15	0.8948	0.03946	0.00088
298.15	1	0.04893	0.00109
303.15	0	0.000552	1.2e-05
303.15	0.0898	0.001263	2.8e-05
303.15	0.1882	0.002376	5.2e-05
303.15	0.2749	0.003797	8.4e-05
303.15	0.3754	0.0061	0.000134
303.15	0.472	0.008998	0.000198
303.15	0.5745	0.014	0.00031
303.15	0.673	0.01859	0.00041
303.15	0.7799	0.02446	0.00054
303.15	0.8948	0.03286	0.00073
303.15	1	0.03984	0.00088
308.15	0	0.00052	1.1e-05
308.15	0.0898	0.001173	2.6e-05
308.15	0.1882	0.002176	4.8e-05
308.15	0.2749	0.003428	7.5e-05
308.15	0.3754	0.005404	0.000119
308.15	0.472	0.007885	0.000174
308.15	0.5745	0.01198	0.00026
308.15	0.673	0.01617	0.00036
308.15	0.7799	0.02058	0.00045
308.15	0.8948	0.02773	0.00061
308.15	1	0.03291	0.00073
313.15	0	0.000498	1.1e-05
313.15	0.0898	0.001095	2.4e-05
313.15	0.1882	0.002002	4.4e-05
313.15	0.2749	0.003113	6.8e-05
313.15	0.3754	0.004822	0.000106
313.15	0.472	0.006959	0.000153
313.15	0.5745	0.0103	0.00023
313.15	0.673	0.01401	0.00031
313.15	0.7799	0.01754	0.00039
313.15	0.8948	0.02358	0.00052
313.15	1	0.02756	0.00061
318.15	0	0.000472	1e-05
318.15	0.0898	0.001022	2.3e-05
318.15	0.1882	0.001849	4.1e-05
318.15	0.2749	0.002837	6.2e-05
318.15	0.3754	0.004332	9.5e-05
318.15	0.472	0.006189	0.000136
318.15	0.5745	0.008913	0.000196
318.15	0.673	0.0121	0.00027
318.15	0.7799	0.0152	0.00033
318.15	0.8948	0.01993	0.00044
318.15	1	0.02333	0.00051
323.15	0	0.00045	1e-05
323.15	0.0898	0.000958	2.1e-05
323.15	0.1882	0.001719	3.8e-05
323.15	0.2749	0.0026	5.7e-05
323.15	0.3754	0.003943	8.6e-05
323.15	0.472	0.00554	0.000122
323.15	0.5745	0.007757	0.000171
323.15	0.673	0.01053	0.00023
323.15	0.7799	0.01321	0.00029
323.15	0.8948	0.01701	0.00037
323.15	1	0.01997	0.00044
328.15	0	0.000429	9e-06
328.15	0.0898	0.000899	2e-05
328.15	0.1882	0.001588	3.5e-05
328.15	0.2749	0.002394	5.2e-05
328.15	0.3754	0.00359	7.9e-05
328.15	0.472	0.004994	0.000109
328.15	0.5745	0.006772	0.000149
328.15	0.673	0.009191	0.000203
328.15	0.7799	0.01154	0.00025
328.15	0.8948	0.01493	0.00033
328.15	1	0.01741	0.00038

System: 1-butyl-3-methylimidazolium bis(trifluoromethylsulfonyl)imide + diethyl carbonate; phases: Liquid
Fixed: Pressure, kPa = 101.3
Property: Mass density, kg/m3 (Liquid); method: Vibrating tube method
Temperature, K	Mole fraction of 1-butyl-3-methylimidazolium bis(trifluoromethylsulfonyl)imide	Mass density, kg/m3	uncertainty
288.15	0	980.49	2.37
288.15	0.1025	1086.84	2.65
288.15	0.2198	1177.9	2.86
288.15	0.3178	1236.57	3
288.15	0.4211	1285.86	3.12
288.15	0.5268	1327.09	3.22
288.15	0.622	1358.33	3.3
288.15	0.7193	1385.68	3.37
288.15	0.8139	1408.25	3.42
288.15	0.9088	1428.49	3.47
288.15	1	1445.66	3.52
293.15	0	974.91	2.35
293.15	0.1025	1081.45	2.64
293.15	0.2198	1172.7	2.85
293.15	0.3178	1231.47	2.99
293.15	0.4211	1280.83	3.11
293.15	0.5268	1322.13	3.21
293.15	0.622	1353.42	3.29
293.15	0.7193	1380.79	3.36
293.15	0.8139	1403.38	3.41
293.15	0.9088	1423.65	3.46
293.15	1	1440.84	3.5
298.15	0	969.3	2.34
298.15	0.1025	1076.05	2.62
298.15	0.2198	1167.48	2.84
298.15	0.3178	1226.35	2.98
298.15	0.4211	1275.8	3.1
298.15	0.5268	1317.16	3.2
298.15	0.622	1348.49	3.28
298.15	0.7193	1375.9	3.34
298.15	0.8139	1398.52	3.4
298.15	0.9088	1418.81	3.45
298.15	1	1436.01	3.49
303.15	0	963.66	2.32
303.15	0.1025	1070.65	2.61
303.15	0.2198	1162.26	2.82
303.15	0.3178	1221.23	2.96
303.15	0.4211	1270.77	3.08
303.15	0.5268	1312.2	3.19
303.15	0.622	1343.58	3.26
303.15	0.7193	1371.04	3.33
303.15	0.8139	1393.68	3.39
303.15	0.9088	1413.97	3.44
303.15	1	1431.21	3.48
308.15	0	958	2.31
308.15	0.1025	1065.23	2.6
308.15	0.2198	1157.03	2.81
308.15	0.3178	1216.12	2.95
308.15	0.4211	1265.74	3.07
308.15	0.5268	1307.25	3.17
308.15	0.622	1338.67	3.25
308.15	0.7193	1366.17	3.32
308.15	0.8139	1388.84	3.38
308.15	0.9088	1409.18	3.43
308.15	1	1426.43	3.47
313.15	0	952.32	2.3
313.15	0.1025	1059.8	2.58
313.15	0.2198	1151.8	2.8
313.15	0.3178	1210.99	2.94
313.15	0.4211	1260.71	3.06
313.15	0.5268	1302.3	3.16
313.15	0.622	1333.78	3.24
313.15	0.7193	1361.32	3.31
313.15	0.8139	1384.01	3.36
313.15	0.9088	1404.39	3.41
313.15	1	1421.66	3.46
318.15	0	946.6	2.28
318.15	0.1025	1054.35	2.57
318.15	0.2198	1146.57	2.79
318.15	0.3178	1205.88	2.93
318.15	0.4211	1255.69	3.05
318.15	0.5268	1297.36	3.15
318.15	0.622	1328.9	3.23
318.15	0.7193	1356.48	3.29
318.15	0.8139	1379.19	3.35
318.15	0.9088	1399.6	3.4
318.15	1	1416.91	3.44
323.15	0	940.86	2.27
323.15	0.1025	1048.88	2.56
323.15	0.2198	1141.33	2.77
323.15	0.3178	1200.77	2.91
323.15	0.4211	1250.68	3.03
323.15	0.5268	1292.44	3.14
323.15	0.622	1324.02	3.21
323.15	0.7193	1351.66	3.28
323.15	0.8139	1374.39	3.34
323.15	0.9088	1394.85	3.39
323.15	1	1412.17	3.43
328.15	0	935.08	2.26
328.15	0.1025	1043.4	2.56
328.15	0.2198	1136.07	2.77
328.15	0.3178	1195.65	2.91
328.15	0.4211	1245.68	3.03
328.15	0.5268	1287.5	3.13
328.15	0.622	1319.16	3.2
328.15	0.7193	1346.84	3.27
328.15	0.8139	1369.58	3.33
328.15	0.9088	1390.1	3.38
328.15	1	1407.45	3.42

System: 1-butyl-3-methylimidazolium bis(trifluoromethylsulfonyl)imide + diethyl carbonate; phases: Liquid
Fixed: Pressure, kPa = 101.3
Property: Viscosity, Pa*s (Liquid); method: Falling or rolling sphere viscometry
Temperature, K	Mole fraction of 1-butyl-3-methylimidazolium bis(trifluoromethylsulfonyl)imide	Viscosity, Pa*s	uncertainty
288.15	0	0.000871	1.9e-05
288.15	0.1025	0.00212	4.8e-05
288.15	0.2198	0.004415	9.9e-05
288.15	0.3178	0.007583	0.00017
288.15	0.4211	0.01326	0.00029
288.15	0.5268	0.02012	0.00045
288.15	0.622	0.02836	0.00063
288.15	0.7193	0.03893	0.00086
288.15	0.8139	0.05088	0.00107
288.15	0.9088	0.06494	0.00146
288.15	1	0.07802	0.00196
293.15	0	0.000812	1.8e-05
293.15	0.1025	0.001928	4.3e-05
293.15	0.2198	0.003925	8.6e-05
293.15	0.3178	0.006526	0.000144
293.15	0.4211	0.01118	0.00025
293.15	0.5268	0.01725	0.00038
293.15	0.622	0.02342	0.00052
293.15	0.7193	0.03168	0.0007
293.15	0.8139	0.04079	0.00091
293.15	0.9088	0.05144	0.00109
293.15	1	0.06132	0.00135
298.15	0	0.000757	1.7e-05
298.15	0.1025	0.001764	3.9e-05
298.15	0.2198	0.003517	7.7e-05
298.15	0.3178	0.005739	0.000126
298.15	0.4211	0.009492	0.00021
298.15	0.5268	0.01477	0.00033
298.15	0.622	0.01958	0.00043
298.15	0.7193	0.02616	0.00058
298.15	0.8139	0.03325	0.00074
298.15	0.9088	0.04143	0.00092
298.15	1	0.04893	0.00109
303.15	0	0.000708	1.5e-05
303.15	0.1025	0.001618	3.6e-05
303.15	0.2198	0.003168	7e-05
303.15	0.3178	0.005085	0.000112
303.15	0.4211	0.008179	0.00018
303.15	0.5268	0.0126	0.00028
303.15	0.622	0.01703	0.00037
303.15	0.7193	0.02188	0.00048
303.15	0.8139	0.02757	0.00061
303.15	0.9088	0.03406	0.00075
303.15	1	0.03984	0.00088
308.15	0	0.000664	1.5e-05
308.15	0.1025	0.001492	3.3e-05
308.15	0.2198	0.002873	6.3e-05
308.15	0.3178	0.004539	0.0001
308.15	0.4211	0.007219	0.000159
308.15	0.5268	0.01076	0.00024
308.15	0.622	0.01469	0.00032
308.15	0.7193	0.0187	0.00041
308.15	0.8139	0.0232	0.00051
308.15	0.9088	0.02832	0.00063
308.15	1	0.03291	0.00073
313.15	0	0.000625	1.4e-05
313.15	0.1025	0.001385	3.1e-05
313.15	0.2198	0.002614	5.7e-05
313.15	0.3178	0.003977	8.8e-05
313.15	0.4211	0.006414	0.000141
313.15	0.5268	0.009287	0.000205
313.15	0.622	0.01263	0.00028
313.15	0.7193	0.01635	0.00036
313.15	0.8139	0.01964	0.00043
313.15	0.9088	0.02369	0.00052
313.15	1	0.02756	0.00061
318.15	0	0.000589	1.3e-05
318.15	0.1025	0.001286	2.8e-05
318.15	0.2198	0.002391	5.2e-05
318.15	0.3178	0.003591	7.9e-05
318.15	0.4211	0.005815	0.000128
318.15	0.5268	0.008069	0.000178
318.15	0.622	0.01092	0.00024
318.15	0.7193	0.01418	0.00031
318.15	0.8139	0.01689	0.00037
318.15	0.9088	0.02005	0.00044
318.15	1	0.02333	0.00051
323.15	0	0.000556	1.2e-05
323.15	0.1025	0.001198	2.6e-05
323.15	0.2198	0.002194	4.8e-05
323.15	0.3178	0.003259	7.2e-05
323.15	0.4211	0.005216	0.000114
323.15	0.5268	0.007105	0.000156
323.15	0.622	0.009492	0.000209
323.15	0.7193	0.01228	0.00027
323.15	0.8139	0.0146	0.00032
323.15	0.9088	0.01726	0.00038
323.15	1	0.01997	0.00044
328.15	0	0.000525	1.1e-05
328.15	0.1025	0.001117	2.5e-05
328.15	0.2198	0.002025	4.4e-05
328.15	0.3178	0.002978	6.5e-05
328.15	0.4211	0.00471	0.000104
328.15	0.5268	0.006138	0.000135
328.15	0.622	0.008288	0.000182
328.15	0.7193	0.01066	0.00024
328.15	0.8139	0.01269	0.00028
328.15	0.9088	0.015	0.00033
328.15	1	0.01741	0.00038
