Measured thermophysical data. Vapor-Liquid Equilibrium for Binary of 1-Butanol + N,N-Dimethylacetamide and Methyl Isobutyl Ketone + N,N-Dimethylacetamide at 101.3 kPa
Source: J. Chem. Eng. Data, 2019, 10.1021/acs.jced.9b00535
Compound 1: butan-1-ol, C4H10O, InChI=1S/C4H10O/c1-2-3-4-5/h5H,2-4H2,1H3, purity 99.5%
Compound 2: 4-methylpentan-2-one, C6H12O, InChI=1S/C6H12O/c1-5(2)4-6(3)7/h5H,4H2,1-3H3, purity 99%
Compound 3: N,N-dimethylethanamide, C4H9NO, InChI=1S/C4H9NO/c1-4(6)5(2)3/h1-3H3, purity 99.5%

System: butan-1-ol; phases: Liquid, Gas
Property: Vapor or sublimation pressure, kPa (Liquid); method: Ebulliometric method (Recirculating still)
Temperature, K	Vapor or sublimation pressure, kPa	uncertainty
390.75	101.3	3

System: 4-methylpentan-2-one; phases: Liquid, Gas
Property: Vapor or sublimation pressure, kPa (Liquid); method: Ebulliometric method (Recirculating still)
Temperature, K	Vapor or sublimation pressure, kPa	uncertainty
389.15	101.3	3

System: N,N-dimethylethanamide; phases: Liquid, Gas
Property: Vapor or sublimation pressure, kPa (Liquid); method: Ebulliometric method (Recirculating still)
Temperature, K	Vapor or sublimation pressure, kPa	uncertainty
439.15	101.3	3

System: butan-1-ol + N,N-dimethylethanamide; phases: Liquid, Gas
Fixed: Pressure, kPa = 101.3
Property: Boiling temperature at pressure P, K (Liquid); method: Ebulliometric method (Recirculating still)
Mole fraction of butan-1-ol	Boiling temperature at pressure P, K	uncertainty
1	390.75	0.61
0.9976	390.96	0.61
0.987	391.14	0.61
0.9782	391.27	0.61
0.959	391.51	0.61
0.95	391.71	0.61
0.9351	391.95	0.61
0.91	392.34	0.61
0.8622	393.46	0.61
0.7396	396.87	0.61
0.5952	401.04	0.61
0.5065	403.1	0.61
0.4275	405.97	0.61
0.2791	413.08	0.61
0.1547	421.27	0.61
0.1116	424.55	0.61
0.0719	428.14	0.61
0.0452	431.49	0.62
0.0301	433.24	0.62
0.01	436.59	0.63
0.0031	438.2	0.66
0	439.15	0.61

System: butan-1-ol + N,N-dimethylethanamide; phases: Gas, Liquid
Fixed: Pressure, kPa = 101.3
Property: Mole fraction of butan-1-ol (Gas); method: Chromatography
Mole fraction of butan-1-ol	Mole fraction of butan-1-ol	uncertainty
1	1	
0.9976	0.9985	0.0012
0.987	0.9931	0.0011
0.9782	0.9888	0.0011
0.959	0.981	0.0011
0.95	0.9779	0.0011
0.9351	0.973	0.0011
0.91	0.9647	0.0011
0.8622	0.9524	0.0012
0.7396	0.9208	0.0013
0.5952	0.8751	0.0017
0.5065	0.8412	0.002
0.4275	0.8023	0.0023
0.2791	0.6954	0.0034
0.1547	0.5318	0.005
0.1116	0.4423	0.005
0.0719	0.3332	0.0044
0.0452	0.2421	0.0044
0.0301	0.1758	0.0053
0.01	0.0676	0.0057
0.0031	0.0221	0.0068
0	0	

System: 4-methylpentan-2-one + N,N-dimethylethanamide; phases: Liquid, Gas
Fixed: Pressure, kPa = 101.3
Property: Boiling temperature at pressure P, K (Liquid); method: Ebulliometric method (Recirculating still)
Mole fraction of 4-methylpentan-2-one	Boiling temperature at pressure P, K	uncertainty
1	389.15	0.61
0.9372	391.3	0.61
0.9076	392.14	0.61
0.7846	395.85	0.61
0.5204	404.6	0.61
0.3902	410.4	0.61
0.3581	412	0.61
0.2998	415.1	0.61
0.2684	416.93	0.61
0.251	417.97	0.61
0.2299	419.43	0.61
0.1599	424.5	0.61
0.094	429.95	0.61
0.074	431.86	0.61
0.052	433.94	0.61
0.042	434.85	0.61
0.028	436.45	0.62

System: 4-methylpentan-2-one + N,N-dimethylethanamide; phases: Gas, Liquid
Fixed: Pressure, kPa = 101.3
Property: Mole fraction of 4-methylpentan-2-one (Gas); method: Chromatography
Mole fraction of 4-methylpentan-2-one	Mole fraction of 4-methylpentan-2-one	uncertainty
1	1	
0.9372	0.9837	0.0011
0.9076	0.9753	0.0011
0.7846	0.936	0.0015
0.5204	0.8131	0.0028
0.3902	0.7229	0.0038
0.3581	0.6956	0.0041
0.2998	0.6385	0.0046
0.2684	0.6027	0.0049
0.251	0.581	0.0051
0.2299	0.5527	0.0053
0.1599	0.4391	0.005
0.094	0.2948	0.0037
0.074	0.2418	0.0036
0.052	0.1779	0.0035
0.042	0.1469	0.0036
0.028	0.1011	0.0035
