Measured thermophysical data. Liquid-Liquid Equilibria for the Ternary System Mesityl Oxide + Phenol + Water at 298.15, 313.15, and 323.15 K
Source: J. Chem. Eng. Data, 2016, 10.1021/acs.jced.6b00186
Compound 1: 4-methyl-3-penten-2-one, C6H10O, InChI=1S/C6H10O/c1-5(2)4-6(3)7/h4H,1-3H3, purity 98%
Compound 2: phenol, C6H6O, InChI=1S/C6H6O/c7-6-4-2-1-3-5-6/h1-5,7H, purity 99.5%
Compound 3: water, H2O, InChI=1S/H2O/h1H2, purity 99.8%

System: phenol + 4-methyl-3-penten-2-one + water; phases: Liquid mixture 2, Liquid mixture 1
Fixed: Pressure, kPa = 100
Property: Mass fraction of phenol (Liquid mixture 2); method: Chromatography
Property: Mass fraction of phenol (Liquid mixture 1); method: Chromatography
Property: Mass fraction of 4-methyl-3-penten-2-one (Liquid mixture 1); method: Chromatography
Temperature, K	Mass fraction of 4-methyl-3-penten-2-one	Mass fraction of phenol	uncertainty	Mass fraction of phenol	uncertainty	Mass fraction of 4-methyl-3-penten-2-one	uncertainty
298.15	0.0118	0.00608	0.00038	0.3167	0.0043	0.6325	
313.15	0.0098	0.00771	0.00038	0.3195	0.0043	0.6256	
313.15	0.0109	0.00682	0.00038	0.2993	0.0043	0.6474	
313.15	0.0137	0.0045	0.00038	0.2444	0.0042	0.7051	
313.15	0.0161	0.00251	0.00038	0.154	0.0039	0.7968	
313.15	0.018	0.00123	0.00038	0.0932	0.0037	0.8591	
313.15	0.0189	0.00081	0.00038	0.0641	0.0036	0.8906	
313.15	0.0194	0.00064	0.00038	0.0538	0.0036	0.9013	
313.15	0.0206	0.00029	0.00029	0.0263	0.0036	0.93	
313.15	0.0216	0		0		0.958	
323.15	0.0074	0.00877	0.00039	0.3221	0.0045	0.6207	
298.15	0.0138	0.00453	0.00038	0.2692	0.0042	0.6834	
323.15	0.0098	0.00674	0.00038	0.2598	0.0042	0.6842	
323.15	0.0121	0.00473	0.00038	0.1995	0.004	0.7464	
323.15	0.0148	0.00247	0.00038	0.1263	0.0038	0.8207	
323.15	0.0162	0.00143	0.00038	0.0822	0.0036	0.8674	
323.15	0.017	0.00098	0.00038	0.0626	0.0037	0.8885	
323.15	0.0179	0.00051	0.00038	0.0364	0.0037	0.9155	
323.15	0.0182	0.00035	0.00035	0.0264	0.0036	0.9256	
323.15	0.0196	0		0		0.9545	
298.15	0.0168	0.00307	0.00038	0.1943	0.004	0.7594	
298.15	0.0191	0.00157	0.00038	0.1276	0.0038	0.8275	
298.15	0.0203	0.00112	0.00038	0.0953	0.0037	0.8616	
298.15	0.0217	0.00068	0.00038	0.0626	0.0037	0.895	
298.15	0.0224	0.00053	0.00038	0.0505	0.0036	0.9083	
298.15	0.0237	0.00023	0.00023	0.0245	0.0036	0.9359	
298.15	0.0255	0		0		0.9622	

System: 4-methyl-3-penten-2-one + water; phases: Liquid mixture 2, Liquid mixture 1
Fixed: Pressure, kPa = 100
Property: Mass fraction of 4-methyl-3-penten-2-one (Liquid mixture 2); method: Chromatography
Temperature, K	Mass fraction of 4-methyl-3-penten-2-one	uncertainty
313.15	0.0216	0.0038
323.15	0.0196	0.0038
298.15	0.0255	0.0038

System: 4-methyl-3-penten-2-one + water; phases: Liquid mixture 1, Liquid mixture 2
Fixed: Pressure, kPa = 100
Property: Mass fraction of 4-methyl-3-penten-2-one (Liquid mixture 1); method: Chromatography
Temperature, K	Mass fraction of 4-methyl-3-penten-2-one	uncertainty
313.15	0.958	0.0038
323.15	0.9545	0.0038
298.15	0.9622	0.0038
