Measured thermophysical data. Studies of the Effect of Urea on PEG-4000 Polymer-Water Interactions at 298.15 K
Source: J. Chem. Eng. Data, 2019, 10.1021/acs.jced.8b01121
Compound 1: urea, CH4N2O, InChI=1S/CH4N2O/c2-1(3)4/h(H4,2,3,4)
Compound 2: water, H2O, InChI=1S/H2O/h1H2, purity 99.9%

System: urea + water; phases: Liquid
Fixed: Pressure, kPa = 100
Fixed: Temperature, K = 298.15
Property: (Relative) activity of water (Liquid); method: Knauer vapor pressure osmometer
Molality, mol/kg of urea	(Relative) activity of water	uncertainty
0	1	0.0387
0.114	0.9979	0.0387
0.19362	0.9965	0.0387
0.28479	0.9949	0.0387
0.39658	0.9929	0.0387
0.50814	0.991	0.0387
0.60506	0.9894	0.0387
0.6864	0.988	0.0387
0.8137	0.9859	0.0387
0.8799	0.9848	0.0387
1.03192	0.9824	0.0387
