Measured thermophysical data. Isobaric Vapor-Liquid Equilibrium for the Binary System of Dimethyl Adipate and 1,6-Hexanediol at 10, 20, and 99 kPa
Source: J. Chem. Eng. Data, 2019, 10.1021/acs.jced.9b00306
Compound 1: 1,6-hexanediol, C6H14O2, InChI=1S/C6H14O2/c7-5-3-1-2-4-6-8/h7-8H,1-6H2, purity 98%
Compound 2: dimethyl 1,6-hexanedioate, C8H14O4, InChI=1S/C8H14O4/c1-11-7(9)5-3-4-6-8(10)12-2/h3-6H2,1-2H3, purity 99%
Compound 3: water, H2O, InChI=1S/H2O/h1H2, purity 99.9%
Compound 4: methanol, CH4O, InChI=1S/CH4O/c1-2/h2H,1H3, purity 99.9%

System: 1,6-hexanediol; phases: Liquid, Gas
Property: Vapor or sublimation pressure, kPa (Liquid); method: Ebulliometric method (Recirculating still)
Temperature, K	Vapor or sublimation pressure, kPa	uncertainty
456.93	10	1
474.79	20	1
525.1	99	1

System: dimethyl 1,6-hexanedioate; phases: Liquid, Gas
Property: Vapor or sublimation pressure, kPa (Liquid); method: Ebulliometric method (Recirculating still)
Temperature, K	Vapor or sublimation pressure, kPa	uncertainty
424.91	7.79	0.51
441.21	14.56	0.52
460.47	28.55	0.59
474.33	44.63	0.63
480.72	54.37	0.72
488.62	68.77	0.79
496.14	85.45	0.89
504.86	108.77	1.04
512	131.95	1.17
518.78	157.68	1.3
523.92	179.21	1.49
531.44	216.3	1.58
431.2	10	1
450.08	20	1
501	99	1

System: water; phases: Liquid, Gas
Property: Vapor or sublimation pressure, kPa (Liquid); method: Ebulliometric method (Recirculating still)
Temperature, K	Vapor or sublimation pressure, kPa	uncertainty
373.15	101.3	1.6

System: methanol; phases: Liquid, Gas
Property: Vapor or sublimation pressure, kPa (Liquid); method: Ebulliometric method (Recirculating still)
Temperature, K	Vapor or sublimation pressure, kPa	uncertainty
337.69	101.3	1.6

System: dimethyl 1,6-hexanedioate + 1,6-hexanediol; phases: Liquid, Gas
Property: Boiling temperature at pressure P, K (Liquid); method: Ebulliometric method (Recirculating still)
Mole fraction of dimethyl 1,6-hexanedioate	Pressure, kPa	Boiling temperature at pressure P, K	uncertainty
0	10	457	1.31
0.0405	10	453.05	1.27
0.0882	10	449.35	1.31
0.1536	10	445.9	1.32
0.2456	10	442.2	1.29
0.3348	10	439.75	1.29
0.4299	10	437.92	1.27
0.4922	10	437.01	1.27
0.5732	10	435.9	1.29
0.6474	10	434.8	1.31
0.7223	10	433.9	1.32
0.7745	10	433.25	1.34
0.824	10	432.67	1.33
0.8719	10	432.15	1.36
0.9354	10	431.65	1.36
1	10	431.2	1.38
0	20	474.93	1.32
0.032	20	471.2	1.35
0.0905	20	467.55	1.37
0.1559	20	464.2	1.36
0.2215	20	461	1.34
0.2946	20	458.55	1.32
0.3699	20	456.82	1.32
0.4259	20	455.5	1.3
0.4901	20	454.46	1.29
0.5743	20	453.45	1.3
0.6554	20	452.65	1.32
0.7258	20	451.95	1.33
0.8015	20	451.23	1.36
0.892	20	450.72	1.37
0.9461	20	450.2	1.38
1	20	450.08	1.38
0	99	525.1	0.64
0.0305	99	522.8	0.67
0.0785	99	519.85	0.67
0.1166	99	517.73	0.66
0.1782	99	515.6	0.66
0.2248	99	513.9	0.67
0.2801	99	512.05	0.66
0.3505	99	509.8	0.66
0.4586	99	508	0.65
0.6111	99	505.37	0.64
0.7106	99	504.05	0.63
0.7905	99	503.55	0.63
0.8403	99	502.85	0.63
0.8811	99	502.35	0.62
0.9321	99	501.73	0.62
1	99	501	0.61

System: dimethyl 1,6-hexanedioate + 1,6-hexanediol; phases: Gas, Liquid
Property: Mole fraction of dimethyl 1,6-hexanedioate (Gas); method: Chromatography
Mole fraction of dimethyl 1,6-hexanedioate	Pressure, kPa	Mole fraction of dimethyl 1,6-hexanedioate	uncertainty
0	10	0	
0.0405	10	0.185	0.0081
0.0882	10	0.3365	0.0066
0.1536	10	0.469	0.0075
0.2456	10	0.5851	0.007
0.3348	10	0.661	0.006
0.4299	10	0.7188	0.0052
0.4922	10	0.7506	0.0048
0.5732	10	0.7911	0.0042
0.6474	10	0.8192	0.0039
0.7223	10	0.8516	0.0034
0.7745	10	0.875	0.0031
0.824	10	0.8988	0.0029
0.8719	10	0.9243	0.0026
0.9354	10	0.9605	0.0024
1	10	1	
0	20	0	
0.032	20	0.1401	0.0074
0.0905	20	0.3098	0.0068
0.1559	20	0.4372	0.0074
0.2215	20	0.5189	0.0079
0.2946	20	0.5902	0.007
0.3699	20	0.6488	0.0063
0.4259	20	0.6811	0.0057
0.4901	20	0.7197	0.0052
0.5743	20	0.7599	0.0047
0.6554	20	0.7946	0.0042
0.7258	20	0.8359	0.0036
0.8015	20	0.8731	0.0031
0.892	20	0.9279	0.0027
0.9461	20	0.9604	0.0025
1	20	1	
0	99	0	
0.0305	99	0.0901	0.0056
0.0785	99	0.2025	0.0053
0.1166	99	0.2792	0.005
0.1782	99	0.3717	0.0057
0.2248	99	0.4325	0.0066
0.2801	99	0.4958	0.0076
0.3505	99	0.5579	0.0071
0.4586	99	0.6401	0.0061
0.6111	99	0.7322	0.0048
0.7106	99	0.7985	0.004
0.7905	99	0.8501	0.0034
0.8403	99	0.8801	0.0031
0.8811	99	0.9085	0.0028
0.9321	99	0.9425	0.0027
1	99	1	

System: methanol + water; phases: Liquid, Gas
Fixed: Pressure, kPa = 101.3
Property: Boiling temperature at pressure P, K (Liquid); method: Ebulliometric method (Recirculating still)
Mole fraction of methanol	Boiling temperature at pressure P, K	uncertainty
0	373.15	0.33
0.0121	371.12	0.47
0.0607	363.99	0.39
0.1321	358.61	0.36
0.1689	356.42	0.35
0.2598	352.3	0.34
0.4345	347.56	0.34
0.5669	345.1	0.34
0.7231	342.22	0.33
0.9355	338.85	0.33
1	337.69	0.33

System: methanol + water; phases: Gas, Liquid
Fixed: Pressure, kPa = 101.3
Property: Mole fraction of methanol (Gas); method: Chromatography
Mole fraction of methanol	Mole fraction of methanol	uncertainty
0	0	
0.0121	0.0902	0.0152
0.0607	0.3339	0.0077
0.1321	0.4911	0.0065
0.1689	0.5456	0.0055
0.2598	0.65	0.0045
0.4345	0.7551	0.0038
0.5669	0.8145	0.0035
0.7231	0.8906	0.0033
0.9355	0.9766	0.0031
1	1	
