Measured thermophysical data. Determination and Correlation of Solubility and Thermodynamic Properties of trans-Cinnamyl Alcohol in Pure and Binary Solvents from 253.15 K to 293.15 K
Source: J. Chem. Eng. Data, 2018, 10.1021/acs.jced.7b00665
Compound 1: trans-cinnamyl alcohol, C9H10O, InChI=1S/C9H10O/c10-8-4-7-9-5-2-1-3-6-9/h1-7,10H,8H2/b7-4+, purity 99%
Compound 2: methanol, CH4O, InChI=1S/CH4O/c1-2/h2H,1H3, purity 99.5%
Compound 3: ethanol, C2H6O, InChI=1S/C2H6O/c1-2-3/h3H,2H2,1H3, purity 99.5%
Compound 4: propan-1-ol, C3H8O, InChI=1S/C3H8O/c1-2-3-4/h4H,2-3H2,1H3, purity 99.5%
Compound 5: propan-2-ol, C3H8O, InChI=1S/C3H8O/c1-3(2)4/h3-4H,1-2H3, purity 99.5%
Compound 6: butan-1-ol, C4H10O, InChI=1S/C4H10O/c1-2-3-4-5/h5H,2-4H2,1H3, purity 99.5%
Compound 7: 2-methyl-1-propanol, C4H10O, InChI=1S/C4H10O/c1-4(2)3-5/h4-5H,3H2,1-2H3, purity 99.5%
Compound 8: butan-2-ol, C4H10O, InChI=1S/C4H10O/c1-3-4(2)5/h4-5H,3H2,1-2H3, purity 99.5%
Compound 9: acetone, C3H6O, InChI=1S/C3H6O/c1-3(2)4/h1-2H3, purity 99.5%
Compound 10: methyl ethanoate, C3H6O2, InChI=1S/C3H6O2/c1-3(4)5-2/h1-2H3, purity 99.5%
Compound 11: ethyl acetate, C4H8O2, InChI=1S/C4H8O2/c1-3-6-4(2)5/h3H2,1-2H3, purity 99.5%
Compound 12: hexane, C6H14, InChI=1S/C6H14/c1-3-5-6-4-2/h3-6H2,1-2H3, purity 99.5%
Compound 13: 2-hydroxybenzoic acid, C7H6O3, InChI=1S/C7H6O3/c8-6-4-2-1-3-5(6)7(9)10/h1-4,8H,(H,9,10), purity 98%
Compound 14: acetic acid, C2H4O2, InChI=1S/C2H4O2/c1-2(3)4/h1H3,(H,3,4), purity 99.5%

System: trans-cinnamyl alcohol; phases: Crystal, Liquid, Air at 1 atmosphere
Property: Normal melting temperature, K (Crystal); method: DTA
Normal melting temperature, K	uncertainty
305.62	0.61

System: trans-cinnamyl alcohol; phases: Crystal, Liquid, Air at 1 atmosphere
Property: Molar enthalpy of transition or fusion, kJ/mol (Crystal); method: DSC
Molar enthalpy of transition or fusion, kJ/mol	uncertainty
13.72	1.2

System: trans-cinnamyl alcohol + methanol; phases: Liquid, Crystal
Fixed: Pressure, kPa = 100
Property: Mole fraction of trans-cinnamyl alcohol (Liquid); method: gravimetric
Temperature, K	Mole fraction of trans-cinnamyl alcohol	uncertainty
253.15	0.222	0.044
258.15	0.24	0.048
263.15	0.269	0.054
268.15	0.307	0.061
273.15	0.351	0.07
278.15	0.401	0.08
283.15	0.466	0.093
288.15	0.536	0.093
293.15	0.61	0.078

System: trans-cinnamyl alcohol + ethanol; phases: Liquid, Crystal
Fixed: Pressure, kPa = 100
Property: Mole fraction of trans-cinnamyl alcohol (Liquid); method: gravimetric
Temperature, K	Mole fraction of trans-cinnamyl alcohol	uncertainty
253.15	0.22	0.044
258.15	0.256	0.051
263.15	0.298	0.06
268.15	0.342	0.068
273.15	0.404	0.081
278.15	0.456	0.091
283.15	0.52	0.096
288.15	0.59	0.082
293.15	0.652	0.07

System: trans-cinnamyl alcohol + propan-1-ol; phases: Liquid, Crystal
Fixed: Pressure, kPa = 100
Property: Mole fraction of trans-cinnamyl alcohol (Liquid); method: gravimetric
Temperature, K	Mole fraction of trans-cinnamyl alcohol	uncertainty
253.15	0.174	0.035
258.15	0.213	0.043
263.15	0.266	0.053
268.15	0.313	0.063
273.15	0.373	0.075
278.15	0.433	0.087
283.15	0.496	0.099
288.15	0.567	0.087
293.15	0.634	0.073

System: trans-cinnamyl alcohol + propan-2-ol; phases: Liquid, Crystal
Fixed: Pressure, kPa = 100
Property: Mole fraction of trans-cinnamyl alcohol (Liquid); method: gravimetric
Temperature, K	Mole fraction of trans-cinnamyl alcohol	uncertainty
253.15	0.195	0.039
258.15	0.242	0.048
263.15	0.288	0.058
268.15	0.33	0.066
273.15	0.394	0.079
278.15	0.446	0.089
283.15	0.512	0.098
288.15	0.582	0.084
293.15	0.649	0.07

System: trans-cinnamyl alcohol + butan-1-ol; phases: Liquid, Crystal
Fixed: Pressure, kPa = 100
Property: Mole fraction of trans-cinnamyl alcohol (Liquid); method: gravimetric
Temperature, K	Mole fraction of trans-cinnamyl alcohol	uncertainty
253.15	0.125	0.025
258.15	0.162	0.032
263.15	0.214	0.043
268.15	0.269	0.054
273.15	0.342	0.068
278.15	0.412	0.082
283.15	0.479	0.096
288.15	0.553	0.089
293.15	0.608	0.078

System: trans-cinnamyl alcohol + 2-methyl-1-propanol; phases: Liquid, Crystal
Fixed: Pressure, kPa = 100
Property: Mole fraction of trans-cinnamyl alcohol (Liquid); method: gravimetric
Temperature, K	Mole fraction of trans-cinnamyl alcohol	uncertainty
253.15	0.072	0.014
258.15	0.105	0.021
263.15	0.165	0.033
268.15	0.217	0.043
273.15	0.287	0.057
278.15	0.366	0.073
283.15	0.431	0.086
288.15	0.498	0.1
293.15	0.576	0.085

System: trans-cinnamyl alcohol + butan-2-ol; phases: Liquid, Crystal
Fixed: Pressure, kPa = 100
Property: Mole fraction of trans-cinnamyl alcohol (Liquid); method: gravimetric
Temperature, K	Mole fraction of trans-cinnamyl alcohol	uncertainty
253.15	0.089	0.018
258.15	0.142	0.028
263.15	0.191	0.038
268.15	0.255	0.051
273.15	0.321	0.064
278.15	0.395	0.079
283.15	0.459	0.092
288.15	0.53	0.094
293.15	0.592	0.082

System: trans-cinnamyl alcohol + acetone; phases: Liquid, Crystal
Fixed: Pressure, kPa = 100
Property: Mole fraction of trans-cinnamyl alcohol (Liquid); method: gravimetric
Temperature, K	Mole fraction of trans-cinnamyl alcohol	uncertainty
253.15	0.28	0.056
258.15	0.322	0.064
263.15	0.363	0.073
268.15	0.414	0.083
273.15	0.47	0.094
278.15	0.526	0.095
283.15	0.579	0.084
288.15	0.625	0.075
293.15	0.674	0.065

System: trans-cinnamyl alcohol + methyl ethanoate; phases: Liquid, Crystal
Fixed: Pressure, kPa = 100
Property: Mole fraction of trans-cinnamyl alcohol (Liquid); method: gravimetric
Temperature, K	Mole fraction of trans-cinnamyl alcohol	uncertainty
253.15	0.172	0.034
258.15	0.225	0.045
263.15	0.27	0.054
268.15	0.326	0.065
273.15	0.392	0.078
278.15	0.452	0.09
283.15	0.523	0.095
288.15	0.591	0.082
293.15	0.646	0.071

System: trans-cinnamyl alcohol + ethyl acetate; phases: Liquid, Crystal
Fixed: Pressure, kPa = 100
Property: Mole fraction of trans-cinnamyl alcohol (Liquid); method: gravimetric
Temperature, K	Mole fraction of trans-cinnamyl alcohol	uncertainty
253.15	0.208	0.042
258.15	0.243	0.049
263.15	0.29	0.058
268.15	0.351	0.07
273.15	0.416	0.083
278.15	0.486	0.097
283.15	0.547	0.091
288.15	0.61	0.078
293.15	0.659	0.068

System: trans-cinnamyl alcohol + hexane; phases: Liquid, Crystal
Fixed: Pressure, kPa = 100
Property: Mole fraction of trans-cinnamyl alcohol (Liquid); method: gravimetric
Temperature, K	Mole fraction of trans-cinnamyl alcohol	uncertainty
253.15	0.00446	0.0009
258.15	0.00664	0.00133
263.15	0.01042	0.00209
268.15	0.01425	0.00286
273.15	0.01938	0.00388
278.15	0.02477	0.00496
283.15	0.02938	0.00588
288.15	0.03515	0.00703
293.15	0.04182	0.00837

System: trans-cinnamyl alcohol + propan-1-ol + hexane; phases: Liquid, Crystal
Fixed: Pressure, kPa = 100
Property: Mole fraction of trans-cinnamyl alcohol (Liquid); method: gravimetric
Temperature, K	Solvent: Mass fraction of propan-1-ol	Mole fraction of trans-cinnamyl alcohol	uncertainty
253.15	0.4	0.103	0.021
253.15	0.5	0.124	0.025
253.15	0.6	0.155	0.031
253.15	0.7	0.176	0.035
253.15	0.8	0.184	0.037
253.15	0.9	0.189	0.038
253.15	1	0.174	0.035
258.15	0.4	0.13	0.026
258.15	0.5	0.156	0.031
258.15	0.6	0.183	0.037
258.15	0.7	0.206	0.041
258.15	0.8	0.226	0.045
258.15	0.9	0.224	0.045
258.15	1	0.213	0.043
263.15	0.4	0.147	0.029
263.15	0.5	0.203	0.041
263.15	0.6	0.235	0.047
263.15	0.7	0.251	0.05
263.15	0.8	0.266	0.053
263.15	0.9	0.269	0.054
263.15	1	0.266	0.053
268.15	0.4	0.185	0.037
268.15	0.5	0.234	0.047
268.15	0.6	0.276	0.055
268.15	0.7	0.295	0.059
268.15	0.8	0.311	0.062
268.15	0.9	0.318	0.064
268.15	1	0.313	0.063
273.15	0.4	0.246	0.049
273.15	0.5	0.303	0.061
273.15	0.6	0.339	0.068
273.15	0.7	0.359	0.072
273.15	0.8	0.37	0.074
273.15	0.9	0.379	0.076
273.15	1	0.373	0.075
278.15	0.4	0.32	0.064
278.15	0.5	0.378	0.076
278.15	0.6	0.42	0.084
278.15	0.7	0.448	0.09
278.15	0.8	0.454	0.091
278.15	0.9	0.45	0.09
278.15	1	0.433	0.087
283.15	0.4	0.397	0.079
283.15	0.5	0.46	0.092
283.15	0.6	0.499	0.1
283.15	0.7	0.519	0.096
283.15	0.8	0.519	0.096
283.15	0.9	0.512	0.098
283.15	1	0.496	0.099
288.15	0.4	0.481	0.096
288.15	0.5	0.526	0.095
288.15	0.6	0.555	0.089
288.15	0.7	0.578	0.084
288.15	0.8	0.587	0.083
288.15	0.9	0.58	0.084
288.15	1	0.567	0.087
293.15	0.4	0.568	0.086
293.15	0.5	0.607	0.079
293.15	0.6	0.641	0.072
293.15	0.7	0.654	0.069
293.15	0.8	0.65	0.07
293.15	0.9	0.641	0.072
293.15	1	0.634	0.073

System: trans-cinnamyl alcohol + butan-1-ol + hexane; phases: Liquid, Crystal
Fixed: Pressure, kPa = 100
Property: Mole fraction of trans-cinnamyl alcohol (Liquid); method: gravimetric
Temperature, K	Solvent: Mass fraction of butan-1-ol	Mole fraction of trans-cinnamyl alcohol	uncertainty
253.15	0.4	0.065	0.013
253.15	0.5	0.098	0.02
253.15	0.6	0.116	0.023
253.15	0.7	0.124	0.025
253.15	0.8	0.128	0.026
253.15	0.9	0.132	0.026
253.15	1	0.125	0.025
258.15	0.4	0.09	0.018
258.15	0.5	0.125	0.025
258.15	0.6	0.14	0.028
258.15	0.7	0.152	0.03
258.15	0.8	0.162	0.032
258.15	0.9	0.168	0.034
258.15	1	0.162	0.032
263.15	0.4	0.125	0.025
263.15	0.5	0.167	0.033
263.15	0.6	0.19	0.038
263.15	0.7	0.207	0.041
263.15	0.8	0.218	0.044
263.15	0.9	0.222	0.044
263.15	1	0.214	0.043
268.15	0.4	0.177	0.035
268.15	0.5	0.202	0.04
268.15	0.6	0.234	0.047
268.15	0.7	0.263	0.053
268.15	0.8	0.28	0.056
268.15	0.9	0.278	0.056
268.15	1	0.269	0.054
273.15	0.4	0.222	0.044
273.15	0.5	0.283	0.057
273.15	0.6	0.311	0.062
273.15	0.7	0.332	0.066
273.15	0.8	0.351	0.07
273.15	0.9	0.346	0.069
273.15	1	0.342	0.068
278.15	0.4	0.316	0.063
278.15	0.5	0.372	0.074
278.15	0.6	0.394	0.079
278.15	0.7	0.417	0.083
278.15	0.8	0.428	0.086
278.15	0.9	0.421	0.084
278.15	1	0.412	0.082
283.15	0.4	0.389	0.078
283.15	0.5	0.426	0.085
283.15	0.6	0.452	0.09
283.15	0.7	0.475	0.095
283.15	0.8	0.491	0.098
283.15	0.9	0.488	0.098
283.15	1	0.479	0.096
288.15	0.4	0.477	0.095
288.15	0.5	0.518	0.096
288.15	0.6	0.543	0.091
288.15	0.7	0.57	0.086
288.15	0.8	0.574	0.085
288.15	0.9	0.565	0.087
288.15	1	0.553	0.089
293.15	0.4	0.544	0.091
293.15	0.5	0.574	0.085
293.15	0.6	0.599	0.08
293.15	0.7	0.614	0.077
293.15	0.8	0.614	0.077
293.15	0.9	0.611	0.078
293.15	1	0.608	0.078

System: 2-hydroxybenzoic acid + methanol; phases: Liquid, Crystal
Fixed: Pressure, kPa = 100
Property: Mole fraction of 2-hydroxybenzoic acid (Liquid); method: gravimetric
Temperature, K	Mole fraction of 2-hydroxybenzoic acid	uncertainty
298.15	0.12324	0.02466
303.15	0.13718	0.02744
308.15	0.15007	0.03002
313.15	0.16333	0.03267
318.15	0.17234	0.03447

System: 2-hydroxybenzoic acid + acetic acid; phases: Liquid, Crystal
Fixed: Pressure, kPa = 100
Property: Mole fraction of 2-hydroxybenzoic acid (Liquid); method: gravimetric
Temperature, K	Mole fraction of 2-hydroxybenzoic acid	uncertainty
298.15	0.05306	0.01062
303.15	0.06168	0.01234
308.15	0.07089	0.01418
313.15	0.07849	0.0157
318.15	0.09029	0.01807

System: 2-hydroxybenzoic acid + acetone; phases: Liquid, Crystal
Fixed: Pressure, kPa = 100
Property: Mole fraction of 2-hydroxybenzoic acid (Liquid); method: gravimetric
Temperature, K	Mole fraction of 2-hydroxybenzoic acid	uncertainty
298.15	0.17501	0.03501
303.15	0.19589	0.03918
308.15	0.20314	0.04063
313.15	0.21814	0.04363
318.15	0.23071	0.04615

System: 2-hydroxybenzoic acid + ethyl acetate; phases: Liquid, Crystal
Fixed: Pressure, kPa = 100
Property: Mole fraction of 2-hydroxybenzoic acid (Liquid); method: gravimetric
Temperature, K	Mole fraction of 2-hydroxybenzoic acid	uncertainty
298.15	0.12998	0.026
303.15	0.14009	0.02802
308.15	0.15413	0.03083
313.15	0.16518	0.03304
318.15	0.17861	0.03573
