Measured thermophysical data. Measurement and Correlation of Vapor-Liquid Equilibrium for R124 (1-Chloro-1,2,2,2-Tetrafluoroethane)-NMP (N-Methyl-2-Pyrrolidone) and R124-DMF (N,N-Dimethylformamide) Mixtures
Source: J. Chem. Eng. Data, 2017, 10.1021/acs.jced.7b00444
Compound 1: 2-chloro-1,1,1,2-tetrafluoroethane, C2HClF4, InChI=1S/C2HClF4/c3-1(4)2(5,6)7/h1H, purity 99.9%
Compound 2: 1,1,1,2-tetrafluoroethane, C2H2F4, InChI=1S/C2H2F4/c3-1-2(4,5)6/h1H2, purity 99.9%
Compound 3: N-methylpyrrolidone, C5H9NO, InChI=1S/C5H9NO/c1-6-4-2-3-5(6)7/h2-4H2,1H3, purity 99.9%
Compound 4: dimethylformamide, C3H7NO, InChI=1S/C3H7NO/c1-4(2)3-5/h3H,1-2H3, purity 99.9%
Compound 5: N,N-dimethylethanamide, C4H9NO, InChI=1S/C4H9NO/c1-4(6)5(2)3/h1-3H3, purity 99.9%

System: 1,1,1,2-tetrafluoroethane + N,N-dimethylethanamide; phases: Liquid, Gas
Fixed: Temperature, K = 313.15
Property: Vapor or sublimation pressure, kPa (Liquid); method: Ebulliometric method (Recirculating still)
Mole fraction of 1,1,1,2-tetrafluoroethane	Vapor or sublimation pressure, kPa	uncertainty
0.2083	192.6	33.6
0.2928	271.2	33.4
0.3364	310.8	37.4
0.4139	395.4	39.4
0.4681	454.2	35.9
0.5301	510.6	33.9
0.5823	560.4	34.8

System: 2-chloro-1,1,1,2-tetrafluoroethane + N-methylpyrrolidone; phases: Liquid, Gas
Property: Vapor or sublimation pressure, kPa (Liquid); method: Ebulliometric method (Recirculating still)
Temperature, K	Mole fraction of 2-chloro-1,1,1,2-tetrafluoroethane	Vapor or sublimation pressure, kPa	uncertainty
303.15	0.5492	104.4	20.4
303.15	0.6466	159.5	23.2
303.15	0.7154	211.9	29.1
303.15	0.8233	301.7	30.1
313.15	0.4692	105.9	15.4
313.15	0.5051	123.5	13.5
313.15	0.548	139.4	23.6
313.15	0.6459	212.3	30.2
313.15	0.7146	280.1	40.9
313.15	0.8229	412.1	44.1
323.15	0.3976	103.4	19.9
323.15	0.4681	142.3	21
323.15	0.5047	165.8	20.1
323.15	0.5471	186.9	29.9
323.15	0.6451	278.1	38.4
323.15	0.7137	365.2	50
323.15	0.8221	523.2	56.6
333.15	0.3213	101.4	18.6
333.15	0.3957	139.7	20.7
333.15	0.467	184.9	25.8
333.15	0.5038	217.6	26.9
333.15	0.5458	244.2	41.1
333.15	0.6445	371.2	47.8
333.15	0.7123	466.5	61.7
333.15	0.8217	670.8	70.6
343.15	0.2629	104.4	19
343.15	0.3207	134.8	21
343.15	0.3942	180.7	26.5
343.15	0.4654	240.9	32.3
343.15	0.5029	278.4	32.1
343.15	0.5445	311.7	48.1
343.15	0.6437	459.6	59
343.15	0.7117	587	79.2
343.15	0.8209	847	89.3
353.15	0.2048	108.1	18.2
353.15	0.2617	136.8	20.9
353.15	0.3195	174.3	28.6
353.15	0.3931	240.2	32.5
353.15	0.4639	304.3	36.6
353.15	0.5019	351.9	40.5
353.15	0.5437	394.4	58.2
353.15	0.6431	571.1	74.5
353.15	0.7108	745.6	99.3
353.15	0.8202	1055.1	105.6
363.15	0.2036	135.7	25.6
363.15	0.2609	176.4	27.8
363.15	0.3194	224.9	33.1
363.15	0.3921	296.5	39.8
363.15	0.4628	383.4	46
363.15	0.5008	435.9	46.1
363.15	0.5428	485.9	69.5
363.15	0.6425	701.7	86.9
363.15	0.7099	892.1	122.2
363.15	0.8198	1297.2	132.9

System: 2-chloro-1,1,1,2-tetrafluoroethane + dimethylformamide; phases: Liquid, Gas
Property: Vapor or sublimation pressure, kPa (Liquid); method: Ebulliometric method (Recirculating still)
Temperature, K	Mole fraction of 2-chloro-1,1,1,2-tetrafluoroethane	Vapor or sublimation pressure, kPa	uncertainty
303.15	0.3467	103.9	16.4
303.15	0.3908	123.9	17.6
303.15	0.4658	161.7	19.2
303.15	0.5542	210.5	18.5
303.15	0.6627	262.3	17.7
303.15	0.7631	312.2	18.1
313.15	0.3096	117.7	21.4
313.15	0.345	135.1	21.5
313.15	0.3897	165.1	24.7
313.15	0.4642	217.1	23.4
313.15	0.5537	272	21.9
313.15	0.6619	337.1	25.8
313.15	0.7624	420.4	31.9
323.15	0.245	108.3	24.2
323.15	0.3077	150.4	26.1
323.15	0.3425	175.8	26.1
323.15	0.3878	211.6	30.6
323.15	0.4631	278.5	29.6
323.15	0.5531	348.3	32
323.15	0.6612	453.7	34.1
323.15	0.7618	544.7	35.2
333.15	0.1924	102.8	24.8
333.15	0.243	137.5	30.3
333.15	0.3059	197.8	33.7
333.15	0.3417	225.1	33.8
333.15	0.3861	271.6	40.5
333.15	0.4621	360.6	36.5
333.15	0.5526	441.6	39
333.15	0.6603	573.6	43
333.15	0.7611	689.2	42.8
343.15	0.1524	103.1	31.2
343.15	0.1904	136	31.2
343.15	0.2414	180.6	36.9
343.15	0.3045	252.1	40.1
343.15	0.3405	288.9	41.4
343.15	0.3849	344.3	48.3
343.15	0.4608	450.5	45.2
343.15	0.5518	555.2	50.2
343.15	0.6596	725.6	50.3
343.15	0.7601	844.5	50.1
353.15	0.1504	133.8	38.1
353.15	0.189	177.8	37.8
353.15	0.2405	229.2	44
353.15	0.3037	317.1	51.1
353.15	0.3387	363.4	51.1
353.15	0.3835	432.2	55.9
353.15	0.4591	551.3	54.6
353.15	0.5511	687.4	58.3
353.15	0.6588	873.5	64.9
353.15	0.7591	1061	66.5
363.15	0.1485	174.3	49.7
363.15	0.1875	228.1	48
363.15	0.2383	294.1	52.1
363.15	0.3021	393.1	60.2
363.15	0.3365	451.2	59.7
363.15	0.3814	532.6	66.1
363.15	0.4578	673.5	66
363.15	0.5502	841.7	70.6
363.15	0.6581	1065	74.2
363.15	0.7582	1269	73.6
