Measured thermophysical data. Phase Equilibria of trans-1,3,3,3-Tetrafluoropropene with Three Imidazolium Ionic Liquids
Source: J. Chem. Eng. Data, 2017, 10.1021/acs.jced.7b00047
Compound 1: carbon dioxide, CO2, InChI=1S/CO2/c2-1-3, purity 99.999%
Compound 2: trans-1,3,3,3-tetrafluoropropene, C3H2F4, InChI=1S/C3H2F4/c4-2-1-3(5,6)7/h1-2H/b2-1+, purity 99.9%
Compound 3: 1-ethyl-3-methylimidazolium tetrafluoroborate, C6H11BF4N2, InChI=1S/C6H11N2.BF4/c1-3-8-5-4-7(2)6-8;2-1(3,4)5/h4-6H,3H2,1-2H3;/q+1;-1, purity 99%
Compound 4: 1-hexyl-3-methylimidazolium tetrafluoroborate, C10H19BF4N2, InChI=1S/C10H19N2.BF4/c1-3-4-5-6-7-12-9-8-11(2)10-12;2-1(3,4)5/h8-10H,3-7H2,1-2H3;/q+1;-1, purity 99%
Compound 5: 1-methyl-3-octylimidazolium tetrafluoroborate, C12H23BF4N2, InChI=1S/C12H23N2.BF4/c1-3-4-5-6-7-8-9-14-11-10-13(2)12-14;2-1(3,4)5/h10-12H,3-9H2,1-2H3;/q+1;-1, purity 99%

System: carbon dioxide + 1-ethyl-3-methylimidazolium tetrafluoroborate; phases: Liquid, Gas
Fixed: Temperature, K = 298.15
Property: Mole fraction of carbon dioxide (Liquid); method: Phase equilibration
Pressure, kPa	Mole fraction of carbon dioxide	uncertainty
202	0.0262	0.0009
252	0.0335	0.0011
341	0.0455	0.0014
440	0.0568	0.0018
541	0.07	0.0022
645	0.0821	0.0025
746	0.0935	0.0029
849	0.1056	0.0032

System: carbon dioxide + 1-hexyl-3-methylimidazolium tetrafluoroborate; phases: Liquid, Gas
Fixed: Temperature, K = 298.15
Property: Mole fraction of carbon dioxide (Liquid); method: Phase equilibration
Pressure, kPa	Mole fraction of carbon dioxide	uncertainty
184	0.0424	0.0014
307	0.0674	0.0021
416	0.0858	0.0026
520	0.1044	0.0032
613	0.1197	0.0037
720	0.1366	0.0042
820	0.1523	0.0047
924	0.1675	0.0051

System: trans-1,3,3,3-tetrafluoropropene + 1-ethyl-3-methylimidazolium tetrafluoroborate; phases: Liquid, Gas
Property: Mole fraction of trans-1,3,3,3-tetrafluoropropene (Liquid); method: Phase equilibration
Temperature, K	Pressure, kPa	Mole fraction of trans-1,3,3,3-tetrafluoropropene	uncertainty
283.15	50	0.0269	0.0013
283.15	95	0.0501	0.0019
283.15	140	0.0738	0.0025
283.15	182	0.098	0.0032
283.15	221	0.123	0.004
283.15	259	0.1511	0.0049
283.15	294	0.1814	0.0058
293.15	54	0.0213	0.0009
293.15	103	0.0376	0.0013
293.15	153	0.0555	0.0019
293.15	199	0.0742	0.0024
293.15	243	0.0923	0.003
293.15	286	0.1127	0.0036
293.15	327	0.1338	0.0042
303.15	58	0.0164	0.0007
303.15	111	0.0294	0.001
303.15	164	0.0428	0.0014
303.15	213	0.0569	0.0018
303.15	261	0.0706	0.0022
303.15	309	0.0859	0.0027
303.15	354	0.1018	0.0032
313.15	61	0.0133	0.0005
313.15	117	0.0232	0.0008
313.15	173	0.0339	0.0011
313.15	226	0.0445	0.0014
313.15	277	0.0553	0.0017
313.15	328	0.0674	0.0021
313.15	378	0.0797	0.0025
323.15	64	0.0105	0.0004
323.15	123	0.0187	0.0006
323.15	182	0.0273	0.0009
323.15	238	0.0358	0.0011
323.15	292	0.0445	0.0014
323.15	346	0.054	0.0017
323.15	399	0.0641	0.002
333.15	67	0.0082	0.0003
333.15	128	0.0151	0.0005
333.15	191	0.022	0.0007
333.15	249	0.0289	0.0009
333.15	306	0.0363	0.0011
333.15	363	0.0441	0.0014
333.15	418	0.0525	0.0016
343.15	70	0.0063	0.0003
343.15	134	0.012	0.0004
343.15	198	0.0181	0.0006
343.15	260	0.0235	0.0007
343.15	319	0.0289	0.0009
343.15	379	0.035	0.0011
343.15	438	0.0409	0.0013

System: trans-1,3,3,3-tetrafluoropropene + 1-hexyl-3-methylimidazolium tetrafluoroborate; phases: Liquid, Gas
Property: Mole fraction of trans-1,3,3,3-tetrafluoropropene (Liquid); method: Phase equilibration
Temperature, K	Pressure, kPa	Mole fraction of trans-1,3,3,3-tetrafluoropropene	uncertainty
283.15	44	0.0511	0.003
283.15	82	0.099	0.0041
283.15	117	0.1503	0.0054
283.15	150	0.195	0.0066
283.15	180	0.2387	0.0079
283.15	210	0.2827	0.0091
283.15	237	0.3241	0.0104
293.15	49	0.0437	0.0024
293.15	91	0.0852	0.0032
293.15	133	0.1233	0.0041
293.15	173	0.1604	0.0053
293.15	210	0.1959	0.0063
293.15	247	0.2327	0.0073
293.15	282	0.268	0.0084
303.15	53	0.0367	0.0017
303.15	101	0.0689	0.0025
303.15	149	0.1001	0.0033
303.15	193	0.1301	0.0042
303.15	236	0.1591	0.0051
303.15	280	0.1894	0.006
303.15	321	0.2184	0.0068
313.15	57	0.0307	0.0013
313.15	110	0.056	0.002
313.15	162	0.0813	0.0027
313.15	212	0.1058	0.0034
313.15	259	0.1295	0.0041
313.15	308	0.1543	0.0048
313.15	355	0.1782	0.0055
323.15	62	0.0248	0.001
323.15	118	0.0454	0.0016
323.15	174	0.0667	0.0022
323.15	228	0.0868	0.0028
323.15	279	0.1063	0.0033
323.15	333	0.1266	0.004
323.15	384	0.1464	0.0045
333.15	66	0.0201	0.0008
333.15	125	0.0374	0.0013
333.15	185	0.055	0.0018
333.15	242	0.0718	0.0023
333.15	298	0.088	0.0028
333.15	355	0.1049	0.0033
333.15	409	0.1218	0.0038
343.15	69	0.016	0.0007
343.15	132	0.0305	0.001
343.15	195	0.045	0.0015
343.15	256	0.059	0.0019
343.15	315	0.0725	0.0023
343.15	375	0.0867	0.0027
343.15	434	0.1003	0.0031

System: trans-1,3,3,3-tetrafluoropropene + 1-methyl-3-octylimidazolium tetrafluoroborate; phases: Liquid, Gas
Property: Mole fraction of trans-1,3,3,3-tetrafluoropropene (Liquid); method: Phase equilibration
Temperature, K	Pressure, kPa	Mole fraction of trans-1,3,3,3-tetrafluoropropene	uncertainty
283.15	45	0.0595	0.0035
283.15	82	0.1144	0.0046
283.15	117	0.1692	0.006
283.15	150	0.2204	0.0074
283.15	181	0.2689	0.0088
283.15	211	0.3176	0.0103
283.15	236	0.3614	0.0116
293.15	49	0.0529	0.0027
293.15	91	0.0984	0.0037
293.15	133	0.1406	0.0048
293.15	173	0.183	0.006
293.15	211	0.223	0.0072
293.15	248	0.265	0.0084
293.15	281	0.3032	0.0096
303.15	53	0.045	0.002
303.15	101	0.0805	0.0029
303.15	148	0.1153	0.0038
303.15	194	0.1502	0.0049
303.15	237	0.1835	0.0058
303.15	280	0.2189	0.0069
303.15	320	0.2513	0.0079
313.15	58	0.0368	0.0016
313.15	110	0.0658	0.0023
313.15	161	0.0948	0.0031
313.15	212	0.1236	0.0039
313.15	260	0.1513	0.0048
313.15	309	0.1804	0.0056
313.15	354	0.2067	0.0064
323.15	62	0.0302	0.0013
323.15	118	0.0544	0.0019
323.15	173	0.0784	0.0026
323.15	227	0.1025	0.0033
323.15	279	0.126	0.0039
323.15	334	0.1498	0.0047
323.15	383	0.1722	0.0053
333.15	66	0.0246	0.001
333.15	125	0.0451	0.0015
333.15	184	0.0657	0.0021
333.15	242	0.0856	0.0027
333.15	298	0.1053	0.0033
333.15	356	0.1257	0.0039
333.15	409	0.1447	0.0045
343.15	70	0.02	0.0008
343.15	132	0.0375	0.0013
343.15	194	0.0545	0.0018
343.15	256	0.0716	0.0023
343.15	315	0.0881	0.0027
343.15	377	0.105	0.0033
343.15	433	0.1209	0.0037
