Measured thermophysical data. Aniracetam Solubility in Pure and Binary Solvents: Effect of Molecular Interaction and Analysis of Crystallized Products
Source: J. Chem. Eng. Data, 2018, 10.1021/acs.jced.8b00023
Compound 1: 1-(4-methoxybenzoyl)pyrrolidin-2-one, C12H13NO3, InChI=1S/C12H13NO3/c1-16-10-6-4-9(5-7-10)12(15)13-8-2-3-11(13)14/h4-7H,2-3,8H2,1H3, purity 99.6%
Compound 2: methanol, CH4O, InChI=1S/CH4O/c1-2/h2H,1H3, purity 99.6%
Compound 3: ethanol, C2H6O, InChI=1S/C2H6O/c1-2-3/h3H,2H2,1H3, purity 99.8%
Compound 4: propan-2-ol, C3H8O, InChI=1S/C3H8O/c1-3(2)4/h3-4H,1-2H3, purity 99.8%
Compound 5: acetone, C3H6O, InChI=1S/C3H6O/c1-3(2)4/h1-2H3, purity 99.6%
Compound 6: propan-1-ol, C3H8O, InChI=1S/C3H8O/c1-2-3-4/h4H,2-3H2,1H3, purity 99.5%
Compound 7: toluene, C7H8, InChI=1S/C7H8/c1-7-5-3-2-4-6-7/h2-6H,1H3, purity 99.6%
Compound 8: ethyl acetate, C4H8O2, InChI=1S/C4H8O2/c1-3-6-4(2)5/h3H2,1-2H3, purity 99.5%

System: 1-(4-methoxybenzoyl)pyrrolidin-2-one + acetone; phases: Liquid, Crystal
Fixed: Pressure, kPa = 101.1
Property: Mole fraction of 1-(4-methoxybenzoyl)pyrrolidin-2-one (Liquid); method: Chromatography
Temperature, K	Mole fraction of 1-(4-methoxybenzoyl)pyrrolidin-2-one	uncertainty
273.15	0.01914	0.00574
278.15	0.02361	0.00708
283.15	0.02967	0.0089
288.15	0.03694	0.01108
293.15	0.04521	0.01356
298.15	0.05366	0.0161
303.15	0.06259	0.01878
308.15	0.07302	0.02191
313.15	0.08498	0.02549
318.15	0.09836	0.02951

System: 1-(4-methoxybenzoyl)pyrrolidin-2-one + ethyl acetate; phases: Liquid, Crystal
Fixed: Pressure, kPa = 101.1
Property: Mole fraction of 1-(4-methoxybenzoyl)pyrrolidin-2-one (Liquid); method: Chromatography
Temperature, K	Mole fraction of 1-(4-methoxybenzoyl)pyrrolidin-2-one	uncertainty
273.15	0.01497	0.00449
278.15	0.01702	0.00511
283.15	0.02004	0.00601
288.15	0.02415	0.00725
293.15	0.02852	0.00856
298.15	0.03327	0.00998
303.15	0.03845	0.01154
308.15	0.04481	0.01344
313.15	0.05132	0.0154
318.15	0.05812	0.01744

System: 1-(4-methoxybenzoyl)pyrrolidin-2-one + toluene; phases: Liquid, Crystal
Fixed: Pressure, kPa = 101.1
Property: Mole fraction of 1-(4-methoxybenzoyl)pyrrolidin-2-one (Liquid); method: Chromatography
Temperature, K	Mole fraction of 1-(4-methoxybenzoyl)pyrrolidin-2-one	uncertainty
273.15	0.01014	0.00304
278.15	0.01162	0.00349
283.15	0.01356	0.00407
288.15	0.01624	0.00487
293.15	0.01944	0.00583
298.15	0.02309	0.00693
303.15	0.02693	0.00808
308.15	0.03113	0.00934
313.15	0.03575	0.01073
318.15	0.04081	0.01224

System: 1-(4-methoxybenzoyl)pyrrolidin-2-one + methanol; phases: Liquid, Crystal
Fixed: Pressure, kPa = 101.1
Property: Mole fraction of 1-(4-methoxybenzoyl)pyrrolidin-2-one (Liquid); method: Chromatography
Temperature, K	Mole fraction of 1-(4-methoxybenzoyl)pyrrolidin-2-one	uncertainty
273.15	0.000951	0.000285
278.15	0.001249	0.000375
283.15	0.001853	0.000556
288.15	0.002553	0.000766
293.15	0.003534	0.00106
298.15	0.00474	0.00142
303.15	0.006099	0.00183
308.15	0.007746	0.002324
313.15	0.009644	0.002893
318.15	0.01195	0.00359

System: 1-(4-methoxybenzoyl)pyrrolidin-2-one + ethanol; phases: Liquid, Crystal
Fixed: Pressure, kPa = 101.1
Property: Mole fraction of 1-(4-methoxybenzoyl)pyrrolidin-2-one (Liquid); method: Chromatography
Temperature, K	Mole fraction of 1-(4-methoxybenzoyl)pyrrolidin-2-one	uncertainty
273.15	0.000924	0.000277
278.15	0.001097	0.000329
283.15	0.001565	0.00047
288.15	0.002146	0.000644
293.15	0.002933	0.00088
298.15	0.003869	0.001161
303.15	0.004958	0.001487
308.15	0.006271	0.001881
313.15	0.007713	0.002314
318.15	0.009555	0.002867

System: 1-(4-methoxybenzoyl)pyrrolidin-2-one + propan-1-ol; phases: Liquid, Crystal
Fixed: Pressure, kPa = 101.1
Property: Mole fraction of 1-(4-methoxybenzoyl)pyrrolidin-2-one (Liquid); method: Chromatography
Temperature, K	Mole fraction of 1-(4-methoxybenzoyl)pyrrolidin-2-one	uncertainty
273.15	0.000462	0.000139
278.15	0.000643	0.000193
283.15	0.000968	0.00029
288.15	0.001379	0.000414
293.15	0.00195	0.000585
298.15	0.002666	0.0008
303.15	0.00358	0.001074
308.15	0.004717	0.001415
313.15	0.005919	0.001776
318.15	0.007374	0.002212

System: 1-(4-methoxybenzoyl)pyrrolidin-2-one + propan-2-ol; phases: Liquid, Crystal
Fixed: Pressure, kPa = 101.1
Property: Mole fraction of 1-(4-methoxybenzoyl)pyrrolidin-2-one (Liquid); method: Chromatography
Temperature, K	Mole fraction of 1-(4-methoxybenzoyl)pyrrolidin-2-one	uncertainty
273.15	0.000716	0.000215
278.15	0.000981	0.000294
283.15	0.001371	0.000411
288.15	0.001888	0.000566
293.15	0.002518	0.000755
298.15	0.003286	0.000986
303.15	0.004178	0.001253
308.15	0.005227	0.001568
313.15	0.00647	0.001941
318.15	0.007908	0.002372

System: 1-(4-methoxybenzoyl)pyrrolidin-2-one + acetone + methanol; phases: Liquid, Crystal
Fixed: Pressure, kPa = 101.1
Property: Mole fraction of 1-(4-methoxybenzoyl)pyrrolidin-2-one (Liquid); method: Chromatography
Temperature, K	Solvent: Mass fraction of acetone	Mole fraction of 1-(4-methoxybenzoyl)pyrrolidin-2-one	uncertainty
273.15	0.2	0.002224	0.000667
278.15	0.2	0.003233	0.00097
283.15	0.2	0.004347	0.001304
288.15	0.2	0.005535	0.001661
293.15	0.2	0.007234	0.00217
298.15	0.2	0.008999	0.0027
303.15	0.2	0.01113	0.00334
308.15	0.2	0.01346	0.00404
313.15	0.2	0.01593	0.00478
318.15	0.2	0.01924	0.00577
273.15	0.4	0.003004	0.000901
278.15	0.4	0.004606	0.001382
283.15	0.4	0.006863	0.002059
288.15	0.4	0.008986	0.002696
293.15	0.4	0.01197	0.00359
298.15	0.4	0.01527	0.00458
303.15	0.4	0.01882	0.00565
308.15	0.4	0.02302	0.00691
313.15	0.4	0.02785	0.00836
318.15	0.4	0.03401	0.0102
273.15	0.6	0.006218	0.001866
278.15	0.6	0.008029	0.002409
283.15	0.6	0.01024	0.00307
288.15	0.6	0.01371	0.00411
293.15	0.6	0.0178	0.00534
298.15	0.6	0.02287	0.00686
303.15	0.6	0.02874	0.00862
308.15	0.6	0.03568	0.0107
313.15	0.6	0.04319	0.01296
318.15	0.6	0.05237	0.01571
273.15	0.8	0.008142	0.002443
278.15	0.8	0.01097	0.00329
283.15	0.8	0.01453	0.00436
288.15	0.8	0.01905	0.00572
293.15	0.8	0.02436	0.00731
298.15	0.8	0.03094	0.00928
303.15	0.8	0.0379	0.01137
308.15	0.8	0.0463	0.01389
313.15	0.8	0.05619	0.01686
318.15	0.8	0.06906	0.02072
273.15	0.9	0.01243	0.00373
278.15	0.9	0.01603	0.00481
283.15	0.9	0.01992	0.00598
288.15	0.9	0.02523	0.00757
293.15	0.9	0.03168	0.0095
298.15	0.9	0.03881	0.01164
303.15	0.9	0.04713	0.01414
308.15	0.9	0.05701	0.0171
313.15	0.9	0.06772	0.02032
318.15	0.9	0.08157	0.02447
273.15	0	0.000951	0.000285
278.15	0	0.001249	0.000375
283.15	0	0.001853	0.000556
288.15	0	0.002553	0.000766
293.15	0	0.003534	0.00106
298.15	0	0.00474	0.00142
303.15	0	0.006099	0.00183
308.15	0	0.007746	0.002324
313.15	0	0.009644	0.002893
318.15	0	0.01195	0.00359
273.15	1	0.01914	0.00574
278.15	1	0.02361	0.00708
283.15	1	0.02967	0.0089
288.15	1	0.03694	0.01108
293.15	1	0.04521	0.01356
298.15	1	0.05366	0.0161
303.15	1	0.06259	0.01878
308.15	1	0.07302	0.02191
313.15	1	0.08498	0.02549
318.15	1	0.09836	0.02951

System: 1-(4-methoxybenzoyl)pyrrolidin-2-one + acetone + ethanol; phases: Liquid, Crystal
Fixed: Pressure, kPa = 101.1
Property: Mole fraction of 1-(4-methoxybenzoyl)pyrrolidin-2-one (Liquid); method: Chromatography
Temperature, K	Solvent: Mass fraction of acetone	Mole fraction of 1-(4-methoxybenzoyl)pyrrolidin-2-one	uncertainty
273.15	0	0.000924	0.000277
278.15	0	0.001097	0.000329
283.15	0	0.001565	0.00047
288.15	0	0.002146	0.000644
293.15	0	0.002933	0.00088
298.15	0	0.003869	0.001161
303.15	0	0.004958	0.001487
308.15	0	0.006271	0.001881
313.15	0	0.007713	0.002314
318.15	0	0.009555	0.002867
273.15	0.2	0.001996	0.000599
278.15	0.2	0.002382	0.000715
283.15	0.2	0.002985	0.000896
288.15	0.2	0.003866	0.00116
293.15	0.2	0.00498	0.001494
298.15	0.2	0.006184	0.001855
303.15	0.2	0.007532	0.00226
308.15	0.2	0.009204	0.002761
313.15	0.2	0.01106	0.00332
318.15	0.2	0.01328	0.00398
273.15	0.4	0.00267	0.000801
278.15	0.4	0.00382	0.001146
283.15	0.4	0.005212	0.001564
288.15	0.4	0.00683	0.002049
293.15	0.4	0.00856	0.002568
298.15	0.4	0.01046	0.00314
303.15	0.4	0.01276	0.00383
308.15	0.4	0.01523	0.00457
313.15	0.4	0.01826	0.00548
318.15	0.4	0.02135	0.00641
273.15	0.6	0.004409	0.001323
278.15	0.6	0.005769	0.001731
283.15	0.6	0.007568	0.002271
288.15	0.6	0.009917	0.002975
293.15	0.6	0.01293	0.00388
298.15	0.6	0.01599	0.0048
303.15	0.6	0.0194	0.00582
308.15	0.6	0.02362	0.00709
313.15	0.6	0.02896	0.00869
318.15	0.6	0.03448	0.01035
273.15	0.8	0.006913	0.002074
278.15	0.8	0.008717	0.002615
283.15	0.8	0.0116	0.00348
288.15	0.8	0.01507	0.00452
293.15	0.8	0.01914	0.00574
298.15	0.8	0.02374	0.00712
303.15	0.8	0.02906	0.00872
308.15	0.8	0.03558	0.01067
313.15	0.8	0.04249	0.01275
318.15	0.8	0.05057	0.01517
273.15	0.9	0.01075	0.00323
278.15	0.9	0.01375	0.00413
283.15	0.9	0.01774	0.00532
288.15	0.9	0.02191	0.00657
293.15	0.9	0.02699	0.0081
298.15	0.9	0.03234	0.0097
303.15	0.9	0.0385	0.01155
308.15	0.9	0.04528	0.01358
313.15	0.9	0.05321	0.01596
318.15	0.9	0.06255	0.01877
273.15	1	0.01914	0.00574
278.15	1	0.02361	0.00708
283.15	1	0.02967	0.0089
288.15	1	0.03694	0.01108
293.15	1	0.04521	0.01356
298.15	1	0.05366	0.0161
303.15	1	0.06259	0.01878
308.15	1	0.07302	0.02191
313.15	1	0.08498	0.02549
318.15	1	0.09836	0.02951

System: 1-(4-methoxybenzoyl)pyrrolidin-2-one + acetone + propan-2-ol; phases: Liquid, Crystal
Fixed: Pressure, kPa = 101.1
Property: Mole fraction of 1-(4-methoxybenzoyl)pyrrolidin-2-one (Liquid); method: Chromatography
Temperature, K	Solvent: Mass fraction of acetone	Mole fraction of 1-(4-methoxybenzoyl)pyrrolidin-2-one	uncertainty
273.15	0	0.000716	0.000215
278.15	0	0.000981	0.000294
283.15	0	0.001371	0.000411
288.15	0	0.001888	0.000566
293.15	0	0.002518	0.000755
298.15	0	0.003286	0.000986
303.15	0	0.004178	0.001253
308.15	0	0.005227	0.001568
313.15	0	0.00647	0.001941
318.15	0	0.007908	0.002372
273.15	0.2	0.001662	0.000499
278.15	0.2	0.002062	0.000619
283.15	0.2	0.002576	0.000773
288.15	0.2	0.003248	0.000974
293.15	0.2	0.004069	0.001221
298.15	0.2	0.005028	0.001508
303.15	0.2	0.006057	0.001817
308.15	0.2	0.007239	0.002172
313.15	0.2	0.008534	0.00256
318.15	0.2	0.0102	0.00306
273.15	0.4	0.002233	0.00067
278.15	0.4	0.003064	0.000919
283.15	0.4	0.00399	0.001197
288.15	0.4	0.005092	0.001528
293.15	0.4	0.006483	0.001945
298.15	0.4	0.008099	0.00243
303.15	0.4	0.009826	0.002948
308.15	0.4	0.01192	0.00358
313.15	0.4	0.01452	0.00436
318.15	0.4	0.01753	0.00526
273.15	0.6	0.003332	0.001
278.15	0.6	0.004734	0.00142
283.15	0.6	0.006713	0.002014
288.15	0.6	0.008758	0.002628
293.15	0.6	0.01127	0.00338
298.15	0.6	0.0141	0.00423
303.15	0.6	0.0175	0.00525
308.15	0.6	0.02125	0.00638
313.15	0.6	0.02539	0.00762
318.15	0.6	0.03082	0.00925
273.15	0.8	0.006662	0.001999
278.15	0.8	0.008255	0.002477
283.15	0.8	0.01069	0.00321
288.15	0.8	0.01304	0.00391
293.15	0.8	0.0163	0.00489
298.15	0.8	0.02016	0.00605
303.15	0.8	0.0246	0.00738
308.15	0.8	0.02945	0.00884
313.15	0.8	0.03475	0.01043
318.15	0.8	0.04111	0.01233
273.15	0.9	0.009267	0.00278
278.15	0.9	0.01155	0.00347
283.15	0.9	0.01464	0.00439
288.15	0.9	0.01836	0.00551
293.15	0.9	0.02282	0.00685
298.15	0.9	0.02804	0.00841
303.15	0.9	0.03385	0.01016
308.15	0.9	0.04029	0.01209
313.15	0.9	0.04776	0.01433
318.15	0.9	0.05657	0.01697
273.15	1	0.01914	0.00574
278.15	1	0.02361	0.00708
283.15	1	0.02967	0.0089
288.15	1	0.03694	0.01108
293.15	1	0.04521	0.01356
298.15	1	0.05366	0.0161
303.15	1	0.06259	0.01878
308.15	1	0.07302	0.02191
313.15	1	0.08498	0.02549
318.15	1	0.09836	0.02951
