Measured thermophysical data. Density, Electrical Conductivity, Dynamic Viscosity, Excess Properties, and Molecular Interactions of Ionic Liquid 1-Cyanopropyl-3-methylimidazolium Tetrafluoroborate and Binary System with Acetonitrile
Source: J. Chem. Eng. Data, 2018, 10.1021/acs.jced.7b00898
Compound 1: acetonitrile, C2H3N, InChI=1S/C2H3N/c1-2-3/h1H3, purity 99%
Compound 2: 1-butyronitrile-3-methylimidazolium tetrafluoroborate, C8H12BF4N3, InChI=1S/C8H12N3.BF4/c1-10-6-7-11(8-10)5-3-2-4-9;2-1(3,4)5/h6-8H,2-3,5H2,1H3;/q+1;-1, purity 99%

System: acetonitrile; phases: Liquid
Fixed: Pressure, kPa = 100
Property: Mass density, kg/m3 (Liquid); method: Vibrating tube method
Temperature, K	Mass density, kg/m3	uncertainty
288.15	787.33	1.58
293.15	781.96	1.57
298.15	776.61	1.56
303.15	771.18	1.55
308.15	765.73	1.54
313.15	760.25	1.53
318.15	754.72	1.51
323.15	749.16	1.5

System: 1-butyronitrile-3-methylimidazolium tetrafluoroborate; phases: Liquid, Gas
Property: Surface tension liquid-gas, N/m (Liquid); method: pt plate
Temperature, K	Surface tension liquid-gas, N/m	uncertainty
288.15	0.0491	0.0003
293.15	0.0487	0.0003
298.15	0.0484	0.0003
303.15	0.0481	0.0003
308.15	0.0477	0.0003
313.15	0.0474	0.0003
318.15	0.0471	0.0003
323.15	0.0468	0.0003

System: 1-butyronitrile-3-methylimidazolium tetrafluoroborate; phases: Liquid
Fixed: Pressure, kPa = 100
Property: Mass density, kg/m3 (Liquid); method: Vibrating tube method
Temperature, K	Mass density, kg/m3	uncertainty
288.15	1316.07	2.67
293.15	1312.33	2.66
298.15	1308.61	2.66
303.15	1304.81	2.65
308.15	1301.05	2.64
313.15	1297.32	2.63
318.15	1293.59	2.62
323.15	1289.86	2.62

System: 1-butyronitrile-3-methylimidazolium tetrafluoroborate; phases: Liquid
Fixed: Pressure, kPa = 100
Property: Electrical conductivity, S/m (Liquid); method: Alternating current cell with electrodes
Temperature, K	Electrical conductivity, S/m	uncertainty
288.15	0.058	0.056
293.15	0.085	0.068
298.15	0.123	0.082
303.15	0.171	0.097
308.15	0.231	0.113
313.15	0.305	0.13
318.15	0.393	0.147
323.15	0.498	0.166

System: 1-butyronitrile-3-methylimidazolium tetrafluoroborate; phases: Liquid
Fixed: Pressure, kPa = 100
Property: Viscosity, Pa*s (Liquid); method: Falling or rolling sphere viscometry
Temperature, K	Viscosity, Pa*s	uncertainty
288.15	0.5906	0.0742
293.15	0.4179	0.0499
298.15	0.3026	0.0346
303.15	0.2233	0.0246
308.15	0.1699	0.0182
313.15	0.1287	0.0134
318.15	0.1006	0.0103
323.15	0.07982	0.00807

System: 1-butyronitrile-3-methylimidazolium tetrafluoroborate + acetonitrile; phases: Liquid
Fixed: Pressure, kPa = 100
Property: Mass density, kg/m3 (Liquid); method: Vibrating tube method
Temperature, K	Mole fraction of 1-butyronitrile-3-methylimidazolium tetrafluoroborate	Mass density, kg/m3	uncertainty
288.15	1	1316.07	2.67
288.15	0.8885	1302.35	2.63
288.15	0.8024	1289.62	2.6
288.15	0.7001	1271.85	2.56
288.15	0.5996	1248.27	2.51
288.15	0.4999	1218.22	2.45
288.15	0.3996	1179.83	2.37
288.15	0.3013	1131.24	2.27
288.15	0.2003	1058.56	2.13
288.15	0.1004	951.03	1.92
288.15	0	787.33	1.58
293.15	1	1312.33	2.66
293.15	0.8885	1298.72	2.63
293.15	0.8024	1286.11	2.6
293.15	0.7001	1268.21	2.56
293.15	0.5996	1244.16	2.5
293.15	0.4999	1214.12	2.44
293.15	0.3996	1175.56	2.36
293.15	0.3013	1126.73	2.26
293.15	0.2003	1054.28	2.12
293.15	0.1004	946.91	1.91
293.15	0	781.96	1.57
298.15	1	1308.61	2.66
298.15	0.8885	1294.92	2.62
298.15	0.8024	1282.71	2.59
298.15	0.7001	1264.41	2.55
298.15	0.5996	1240.19	2.49
298.15	0.4999	1210.15	2.43
298.15	0.3996	1171.47	2.35
298.15	0.3013	1122.41	2.25
298.15	0.2003	1049.89	2.11
298.15	0.1004	942.92	1.91
298.15	0	776.61	1.56
303.15	1	1304.81	2.65
303.15	0.8885	1291.38	2.61
303.15	0.8024	1279.28	2.58
303.15	0.7001	1260.73	2.54
303.15	0.5996	1236.29	2.49
303.15	0.4999	1205.98	2.42
303.15	0.3996	1167.21	2.34
303.15	0.3013	1117.84	2.24
303.15	0.2003	1045.59	2.1
303.15	0.1004	938.82	1.9
303.15	0	771.18	1.55
308.15	1	1301.05	2.64
308.15	0.8885	1287.73	2.6
308.15	0.8024	1275.69	2.57
308.15	0.7001	1257.04	2.53
308.15	0.5996	1232.29	2.48
308.15	0.4999	1201.89	2.41
308.15	0.3996	1163.02	2.33
308.15	0.3013	1113.43	2.23
308.15	0.2003	1041.36	2.09
308.15	0.1004	934.73	1.89
308.15	0	765.73	1.54
313.15	1	1297.32	2.63
313.15	0.8885	1284.14	2.6
313.15	0.8024	1272.33	2.57
313.15	0.7001	1253.43	2.52
313.15	0.5996	1228.43	2.47
313.15	0.4999	1197.89	2.41
313.15	0.3996	1158.93	2.33
313.15	0.3013	1109.04	2.23
313.15	0.2003	1037.03	2.08
313.15	0.1004	930.78	1.88
313.15	0	760.25	1.53
318.15	1	1293.59	2.62
318.15	0.8885	1280.51	2.59
318.15	0.8024	1268.86	2.56
318.15	0.7001	1249.69	2.52
318.15	0.5996	1224.39	2.46
318.15	0.4999	1193.83	2.4
318.15	0.3996	1154.62	2.32
318.15	0.3013	1104.71	2.22
318.15	0.2003	1032.73	2.07
318.15	0.1004	926.61	1.88
318.15	0	754.72	1.51
323.15	1	1289.86	2.62
323.15	0.8885	1276.87	2.58
323.15	0.8024	1265.38	2.55
323.15	0.7001	1245.99	2.51
323.15	0.5996	1220.51	2.45
323.15	0.4999	1189.85	2.39
323.15	0.3996	1150.56	2.31
323.15	0.3013	1100.31	2.21
323.15	0.2003	1028.51	2.07
323.15	0.1004	922.4	1.87
323.15	0	749.16	1.5

System: 1-butyronitrile-3-methylimidazolium tetrafluoroborate + acetonitrile; phases: Liquid
Fixed: Pressure, kPa = 100
Property: Electrical conductivity, S/m (Liquid); method: Alternating current cell with electrodes
Temperature, K	Mole fraction of 1-butyronitrile-3-methylimidazolium tetrafluoroborate	Electrical conductivity, S/m	uncertainty
288.15	1	0.058	0.056
288.15	0.8885	0.126	0.083
288.15	0.8024	0.157	0.093
288.15	0.7001	0.28	0.124
288.15	0.5996	0.365	0.142
288.15	0.4999	0.558	0.175
288.15	0.3996	1.05	0.24
288.15	0.3013	1.68	0.31
288.15	0.2003	2.62	0.41
288.15	0.1004	3.71	0.5
293.15	1	0.085	0.068
293.15	0.8885	0.174	0.098
293.15	0.8024	0.208	0.107
293.15	0.7001	0.352	0.139
293.15	0.5996	0.467	0.16
293.15	0.4999	0.685	0.194
293.15	0.3996	1.24	0.26
293.15	0.3013	1.93	0.34
293.15	0.2003	2.89	0.43
293.15	0.1004	3.98	0.53
298.15	1	0.123	0.082
298.15	0.8885	0.236	0.114
298.15	0.8024	0.286	0.125
298.15	0.7001	0.47	0.161
298.15	0.5996	0.588	0.18
298.15	0.4999	0.834	0.214
298.15	0.3996	1.46	0.29
298.15	0.3013	2.21	0.37
298.15	0.2003	3.2	0.46
298.15	0.1004	4.28	0.55
303.15	1	0.171	0.097
303.15	0.8885	0.308	0.13
303.15	0.8024	0.372	0.143
303.15	0.7001	0.585	0.179
303.15	0.5996	0.719	0.199
303.15	0.4999	0.997	0.234
303.15	0.3996	1.7	0.32
303.15	0.3013	2.5	0.4
303.15	0.2003	3.51	0.49
303.15	0.1004	4.56	0.58
308.15	1	0.231	0.113
308.15	0.8885	0.392	0.147
308.15	0.8024	0.475	0.162
308.15	0.7001	0.719	0.199
308.15	0.5996	0.87	0.219
308.15	0.4999	1.19	0.26
308.15	0.3996	1.97	0.34
308.15	0.3013	2.8	0.42
308.15	0.2003	3.83	0.51
308.15	0.1004	4.84	0.6
313.15	1	0.305	0.13
313.15	0.8885	0.491	0.164
313.15	0.8024	0.599	0.182
313.15	0.7001	0.87	0.219
313.15	0.5996	1.04	0.24
313.15	0.4999	1.4	0.28
313.15	0.3996	2.27	0.37
313.15	0.3013	3.1	0.45
313.15	0.2003	4.16	0.54
313.15	0.1004	5.13	0.62
318.15	1	0.393	0.147
318.15	0.8885	0.603	0.182
318.15	0.8024	0.734	0.201
318.15	0.7001	1.037	0.239
318.15	0.5996	1.22	0.26
318.15	0.4999	1.63	0.31
318.15	0.3996	2.59	0.4
318.15	0.3013	3.4	0.48
318.15	0.2003	4.49	0.57
318.15	0.1004	5.41	0.65
323.15	1	0.498	0.166
323.15	0.8885	0.73	0.2
323.15	0.8024	0.872	0.219
323.15	0.7001	1.22	0.26
323.15	0.5996	1.42	0.28
323.15	0.4999	1.87	0.33
323.15	0.3996	2.95	0.44
323.15	0.3013	3.7	0.5
323.15	0.2003	4.82	0.6
323.15	0.1004	5.69	0.67

System: 1-butyronitrile-3-methylimidazolium tetrafluoroborate + acetonitrile; phases: Liquid
Fixed: Pressure, kPa = 100
Property: Viscosity, Pa*s (Liquid); method: Falling or rolling sphere viscometry
Temperature, K	Mole fraction of 1-butyronitrile-3-methylimidazolium tetrafluoroborate	Viscosity, Pa*s	uncertainty
288.15	1	0.5906	0.0742
288.15	0.8885	0.3728	0.0438
288.15	0.8024	0.287	0.0326
288.15	0.7001	0.1509	0.0159
288.15	0.5996	0.1058	0.0109
288.15	0.4999	0.07281	0.00733
288.15	0.3996	0.03038	0.00305
288.15	0.3013	0.01317	0.00132
288.15	0.2003	0.005545	0.000556
288.15	0.1004	0.001783	0.000179
293.15	1	0.4179	0.0499
293.15	0.8885	0.2665	0.03
293.15	0.8024	0.2077	0.0227
293.15	0.7001	0.1139	0.0118
293.15	0.5996	0.08064	0.00816
293.15	0.4999	0.05655	0.00566
293.15	0.3996	0.02474	0.00248
293.15	0.3013	0.01115	0.00112
293.15	0.2003	0.004901	0.000492
293.15	0.1004	0.001645	0.000165
298.15	1	0.3026	0.0346
298.15	0.8885	0.1956	0.0212
298.15	0.8024	0.1543	0.0163
298.15	0.7001	0.0876	0.0089
298.15	0.5996	0.06296	0.00632
298.15	0.4999	0.04513	0.00453
298.15	0.3996	0.02018	0.00202
298.15	0.3013	0.009572	0.00096
298.15	0.2003	0.004361	0.000437
298.15	0.1004	0.00152	0.000153
303.15	1	0.2233	0.0246
303.15	0.8885	0.147	0.0155
303.15	0.8024	0.1171	0.0121
303.15	0.7001	0.0687	0.0069
303.15	0.5996	0.05009	0.00501
303.15	0.4999	0.03659	0.00367
303.15	0.3996	0.01691	0.0017
303.15	0.3013	0.008303	0.000833
303.15	0.2003	0.003908	0.000392
303.15	0.1004	0.001412	0.000142
308.15	1	0.1699	0.0182
308.15	0.8885	0.1129	0.0117
308.15	0.8024	0.09099	0.00926
308.15	0.7001	0.0549	0.0055
308.15	0.5996	0.04062	0.00407
308.15	0.4999	0.03015	0.00302
308.15	0.3996	0.01447	0.00145
308.15	0.3013	0.007266	0.000729
308.15	0.2003	0.003529	0.000354
308.15	0.1004	0.001315	0.000132
313.15	1	0.1287	0.0134
313.15	0.8885	0.08812	0.00895
313.15	0.8024	0.07179	0.00723
313.15	0.7001	0.04463	0.00448
313.15	0.5996	0.03347	0.00336
313.15	0.4999	0.02523	0.00253
313.15	0.3996	0.01249	0.00125
313.15	0.3013	0.006436	0.000645
313.15	0.2003	0.003204	0.000321
313.15	0.1004	0.001228	0.000123
318.15	1	0.1006	0.0103
318.15	0.8885	0.07008	0.00705
318.15	0.8024	0.05748	0.00576
318.15	0.7001	0.03682	0.00369
318.15	0.5996	0.028	0.00281
318.15	0.4999	0.02138	0.00214
318.15	0.3996	0.01085	0.00109
318.15	0.3013	0.005741	0.000576
318.15	0.2003	0.002936	0.000294
318.15	0.1004	0.001153	0.000116
323.15	1	0.07982	0.00807
323.15	0.8885	0.05676	0.00569
323.15	0.8024	0.04705	0.00472
323.15	0.7001	0.03077	0.00309
323.15	0.5996	0.02376	0.00238
323.15	0.4999	0.01796	0.0018
323.15	0.3996	0.00938	0.000941
323.15	0.3013	0.005152	0.000517
323.15	0.2003	0.002695	0.00027
323.15	0.1004	0.001084	0.000109
