Measured thermophysical data. Partial Molar Volumes, Partial Molar Compressibilities, and Viscosities of alpha,w-Amino Acids in Water and in Aqueous Solutions of Sodium Chloride over a Temperature Range of 293.2-333.2 K
Source: J. Chem. Eng. Data, 2018, 10.1021/acs.jced.8b00236
Compound 1: 2-aminoacetic acid, C2H5NO2, InChI=1S/C2H5NO2/c3-1-2(4)5/h1,3H2,(H,4,5), purity 98%
Compound 2: 3-aminopropanoic acid, C3H7NO2, InChI=1S/C3H7NO2/c4-2-1-3(5)6/h1-2,4H2,(H,5,6), purity 99%
Compound 3: 4-aminobutanoic acid, C4H9NO2, InChI=1S/C4H9NO2/c5-3-1-2-4(6)7/h1-3,5H2,(H,6,7), purity 99%
Compound 4: 5-aminovaleric acid, C5H11NO2, InChI=1S/C5H11NO2/c6-4-2-1-3-5(7)8/h1-4,6H2,(H,7,8), purity 97%
Compound 5: 6-aminohexanoic acid, C6H13NO2, InChI=1S/C6H13NO2/c7-5-3-1-2-4-6(8)9/h1-5,7H2,(H,8,9), purity 99%
Compound 6: sodium chloride, ClNa, InChI=1S/ClH.Na/h1H;/q;+1/p-1, purity 99.5%
Compound 7: water, H2O, InChI=1S/H2O/h1H2, purity 99.9%

System: water; phases: Liquid
Fixed: Pressure, kPa = 75
Property: Mass density, kg/m3 (Liquid); method: Vibrating tube method
Temperature, K	Mass density, kg/m3	uncertainty
288.15	999.096	0.302
293.15	998.203	0.302
298.15	997.044	0.302
303.15	995.648	0.302
308.15	994.031	0.302

System: water; phases: Liquid
Fixed: Pressure, kPa = 75
Fixed: Frequency, MHz = 3
Property: Speed of sound, m/s (Liquid); method: Single path-length method
Temperature, K	Speed of sound, m/s	uncertainty
288.15	1466.46	4
293.15	1482.67	4
298.15	1496.73	4
303.15	1509.08	4
308.15	1519.75	4
293.15	1482.74	4

System: water; phases: Liquid
Fixed: Pressure, kPa = 75
Property: Viscosity, Pa*s (Liquid); method: Capillary tube (Ostwald; Ubbelohde) method
Temperature, K	Viscosity, Pa*s	uncertainty
288.15	0.001146	2.4e-05
293.15	0.001007	2.1e-05
298.15	0.000893	1.9e-05
303.15	0.000797	1.7e-05
308.15	0.000719	1.5e-05
293.15	0.0010043	2.09e-05
298.15	0.0008929	1.86e-05
303.15	0.0007965	1.66e-05
308.15	0.0007187	1.5e-05
293.15	0.001004	2.1e-05

System: 2-aminoacetic acid + water; phases: Liquid
Fixed: Pressure, kPa = 75
Property: Mass density, kg/m3 (Liquid); method: Vibrating tube method
Temperature, K	Molality, mol/kg of 2-aminoacetic acid	Mass density, kg/m3	uncertainty
288.15	0	999.096	0.302
288.15	0.13926	1003.549	0.302
288.15	0.27912	1007.86	0.302
288.15	0.41958	1012.032	0.302
288.15	0.55998	1016.031	0.303
288.15	0.70186	1019.925	0.303
288.15	0.84526	1023.68	0.303
288.15	0.98762	1027.244	0.304
288.15	1.13206	1030.683	0.304
293.15	0	998.203	0.302
293.15	0.13926	1002.609	0.302
293.15	0.27912	1006.868	0.302
293.15	0.41958	1010.973	0.302
293.15	0.55998	1014.915	0.303
293.15	0.70186	1018.739	0.303
293.15	0.84526	1022.45	0.303
293.15	0.98762	1025.962	0.304
293.15	1.13206	1029.367	0.304
298.15	0	997.044	0.302
298.15	0.13926	1001.396	0.302
298.15	0.27912	1005.603	0.302
298.15	0.41958	1009.677	0.302
298.15	0.55998	1013.585	0.303
298.15	0.70186	1017.384	0.303
298.15	0.84526	1021.054	0.303
298.15	0.98762	1024.536	0.304
298.15	1.13206	1027.895	0.304
303.15	0	995.648	0.302
303.15	0.13926	999.949	0.302
303.15	0.27912	1004.114	0.302
303.15	0.41958	1008.148	0.302
303.15	0.55998	1012.029	0.303
303.15	0.70186	1015.8	0.303
303.15	0.84526	1019.441	0.303
303.15	0.98762	1022.907	0.304
303.15	1.13206	1026.269	0.304
308.15	0	994.031	0.302
308.15	0.13926	998.286	0.302
308.15	0.27912	1002.413	0.302
308.15	0.41958	1006.42	0.302
308.15	0.55998	1010.284	0.302
308.15	0.70186	1014.042	0.303
308.15	0.84526	1017.695	0.303
308.15	0.98762	1021.163	0.304
308.15	1.13206	1024.55	0.304

System: 2-aminoacetic acid + water; phases: Liquid
Fixed: Pressure, kPa = 75
Fixed: Frequency, MHz = 3
Property: Speed of sound, m/s (Liquid); method: Single path-length method
Temperature, K	Molality, mol/kg of 2-aminoacetic acid	Speed of sound, m/s	uncertainty
288.15	0	1466.46	4
288.15	0.13926	1474.25	4
288.15	0.27912	1482	4
288.15	0.41958	1489.72	4
288.15	0.55998	1497.38	4
288.15	0.70186	1505	4.01
288.15	0.84526	1512.62	4.01
288.15	0.98762	1520.1	4.01
288.15	1.13206	1527.55	4.01
293.15	0	1482.67	4
293.15	0.13926	1490.22	4
293.15	0.27912	1497.72	4
293.15	0.41958	1505.15	4
293.15	0.55998	1512.49	4
293.15	0.70186	1519.76	4.01
293.15	0.84526	1526.98	4.01
293.15	0.98762	1534.05	4.01
293.15	1.13206	1541.02	4.01
298.15	0	1496.73	4
298.15	0.13926	1504.12	4
298.15	0.27912	1511.44	4
298.15	0.41958	1518.67	4
298.15	0.55998	1525.77	4
298.15	0.70186	1532.81	4.01
298.15	0.84526	1539.82	4.01
298.15	0.98762	1546.6	4.01
298.15	1.13206	1553.33	4.01
303.15	0	1509.08	4
303.15	0.13926	1516.28	4
303.15	0.27912	1523.41	4
303.15	0.41958	1530.47	4
303.15	0.55998	1537.47	4
303.15	0.70186	1544.35	4
303.15	0.84526	1551.2	4.01
303.15	0.98762	1557.84	4.01
303.15	1.13206	1564.52	4.01
308.15	0	1519.75	4
308.15	0.13926	1526.72	4
308.15	0.27912	1533.63	4
308.15	0.41958	1540.48	4
308.15	0.55998	1547.23	4
308.15	0.70186	1553.89	4
308.15	0.84526	1560.55	4.01
308.15	0.98762	1567	4.01
308.15	1.13206	1573.39	4.01

System: 2-aminoacetic acid + water; phases: Liquid
Fixed: Pressure, kPa = 75
Property: Viscosity, Pa*s (Liquid); method: Capillary tube (Ostwald; Ubbelohde) method
Temperature, K	Molality, mol/kg of 2-aminoacetic acid	Viscosity, Pa*s	uncertainty
288.15	0	0.001146	2.4e-05
288.15	0.13926	0.001166	2.4e-05
288.15	0.27912	0.001185	2.5e-05
288.15	0.41958	0.001205	2.5e-05
288.15	0.55998	0.001226	2.5e-05
288.15	0.70186	0.001248	2.6e-05
288.15	0.84526	0.00127	2.6e-05
288.15	0.98762	0.001295	2.7e-05
288.15	1.13206	0.001318	2.7e-05
293.15	0	0.001007	2.1e-05
293.15	0.13926	0.001025	2.1e-05
293.15	0.27912	0.001044	2.2e-05
293.15	0.41958	0.001064	2.2e-05
293.15	0.55998	0.001084	2.3e-05
293.15	0.70186	0.001104	2.3e-05
293.15	0.84526	0.001125	2.3e-05
293.15	0.98762	0.001146	2.4e-05
293.15	1.13206	0.001166	2.4e-05
298.15	0	0.000893	1.9e-05
298.15	0.13926	0.000912	1.9e-05
298.15	0.27912	0.000929	1.9e-05
298.15	0.41958	0.000946	2e-05
298.15	0.55998	0.000964	2e-05
298.15	0.70186	0.000982	2e-05
298.15	0.84526	0.000999	2.1e-05
298.15	0.98762	0.001011	2.1e-05
298.15	1.13206	0.001026	2.1e-05
303.15	0	0.000797	1.7e-05
303.15	0.13926	0.00082	1.7e-05
303.15	0.27912	0.000839	1.7e-05
303.15	0.41958	0.000853	1.8e-05
303.15	0.55998	0.000869	1.8e-05
303.15	0.70186	0.000885	1.8e-05
303.15	0.84526	0.000901	1.9e-05
303.15	0.98762	0.000913	1.9e-05
303.15	1.13206	0.000929	1.9e-05
308.15	0	0.000719	1.5e-05
308.15	0.13926	0.000734	1.5e-05
308.15	0.27912	0.000752	1.6e-05
308.15	0.41958	0.000772	1.6e-05
308.15	0.55998	0.000785	1.6e-05
308.15	0.70186	0.000804	1.7e-05
308.15	0.84526	0.000815	1.7e-05
308.15	0.98762	0.000825	1.7e-05
308.15	1.13206	0.000839	1.8e-05

System: 3-aminopropanoic acid + water; phases: Liquid
Fixed: Pressure, kPa = 75
Property: Mass density, kg/m3 (Liquid); method: Vibrating tube method
Temperature, K	Molality, mol/kg of 3-aminopropanoic acid	Mass density, kg/m3	uncertainty
288.15	0	999.096	0.302
288.15	0.13934	1003.446	0.302
288.15	0.2789	1007.701	0.302
288.15	0.41935	1011.88	0.302
288.15	0.56028	1015.977	0.302
288.15	0.70206	1019.999	0.303
288.15	0.84512	1023.958	0.303
288.15	0.98807	1027.814	0.303
288.15	1.13212	1031.613	0.304
293.15	0	998.203	0.302
293.15	0.13934	1002.507	0.302
293.15	0.2789	1006.718	0.302
293.15	0.41935	1010.859	0.302
293.15	0.56028	1014.912	0.302
293.15	0.70206	1018.896	0.303
293.15	0.84512	1022.818	0.303
293.15	0.98807	1026.644	0.303
293.15	1.13212	1030.404	0.303
298.15	0	997.044	0.302
298.15	0.13934	1001.305	0.302
298.15	0.2789	1005.481	0.302
298.15	0.41935	1009.593	0.302
298.15	0.56028	1013.628	0.302
298.15	0.70206	1017.597	0.303
298.15	0.84512	1021.512	0.303
298.15	0.98807	1025.336	0.303
298.15	1.13212	1029.102	0.303
303.15	0	995.648	0.302
303.15	0.13934	999.877	0.302
303.15	0.2789	1004.017	0.302
303.15	0.41935	1008.089	0.302
303.15	0.56028	1012.078	0.302
303.15	0.70206	1015.999	0.303
303.15	0.84512	1019.86	0.303
303.15	0.98807	1023.63	0.303
303.15	1.13212	1027.33	0.303
308.15	0	994.031	0.302
308.15	0.13934	998.23	0.302
308.15	0.2789	1002.343	0.302
308.15	0.41935	1006.388	0.302
308.15	0.56028	1010.354	0.302
308.15	0.70206	1014.253	0.302
308.15	0.84512	1018.097	0.303
308.15	0.98807	1021.847	0.303
308.15	1.13212	1025.533	0.303

System: 3-aminopropanoic acid + water; phases: Liquid
Fixed: Pressure, kPa = 75
Fixed: Frequency, MHz = 3
Property: Speed of sound, m/s (Liquid); method: Single path-length method
Temperature, K	Molality, mol/kg of 3-aminopropanoic acid	Speed of sound, m/s	uncertainty
288.15	0	1466.46	4
288.15	0.13934	1475.66	4
288.15	0.2789	1484.76	4
288.15	0.41935	1493.8	4
288.15	0.56028	1502.74	4
288.15	0.70206	1511.58	4
288.15	0.84512	1520.37	4
288.15	0.98807	1528.98	4
288.15	1.13212	1537.45	4
293.15	0	1482.74	4
293.15	0.13934	1491.8	4
293.15	0.2789	1500.78	4
293.15	0.41935	1509.66	4
293.15	0.56028	1518.5	4
293.15	0.70206	1527.22	4
293.15	0.84512	1535.88	4
293.15	0.98807	1544.37	4
293.15	1.13212	1552.74	4
298.15	0	1496.73	4
298.15	0.13934	1505.55	4
298.15	0.2789	1514.26	4
298.15	0.41935	1522.91	4
298.15	0.56028	1531.44	4
298.15	0.70206	1539.9	4
298.15	0.84512	1548.24	4
298.15	0.98807	1556.43	4
298.15	1.13212	1564.48	4
303.15	0	1509.08	4
303.15	0.13934	1517.65	4
303.15	0.2789	1526.11	4
303.15	0.41935	1534.5	4
303.15	0.56028	1542.76	4
303.15	0.70206	1550.92	4
303.15	0.84512	1558.99	4
303.15	0.98807	1566.92	4
303.15	1.13212	1574.7	4
308.15	0	1519.75	4
308.15	0.13934	1527.93	4
308.15	0.2789	1536	4
308.15	0.41935	1543.99	4
308.15	0.56028	1551.88	4
308.15	0.70206	1559.67	4
308.15	0.84512	1567.39	4
308.15	0.98807	1574.94	4
308.15	1.13212	1582.29	4

System: 3-aminopropanoic acid + water; phases: Liquid
Fixed: Pressure, kPa = 75
Property: Viscosity, Pa*s (Liquid); method: Capillary tube (Ostwald; Ubbelohde) method
Temperature, K	Molality, mol/kg of 3-aminopropanoic acid	Viscosity, Pa*s	uncertainty
288.15	0	0.001146	2.4e-05
288.15	0.13934	0.001179	2.4e-05
288.15	0.2789	0.001214	2.5e-05
288.15	0.41935	0.001252	2.6e-05
288.15	0.56028	0.001291	2.7e-05
288.15	0.70206	0.001332	2.8e-05
288.15	0.84512	0.001372	2.8e-05
288.15	0.98807	0.001414	2.9e-05
288.15	1.13212	0.00146	3e-05
293.15	0	0.0010043	2.09e-05
293.15	0.13934	0.0010333	2.15e-05
293.15	0.2789	0.0010651	2.21e-05
293.15	0.41935	0.0010992	2.28e-05
293.15	0.56028	0.001134	2.36e-05
293.15	0.70206	0.001174	2.44e-05
293.15	0.84512	0.0012162	2.53e-05
293.15	0.98807	0.001259	2.61e-05
293.15	1.13212	0.0013066	2.71e-05
298.15	0	0.0008929	1.86e-05
298.15	0.13934	0.0009201	1.91e-05
298.15	0.2789	0.0009466	1.97e-05
298.15	0.41935	0.0009744	2.03e-05
298.15	0.56028	0.0009995	2.08e-05
298.15	0.70206	0.0010344	2.15e-05
298.15	0.84512	0.0010623	2.21e-05
298.15	0.98807	0.0010996	2.29e-05
298.15	1.13212	0.0011462	2.38e-05
303.15	0	0.0007965	1.66e-05
303.15	0.13934	0.000824	1.72e-05
303.15	0.2789	0.0008427	1.76e-05
303.15	0.41935	0.0008667	1.8e-05
303.15	0.56028	0.0008942	1.86e-05
303.15	0.70206	0.0009256	1.93e-05
303.15	0.84512	0.000959	2e-05
303.15	0.98807	0.0010006	2.08e-05
303.15	1.13212	0.0010415	2.17e-05
308.15	0	0.0007187	1.5e-05
308.15	0.13934	0.000733	1.53e-05
308.15	0.2789	0.0007526	1.57e-05
308.15	0.41935	0.0007692	1.6e-05
308.15	0.56028	0.0007923	1.65e-05
308.15	0.70206	0.0008219	1.71e-05
308.15	0.84512	0.0008509	1.77e-05
308.15	0.98807	0.0008756	1.82e-05
308.15	1.13212	0.0009126	1.9e-05

System: 4-aminobutanoic acid + water; phases: Liquid
Fixed: Pressure, kPa = 75
Property: Mass density, kg/m3 (Liquid); method: Vibrating tube method
Temperature, K	Molality, mol/kg of 4-aminobutanoic acid	Mass density, kg/m3	uncertainty
288.15	0	999.096	0.302
288.15	0.13892	1003.343	0.302
288.15	0.27884	1007.504	0.302
288.15	0.41943	1011.567	0.302
288.15	0.55997	1015.515	0.302
288.15	0.70197	1019.394	0.303
288.15	0.84493	1023.188	0.303
288.15	0.9892	1026.908	0.303
288.15	1.1322	1030.497	0.304
293.15	0	998.203	0.302
293.15	0.13892	1002.432	0.302
293.15	0.27884	1006.57	0.302
293.15	0.41943	1010.609	0.302
293.15	0.55997	1014.531	0.302
293.15	0.70197	1018.37	0.303
293.15	0.84493	1022.12	0.303
293.15	0.9892	1025.791	0.303
293.15	1.1322	1029.32	0.304
298.15	0	997.044	0.302
298.15	0.13892	1001.25	0.302
298.15	0.27884	1005.354	0.302
298.15	0.41943	1009.356	0.302
298.15	0.55997	1013.224	0.302
298.15	0.70197	1017.007	0.303
298.15	0.84493	1020.701	0.303
298.15	0.9892	1024.314	0.303
298.15	1.1322	1027.754	0.303
303.15	0	995.648	0.302
303.15	0.13892	999.81	0.302
303.15	0.27884	1003.875	0.302
303.15	0.41943	1007.837	0.302
303.15	0.55997	1011.673	0.302
303.15	0.70197	1015.43	0.303
303.15	0.84493	1019.102	0.303
303.15	0.9892	1022.678	0.303
303.15	1.1322	1026.122	0.303
308.15	0	994.031	0.302
308.15	0.13892	998.155	0.302
308.15	0.27884	1002.19	0.302
308.15	0.41943	1006.123	0.302
308.15	0.55997	1009.942	0.302
308.15	0.70197	1013.685	0.302
308.15	0.84493	1017.345	0.303
308.15	0.9892	1020.928	0.303
308.15	1.1322	1024.368	0.303

System: 4-aminobutanoic acid + water; phases: Liquid
Fixed: Pressure, kPa = 75
Fixed: Frequency, MHz = 3
Property: Speed of sound, m/s (Liquid); method: Single path-length method
Temperature, K	Molality, mol/kg of 4-aminobutanoic acid	Speed of sound, m/s	uncertainty
288.15	0	1466.46	4
288.15	0.13892	1478.49	4
288.15	0.27884	1490.3	4
288.15	0.41943	1501.85	4
288.15	0.55997	1513	4
288.15	0.70197	1523.94	4
288.15	0.84493	1534.52	4
288.15	0.9892	1544.77	4
288.15	1.1322	1554.45	4.01
293.15	0	1482.74	4
293.15	0.13892	1494.41	4
293.15	0.27884	1505.98	4
293.15	0.41943	1517.38	4
293.15	0.55997	1528.55	4
293.15	0.70197	1539.64	4
293.15	0.84493	1550.51	4
293.15	0.9892	1561.16	4
293.15	1.1322	1571.53	4.01
298.15	0	1496.73	4
298.15	0.13892	1508.08	4
298.15	0.27884	1519.3	4
298.15	0.41943	1530.34	4
298.15	0.55997	1541.18	4
298.15	0.70197	1551.86	4
298.15	0.84493	1562.24	4
298.15	0.9892	1572.51	4
298.15	1.1322	1582.34	4
303.15	0	1509.08	4
303.15	0.13892	1520.07	4
303.15	0.27884	1530.93	4
303.15	0.41943	1541.63	4
303.15	0.55997	1552.06	4
303.15	0.70197	1562.36	4
303.15	0.84493	1572.39	4
303.15	0.9892	1582.3	4
303.15	1.1322	1591.81	4
308.15	0	1519.75	4
308.15	0.13892	1530.4	4
308.15	0.27884	1540.91	4
308.15	0.41943	1551.29	4
308.15	0.55997	1561.4	4
308.15	0.70197	1571.35	4
308.15	0.84493	1581.05	4
308.15	0.9892	1590.63	4
308.15	1.1322	1599.85	4

System: 4-aminobutanoic acid + water; phases: Liquid
Fixed: Pressure, kPa = 75
Property: Viscosity, Pa*s (Liquid); method: Capillary tube (Ostwald; Ubbelohde) method
Temperature, K	Molality, mol/kg of 4-aminobutanoic acid	Viscosity, Pa*s	uncertainty
288.15	0	0.001146	2.4e-05
288.15	0.13892	0.001204	2.5e-05
288.15	0.27884	0.001252	2.6e-05
288.15	0.41943	0.001313	2.7e-05
288.15	0.55997	0.001376	2.9e-05
288.15	0.70197	0.001452	3e-05
288.15	0.84493	0.001515	3.1e-05
288.15	0.9892	0.001591	3.3e-05
288.15	1.1322	0.001672	3.5e-05
293.15	0	0.001004	2.1e-05
293.15	0.13892	0.001054	2.2e-05
293.15	0.27884	0.001098	2.3e-05
293.15	0.41943	0.001148	2.4e-05
293.15	0.55997	0.001206	2.5e-05
293.15	0.70197	0.001265	2.6e-05
293.15	0.84493	0.001325	2.8e-05
293.15	0.9892	0.001393	2.9e-05
293.15	1.1322	0.001464	3e-05
298.15	0	0.000893	1.9e-05
298.15	0.13892	0.000936	1.9e-05
298.15	0.27884	0.000975	2e-05
298.15	0.41943	0.001022	2.1e-05
298.15	0.55997	0.001068	2.2e-05
298.15	0.70197	0.001125	2.3e-05
298.15	0.84493	0.001178	2.4e-05
298.15	0.9892	0.001243	2.6e-05
298.15	1.1322	0.001307	2.7e-05
303.15	0	0.000797	1.7e-05
303.15	0.13892	0.000835	1.7e-05
303.15	0.27884	0.000874	1.8e-05
303.15	0.41943	0.00091	1.9e-05
303.15	0.55997	0.000955	2e-05
303.15	0.70197	0.000994	2.1e-05
303.15	0.84493	0.001037	2.2e-05
303.15	0.9892	0.001095	2.3e-05
303.15	1.1322	0.001156	2.4e-05
308.15	0	0.000719	1.5e-05
308.15	0.13892	0.000753	1.6e-05
308.15	0.27884	0.000788	1.6e-05
308.15	0.41943	0.000822	1.7e-05
308.15	0.55997	0.000853	1.8e-05
308.15	0.70197	0.000894	1.9e-05
308.15	0.84493	0.00094	2e-05
308.15	0.9892	0.000991	2.1e-05
308.15	1.1322	0.001041	2.2e-05

System: 5-aminovaleric acid + water; phases: Liquid
Fixed: Pressure, kPa = 75
Property: Mass density, kg/m3 (Liquid); method: Vibrating tube method
Temperature, K	Molality, mol/kg of 5-aminovaleric acid	Mass density, kg/m3	uncertainty
288.15	0	999.096	0.302
288.15	0.13885	1003.287	0.302
288.15	0.27893	1007.337	0.302
288.15	0.41928	1011.219	0.303
288.15	0.56042	1014.957	0.304
288.15	0.70251	1018.541	0.305
288.15	0.84485	1021.979	0.306
293.15	0	998.203	0.302
293.15	0.13885	1002.335	0.302
293.15	0.27893	1006.326	0.302
293.15	0.41928	1010.159	0.303
293.15	0.56042	1013.851	0.304
293.15	0.70251	1017.4	0.305
293.15	0.84485	1020.806	0.306
298.15	0	997.044	0.302
298.15	0.13885	1001.149	0.302
298.15	0.27893	1005.161	0.302
298.15	0.41928	1009.057	0.303
298.15	0.56042	1012.855	0.304
298.15	0.70251	1016.559	0.305
298.15	0.84485	1020.15	0.306
303.15	0	995.648	0.302
303.15	0.13885	999.722	0.302
303.15	0.27893	1003.715	0.302
303.15	0.41928	1007.605	0.303
303.15	0.56042	1011.409	0.304
303.15	0.70251	1015.131	0.305
303.15	0.84485	1018.758	0.306
308.15	0	994.031	0.302
308.15	0.13885	998.079	0.302
308.15	0.27893	1002.046	0.302
308.15	0.41928	1005.908	0.303
308.15	0.56042	1009.68	0.304
308.15	0.70251	1013.372	0.305
308.15	0.84485	1016.961	0.306

System: 5-aminovaleric acid + water; phases: Liquid
Fixed: Pressure, kPa = 75
Fixed: Frequency, MHz = 3
Property: Speed of sound, m/s (Liquid); method: Single path-length method
Temperature, K	Molality, mol/kg of 5-aminovaleric acid	Speed of sound, m/s	uncertainty
288.15	0	1466.46	4
288.15	0.13885	1480.95	4
288.15	0.27893	1495.27	4.01
288.15	0.41928	1509.3	4.01
288.15	0.56042	1523.05	4.01
288.15	0.70251	1536.55	4.01
288.15	0.84485	1549.76	4.02
293.15	0	1482.74	4
293.15	0.13885	1496.81	4
293.15	0.27893	1510.68	4.01
293.15	0.41928	1524.25	4.01
293.15	0.56042	1537.46	4.01
293.15	0.70251	1550.38	4.01
293.15	0.84485	1562.89	4.02
298.15	0	1496.73	4
298.15	0.13885	1510.3	4
298.15	0.27893	1523.65	4
298.15	0.41928	1536.65	4.01
298.15	0.56042	1549.33	4.01
298.15	0.70251	1561.64	4.01
298.15	0.84485	1573.51	4.02
303.15	0	1509.08	4
303.15	0.13885	1522.12	4
303.15	0.27893	1534.94	4
303.15	0.41928	1547.4	4.01
303.15	0.56042	1559.55	4.01
303.15	0.70251	1571.34	4.01
303.15	0.84485	1582.66	4.02
308.15	0	1519.75	4
308.15	0.13885	1532.29	4
308.15	0.27893	1544.59	4
308.15	0.41928	1556.55	4.01
308.15	0.56042	1568.15	4.01
308.15	0.70251	1579.39	4.01
308.15	0.84485	1590.15	4.02

System: 5-aminovaleric acid + water; phases: Liquid
Fixed: Pressure, kPa = 75
Property: Viscosity, Pa*s (Liquid); method: Capillary tube (Ostwald; Ubbelohde) method
Temperature, K	Molality, mol/kg of 5-aminovaleric acid	Viscosity, Pa*s	uncertainty
288.15	0	0.001146	2.4e-05
288.15	0.13885	0.001215	2.5e-05
288.15	0.27893	0.001293	2.7e-05
288.15	0.41928	0.00138	2.9e-05
288.15	0.56042	0.001473	3.1e-05
288.15	0.70251	0.001575	3.3e-05
288.15	0.84485	0.001685	3.5e-05
293.15	0	0.001004	2.1e-05
293.15	0.13885	0.001073	2.2e-05
293.15	0.27893	0.001135	2.4e-05
293.15	0.41928	0.001208	2.5e-05
293.15	0.56042	0.001289	2.7e-05
293.15	0.70251	0.001376	2.9e-05
293.15	0.84485	0.001477	3.1e-05
298.15	0	0.000893	1.9e-05
298.15	0.13885	0.000946	2e-05
298.15	0.27893	0.001003	2.1e-05
298.15	0.41928	0.001063	2.2e-05
298.15	0.56042	0.001143	2.4e-05
298.15	0.70251	0.001215	2.5e-05
298.15	0.84485	0.001301	2.7e-05
303.15	0	0.000797	1.7e-05
303.15	0.13885	0.000853	1.8e-05
303.15	0.27893	0.000893	1.9e-05
303.15	0.41928	0.00095	2e-05
303.15	0.56042	0.001013	2.1e-05
303.15	0.70251	0.001077	2.2e-05
303.15	0.84485	0.001158	2.4e-05
308.15	0	0.000719	1.5e-05
308.15	0.13885	0.000762	1.6e-05
308.15	0.27893	0.0008	1.7e-05
308.15	0.41928	0.000848	1.8e-05
308.15	0.56042	0.0009	1.9e-05
308.15	0.70251	0.000957	2e-05
308.15	0.84485	0.001019	2.1e-05

System: 6-aminohexanoic acid + water; phases: Liquid
Fixed: Pressure, kPa = 75
Property: Mass density, kg/m3 (Liquid); method: Vibrating tube method
Temperature, K	Molality, mol/kg of 6-aminohexanoic acid	Mass density, kg/m3	uncertainty
288.15	0	999.096	0.302
288.15	0.13858	1002.94	0.302
288.15	0.27861	1006.69	0.302
288.15	0.41932	1010.337	0.302
288.15	0.56022	1013.859	0.302
288.15	0.70267	1017.3	0.303
288.15	0.84479	1020.618	0.303
288.15	0.98814	1023.855	0.303
288.15	1.13218	1026.992	0.304
293.15	0	998.203	0.302
293.15	0.13858	1001.944	0.302
293.15	0.27861	1005.605	0.302
293.15	0.41932	1009.168	0.302
293.15	0.56022	1012.624	0.302
293.15	0.70267	1016.011	0.303
293.15	0.84479	1019.283	0.303
293.15	0.98814	1022.48	0.303
293.15	1.13218	1025.595	0.304
298.15	0	997.044	0.302
298.15	0.13858	1000.744	0.302
298.15	0.27861	1004.364	0.302
298.15	0.41932	1007.886	0.302
298.15	0.56022	1011.303	0.302
298.15	0.70267	1014.648	0.303
298.15	0.84479	1017.88	0.303
298.15	0.98814	1021.039	0.303
298.15	1.13218	1024.113	0.304
303.15	0	995.648	0.302
303.15	0.13858	999.323	0.302
303.15	0.27861	1002.913	0.302
303.15	0.41932	1006.4	0.302
303.15	0.56022	1009.778	0.302
303.15	0.70267	1013.078	0.303
303.15	0.84479	1016.262	0.303
303.15	0.98814	1019.371	0.303
303.15	1.13218	1022.391	0.303
308.15	0	994.031	0.302
308.15	0.13858	997.675	0.302
308.15	0.27861	1001.238	0.302
308.15	0.41932	1004.702	0.302
308.15	0.56022	1008.061	0.302
308.15	0.70267	1011.349	0.302
308.15	0.84479	1014.523	0.303
308.15	0.98814	1017.623	0.303
308.15	1.13218	1020.639	0.303

System: 6-aminohexanoic acid + water; phases: Liquid
Fixed: Pressure, kPa = 75
Fixed: Frequency, MHz = 3
Property: Speed of sound, m/s (Liquid); method: Single path-length method
Temperature, K	Molality, mol/kg of 6-aminohexanoic acid	Speed of sound, m/s	uncertainty
288.15	0	1466.46	4
288.15	0.13858	1484.13	4
288.15	0.27861	1501.68	4
288.15	0.41932	1518.75	4
288.15	0.56022	1535.45	4
288.15	0.70267	1551.72	4
288.15	0.84479	1566.68	4
288.15	0.98814	1581.41	4.01
288.15	1.13218	1595.3	4.01
293.15	0	1482.74	4
293.15	0.13858	1499.65	4
293.15	0.27861	1516.32	4
293.15	0.41932	1532.59	4
293.15	0.56022	1548.35	4
293.15	0.70267	1563.8	4
293.15	0.84479	1578.3	4
293.15	0.98814	1592.54	4.01
293.15	1.13218	1606.03	4.01
298.15	0	1496.73	4
298.15	0.13858	1513	4
298.15	0.27861	1529	4
298.15	0.41932	1544.62	4
298.15	0.56022	1559.8	4
298.15	0.70267	1574.64	4
298.15	0.84479	1588.61	4
298.15	0.98814	1602.25	4.01
298.15	1.13218	1615.28	4.01
303.15	0	1509.08	4
303.15	0.13858	1524.54	4
303.15	0.27861	1539.8	4
303.15	0.41932	1554.71	4
303.15	0.56022	1569.14	4
303.15	0.70267	1583.25	4
303.15	0.84479	1596.76	4
303.15	0.98814	1609.95	4.01
303.15	1.13218	1622.5	4.01
308.15	0	1519.75	4
308.15	0.13858	1534.59	4
308.15	0.27861	1549.2	4
308.15	0.41932	1563.5	4
308.15	0.56022	1577.38	4
308.15	0.70267	1590.95	4
308.15	0.84479	1603.88	4
308.15	0.98814	1616.43	4.01
308.15	1.13218	1628.42	4.01

System: 6-aminohexanoic acid + water; phases: Liquid
Fixed: Pressure, kPa = 75
Property: Viscosity, Pa*s (Liquid); method: Capillary tube (Ostwald; Ubbelohde) method
Temperature, K	Molality, mol/kg of 6-aminohexanoic acid	Viscosity, Pa*s	uncertainty
288.15	0	0.001146	2.38e-05
288.15	0.13858	0.0012369	2.57e-05
288.15	0.27861	0.0013239	2.75e-05
288.15	0.41932	0.0014301	2.97e-05
288.15	0.56022	0.0015426	3.2e-05
288.15	0.70267	0.0016758	3.47e-05
288.15	0.84479	0.0018036	3.74e-05
288.15	0.98814	0.001945	4.03e-05
288.15	1.13218	0.0021033	4.36e-05
293.15	0	0.001004	2.1e-05
293.15	0.13858	0.001088	2.3e-05
293.15	0.27861	0.001158	2.4e-05
293.15	0.41932	0.00125	2.6e-05
293.15	0.56022	0.001344	2.8e-05
293.15	0.70267	0.001459	3e-05
293.15	0.84479	0.001566	3.2e-05
293.15	0.98814	0.001689	3.5e-05
293.15	1.13218	0.001825	3.8e-05
298.15	0	0.000893	1.9e-05
298.15	0.13858	0.000962	2e-05
298.15	0.27861	0.001025	2.1e-05
298.15	0.41932	0.001103	2.3e-05
298.15	0.56022	0.001183	2.5e-05
298.15	0.70267	0.001277	2.7e-05
298.15	0.84479	0.001377	2.9e-05
298.15	0.98814	0.001481	3.1e-05
298.15	1.13218	0.00159	3.3e-05
303.15	0	0.000797	1.7e-05
303.15	0.13858	0.000865	1.8e-05
303.15	0.27861	0.000916	1.9e-05
303.15	0.41932	0.000984	2e-05
303.15	0.56022	0.001062	2.2e-05
303.15	0.70267	0.001137	2.4e-05
303.15	0.84479	0.001222	2.5e-05
303.15	0.98814	0.001314	2.7e-05
303.15	1.13218	0.001423	3e-05
308.15	0	0.000719	1.5e-05
308.15	0.13858	0.000781	1.6e-05
308.15	0.27861	0.000821	1.7e-05
308.15	0.41932	0.000881	1.8e-05
308.15	0.56022	0.000949	2e-05
308.15	0.70267	0.00102	2.1e-05
308.15	0.84479	0.001096	2.3e-05
308.15	0.98814	0.001177	2.4e-05
308.15	1.13218	0.001267	2.6e-05

System: 2-aminoacetic acid + sodium chloride + water; phases: Liquid
Fixed: Pressure, kPa = 75
Property: Mass density, kg/m3 (Liquid); method: Vibrating tube method
Temperature, K	Solvent: Molality, mol/kg of sodium chloride	Molality, mol/kg of 2-aminoacetic acid	Mass density, kg/m3	uncertainty
288.15	0.15	0	1005.461	0.343
288.15	0.15	0.13846	1009.806	0.345
288.15	0.15	0.27706	1013.99	0.346
288.15	0.15	0.41717	1018.05	0.347
288.15	0.15	0.55726	1021.94	0.348
288.15	0.15	0.69714	1025.671	0.35
288.15	0.15	0.8397	1029.313	0.351
288.15	0.15	0.98158	1032.76	0.352
288.15	0.15	1.12519	1036.11	0.353
293.15	0.15	0	1004.493	0.343
293.15	0.15	0.13846	1008.79	0.344
293.15	0.15	0.27706	1012.938	0.346
293.15	0.15	0.41717	1016.963	0.347
293.15	0.15	0.55726	1020.82	0.348
293.15	0.15	0.69714	1024.527	0.349
293.15	0.15	0.8397	1028.13	0.35
293.15	0.15	0.98158	1031.569	0.352
293.15	0.15	1.12519	1034.886	0.353
298.15	0.15	0	1003.271	0.343
298.15	0.15	0.13846	1007.517	0.344
298.15	0.15	0.27706	1011.62	0.345
298.15	0.15	0.41717	1015.62	0.346
298.15	0.15	0.55726	1019.455	0.348
298.15	0.15	0.69714	1023.145	0.349
298.15	0.15	0.8397	1026.747	0.35
298.15	0.15	0.98158	1030.171	0.351
298.15	0.15	1.12519	1033.489	0.352
303.15	0.15	0	1001.841	0.342
303.15	0.15	0.13846	1006.044	0.344
303.15	0.15	0.27706	1010.113	0.345
303.15	0.15	0.41717	1014.076	0.346
303.15	0.15	0.55726	1017.9	0.347
303.15	0.15	0.69714	1021.57	0.348
303.15	0.15	0.8397	1025.163	0.35
303.15	0.15	0.98158	1028.6	0.351
303.15	0.15	1.12519	1031.91	0.352
308.15	0.15	0	1000.241	0.342
308.15	0.15	0.13846	1004.383	0.343
308.15	0.15	0.27706	1008.383	0.344
308.15	0.15	0.41717	1012.285	0.345
308.15	0.15	0.55726	1016.033	0.347
308.15	0.15	0.69714	1019.64	0.348
308.15	0.15	0.8397	1023.15	0.349
308.15	0.15	0.98158	1026.5	0.35
308.15	0.15	1.12519	1029.745	0.351
288.15	0.25	0	1009.513	0.345
288.15	0.25	0.13772	1013.791	0.346
288.15	0.25	0.27601	1017.971	0.347
288.15	0.25	0.4148	1022.05	0.349
288.15	0.25	0.55422	1026.02	0.35
288.15	0.25	0.69492	1029.918	0.351
288.15	0.25	0.83635	1033.71	0.352
288.15	0.25	0.97851	1037.399	0.354
288.15	0.25	1.12114	1040.999	0.355
293.15	0.25	0	1008.508	0.344
293.15	0.25	0.13772	1012.739	0.346
293.15	0.25	0.27601	1016.867	0.347
293.15	0.25	0.4148	1020.884	0.348
293.15	0.25	0.55422	1024.807	0.349
293.15	0.25	0.69492	1028.645	0.351
293.15	0.25	0.83635	1032.385	0.352
293.15	0.25	0.97851	1036.041	0.353
293.15	0.25	1.12114	1039.576	0.354
298.15	0.25	0	1007.264	0.344
298.15	0.25	0.13772	1011.449	0.345
298.15	0.25	0.27601	1015.541	0.346
298.15	0.25	0.4148	1019.535	0.348
298.15	0.25	0.55422	1023.436	0.349
298.15	0.25	0.69492	1027.266	0.35
298.15	0.25	0.83635	1030.993	0.351
298.15	0.25	0.97851	1034.625	0.353
298.15	0.25	1.12114	1038.157	0.354
303.15	0.25	0	1005.79	0.343
303.15	0.25	0.13772	1009.914	0.345
303.15	0.25	0.27601	1013.946	0.346
303.15	0.25	0.4148	1017.886	0.347
303.15	0.25	0.55422	1021.739	0.348
303.15	0.25	0.69492	1025.522	0.35
303.15	0.25	0.83635	1029.219	0.351
303.15	0.25	0.97851	1032.84	0.352
303.15	0.25	1.12114	1036.355	0.353
308.15	0.25	0	1004.12	0.343
308.15	0.25	0.13772	1008.205	0.344
308.15	0.25	0.27601	1012.202	0.345
308.15	0.25	0.4148	1016.109	0.347
308.15	0.25	0.55422	1019.934	0.348
308.15	0.25	0.69492	1023.689	0.349
308.15	0.25	0.83635	1027.36	0.35
308.15	0.25	0.97851	1030.956	0.351
308.15	0.25	1.12114	1034.444	0.353

System: 2-aminoacetic acid + sodium chloride + water; phases: Liquid
Fixed: Pressure, kPa = 75
Fixed: Frequency, MHz = 3
Property: Speed of sound, m/s (Liquid); method: Single path-length method
Temperature, K	Solvent: Molality, mol/kg of sodium chloride	Molality, mol/kg of 2-aminoacetic acid	Speed of sound, m/s	uncertainty
288.15	0.15	0	1476.59	4.09
288.15	0.15	0.13846	1484.21	4.09
288.15	0.15	0.27706	1491.7	4.09
288.15	0.15	0.41717	1499.13	4.09
288.15	0.15	0.55726	1506.41	4.09
288.15	0.15	0.69714	1513.64	4.09
288.15	0.15	0.8397	1520.92	4.09
288.15	0.15	0.98158	1528.05	4.09
288.15	0.15	1.12519	1535.14	4.09
293.15	0.15	0	1492.23	4.09
293.15	0.15	0.13846	1499.65	4.09
293.15	0.15	0.27706	1506.94	4.09
293.15	0.15	0.41717	1514.25	4.09
293.15	0.15	0.55726	1521.46	4.09
293.15	0.15	0.69714	1528.58	4.09
293.15	0.15	0.8397	1535.69	4.09
293.15	0.15	0.98158	1542.6	4.09
293.15	0.15	1.12519	1549.5	4.09
298.15	0.15	0	1506.09	4.09
298.15	0.15	0.13846	1513.33	4.09
298.15	0.15	0.27706	1520.37	4.09
298.15	0.15	0.41717	1527.46	4.09
298.15	0.15	0.55726	1534.43	4.09
298.15	0.15	0.69714	1541.31	4.09
298.15	0.15	0.8397	1548.19	4.09
298.15	0.15	0.98158	1554.83	4.09
298.15	0.15	1.12519	1561.48	4.09
303.15	0.15	0	1518.18	4.09
303.15	0.15	0.13846	1525.19	4.09
303.15	0.15	0.27706	1532.02	4.09
303.15	0.15	0.41717	1538.91	4.09
303.15	0.15	0.55726	1545.67	4.09
303.15	0.15	0.69714	1552.33	4.09
303.15	0.15	0.8397	1559	4.09
303.15	0.15	0.98158	1565.55	4.09
303.15	0.15	1.12519	1572.01	4.09
308.15	0.15	0	1528.62	4.09
308.15	0.15	0.13846	1535.41	4.09
308.15	0.15	0.27706	1542.14	4.09
308.15	0.15	0.41717	1548.83	4.09
308.15	0.15	0.55726	1555.44	4.09
308.15	0.15	0.69714	1561.94	4.09
308.15	0.15	0.8397	1568.42	4.09
308.15	0.15	0.98158	1574.73	4.09
308.15	0.15	1.12519	1581.04	4.09
288.15	0.25	0	1483.42	4.09
288.15	0.25	0.13772	1491.09	4.09
288.15	0.25	0.27601	1498.69	4.09
288.15	0.25	0.4148	1506.22	4.09
288.15	0.25	0.55422	1513.63	4.09
288.15	0.25	0.69492	1520.99	4.09
288.15	0.25	0.83635	1528.25	4.09
288.15	0.25	0.97851	1535.39	4.09
288.15	0.25	1.12114	1542.4	4.09
293.15	0.25	0	1498.74	4.09
293.15	0.25	0.13772	1506.17	4.09
293.15	0.25	0.27601	1513.55	4.09
293.15	0.25	0.4148	1520.83	4.09
293.15	0.25	0.55422	1528.05	4.09
293.15	0.25	0.69492	1535.08	4.09
293.15	0.25	0.83635	1541.93	4.09
293.15	0.25	0.97851	1548.68	4.09
293.15	0.25	1.12114	1555.15	4.09
298.15	0.25	0	1512.31	4.09
298.15	0.25	0.13772	1519.53	4.09
298.15	0.25	0.27601	1526.67	4.09
298.15	0.25	0.4148	1533.7	4.09
298.15	0.25	0.55422	1540.6	4.09
298.15	0.25	0.69492	1547.33	4.09
298.15	0.25	0.83635	1553.9	4.09
298.15	0.25	0.97851	1560.27	4.09
298.15	0.25	1.12114	1566.49	4.09
303.15	0.25	0	1524.14	4.09
303.15	0.25	0.13772	1531.14	4.09
303.15	0.25	0.27601	1538.05	4.09
303.15	0.25	0.4148	1544.82	4.09
303.15	0.25	0.55422	1551.45	4.09
303.15	0.25	0.69492	1557.99	4.09
303.15	0.25	0.83635	1564.38	4.09
303.15	0.25	0.97851	1570.62	4.09
303.15	0.25	1.12114	1576.65	4.09
308.15	0.25	0	1534.35	4.09
308.15	0.25	0.13772	1541.12	4.09
308.15	0.25	0.27601	1547.84	4.09
308.15	0.25	0.4148	1554.54	4.09
308.15	0.25	0.55422	1561.15	4.09
308.15	0.25	0.69492	1567.65	4.09
308.15	0.25	0.83635	1574.05	4.09
308.15	0.25	0.97851	1580.32	4.09
308.15	0.25	1.12114	1586.45	4.09

System: 2-aminoacetic acid + sodium chloride + water; phases: Liquid
Fixed: Pressure, kPa = 75
Property: Viscosity, Pa*s (Liquid); method: Capillary tube (Ostwald; Ubbelohde) method
Temperature, K	Solvent: Molality, mol/kg of sodium chloride	Molality, mol/kg of 2-aminoacetic acid	Viscosity, Pa*s	uncertainty
288.15	0.15	0	0.001156	2.5e-05
288.15	0.15	0.13846	0.001179	2.5e-05
288.15	0.15	0.27706	0.001203	2.6e-05
288.15	0.15	0.41717	0.001231	2.6e-05
288.15	0.15	0.55726	0.001257	2.7e-05
288.15	0.15	0.69714	0.001283	2.7e-05
288.15	0.15	0.8397	0.001308	2.8e-05
288.15	0.15	0.98158	0.001337	2.8e-05
288.15	0.15	1.12519	0.001365	2.9e-05
293.15	0.15	0	0.001016	2.2e-05
293.15	0.15	0.13846	0.00104	2.2e-05
293.15	0.15	0.27706	0.001067	2.3e-05
293.15	0.15	0.41717	0.001088	2.3e-05
293.15	0.15	0.55726	0.001113	2.4e-05
293.15	0.15	0.69714	0.001136	2.4e-05
293.15	0.15	0.8397	0.001156	2.5e-05
293.15	0.15	0.98158	0.001186	2.5e-05
293.15	0.15	1.12519	0.001208	2.6e-05
298.15	0.15	0	0.000906	1.9e-05
298.15	0.15	0.13846	0.000933	2e-05
298.15	0.15	0.27706	0.000954	2e-05
298.15	0.15	0.41717	0.000974	2.1e-05
298.15	0.15	0.55726	0.000995	2.1e-05
298.15	0.15	0.69714	0.001014	2.2e-05
298.15	0.15	0.8397	0.001033	2.2e-05
298.15	0.15	0.98158	0.001052	2.2e-05
298.15	0.15	1.12519	0.00107	2.3e-05
303.15	0.15	0	0.000812	1.7e-05
303.15	0.15	0.13846	0.000834	1.8e-05
303.15	0.15	0.27706	0.000854	1.8e-05
303.15	0.15	0.41717	0.000873	1.9e-05
303.15	0.15	0.55726	0.000895	1.9e-05
303.15	0.15	0.69714	0.00091	1.9e-05
303.15	0.15	0.8397	0.000927	2e-05
303.15	0.15	0.98158	0.000942	2e-05
303.15	0.15	1.12519	0.000956	2e-05
308.15	0.15	0	0.000732	1.6e-05
308.15	0.15	0.13846	0.000752	1.6e-05
308.15	0.15	0.27706	0.00077	1.6e-05
308.15	0.15	0.41717	0.000788	1.7e-05
308.15	0.15	0.55726	0.000806	1.7e-05
308.15	0.15	0.69714	0.000822	1.7e-05
308.15	0.15	0.8397	0.000834	1.8e-05
308.15	0.15	0.98158	0.000846	1.8e-05
308.15	0.15	1.12519	0.000855	1.8e-05
288.15	0.25	0	0.001166	2.5e-05
288.15	0.25	0.13772	0.001201	2.5e-05
288.15	0.25	0.27601	0.001225	2.6e-05
288.15	0.25	0.4148	0.001252	2.7e-05
288.15	0.25	0.55422	0.001278	2.7e-05
288.15	0.25	0.69492	0.0013	2.8e-05
288.15	0.25	0.83635	0.001331	2.8e-05
288.15	0.25	0.97851	0.001357	2.9e-05
288.15	0.25	1.12114	0.001385	2.9e-05
293.15	0.25	0	0.001025	2.2e-05
293.15	0.25	0.13772	0.001057	2.2e-05
293.15	0.25	0.27601	0.00108	2.3e-05
293.15	0.25	0.4148	0.001106	2.3e-05
293.15	0.25	0.55422	0.001129	2.4e-05
293.15	0.25	0.69492	0.001154	2.4e-05
293.15	0.25	0.83635	0.001176	2.5e-05
293.15	0.25	0.97851	0.001204	2.6e-05
293.15	0.25	1.12114	0.001228	2.6e-05
298.15	0.25	0	0.000913	1.9e-05
298.15	0.25	0.13772	0.000938	2e-05
298.15	0.25	0.27601	0.000963	2e-05
298.15	0.25	0.4148	0.000987	2.1e-05
298.15	0.25	0.55422	0.001006	2.1e-05
298.15	0.25	0.69492	0.001026	2.2e-05
298.15	0.25	0.83635	0.001046	2.2e-05
298.15	0.25	0.97851	0.001068	2.3e-05
298.15	0.25	1.12114	0.001083	2.3e-05
303.15	0.25	0	0.000819	1.7e-05
303.15	0.25	0.13772	0.00084	1.8e-05
303.15	0.25	0.27601	0.000864	1.8e-05
303.15	0.25	0.4148	0.000882	1.9e-05
303.15	0.25	0.55422	0.000903	1.9e-05
303.15	0.25	0.69492	0.000922	2e-05
303.15	0.25	0.83635	0.00094	2e-05
303.15	0.25	0.97851	0.000953	2e-05
303.15	0.25	1.12114	0.000966	2.1e-05
308.15	0.25	0	0.000739	1.6e-05
308.15	0.25	0.13772	0.00076	1.6e-05
308.15	0.25	0.27601	0.00078	1.7e-05
308.15	0.25	0.4148	0.000802	1.7e-05
308.15	0.25	0.55422	0.000819	1.7e-05
308.15	0.25	0.69492	0.000835	1.8e-05
308.15	0.25	0.83635	0.000852	1.8e-05
308.15	0.25	0.97851	0.000864	1.8e-05
308.15	0.25	1.12114	0.000877	1.9e-05

System: 3-aminopropanoic acid + sodium chloride + water; phases: Liquid
Fixed: Pressure, kPa = 75
Property: Mass density, kg/m3 (Liquid); method: Vibrating tube method
Temperature, K	Solvent: Molality, mol/kg of sodium chloride	Molality, mol/kg of 3-aminopropanoic acid	Mass density, kg/m3	uncertainty
288.15	0.15	0	1005.448	0.311
288.15	0.15	0.13826	1009.681	0.311
288.15	0.15	0.27715	1013.838	0.312
288.15	0.15	0.41677	1017.919	0.313
288.15	0.15	0.55723	1021.93	0.313
288.15	0.15	0.69807	1025.86	0.314
288.15	0.15	0.8399	1029.724	0.314
288.15	0.15	0.98188	1033.498	0.315
288.15	0.15	1.12504	1037.21	0.315
293.15	0.15	0	1004.481	0.311
293.15	0.15	0.13826	1008.666	0.311
293.15	0.15	0.27715	1012.775	0.312
293.15	0.15	0.41677	1016.813	0.312
293.15	0.15	0.55723	1020.783	0.313
293.15	0.15	0.69807	1024.668	0.313
293.15	0.15	0.8399	1028.489	0.314
293.15	0.15	0.98188	1032.225	0.314
293.15	0.15	1.12504	1035.9	0.315
298.15	0.15	0	1003.259	0.311
298.15	0.15	0.13826	1007.407	0.311
298.15	0.15	0.27715	1011.479	0.312
298.15	0.15	0.41677	1015.48	0.312
298.15	0.15	0.55723	1019.409	0.313
298.15	0.15	0.69807	1023.259	0.313
298.15	0.15	0.8399	1027.046	0.314
298.15	0.15	0.98188	1030.75	0.314
298.15	0.15	1.12504	1034.395	0.315
303.15	0.15	0	1001.829	0.311
303.15	0.15	0.13826	1005.946	0.311
303.15	0.15	0.27715	1009.986	0.312
303.15	0.15	0.41677	1013.953	0.312
303.15	0.15	0.55723	1017.852	0.313
303.15	0.15	0.69807	1021.67	0.313
303.15	0.15	0.8399	1025.42	0.314
303.15	0.15	0.98188	1029.088	0.314
303.15	0.15	1.12504	1032.69	0.315
308.15	0.15	0	1000.229	0.31
308.15	0.15	0.13826	1004.305	0.311
308.15	0.15	0.27715	1008.308	0.311
308.15	0.15	0.41677	1012.239	0.312
308.15	0.15	0.55723	1016.106	0.312
308.15	0.15	0.69807	1019.892	0.313
308.15	0.15	0.8399	1023.622	0.313
308.15	0.15	0.98188	1027.27	0.314
308.15	0.15	1.12504	1030.86	0.314
288.15	0.25	0	1009.507	0.311
288.15	0.25	0.1376	1013.647	0.312
288.15	0.25	0.2761	1017.714	0.312
288.15	0.25	0.4149	1021.69	0.313
288.15	0.25	0.5547	1025.6	0.314
288.15	0.25	0.6951	1029.429	0.314
288.15	0.25	0.8363	1033.189	0.315
288.15	0.25	0.9782	1036.875	0.315
288.15	0.25	1.1202	1040.471	0.316
293.15	0.25	0	1008.502	0.311
293.15	0.25	0.1376	1012.596	0.312
293.15	0.25	0.2761	1016.621	0.312
293.15	0.25	0.4149	1020.557	0.313
293.15	0.25	0.5547	1024.428	0.313
293.15	0.25	0.6951	1028.227	0.314
293.15	0.25	0.8363	1031.949	0.314
293.15	0.25	0.9782	1035.596	0.315
293.15	0.25	1.1202	1039.159	0.315
298.15	0.25	0	1007.259	0.311
298.15	0.25	0.1376	1011.316	0.312
298.15	0.25	0.2761	1015.306	0.312
298.15	0.25	0.4149	1019.212	0.313
298.15	0.25	0.5547	1023.056	0.313
298.15	0.25	0.6951	1026.829	0.314
298.15	0.25	0.8363	1030.537	0.314
298.15	0.25	0.9782	1034.169	0.315
298.15	0.25	1.1202	1037.71	0.315
303.15	0.25	0	1005.784	0.311
303.15	0.25	0.1376	1009.809	0.312
303.15	0.25	0.2761	1013.768	0.312
303.15	0.25	0.4149	1017.643	0.313
303.15	0.25	0.5547	1021.456	0.313
303.15	0.25	0.6951	1025.201	0.314
303.15	0.25	0.8363	1028.872	0.314
303.15	0.25	0.9782	1032.479	0.314
303.15	0.25	1.1202	1035.999	0.315
308.15	0.25	0	1004.115	0.311
308.15	0.25	0.1376	1008.115	0.311
308.15	0.25	0.2761	1012.052	0.312
308.15	0.25	0.4149	1015.91	0.312
308.15	0.25	0.5547	1019.709	0.313
308.15	0.25	0.6951	1023.441	0.313
308.15	0.25	0.8363	1027.108	0.314
308.15	0.25	0.9782	1030.706	0.314
308.15	0.25	1.1202	1034.222	0.315

System: 3-aminopropanoic acid + sodium chloride + water; phases: Liquid
Fixed: Pressure, kPa = 75
Fixed: Frequency, MHz = 3
Property: Speed of sound, m/s (Liquid); method: Single path-length method
Temperature, K	Solvent: Molality, mol/kg of sodium chloride	Molality, mol/kg of 3-aminopropanoic acid	Speed of sound, m/s	uncertainty
288.15	0.15	0	1476.63	4.04
288.15	0.15	0.13826	1485.9	4.04
288.15	0.15	0.27715	1495.1	4.04
288.15	0.15	0.41677	1504.23	4.04
288.15	0.15	0.55723	1513.28	4.04
288.15	0.15	0.69807	1522.18	4.04
288.15	0.15	0.8399	1530.97	4.04
288.15	0.15	0.98188	1539.64	4.04
288.15	0.15	1.12504	1548.12	4.04
293.15	0.15	0	1492.27	4.04
293.15	0.15	0.13826	1501.18	4.04
293.15	0.15	0.27715	1510.03	4.04
293.15	0.15	0.41677	1518.81	4.04
293.15	0.15	0.55723	1527.53	4.04
293.15	0.15	0.69807	1536.15	4.04
293.15	0.15	0.8399	1544.64	4.04
293.15	0.15	0.98188	1553.02	4.04
293.15	0.15	1.12504	1561.2	4.04
298.15	0.15	0	1506.15	4.04
298.15	0.15	0.13826	1514.76	4.04
298.15	0.15	0.27715	1523.31	4.04
298.15	0.15	0.41677	1531.79	4.04
298.15	0.15	0.55723	1540.21	4.04
298.15	0.15	0.69807	1548.5	4.04
298.15	0.15	0.8399	1556.72	4.04
298.15	0.15	0.98188	1564.78	4.04
298.15	0.15	1.12504	1572.68	4.04
303.15	0.15	0	1518.25	4.04
303.15	0.15	0.13826	1526.58	4.04
303.15	0.15	0.27715	1534.85	4.04
303.15	0.15	0.41677	1543.06	4.04
303.15	0.15	0.55723	1551.2	4.04
303.15	0.15	0.69807	1559.23	4.04
303.15	0.15	0.8399	1567.15	4.04
303.15	0.15	0.98188	1574.92	4.04
303.15	0.15	1.12504	1582.63	4.04
308.15	0.15	0	1528.68	4.04
308.15	0.15	0.13826	1536.75	4.04
308.15	0.15	0.27715	1544.77	4.04
308.15	0.15	0.41677	1552.73	4.04
308.15	0.15	0.55723	1560.63	4.04
308.15	0.15	0.69807	1568.44	4.04
308.15	0.15	0.8399	1576.13	4.04
308.15	0.15	0.98188	1583.73	4.04
308.15	0.15	1.12504	1591.25	4.04
288.15	0.25	0	1483.6	4.04
288.15	0.25	0.1376	1492.81	4.04
288.15	0.25	0.2761	1501.93	4.04
288.15	0.25	0.4149	1510.93	4.04
288.15	0.25	0.5547	1519.82	4.04
288.15	0.25	0.6951	1528.55	4.04
288.15	0.25	0.8363	1537.2	4.04
288.15	0.25	0.9782	1545.59	4.04
288.15	0.25	1.1202	1553.83	4.04
293.15	0.25	0	1498.9	4.04
293.15	0.25	0.1376	1507.78	4.04
293.15	0.25	0.2761	1516.57	4.04
293.15	0.25	0.4149	1525.25	4.04
293.15	0.25	0.5547	1533.79	4.04
293.15	0.25	0.6951	1542.22	4.04
293.15	0.25	0.8363	1550.51	4.04
293.15	0.25	0.9782	1558.62	4.04
293.15	0.25	1.1202	1566.57	4.04
298.15	0.25	0	1512.48	4.04
298.15	0.25	0.1376	1521.06	4.04
298.15	0.25	0.2761	1529.55	4.04
298.15	0.25	0.4149	1537.91	4.04
298.15	0.25	0.5547	1546.17	4.04
298.15	0.25	0.6951	1554.32	4.04
298.15	0.25	0.8363	1562.32	4.04
298.15	0.25	0.9782	1570.17	4.04
298.15	0.25	1.1202	1577.79	4.04
303.15	0.25	0	1524.31	4.04
303.15	0.25	0.1376	1532.62	4.04
303.15	0.25	0.2761	1540.85	4.04
303.15	0.25	0.4149	1548.95	4.04
303.15	0.25	0.5547	1556.96	4.04
303.15	0.25	0.6951	1564.8	4.04
303.15	0.25	0.8363	1572.56	4.04
303.15	0.25	0.9782	1580.14	4.04
303.15	0.25	1.1202	1587.5	4.04
308.15	0.25	0	1534.53	4.04
308.15	0.25	0.1376	1542.35	4.04
308.15	0.25	0.2761	1550.07	4.04
308.15	0.25	0.4149	1557.64	4.04
308.15	0.25	0.5547	1565.1	4.04
308.15	0.25	0.6951	1572.39	4.04
308.15	0.25	0.8363	1579.54	4.04
308.15	0.25	0.9782	1586.51	4.04
308.15	0.25	1.1202	1593.25	4.04

System: 3-aminopropanoic acid + sodium chloride + water; phases: Liquid
Fixed: Pressure, kPa = 75
Property: Viscosity, Pa*s (Liquid); method: Capillary tube (Ostwald; Ubbelohde) method
Temperature, K	Solvent: Molality, mol/kg of sodium chloride	Molality, mol/kg of 3-aminopropanoic acid	Viscosity, Pa*s	uncertainty
288.15	0.15	0	0.001156	2.4e-05
288.15	0.15	0.13826	0.001206	2.5e-05
288.15	0.15	0.27715	0.001252	2.6e-05
288.15	0.15	0.41677	0.001292	2.7e-05
288.15	0.15	0.55723	0.001333	2.8e-05
288.15	0.15	0.69807	0.001376	2.9e-05
288.15	0.15	0.8399	0.001419	3e-05
288.15	0.15	0.98188	0.00146	3.1e-05
288.15	0.15	1.12504	0.001498	3.1e-05
293.15	0.15	0	0.001016	2.1e-05
293.15	0.15	0.13826	0.00106	2.2e-05
293.15	0.15	0.27715	0.001096	2.3e-05
293.15	0.15	0.41677	0.001137	2.4e-05
293.15	0.15	0.55723	0.001176	2.5e-05
293.15	0.15	0.69807	0.001215	2.5e-05
293.15	0.15	0.8399	0.001256	2.6e-05
293.15	0.15	0.98188	0.001304	2.7e-05
293.15	0.15	1.12504	0.001345	2.8e-05
298.15	0.15	0	0.000906	1.9e-05
298.15	0.15	0.13826	0.000947	2e-05
298.15	0.15	0.27715	0.000972	2e-05
298.15	0.15	0.41677	0.001007	2.1e-05
298.15	0.15	0.55723	0.001042	2.2e-05
298.15	0.15	0.69807	0.001077	2.3e-05
298.15	0.15	0.8399	0.001115	2.3e-05
298.15	0.15	0.98188	0.001153	2.4e-05
298.15	0.15	1.12504	0.001186	2.5e-05
303.15	0.15	0	0.000812	1.7e-05
303.15	0.15	0.13826	0.000838	1.8e-05
303.15	0.15	0.27715	0.000868	1.8e-05
303.15	0.15	0.41677	0.000896	1.9e-05
303.15	0.15	0.55723	0.00093	2e-05
303.15	0.15	0.69807	0.000961	2e-05
303.15	0.15	0.8399	0.000993	2.1e-05
303.15	0.15	0.98188	0.001031	2.2e-05
303.15	0.15	1.12504	0.001063	2.2e-05
308.15	0.15	0	0.000732	1.5e-05
308.15	0.15	0.13826	0.000758	1.6e-05
308.15	0.15	0.27715	0.000775	1.6e-05
308.15	0.15	0.41677	0.000806	1.7e-05
308.15	0.15	0.55723	0.000834	1.8e-05
308.15	0.15	0.69807	0.000866	1.8e-05
308.15	0.15	0.8399	0.000901	1.9e-05
308.15	0.15	0.98188	0.000932	2e-05
308.15	0.15	1.12504	0.000969	2e-05
288.15	0.25	0	0.001166	2.4e-05
288.15	0.25	0.1376	0.00121	2.5e-05
288.15	0.25	0.2761	0.001257	2.6e-05
288.15	0.25	0.4149	0.001301	2.7e-05
288.15	0.25	0.5547	0.001342	2.8e-05
288.15	0.25	0.6951	0.001381	2.9e-05
288.15	0.25	0.8363	0.001416	3e-05
288.15	0.25	0.9782	0.001449	3e-05
288.15	0.25	1.1202	0.001478	3.1e-05
293.15	0.25	0	0.001025	2.1e-05
293.15	0.25	0.1376	0.001066	2.2e-05
293.15	0.25	0.2761	0.001111	2.3e-05
293.15	0.25	0.4149	0.001146	2.4e-05
293.15	0.25	0.5547	0.001187	2.5e-05
293.15	0.25	0.6951	0.001227	2.6e-05
293.15	0.25	0.8363	0.001267	2.7e-05
293.15	0.25	0.9782	0.001306	2.7e-05
293.15	0.25	1.1202	0.001344	2.8e-05
298.15	0.25	0	0.000913	1.9e-05
298.15	0.25	0.1376	0.000951	2e-05
298.15	0.25	0.2761	0.000987	2.1e-05
298.15	0.25	0.4149	0.001021	2.1e-05
298.15	0.25	0.5547	0.001054	2.2e-05
298.15	0.25	0.6951	0.001087	2.3e-05
298.15	0.25	0.8363	0.001119	2.3e-05
298.15	0.25	0.9782	0.001155	2.4e-05
298.15	0.25	1.1202	0.001192	2.5e-05
303.15	0.25	0	0.000819	1.7e-05
303.15	0.25	0.1376	0.000852	1.8e-05
303.15	0.25	0.2761	0.000882	1.9e-05
303.15	0.25	0.4149	0.000913	1.9e-05
303.15	0.25	0.5547	0.00094	2e-05
303.15	0.25	0.6951	0.000971	2e-05
303.15	0.25	0.8363	0.000999	2.1e-05
303.15	0.25	0.9782	0.001033	2.2e-05
303.15	0.25	1.1202	0.001066	2.2e-05
308.15	0.25	0	0.000739	1.6e-05
308.15	0.25	0.1376	0.000769	1.6e-05
308.15	0.25	0.2761	0.000794	1.7e-05
308.15	0.25	0.4149	0.000821	1.7e-05
308.15	0.25	0.5547	0.000849	1.8e-05
308.15	0.25	0.6951	0.000878	1.8e-05
308.15	0.25	0.8363	0.000909	1.9e-05
308.15	0.25	0.9782	0.000941	2e-05
308.15	0.25	1.1202	0.000975	2e-05

System: 4-aminobutanoic acid + sodium chloride + water; phases: Liquid
Fixed: Pressure, kPa = 75
Property: Mass density, kg/m3 (Liquid); method: Vibrating tube method
Temperature, K	Solvent: Molality, mol/kg of sodium chloride	Molality, mol/kg of 4-aminobutanoic acid	Mass density, kg/m3	uncertainty
288.15	0.15	0	1005.461	0.311
288.15	0.15	0.13826	1009.63	0.311
288.15	0.15	0.27663	1013.681	0.312
288.15	0.15	0.41684	1017.668	0.312
288.15	0.15	0.55704	1021.535	0.313
288.15	0.15	0.69787	1025.306	0.313
288.15	0.15	0.83987	1028.997	0.314
288.15	0.15	0.98233	1032.593	0.314
288.15	0.15	1.12544	1036.09	0.315
293.15	0.15	0	1004.424	0.311
293.15	0.15	0.13826	1008.565	0.311
293.15	0.15	0.27663	1012.583	0.312
293.15	0.15	0.41684	1016.533	0.312
293.15	0.15	0.55704	1020.355	0.313
293.15	0.15	0.69787	1024.075	0.313
293.15	0.15	0.83987	1027.708	0.314
293.15	0.15	0.98233	1031.23	0.314
293.15	0.15	1.12544	1034.651	0.315
298.15	0.15	0	1003.273	0.311
298.15	0.15	0.13826	1007.389	0.311
298.15	0.15	0.27663	1011.378	0.312
298.15	0.15	0.41684	1015.287	0.312
298.15	0.15	0.55704	1019.065	0.313
298.15	0.15	0.69787	1022.731	0.313
298.15	0.15	0.83987	1026.306	0.314
298.15	0.15	0.98233	1029.763	0.314
298.15	0.15	1.12544	1033.105	0.315
303.15	0.15	0	1001.734	0.311
303.15	0.15	0.13826	1005.817	0.311
303.15	0.15	0.27663	1009.775	0.312
303.15	0.15	0.41684	1013.659	0.312
303.15	0.15	0.55704	1017.418	0.312
303.15	0.15	0.69787	1021.074	0.313
303.15	0.15	0.83987	1024.628	0.313
303.15	0.15	0.98233	1028.083	0.314
303.15	0.15	1.12544	1031.44	0.314
308.15	0.15	0	1000.095	0.31
308.15	0.15	0.13826	1004.13	0.311
308.15	0.15	0.27663	1008.055	0.311
308.15	0.15	0.41684	1011.921	0.312
308.15	0.15	0.55704	1015.675	0.312
308.15	0.15	0.69787	1019.335	0.313
308.15	0.15	0.83987	1022.921	0.313
308.15	0.15	0.98233	1026.416	0.314
308.15	0.15	1.12544	1029.827	0.314
288.15	0.25	0	1009.512	0.311
288.15	0.25	0.1374	1013.579	0.312
288.15	0.25	0.2761	1017.549	0.312
288.15	0.25	0.4145	1021.373	0.313
288.15	0.25	0.5547	1025.115	0.313
288.15	0.25	0.6949	1028.725	0.314
288.15	0.25	0.8365	1032.242	0.314
288.15	0.25	0.9778	1035.636	0.315
288.15	0.25	1.1205	1038.94	0.315
293.15	0.25	0	1008.507	0.311
293.15	0.25	0.1374	1012.569	0.312
293.15	0.25	0.2761	1016.552	0.312
293.15	0.25	0.4145	1020.414	0.313
293.15	0.25	0.5547	1024.215	0.313
293.15	0.25	0.6949	1027.904	0.314
293.15	0.25	0.8365	1031.526	0.314
293.15	0.25	0.9778	1035.034	0.315
293.15	0.25	1.1205	1038.47	0.315
298.15	0.25	0	1007.263	0.311
298.15	0.25	0.1374	1011.301	0.312
298.15	0.25	0.2761	1015.251	0.312
298.15	0.25	0.4145	1019.068	0.313
298.15	0.25	0.5547	1022.818	0.313
298.15	0.25	0.6949	1026.44	0.314
298.15	0.25	0.8365	1029.99	0.314
298.15	0.25	0.9778	1033.416	0.315
298.15	0.25	1.1205	1036.768	0.315
303.15	0.25	0	1005.789	0.311
303.15	0.25	0.1374	1009.788	0.312
303.15	0.25	0.2761	1013.703	0.312
303.15	0.25	0.4145	1017.492	0.312
303.15	0.25	0.5547	1021.213	0.313
303.15	0.25	0.6949	1024.82	0.313
303.15	0.25	0.8365	1028.352	0.314
303.15	0.25	0.9778	1031.76	0.314
303.15	0.25	1.1205	1035.108	0.315
308.15	0.25	0	1004.119	0.311
308.15	0.25	0.1374	1008.082	0.311
308.15	0.25	0.2761	1011.966	0.312
308.15	0.25	0.4145	1015.729	0.312
308.15	0.25	0.5547	1019.433	0.313
308.15	0.25	0.6949	1023.021	0.313
308.15	0.25	0.8365	1026.532	0.314
308.15	0.25	0.9778	1029.943	0.314
308.15	0.25	1.1205	1033.275	0.315

System: 4-aminobutanoic acid + sodium chloride + water; phases: Liquid
Fixed: Pressure, kPa = 75
Fixed: Frequency, MHz = 3
Property: Speed of sound, m/s (Liquid); method: Single path-length method
Temperature, K	Solvent: Molality, mol/kg of sodium chloride	Molality, mol/kg of 4-aminobutanoic acid	Speed of sound, m/s	uncertainty
288.15	0.15	0	1476.55	4.04
288.15	0.15	0.13826	1488.54	4.04
288.15	0.15	0.27663	1500.34	4.04
288.15	0.15	0.41684	1512.1	4.04
288.15	0.15	0.55704	1523.67	4.04
288.15	0.15	0.69787	1535.03	4.04
288.15	0.15	0.83987	1546.21	4.04
288.15	0.15	0.98233	1557.17	4.04
288.15	0.15	1.12544	1567.86	4.04
293.15	0.15	0	1492.17	4.04
293.15	0.15	0.13826	1503.72	4.04
293.15	0.15	0.27663	1515.08	4.04
293.15	0.15	0.41684	1526.41	4.04
293.15	0.15	0.55704	1537.5	4.04
293.15	0.15	0.69787	1548.42	4.04
293.15	0.15	0.83987	1559.14	4.04
293.15	0.15	0.98233	1569.65	4.04
293.15	0.15	1.12544	1579.9	4.04
298.15	0.15	0	1506.05	4.04
298.15	0.15	0.13826	1517.17	4.04
298.15	0.15	0.27663	1528.12	4.04
298.15	0.15	0.41684	1539.02	4.04
298.15	0.15	0.55704	1549.72	4.04
298.15	0.15	0.69787	1560.24	4.04
298.15	0.15	0.83987	1570.6	4.04
298.15	0.15	0.98233	1580.76	4.04
298.15	0.15	1.12544	1590.7	4.04
303.15	0.15	0	1518.14	4.04
303.15	0.15	0.13826	1528.93	4.04
303.15	0.15	0.27663	1539.54	4.04
303.15	0.15	0.41684	1550.08	4.04
303.15	0.15	0.55704	1560.41	4.04
303.15	0.15	0.69787	1570.55	4.04
303.15	0.15	0.83987	1580.53	4.04
303.15	0.15	0.98233	1590.28	4.04
303.15	0.15	1.12544	1599.78	4.04
308.15	0.15	0	1528.58	4.04
308.15	0.15	0.13826	1538.99	4.04
308.15	0.15	0.27663	1549.23	4.04
308.15	0.15	0.41684	1559.41	4.04
308.15	0.15	0.55704	1569.4	4.04
308.15	0.15	0.69787	1579.22	4.04
308.15	0.15	0.83987	1588.89	4.04
308.15	0.15	0.98233	1598.37	4.04
308.15	0.15	1.12544	1607.63	4.04
288.15	0.25	0	1483.39	4.04
288.15	0.25	0.1374	1495.11	4.04
288.15	0.25	0.2761	1506.77	4.04
288.15	0.25	0.4145	1518.22	4.04
288.15	0.25	0.5547	1529.59	4.04
288.15	0.25	0.6949	1540.74	4.04
288.15	0.25	0.8365	1551.74	4.04
288.15	0.25	0.9778	1562.41	4.04
288.15	0.25	1.1205	1573	4.04
293.15	0.25	0	1498.69	4.04
293.15	0.25	0.1374	1510.19	4.04
293.15	0.25	0.2761	1521.62	4.04
293.15	0.25	0.4145	1532.85	4.04
293.15	0.25	0.5547	1544.01	4.04
293.15	0.25	0.6949	1554.9	4.04
293.15	0.25	0.8365	1565.65	4.04
293.15	0.25	0.9778	1576.16	4.04
293.15	0.25	1.1205	1586.42	4.04
298.15	0.25	0	1512.28	4.04
298.15	0.25	0.1374	1523.43	4.04
298.15	0.25	0.2761	1534.53	4.04
298.15	0.25	0.4145	1545.44	4.04
298.15	0.25	0.5547	1556.2	4.04
298.15	0.25	0.6949	1566.72	4.04
298.15	0.25	0.8365	1577.05	4.04
298.15	0.25	0.9778	1586.96	4.04
298.15	0.25	1.1205	1596.8	4.04
303.15	0.25	0	1524.13	4.04
303.15	0.25	0.1374	1534.9	4.04
303.15	0.25	0.2761	1545.58	4.04
303.15	0.25	0.4145	1556.03	4.04
303.15	0.25	0.5547	1566.42	4.04
303.15	0.25	0.6949	1576.46	4.04
303.15	0.25	0.8365	1586.25	4.04
303.15	0.25	0.9778	1595.79	4.04
303.15	0.25	1.1205	1604.8	4.04
308.15	0.25	0	1534.34	4.04
308.15	0.25	0.1374	1544.73	4.04
308.15	0.25	0.2761	1555	4.04
308.15	0.25	0.4145	1565.13	4.04
308.15	0.25	0.5547	1575.1	4.04
308.15	0.25	0.6949	1584.8	4.04
308.15	0.25	0.8365	1594.21	4.04
308.15	0.25	0.9778	1603.25	4.04
308.15	0.25	1.1205	1611.95	4.04

System: 4-aminobutanoic acid + sodium chloride + water; phases: Liquid
Fixed: Pressure, kPa = 75
Property: Viscosity, Pa*s (Liquid); method: Capillary tube (Ostwald; Ubbelohde) method
Temperature, K	Solvent: Molality, mol/kg of sodium chloride	Molality, mol/kg of 4-aminobutanoic acid	Viscosity, Pa*s	uncertainty
288.15	0.15	0	0.001158	2.4e-05
288.15	0.15	0.13826	0.001232	2.6e-05
288.15	0.15	0.27663	0.001288	2.7e-05
288.15	0.15	0.41684	0.001349	2.8e-05
288.15	0.15	0.55704	0.001414	3e-05
288.15	0.15	0.69787	0.001484	3.1e-05
288.15	0.15	0.83987	0.00156	3.3e-05
288.15	0.15	0.98233	0.001629	3.4e-05
288.15	0.15	1.12544	0.00169	3.5e-05
293.15	0.15	0	0.001016	2.1e-05
293.15	0.15	0.13826	0.001081	2.3e-05
293.15	0.15	0.27663	0.001131	2.4e-05
293.15	0.15	0.41684	0.001189	2.5e-05
293.15	0.15	0.55704	0.001236	2.6e-05
293.15	0.15	0.69787	0.001303	2.7e-05
293.15	0.15	0.83987	0.00137	2.9e-05
293.15	0.15	0.98233	0.001436	3e-05
293.15	0.15	1.12544	0.001494	3.1e-05
298.15	0.15	0	0.000905	1.9e-05
298.15	0.15	0.13826	0.00096	2e-05
298.15	0.15	0.27663	0.001006	2.1e-05
298.15	0.15	0.41684	0.00105	2.2e-05
298.15	0.15	0.55704	0.001098	2.3e-05
298.15	0.15	0.69787	0.001154	2.4e-05
298.15	0.15	0.83987	0.001211	2.5e-05
298.15	0.15	0.98233	0.001263	2.6e-05
298.15	0.15	1.12544	0.00132	2.8e-05
303.15	0.15	0	0.00081	1.7e-05
303.15	0.15	0.13826	0.00086	1.8e-05
303.15	0.15	0.27663	0.0009	1.9e-05
303.15	0.15	0.41684	0.000941	2e-05
303.15	0.15	0.55704	0.000982	2.1e-05
303.15	0.15	0.69787	0.001028	2.2e-05
303.15	0.15	0.83987	0.001075	2.3e-05
303.15	0.15	0.98233	0.001126	2.4e-05
303.15	0.15	1.12544	0.001179	2.5e-05
308.15	0.15	0	0.000731	1.5e-05
308.15	0.15	0.13826	0.000774	1.6e-05
308.15	0.15	0.27663	0.000808	1.7e-05
308.15	0.15	0.41684	0.000848	1.8e-05
308.15	0.15	0.55704	0.000884	1.9e-05
308.15	0.15	0.69787	0.000926	1.9e-05
308.15	0.15	0.83987	0.000973	2e-05
308.15	0.15	0.98233	0.001018	2.1e-05
308.15	0.15	1.12544	0.001071	2.2e-05
288.15	0.25	0	0.001166	2.4e-05
288.15	0.25	0.1374	0.001236	2.6e-05
288.15	0.25	0.2761	0.001312	2.7e-05
288.15	0.25	0.4145	0.001378	2.9e-05
288.15	0.25	0.5547	0.001454	3e-05
288.15	0.25	0.6949	0.001531	3.2e-05
288.15	0.25	0.8365	0.001607	3.4e-05
288.15	0.25	0.9778	0.001697	3.5e-05
288.15	0.25	1.1205	0.001773	3.7e-05
293.15	0.25	0	0.001025	2.1e-05
293.15	0.25	0.1374	0.001089	2.3e-05
293.15	0.25	0.2761	0.001139	2.4e-05
293.15	0.25	0.4145	0.001205	2.5e-05
293.15	0.25	0.5547	0.001278	2.7e-05
293.15	0.25	0.6949	0.001346	2.8e-05
293.15	0.25	0.8365	0.001413	3e-05
293.15	0.25	0.9778	0.00149	3.1e-05
293.15	0.25	1.1205	0.001561	3.3e-05
298.15	0.25	0	0.000913	1.9e-05
298.15	0.25	0.1374	0.000976	2e-05
298.15	0.25	0.2761	0.001021	2.1e-05
298.15	0.25	0.4145	0.001077	2.3e-05
298.15	0.25	0.5547	0.001129	2.4e-05
298.15	0.25	0.6949	0.001181	2.5e-05
298.15	0.25	0.8365	0.001235	2.6e-05
298.15	0.25	0.9778	0.001297	2.7e-05
298.15	0.25	1.1205	0.001358	2.8e-05
303.15	0.25	0	0.000819	1.7e-05
303.15	0.25	0.1374	0.000865	1.8e-05
303.15	0.25	0.2761	0.00091	1.9e-05
303.15	0.25	0.4145	0.000962	2e-05
303.15	0.25	0.5547	0.001013	2.1e-05
303.15	0.25	0.6949	0.001064	2.2e-05
303.15	0.25	0.8365	0.001128	2.4e-05
303.15	0.25	0.9778	0.001185	2.5e-05
303.15	0.25	1.1205	0.001245	2.6e-05
308.15	0.25	0	0.000739	1.6e-05
308.15	0.25	0.1374	0.00078	1.6e-05
308.15	0.25	0.2761	0.000818	1.7e-05
308.15	0.25	0.4145	0.000864	1.8e-05
308.15	0.25	0.5547	0.000906	1.9e-05
308.15	0.25	0.6949	0.000958	2e-05
308.15	0.25	0.8365	0.001003	2.1e-05
308.15	0.25	0.9778	0.001055	2.2e-05
308.15	0.25	1.1205	0.001111	2.3e-05

System: 5-aminovaleric acid + sodium chloride + water; phases: Liquid
Fixed: Pressure, kPa = 75
Property: Mass density, kg/m3 (Liquid); method: Vibrating tube method
Temperature, K	Solvent: Molality, mol/kg of sodium chloride	Molality, mol/kg of 5-aminovaleric acid	Mass density, kg/m3	uncertainty
288.15	0.15	0	1005.358	0.42
288.15	0.15	0.13832	1009.446	0.422
288.15	0.15	0.27715	1013.383	0.425
288.15	0.15	0.55714	1020.855	0.43
288.15	0.15	0.69811	1024.39	0.432
288.15	0.15	0.98201	1031.057	0.436
288.15	0.15	1.12498	1034.195	0.438
293.15	0.15	0	1004.396	0.419
293.15	0.15	0.13832	1008.414	0.422
293.15	0.15	0.27715	1012.281	0.424
293.15	0.15	0.55714	1019.616	0.429
293.15	0.15	0.69811	1023.078	0.431
293.15	0.15	0.98201	1029.609	0.435
293.15	0.15	1.12498	1032.696	0.437
298.15	0.15	0	1003.185	0.419
298.15	0.15	0.13832	1007.154	0.421
298.15	0.15	0.27715	1010.977	0.423
298.15	0.15	0.55714	1018.221	0.428
298.15	0.15	0.69811	1021.642	0.43
298.15	0.15	0.98201	1028.118	0.434
298.15	0.15	1.12498	1031.17	0.436
303.15	0.15	0	1001.746	0.418
303.15	0.15	0.13832	1005.686	0.42
303.15	0.15	0.27715	1009.481	0.422
303.15	0.15	0.55714	1016.676	0.427
303.15	0.15	0.69811	1020.08	0.429
303.15	0.15	0.98201	1026.494	0.433
303.15	0.15	1.12498	1029.535	0.435
308.15	0.15	0	1000.106	0.417
308.15	0.15	0.13832	1004.024	0.419
308.15	0.15	0.27715	1007.804	0.421
308.15	0.15	0.55714	1015	0.426
308.15	0.15	0.69811	1018.415	0.428
308.15	0.15	0.98201	1024.861	0.432
308.15	0.15	1.12498	1027.899	0.434
288.15	0.25	0	1009.507	0.422
288.15	0.25	0.1375	1013.451	0.425
288.15	0.25	0.2762	1017.28	0.427
288.15	0.25	0.5547	1024.542	0.432
288.15	0.25	0.6951	1027.991	0.434
288.15	0.25	0.9782	1034.559	0.438
288.15	0.25	1.1204	1037.656	0.44
293.15	0.25	0	1008.502	0.422
293.15	0.25	0.1375	1012.391	0.424
293.15	0.25	0.2762	1016.172	0.427
293.15	0.25	0.5547	1023.347	0.431
293.15	0.25	0.6951	1026.758	0.433
293.15	0.25	0.9782	1033.253	0.438
293.15	0.25	1.1204	1036.316	0.44
298.15	0.25	0	1007.258	0.421
298.15	0.25	0.1375	1011.098	0.423
298.15	0.25	0.2762	1014.826	0.426
298.15	0.25	0.5547	1021.909	0.43
298.15	0.25	0.6951	1025.285	0.432
298.15	0.25	0.9782	1031.71	0.437
298.15	0.25	1.1204	1034.75	0.439
303.15	0.25	0	1005.783	0.42
303.15	0.25	0.1375	1009.591	0.423
303.15	0.25	0.2762	1013.296	0.425
303.15	0.25	0.5547	1020.338	0.429
303.15	0.25	0.6951	1023.694	0.431
303.15	0.25	0.9782	1030.085	0.436
303.15	0.25	1.1204	1033.113	0.438
308.15	0.25	0	1004.114	0.419
308.15	0.25	0.1375	1007.896	0.422
308.15	0.25	0.2762	1011.57	0.424
308.15	0.25	0.5547	1018.55	0.428
308.15	0.25	0.6951	1021.883	0.43
308.15	0.25	0.9782	1028.206	0.434
308.15	0.25	1.1204	1031.205	0.436

System: 5-aminovaleric acid + sodium chloride + water; phases: Liquid
Fixed: Pressure, kPa = 75
Fixed: Frequency, MHz = 3
Property: Speed of sound, m/s (Liquid); method: Single path-length method
Temperature, K	Solvent: Molality, mol/kg of sodium chloride	Molality, mol/kg of 5-aminovaleric acid	Speed of sound, m/s	uncertainty
288.15	0.15	0	1476.57	4.18
288.15	0.15	0.13832	1491.16	4.18
288.15	0.15	0.27715	1505.42	4.18
288.15	0.15	0.55714	1533.17	4.18
288.15	0.15	0.69811	1546.58	4.18
288.15	0.15	0.98201	1572.3	4.18
288.15	0.15	1.12498	1584.69	4.18
293.15	0.15	0	1492.21	4.18
293.15	0.15	0.13832	1506.36	4.18
293.15	0.15	0.27715	1520.25	4.18
293.15	0.15	0.55714	1547.05	4.18
293.15	0.15	0.69811	1559.89	4.18
293.15	0.15	0.98201	1584.23	4.18
293.15	0.15	1.12498	1595.51	4.18
298.15	0.15	0	1506.1	4.18
298.15	0.15	0.13832	1519.67	4.18
298.15	0.15	0.27715	1532.97	4.18
298.15	0.15	0.55714	1558.65	4.18
298.15	0.15	0.69811	1570.99	4.18
298.15	0.15	0.98201	1594.3	4.18
298.15	0.15	1.12498	1605.15	4.18
303.15	0.15	0	1518.18	4.18
303.15	0.15	0.13832	1531.23	4.18
303.15	0.15	0.27715	1544.01	4.18
303.15	0.15	0.55714	1568.73	4.18
303.15	0.15	0.69811	1580.6	4.18
303.15	0.15	0.98201	1603.05	4.18
303.15	0.15	1.12498	1613.65	4.18
308.15	0.15	0	1528.62	4.18
308.15	0.15	0.13832	1541.09	4.18
308.15	0.15	0.27715	1553.3	4.18
308.15	0.15	0.55714	1577.01	4.18
308.15	0.15	0.69811	1588.47	4.18
308.15	0.15	0.98201	1610.25	4.18
308.15	0.15	1.12498	1620.65	4.18
288.15	0.25	0	1483.28	4.18
288.15	0.25	0.1375	1498	4.18
288.15	0.25	0.2762	1512.5	4.18
288.15	0.25	0.5547	1540.51	4.18
288.15	0.25	0.6951	1554.08	4.18
288.15	0.25	0.9782	1579.8	4.18
288.15	0.25	1.1204	1591.89	4.18
293.15	0.25	0	1498.61	4.18
293.15	0.25	0.1375	1512.8	4.18
293.15	0.25	0.2762	1526.77	4.18
293.15	0.25	0.5547	1553.66	4.18
293.15	0.25	0.6951	1566.45	4.18
293.15	0.25	0.9782	1590.91	4.18
293.15	0.25	1.1204	1602.48	4.18
298.15	0.25	0	1512.18	4.18
298.15	0.25	0.1375	1525.85	4.18
298.15	0.25	0.2762	1539.27	4.18
298.15	0.25	0.5547	1564.98	4.18
298.15	0.25	0.6951	1577.24	4.18
298.15	0.25	0.9782	1600.58	4.18
298.15	0.25	1.1204	1611.54	4.18
303.15	0.25	0	1524.03	4.18
303.15	0.25	0.1375	1537.14	4.18
303.15	0.25	0.2762	1550.02	4.18
303.15	0.25	0.5547	1574.77	4.18
303.15	0.25	0.6951	1586.54	4.18
303.15	0.25	0.9782	1609.01	4.18
303.15	0.25	1.1204	1619.6	4.18
308.15	0.25	0	1534.24	4.18
308.15	0.25	0.1375	1546.79	4.18
308.15	0.25	0.2762	1559.09	4.18
308.15	0.25	0.5547	1582.8	4.18
308.15	0.25	0.6951	1594.15	4.18
308.15	0.25	0.9782	1615.87	4.18
308.15	0.25	1.1204	1625.99	4.18

System: 5-aminovaleric acid + sodium chloride + water; phases: Liquid
Fixed: Pressure, kPa = 75
Property: Viscosity, Pa*s (Liquid); method: Capillary tube (Ostwald; Ubbelohde) method
Temperature, K	Solvent: Molality, mol/kg of sodium chloride	Molality, mol/kg of 5-aminovaleric acid	Viscosity, Pa*s	uncertainty
288.15	0.15	0	0.0011577	2.5e-05
288.15	0.15	0.13832	0.0012351	2.67e-05
288.15	0.15	0.27715	0.0013245	2.86e-05
288.15	0.15	0.55714	0.0015055	3.25e-05
288.15	0.15	0.69811	0.0016097	3.47e-05
288.15	0.15	0.98201	0.0018258	3.93e-05
288.15	0.15	1.12498	0.0019499	4.2e-05
293.15	0.15	0	0.0010161	2.2e-05
293.15	0.15	0.13832	0.0010938	2.36e-05
293.15	0.15	0.27715	0.0011667	2.52e-05
293.15	0.15	0.55714	0.0013117	2.83e-05
293.15	0.15	0.69811	0.0014015	3.02e-05
293.15	0.15	0.98201	0.0015948	3.44e-05
293.15	0.15	1.12498	0.0016981	3.66e-05
298.15	0.15	0	0.0009049	1.96e-05
298.15	0.15	0.13832	0.0009703	2.1e-05
298.15	0.15	0.27715	0.0010332	2.23e-05
298.15	0.15	0.55714	0.0011599	2.51e-05
298.15	0.15	0.69811	0.0012342	2.67e-05
298.15	0.15	0.98201	0.0014083	3.04e-05
298.15	0.15	1.12498	0.0014936	3.22e-05
303.15	0.15	0	0.0008105	1.76e-05
303.15	0.15	0.13832	0.0008669	1.88e-05
303.15	0.15	0.27715	0.0009183	1.99e-05
303.15	0.15	0.55714	0.0010319	2.23e-05
303.15	0.15	0.69811	0.0010965	2.37e-05
303.15	0.15	0.98201	0.0012432	2.68e-05
303.15	0.15	1.12498	0.001323	2.86e-05
308.15	0.15	0	0.0007306	1.59e-05
308.15	0.15	0.13832	0.0007799	1.69e-05
308.15	0.15	0.27715	0.0008237	1.79e-05
308.15	0.15	0.55714	0.0009259	2e-05
308.15	0.15	0.69811	0.0009823	2.13e-05
308.15	0.15	0.98201	0.0011111	2.4e-05
308.15	0.15	1.12498	0.0011858	2.56e-05
288.15	0.25	0	0.001166	2.5e-05
288.15	0.25	0.1375	0.001272	2.7e-05
288.15	0.25	0.2762	0.00137	3e-05
288.15	0.25	0.5547	0.001562	3.4e-05
288.15	0.25	0.6951	0.001664	3.6e-05
288.15	0.25	0.9782	0.001886	4.1e-05
288.15	0.25	1.1204	0.001983	4.3e-05
293.15	0.25	0	0.001025	2.2e-05
293.15	0.25	0.1375	0.001111	2.4e-05
293.15	0.25	0.2762	0.001185	2.6e-05
293.15	0.25	0.5547	0.001374	3e-05
293.15	0.25	0.6951	0.001462	3.2e-05
293.15	0.25	0.9782	0.001644	3.5e-05
293.15	0.25	1.1204	0.001745	3.8e-05
298.15	0.25	0	0.000913	2e-05
298.15	0.25	0.1375	0.000973	2.1e-05
298.15	0.25	0.2762	0.001053	2.3e-05
298.15	0.25	0.5547	0.001217	2.6e-05
298.15	0.25	0.6951	0.001292	2.8e-05
298.15	0.25	0.9782	0.001456	3.1e-05
298.15	0.25	1.1204	0.001543	3.3e-05
303.15	0.25	0	0.000819	1.8e-05
303.15	0.25	0.1375	0.000892	1.9e-05
303.15	0.25	0.2762	0.00095	2.1e-05
303.15	0.25	0.5547	0.001088	2.4e-05
303.15	0.25	0.6951	0.001152	2.5e-05
303.15	0.25	0.9782	0.001298	2.8e-05
303.15	0.25	1.1204	0.001368	3e-05
308.15	0.25	0	0.000739	1.6e-05
308.15	0.25	0.1375	0.000799	1.7e-05
308.15	0.25	0.2762	0.000855	1.9e-05
308.15	0.25	0.5547	0.000974	2.1e-05
308.15	0.25	0.6951	0.001038	2.2e-05
308.15	0.25	0.9782	0.001168	2.5e-05
308.15	0.25	1.1204	0.001229	2.7e-05

System: 6-aminohexanoic acid + sodium chloride + water; phases: Liquid
Fixed: Pressure, kPa = 75
Property: Mass density, kg/m3 (Liquid); method: Vibrating tube method
Temperature, K	Solvent: Molality, mol/kg of sodium chloride	Molality, mol/kg of 6-aminohexanoic acid	Mass density, kg/m3	uncertainty
288.15	0.15	0	1005.359	0.311
288.15	0.15	0.13827	1009.085	0.311
288.15	0.15	0.27719	1012.705	0.312
288.15	0.15	0.41659	1016.218	0.312
288.15	0.15	0.55703	1019.64	0.313
288.15	0.15	0.69812	1022.967	0.313
288.15	0.15	0.83986	1026.195	0.314
288.15	0.15	0.98208	1029.332	0.314
288.15	0.15	1.12544	1032.389	0.314
293.15	0.15	0	1004.396	0.311
293.15	0.15	0.13827	1008.018	0.311
293.15	0.15	0.27719	1011.543	0.312
293.15	0.15	0.41659	1014.97	0.312
293.15	0.15	0.55703	1018.316	0.313
293.15	0.15	0.69812	1021.575	0.313
293.15	0.15	0.83986	1024.747	0.313
293.15	0.15	0.98208	1027.834	0.314
293.15	0.15	1.12544	1030.85	0.314
298.15	0.15	0	1003.185	0.311
298.15	0.15	0.13827	1006.778	0.311
298.15	0.15	0.27719	1010.267	0.312
298.15	0.15	0.41659	1013.651	0.312
298.15	0.15	0.55703	1016.948	0.312
298.15	0.15	0.69812	1020.151	0.313
298.15	0.15	0.83986	1023.261	0.313
298.15	0.15	0.98208	1026.283	0.314
298.15	0.15	1.12544	1029.225	0.314
303.15	0.15	0	1001.746	0.311
303.15	0.15	0.13827	1005.314	0.311
303.15	0.15	0.27719	1008.777	0.311
303.15	0.15	0.41659	1012.135	0.312
303.15	0.15	0.55703	1015.402	0.312
303.15	0.15	0.69812	1018.573	0.313
303.15	0.15	0.83986	1021.649	0.313
303.15	0.15	0.98208	1024.63	0.313
303.15	0.15	1.12544	1027.537	0.314
308.15	0.15	0	1000.107	0.31
308.15	0.15	0.13827	1003.638	0.311
308.15	0.15	0.27719	1007.068	0.311
308.15	0.15	0.41659	1010.395	0.312
308.15	0.15	0.55703	1013.637	0.312
308.15	0.15	0.69812	1016.788	0.312
308.15	0.15	0.83986	1019.849	0.313
308.15	0.15	0.98208	1022.821	0.313
308.15	0.15	1.12544	1025.717	0.314
288.15	0.25	0	1009.509	0.311
288.15	0.25	0.1374	1013.049	0.312
288.15	0.25	0.2762	1016.494	0.312
288.15	0.25	0.4148	1019.809	0.313
288.15	0.25	0.5546	1023.029	0.313
288.15	0.25	0.6952	1026.152	0.314
288.15	0.25	0.8364	1029.177	0.314
288.15	0.25	0.9782	1032.1	0.314
288.15	0.25	1.1209	1034.938	0.315
293.15	0.25	0	1008.504	0.311
293.15	0.25	0.1374	1011.951	0.312
293.15	0.25	0.2762	1015.324	0.312
293.15	0.25	0.4148	1018.587	0.313
293.15	0.25	0.5546	1021.775	0.313
293.15	0.25	0.6952	1024.886	0.313
293.15	0.25	0.8364	1027.912	0.314
293.15	0.25	0.9782	1030.86	0.314
293.15	0.25	1.1209	1033.737	0.315
298.15	0.25	0	1007.26	0.311
298.15	0.25	0.1374	1010.672	0.312
298.15	0.25	0.2762	1014.009	0.312
298.15	0.25	0.4148	1017.236	0.312
298.15	0.25	0.5546	1020.388	0.313
298.15	0.25	0.6952	1023.463	0.313
298.15	0.25	0.8364	1026.453	0.314
298.15	0.25	0.9782	1029.366	0.314
298.15	0.25	1.1209	1032.205	0.314
303.15	0.25	0	1005.786	0.311
303.15	0.25	0.1374	1009.176	0.311
303.15	0.25	0.2762	1012.489	0.312
303.15	0.25	0.4148	1015.69	0.312
303.15	0.25	0.5546	1018.813	0.313
303.15	0.25	0.6952	1021.858	0.313
303.15	0.25	0.8364	1024.816	0.313
303.15	0.25	0.9782	1027.691	0.314
303.15	0.25	1.1209	1030.497	0.314
308.15	0.25	0	1004.117	0.311
308.15	0.25	0.1374	1007.464	0.311
308.15	0.25	0.2762	1010.743	0.312
308.15	0.25	0.4148	1013.918	0.312
308.15	0.25	0.5546	1017.024	0.312
308.15	0.25	0.6952	1020.058	0.313
308.15	0.25	0.8364	1023.013	0.313
308.15	0.25	0.9782	1025.895	0.314
308.15	0.25	1.1209	1028.71	0.314

System: 6-aminohexanoic acid + sodium chloride + water; phases: Liquid
Fixed: Pressure, kPa = 75
Fixed: Frequency, MHz = 3
Property: Speed of sound, m/s (Liquid); method: Single path-length method
Temperature, K	Solvent: Molality, mol/kg of sodium chloride	Molality, mol/kg of 6-aminohexanoic acid	Speed of sound, m/s	uncertainty
288.15	0.15	0	1476.54	4.04
288.15	0.15	0.13827	1494.05	4.04
288.15	0.15	0.27719	1511.24	4.04
288.15	0.15	0.41659	1528.02	4.04
288.15	0.15	0.55703	1544.36	4.04
288.15	0.15	0.69812	1560.2	4.04
288.15	0.15	0.83986	1575.53	4.04
288.15	0.15	0.98208	1590.33	4.04
288.15	0.15	1.12544	1604.25	4.04
293.15	0.15	0	1492.16	4.04
293.15	0.15	0.13827	1509.2	4.04
293.15	0.15	0.27719	1525.75	4.04
293.15	0.15	0.41659	1541.77	4.04
293.15	0.15	0.55703	1557.2	4.04
293.15	0.15	0.69812	1572.02	4.04
293.15	0.15	0.83986	1586.1	4.04
293.15	0.15	0.98208	1599.3	4.04
293.15	0.15	1.12544	1611.9	4.04
298.15	0.15	0	1506.04	4.04
298.15	0.15	0.13827	1522.35	4.04
298.15	0.15	0.27719	1538.2	4.04
298.15	0.15	0.41659	1553.5	4.04
298.15	0.15	0.55703	1568.27	4.04
298.15	0.15	0.69812	1582.37	4.04
298.15	0.15	0.83986	1595.9	4.04
298.15	0.15	0.98208	1608.51	4.04
298.15	0.15	1.12544	1620.4	4.04
303.15	0.15	0	1518.14	4.04
303.15	0.15	0.13827	1533.63	4.04
303.15	0.15	0.27719	1548.68	4.04
303.15	0.15	0.41659	1563.35	4.04
303.15	0.15	0.55703	1577.45	4.04
303.15	0.15	0.69812	1591.04	4.04
303.15	0.15	0.83986	1603.99	4.04
303.15	0.15	0.98208	1616.3	4.04
303.15	0.15	1.12544	1627.8	4.04
308.15	0.15	0	1528.59	4.04
308.15	0.15	0.13827	1543.45	4.04
308.15	0.15	0.27719	1557.97	4.04
308.15	0.15	0.41659	1572.07	4.04
308.15	0.15	0.55703	1585.7	4.04
308.15	0.15	0.69812	1598.85	4.04
308.15	0.15	0.83986	1611.55	4.04
308.15	0.15	0.98208	1623.4	4.04
308.15	0.15	1.12544	1634.8	4.04
288.15	0.25	0	1483.34	4.04
288.15	0.25	0.1374	1501.05	4.04
288.15	0.25	0.2762	1518.49	4.04
288.15	0.25	0.4148	1535.36	4.04
288.15	0.25	0.5546	1551.78	4.04
288.15	0.25	0.6952	1567.65	4.04
288.15	0.25	0.8364	1582.85	4.04
288.15	0.25	0.9782	1597.35	4.04
288.15	0.25	1.1209	1611.13	4.04
293.15	0.25	0	1498.68	4.04
293.15	0.25	0.1374	1515.63	4.04
293.15	0.25	0.2762	1532.29	4.04
293.15	0.25	0.4148	1548.34	4.04
293.15	0.25	0.5546	1564	4.04
293.15	0.25	0.6952	1579.1	4.04
293.15	0.25	0.8364	1593.58	4.04
293.15	0.25	0.9782	1607.37	4.04
293.15	0.25	1.1209	1620.61	4.04
298.15	0.25	0	1512.26	4.04
298.15	0.25	0.1374	1528.53	4.04
298.15	0.25	0.2762	1544.47	4.04
298.15	0.25	0.4148	1559.84	4.04
298.15	0.25	0.5546	1574.8	4.04
298.15	0.25	0.6952	1589.21	4.04
298.15	0.25	0.8364	1603.08	4.04
298.15	0.25	0.9782	1616.16	4.04
298.15	0.25	1.1209	1628.78	4.04
303.15	0.25	0	1524.11	4.04
303.15	0.25	0.1374	1539.64	4.04
303.15	0.25	0.2762	1554.87	4.04
303.15	0.25	0.4148	1569.67	4.04
303.15	0.25	0.5546	1584.16	4.04
303.15	0.25	0.6952	1598.26	4.04
303.15	0.25	0.8364	1611.93	4.04
303.15	0.25	0.9782	1625.05	4.04
303.15	0.25	1.1209	1637.79	4.04
308.15	0.25	0	1534.36	4.04
308.15	0.25	0.1374	1549.02	4.04
308.15	0.25	0.2762	1563.59	4.04
308.15	0.25	0.4148	1577.93	4.04
308.15	0.25	0.5546	1592.1	4.04
308.15	0.25	0.6952	1606.1	4.04
308.15	0.25	0.8364	1619.8	4.04
308.15	0.25	0.9782	1633.3	4.04
308.15	0.25	1.1209	1646.44	4.04

System: 6-aminohexanoic acid + sodium chloride + water; phases: Liquid
Fixed: Pressure, kPa = 75
Property: Viscosity, Pa*s (Liquid); method: Capillary tube (Ostwald; Ubbelohde) method
Temperature, K	Solvent: Molality, mol/kg of sodium chloride	Molality, mol/kg of 6-aminohexanoic acid	Viscosity, Pa*s	uncertainty
288.15	0.15	0	0.001158	2.4e-05
288.15	0.15	0.13827	0.00126	2.6e-05
288.15	0.15	0.27719	0.001357	2.8e-05
288.15	0.15	0.41659	0.001456	3e-05
288.15	0.15	0.55703	0.001574	3.3e-05
288.15	0.15	0.69812	0.001694	3.5e-05
288.15	0.15	0.83986	0.001824	3.8e-05
288.15	0.15	0.98208	0.001975	4.1e-05
288.15	0.15	1.12544	0.002128	4.4e-05
293.15	0.15	0	0.001016	2.1e-05
293.15	0.15	0.13827	0.001108	2.3e-05
293.15	0.15	0.27719	0.00119	2.5e-05
293.15	0.15	0.41659	0.001277	2.7e-05
293.15	0.15	0.55703	0.001369	2.9e-05
293.15	0.15	0.69812	0.001477	3.1e-05
293.15	0.15	0.83986	0.001589	3.3e-05
293.15	0.15	0.98208	0.001715	3.6e-05
293.15	0.15	1.12544	0.001852	3.9e-05
298.15	0.15	0	0.000905	1.9e-05
298.15	0.15	0.13827	0.000983	2.1e-05
298.15	0.15	0.27719	0.001055	2.2e-05
298.15	0.15	0.41659	0.001125	2.4e-05
298.15	0.15	0.55703	0.001207	2.5e-05
298.15	0.15	0.69812	0.001299	2.7e-05
298.15	0.15	0.83986	0.001395	2.9e-05
298.15	0.15	0.98208	0.001502	3.1e-05
298.15	0.15	1.12544	0.001613	3.4e-05
303.15	0.15	0	0.000811	1.7e-05
303.15	0.15	0.13827	0.000875	1.8e-05
303.15	0.15	0.27719	0.000935	2e-05
303.15	0.15	0.41659	0.000998	2.1e-05
303.15	0.15	0.55703	0.001073	2.2e-05
303.15	0.15	0.69812	0.00115	2.4e-05
303.15	0.15	0.83986	0.00124	2.6e-05
303.15	0.15	0.98208	0.001326	2.8e-05
303.15	0.15	1.12544	0.001421	3e-05
308.15	0.15	0	0.000731	1.5e-05
308.15	0.15	0.13827	0.000786	1.7e-05
308.15	0.15	0.27719	0.000838	1.8e-05
308.15	0.15	0.41659	0.000898	1.9e-05
308.15	0.15	0.55703	0.000956	2e-05
308.15	0.15	0.69812	0.00103	2.2e-05
308.15	0.15	0.83986	0.001104	2.3e-05
308.15	0.15	0.98208	0.001192	2.5e-05
308.15	0.15	1.12544	0.001263	2.6e-05
288.15	0.25	0	0.001166	2.4e-05
288.15	0.25	0.1374	0.001289	2.7e-05
288.15	0.25	0.2762	0.001415	3e-05
288.15	0.25	0.4148	0.001527	3.2e-05
288.15	0.25	0.5546	0.001648	3.4e-05
288.15	0.25	0.6952	0.00177	3.7e-05
288.15	0.25	0.8364	0.001909	4e-05
288.15	0.25	0.9782	0.002058	4.3e-05
288.15	0.25	1.1209	0.002187	4.6e-05
293.15	0.25	0	0.001025	2.1e-05
293.15	0.25	0.1374	0.001128	2.4e-05
293.15	0.25	0.2762	0.001225	2.6e-05
293.15	0.25	0.4148	0.001343	2.8e-05
293.15	0.25	0.5546	0.001441	3e-05
293.15	0.25	0.6952	0.00155	3.2e-05
293.15	0.25	0.8364	0.00167	3.5e-05
293.15	0.25	0.9782	0.001794	3.7e-05
293.15	0.25	1.1209	0.001926	4e-05
298.15	0.25	0	0.000913	1.9e-05
298.15	0.25	0.1374	0.001004	2.1e-05
298.15	0.25	0.2762	0.001084	2.3e-05
298.15	0.25	0.4148	0.001188	2.5e-05
298.15	0.25	0.5546	0.001271	2.7e-05
298.15	0.25	0.6952	0.001367	2.9e-05
298.15	0.25	0.8364	0.001468	3.1e-05
298.15	0.25	0.9782	0.001576	3.3e-05
298.15	0.25	1.1209	0.001686	3.5e-05
303.15	0.25	0	0.000819	1.7e-05
303.15	0.25	0.1374	0.000909	1.9e-05
303.15	0.25	0.2762	0.000981	2.1e-05
303.15	0.25	0.4148	0.001058	2.2e-05
303.15	0.25	0.5546	0.001135	2.4e-05
303.15	0.25	0.6952	0.001214	2.5e-05
303.15	0.25	0.8364	0.001301	2.7e-05
303.15	0.25	0.9782	0.0014	2.9e-05
303.15	0.25	1.1209	0.001493	3.1e-05
308.15	0.25	0	0.000739	1.6e-05
308.15	0.25	0.1374	0.000819	1.7e-05
308.15	0.25	0.2762	0.000878	1.8e-05
308.15	0.25	0.4148	0.000948	2e-05
308.15	0.25	0.5546	0.001014	2.1e-05
308.15	0.25	0.6952	0.001091	2.3e-05
308.15	0.25	0.8364	0.001165	2.4e-05
308.15	0.25	0.9782	0.001252	2.6e-05
308.15	0.25	1.1209	0.001337	2.8e-05

System: sodium chloride + water; phases: Liquid
Fixed: Pressure, kPa = 75
Property: Mass density, kg/m3 (Liquid); method: Vibrating tube method
Temperature, K	Molality, mol/kg of sodium chloride	Mass density, kg/m3	uncertainty
288.15	0.15	1005.461	0.304
293.15	0.15	1004.493	0.304
298.15	0.15	1003.271	0.304
303.15	0.15	1001.841	0.304
308.15	0.15	1000.241	0.304
288.15	0.25	1009.513	0.305
293.15	0.25	1008.508	0.304
298.15	0.25	1007.264	0.304
303.15	0.25	1005.79	0.304
308.15	0.25	1004.12	0.304
288.15	0.15	1005.448	0.304
293.15	0.15	1004.481	0.304
298.15	0.15	1003.259	0.304
303.15	0.15	1001.829	0.304
308.15	0.15	1000.229	0.304
288.15	0.25	1009.507	0.305
293.15	0.25	1008.502	0.304
298.15	0.25	1007.259	0.304
303.15	0.25	1005.784	0.304
308.15	0.25	1004.115	0.304
293.15	0.15	1004.424	0.305
298.15	0.15	1003.273	0.304
303.15	0.15	1001.734	0.304
308.15	0.15	1000.095	0.304
288.15	0.25	1009.512	0.305
293.15	0.25	1008.507	0.304
298.15	0.25	1007.263	0.304
303.15	0.25	1005.789	0.304
308.15	0.25	1004.119	0.304
288.15	0.15	1005.358	0.305
293.15	0.15	1004.396	0.305
298.15	0.15	1003.185	0.304
303.15	0.15	1001.746	0.304
308.15	0.15	1000.106	0.304
298.15	0.25	1007.258	0.304
303.15	0.25	1005.783	0.304
308.15	0.25	1004.114	0.304
288.15	0.15	1005.359	0.305
308.15	0.15	1000.107	0.304
288.15	0.25	1009.509	0.305
293.15	0.25	1008.504	0.304
298.15	0.25	1007.26	0.304
303.15	0.25	1005.786	0.304
308.15	0.25	1004.117	0.304

System: sodium chloride + water; phases: Liquid
Fixed: Pressure, kPa = 75
Fixed: Frequency, MHz = 3
Property: Speed of sound, m/s (Liquid); method: Single path-length method
Temperature, K	Molality, mol/kg of sodium chloride	Speed of sound, m/s	uncertainty
288.15	0.15	1476.59	4
293.15	0.15	1492.23	4
298.15	0.15	1506.09	4
303.15	0.15	1518.18	4
308.15	0.15	1528.62	4
288.15	0.25	1483.42	4
293.15	0.25	1498.74	4
298.15	0.25	1512.31	4
303.15	0.25	1524.14	4
308.15	0.25	1534.35	4
288.15	0.15	1476.63	4
293.15	0.15	1492.27	4
298.15	0.15	1506.15	4
303.15	0.15	1518.25	4
308.15	0.15	1528.68	4
288.15	0.25	1483.6	4
293.15	0.25	1498.9	4
298.15	0.25	1512.48	4
303.15	0.25	1524.31	4
308.15	0.25	1534.53	4
288.15	0.15	1476.55	4
293.15	0.15	1492.17	4
298.15	0.15	1506.05	4
303.15	0.15	1518.14	4
308.15	0.15	1528.58	4
288.15	0.25	1483.39	4
293.15	0.25	1498.69	4
298.15	0.25	1512.28	4
303.15	0.25	1524.13	4
308.15	0.25	1534.34	4
288.15	0.15	1476.57	4
293.15	0.15	1492.21	4
298.15	0.15	1506.1	4
288.15	0.25	1483.28	4
293.15	0.25	1498.61	4
298.15	0.25	1512.18	4
303.15	0.25	1524.03	4
308.15	0.25	1534.24	4
288.15	0.15	1476.54	4
293.15	0.15	1492.16	4
298.15	0.15	1506.04	4
308.15	0.15	1528.59	4
288.15	0.25	1483.34	4
293.15	0.25	1498.68	4
298.15	0.25	1512.26	4
303.15	0.25	1524.11	4
308.15	0.25	1534.36	4

System: sodium chloride + water; phases: Liquid
Fixed: Pressure, kPa = 75
Property: Viscosity, Pa*s (Liquid); method: Capillary tube (Ostwald; Ubbelohde) method
Temperature, K	Molality, mol/kg of sodium chloride	Viscosity, Pa*s	uncertainty
288.15	0.15	0.001156	2.4e-05
293.15	0.15	0.001016	2.1e-05
298.15	0.15	0.000906	1.9e-05
303.15	0.15	0.000812	1.7e-05
308.15	0.15	0.000732	1.5e-05
288.15	0.25	0.001166	2.4e-05
293.15	0.25	0.001025	2.1e-05
298.15	0.25	0.000913	1.9e-05
303.15	0.25	0.000819	1.7e-05
308.15	0.25	0.000739	1.5e-05
288.15	0.15	0.001158	2.4e-05
298.15	0.15	0.000905	1.9e-05
303.15	0.15	0.00081	1.7e-05
308.15	0.15	0.000731	1.5e-05
288.15	0.15	0.0011577	2.4e-05
293.15	0.15	0.0010161	2.11e-05
298.15	0.15	0.0009049	1.88e-05
303.15	0.15	0.0008105	1.69e-05
308.15	0.15	0.0007306	1.52e-05
303.15	0.15	0.000811	1.7e-05
