Measured thermophysical data. The Thermodynamic and Excess Properties of Trialkyl-Substituted Imidazolium-Based Ionic Liquids with Thiocyanate and Its Binary Systems with Acetonitrile
Source: J. Chem. Eng. Data, 2018, 10.1021/acs.jced.7b01006
Compound 1: 1,2-dimethyl-3-propylimidazolium thiocyanate, C9H15N3S, InChI=1S/C8H15N2.CHNS/c1-4-5-10-7-6-9(3)8(10)2;2-1-3/h6-7H,4-5H2,1-3H3;3H/q+1;/p-1, purity 97%
Compound 2: 1-butyl-2,3-dimethylimidazolium thiocyanate, C10H17N3S, InChI=1S/C9H17N2.CHNS/c1-4-5-6-11-8-7-10(3)9(11)2;2-1-3/h7-8H,4-6H2,1-3H3;3H/q+1;/p-1, purity 97%
Compound 3: acetonitrile, C2H3N, InChI=1S/C2H3N/c1-2-3/h1H3, purity 99%

System: 1,2-dimethyl-3-propylimidazolium thiocyanate; phases: Liquid
Fixed: Pressure, kPa = 100
Property: Mass density, kg/m3 (Liquid); method: Vibrating tube method
Temperature, K	Mass density, kg/m3	uncertainty
288.15	1099.81	2.91
293.15	1096.75	2.9
298.15	1093.67	2.89
303.15	1090.61	2.88
308.15	1087.57	2.87
313.15	1084.55	2.86
318.15	1081.54	2.85
323.15	1078.54	2.84

System: 1,2-dimethyl-3-propylimidazolium thiocyanate; phases: Liquid
Fixed: Pressure, kPa = 100
Property: Electrical conductivity, S/m (Liquid); method: Alternating current cell with electrodes
Temperature, K	Electrical conductivity, S/m	uncertainty
288.15	0.255	0.026
293.15	0.361	0.036
298.15	0.459	0.046
303.15	0.583	0.058
308.15	0.733	0.073
313.15	0.905	0.091
318.15	1.1	0.11
323.15	1.33	0.13

System: 1,2-dimethyl-3-propylimidazolium thiocyanate; phases: Liquid
Fixed: Pressure, kPa = 100
Property: Viscosity, Pa*s (Liquid); method: Falling or rolling sphere viscometry
Temperature, K	Viscosity, Pa*s	uncertainty
288.15	0.3165	0.0202
293.15	0.2158	0.0111
298.15	0.1519	0.0061
303.15	0.1101	0.0034
308.15	0.08342	0.002
313.15	0.06478	0.00128
318.15	0.05096	0.00092
323.15	0.04155	0.00081

System: 1,2-dimethyl-3-propylimidazolium thiocyanate; phases: Liquid, Gas
Property: Surface tension liquid-gas, N/m (Liquid); method: Wilhelmy plate
Temperature, K	Surface tension liquid-gas, N/m	uncertainty
298.15	0.0488	0.0008

System: 1-butyl-2,3-dimethylimidazolium thiocyanate; phases: Liquid
Fixed: Pressure, kPa = 100
Property: Mass density, kg/m3 (Liquid); method: Vibrating tube method
Temperature, K	Mass density, kg/m3	uncertainty
288.15	1084.2	2.86
293.15	1081.11	2.85
298.15	1078.2	2.84
303.15	1075.18	2.84
308.15	1072.16	2.83
313.15	1069.15	2.82
318.15	1066.16	2.81
323.15	1063.2	2.8

System: 1-butyl-2,3-dimethylimidazolium thiocyanate; phases: Liquid
Fixed: Pressure, kPa = 100
Property: Electrical conductivity, S/m (Liquid); method: Alternating current cell with electrodes
Temperature, K	Electrical conductivity, S/m	uncertainty
288.15	0.106	0.011
293.15	0.153	0.015
298.15	0.217	0.022
303.15	0.293	0.029
308.15	0.386	0.039
313.15	0.496	0.05
318.15	0.627	0.063
323.15	0.774	0.077

System: 1-butyl-2,3-dimethylimidazolium thiocyanate; phases: Liquid
Fixed: Pressure, kPa = 100
Property: Viscosity, Pa*s (Liquid); method: Falling or rolling sphere viscometry
Temperature, K	Viscosity, Pa*s	uncertainty
288.15	0.4527	0.0342
293.15	0.3113	0.0197
298.15	0.218	0.0113
303.15	0.1579	0.0066
308.15	0.1189	0.0039
313.15	0.09046	0.00232
318.15	0.07204	0.00153
323.15	0.05711	0.00106

System: 1-butyl-2,3-dimethylimidazolium thiocyanate; phases: Liquid, Gas
Property: Surface tension liquid-gas, N/m (Liquid); method: Wilhelmy plate
Temperature, K	Surface tension liquid-gas, N/m	uncertainty
298.15	0.0448	0.0007

System: acetonitrile; phases: Liquid
Fixed: Pressure, kPa = 100
Property: Mass density, kg/m3 (Liquid); method: Vibrating tube method
Temperature, K	Mass density, kg/m3	uncertainty
288.15	787.58	2.01
293.15	781.89	2.01
298.15	776.52	2.01
303.15	771.12	2.01
308.15	765.83	2.01
313.15	760.36	2.01
318.15	755.14	2.01
323.15	749.44	2.01

System: acetonitrile; phases: Liquid
Fixed: Pressure, kPa = 100
Property: Viscosity, Pa*s (Liquid); method: Falling or rolling sphere viscometry
Temperature, K	Viscosity, Pa*s	uncertainty
288.15	0.000376	5e-06
293.15	0.000357	5e-06
298.15	0.000339	5e-06
303.15	0.000324	4e-06
308.15	0.000309	4e-06
313.15	0.000295	4e-06
318.15	0.000283	4e-06
323.15	0.000272	4e-06

System: 1,2-dimethyl-3-propylimidazolium thiocyanate + acetonitrile; phases: Liquid
Fixed: Pressure, kPa = 100
Property: Mass density, kg/m3 (Liquid); method: Vibrating tube method
Temperature, K	Mole fraction of 1,2-dimethyl-3-propylimidazolium thiocyanate	Mass density, kg/m3	uncertainty
288.15	0	787.58	2.01
293.15	0	781.89	2.01
298.15	0	776.52	2.01
303.15	0	771.12	2.01
308.15	0	765.83	2.01
313.15	0	760.36	2.01
318.15	0	755.14	2.01
323.15	0	749.44	2.01
288.15	0.1002	884.48	2.03
293.15	0.1002	880.24	2.03
298.15	0.1002	876.09	2.03
303.15	0.1002	871.55	2.03
308.15	0.1002	867.37	2.03
313.15	0.1002	862.96	2.03
318.15	0.1002	858.59	2.03
323.15	0.1002	854.24	2.03
288.15	0.2002	948.75	2.04
293.15	0.2002	945.16	2.04
298.15	0.2002	941.45	2.04
303.15	0.2002	937.88	2.04
308.15	0.2002	934.26	2.04
313.15	0.2002	930.69	2.04
318.15	0.2002	927.1	2.04
323.15	0.2002	923.56	2.04
288.15	0.2998	996.05	2.06
293.15	0.2998	992.52	2.06
298.15	0.2998	988.89	2.06
303.15	0.2998	985.24	2.06
308.15	0.2998	981.65	2.06
313.15	0.2998	978.11	2.06
318.15	0.2998	974.43	2.06
323.15	0.2998	970.89	2.06
288.15	0.4001	1028.84	2.11
293.15	0.4001	1025.75	2.11
298.15	0.4001	1022.71	2.11
303.15	0.4001	1019.65	2.1
308.15	0.4001	1016.47	2.1
313.15	0.4001	1013.36	2.1
318.15	0.4001	1010.2	2.1
323.15	0.4001	1006.99	2.1
288.15	0.4997	1052.44	2.18
293.15	0.4997	1049.28	2.18
298.15	0.4997	1046.39	2.17
303.15	0.4997	1043.41	2.17
308.15	0.4997	1040.37	2.17
313.15	0.4997	1037.38	2.17
318.15	0.4997	1034.36	2.16
323.15	0.4997	1031.23	2.16
288.15	0.5998	1067.26	2.27
293.15	0.5998	1064.44	2.27
298.15	0.5998	1061.68	2.26
303.15	0.5998	1058.77	2.26
308.15	0.5998	1055.91	2.26
313.15	0.5998	1053.06	2.25
318.15	0.5998	1050.24	2.25
323.15	0.5998	1047.39	2.25
288.15	0.7002	1077.84	2.38
293.15	0.7002	1075.11	2.38
298.15	0.7002	1072.2	2.4
303.15	0.7002	1069.41	2.37
308.15	0.7002	1066.65	2.37
313.15	0.7002	1063.86	2.36
318.15	0.7002	1060.96	2.36
323.15	0.7002	1060	2.36
288.15	0.7999	1085.72	2.53
293.15	0.7999	1083.11	2.52
298.15	0.7999	1080.57	2.52
303.15	0.7999	1077.79	2.51
308.15	0.7999	1075.33	2.51
313.15	0.7999	1072.65	2.5
318.15	0.7999	1069.97	2.5
323.15	0.7999	1070	2.5
288.15	0.8999	1093.78	2.7
293.15	0.8999	1090.97	2.7
298.15	0.8999	1088.08	2.69
303.15	0.8999	1085.29	2.68
308.15	0.8999	1082.59	2.68
313.15	0.8999	1079.86	2.67
318.15	0.8999	1077.03	2.66
323.15	0.8999	1074.33	2.66
288.15	1	1099.81	2.91
293.15	1	1096.75	2.9
298.15	1	1093.67	2.89
303.15	1	1090.61	2.88
308.15	1	1087.57	2.87
313.15	1	1084.55	2.86
318.15	1	1081.54	2.85
323.15	1	1078.54	2.84

System: 1,2-dimethyl-3-propylimidazolium thiocyanate + acetonitrile; phases: Liquid
Fixed: Pressure, kPa = 100
Property: Electrical conductivity, S/m (Liquid); method: Alternating current cell with electrodes
Mole fraction of 1,2-dimethyl-3-propylimidazolium thiocyanate	Temperature, K	Electrical conductivity, S/m	uncertainty
0.1002	288.15	5.17	0.52
0.1002	293.15	5.5	0.55
0.1002	298.15	5.83	0.58
0.1002	303.15	6.16	0.62
0.1002	308.15	6.49	0.65
0.1002	313.15	6.81	0.68
0.1002	318.15	7.13	0.71
0.1002	323.15	7.45	0.75
0.2002	288.15	4.31	0.43
0.2002	293.15	4.67	0.47
0.2002	298.15	5.05	0.51
0.2002	303.15	5.43	0.54
0.2002	308.15	5.83	0.58
0.2002	313.15	6.22	0.62
0.2002	318.15	6.61	0.66
0.2002	323.15	7.01	0.7
0.2998	288.15	3.45	0.35
0.2998	293.15	3.84	0.38
0.2998	298.15	4.27	0.43
0.2998	303.15	4.71	0.47
0.2998	308.15	5.16	0.52
0.2998	313.15	5.62	0.56
0.2998	318.15	6.1	0.61
0.2998	323.15	6.58	0.66
0.4001	288.15	2.35	0.24
0.4001	293.15	2.64	0.26
0.4001	298.15	2.98	0.3
0.4001	303.15	3.36	0.34
0.4001	308.15	3.77	0.38
0.4001	313.15	4.18	0.42
0.4001	318.15	4.61	0.46
0.4001	323.15	5.05	0.51
0.4997	288.15	1.205	0.121
0.4997	293.15	1.46	0.146
0.4997	298.15	1.716	0.172
0.4997	303.15	2.011	0.201
0.4997	308.15	2.353	0.235
0.4997	313.15	2.711	0.271
0.4997	318.15	3.109	0.311
0.4997	323.15	3.52	0.352
0.5998	288.15	0.95	0.1
0.5998	293.15	1.16	0.12
0.5998	298.15	1.4	0.14
0.5998	303.15	1.67	0.17
0.5998	308.15	1.98	0.2
0.5998	313.15	2.31	0.23
0.5998	318.15	2.67	0.27
0.5998	323.15	3.08	0.31
0.7002	288.15	0.685	0.069
0.7002	293.15	0.883	0.088
0.7002	298.15	1.08	0.11
0.7002	303.15	1.32	0.13
0.7002	308.15	1.59	0.16
0.7002	313.15	1.88	0.19
0.7002	318.15	2.22	0.22
0.7002	323.15	2.6	0.26
0.7999	288.15	0.496	0.05
0.7999	293.15	0.639	0.064
0.7999	298.15	0.789	0.079
0.7999	303.15	0.973	0.097
0.7999	308.15	1.18	0.12
0.7999	313.15	1.42	0.14
0.7999	318.15	1.69	0.17
0.7999	323.15	2	0.2
0.8999	288.15	0.378	0.038
0.8999	293.15	0.478	0.048
0.8999	298.15	0.589	0.059
0.8999	303.15	0.72	0.072
0.8999	308.15	0.874	0.087
0.8999	313.15	1.06	0.11
0.8999	318.15	1.26	0.13
0.8999	323.15	1.5	0.15
1	288.15	0.255	0.026
1	293.15	0.361	0.036
1	298.15	0.459	0.046
1	303.15	0.583	0.058
1	308.15	0.733	0.073
1	313.15	0.905	0.091
1	318.15	1.1	0.11
1	323.15	1.33	0.13

System: 1,2-dimethyl-3-propylimidazolium thiocyanate + acetonitrile; phases: Liquid
Fixed: Pressure, kPa = 100
Property: Viscosity, Pa*s (Liquid); method: Falling or rolling sphere viscometry
Mole fraction of 1,2-dimethyl-3-propylimidazolium thiocyanate	Temperature, K	Viscosity, Pa*s	uncertainty
0	288.15	0.000376	5e-06
0	293.15	0.000357	5e-06
0	298.15	0.000339	5e-06
0	303.15	0.000324	4e-06
0	308.15	0.000309	4e-06
0	313.15	0.000295	4e-06
0	318.15	0.000283	4e-06
0	323.15	0.000272	4e-06
0.1002	288.15	0.007694	0.000107
0.1002	293.15	0.005454	7.6e-05
0.1002	298.15	0.003864	5.4e-05
0.1002	303.15	0.002697	3.8e-05
0.1002	308.15	0.001998	2.8e-05
0.1002	313.15	0.001461	2e-05
0.1002	318.15	0.001077	1.5e-05
0.1002	323.15	0.000775	1.1e-05
0.2002	288.15	0.01621	0.00023
0.2002	293.15	0.0119	0.0002
0.2002	298.15	0.008717	0.000124
0.2002	303.15	0.006468	9.2e-05
0.2002	308.15	0.004904	7e-05
0.2002	313.15	0.003715	5.3e-05
0.2002	318.15	0.002907	4.1e-05
0.2002	323.15	0.002285	3.3e-05
0.2998	288.15	0.02971	0.00044
0.2998	293.15	0.02212	0.00033
0.2998	298.15	0.01633	0.00024
0.2998	303.15	0.01226	0.00018
0.2998	308.15	0.009381	0.000138
0.2998	313.15	0.007289	0.000107
0.2998	318.15	0.005635	8.3e-05
0.2998	323.15	0.004456	6.6e-05
0.4001	288.15	0.05108	0.00069
0.4001	293.15	0.03764	0.00058
0.4001	298.15	0.02766	0.00042
0.4001	303.15	0.02036	0.00031
0.4001	308.15	0.01533	0.00023
0.4001	313.15	0.01181	0.00018
0.4001	318.15	0.009215	0.000141
0.4001	323.15	0.007216	0.00011
0.4997	288.15	0.08184	0.0017
0.4997	293.15	0.05862	0.00088
0.4997	298.15	0.04209	0.00067
0.4997	303.15	0.03078	0.00049
0.4997	308.15	0.02287	0.00036
0.4997	313.15	0.01746	0.00028
0.4997	318.15	0.01352	0.00021
0.4997	323.15	0.01053	0.00017
0.5998	288.15	0.1208	0.0038
0.5998	293.15	0.08572	0.00191
0.5998	298.15	0.06063	0.00097
0.5998	303.15	0.04413	0.00073
0.5998	308.15	0.03268	0.00054
0.5998	313.15	0.02453	0.00041
0.5998	318.15	0.01899	0.00031
0.5998	323.15	0.01468	0.00024
0.7002	288.15	0.1665	0.007
0.7002	293.15	0.1171	0.0036
0.7002	298.15	0.08201	0.00179
0.7002	303.15	0.05949	0.00099
0.7002	308.15	0.04359	0.00075
0.7002	313.15	0.03294	0.00057
0.7002	318.15	0.0255	0.0004
0.7002	323.15	0.01999	0.00034
0.7999	288.15	0.215	0.011
0.7999	293.15	0.1503	0.0059
0.7999	298.15	0.105	0.003
0.7999	303.15	0.07635	0.0016
0.7999	308.15	0.05598	0.00094
0.7999	313.15	0.04228	0.00076
0.7999	318.15	0.03282	0.00059
0.7999	323.15	0.02588	0.00046
0.8999	288.15	0.2648	0.0153
0.8999	293.15	0.1835	0.0084
0.8999	298.15	0.1288	0.0045
0.8999	303.15	0.09337	0.00241
0.8999	308.15	0.06961	0.00139
0.8999	313.15	0.05318	0.00092
0.8999	318.15	0.0412	0.00077
0.8999	323.15	0.03337	0.00062
1	288.15	0.3165	0.0202
1	293.15	0.2158	0.0111
1	298.15	0.1519	0.0061
1	303.15	0.1101	0.0034
1	308.15	0.08342	0.002
1	313.15	0.06478	0.00128
1	318.15	0.05096	0.00092
1	323.15	0.04155	0.00081

System: 1-butyl-2,3-dimethylimidazolium thiocyanate + acetonitrile; phases: Liquid
Fixed: Pressure, kPa = 100
Property: Mass density, kg/m3 (Liquid); method: Vibrating tube method
Temperature, K	Mole fraction of 1-butyl-2,3-dimethylimidazolium thiocyanate	Mass density, kg/m3	uncertainty
288.15	0	787.58	2.01
293.15	0	781.89	2.01
298.15	0	776.52	2.01
303.15	0	771.12	2.01
308.15	0	765.83	2.01
313.15	0	760.36	2.01
318.15	0	755.14	2.01
323.15	0	749.44	2.01
288.15	0.1001	888.99	2.03
293.15	0.1001	885.19	2.03
298.15	0.1001	881.36	2.03
303.15	0.1001	877.5	2.03
308.15	0.1001	873.64	2.03
313.15	0.1001	869.75	2.03
318.15	0.1001	865.95	2.03
323.15	0.1001	862.09	2.03
288.15	0.2004	951.31	2.04
293.15	0.2004	948.02	2.04
298.15	0.2004	944.6	2.04
303.15	0.2004	941.34	2.04
308.15	0.2004	938.14	2.04
313.15	0.2004	934.72	2.04
318.15	0.2004	931.41	2.04
323.15	0.2004	927.98	2.04
288.15	0.2999	995.07	2.06
293.15	0.2999	991.9	2.06
298.15	0.2999	988.57	2.06
303.15	0.2999	985.32	2.06
308.15	0.2999	982.11	2.06
313.15	0.2999	978.72	2.06
318.15	0.2999	975.35	2.06
323.15	0.2999	972.17	2.06
288.15	0.4003	1026.63	2.11
293.15	0.4003	1024	2.11
298.15	0.4003	1021.27	2.11
303.15	0.4003	1018.59	2.1
308.15	0.4003	1015.92	2.1
313.15	0.4003	1013.21	2.1
318.15	0.4003	1010.57	2.1
323.15	0.4003	1007.9	2.1
288.15	0.5001	1038.63	2.17
293.15	0.5001	1036.16	2.17
298.15	0.5001	1033.49	2.16
303.15	0.5001	1030.79	2.16
308.15	0.5001	1028.06	2.16
313.15	0.5001	1025.43	2.16
318.15	0.5001	1022.69	2.16
323.15	0.5001	1020.14	2.15
288.15	0.5999	1050.73	2.25
293.15	0.5999	1048.16	2.25
298.15	0.5999	1045.66	2.25
303.15	0.5999	1043.17	2.24
308.15	0.5999	1040.79	2.24
313.15	0.5999	1038.3	2.24
318.15	0.5999	1035.83	2.24
323.15	0.5999	1033.37	2.23
288.15	0.6999	1062.95	2.36
293.15	0.6999	1060.42	2.36
298.15	0.6999	1057.9	2.36
303.15	0.6999	1055.17	2.35
308.15	0.6999	1052.69	2.35
313.15	0.6999	1050.1	2.35
318.15	0.6999	1047.6	2.34
323.15	0.6999	1045.21	2.34
288.15	0.8002	1068.26	2.49
293.15	0.8002	1066.14	2.49
298.15	0.8002	1063.84	2.49
303.15	0.8002	1061.75	2.48
308.15	0.8002	1059.56	2.48
313.15	0.8002	1057.26	2.47
318.15	0.8002	1055.02	2.47
323.15	0.8002	1052.82	2.47
288.15	0.9002	1075.99	2.66
293.15	0.9002	1073.56	2.65
298.15	0.9002	1071.37	2.65
303.15	0.9002	1068.94	2.64
308.15	0.9002	1066.57	2.64
313.15	0.9002	1064.3	2.63
318.15	0.9002	1061.87	2.63
323.15	0.9002	1059.62	2.62
288.15	1	1084.2	2.86
293.15	1	1081.11	2.85
298.15	1	1078.2	2.84
303.15	1	1075.18	2.84
308.15	1	1072.16	2.83
313.15	1	1069.15	2.82
318.15	1	1066.16	2.81
323.15	1	1063.2	2.8

System: 1-butyl-2,3-dimethylimidazolium thiocyanate + acetonitrile; phases: Liquid
Fixed: Pressure, kPa = 100
Property: Electrical conductivity, S/m (Liquid); method: Alternating current cell with electrodes
Mole fraction of 1-butyl-2,3-dimethylimidazolium thiocyanate	Temperature, K	Electrical conductivity, S/m	uncertainty
0.1001	288.15	4.72	0.47
0.1001	293.15	5.01	0.5
0.1001	298.15	5.31	0.53
0.1001	303.15	5.61	0.56
0.1001	308.15	5.92	0.59
0.1001	313.15	6.23	0.62
0.1001	318.15	6.53	0.65
0.1001	323.15	6.83	0.68
0.2004	288.15	4.01	0.4
0.2004	293.15	4.34	0.43
0.2004	298.15	4.69	0.47
0.2004	303.15	5.03	0.5
0.2004	308.15	5.36	0.54
0.2004	313.15	5.7	0.57
0.2004	318.15	6.03	0.6
0.2004	323.15	6.37	0.64
0.2999	288.15	3.35	0.34
0.2999	293.15	3.71	0.37
0.2999	298.15	4.05	0.41
0.2999	303.15	4.42	0.44
0.2999	308.15	4.79	0.48
0.2999	313.15	5.15	0.52
0.2999	318.15	5.52	0.55
0.2999	323.15	5.89	0.59
0.4003	288.15	1.19	0.12
0.4003	293.15	1.45	0.15
0.4003	298.15	1.71	0.17
0.4003	303.15	2.01	0.2
0.4003	308.15	2.34	0.23
0.4003	313.15	2.67	0.27
0.4003	318.15	3.03	0.3
0.4003	323.15	3.4	0.34
0.5001	288.15	0.765	0.077
0.5001	293.15	0.919	0.092
0.5001	298.15	1.12	0.11
0.5001	303.15	1.32	0.13
0.5001	308.15	1.56	0.16
0.5001	313.15	1.81	0.18
0.5001	318.15	2.07	0.21
0.5001	323.15	2.37	0.24
0.5999	288.15	0.599	0.06
0.5999	293.15	0.728	0.073
0.5999	298.15	0.891	0.089
0.5999	303.15	1.06	0.11
0.5999	308.15	1.26	0.13
0.5999	313.15	1.48	0.15
0.5999	318.15	1.73	0.17
0.5999	323.15	2.01	0.2
0.6999	288.15	0.429	0.043
0.6999	293.15	0.531	0.053
0.6999	298.15	0.654	0.065
0.6999	303.15	0.795	0.08
0.6999	308.15	0.96	0.096
0.6999	313.15	1.16	0.12
0.6999	318.15	1.38	0.14
0.6999	323.15	1.63	0.16
0.8002	288.15	0.358	0.036
0.8002	293.15	0.458	0.046
0.8002	298.15	0.57	0.057
0.8002	303.15	0.697	0.07
0.8002	308.15	0.853	0.085
0.8002	313.15	1.03	0.1
0.8002	318.15	1.23	0.12
0.8002	323.15	1.46	0.15
0.9002	288.15	0.24	0.024
0.9002	293.15	0.316	0.032
0.9002	298.15	0.39	0.039
0.9002	303.15	0.497	0.05
0.9002	308.15	0.61	0.061
0.9002	313.15	0.749	0.075
0.9002	318.15	0.913	0.091
0.9002	323.15	1.1	0.11
1	288.15	0.106	0.011
1	293.15	0.153	0.015
1	298.15	0.217	0.022
1	303.15	0.293	0.029
1	308.15	0.386	0.039
1	313.15	0.496	0.05
1	318.15	0.627	0.063
1	323.15	0.774	0.077

System: 1-butyl-2,3-dimethylimidazolium thiocyanate + acetonitrile; phases: Liquid
Fixed: Pressure, kPa = 100
Property: Viscosity, Pa*s (Liquid); method: Falling or rolling sphere viscometry
Mole fraction of 1-butyl-2,3-dimethylimidazolium thiocyanate	Temperature, K	Viscosity, Pa*s	uncertainty
0	288.15	0.000376	5e-06
0	293.15	0.000357	5e-06
0	298.15	0.000339	5e-06
0	303.15	0.000324	4e-06
0	308.15	0.000309	4e-06
0	313.15	0.000295	4e-06
0	318.15	0.000283	4e-06
0	323.15	0.000272	4e-06
0.1001	288.15	0.01694	0.00024
0.1001	293.15	0.01174	0.00016
0.1001	298.15	0.008229	0.000114
0.1001	303.15	0.005854	8.1e-05
0.1001	308.15	0.004393	6.1e-05
0.1001	313.15	0.003257	4.5e-05
0.1001	318.15	0.002458	3.4e-05
0.1001	323.15	0.001882	2.6e-05
0.2004	288.15	0.03893	0.00055
0.2004	293.15	0.02708	0.00039
0.2004	298.15	0.01885	0.00027
0.2004	303.15	0.01295	0.00018
0.2004	308.15	0.009306	0.000132
0.2004	313.15	0.006633	9.4e-05
0.2004	318.15	0.004722	6.7e-05
0.2004	323.15	0.003578	5.1e-05
0.2999	288.15	0.06712	0.00106
0.2999	293.15	0.04677	0.00069
0.2999	298.15	0.03207	0.00047
0.2999	303.15	0.02258	0.00033
0.2999	308.15	0.01616	0.00024
0.2999	313.15	0.01134	0.00017
0.2999	318.15	0.008162	0.00012
0.2999	323.15	0.005904	8.7e-05
0.4003	288.15	0.1027	0.0027
0.4003	293.15	0.07158	0.00125
0.4003	298.15	0.04945	0.00076
0.4003	303.15	0.03451	0.00053
0.4003	308.15	0.02459	0.00038
0.4003	313.15	0.01739	0.00027
0.4003	318.15	0.01295	0.0002
0.4003	323.15	0.009491	0.000145
0.5001	288.15	0.1454	0.0054
0.5001	293.15	0.1009	0.0026
0.5001	298.15	0.0699	0.00123
0.5001	303.15	0.04924	0.00078
0.5001	308.15	0.03495	0.00056
0.5001	313.15	0.02545	0.0004
0.5001	318.15	0.01862	0.0003
0.5001	323.15	0.01367	0.00022
0.5999	288.15	0.1939	0.0091
0.5999	293.15	0.1348	0.0047
0.5999	298.15	0.0937	0.00229
0.5999	303.15	0.06662	0.00116
0.5999	308.15	0.04789	0.00079
0.5999	313.15	0.03542	0.00059
0.5999	318.15	0.02633	0.00043
0.5999	323.15	0.01996	0.00033
0.6999	288.15	0.2491	0.0138
0.6999	293.15	0.1729	0.0075
0.6999	298.15	0.1199	0.0038
0.6999	303.15	0.08589	0.00196
0.6999	308.15	0.06282	0.00108
0.6999	313.15	0.04681	0.0008
0.6999	318.15	0.03555	0.00061
0.6999	323.15	0.02768	0.00048
0.8002	288.15	0.3104	0.0195
0.8002	293.15	0.2147	0.0109
0.8002	298.15	0.1489	0.0058
0.8002	303.15	0.1069	0.0031
0.8002	308.15	0.07898	0.00171
0.8002	313.15	0.05949	0.00103
0.8002	318.15	0.04609	0.00082
0.8002	323.15	0.03689	0.00066
0.9002	288.15	0.3778	0.0262
0.9002	293.15	0.2604	0.0149
0.9002	298.15	0.181	0.0082
0.9002	303.15	0.1303	0.0046
0.9002	308.15	0.09733	0.0026
0.9002	313.15	0.07379	0.00155
0.9002	318.15	0.05794	0.00103
0.9002	323.15	0.04683	0.00087
1	288.15	0.4527	0.0342
1	293.15	0.3113	0.0197
1	298.15	0.218	0.0113
1	303.15	0.1579	0.0066
1	308.15	0.1189	0.0039
1	313.15	0.09046	0.00232
1	318.15	0.07204	0.00153
1	323.15	0.05711	0.00106
