Measured thermophysical data. Low-Temperature and High-Pressure p ? T Relation for 1-(2-Methoxyethyl)-1-methylpyrrolidinium Bis(trifluoromethylsulfonyl)imide and 1-Cn-3-methylimidazolium Thiocyanate with n = 2 and 4
Source: J. Chem. Eng. Data, 2015, 10.1021/acs.jced.5b00074
Compound 1: 1-ethyl-3-methylimidazolium thiocyanate, C7H11N3S, InChI=1S/C6H11N2.CHNS/c1-3-8-5-4-7(2)6-8;2-1-3/h4-6H,3H2,1-2H3;3H/q+1;/p-1, purity 99.5%
Compound 2: 1-butyl-3-methylimidazolium thiocyanate, C9H15N3S, InChI=1S/C8H15N2.CHNS/c1-3-4-5-10-7-6-9(2)8-10;2-1-3/h6-8H,3-5H2,1-2H3;3H/q+1;/p-1, purity 98.4%
Compound 3: 1-(2-methoxyethyl)-1-methylpyrrolidinium bis((trifluoromethyl)sulfonyl)amide, C10H18F6N2O5S2, InChI=1S/C8H18NO.C2F6NO4S2/c1-9(7-8-10-2)5-3-4-6-9;3-1(4,5)14(10,11)9-15(12,13)2(6,7)8/h3-8H2,1-2H3;/q+1;-1, purity 98%

System: 1-ethyl-3-methylimidazolium thiocyanate; phases: Liquid
Property: Mass density, kg/m3 (Liquid); method: MSONE:UFactor:0.5
Temperature, K	Pressure, kPa	Mass density, kg/m3	uncertainty
298.15	101.325	1115.79	0.56

System: 1-ethyl-3-methylimidazolium thiocyanate; phases: Liquid
Property: Mass density, kg/m3 (Liquid); method: Constant-volume piezometry
Temperature, K	Pressure, kPa	Mass density, kg/m3	uncertainty
298.155	156.9	1115.56	2.4
298.16	19991	1123.04	2.42
291.468	9629	1123.59	2.41
285.687	584.3	1124.07	2.4
305.117	29852	1122.47	2.43
312.421	40305	1121.88	2.44
320.072	49974	1121.28	2.46
298.154	10052	1119.54	2.41
292.241	1005.6	1120.02	2.4
304.966	20369	1118.98	2.42
312.12	30972	1118.39	2.43
318.593	39656	1117.88	2.44
326.585	49994	1117.25	2.46
304.325	10098	1115.38	2.41
298.327	1121	1115.87	2.4
318.262	29946	1114.25	2.43
311.109	19424	1114.84	2.42
325.817	40981	1113.63	2.45
332.174	50103	1113.11	2.46
311.111	10111	1110.95	2.41
317.832	19821	1110.41	2.42
324.821	29717	1109.85	2.43
305.15	392.3	1111.46	2.4
332.089	39738	1109.26	2.45
339.221	49889	1108.68	2.47
318.341	10033	1106.27	2.41
312.331	1469.9	1106.75	2.4
325.125	18882	1105.74	2.42
332.912	30521	1105.1	2.43
339.87	39160	1104.56	2.45
348.156	49572	1103.92	2.47
325.111	10015	1102.2	2.41
318.848	1162.8	1102.7	2.41
332.258	19178	1101.64	2.42
340.56	31075	1100.97	2.44
347.12	39885	1100.45	2.45
298.178	144.6	1115.83	2.4

System: 1-butyl-3-methylimidazolium thiocyanate; phases: Liquid
Property: Mass density, kg/m3 (Liquid); method: MSONE:UFactor:0.5
Temperature, K	Pressure, kPa	Mass density, kg/m3	uncertainty
298.15	101.325	1068.87	0.69

System: 1-butyl-3-methylimidazolium thiocyanate; phases: Liquid
Property: Mass density, kg/m3 (Liquid); method: Constant-volume piezometry
Temperature, K	Pressure, kPa	Mass density, kg/m3	uncertainty
298.135	189.3	1068.93	2.47
298.159	19994	1076.49	2.52
290.761	9534.4	1077.06	2.49
284.892	1090	1077.51	2.47
305.948	30711	1075.89	2.55
313.133	40532	1075.34	2.57
320.274	50100	1074.79	2.6
298.154	10026	1072.52	2.49
291.627	992.7	1073.02	2.47
305.763	19744	1071.95	2.52
313.74	30541	1071.34	2.55
320.184	39290	1070.85	2.57
327.541	49039	1070.29	2.6
305.771	10028	1068.16	2.5
313.082	19807	1067.6	2.52
320.424	29587	1067.05	2.54
328.383	39993	1066.45	2.58
336.066	50286	1065.86	2.61
299.177	1742.4	1068.64	2.48
313.218	10163	1063.77	2.5
320.597	19810	1063.22	2.52
328.2	29591	1062.65	2.55
306.419	1193.4	1064.28	2.48
335.866	39248	1062.08	2.57
343.842	49169	1061.48	2.6
320.816	10013	1059.38	2.5
313.808	1014.7	1059.9	2.48
328.688	20013	1058.8	2.52
336.604	29984	1058.21	2.55
344.657	39931	1057.61	2.58
352.743	49646	1057.01	2.61
328.717	9972.3	1055.08	2.5
321.505	869.1	1055.62	2.48
336.956	20116	1054.48	2.52
345.205	30223	1053.87	2.55
353.346	39981	1053.27	2.58
353.521	30073	1049.5	2.55
345.137	20131	1050.11	2.52
336.599	9820	1050.74	2.5
329.248	816.7	1051.28	2.48
290.774	30045	1085.04	2.54
298.548	41137	1084.43	2.57
305.537	50956	1083.89	2.61
283.779	19747	1085.59	2.52
270.763	1058.8	1086.54	2.47
277.112	10583	1086.05	2.49
277.124	30004	1093.88	2.54
270.446	19719	1094.41	2.52
283.813	40026	1093.37	2.57
290.577	49982	1092.84	2.6
258.848	1123	1095.36	2.48
264.152	9963.8	1094.93	2.5
264.174	30062	1102.86	2.55
257.87	19975	1103.39	2.52
270.521	40167	1102.36	2.57
276.686	49762	1101.86	2.6
246.354	1034.7	1104.33	2.49
251.736	9083	1103.91	2.5
251.742	30034	1111.82	2.56
263.995	50334	1110.81	2.61
257.811	40764	1111.31	2.58
245.804	20792	1112.3	2.53
239.61	10086	1112.82	2.51
234.674	1627.3	1113.23	2.49
239.569	30097	1120.75	2.57
245.261	39825	1120.27	2.59
251.106	49807	1119.78	2.62
234.006	20299	1121.22	2.54
223.522	1310.3	1122.11	2.5

System: 1-(2-methoxyethyl)-1-methylpyrrolidinium bis((trifluoromethyl)sulfonyl)amide; phases: Liquid
Property: Mass density, kg/m3 (Liquid); method: MSONE:UFactor:0.5
Temperature, K	Pressure, kPa	Mass density, kg/m3	uncertainty
298.15	101.325	1453.73	1.79

System: 1-(2-methoxyethyl)-1-methylpyrrolidinium bis((trifluoromethyl)sulfonyl)amide; phases: Liquid
Property: Mass density, kg/m3 (Liquid); method: Constant-volume piezometry
Temperature, K	Pressure, kPa	Mass density, kg/m3	uncertainty
298.156	184.8	1454.14	2.91
298.16	19930	1467.4	3.05
290.344	10114	1468.19	2.98
283.313	1157.4	1468.91	2.92
305.998	29496	1466.61	3.12
314.083	39328	1465.79	3.19
322.411	49122	1464.95	3.27
298.144	9977.4	1460.38	2.98
290.951	1174.6	1461.1	2.92
306.205	19796	1459.57	3.05
314.908	30195	1458.69	3.12
323.414	40135	1457.84	3.19
332.235	50075	1456.97	3.27
306.195	10050	1452.89	2.98
298.734	1184.4	1453.63	2.92
314.448	19742	1452.07	3.04
323.262	29974	1451.19	3.12
332.382	40166	1450.29	3.19
341.843	50115	1449.37	3.27
314.557	10042	1445.24	2.97
306.916	1305	1446	2.92
323.251	19435	1444.4	3.04
332.752	30576	1443.45	3.12
341.997	40496	1442.55	3.19
350.699	49273	1441.72	3.26
323.346	10093	1437.25	2.97
350.827	39801	1434.58	3.18
341.572	29865	1435.48	3.11
314.642	1516.7	1438.06	2.91
332.401	19950	1436.37	3.04
332.408	10167	1429.21	2.97
341.6	19888	1428.33	3.03
324.319	1570.4	1429.99	2.91
351.15	29832	1427.41	3.1
351.153	20086	1420.63	3.03
333.27	1692.6	1422.33	2.91
341.201	9472.1	1421.59	2.96
341.196	1036.7	1414.71	2.9
353.148	13082	1413.58	2.98
290.381	30034	1480.54	3.13
268.31	596.9	1482.84	2.93
275.21	9904	1482.12	2.99
282.743	19993	1481.33	3.06
290.371	30025	1480.53	3.13
298.251	40245	1479.71	3.21
306.057	50219	1478.9	3.28
275.233	29940	1494.97	3.14
267.897	19632	1495.75	3.07
260.96	9666.4	1496.5	3.01
254.645	537.7	1497.17	2.96
275.228	29947	1494.96	3.14
282.673	40078	1494.17	3.21
290.222	50085	1493.38	3.29
260.93	30026	1508.21	3.17
254.118	20063	1508.94	3.11
247.414	9851.9	1509.67	3.05
241.486	742.4	1510.32	2.99
260.949	29946	1508.15	3.17
267.82	39971	1507.4	3.23
274.837	49913	1506.65	3.3
247.4	30133	1521.17	3.2
253.941	40270	1520.45	3.27
260.512	50439	1519.72	3.34
240.888	19613	1521.9	3.14
234.77	9729.1	1522.59	3.08
229.673	1388.2	1523.16	3.03
234.721	30019	1533.95	3.24
240.871	39948	1533.26	3.3
228.743	19792	1534.64	3.17
223.011	9984.6	1535.3	3.11
217.577	362.6	1535.93	3.05
