Measured thermophysical data. Compressed Liquid Density and Vapor Phase PvT Measurements of trans-1-Chloro-3,3,3-trifluoroprop-1-ene [R1233zd(E)]
Source: J. Chem. Eng. Data, 2018, 10.1021/acs.jced.7b00841
Compound 1: (E)-1-chloro-3,3,3-trifluoroprop-1-ene, C3H2ClF3, InChI=1S/C3H2ClF3/c4-2-1-3(5,6)7/h1-2H/b2-1+, purity 99.5%

System: (E)-1-chloro-3,3,3-trifluoroprop-1-ene; phases: Liquid
Property: Mass density, kg/m3 (Liquid); method: Vibrating tube method
Temperature, K	Pressure, kPa	Mass density, kg/m3	uncertainty
283.15	133	1297.8	0.8
283.15	500	1298.7	0.8
283.16	1000	1300	0.8
283.16	2500	1303.7	0.8
283.15	5000	1309.8	0.9
283.15	10000	1321	0.9
283.15	15000	1331.4	0.9
283.15	20000	1341.1	0.9
283.16	25000	1350.1	1
283.14	29999	1358.6	1
283.15	35000	1366.8	1.1
293.15	151	1274.3	0.8
293.14	499	1275.3	0.8
293.14	1000	1276.7	0.8
293.14	2500	1280.9	0.8
293.14	5000	1287.6	0.8
293.15	9999	1299.9	0.9
293.14	15000	1311.3	0.9
293.14	20000	1321.7	0.9
293.15	25000	1331.4	1
293.16	30000	1340.6	1
293.14	35000	1349.2	1
293.15	151	1274.3	0.8
303.15	250	1250.3	0.8
303.15	501	1251.2	0.8
303.15	1001	1252.7	0.8
303.15	2499	1257.4	0.8
303.15	5000	1264.8	0.8
303.16	10001	1278.4	0.9
303.16	15003	1290.7	0.9
303.16	20002	1301.9	0.9
303.16	25001	1312.3	0.9
303.16	30000	1322	1
303.15	35000	1331.1	1
333.15	500	1172.6	0.8
333.15	1000	1175.1	0.8
333.14	2500	1182	0.8
333.15	5000	1192.7	0.8
333.15	10000	1211.7	0.8
333.15	15001	1228.2	0.9
333.14	20000	1242.9	0.9
333.14	25003	1256.2	0.9
333.14	30002	1268.3	0.9
333.14	35000	1279.5	1
343.15	700	1145	0.8
343.15	1000	1146.6	0.8
343.15	2500	1154.6	0.8
343.15	5000	1166.8	0.8
343.15	10000	1188.1	0.8
343.15	15000	1206.2	0.9
343.15	20003	1222.1	0.9
343.15	25000	1236.4	0.9
343.15	30001	1249.4	0.9
343.15	35002	1261.5	1
353.15	801	1114.4	0.8
353.15	1000	1116.5	0.8
353.15	2500	1125.4	0.8
353.15	5000	1139.8	0.8
353.15	10000	1163.9	0.8
353.15	15000	1184.3	0.8
353.15	20000	1201.7	0.9
353.15	25000	1217.2	0.9
353.15	30000	1231.2	0.9
353.15	34999	1243.9	0.9
313.15	351	1225.4	0.8
313.15	501	1226	0.8
313.15	1000	1227.8	0.8
313.15	2500	1233.1	0.8
313.15	5000	1241.3	0.8
313.15	10000	1256.4	0.9
313.15	15000	1269.9	0.9
313.15	19999	1282.1	0.9
313.15	25000	1293.4	0.9
313.15	30000	1303.8	1
313.14	35000	1313.5	1
323.15	500	1199.9	0.8
323.15	1000	1202	0.8
323.15	2500	1208	0.8
323.15	5000	1217.4	0.8
323.15	10000	1234.3	0.9
323.15	15000	1249.2	0.9
323.15	19999	1262.7	0.9
323.15	24999	1274.9	0.9
323.15	30000	1286.3	1
323.15	35000	1296.8	1
363.15	1200	1085.8	0.8
363.15	2500	1095.5	0.8
363.15	5000	1112.1	0.8
363.15	10000	1139.5	0.8
363.15	15001	1161.9	0.8
363.14	20001	1180.8	0.9
363.15	25001	1197.5	0.9
363.15	30000	1212.5	0.9
363.14	35000	1226.2	0.9

System: (E)-1-chloro-3,3,3-trifluoroprop-1-ene; phases: Gas
Property: Specific volume, m3/kg (Gas); method: ISOCHOR
Temperature, K	Pressure, kPa	Specific volume, m3/kg	uncertainty
308.15	167	0.11	0.0005
313.15	170	0.1101	0.0005
318.15	174	0.1101	0.0005
323.15	177	0.1101	0.0005
328.15	180	0.1101	0.0004
333.15	183	0.1101	0.0004
338.15	186	0.1102	0.0004
343.15	189	0.1102	0.0004
348.15	192	0.1102	0.0004
353.15	195	0.1102	0.0004
358.15	198	0.1103	0.0004
363.15	202	0.1103	0.0004
368.15	205	0.1103	0.0004
373.15	208	0.1103	0.0004
323.15	274	0.0684	0.0005
328.15	280	0.0684	0.0004
333.15	285	0.0684	0.0003
338.15	290	0.0685	0.0003
343.15	296	0.0685	0.0003
348.15	301	0.0685	0.0003
353.15	306	0.0685	0.0003
358.15	311	0.0685	0.0003
363.15	316	0.0685	0.0003
368.15	321	0.0685	0.0003
373.15	326	0.0686	0.0003
333.15	372	0.0508	0.0002
338.15	380	0.0509	0.0002
343.15	387	0.0509	0.0002
348.15	394	0.0509	0.0002
353.15	401	0.0509	0.0002
358.15	409	0.0509	0.0002
363.15	416	0.0509	0.0002
368.15	423	0.0509	0.0002
373.15	430	0.0509	0.0002
338.15	415	0.0461	0.0002
343.15	423	0.0461	0.0002
348.15	431	0.0462	0.0002
353.15	439	0.0462	0.0002
358.15	447	0.0462	0.0002
363.15	455	0.0462	0.0002
368.15	463	0.0462	0.0002
373.15	470	0.0462	0.0002
343.15	458	0.0419	0.0002
348.15	468	0.0419	0.0002
353.15	477	0.042	0.0002
358.15	486	0.042	0.0002
363.15	494	0.042	0.0002
368.15	503	0.042	0.0002
373.15	512	0.042	0.0002
348.15	550	0.0349	0.0002
353.15	562	0.0349	0.0002
358.15	573	0.0349	0.0002
363.15	584	0.0349	0.0002
368.15	594	0.0349	0.0002
373.15	605	0.0349	0.0002
353.15	639	0.0297	0.0002
358.15	654	0.0297	0.0002
363.15	667	0.0297	0.0002
368.15	680	0.0298	0.0002
373.15	693	0.0298	0.0002
