Measured thermophysical data. Thermodynamic Study of (KCl + N,N-Dimethylformamide + Water) System Based on Potentiometric Measurements
Source: J. Chem. Eng. Data, 2018, 10.1021/acs.jced.8b00009
Compound 1: potassium chloride, ClK, InChI=1S/ClH.K/h1H;/q;+1/p-1, purity 99%
Compound 2: dimethylformamide, C3H7NO, InChI=1S/C3H7NO/c1-4(2)3-5/h3H,1-2H3, purity 99%
Compound 3: water, H2O, InChI=1S/H2O/h1H2, purity 99.8%

System: potassium chloride + dimethylformamide + water; phases: Liquid
Fixed: Pressure, kPa = 100
Property: Mean ionic activity coefficient of potassium chloride (Liquid); method: Calculated from EMF cell potential
Solvent: Mass fraction of dimethylformamide	Molality, mol/kg of potassium chloride	Temperature, K	Mean ionic activity coefficient of potassium chloride	uncertainty
0	0.0124	298.2	0.9267	0.0272
0	0.0492	298.2	0.8051	0.0281
0	0.0971	298.2	0.7441	0.0286
0	0.2494	298.2	0.6658	0.0292
0	0.4982	298.2	0.6601	0.0292
0	0.751	298.2	0.6303	0.0294
0	1.0003	298.2	0.5974	0.0297
0	1.2505	298.2	0.5973	0.0297
0	1.4995	298.2	0.5918	0.0297
0	1.7494	298.2	0.5806	0.0298
0	2.0006	298.2	0.5688	0.0299
0	2.2501	298.2	0.571	0.0299
0.1	0.0112	298.2	0.9219	0.0273
0.1	0.0496	298.2	0.769	0.0284
0.1	0.0976	298.2	0.7032	0.0289
0.1	0.2521	298.2	0.6436	0.0293
0.1	0.498	298.2	0.5885	0.0298
0.1	0.7506	298.2	0.5589	0.03
0.1	1.0001	298.2	0.5416	0.0301
0.1	1.2505	298.2	0.5313	0.0302
0.1	1.4995	298.2	0.523	0.0303
0.1	1.7497	298.2	0.5211	0.0303
0.1	2.0001	298.2	0.5496	0.0301
0.1	2.2501	298.2	0.5457	0.0301
0.1	2.5	298.2	0.5549	0.0301
0.1	2.52	298.2	0.5611	0.03
0.2	0.0112	298.2	0.9408	0.0272
0.2	0.0496	298.2	0.7416	0.0286
0.2	0.0975	298.2	0.673	0.0291
0.2	0.2516	298.2	0.6407	0.0294
0.2	0.5004	298.2	0.5833	0.0298
0.2	0.7503	298.2	0.5558	0.03
0.2	0.9992	298.2	0.5407	0.0301
0.2	1.251	298.2	0.5293	0.0302
0.2	1.5008	298.2	0.5398	0.0302
0.2	1.7502	298.2	0.5376	0.0302
0.2	2.0003	298.2	0.5285	0.0302
0.2	2.2501	298.2	0.5299	0.0302
0.2	2.35	298.2	0.5393	0.0302
0.3	0.0094	298.2	0.93	0.0272
0.3	0.051	298.2	0.7285	0.0287
0.3	0.1001	298.2	0.684	0.029
0.3	0.2516	298.2	0.616	0.0296
0.3	0.5012	298.2	0.5614	0.03
0.3	0.7497	298.2	0.5354	0.0302
0.3	0.9996	298.2	0.5091	0.0304
0.3	1.2502	298.2	0.4982	0.0305
0.3	1.4998	298.2	0.5016	0.0305
0.3	1.7499	298.2	0.5144	0.0304
0.3	2.0001	298.2	0.5456	0.0301
0	0.0126	308.2	0.8963	0.0274
0	0.0498	308.2	0.803	0.0281
0	0.0982	308.2	0.7793	0.0283
0	0.2519	308.2	0.6893	0.029
0	0.5024	308.2	0.6455	0.0293
0	0.7522	308.2	0.6221	0.0295
0	0.9991	308.2	0.6063	0.0296
0	1.2525	308.2	0.5941	0.0297
0	1.5005	308.2	0.5946	0.0297
0	1.7501	308.2	0.5844	0.0298
0	2.0006	308.2	0.5827	0.0298
0	2.2504	308.2	0.5774	0.0299
0	2.5002	308.2	0.5793	0.0298
0.1	0.0114	308.2	0.9141	0.0273
0.1	0.0507	308.2	0.7659	0.0284
0.1	0.0999	308.2	0.7073	0.0288
0.1	0.2481	308.2	0.6312	0.0294
0.1	0.501	308.2	0.5826	0.0298
0.1	0.7503	308.2	0.5541	0.03
0.1	1.0001	308.2	0.5302	0.0302
0.1	1.2495	308.2	0.5111	0.0304
0.1	1.5002	308.2	0.5071	0.0304
0.1	1.7497	308.2	0.5029	0.0304
0.1	1.9998	308.2	0.4825	0.0306
0.1	2.25	308.2	0.4676	0.0308
0.1	2.4999	308.2	0.4779	0.0307
0.2	0.051	308.2	0.7963	0.0282
0.2	0.1002	308.2	0.7061	0.0289
0.2	0.2508	308.2	0.6083	0.0296
0.2	0.4998	308.2	0.5597	0.03
0.2	0.7505	308.2	0.535	0.0302
0.2	0.9989	308.2	0.5208	0.0303
0.2	1.2505	308.2	0.5122	0.0304
0.2	1.5002	308.2	0.5074	0.0304
0.2	1.7502	308.2	0.5079	0.0304
0.2	1.9999	308.2	0.5109	0.0304
0.3	0.0495	308.2	0.7788	0.0283
0.3	0.1002	308.2	0.6999	0.0289
0.3	0.2514	308.2	0.6051	0.0296
0.3	0.5001	308.2	0.5324	0.0302
0.3	0.7499	308.2	0.5048	0.0304
0.3	1.0002	308.2	0.492	0.0305
0.3	1.2502	308.2	0.4913	0.0305
0.3	1.4999	308.2	0.4841	0.0306
0.3	1.7499	308.2	0.4948	0.0305

System: potassium chloride + water; phases: Liquid
Fixed: Pressure, kPa = 100
Property: Mean ionic activity coefficient of potassium chloride (Liquid); method: Calculated from EMF cell potential
Molality, mol/kg of potassium chloride	Temperature, K	Mean ionic activity coefficient of potassium chloride	uncertainty
0.0124	298.2	0.9267	0.0272
0.0492	298.2	0.8051	0.0281
0.0971	298.2	0.7441	0.0286
0.2494	298.2	0.6658	0.0292
0.4982	298.2	0.6601	0.0292
0.751	298.2	0.6303	0.0294
1.0003	298.2	0.5974	0.0297
1.2505	298.2	0.5973	0.0297
1.4995	298.2	0.5918	0.0297
1.7494	298.2	0.5806	0.0298
2.0006	298.2	0.5688	0.0299
2.2501	298.2	0.571	0.0299
0.0126	308.2	0.8963	0.0274
0.0498	308.2	0.803	0.0281
0.0982	308.2	0.7793	0.0283
0.2519	308.2	0.6893	0.029
0.5024	308.2	0.6455	0.0293
0.7522	308.2	0.6221	0.0295
0.9991	308.2	0.6063	0.0296
1.2525	308.2	0.5941	0.0297
1.5005	308.2	0.5946	0.0297
1.7501	308.2	0.5844	0.0298
2.0006	308.2	0.5827	0.0298
2.2504	308.2	0.5774	0.0299
2.5002	308.2	0.5793	0.0298
