Measured thermophysical data. Liquid-Liquid Equilibrium Data for Ternary Systems Containing Alkanes (n-Pentane, n-Hexane, n-Heptane, and n-Octane) + Alcohol (Methanol and Ethanol) + Protic Ionic Liquid (2-HEAF)
Source: J. Chem. Eng. Data, 2019, 10.1021/acs.jced.9b00375
Compound 1: 2-hydroxyethylammonium formate, C3H9NO3, InChI=1S/C2H7NO.CH2O2/c3-1-2-4;2-1-3/h4H,1-3H2;1H,(H,2,3), purity 98.3%
Compound 2: pentane, C5H12, InChI=1S/C5H12/c1-3-5-4-2/h3-5H2,1-2H3, purity 99.5%
Compound 3: hexane, C6H14, InChI=1S/C6H14/c1-3-5-6-4-2/h3-6H2,1-2H3, purity 97%
Compound 4: heptane, C7H16, InChI=1S/C7H16/c1-3-5-7-6-4-2/h3-7H2,1-2H3, purity 99%
Compound 5: octane, C8H18, InChI=1S/C8H18/c1-3-5-7-8-6-4-2/h3-8H2,1-2H3, purity 98%
Compound 6: ethanol, C2H6O, InChI=1S/C2H6O/c1-2-3/h3H,2H2,1H3, purity 99.5%
Compound 7: methanol, CH4O, InChI=1S/CH4O/c1-2/h2H,1H3, purity 99.8%

System: 2-hydroxyethylammonium formate; phases: Liquid
Property: Mass density, kg/m3 (Liquid); method: Vibrating tube method
Temperature, K	Pressure, kPa	Mass density, kg/m3	uncertainty
298.15	101.3	1215	16

System: pentane; phases: Liquid
Property: Mass density, kg/m3 (Liquid); method: Vibrating tube method
Temperature, K	Pressure, kPa	Mass density, kg/m3	uncertainty
298.15	101.3	621.3	16

System: hexane; phases: Liquid
Property: Mass density, kg/m3 (Liquid); method: Vibrating tube method
Temperature, K	Pressure, kPa	Mass density, kg/m3	uncertainty
298.15	101.3	668	16

System: heptane; phases: Liquid
Property: Mass density, kg/m3 (Liquid); method: Vibrating tube method
Temperature, K	Pressure, kPa	Mass density, kg/m3	uncertainty
298.15	101.3	679	16

System: octane; phases: Liquid
Property: Mass density, kg/m3 (Liquid); method: Vibrating tube method
Temperature, K	Pressure, kPa	Mass density, kg/m3	uncertainty
298.15	101.3	698.7	16

System: ethanol; phases: Liquid
Property: Mass density, kg/m3 (Liquid); method: Vibrating tube method
Temperature, K	Pressure, kPa	Mass density, kg/m3	uncertainty
298.15	101.3	785.7	16

System: methanol; phases: Liquid
Property: Mass density, kg/m3 (Liquid); method: Vibrating tube method
Temperature, K	Pressure, kPa	Mass density, kg/m3	uncertainty
298.15	101.3	786.7	16

System: pentane + ethanol + 2-hydroxyethylammonium formate; phases: Liquid
Fixed: Pressure, kPa = 101.3
Fixed: Temperature, K = 298.15
Property: Mass density, kg/m3 (Liquid); method: Vibrating tube method
Mass fraction of pentane	Mass fraction of ethanol	Mass density, kg/m3	uncertainty
0.9491	0	625.1	16
0.9124	0.0666	629.7	16.1
0.8904	0.0997	635	16.1
0.8133	0.1742	646.7	16.1
0.7854	0.2018	651.2	16.1
0.7475	0.2416	660	16.1
0.6454	0.3151	678.8	16.1
0.5885	0.3663	692.6	16.1
0.4661	0.4458	726.7	16.1
0.0453	0.0755	1146.6	16.1
0.0601	0.1635	1099.7	16.1
0.046	0.235	1066.2	16.1
0.0434	0.2465	1065.7	16.1
0.0438	0.2891	1041.3	16.1
0.0421	0.3807	995	16.1
0.0495	0.4095	978.8	16.1
0.0572	0.4299	957.4	16.1
0.9341	0.0319	627.6	16.1
0.9066	0.0751	631.4	16.1
0.8503	0.1402	639.8	16.1
0.776	0.2097	652.6	16.1
0.745	0.2362	658.5	16.1
0.0438	0.1813	1096.7	16.1
0.0454	0.236	1068.7	16.1
0.0494	0.321	1023	16.1
0.0548	0.4029	976.3	16.1
0.0578	0.4425	952.8	16.1

System: pentane + ethanol + 2-hydroxyethylammonium formate; phases: Liquid mixture 1, Liquid mixture 2
Fixed: Temperature, K = 298.15
Fixed: Pressure, kPa = 101.3
Property: Mass fraction of ethanol (Liquid mixture 1); method: Titration method
Mass fraction of pentane	Mass fraction of ethanol	uncertainty
0.9491	0	
0.9124	0.0666	0.0397
0.8904	0.0997	0.0292
0.8133	0.1742	0.0283
0.7854	0.2018	0.0292
0.7475	0.2416	0.0264
0.6454	0.3151	0.0268
0.5885	0.3663	0.0267
0.4661	0.4458	0.0254
0.0453	0.0755	0.0267
0.0601	0.1635	0.0248
0.046	0.235	0.0233
0.0434	0.2465	0.0232
0.0438	0.2891	0.0228
0.0421	0.3807	0.0229
0.0495	0.4095	0.0232
0.0572	0.4299	0.0234

System: pentane + ethanol + 2-hydroxyethylammonium formate; phases: Liquid mixture 2, Liquid mixture 1
Fixed: Temperature, K = 298.15
Fixed: Pressure, kPa = 101.3
Property: Mass fraction of pentane (Liquid mixture 2); method: Density calibration data
Property: Mass fraction of pentane (Liquid mixture 1); method: Density calibration data
Property: Mass fraction of ethanol (Liquid mixture 1); method: Density calibration data
Mass fraction of ethanol	Mass fraction of pentane	uncertainty	Mass fraction of pentane	uncertainty	Mass fraction of ethanol	uncertainty
0.1813	0.0438	0.02	0.9341	0.0237	0.0319	
0.236	0.0454	0.02	0.9066	0.0255	0.0751	
0.321	0.0494	0.0201	0.8503	0.0281	0.1402	
0.4029	0.0548	0.0201	0.776	0.03	0.2097	
0.4425	0.0578	0.0201	0.745	0.0313	0.2362	

System: hexane + ethanol + 2-hydroxyethylammonium formate; phases: Liquid
Fixed: Pressure, kPa = 101.3
Fixed: Temperature, K = 298.15
Property: Mass density, kg/m3 (Liquid); method: Vibrating tube method
Mass fraction of hexane	Mass fraction of ethanol	Mass density, kg/m3	uncertainty
0.9982	0	663.6	16
0.8668	0.1168	674.2	17.9
0.7407	0.2426	691.8	24
0.5934	0.3583	717.2	43.9
0.4615	0.4514	758.9	37.8
0.3065	0.5144	801.5	43.7
0.3081	0.5163	791.8	46.5
0.1811	0.5589	841.1	41.2
0.0799	0.544	883.7	81.8
0.0028	0	1182.7	20.2
0.0174	0.1153	1127	92.8
0.0415	0.3571	1001.7	41.7
0.0572	0.4299	957.4	56
0.0711	0.4723	929	75.6
0.9713	0.0268	664.2	25.8
0.9434	0.0527	666.7	27.1
0.9348	0.0607	667.4	30.3
0.8897	0.102	672.1	17.5
0.8467	0.1408	677.3	18.7
0.8262	0.1592	680	19.5
0.0154	0.1153	1125.5	75.9
0.0247	0.1911	1086	40
0.0306	0.2372	1061.7	42.2
0.0442	0.3359	1008.9	39.8
0.0582	0.4273	959	67.7
0.0582	0.4717	937.8	52.9

System: hexane + ethanol + 2-hydroxyethylammonium formate; phases: Liquid mixture 1, Liquid mixture 2
Fixed: Temperature, K = 298.15
Fixed: Pressure, kPa = 101.3
Property: Mass fraction of ethanol (Liquid mixture 1); method: Titration method
Mass fraction of hexane	Mass fraction of ethanol	uncertainty
0.9982	0	
0.8668	0.1168	0.0277
0.7407	0.2426	0.0275
0.5934	0.3583	0.027
0.4615	0.4514	0.0262
0.3065	0.5144	0.0255
0.3081	0.5163	0.0254
0.1811	0.5589	0.0237
0.0799	0.544	0.1033
0.0028	0	
0.0174	0.1153	0.1153
0.0415	0.3571	0.1328
0.0572	0.4299	0.1415
0.0711	0.4723	0.0349

System: hexane + ethanol + 2-hydroxyethylammonium formate; phases: Liquid mixture 1, Liquid mixture 2
Fixed: Temperature, K = 298.15
Fixed: Pressure, kPa = 101.3
Property: Mass fraction of hexane (Liquid mixture 1); method: Density calibration data
Property: Mass fraction of hexane (Liquid mixture 2); method: Density calibration data
Property: Mass fraction of ethanol (Liquid mixture 2); method: Density calibration data
Mass fraction of ethanol	Mass fraction of hexane	uncertainty	Mass fraction of hexane	uncertainty	Mass fraction of ethanol	uncertainty
0.1153	0.0154	0.0154	0.9713	0.0287	0.0268	
0.1911	0.0247	0.0202	0.9434	0.0295	0.0527	
0.2372	0.0306	0.0202	0.9348	0.0295	0.0607	
0.3359	0.0442	0.0202	0.8897	0.0298	0.102	
0.4273	0.0582	0.0202	0.8467	0.03	0.1408	
0.4717	0.0582	0.02	0.8262	0.0301	0.1592	

System: heptane + ethanol + 2-hydroxyethylammonium formate; phases: Liquid
Fixed: Pressure, kPa = 101.3
Fixed: Temperature, K = 298.15
Property: Mass density, kg/m3 (Liquid); method: Vibrating tube method
Mass fraction of heptane	Mass fraction of ethanol	Mass density, kg/m3	uncertainty
0.9989	0	680	16
0.8727	0.1244	689.9	18.3
0.738	0.2436	704.1	29.3
0.5954	0.3479	738.3	31.2
0.0869	0.5719	887.2	50.1
0.0045	0	1183	28.5
0.0015	0.1154	1127.9	21
0.0265	0.2359	1067.5	94.1
0.0187	0.3708	1003.8	59.1
0.0419	0.4669	950.4	47.9
0.0848	0.5665	889.1	50.9
0.0884	0.6875	864.4	50.6
0.9541	0.0455	682.4	18
0.9374	0.0612	683.8	18.6
0.9339	0.0644	684	32.4
0.9063	0.09	686.5	17.2
0.9005	0.0953	687	17.3
0.8956	0.0998	687.5	17.4
0.0172	0.2422	1060.3	82.3
0.0208	0.2802	1041.4	92.5
0.0295	0.3565	1004	45.7
0.0332	0.384	959.4	49.8
0.0432	0.4508	990.8	69.7
0.0512	0.497	938.1	51.3

System: heptane + ethanol + 2-hydroxyethylammonium formate; phases: Liquid mixture 1, Liquid mixture 2
Fixed: Temperature, K = 298.15
Fixed: Pressure, kPa = 101.3
Property: Mass fraction of ethanol (Liquid mixture 1); method: Titration method
Mass fraction of heptane	Mass fraction of ethanol	uncertainty
0.9989	0	
0.8727	0.1244	0.0276
0.738	0.2436	0.0266
0.5954	0.3479	0.0261
0.0869	0.5719	0.0522
0.0045	0	
0.0015	0.1154	0.0215
0.0265	0.2359	0.1371
0.0187	0.3708	0.0807
0.0419	0.4669	0.0624
0.0848	0.5665	0.052
0.0884	0.6875	0.0974

System: heptane + ethanol + 2-hydroxyethylammonium formate; phases: Liquid mixture 1, Liquid mixture 2
Fixed: Temperature, K = 298.15
Fixed: Pressure, kPa = 101.3
Property: Mass fraction of heptane (Liquid mixture 1); method: Density calibration data
Property: Mass fraction of heptane (Liquid mixture 2); method: Density calibration data
Property: Mass fraction of ethanol (Liquid mixture 2); method: Density calibration data
Mass fraction of ethanol	Mass fraction of heptane	uncertainty	Mass fraction of heptane	uncertainty	Mass fraction of ethanol	uncertainty
0.2422	0.0172	0.0172	0.9541	0.02	0.0455	
0.2802	0.0208	0.0201	0.9374	0.02	0.0612	
0.3565	0.0295	0.0201	0.9339	0.02	0.0644	
0.384	0.0332	0.0202	0.9063	0.0201	0.09	
0.4508	0.0432	0.0203	0.9005	0.0201	0.0953	
0.497	0.0512	0.0203	0.8956	0.0201	0.0998	

System: octane + ethanol + 2-hydroxyethylammonium formate; phases: Liquid
Fixed: Pressure, kPa = 101.3
Fixed: Temperature, K = 298.15
Property: Mass density, kg/m3 (Liquid); method: Vibrating tube method
Mass fraction of octane	Mass fraction of ethanol	Mass density, kg/m3	uncertainty
0.9971	0	699.7	16
0.869	0.1158	706.4	18
0.7443	0.2428	716.4	27.5
0.5912	0.3712	745.4	46.1
0.48	0.471	755	40.2
0.1042	0.6753	847.9	32.1
0.0035	0	1192.6	16.2
0.0055	0.1162	1135	21.1
0.0084	0.2454	1073.6	46.8
0.0167	0.3709	1012	62
0.0484	0.4657	955	50.3
0.0498	0.5754	908.3	41.8
0.0794	0.6911	852.6	32
0.9887	0.0073	699.4	16
0.971	0.0245	700.3	34.9
0.9629	0.0322	700.7	31.7
0.9452	0.0492	701.7	16.4
0.9141	0.0789	703.7	17
0.9062	0.0864	704.2	17.1
0.0026	0.1202	1134.8	21.1
0.0081	0.194	1096.5	48.6
0.0114	0.2466	1070.4	60.8
0.0225	0.3682	1010.1	58.7
0.0343	0.4593	965.1	47.2
0.0408	0.5007	944.7	64.4

System: octane + ethanol + 2-hydroxyethylammonium formate; phases: Liquid mixture 1, Liquid mixture 2
Fixed: Temperature, K = 298.15
Fixed: Pressure, kPa = 101.3
Property: Mass fraction of ethanol (Liquid mixture 1); method: Titration method
Mass fraction of octane	Mass fraction of ethanol	uncertainty
0.9971	0	
0.869	0.1158	0.0279
0.7443	0.2428	0.028
0.5912	0.3712	0.0284
0.48	0.471	0.0269
0.1042	0.6753	0.0254
0.0035	0	
0.0055	0.1162	0.0492
0.0084	0.2454	0.0509
0.0167	0.3709	0.0548
0.0484	0.4657	0.1048
0.0498	0.5754	0.1052
0.0794	0.6911	0.0439

System: octane + ethanol + 2-hydroxyethylammonium formate; phases: Liquid mixture 1, Liquid mixture 2
Fixed: Temperature, K = 298.15
Fixed: Pressure, kPa = 101.3
Property: Mass fraction of octane (Liquid mixture 1); method: Density calibration data
Property: Mass fraction of octane (Liquid mixture 2); method: Density calibration data
Property: Mass fraction of ethanol (Liquid mixture 2); method: Density calibration data
Mass fraction of ethanol	Mass fraction of octane	uncertainty	Mass fraction of octane	uncertainty	Mass fraction of ethanol	uncertainty
0.0073	0.9887	0.0113	0.0026	0.0026	0.1202	
0.0245	0.971	0.02	0.0081	0.0081	0.194	
0.0322	0.9629	0.02	0.0114	0.0114	0.2466	
0.0492	0.9452	0.02	0.0225	0.0201	0.3682	
0.0789	0.9141	0.0201	0.0343	0.0202	0.4593	
0.0864	0.9062	0.0201	0.0408	0.0203	0.5007	

System: pentane + methanol + 2-hydroxyethylammonium formate; phases: Liquid
Fixed: Pressure, kPa = 101.3
Fixed: Temperature, K = 298.15
Property: Mass density, kg/m3 (Liquid); method: Vibrating tube method
Mass fraction of pentane	Mass fraction of methanol	Mass density, kg/m3	uncertainty
0.9154	0.0793	629	135.1
0.8804	0.1178	634.5	17.9
0.9379	0.0547	626.4	18
0.9639	0.0254	623.6	16.2
0.9822	0.0086	621.9	16.1
0.013	0.1082	1137	44
0.0239	0.245	1079.9	60.3
0.0427	0.4738	968.4	75.2
0.0822	0.6926	855.1	112.8
0.0986	0.7827	809.3	24.2
0.0317	0.3608	1024.1	55.1
0.9748	0.0154	622.5	16.2
0.9661	0.0244	623.3	16.2
0.9772	0.0129	622.3	16.2
0.9711	0.0192	622.9	16.2
0.9711	0.0232	623.2	16.2
0.0181	0.1234	1132.8	70.9
0.0292	0.2068	1091.3	79.6
0.0359	0.258	1068.2	37.5
0.0512	0.3794	1009.2	85.4
0.0613	0.4625	968.5	47.7

System: pentane + methanol + 2-hydroxyethylammonium formate; phases: Liquid mixture 1, Liquid mixture 2
Fixed: Temperature, K = 298.15
Fixed: Pressure, kPa = 101.3
Property: Mass fraction of methanol (Liquid mixture 1); method: Titration method
Mass fraction of pentane	Mass fraction of methanol	uncertainty
0.9154	0.0793	0.0298
0.8804	0.1178	0.0299
0.9379	0.0547	0.0299
0.9639	0.0254	0.0254
0.9822	0.0086	0.0086
0.013	0.1082	0.1082
0.0239	0.245	0.155
0.0427	0.4738	0.1675
0.0822	0.6926	0.1129
0.0986	0.7827	0.1125
0.0317	0.3608	0.1333

System: pentane + methanol + 2-hydroxyethylammonium formate; phases: Liquid mixture 1, Liquid mixture 2
Fixed: Temperature, K = 298.15
Fixed: Pressure, kPa = 101.3
Property: Mass fraction of pentane (Liquid mixture 1); method: Density calibration data
Property: Mass fraction of pentane (Liquid mixture 2); method: Density calibration data
Property: Mass fraction of methanol (Liquid mixture 2); method: Density calibration data
Mass fraction of methanol	Mass fraction of pentane	uncertainty	Mass fraction of pentane	uncertainty	Mass fraction of methanol	uncertainty
0.1234	0.0181	0.0181	0.9748	0.02	0.0154	
0.2068	0.0292	0.0202	0.9661	0.02	0.0244	
0.258	0.0359	0.0202	0.9772	0.02	0.0129	
0.3794	0.0512	0.0202	0.9711	0.02	0.0192	
0.4625	0.0613	0.0202	0.9711	0.02	0.0232	

System: hexane + methanol + 2-hydroxyethylammonium formate; phases: Liquid
Fixed: Pressure, kPa = 101.3
Fixed: Temperature, K = 298.15
Property: Mass density, kg/m3 (Liquid); method: Vibrating tube method
Mass fraction of hexane	Mass fraction of methanol	Mass density, kg/m3	uncertainty
0.997	0	655.6	16
0.9728	0.0247	657.3	16.2
0.9699	0.0268	664.4	17.9
0.9623	0.0253	670.1	18.8
0.9617	0.0335	671	19
0.0063	0	1194.1	16.4
0.0065	0.119	1138.2	38.7
0.0405	0.3569	1020.2	80
0.0279	0.486	968.3	50.1
0.0303	0.5995	919.7	40.5
0.9921	0.0003	655.8	16.3
0.9936	0.0001	655.7	16
0.9642	0.0223	668.7	18.6
0.9633	0.0245	669.4	18.7
0.9632	0.0247	669.5	18.7
0.021	0.2101	1092.3	29.4
0.0246	0.263	1067.4	33.4
0.0313	0.3788	1014.1	108.4
0.0354	0.4728	972.1	49.1
0.0367	0.5113	955.2	49.7

System: hexane + methanol + 2-hydroxyethylammonium formate; phases: Liquid mixture 1, Liquid mixture 2
Fixed: Temperature, K = 298.15
Fixed: Pressure, kPa = 101.3
Property: Mass fraction of methanol (Liquid mixture 1); method: Titration method
Mass fraction of hexane	Mass fraction of methanol	uncertainty
0.997	0	
0.9728	0.0247	0.0247
0.9699	0.0268	0.0268
0.9623	0.0253	0.0248
0.9617	0.0335	0.0276
0.0063	0	
0.0065	0.119	0.1133
0.0405	0.3569	0.1417
0.0279	0.486	0.3438
0.0303	0.5995	0.4005

System: hexane + methanol + 2-hydroxyethylammonium formate; phases: Liquid mixture 2, Liquid mixture 1
Fixed: Temperature, K = 298.15
Fixed: Pressure, kPa = 101.3
Property: Mass fraction of hexane (Liquid mixture 2); method: Density calibration data
Property: Mass fraction of hexane (Liquid mixture 1); method: Density calibration data
Property: Mass fraction of methanol (Liquid mixture 1); method: Density calibration data
Mass fraction of methanol	Mass fraction of hexane	uncertainty	Mass fraction of hexane	uncertainty	Mass fraction of methanol	uncertainty
0.2101	0.021	0.0201	0.9921	0.0079	0.0003	
0.263	0.0246	0.02	0.9936	0.0064	0.0001	
0.3788	0.0313	0.02	0.9642	0.02	0.0223	
0.4728	0.0354	0.02	0.9633	0.02	0.0245	
0.5113	0.0367	0.02	0.9632	0.02	0.0247	

System: heptane + methanol + 2-hydroxyethylammonium formate; phases: Liquid
Fixed: Pressure, kPa = 101.3
Fixed: Temperature, K = 298.15
Property: Mass density, kg/m3 (Liquid); method: Vibrating tube method
Mass fraction of heptane	Mass fraction of methanol	Mass density, kg/m3	uncertainty
0.9987	0.0006	679.9	16
0.9954	0.0032	680.1	16.1
0.9903	0.0084	680.3	16.5
0.9796	0.0189	681.3	18.2
0.0022	0.1226	1136.6	21.3
0.0059	0.2513	1079.1	39
0.0115	0.373	1024.4	49.5
0.0258	0.4958	970.6	73.5
0.0466	0.6172	915.2	65.7
0.9889	0.0098	680.4	16.7
0.9879	0.0108	680.4	16.8
0.988	0.0107	680.4	16.8
0.9857	0.013	680.6	17.1
0.0093	0.124	1134.4	21.8
0.0138	0.2073	1094.6	89.3
0.0331	0.4757	973.4	68
0.0349	0.4954	964.9	132.9

System: heptane + methanol + 2-hydroxyethylammonium formate; phases: Liquid mixture 1, Liquid mixture 2
Fixed: Temperature, K = 298.15
Fixed: Pressure, kPa = 101.3
Property: Mass fraction of methanol (Liquid mixture 1); method: Titration method
Mass fraction of heptane	Mass fraction of methanol	uncertainty
0.9987	0.0006	0.0006
0.9954	0.0032	0.0032
0.9903	0.0084	0.0084
0.9796	0.0189	0.0189
0.0022	0.1226	0.0403
0.0059	0.2513	0.0571
0.0115	0.373	0.0831
0.0258	0.4958	0.2262
0.0466	0.6172	0.1189

System: heptane + methanol + 2-hydroxyethylammonium formate; phases: Liquid mixture 2, Liquid mixture 1
Fixed: Temperature, K = 298.15
Fixed: Pressure, kPa = 101.3
Property: Mass fraction of heptane (Liquid mixture 2); method: Density calibration data
Property: Mass fraction of heptane (Liquid mixture 1); method: Density calibration data
Property: Mass fraction of methanol (Liquid mixture 1); method: Density calibration data
Mass fraction of methanol	Mass fraction of heptane	uncertainty	Mass fraction of heptane	uncertainty	Mass fraction of methanol	uncertainty
0.124	0.0093	0.0093	0.9889	0.0111	0.0098	
0.2073	0.0138	0.0138	0.9879	0.0121	0.0108	
0.4757	0.0331	0.0201	0.988	0.012	0.0107	
0.4954	0.0349	0.0201	0.9857	0.0143	0.013	

System: octane + methanol + 2-hydroxyethylammonium formate; phases: Liquid
Fixed: Pressure, kPa = 101.3
Fixed: Temperature, K = 298.15
Property: Mass density, kg/m3 (Liquid); method: Vibrating tube method
Mass fraction of octane	Mass fraction of methanol	Mass density, kg/m3	uncertainty
1	0	698.7	16
0.9955	0	699.5	16
0.9789	0.0197	699.5	16.1
0.0035	0	1192.6	16.1
0.0055	0.1162	1135	20.9
0.0084	0.2454	1073.6	39.6
0.0167	0.3709	1012	50.5
0.0484	0.4657	955.5	48.6
0.0498	0.5754	908.3	60.1
0.0794	0.6911	852.6	48.6
0.9739	0.0027	699.4	16
0.9638	0.0182	700.3	16.1
0.9624	0.0191	700.7	16.1
0.9625	0.019	701.7	16.1
0.9641	0.0193	703.6	16.3
0.0126	0.1208	1134.5	21.8
0.0157	0.2071	1096.5	73.2
0.0174	0.2671	1070.4	72.3
0.0196	0.3746	1010.1	55.4
0.0204	0.4813	965.1	49.6

System: octane + methanol + 2-hydroxyethylammonium formate; phases: Liquid mixture 1, Liquid mixture 2
Fixed: Temperature, K = 298.15
Fixed: Pressure, kPa = 101.3
Property: Mass fraction of methanol (Liquid mixture 1); method: Titration method
Mass fraction of octane	Mass fraction of methanol	uncertainty
1	0	
0.9955	0	
0.9789	0.0197	0.0197
0.0035	0	
0.0055	0.1162	0.0492
0.0084	0.2454	0.0509
0.0167	0.3709	0.0548
0.0484	0.4657	0.1048
0.0498	0.5754	0.1052
0.0794	0.6911	0.0812

System: octane + methanol + 2-hydroxyethylammonium formate; phases: Liquid mixture 1, Liquid mixture 2
Fixed: Temperature, K = 298.15
Fixed: Pressure, kPa = 101.3
Property: Mass fraction of octane (Liquid mixture 1); method: Density calibration data
Property: Mass fraction of octane (Liquid mixture 2); method: Density calibration data
Property: Mass fraction of methanol (Liquid mixture 2); method: Density calibration data
Mass fraction of methanol	Mass fraction of octane	uncertainty	Mass fraction of octane	uncertainty	Mass fraction of methanol	uncertainty
0.0027	0.9739	0.02	0.0126	0.0126	0.1208	
0.0182	0.9638	0.02	0.0157	0.0157	0.2071	
0.0191	0.9624	0.02	0.0174	0.0174	0.2671	
0.019	0.9625	0.02	0.0196	0.0196	0.3746	
0.0193	0.9641	0.02	0.0204	0.02	0.4813	

System: pentane + 2-hydroxyethylammonium formate; phases: Liquid
Property: Mass density, kg/m3 (Liquid); method: Vibrating tube method
Mass fraction of pentane	Pressure, kPa	Temperature, K	Mass density, kg/m3	uncertainty
0.9491	101.3	298.15	625.1	16

System: pentane + 2-hydroxyethylammonium formate; phases: Liquid mixture 1, Liquid mixture 2
Property: Mass fraction of pentane (Liquid mixture 1); method: Titration method
Temperature, K	Pressure, kPa	Mass fraction of pentane	uncertainty
298.15	101.3	0.9491	0.02

System: hexane + 2-hydroxyethylammonium formate; phases: Liquid
Fixed: Pressure, kPa = 101.3
Fixed: Temperature, K = 298.15
Property: Mass density, kg/m3 (Liquid); method: Vibrating tube method
Mass fraction of hexane	Mass density, kg/m3	uncertainty
0.9982	663.6	16
0.0028	1182.7	16
0.997	655.6	16
0.0063	1194.1	16

System: hexane + 2-hydroxyethylammonium formate; phases: Liquid mixture 1, Liquid mixture 2
Fixed: Temperature, K = 298.15
Fixed: Pressure, kPa = 101.3
Property: Mass fraction of hexane (Liquid mixture 1); method: Titration method
Mass fraction of hexane	uncertainty
0.9982	0.0018
0.0028	0.0028
0.997	0.003
0.0063	0.0063

System: heptane + 2-hydroxyethylammonium formate; phases: Liquid
Fixed: Pressure, kPa = 101.3
Fixed: Temperature, K = 298.15
Property: Mass density, kg/m3 (Liquid); method: Vibrating tube method
Mass fraction of heptane	Mass density, kg/m3	uncertainty
0.9989	680	16
0.0045	1183	16

System: heptane + 2-hydroxyethylammonium formate; phases: Liquid mixture 1, Liquid mixture 2
Fixed: Temperature, K = 298.15
Fixed: Pressure, kPa = 101.3
Property: Mass fraction of heptane (Liquid mixture 1); method: Titration method
Mass fraction of heptane	uncertainty
0.9989	0.0011
0.0045	0.0045

System: octane + 2-hydroxyethylammonium formate; phases: Liquid
Fixed: Pressure, kPa = 101.3
Fixed: Temperature, K = 298.15
Property: Mass density, kg/m3 (Liquid); method: Vibrating tube method
Mass fraction of octane	Mass density, kg/m3	uncertainty
0.9971	699.7	16
0.0035	1192.6	16
0.9955	699.5	16

System: octane + 2-hydroxyethylammonium formate; phases: Liquid mixture 1, Liquid mixture 2
Fixed: Temperature, K = 298.15
Fixed: Pressure, kPa = 101.3
Property: Mass fraction of octane (Liquid mixture 1); method: Titration method
Mass fraction of octane	uncertainty
0.9971	0.0029
0.0035	0.0035
0.9955	0.0045
