Measured thermophysical data. Densities, Refractive Indices, Viscosities, and Conductivities of Non-Imidazolium Ionic Liquids [Et3S][TFSI], [Et2MeS][TFSI], [BuPy][TFSI], [N8881][TFA], and [P14][DCA]
Source: J. Chem. Eng. Data, 2017, 10.1021/acs.jced.7b00060
Compound 1: triethylsulfonium bis((trifluoromethyl)sulfonyl)imide, C8H15F6NO4S3, InChI=1S/C6H15S.C2F6NO4S2/c1-4-7(5-2)6-3;3-1(4,5)14(10,11)9-15(12,13)2(6,7)8/h4-6H2,1-3H3;/q+1;-1
Compound 2: diethylmethylsulfonium bis[(trifluoromethyl)sulfonyl]imide, C7H13F6NO4S3, InChI=1S/C5H13S.C2F6NO4S2/c1-4-6(3)5-2;3-1(4,5)14(10,11)9-15(12,13)2(6,7)8/h4-5H2,1-3H3;/q+1;-1
Compound 3: 1-butylpyridinium bis[(trifluoromethyl)sulfonyl]imide, C11H14F6N2O4S2, InChI=1S/C9H14N.C2F6NO4S2/c1-2-3-7-10-8-5-4-6-9-10;3-1(4,5)14(10,11)9-15(12,13)2(6,7)8/h4-6,8-9H,2-3,7H2,1H3;/q+1;-1
Compound 4: methyltrioctylammonium trifluoroacetate, C27H54F3NO2, InChI=1S/C25H54N.C2HF3O2/c1-5-8-11-14-17-20-23-26(4,24-21-18-15-12-9-6-2)25-22-19-16-13-10-7-3;3-2(4,5)1(6)7/h5-25H2,1-4H3;(H,6,7)/q+1;/p-1
Compound 5: 1-butyl-1-methylpyrrolidinium dicyanamide, C11H20N4, InChI=1S/C9H20N.C2N3/c1-3-4-7-10(2)8-5-6-9-10;3-1-5-2-4/h3-9H2,1-2H3;/q+1;-1

System: triethylsulfonium bis((trifluoromethyl)sulfonyl)imide; phases: Liquid
Fixed: Pressure, kPa = 101.325
Property: Mass density, kg/m3 (Liquid); method: Vibrating tube method
Temperature, K	Mass density, kg/m3	uncertainty
278.15	1479.69	3.02
288.15	1469.86	3
298.15	1460.14	2.98
308.15	1450.51	2.96
318.15	1440.97	2.94
328.15	1431.52	2.92
338.15	1422.15	2.9

System: triethylsulfonium bis((trifluoromethyl)sulfonyl)imide; phases: Liquid
Fixed: Pressure, kPa = 101.325
Property: Refractive index (Na D-line) (Liquid); method: Standard Abbe refractometry
Temperature, K	Refractive index (Na D-line)	uncertainty
283.15	1.4308	0.0029
288.15	1.4293	0.0029
293.15	1.4279	0.0029
298.15	1.4264	0.0029
303.15	1.4249	0.0029
308.15	1.4234	0.0029
313.15	1.4219	0.0029
318.15	1.4204	0.0029
323.15	1.419	0.0029
328.15	1.4175	0.0029
333.15	1.4161	0.0029
338.15	1.4148	0.0029
343.15	1.4134	0.0028

System: triethylsulfonium bis((trifluoromethyl)sulfonyl)imide; phases: Liquid
Fixed: Pressure, kPa = 101.325
Property: Viscosity, Pa*s (Liquid); method: Falling or rolling sphere viscometry
Temperature, K	Viscosity, Pa*s	uncertainty
278.15	0.0805	0.00176
288.15	0.04988	0.0009
298.15	0.03336	0.00059
308.15	0.0235	0.00041
318.15	0.01734	0.0003
328.15	0.01326	0.00023
338.15	0.01044	0.00018
348.15	0.008445	0.000147
358.15	0.006963	0.000121
368.15	0.005849	0.000102
378.15	0.00499	8.7e-05
388.15	0.004312	7.5e-05
398.15	0.003768	6.6e-05

System: triethylsulfonium bis((trifluoromethyl)sulfonyl)imide; phases: Liquid
Fixed: Pressure, kPa = 101.325
Property: Electrical conductivity, S/m (Liquid); method: Alternating current cell with electrodes
Temperature, K	Electrical conductivity, S/m	uncertainty
258.15	0.09917	0.0015
268.15	0.1862	0.0028
278.15	0.3142	0.0047
288.15	0.4873	0.0073
298.15	0.7075	0.0106
308.15	0.9748	0.0146
318.15	1.287	0.019
328.15	1.636	0.025
338.15	2.028	0.03
348.15	2.457	0.037
358.15	2.914	0.044
368.15	3.402	0.051
378.15	3.915	0.059
388.15	4.43	0.07
398.15	5.005	0.075
408.15	5.577	0.084
418.15	6.159	0.092
428.15	6.758	0.101
438.15	7.365	0.11
448.15	7.977	0.12
458.15	8.59	0.13
468.15	9.167	0.138

System: diethylmethylsulfonium bis[(trifluoromethyl)sulfonyl]imide; phases: Liquid
Fixed: Pressure, kPa = 101.325
Property: Mass density, kg/m3 (Liquid); method: Vibrating tube method
Temperature, K	Mass density, kg/m3	uncertainty
278.15	1520.53	3.11
288.15	1510.56	3.09
298.15	1500.71	3.06
308.15	1490.96	3.04
318.15	1481.3	3.02
328.15	1471.73	3
338.15	1462.25	2.98

System: diethylmethylsulfonium bis[(trifluoromethyl)sulfonyl]imide; phases: Liquid
Fixed: Pressure, kPa = 101.325
Property: Refractive index (Na D-line) (Liquid); method: Standard Abbe refractometry
Temperature, K	Refractive index (Na D-line)	uncertainty
283.15	1.4276	0.0029
288.15	1.4262	0.0029
293.15	1.4247	0.0029
298.15	1.4233	0.0029
303.15	1.4219	0.0029
308.15	1.4204	0.0029
313.15	1.419	0.0029
318.15	1.4175	0.0029
323.15	1.4161	0.0029
328.15	1.4146	0.0029
333.15	1.4132	0.0028
338.15	1.4118	0.0028
343.15	1.4103	0.0028

System: diethylmethylsulfonium bis[(trifluoromethyl)sulfonyl]imide; phases: Liquid
Fixed: Pressure, kPa = 101.325
Property: Viscosity, Pa*s (Liquid); method: Falling or rolling sphere viscometry
Temperature, K	Viscosity, Pa*s	uncertainty
278.15	0.0986	0.00261
288.15	0.06105	0.00108
298.15	0.04071	0.00072
308.15	0.02855	0.0005
318.15	0.02095	0.00037
328.15	0.01573	0.00028
338.15	0.01234	0.00022
348.15	0.009945	0.000174
358.15	0.008183	0.000143
368.15	0.006826	0.000119
378.15	0.005793	0.000101
388.15	0.004981	8.7e-05
398.15	0.004331	7.5e-05

System: diethylmethylsulfonium bis[(trifluoromethyl)sulfonyl]imide; phases: Liquid
Fixed: Pressure, kPa = 101.325
Property: Electrical conductivity, S/m (Liquid); method: Alternating current cell with electrodes
Temperature, K	Electrical conductivity, S/m	uncertainty
258.15	0.0975	0.0015
268.15	0.1816	0.0027
278.15	0.3055	0.0046
288.15	0.4732	0.0071
298.15	0.6882	0.0103
308.15	0.9504	0.0143
318.15	1.259	0.019
328.15	1.611	0.024
338.15	2.001	0.03
348.15	2.427	0.036
358.15	2.885	0.043
368.15	3.374	0.051
378.15	3.888	0.058
388.15	4.428	0.066
398.15	4.989	0.075
418.15	6.161	0.092
438.15	7.38	0.11
458.15	8.629	0.129

System: 1-butylpyridinium bis[(trifluoromethyl)sulfonyl]imide; phases: Liquid
Fixed: Pressure, kPa = 101.325
Property: Mass density, kg/m3 (Liquid); method: Vibrating tube method
Temperature, K	Mass density, kg/m3	uncertainty
278.15	1467.88	2.99
288.15	1458.26	2.97
298.15	1448.74	2.95
308.15	1439.32	2.93
318.15	1430.02	2.91
328.15	1420.8	2.89
338.15	1411.66	2.87
348.15	1402.6	2.85
358.15	1393.63	2.84

System: 1-butylpyridinium bis[(trifluoromethyl)sulfonyl]imide; phases: Liquid
Fixed: Pressure, kPa = 101.325
Property: Refractive index (Na D-line) (Liquid); method: Standard Abbe refractometry
Temperature, K	Refractive index (Na D-line)	uncertainty
283.15	1.4474	0.0029
288.15	1.4459	0.0029
293.15	1.4444	0.0029
298.15	1.4429	0.0029
303.15	1.4414	0.0029
308.15	1.4399	0.0029
313.15	1.4384	0.0029
318.15	1.4369	0.0029
323.15	1.4354	0.0029
328.15	1.4339	0.0029
333.15	1.4324	0.0029
338.15	1.4309	0.0029
343.15	1.4294	0.0029

System: 1-butylpyridinium bis[(trifluoromethyl)sulfonyl]imide; phases: Liquid
Fixed: Pressure, kPa = 101.325
Property: Viscosity, Pa*s (Liquid); method: Falling or rolling sphere viscometry
Temperature, K	Viscosity, Pa*s	uncertainty
278.15	0.1821	0.008
288.15	0.1009	0.0028
298.15	0.06139	0.00109
308.15	0.04014	0.00072
318.15	0.0279	0.00049
328.15	0.02036	0.00036
338.15	0.01542	0.00027
348.15	0.01204	0.00021
358.15	0.009663	0.000169
368.15	0.007904	0.000138

System: 1-butylpyridinium bis[(trifluoromethyl)sulfonyl]imide; phases: Liquid
Fixed: Pressure, kPa = 101.325
Property: Electrical conductivity, S/m (Liquid); method: Alternating current cell with electrodes
Temperature, K	Electrical conductivity, S/m	uncertainty
278.15	0.1186	0.0018
288.15	0.2056	0.0031
298.15	0.3263	0.0049
308.15	0.4835	0.0073
318.15	0.6775	0.0102
328.15	0.909	0.014
338.15	1.173	0.018
348.15	1.473	0.022
358.15	1.801	0.027
368.15	2.159	0.032
378.15	2.539	0.038
388.15	2.942	0.044
398.15	3.365	0.05
418.15	4.273	0.064
438.15	5.243	0.079

System: methyltrioctylammonium trifluoroacetate; phases: Liquid
Fixed: Pressure, kPa = 101.325
Property: Mass density, kg/m3 (Liquid); method: Vibrating tube method
Temperature, K	Mass density, kg/m3	uncertainty
298.15	962.478	2.057
303.15	959.262	2.049
308.15	956.054	2.042
313.15	952.805	2.035
318.15	949.626	2.028
323.15	946.478	2.021
328.15	943.335	2.014
333.15	940.189	2.007
338.15	937.046	2
343.15	933.904	1.993
348.15	930.772	1.986
353.15	927.648	1.979
358.15	924.529	1.972
363.15	921.418	1.965

System: methyltrioctylammonium trifluoroacetate; phases: Liquid
Fixed: Pressure, kPa = 101.325
Property: Viscosity, Pa*s (Liquid); method: Falling or rolling sphere viscometry
Temperature, K	Viscosity, Pa*s	uncertainty
288.15	3.629	0.525
298.15	1.551	0.18
308.15	0.7352	0.0671
318.15	0.3808	0.0264
328.15	0.2121	0.0106
338.15	0.1267	0.0043
348.15	0.07997	0.00188
358.15	0.05333	0.00099
368.15	0.03692	0.00073
378.15	0.02669	0.00052
388.15	0.0198	0.00039
398.15	0.01503	0.0003

System: methyltrioctylammonium trifluoroacetate; phases: Liquid
Fixed: Pressure, kPa = 101.325
Property: Electrical conductivity, S/m (Liquid); method: Alternating current cell with electrodes
Temperature, K	Electrical conductivity, S/m	uncertainty
298.15	0.001552	2.4e-05
308.15	0.003291	5e-05
318.15	0.006304	9.5e-05
328.15	0.01116	0.00017
338.15	0.01853	0.00028
348.15	0.02934	0.00044
358.15	0.04441	0.00067
368.15	0.06467	0.00097
378.15	0.09241	0.00139
388.15	0.1254	0.0019

System: 1-butyl-1-methylpyrrolidinium dicyanamide; phases: Liquid
Fixed: Pressure, kPa = 101.325
Property: Mass density, kg/m3 (Liquid); method: Vibrating tube method
Temperature, K	Mass density, kg/m3	uncertainty
278.15	1029	2.21
288.15	1023.24	2.2
298.15	1017.56	2.19
308.15	1011.95	2.17
318.15	1006.4	2.16
328.15	1000.91	2.14
338.15	995.474	2.131

System: 1-butyl-1-methylpyrrolidinium dicyanamide; phases: Liquid
Fixed: Pressure, kPa = 101.325
Property: Mass density, kg/m3 (Liquid); method: Vibrating tube method
Temperature, K	Mass density, kg/m3	uncertainty
278.15	1024.78	2.2
288.15	1019.06	2.19
298.15	1013.4	2.18
308.15	1007.81	2.16
318.15	1002.27	2.15
328.15	996.796	2.134
338.15	991.368	2.122
348.15	985.987	2.11
358.15	980.656	2.098

System: 1-butyl-1-methylpyrrolidinium dicyanamide; phases: Liquid
Fixed: Pressure, kPa = 101.325
Property: Refractive index (Na D-line) (Liquid); method: Standard Abbe refractometry
Temperature, K	Refractive index (Na D-line)	uncertainty
288.15	1.4862	0.003
293.15	1.4853	0.003
298.15	1.4847	0.003
303.15	1.4842	0.003
308.15	1.4836	0.003
313.15	1.4832	0.003
318.15	1.4826	0.003
323.15	1.4818	0.003
328.15	1.481	0.003
333.15	1.48	0.003
338.15	1.479	0.003
343.15	1.4779	0.003

System: 1-butyl-1-methylpyrrolidinium dicyanamide; phases: Liquid
Fixed: Pressure, kPa = 101.325
Property: Viscosity, Pa*s (Liquid); method: Falling or rolling sphere viscometry
Temperature, K	Viscosity, Pa*s	uncertainty
278.15	0.0955	0.00259
288.15	0.06123	0.0012
298.15	0.04178	0.00082
308.15	0.02999	0.00059
318.15	0.02144	0.00042
328.15	0.01647	0.00032
338.15	0.01308	0.00026
348.15	0.01057	0.00021
358.15	0.008801	0.000171
368.15	0.007467	0.000145
378.15	0.006444	0.000125
388.15	0.005605	0.000109
398.15	0.004956	9.6e-05

System: 1-butyl-1-methylpyrrolidinium dicyanamide; phases: Liquid
Fixed: Pressure, kPa = 101.325
Property: Viscosity, Pa*s (Liquid); method: Falling or rolling sphere viscometry
Temperature, K	Viscosity, Pa*s	uncertainty
278.15	0.08015	0.00188
288.15	0.05172	0.00096
298.15	0.03585	0.00071
308.15	0.02593	0.00051
318.15	0.01943	0.00038
328.15	0.015	0.00029
338.15	0.01184	0.00023
348.15	0.009634	0.000188
358.15	0.008017	0.000156
368.15	0.006774	0.000132
378.15	0.005761	0.000112
388.15	0.005001	9.7e-05
398.15	0.004386	8.5e-05
408.15	0.003905	7.6e-05

System: 1-butyl-1-methylpyrrolidinium dicyanamide; phases: Liquid
Fixed: Pressure, kPa = 101.325
Property: Electrical conductivity, S/m (Liquid); method: Alternating current cell with electrodes
Temperature, K	Electrical conductivity, S/m	uncertainty
238.15	0.0337	0.0005
248.15	0.081	0.0012
258.15	0.1658	0.0025
268.15	0.2992	0.0045
278.15	0.4905	0.0074
288.15	0.746	0.0112
298.15	1.069	0.0161
308.15	1.46	0.0219
318.15	1.917	0.0288
328.15	2.44	0.0366
338.15	3.022	0.0453

System: 1-butyl-1-methylpyrrolidinium dicyanamide; phases: Liquid
Fixed: Pressure, kPa = 101.325
Property: Electrical conductivity, S/m (Liquid); method: Alternating current cell with electrodes
Temperature, K	Electrical conductivity, S/m	uncertainty
248.15	0.1015	0.0015
258.15	0.2004	0.003
268.15	0.3521	0.0053
278.15	0.5662	0.0085
288.15	0.8437	0.0127
298.15	1.19	0.018
308.15	1.608	0.024
318.15	2.085	0.031
328.15	2.626	0.039
338.15	3.227	0.048
348.15	3.878	0.058
358.15	4.578	0.069
368.15	5.324	0.08
378.15	6.112	0.092
388.15	6.933	0.104
398.15	7.784	0.117
408.15	8.666	0.13
418.15	9.567	0.144
428.15	10.48	0.16
438.15	11.4	0.17
448.15	12.27	0.18
