Measured thermophysical data. Extraction of Butyric Acid by Phosphonium Decanoate Ionic Liquid
Source: J. Chem. Eng. Data, 2019, 10.1021/acs.jced.9b00057
Compound 1: trihexyltetradecylphosphonium decanoate, C42H87O2P, InChI=1S/C32H68P.C10H20O2/c1-5-9-13-17-18-19-20-21-22-23-24-28-32-33(29-25-14-10-6-2,30-26-15-11-7-3)31-27-16-12-8-4;1-2-3-4-5-6-7-8-9-10(11)12/h5-32H2,1-4H3;2-9H2,1H3,(H,11,12)/q+1;/p-1, purity 95%
Compound 2: butanoic acid, C4H8O2, InChI=1S/C4H8O2/c1-2-3-4(5)6/h2-3H2,1H3,(H,5,6), purity 99.1%
Compound 3: water, H2O, InChI=1S/H2O/h1H2, purity 99.9%

System: water; phases: Liquid
Property: Mass density, kg/m3 (Liquid); method: Vibrating tube method
Temperature, K	Pressure, kPa	Mass density, kg/m3	uncertainty
298	100	997.04	9.97

System: butanoic acid + water + trihexyltetradecylphosphonium decanoate; phases: Liquid
Fixed: Pressure, kPa = 100
Fixed: Temperature, K = 298
Property: Mass density, kg/m3 (Liquid); method: Vibrating tube method
Mass fraction of butanoic acid	Mass fraction of water	Mass density, kg/m3	uncertainty
0	0.162	900	9
0.0216	0.132	900	9
0.0382	0.126	900	9
0.0762	0.101	899	9
0.109	0.0746	899	9
0.129	0.0712	900	9
0.169	0.05	901	9
0.163	0.0565	901	9
0.206	0.0408	902	10
0.231	0.0361	905	9
0.226	0.0449	905	10
0.262	0.0428	909	10
0.279	0.0388	909	10
0.327	0.0393	913	10
0.378	0.0404	918	10
0.377	0.0468	919	10
0.419	0.0506	922	10
0.47	0.049	927	10
0.509	0.0581	931	10
0.534	0.0672	934	10

System: butanoic acid + water + trihexyltetradecylphosphonium decanoate; phases: Liquid
Fixed: Pressure, kPa = 100
Fixed: Temperature, K = 298
Property: Viscosity, Pa*s (Liquid); method: Cone and plate viscometry
Mass fraction of butanoic acid	Mass fraction of water	Viscosity, Pa*s	uncertainty
0	0.162	0.0961	0.0103
0.0216	0.132	0.0945	0.0101
0.0382	0.126	0.0969	0.0104
0.0762	0.101	0.107	0.012
0.109	0.0746	0.102	0.011
0.169	0.05	0.0997	0.0111
0.206	0.0408	0.0958	0.0109
0.231	0.0361	0.0908	0.0104
0.279	0.0388	0.0783	0.0101
0.327	0.0393	0.0636	0.0097
0.378	0.0404	0.0468	0.0096
0.377	0.0468	0.0422	0.0048
0.419	0.0506	0.0368	0.0071
0.47	0.049	0.0266	0.0069
0.509	0.0581	0.0209	0.007
0.534	0.0672	0.0179	0.0066

System: butanoic acid + water + trihexyltetradecylphosphonium decanoate; phases: Liquid mixture 2, Liquid mixture 1
Fixed: Temperature, K = 298
Fixed: Pressure, kPa = 100
Property: Mass fraction of water (Liquid mixture 2); method: Titration method
Property: Mass fraction of water (Liquid mixture 1); method: Titration method
Property: Mass fraction of butanoic acid (Liquid mixture 1); method: Titration method
Mass fraction of butanoic acid	Mass fraction of water	uncertainty	Mass fraction of water	uncertainty	Mass fraction of butanoic acid	uncertainty
0	1		0.162	0.007	0	
0.073	0.927	0.003	0.049	0.0033	0.47	
0.087	0.913	0.0036	0.0581	0.0099	0.509	
6.86e-05	0.9999314	2.8e-06	0.132	0.006	0.0216	
0.0974	0.9026	0.004	0.0672	0.0122	0.534	
0.000154	0.999846	6e-06	0.126	0.005	0.0382	
0.000352	0.999648	1.5e-05	0.101	0.006	0.0762	
0.000628	0.999372	2.6e-05	0.0746	0.0054	0.109	
0.000783	0.999217	3.2e-05	0.0712	0.0043	0.129	
0.00206	0.99794	9e-05	0.05	0.013	0.169	
0.0023	0.9977	9e-05	0.0565	0.0126	0.163	
0.00704	0.99296	0.00029	0.0361	0.0285	0.231	
0.00429	0.99571	0.00018	0.0408	0.0023	0.206	
0.00763	0.99237	0.00031	0.0449	0.0022	0.226	
0.0151	0.9849	0.0006	0.0428	0.0022	0.262	
0.0157	0.9843	0.0006	0.0388	0.0018	0.279	
0.0285	0.9715	0.0012	0.0393	0.0025	0.327	
0.0453	0.9547	0.0019	0.0404	0.0404	0.378	
0.0508	0.9492	0.0021	0.0468	0.0468	0.377	
0.0589	0.9411	0.0024	0.0506	0.0033	0.419	

System: butanoic acid + water; phases: Liquid
Fixed: Temperature, K = 298
Fixed: Pressure, kPa = 100
Property: Mass density, kg/m3 (Liquid); method: Vibrating tube method
Mass fraction of butanoic acid	Mass density, kg/m3	uncertainty
0	997.04	9.97
6.86e-05	997.07	9.97
0.000154	997.07	9.97
0.000352	997.09	9.97
0.000628	997.08	9.97
0.000783	997.12	9.97
0.00206	997.2	9.97
0.0023	997.22	9.98
0.00429	997.33	9.98
0.00704	997.57	9.98
0.00763	997.62	9.98
0.0151	998.25	9.99
0.0157	998.3	9.99
0.0285	999.62	10
0.0453	1001.89	10.02
0.0508	1002.79	10.03
0.0589	1004.25	10.05
0.073	1000.5	10.01
0.087	1001.01	10.02
0.0974	1014.17	10.22

System: water + trihexyltetradecylphosphonium decanoate; phases: Liquid
Property: Mass density, kg/m3 (Liquid); method: Vibrating tube method
Mass fraction of water	Pressure, kPa	Temperature, K	Mass density, kg/m3	uncertainty
0.162	100	298	900	9

System: water + trihexyltetradecylphosphonium decanoate; phases: Liquid
Property: Viscosity, Pa*s (Liquid); method: Cone and plate viscometry
Mass fraction of water	Pressure, kPa	Temperature, K	Viscosity, Pa*s	uncertainty
0.162	100	298	0.0961	0.0103

System: water + trihexyltetradecylphosphonium decanoate; phases: Liquid mixture 1, Liquid mixture 2
Property: Mass fraction of water (Liquid mixture 1); method: Titration method
Temperature, K	Pressure, kPa	Mass fraction of water	uncertainty
298	100	0.162	0.007
