Measured thermophysical data. Solubility Measurement and Chemical Modeling of MgSO4*7H2O in the Ti(SO4)2 H2SO4 H2O System
Source: J. Chem. Eng. Data, 2016, 10.1021/acs.jced.5b01065
Compound 1: magnesium sulfate, MgO4S, InChI=1S/Mg.H2O4S/c;1-5(2,3)4/h;(H2,1,2,3,4)/q+2;/p-2
Compound 2: sulfuric acid, H2O4S, InChI=1S/H2O4S/c1-5(2,3)4/h(H2,1,2,3,4), purity 99%
Compound 3: water, H2O, InChI=1S/H2O/h1H2, purity 99.8%

System: magnesium sulfate + sulfuric acid + water; phases: Liquid, Crystal of intercomponent compound 1
Fixed: Pressure, kPa = 100
Property: Molality, mol/kg of magnesium sulfate (Liquid); method: titration
Temperature, K	Molality, mol/kg of sulfuric acid	Molality, mol/kg of magnesium sulfate	uncertainty
278.15	0	2.3694	0.0459
278.15	0.3619	2.1922	0.0453
278.15	0.7447	2.0261	0.0438
278.15	1.141	1.8993	0.0433
278.15	1.5535	1.7718	0.0434
278.15	1.9864	1.6304	0.0435
278.15	2.4333	1.4992	0.0435
278.15	2.8807	1.4043	0.0431
278.15	3.3229	1.3435	0.0429
278.15	3.7771	1.275	0.0427
278.15	4.2148	1.2464	0.043
278.15	4.649	1.228	0.0431
283.15	0	2.532	0.0442
283.15	0.351	2.3644	0.0453
283.15	0.7232	2.1965	0.0441
283.15	1.1066	2.0817	0.0432
283.15	1.5063	1.9592	0.0432
283.15	1.9149	1.843	0.0431
283.15	2.334	1.7619	0.0433
283.15	2.763	1.6713	0.0435
283.15	3.1967	1.5938	0.0439
283.15	3.6279	1.5381	0.0443
283.15	4.0444	1.5168	0.0448
283.15	4.4617	1.4982	0.0431
288.15	0	2.695	0.0448
288.15	0.3395	2.5484	0.0458
288.15	0.6998	2.3824	0.0444
288.15	1.0696	2.2773	0.0436
288.15	1.4522	2.174	0.0434
288.15	1.8442	2.0818	0.0433
288.15	2.2435	2.0012	0.0432
288.15	2.6439	1.9413	0.0436
288.15	3.0536	1.8777	0.0446
288.15	3.4611	1.8323	0.0454
288.15	3.8361	1.8474	0.0463
288.15	4.2263	1.838	0.0447
293.15	0	2.8759	0.0454
293.15	0.3276	2.7369	0.0455
293.15	0.6745	2.5831	0.0444
293.15	1.03	2.4865	0.0435
293.15	1.3976	2.3906	0.0432
293.15	1.7674	2.3257	0.0432
293.15	2.1433	2.2664	0.0436
293.15	2.5168	2.2295	0.0445
293.15	2.8951	2.1922	0.0451
293.15	3.2636	2.1805	0.0463
293.15	3.6159	2.1969	0.0473
293.15	3.9582	2.2248	0.046
298.15	0	3.0676	0.0453
298.15	0.3147	2.9418	0.0455
298.15	0.6474	2.7981	0.0446
298.15	0.9877	2.7106	0.0437
298.15	1.3372	2.6301	0.0435
298.15	1.6877	2.5787	0.0433
298.15	2.0347	2.5537	0.0438
298.15	2.3827	2.5335	0.0451
298.15	2.7272	2.5253	0.0458
298.15	3.0641	2.5325	0.0472
298.15	3.3797	2.5719	0.0477
298.15	3.6862	2.6173	0.0477
303.15	0	3.2706	0.0456
303.15	0.301	3.1592	0.0454
303.15	0.6179	3.0323	0.0448
303.15	0.9409	2.9581	0.0441
303.15	1.2723	2.8877	0.0441
303.15	1.6047	2.8421	0.0439
303.15	1.9266	2.8396	0.0445
303.15	2.2446	2.8466	0.0435
303.15	2.5575	2.8621	0.0471
303.15	2.8613	2.8901	0.0483
303.15	3.1381	2.9554	0.0487
303.15	3.4011	3.0288	0.05
308.15	0	3.502	0.0452
308.15	0.2857	3.4018	0.0453
308.15	0.5846	3.2972	0.0451
308.15	0.8881	3.2375	0.0444
308.15	1.1963	3.1895	0.0446
308.15	1.5059	3.1559	0.045
308.15	1.8021	3.169	0.0452
308.15	2.0995	3.1756	0.0462
308.15	2.3719	3.2304	0.0464
308.15	2.6448	3.2719	0.0479
308.15	2.8984	3.3359	0.0491
308.15	3.1514	3.389	0.0489
285.75	0	2.56	0.0462
285.75	0.3478	2.4222	0.0445
285.75	0.7126	2.2874	0.044
285.75	1.0928	2.1612	0.0435
285.75	1.4839	2.0544	0.0431
285.75	1.8818	1.9685	0.0433

System: magnesium sulfate + water; phases: Liquid, Crystal of intercomponent compound 1
Fixed: Pressure, kPa = 100
Property: Molality, mol/kg of magnesium sulfate (Liquid); method: titration
Temperature, K	Molality, mol/kg of magnesium sulfate	uncertainty
278.15	2.3694	0.0415
283.15	2.532	0.0415
288.15	2.695	0.0417
293.15	2.8759	0.042
298.15	3.0676	0.0422
303.15	3.2706	0.0426
308.15	3.502	0.043
