Measured thermophysical data. Thermodynamic Study of Solubility for Imatinib Mesylate in Nine Monosolvents and Two Binary Solvent Mixtures from 278.15 to 318.15 K
Source: J. Chem. Eng. Data, 2018, 10.1021/acs.jced.8b00551
Compound 1: imatinib mesilate, C30H35N7O4S, InChI=1S/C29H31N7O.CH4O3S/c1-21-5-10-25(18-27(21)34-29-31-13-11-26(33-29)24-4-3-12-30-19-24)32-28(37)23-8-6-22(7-9-23)20-36-16-14-35(2)15-17-36;1-5(2,3)4/h3-13,18-19H,14-17,20H2,1-2H3,(H,32,37)(H,31,33,34);1H3,(H,2,3,4), purity 99%
Compound 2: methanol, CH4O, InChI=1S/CH4O/c1-2/h2H,1H3, purity 99.5%
Compound 3: ethanol, C2H6O, InChI=1S/C2H6O/c1-2-3/h3H,2H2,1H3, purity 99.5%
Compound 4: propan-1-ol, C3H8O, InChI=1S/C3H8O/c1-2-3-4/h4H,2-3H2,1H3, purity 99.5%
Compound 5: propan-2-ol, C3H8O, InChI=1S/C3H8O/c1-3(2)4/h3-4H,1-2H3, purity 99.5%
Compound 6: butan-1-ol, C4H10O, InChI=1S/C4H10O/c1-2-3-4-5/h5H,2-4H2,1H3, purity 99.5%
Compound 7: 2-methyl-1-propanol, C4H10O, InChI=1S/C4H10O/c1-4(2)3-5/h4-5H,3H2,1-2H3, purity 99.5%
Compound 8: acetonitrile, C2H3N, InChI=1S/C2H3N/c1-2-3/h1H3, purity 99.5%
Compound 9: tetrahydrofuran, C4H8O, InChI=1S/C4H8O/c1-2-4-5-3-1/h1-4H2, purity 99.5%
Compound 10: methyl ethanoate, C3H6O2, InChI=1S/C3H6O2/c1-3(4)5-2/h1-2H3, purity 99.5%
Compound 11: 2-((2,3-dimethylphenyl)amino)benzoic acid, C15H15NO2, InChI=1S/C15H15NO2/c1-10-6-5-9-13(11(10)2)16-14-8-4-3-7-12(14)15(17)18/h3-9,16H,1-2H3,(H,17,18), purity 99%

System: imatinib mesilate; phases: Crystal, Liquid, Air at 1 atmosphere
Property: Triple point temperature, K (Crystal); method: DSC
Triple point temperature, K	uncertainty
488.32	0.87

System: imatinib mesilate; phases: Crystal, Liquid, Air at 1 atmosphere
Property: Molar enthalpy of transition or fusion, kJ/mol (Crystal); method: DSC
Molar enthalpy of transition or fusion, kJ/mol	uncertainty
66.0651754504	3.4439045312

System: imatinib mesilate + methanol; phases: Liquid, Crystal
Fixed: Pressure, kPa = 100
Property: Mole fraction of imatinib mesilate (Liquid); method: Chromatography
Temperature, K	Mole fraction of imatinib mesilate	uncertainty
278.15	0.0009124	4.95e-05
283.15	0.0011542	6.28e-05
288.15	0.0016715	9.11e-05
293.15	0.0023172	0.000126
298.15	0.0030803	0.0001674
303.15	0.004114	0.0002235
308.15	0.005327	0.0002891
313.15	0.0067336	0.0003654
318.15	0.0085961	0.000466

System: imatinib mesilate + ethanol; phases: Liquid, Crystal
Fixed: Pressure, kPa = 100
Property: Mole fraction of imatinib mesilate (Liquid); method: Chromatography
Temperature, K	Mole fraction of imatinib mesilate	uncertainty
278.15	8.39e-05	4.6e-06
283.15	0.0001308	7.1e-06
288.15	0.0001832	1e-05
293.15	0.0002457	1.33e-05
298.15	0.00032	1.74e-05
303.15	0.0004167	2.26e-05
308.15	0.0005457	2.96e-05
313.15	0.0006782	3.68e-05
318.15	0.0008779	4.76e-05

System: imatinib mesilate + propan-1-ol; phases: Liquid, Crystal
Fixed: Pressure, kPa = 100
Property: Mole fraction of imatinib mesilate (Liquid); method: Chromatography
Temperature, K	Mole fraction of imatinib mesilate	uncertainty
278.15	3.39e-05	1.8e-06
283.15	4.58e-05	2.5e-06
288.15	6.28e-05	3.4e-06
293.15	8.92e-05	4.9e-06
298.15	0.0001178	6.4e-06
303.15	0.0001556	8.4e-06
308.15	0.0001994	1.08e-05
313.15	0.0002451	1.33e-05
318.15	0.000304	1.65e-05

System: imatinib mesilate + propan-2-ol; phases: Liquid, Crystal
Fixed: Pressure, kPa = 100
Property: Mole fraction of imatinib mesilate (Liquid); method: Chromatography
Temperature, K	Mole fraction of imatinib mesilate	uncertainty
278.15	1.01e-05	3e-06
283.15	1.18e-05	3.5e-06
288.15	1.53e-05	4.6e-06
293.15	2.03e-05	6.1e-06
298.15	2.7e-05	8.1e-06
303.15	3.54e-05	1.06e-05
308.15	4.28e-05	1.28e-05
313.15	5.34e-05	1.6e-05
318.15	7.1e-05	2.13e-05

System: imatinib mesilate + butan-1-ol; phases: Liquid, Crystal
Fixed: Pressure, kPa = 100
Property: Mole fraction of imatinib mesilate (Liquid); method: Chromatography
Temperature, K	Mole fraction of imatinib mesilate	uncertainty
278.15	1.69e-05	9e-07
283.15	2.29e-05	1.2e-06
288.15	2.99e-05	1.6e-06
293.15	4.18e-05	2.3e-06
298.15	5.79e-05	3.1e-06
303.15	7.51e-05	4.1e-06
308.15	9.03e-05	4.9e-06
313.15	0.000111	6e-06
318.15	0.000142	7.7e-06

System: imatinib mesilate + 2-methyl-1-propanol; phases: Liquid, Crystal
Fixed: Pressure, kPa = 100
Property: Mole fraction of imatinib mesilate (Liquid); method: Chromatography
Temperature, K	Mole fraction of imatinib mesilate	uncertainty
278.15	1.46e-05	8e-07
283.15	2.09e-05	1.1e-06
288.15	2.73e-05	1.5e-06
293.15	3.87e-05	2.1e-06
298.15	5.22e-05	2.8e-06
303.15	6.81e-05	3.7e-06
308.15	8.44e-05	4.6e-06
313.15	0.0001007	5.5e-06
318.15	0.000136	7.4e-06

System: imatinib mesilate + acetonitrile; phases: Liquid, Crystal
Fixed: Pressure, kPa = 100
Property: Mole fraction of imatinib mesilate (Liquid); method: Chromatography
Temperature, K	Mole fraction of imatinib mesilate	uncertainty
278.15	1.09e-05	6e-07
283.15	1.27e-05	7e-07
288.15	1.65e-05	9e-07
293.15	2.19e-05	1.2e-06
298.15	2.87e-05	1.6e-06
303.15	3.7e-05	2e-06
308.15	4.67e-05	2.5e-06
313.15	5.74e-05	3.1e-06
318.15	7.54e-05	4.1e-06

System: imatinib mesilate + tetrahydrofuran; phases: Liquid, Crystal
Fixed: Pressure, kPa = 100
Property: Mole fraction of imatinib mesilate (Liquid); method: Chromatography
Temperature, K	Mole fraction of imatinib mesilate	uncertainty
278.15	2.9e-05	1.6e-06
283.15	4.16e-05	2.3e-06
288.15	5.52e-05	3e-06
293.15	7.48e-05	4.1e-06
298.15	9.43e-05	5.1e-06
303.15	0.000115	6.2e-06
308.15	0.000152	8.3e-06
313.15	0.000201	1.09e-05
318.15	0.0002388	1.29e-05

System: imatinib mesilate + methyl ethanoate; phases: Liquid, Crystal
Fixed: Pressure, kPa = 100
Property: Mole fraction of imatinib mesilate (Liquid); method: Chromatography
Temperature, K	Mole fraction of imatinib mesilate	uncertainty
278.15	1.6e-06	1e-07
283.15	1.9e-06	1e-07
288.15	2.6e-06	2e-07
293.15	3.4e-06	2e-07
298.15	4.5e-06	3e-07
303.15	5.7e-06	3e-07
308.15	7.4e-06	4e-07
313.15	9.5e-06	5e-07
318.15	1.15e-05	6e-07

System: imatinib mesilate + methanol + ethanol; phases: Liquid, Crystal
Fixed: Pressure, kPa = 100
Property: Mole fraction of imatinib mesilate (Liquid); method: Chromatography
Solvent: Mole fraction of methanol	Temperature, K	Mole fraction of imatinib mesilate	uncertainty
0	278.15	8.39e-05	8.8e-06
0.1	278.15	0.0001231	1.29e-05
0.2	278.15	0.0001422	1.48e-05
0.3	278.15	0.0001783	1.86e-05
0.4	278.15	0.0002112	2.21e-05
0.5	278.15	0.0002642	2.78e-05
0.6	278.15	0.0003289	3.45e-05
0.7	278.15	0.0004143	4.34e-05
0.8	278.15	0.0005071	5.3e-05
0.9	278.15	0.0006722	7.02e-05
1	278.15	0.0009124	9.5e-05
0	283.15	0.0001308	1.36e-05
0.1	283.15	0.0001692	1.76e-05
0.2	283.15	0.0001981	2.07e-05
0.3	283.15	0.0002461	2.57e-05
0.4	283.15	0.0002841	2.98e-05
0.5	283.15	0.0003678	3.88e-05
0.6	283.15	0.0004771	5.01e-05
0.7	283.15	0.0005951	6.23e-05
0.8	283.15	0.000783	8.17e-05
0.9	283.15	0.0009593	0.0001
1	283.15	0.0011491	0.0001198
0	288.15	0.0001832	1.91e-05
0.1	288.15	0.0002231	2.33e-05
0.2	288.15	0.0002778	2.9e-05
0.3	288.15	0.0003489	3.65e-05
0.4	288.15	0.0004537	4.76e-05
0.5	288.15	0.0005426	5.71e-05
0.6	288.15	0.0007082	7.43e-05
0.7	288.15	0.0008681	9.06e-05
0.8	288.15	0.0009968	0.0001039
0.9	288.15	0.001228	0.000128
1	288.15	0.0016683	0.0001739
0	293.15	0.0002457	2.56e-05
0.1	293.15	0.0003089	3.22e-05
0.2	293.15	0.0004031	4.2e-05
0.3	293.15	0.0004878	5.1e-05
0.4	293.15	0.0006372	6.67e-05
0.5	293.15	0.0007664	8.05e-05
0.6	293.15	0.0009791	0.0001024
0.7	293.15	0.0011481	0.0001197
0.8	293.15	0.001307	0.0001363
0.9	293.15	0.0016412	0.0001711
1	293.15	0.0023092	0.0002406
0	298.15	0.00032	3.33e-05
0.1	298.15	0.0004061	4.23e-05
0.2	298.15	0.0005019	5.23e-05
0.3	298.15	0.0006221	6.5e-05
0.4	298.15	0.0007911	8.27e-05
0.5	298.15	0.0009511	9.97e-05
0.6	298.15	0.0011831	0.0001238
0.7	298.15	0.0014433	0.0001506
0.8	298.15	0.0017427	0.0001818
0.9	298.15	0.0022103	0.0002304
1	298.15	0.0030783	0.0003207
0	303.15	0.0004167	4.34e-05
0.1	303.15	0.0004948	5.15e-05
0.2	303.15	0.0006462	6.74e-05
0.3	303.15	0.0007694	8.03e-05
0.4	303.15	0.0009453	9.89e-05
0.5	303.15	0.0011701	0.0001232
0.6	303.15	0.0015481	0.000162
0.7	303.15	0.0018192	0.0001898
0.8	303.15	0.0022412	0.0002337
0.9	303.15	0.0028069	0.0002926
1	303.15	0.0040992	0.000427
0	308.15	0.0005457	5.68e-05
0.1	308.15	0.0006352	6.62e-05
0.2	308.15	0.0007831	8.16e-05
0.3	308.15	0.0009171	9.57e-05
0.4	308.15	0.0011377	0.0001191
0.5	308.15	0.0014513	0.000153
0.6	308.15	0.0019421	0.0002032
0.7	308.15	0.002309	0.0002409
0.8	308.15	0.0028194	0.0002942
0.9	308.15	0.0037912	0.0003953
1	308.15	0.0052981	0.0005517
0	313.15	0.0006782	7.06e-05
0.1	313.15	0.0008362	8.71e-05
0.2	313.15	0.0009792	0.000102
0.3	313.15	0.0011331	0.0001181
0.4	313.15	0.0013225	0.0001384
0.5	313.15	0.0017412	0.0001842
0.6	313.15	0.0024054	0.0002518
0.7	313.15	0.0028632	0.0002991
0.8	313.15	0.0037231	0.0003888
0.9	313.15	0.0051053	0.0005322
1	313.15	0.0067282	0.0007007
0	318.15	0.0008779	9.14e-05
0.1	318.15	0.0010731	0.0001117
0.2	318.15	0.0011525	0.0001202
0.3	318.15	0.001308	0.0001362
0.4	318.15	0.0015647	0.0001655
0.5	318.15	0.0021785	0.0002297
0.6	318.15	0.0027753	0.000291
0.7	318.15	0.0036392	0.0003803
0.8	318.15	0.0048927	0.0005108
0.9	318.15	0.006725	0.0007007
1	318.15	0.0085961	0.000895

System: imatinib mesilate + methanol + propan-2-ol; phases: Liquid, Crystal
Fixed: Pressure, kPa = 100
Property: Mole fraction of imatinib mesilate (Liquid); method: Chromatography
Solvent: Mole fraction of methanol	Temperature, K	Mole fraction of imatinib mesilate	uncertainty
0	278.15	1.01e-05	3e-06
0.1	278.15	1.49e-05	4.5e-06
0.2	278.15	1.71e-05	5.1e-06
0.3	278.15	2.9e-05	8.7e-06
0.4	278.15	5.12e-05	1.54e-05
0.5	278.15	8.4e-05	2.54e-05
0.6	278.15	0.0001383	4.17e-05
0.7	278.15	0.0002152	6.48e-05
0.8	278.15	0.0003458	0.0001039
0.9	278.15	0.0005423	0.0001628
1	278.15	0.0009124	0.0002738
0	283.15	1.18e-05	3.5e-06
0.1	283.15	1.78e-05	5.3e-06
0.2	283.15	2.32e-05	7e-06
0.3	283.15	3.77e-05	1.14e-05
0.4	283.15	6.6e-05	2e-05
0.5	283.15	0.0001146	3.47e-05
0.6	283.15	0.0001784	5.38e-05
0.7	283.15	0.000286	8.61e-05
0.8	283.15	0.0004618	0.0001387
0.9	283.15	0.0006941	0.0002083
1	283.15	0.0011493	0.0003449
0	288.15	1.53e-05	4.6e-06
0.1	288.15	2.29e-05	6.9e-06
0.2	288.15	2.99e-05	9e-06
0.3	288.15	4.87e-05	1.47e-05
0.4	288.15	8.4e-05	2.54e-05
0.5	288.15	0.0001378	4.17e-05
0.6	288.15	0.0002273	6.86e-05
0.7	288.15	0.0003641	0.0001096
0.8	288.15	0.0005815	0.0001747
0.9	288.15	0.0009389	0.0002819
1	288.15	0.0016681	0.0005006
0	293.15	2.03e-05	6.1e-06
0.1	293.15	2.87e-05	8.6e-06
0.2	293.15	4.11e-05	1.23e-05
0.3	293.15	6.54e-05	1.97e-05
0.4	293.15	0.000102	3.08e-05
0.5	293.15	0.0001702	5.15e-05
0.6	293.15	0.0002679	8.08e-05
0.7	293.15	0.0004252	0.000128
0.8	293.15	0.0006998	0.0002103
0.9	293.15	0.0011895	0.0003571
1	293.15	0.0023089	0.0006928
0	298.15	2.7e-05	8.1e-06
0.1	298.15	3.65e-05	1.1e-05
0.2	298.15	5.23e-05	1.57e-05
0.3	298.15	8.07e-05	2.43e-05
0.4	298.15	0.0001283	3.87e-05
0.5	298.15	0.0002032	6.15e-05
0.6	298.15	0.0003275	9.88e-05
0.7	298.15	0.0005265	0.0001585
0.8	298.15	0.000881	0.0002649
0.9	298.15	0.0015801	0.0004744
1	298.15	0.0030782	0.0009237
0	303.15	3.54e-05	1.06e-05
0.1	303.15	4.51e-05	1.35e-05
0.2	303.15	6.9e-05	2.07e-05
0.3	303.15	0.0001015	3.05e-05
0.4	303.15	0.0001569	4.73e-05
0.5	303.15	0.0002333	7.06e-05
0.6	303.15	0.0003846	0.0001161
0.7	303.15	0.0006221	0.0001873
0.8	303.15	0.0010504	0.0003159
0.9	303.15	0.0020107	0.0006038
1	303.15	0.0040991	0.00123
0	308.15	4.28e-05	1.28e-05
0.1	308.15	5.61e-05	1.68e-05
0.2	308.15	8.7e-05	2.61e-05
0.3	308.15	0.0001273	3.83e-05
0.4	308.15	0.0001806	5.44e-05
0.5	308.15	0.0002705	8.18e-05
0.6	308.15	0.0004433	0.0001337
0.7	308.15	0.0006981	0.0002104
0.8	308.15	0.0012695	0.000382
0.9	308.15	0.0024812	0.0007451
1	308.15	0.005298	0.0015897
0	313.15	5.34e-05	1.6e-05
0.1	313.15	6.8e-05	2.04e-05
0.2	313.15	0.0001081	3.25e-05
0.3	313.15	0.0001555	4.67e-05
0.4	313.15	0.0002165	6.51e-05
0.5	313.15	0.0003106	9.38e-05
0.6	313.15	0.0004892	0.0001476
0.7	313.15	0.0007867	0.0002372
0.8	313.15	0.0014806	0.0004455
0.9	313.15	0.002931	0.0008804
1	313.15	0.0067282	0.0020188
0	318.15	7.1e-05	2.13e-05
0.1	318.15	8.49e-05	2.55e-05
0.2	318.15	0.0001523	4.58e-05
0.3	318.15	0.0001872	5.62e-05
0.4	318.15	0.0002456	7.4e-05
0.5	318.15	0.0003573	0.000108
0.6	318.15	0.0005742	0.0001731
0.7	318.15	0.0008787	0.000265
0.8	318.15	0.0018193	0.0005476
0.9	318.15	0.0036705	0.0011031
1	318.15	0.0085961	0.0025792

System: 2-((2,3-dimethylphenyl)amino)benzoic acid + ethanol; phases: Liquid, Crystal
Fixed: Pressure, kPa = 100
Property: Mole fraction of 2-((2,3-dimethylphenyl)amino)benzoic acid (Liquid); method: Chromatography
Temperature, K	Mole fraction of 2-((2,3-dimethylphenyl)amino)benzoic acid	uncertainty
298	0.0017	0.0005
303	0.0021	0.0006
308	0.0024	0.0007
313	0.003	0.0009
318	0.0036	0.0011
323	0.0044	0.0013
