Measured thermophysical data. Densities and Viscosities for Binary Liquid Mixtures of n-Undecane + 1-Propanol, + 1-Butanol, + 1-Pentanol, and + 1-Hexanol from 283.15 to 363.15 K at 0.1 MPa
Source: J. Chem. Eng. Data, 2016, 10.1021/acs.jced.6b00121
Compound 1: undecane, C11H24, InChI=1S/C11H24/c1-3-5-7-9-11-10-8-6-4-2/h3-11H2,1-2H3, purity 99%
Compound 2: propan-1-ol, C3H8O, InChI=1S/C3H8O/c1-2-3-4/h4H,2-3H2,1H3, purity 99.7%
Compound 3: butan-1-ol, C4H10O, InChI=1S/C4H10O/c1-2-3-4-5/h5H,2-4H2,1H3, purity 99.8%
Compound 4: pentan-1-ol, C5H12O, InChI=1S/C5H12O/c1-2-3-4-5-6/h6H,2-5H2,1H3, purity 99%
Compound 5: hexan-1-ol, C6H14O, InChI=1S/C6H14O/c1-2-3-4-5-6-7/h7H,2-6H2,1H3, purity 99%

System: undecane; phases: Liquid
Fixed: Pressure, kPa = 100
Property: Mass density, kg/m3 (Liquid); method: Vibrating tube method
Temperature, K	Mass density, kg/m3	uncertainty
283.15	747.78	1.512
288.15	744.06	1.504
293.15	740.35	1.497
298.15	736.64	1.49
303.15	732.93	1.482
308.15	729.23	1.475
313.15	725.53	1.468
318.15	721.818	1.461
323.15	718.11	1.453
328.15	714.39	1.446
333.15	710.68	1.439
338.15	706.95	1.431
343.15	703.22	1.424
348.15	699.47	1.417
353.15	695.72	1.409
358.15	691.96	1.402
363.15	688.18	1.395
318.15	721.82	1.46

System: undecane; phases: Liquid
Fixed: Pressure, kPa = 100
Property: Viscosity, Pa*s (Liquid); method: Falling or rolling sphere viscometry
Temperature, K	Viscosity, Pa*s	uncertainty
283.15	0.001371	1.83e-05
288.15	0.001249	1.67e-05
293.15	0.001145	1.53e-05
298.15	0.001062	1.42e-05
303.15	0.000982	1.31e-05
308.15	0.00091	1.22e-05
313.15	0.000847	1.13e-05
318.15	0.00079	1.05e-05
323.15	0.00074	9.9e-06
328.15	0.000692	9.2e-06
333.15	0.000651	8.7e-06
338.15	0.000615	8.2e-06
343.15	0.00058	7.7e-06
348.15	0.000549	7.3e-06
353.15	0.000522	7e-06
358.15	0.000497	6.6e-06
363.15	0.000475	6.3e-06

System: propan-1-ol; phases: Liquid
Fixed: Pressure, kPa = 100
Property: Mass density, kg/m3 (Liquid); method: Vibrating tube method
Temperature, K	Mass density, kg/m3	uncertainty
283.15	811.48	1.627
288.15	807.54	1.619
293.15	803.58	1.611
298.15	799.59	1.603
303.15	795.58	1.595
308.15	791.53	1.587
313.15	787.44	1.579
318.15	783.304	1.571
323.15	779.11	1.563
328.15	774.86	1.554
333.15	770.54	1.546
338.15	766.15	1.537
343.15	761.67	1.528
348.15	757.09	1.519
353.15	752.44	1.51
358.15	747.65	1.501
363.15	742.77	1.491

System: propan-1-ol; phases: Liquid
Fixed: Pressure, kPa = 100
Property: Viscosity, Pa*s (Liquid); method: Falling or rolling sphere viscometry
Temperature, K	Viscosity, Pa*s	uncertainty
283.15	0.002834	3.57e-05
288.15	0.002489	3.14e-05
293.15	0.002195	2.77e-05
298.15	0.001929	2.43e-05
303.15	0.001714	2.16e-05
308.15	0.001536	1.93e-05
313.15	0.001372	1.72e-05
318.15	0.001229	1.54e-05
323.15	0.001113	1.4e-05
328.15	0.001002	1.26e-05
333.15	0.000905	1.14e-05
338.15	0.000819	1.03e-05
343.15	0.000752	9.4e-06
348.15	0.000685	8.6e-06
353.15	0.000625	7.8e-06
358.15	0.000574	7.2e-06
363.15	0.000528	6.6e-06

System: butan-1-ol; phases: Liquid
Fixed: Pressure, kPa = 100
Property: Mass density, kg/m3 (Liquid); method: Vibrating tube method
Temperature, K	Mass density, kg/m3	uncertainty
283.15	817.07	1.64
288.15	813.32	1.63
293.15	809.55	1.62
298.15	805.76	1.61
303.15	801.94	1.61
308.15	798.09	1.6
313.15	794.2	1.59
318.15	790.27	1.58
323.15	786.3	1.58
328.15	782.27	1.57
333.15	778.18	1.56
338.15	774.03	1.55
343.15	769.8	1.54
348.15	765.49	1.54
353.15	761.12	1.53
358.15	756.64	1.52
363.15	752.08	1.51

System: butan-1-ol; phases: Liquid
Fixed: Pressure, kPa = 100
Property: Viscosity, Pa*s (Liquid); method: Falling or rolling sphere viscometry
Temperature, K	Viscosity, Pa*s	uncertainty
283.15	0.004046	5.1e-05
288.15	0.003514	4.4e-05
293.15	0.003066	3.9e-05
298.15	0.00259	3.3e-05
303.15	0.00228	2.9e-05
308.15	0.002015	2.5e-05
313.15	0.001786	2.2e-05
318.15	0.001589	2e-05
323.15	0.001427	1.8e-05
328.15	0.001278	1.6e-05
333.15	0.001147	1.4e-05
338.15	0.001032	1.3e-05
343.15	0.000934	1.2e-05
348.15	0.000842	1.1e-05
353.15	0.000762	1e-05
358.15	0.000693	9e-06
363.15	0.000633	8e-06

System: pentan-1-ol; phases: Liquid
Fixed: Pressure, kPa = 100
Property: Mass density, kg/m3 (Liquid); method: Vibrating tube method
Temperature, K	Mass density, kg/m3	uncertainty
283.15	821.9	1.66
288.15	818.3	1.65
293.15	814.68	1.64
298.15	811.03	1.64
303.15	807.37	1.63
308.15	803.67	1.62
313.15	799.94	1.61
318.15	796.17	1.61
323.15	792.36	1.6
328.15	788.5	1.59
333.15	784.59	1.58
338.15	780.62	1.58
343.15	776.58	1.57
348.15	772.49	1.56
353.15	768.33	1.55
358.15	764.08	1.54
363.15	759.77	1.54

System: pentan-1-ol; phases: Liquid
Fixed: Pressure, kPa = 100
Property: Viscosity, Pa*s (Liquid); method: Falling or rolling sphere viscometry
Temperature, K	Viscosity, Pa*s	uncertainty
283.15	0.005431	7.4e-05
288.15	0.004655	6.3e-05
293.15	0.004011	5.4e-05
298.15	0.003474	4.7e-05
303.15	0.003023	4.1e-05
308.15	0.002642	3.6e-05
313.15	0.00232	3.1e-05
318.15	0.002045	2.8e-05
323.15	0.00181	2.4e-05
328.15	0.001608	2.2e-05
333.15	0.001434	1.9e-05
338.15	0.001283	1.7e-05
343.15	0.001152	1.5e-05
348.15	0.001038	1.4e-05
353.15	0.000939	1.3e-05
358.15	0.000852	1.1e-05
363.15	0.000776	1e-05

System: hexan-1-ol; phases: Liquid
Fixed: Pressure, kPa = 100
Property: Mass density, kg/m3 (Liquid); method: Vibrating tube method
Temperature, K	Mass density, kg/m3	uncertainty
283.15	825.94	1.67
288.15	822.42	1.66
293.15	818.88	1.65
298.15	815.32	1.64
303.15	811.74	1.64
308.15	808.13	1.63
313.15	804.5	1.62
318.15	800.83	1.62
323.15	797.12	1.61
328.15	793.37	1.6
333.15	789.57	1.59
338.15	785.72	1.59
343.15	781.83	1.58
348.15	777.86	1.57
353.15	773.86	1.56
358.15	769.78	1.55
363.15	765.64	1.55

System: hexan-1-ol; phases: Liquid
Fixed: Pressure, kPa = 100
Property: Viscosity, Pa*s (Liquid); method: Falling or rolling sphere viscometry
Temperature, K	Viscosity, Pa*s	uncertainty
283.15	0.007487	0.000102
288.15	0.006307	8.6e-05
293.15	0.005348	7.3e-05
298.15	0.004555	6.2e-05
303.15	0.003903	5.3e-05
308.15	0.003361	4.6e-05
313.15	0.002912	3.9e-05
318.15	0.002538	3.4e-05
323.15	0.002228	3e-05
328.15	0.00197	2.7e-05
333.15	0.001744	2.3e-05
338.15	0.001553	2.1e-05
343.15	0.00139	1.9e-05
348.15	0.001255	1.7e-05
353.15	0.001125	1.5e-05
358.15	0.001018	1.4e-05
363.15	0.000925	1.2e-05

System: undecane + propan-1-ol; phases: Liquid
Fixed: Pressure, kPa = 100
Property: Mass density, kg/m3 (Liquid); method: Vibrating tube method
Temperature, K	Mole fraction of undecane	Mass density, kg/m3	uncertainty
283.15	0	811.48	1.627
283.15	0.1003	794.54	1.595
283.15	0.2009	782.93	1.572
283.15	0.3004	774.29	1.555
283.15	0.3997	767.69	1.543
283.15	0.4998	762.46	1.533
283.15	0.6005	758.08	1.526
283.15	0.6974	754.68	1.52
283.15	0.8	751.72	1.516
283.15	0.8963	749.45	1.513
283.15	1	747.78	1.512
288.15	0	807.54	1.619
288.15	0.1003	790.63	1.587
288.15	0.2009	779.03	1.564
288.15	0.3004	770.41	1.547
288.15	0.3997	763.82	1.535
288.15	0.4998	758.6	1.526
288.15	0.6005	754.26	1.518
288.15	0.6974	750.86	1.513
288.15	0.8	747.96	1.508
288.15	0.8963	745.71	1.506
288.15	1	744.06	1.504
293.15	0	803.58	1.611
293.15	0.1003	786.69	1.579
293.15	0.2009	775.1	1.556
293.15	0.3004	766.5	1.54
293.15	0.3997	759.92	1.527
293.15	0.4998	754.73	1.518
293.15	0.6005	750.41	1.511
293.15	0.6974	747.04	1.505
293.15	0.8	744.17	1.501
293.15	0.8963	741.96	1.498
293.15	1	740.35	1.497
298.15	0	799.59	1.603
298.15	0.1003	782.72	1.571
298.15	0.2009	771.14	1.548
298.15	0.3004	762.56	1.532
298.15	0.3997	756	1.52
298.15	0.4998	750.83	1.51
298.15	0.6005	746.54	1.503
298.15	0.6974	743.2	1.498
298.15	0.8	740.37	1.493
298.15	0.8963	738.2	1.491
298.15	1	736.64	1.49
303.15	0	795.58	1.595
303.15	0.1003	778.73	1.563
303.15	0.2009	767.15	1.541
303.15	0.3004	758.59	1.524
303.15	0.3997	752.04	1.512
303.15	0.4998	746.9	1.503
303.15	0.6005	742.64	1.495
303.15	0.6974	739.34	1.49
303.15	0.8	736.55	1.486
303.15	0.8963	734.41	1.483
303.15	1	732.93	1.482
308.15	0	791.53	1.587
308.15	0.1003	774.69	1.555
308.15	0.2009	763.12	1.533
308.15	0.3004	754.57	1.516
308.15	0.3997	748.05	1.504
308.15	0.4998	742.93	1.495
308.15	0.6005	738.71	1.488
308.15	0.6974	735.45	1.482
308.15	0.8	732.7	1.478
308.15	0.8963	730.61	1.476
308.15	1	729.23	1.475
313.15	0	787.44	1.579
313.15	0.1003	770.6	1.547
313.15	0.2009	759.04	1.525
313.15	0.3004	750.52	1.508
313.15	0.3997	744.02	1.496
313.15	0.4998	738.93	1.487
313.15	0.6005	734.75	1.48
313.15	0.6974	731.52	1.475
313.15	0.8	728.83	1.471
313.15	0.8963	726.79	1.468
313.15	1	725.53	1.468
318.15	0	783.304	1.571
318.15	0.1003	766.466	1.539
318.15	0.2009	754.911	1.517
318.15	0.3004	746.411	1.5
318.15	0.3997	739.944	1.488
318.15	0.4998	734.891	1.479
318.15	0.6005	730.749	1.472
318.15	0.6974	727.572	1.467
318.15	0.8	724.934	1.463
318.15	0.8963	722.953	1.461
318.15	1	721.818	1.461
323.15	0	779.11	1.563
323.15	0.1003	762.28	1.531
323.15	0.2009	750.73	1.508
323.15	0.3004	742.26	1.492
323.15	0.3997	735.82	1.48
323.15	0.4998	730.81	1.471
323.15	0.6005	726.72	1.464
323.15	0.6974	723.59	1.459
323.15	0.8	721.01	1.456
323.15	0.8963	719.09	1.453
323.15	1	718.11	1.453
328.15	0	774.86	1.554
328.15	0.1003	758.02	1.523
328.15	0.2009	746.49	1.5
328.15	0.3004	738.04	1.484
328.15	0.3997	731.64	1.472
328.15	0.4998	726.68	1.463
328.15	0.6005	722.64	1.456
328.15	0.6974	719.57	1.451
328.15	0.8	717.05	1.448
328.15	0.8963	715.21	1.446
328.15	1	714.39	1.446
333.15	0	770.54	1.546
333.15	0.1003	753.7	1.514
333.15	0.2009	742.18	1.492
333.15	0.3004	733.76	1.475
333.15	0.3997	727.41	1.464
333.15	0.4998	722.5	1.455
333.15	0.6005	718.52	1.448
333.15	0.6974	715.51	1.443
333.15	0.8	713.06	1.44
333.15	0.8963	711.3	1.438
333.15	1	710.68	1.439
338.15	0	766.15	1.537
338.15	0.1003	749.3	1.506
338.15	0.2009	737.8	1.483
338.15	0.3004	729.43	1.467
338.15	0.3997	723.12	1.455
338.15	0.4998	718.27	1.447
338.15	0.6005	714.36	1.44
338.15	0.6974	711.41	1.435
338.15	0.8	709.04	1.432
338.15	0.8963	707.37	1.43
338.15	1	706.95	1.431
343.15	0	761.67	1.528
343.15	0.1003	744.8	1.497
343.15	0.2009	733.33	1.474
343.15	0.3004	725.01	1.458
343.15	0.3997	718.77	1.447
343.15	0.4998	713.98	1.438
343.15	0.6005	710.14	1.432
343.15	0.6974	707.27	1.427
343.15	0.8	704.99	1.424
343.15	0.8963	703.43	1.423
343.15	1	703.22	1.424
348.15	0	757.09	1.519
348.15	0.1003	740.24	1.488
348.15	0.2009	728.8	1.465
348.15	0.3004	720.53	1.449
348.15	0.3997	714.34	1.438
348.15	0.4998	709.64	1.43
348.15	0.6005	705.88	1.423
348.15	0.6974	703.09	1.419
348.15	0.8	700.9	1.416
348.15	0.8963	699.45	1.415
348.15	1	699.47	1.417
353.15	0	752.44	1.51
353.15	0.1003	735.57	1.479
353.15	0.2009	724.18	1.456
353.15	0.3004	715.97	1.441
353.15	0.3997	709.86	1.429
353.15	0.4998	705.23	1.421
353.15	0.6005	701.57	1.415
353.15	0.6974	698.86	1.411
353.15	0.8	696.77	1.408
353.15	0.8963	695.46	1.407
353.15	1	695.72	1.409
358.15	0	747.65	1.501
358.15	0.1003	730.81	1.469
358.15	0.2009	719.45	1.447
358.15	0.3004	711.32	1.431
358.15	0.3997	705.29	1.42
358.15	0.4998	700.75	1.412
358.15	0.6005	697.19	1.406
358.15	0.6974	694.58	1.402
358.15	0.8	692.62	1.4
358.15	0.8963	691.44	1.399
358.15	1	691.96	1.402
363.15	0	742.77	1.491
363.15	0.1003	725.93	1.46
363.15	0.2009	714.64	1.438
363.15	0.3004	706.59	1.422
363.15	0.3997	700.67	1.411
363.15	0.4998	696.22	1.403
363.15	0.6005	692.77	1.398
363.15	0.6974	690.27	1.394
363.15	0.8	688.42	1.392
363.15	0.8963	687.41	1.391
363.15	1	688.18	1.395

System: undecane + propan-1-ol; phases: Liquid
Fixed: Pressure, kPa = 100
Property: Viscosity, Pa*s (Liquid); method: Falling or rolling sphere viscometry
Temperature, K	Mole fraction of undecane	Viscosity, Pa*s	uncertainty
283.15	0	0.002834	3.57e-05
283.15	0.1003	0.002378	3.03e-05
283.15	0.2009	0.002098	2.67e-05
283.15	0.3004	0.001867	2.38e-05
283.15	0.3997	0.001722	2.2e-05
283.15	0.4998	0.001585	2.04e-05
283.15	0.6005	0.001482	1.92e-05
283.15	0.6974	0.001412	1.84e-05
283.15	0.8	0.001371	1.8e-05
283.15	0.8963	0.001356	1.8e-05
283.15	1	0.001371	1.83e-05
288.15	0	0.002489	3.14e-05
288.15	0.1003	0.002104	2.66e-05
288.15	0.2009	0.001861	2.36e-05
288.15	0.3004	0.00169	2.15e-05
288.15	0.3997	0.001539	1.97e-05
288.15	0.4998	0.001426	1.84e-05
288.15	0.6005	0.001338	1.73e-05
288.15	0.6974	0.00128	1.67e-05
288.15	0.8	0.001246	1.64e-05
288.15	0.8963	0.001235	1.64e-05
288.15	1	0.001249	1.67e-05
293.15	0	0.002195	2.77e-05
293.15	0.1003	0.001865	2.36e-05
293.15	0.2009	0.001656	2.1e-05
293.15	0.3004	0.001515	1.93e-05
293.15	0.3997	0.001382	1.77e-05
293.15	0.4998	0.001286	1.65e-05
293.15	0.6005	0.001214	1.57e-05
293.15	0.6974	0.001165	1.52e-05
293.15	0.8	0.001138	1.49e-05
293.15	0.8963	0.00113	1.5e-05
293.15	1	0.001145	1.53e-05
298.15	0	0.001929	2.43e-05
298.15	0.1003	0.001655	2.09e-05
298.15	0.2009	0.001481	1.88e-05
298.15	0.3004	0.001357	1.73e-05
298.15	0.3997	0.001246	1.59e-05
298.15	0.4998	0.001166	1.5e-05
298.15	0.6005	0.001106	1.43e-05
298.15	0.6974	0.001065	1.39e-05
298.15	0.8	0.001044	1.37e-05
298.15	0.8963	0.001038	1.37e-05
298.15	1	0.001062	1.42e-05
303.15	0	0.001714	2.16e-05
303.15	0.1003	0.001487	1.88e-05
303.15	0.2009	0.001332	1.69e-05
303.15	0.3004	0.001223	1.55e-05
303.15	0.3997	0.001129	1.44e-05
303.15	0.4998	0.001061	1.36e-05
303.15	0.6005	0.001012	1.31e-05
303.15	0.6974	0.000978	1.27e-05
303.15	0.8	0.000961	1.26e-05
303.15	0.8963	0.000957	1.27e-05
303.15	1	0.000982	1.31e-05
308.15	0	0.001536	1.93e-05
308.15	0.1003	0.001333	1.68e-05
308.15	0.2009	0.001196	1.51e-05
308.15	0.3004	0.001106	1.41e-05
308.15	0.3997	0.001025	1.31e-05
308.15	0.4998	0.000968	1.24e-05
308.15	0.6005	0.000929	1.2e-05
308.15	0.6974	0.000901	1.17e-05
308.15	0.8	0.000886	1.16e-05
308.15	0.8963	0.000885	1.17e-05
308.15	1	0.00091	1.22e-05
313.15	0	0.001372	1.72e-05
313.15	0.1003	0.001198	1.51e-05
313.15	0.2009	0.00108	1.37e-05
313.15	0.3004	0.001004	1.28e-05
313.15	0.3997	0.000935	1.19e-05
313.15	0.4998	0.000888	1.14e-05
313.15	0.6005	0.000855	1.1e-05
313.15	0.6974	0.000833	1.08e-05
313.15	0.8	0.000821	1.08e-05
313.15	0.8963	0.000822	1.09e-05
313.15	1	0.000847	1.13e-05
318.15	0	0.001229	1.54e-05
318.15	0.1003	0.001079	1.36e-05
318.15	0.2009	0.000979	1.24e-05
318.15	0.3004	0.000913	1.16e-05
318.15	0.3997	0.000856	1.09e-05
318.15	0.4998	0.000816	1.05e-05
318.15	0.6005	0.000789	1.02e-05
318.15	0.6974	0.000772	1e-05
318.15	0.8	0.000763	1e-05
318.15	0.8963	0.000765	1.01e-05
318.15	1	0.00079	1.05e-05
323.15	0	0.001113	1.4e-05
323.15	0.1003	0.000976	1.23e-05
323.15	0.2009	0.000889	1.12e-05
323.15	0.3004	0.000828	1.05e-05
323.15	0.3997	0.000786	1e-05
323.15	0.4998	0.000754	9.7e-06
323.15	0.6005	0.000732	9.4e-06
323.15	0.6974	0.000717	9.3e-06
323.15	0.8	0.000712	9.3e-06
323.15	0.8963	0.000715	9.5e-06
323.15	1	0.00074	9.9e-06
328.15	0	0.001002	1.26e-05
328.15	0.1003	0.000885	1.11e-05
328.15	0.2009	0.000811	1.02e-05
328.15	0.3004	0.00076	9.6e-06
328.15	0.3997	0.000723	9.2e-06
328.15	0.4998	0.000698	8.9e-06
328.15	0.6005	0.000681	8.8e-06
328.15	0.6974	0.000669	8.7e-06
328.15	0.8	0.000665	8.7e-06
328.15	0.8963	0.000669	8.8e-06
328.15	1	0.000692	9.2e-06
333.15	0	0.000905	1.14e-05
333.15	0.1003	0.000805	1.01e-05
333.15	0.2009	0.000741	9.4e-06
333.15	0.3004	0.000698	8.8e-06
333.15	0.3997	0.000668	8.5e-06
333.15	0.4998	0.000648	8.3e-06
333.15	0.6005	0.000634	8.2e-06
333.15	0.6974	0.000625	8.1e-06
333.15	0.8	0.000623	8.2e-06
333.15	0.8963	0.000628	8.3e-06
333.15	1	0.000651	8.7e-06
338.15	0	0.000819	1.03e-05
338.15	0.1003	0.000734	9.2e-06
338.15	0.2009	0.00068	8.6e-06
338.15	0.3004	0.000645	8.2e-06
338.15	0.3997	0.000619	7.9e-06
338.15	0.4998	0.000604	7.7e-06
338.15	0.6005	0.000593	7.7e-06
338.15	0.6974	0.000586	7.6e-06
338.15	0.8	0.000586	7.7e-06
338.15	0.8963	0.000592	7.8e-06
338.15	1	0.000615	8.2e-06
343.15	0	0.000752	9.4e-06
343.15	0.1003	0.000672	8.4e-06
343.15	0.2009	0.000626	7.9e-06
343.15	0.3004	0.000596	7.6e-06
343.15	0.3997	0.000576	7.3e-06
343.15	0.4998	0.000563	7.2e-06
343.15	0.6005	0.000555	7.2e-06
343.15	0.6974	0.000551	7.2e-06
343.15	0.8	0.000552	7.2e-06
343.15	0.8963	0.000558	7.4e-06
343.15	1	0.00058	7.7e-06
348.15	0	0.000685	8.6e-06
348.15	0.1003	0.000617	7.8e-06
348.15	0.2009	0.000578	7.3e-06
348.15	0.3004	0.000553	7e-06
348.15	0.3997	0.000537	6.8e-06
348.15	0.4998	0.000527	6.8e-06
348.15	0.6005	0.000522	6.7e-06
348.15	0.6974	0.000519	6.7e-06
348.15	0.8	0.000521	6.8e-06
348.15	0.8963	0.000528	7e-06
348.15	1	0.000549	7.3e-06
353.15	0	0.000625	7.8e-06
353.15	0.1003	0.000568	7.1e-06
353.15	0.2009	0.000535	6.7e-06
353.15	0.3004	0.000515	6.5e-06
353.15	0.3997	0.000502	6.4e-06
353.15	0.4998	0.000495	6.3e-06
353.15	0.6005	0.000492	6.3e-06
353.15	0.6974	0.00049	6.4e-06
353.15	0.8	0.000492	6.4e-06
353.15	0.8963	0.000501	6.6e-06
353.15	1	0.000522	7e-06
358.15	0	0.000574	7.2e-06
358.15	0.1003	0.000525	6.6e-06
358.15	0.2009	0.000497	6.3e-06
358.15	0.3004	0.000481	6.1e-06
358.15	0.3997	0.000471	6e-06
358.15	0.4998	0.000466	6e-06
358.15	0.6005	0.000465	6e-06
358.15	0.6974	0.000463	6e-06
358.15	0.8	0.000467	6.1e-06
358.15	0.8963	0.000476	6.3e-06
358.15	1	0.000497	6.6e-06
363.15	0	0.000528	6.6e-06
363.15	0.1003	0.0004864	6.1e-06
363.15	0.2009	0.0004635	5.8e-06
363.15	0.3004	0.0004506	5.7e-06
363.15	0.3997	0.000443	5.6e-06
363.15	0.4998	0.0004401	5.6e-06
363.15	0.6005	0.0004396	5.7e-06
363.15	0.6974	0.0004398	5.7e-06
363.15	0.8	0.0004438	5.8e-06
363.15	0.8963	0.0004531	6e-06
363.15	1	0.000475	6.3e-06

System: undecane + butan-1-ol; phases: Liquid
Fixed: Pressure, kPa = 100
Property: Mass density, kg/m3 (Liquid); method: Vibrating tube method
Temperature, K	Mole fraction of undecane	Mass density, kg/m3	uncertainty
283.15	0	817.07	1.64
283.15	0.1007	801.8	1.61
283.15	0.2004	790.28	1.59
283.15	0.299	781.12	1.57
283.15	0.3981	773.6	1.55
283.15	0.5006	767.02	1.54
283.15	0.5964	761.98	1.53
283.15	0.6982	757.32	1.52
283.15	0.7979	753.51	1.52
283.15	0.9	750.22	1.51
283.15	1	747.78	1.51
288.15	0	813.32	1.63
288.15	0.1007	798.03	1.6
288.15	0.2004	786.48	1.58
288.15	0.299	777.31	1.56
288.15	0.3981	769.79	1.55
288.15	0.5006	763.23	1.53
288.15	0.5964	758.18	1.53
288.15	0.6982	753.56	1.52
288.15	0.7979	749.76	1.51
288.15	0.9	746.49	1.51
288.15	1	744.06	1.5
293.15	0	809.55	1.62
293.15	0.1007	794.24	1.59
293.15	0.2004	782.67	1.57
293.15	0.299	773.49	1.55
293.15	0.3981	765.96	1.54
293.15	0.5006	759.41	1.53
293.15	0.5964	754.38	1.52
293.15	0.6982	749.77	1.51
293.15	0.7979	746	1.5
293.15	0.9	742.75	1.5
293.15	1	740.35	1.5
298.15	0	805.76	1.61
298.15	0.1007	790.42	1.59
298.15	0.2004	778.83	1.56
298.15	0.299	769.63	1.55
298.15	0.3981	762.11	1.53
298.15	0.5006	755.57	1.52
298.15	0.5964	750.55	1.51
298.15	0.6982	745.97	1.5
298.15	0.7979	742.22	1.5
298.15	0.9	739	1.49
298.15	1	736.64	1.49
303.15	0	801.94	1.61
303.15	0.1007	786.57	1.58
303.15	0.2004	774.95	1.56
303.15	0.299	765.75	1.54
303.15	0.3981	758.22	1.52
303.15	0.5006	751.7	1.51
303.15	0.5964	746.69	1.5
303.15	0.6982	742.14	1.5
303.15	0.7979	738.42	1.49
303.15	0.9	735.23	1.48
303.15	1	732.93	1.48
308.15	0	798.09	1.6
308.15	0.1007	782.69	1.57
308.15	0.2004	771.05	1.55
308.15	0.299	761.84	1.53
308.15	0.3981	754.31	1.52
308.15	0.5006	747.8	1.5
308.15	0.5964	742.82	1.5
308.15	0.6982	738.3	1.49
308.15	0.7979	734.6	1.48
308.15	0.9	731.45	1.48
308.15	1	729.23	1.48
313.15	0	794.2	1.59
313.15	0.1007	778.77	1.56
313.15	0.2004	767.1	1.54
313.15	0.299	757.88	1.52
313.15	0.3981	750.36	1.51
313.15	0.5006	743.87	1.5
313.15	0.5964	738.91	1.49
313.15	0.6982	734.42	1.48
313.15	0.7979	730.76	1.47
313.15	0.9	727.65	1.47
313.15	1	725.53	1.47
318.15	0	790.27	1.58
318.15	0.1007	774.8	1.56
318.15	0.2004	763.11	1.53
318.15	0.299	753.88	1.51
318.15	0.3981	746.37	1.5
318.15	0.5006	739.91	1.49
318.15	0.5964	734.97	1.48
318.15	0.6982	730.51	1.47
318.15	0.7979	726.89	1.47
318.15	0.9	723.83	1.46
318.15	1	721.82	1.46
323.15	0	786.3	1.58
323.15	0.1007	770.78	1.55
323.15	0.2004	759.07	1.52
323.15	0.299	749.84	1.51
323.15	0.3981	742.34	1.49
323.15	0.5006	735.91	1.48
323.15	0.5964	731	1.47
323.15	0.6982	726.58	1.46
323.15	0.7979	722.99	1.46
323.15	0.9	719.99	1.45
323.15	1	718.11	1.45
328.15	0	782.27	1.57
328.15	0.1007	766.71	1.54
328.15	0.2004	754.97	1.52
328.15	0.299	745.75	1.5
328.15	0.3981	738.26	1.48
328.15	0.5006	731.86	1.47
328.15	0.5964	726.99	1.46
328.15	0.6982	722.61	1.46
328.15	0.7979	719.07	1.45
328.15	0.9	716.13	1.45
328.15	1	714.39	1.45
333.15	0	778.18	1.56
333.15	0.1007	762.58	1.53
333.15	0.2004	750.83	1.51
333.15	0.299	741.61	1.49
333.15	0.3981	734.14	1.48
333.15	0.5006	727.78	1.46
333.15	0.5964	722.94	1.46
333.15	0.6982	718.61	1.45
333.15	0.7979	715.12	1.44
333.15	0.9	712.24	1.44
333.15	1	710.68	1.44
338.15	0	774.03	1.55
338.15	0.1007	758.39	1.52
338.15	0.2004	746.61	1.5
338.15	0.299	737.42	1.48
338.15	0.3981	729.97	1.47
338.15	0.5006	723.65	1.46
338.15	0.5964	718.86	1.45
338.15	0.6982	714.57	1.44
338.15	0.7979	711.13	1.44
338.15	0.9	708.34	1.43
338.15	1	706.95	1.43
343.15	0	769.8	1.54
343.15	0.1007	754.12	1.51
343.15	0.2004	742.34	1.49
343.15	0.299	733.15	1.47
343.15	0.3981	725.75	1.46
343.15	0.5006	719.48	1.45
343.15	0.5964	714.72	1.44
343.15	0.6982	710.49	1.43
343.15	0.7979	707.12	1.43
343.15	0.9	704.41	1.42
343.15	1	703.22	1.42
348.15	0	765.49	1.54
348.15	0.1007	749.78	1.51
348.15	0.2004	738.01	1.48
348.15	0.299	728.84	1.47
348.15	0.3981	721.47	1.45
348.15	0.5006	715.24	1.44
348.15	0.5964	710.54	1.43
348.15	0.6982	706.38	1.42
348.15	0.7979	703.07	1.42
348.15	0.9	700.47	1.42
348.15	1	699.47	1.42
353.15	0	761.12	1.53
353.15	0.1007	745.37	1.5
353.15	0.2004	733.6	1.47
353.15	0.299	724.46	1.46
353.15	0.3981	717.14	1.44
353.15	0.5006	710.97	1.43
353.15	0.5964	706.32	1.42
353.15	0.6982	702.22	1.42
353.15	0.7979	698.99	1.41
353.15	0.9	696.51	1.41
353.15	1	695.72	1.41
358.15	0	756.64	1.52
358.15	0.1007	740.87	1.49
358.15	0.2004	729.1	1.47
358.15	0.299	720.01	1.45
358.15	0.3981	712.73	1.43
358.15	0.5006	706.63	1.42
358.15	0.5964	702.04	1.42
358.15	0.6982	698.02	1.41
358.15	0.7979	694.88	1.4
358.15	0.9	692.52	1.4
358.15	1	691.96	1.4
363.15	0	752.08	1.51
363.15	0.1007	736.28	1.48
363.15	0.2004	724.55	1.46
363.15	0.299	715.49	1.44
363.15	0.3981	708.28	1.43
363.15	0.5006	702.24	1.41
363.15	0.5964	697.72	1.41
363.15	0.6982	693.78	1.4
363.15	0.7979	690.73	1.4
363.15	0.9	688.52	1.39
363.15	1	688.18	1.39

System: undecane + butan-1-ol; phases: Liquid
Fixed: Pressure, kPa = 100
Property: Viscosity, Pa*s (Liquid); method: Falling or rolling sphere viscometry
Temperature, K	Mole fraction of undecane	Viscosity, Pa*s	uncertainty
283.15	0	0.004046	5.1e-05
283.15	0.1007	0.003124	4e-05
283.15	0.2004	0.002611	3.3e-05
283.15	0.299	0.00224	2.9e-05
283.15	0.3981	0.001939	2.5e-05
283.15	0.5006	0.001722	2.2e-05
283.15	0.5964	0.001582	2e-05
283.15	0.6982	0.001471	1.9e-05
283.15	0.7979	0.001416	1.9e-05
283.15	0.9	0.001385	1.8e-05
283.15	1	0.001371	1.8e-05
288.15	0	0.003514	4.4e-05
288.15	0.1007	0.002731	3.5e-05
288.15	0.2004	0.002294	2.9e-05
288.15	0.299	0.001978	2.5e-05
288.15	0.3981	0.001723	2.2e-05
288.15	0.5006	0.001541	2e-05
288.15	0.5964	0.001425	1.8e-05
288.15	0.6982	0.001329	1.7e-05
288.15	0.7979	0.001287	1.7e-05
288.15	0.9	0.00126	1.7e-05
288.15	1	0.001249	1.7e-05
293.15	0	0.003066	3.9e-05
293.15	0.1007	0.002398	3e-05
293.15	0.2004	0.002025	2.6e-05
293.15	0.299	0.001755	2.2e-05
293.15	0.3981	0.00154	2e-05
293.15	0.5006	0.001387	1.8e-05
293.15	0.5964	0.00129	1.7e-05
293.15	0.6982	0.001212	1.6e-05
293.15	0.7979	0.001176	1.5e-05
293.15	0.9	0.001152	1.5e-05
293.15	1	0.001145	1.5e-05
298.15	0	0.00259	3.3e-05
298.15	0.1007	0.002115	2.7e-05
298.15	0.2004	0.001795	2.3e-05
298.15	0.299	0.001564	2e-05
298.15	0.3981	0.001383	1.8e-05
298.15	0.5006	0.001254	1.6e-05
298.15	0.5964	0.001173	1.5e-05
298.15	0.6982	0.001108	1.4e-05
298.15	0.7979	0.001077	1.4e-05
298.15	0.9	0.001058	1.4e-05
298.15	1	0.001062	1.4e-05
303.15	0	0.00228	2.9e-05
303.15	0.1007	0.001871	2.4e-05
303.15	0.2004	0.001595	2e-05
303.15	0.299	0.001392	1.8e-05
303.15	0.3981	0.001248	1.6e-05
303.15	0.5006	0.001139	1.5e-05
303.15	0.5964	0.001071	1.4e-05
303.15	0.6982	0.001016	1.3e-05
303.15	0.7979	0.000991	1.3e-05
303.15	0.9	0.000975	1.3e-05
303.15	1	0.000982	1.3e-05
308.15	0	0.002015	2.5e-05
308.15	0.1007	0.001663	2.1e-05
308.15	0.2004	0.001426	1.8e-05
308.15	0.299	0.001253	1.6e-05
308.15	0.3981	0.00113	1.4e-05
308.15	0.5006	0.001038	1.3e-05
308.15	0.5964	0.000979	1.3e-05
308.15	0.6982	0.000936	1.2e-05
308.15	0.7979	0.000915	1.2e-05
308.15	0.9	0.000902	1.2e-05
308.15	1	0.00091	1.2e-05
313.15	0	0.001786	2.2e-05
313.15	0.1007	0.001483	1.9e-05
313.15	0.2004	0.001279	1.6e-05
313.15	0.299	0.001131	1.4e-05
313.15	0.3981	0.001028	1.3e-05
313.15	0.5006	0.00095	1.2e-05
313.15	0.5964	0.000901	1.2e-05
313.15	0.6982	0.000864	1.1e-05
313.15	0.7979	0.000847	1.1e-05
313.15	0.9	0.000837	1.1e-05
313.15	1	0.000847	1.1e-05
318.15	0	0.001589	2e-05
318.15	0.1007	0.001326	1.7e-05
318.15	0.2004	0.001152	1.5e-05
318.15	0.299	0.001026	1.3e-05
318.15	0.3981	0.000938	1.2e-05
318.15	0.5006	0.000882	1.1e-05
318.15	0.5964	0.000832	1.1e-05
318.15	0.6982	0.000801	1e-05
318.15	0.7979	0.000787	1e-05
318.15	0.9	0.000779	1e-05
318.15	1	0.00079	1.1e-05
323.15	0	0.001427	1.8e-05
323.15	0.1007	0.001192	1.5e-05
323.15	0.2004	0.001042	1.3e-05
323.15	0.299	0.000934	1.2e-05
323.15	0.3981	0.000858	1.1e-05
323.15	0.5006	0.000804	1e-05
323.15	0.5964	0.000771	1e-05
323.15	0.6982	0.000749	1e-05
323.15	0.7979	0.000733	1e-05
323.15	0.9	0.000727	1e-05
323.15	1	0.00074	1e-05
328.15	0	0.001278	1.6e-05
328.15	0.1007	0.001074	1.3e-05
328.15	0.2004	0.000945	1.2e-05
328.15	0.299	0.000853	1.1e-05
328.15	0.3981	0.00079	1e-05
328.15	0.5006	0.000744	1e-05
328.15	0.5964	0.000716	9e-06
328.15	0.6982	0.000693	9e-06
328.15	0.7979	0.000685	9e-06
328.15	0.9	0.00068	9e-06
328.15	1	0.000692	9e-06
333.15	0	0.001147	1.4e-05
333.15	0.1007	0.000974	1.2e-05
333.15	0.2004	0.00086	1.1e-05
333.15	0.299	0.000782	1e-05
333.15	0.3981	0.000729	9e-06
333.15	0.5006	0.00069	9e-06
333.15	0.5964	0.000667	9e-06
333.15	0.6982	0.000647	8e-06
333.15	0.7979	0.000641	8e-06
333.15	0.9	0.000638	8e-06
333.15	1	0.000651	9e-06
338.15	0	0.001032	1.3e-05
338.15	0.1007	0.000882	1.1e-05
338.15	0.2004	0.000785	1e-05
338.15	0.299	0.000719	9e-06
338.15	0.3981	0.000675	9e-06
338.15	0.5006	0.000641	8e-06
338.15	0.5964	0.000622	8e-06
338.15	0.6982	0.000606	8e-06
338.15	0.7979	0.000602	8e-06
338.15	0.9	0.000601	8e-06
338.15	1	0.000615	8e-06
343.15	0	0.000934	1.2e-05
343.15	0.1007	0.000802	1e-05
343.15	0.2004	0.00072	9e-06
343.15	0.299	0.000663	8e-06
343.15	0.3981	0.000626	8e-06
343.15	0.5006	0.000598	8e-06
343.15	0.5964	0.000582	7e-06
343.15	0.6982	0.000569	7e-06
343.15	0.7979	0.000566	7e-06
343.15	0.9	0.000567	8e-06
343.15	1	0.00058	8e-06
348.15	0	0.000842	1.1e-05
348.15	0.1007	0.000732	9e-06
348.15	0.2004	0.000662	8e-06
348.15	0.299	0.000614	8e-06
348.15	0.3981	0.000583	7e-06
348.15	0.5006	0.00056	7e-06
348.15	0.5964	0.000546	7e-06
348.15	0.6982	0.000535	7e-06
348.15	0.7979	0.000534	7e-06
348.15	0.9	0.000536	7e-06
348.15	1	0.000549	7e-06
353.15	0	0.000762	1e-05
353.15	0.1007	0.000671	8e-06
353.15	0.2004	0.000611	8e-06
353.15	0.299	0.00057	7e-06
353.15	0.3981	0.000544	7e-06
353.15	0.5006	0.000525	7e-06
353.15	0.5964	0.000514	7e-06
353.15	0.6982	0.000506	7e-06
353.15	0.7979	0.000505	7e-06
353.15	0.9	0.000508	7e-06
353.15	1	0.000522	7e-06
358.15	0	0.000693	9e-06
358.15	0.1007	0.000617	8e-06
358.15	0.2004	0.000565	7e-06
358.15	0.299	0.000531	7e-06
358.15	0.3981	0.00051	6e-06
358.15	0.5006	0.000493	6e-06
358.15	0.5964	0.000485	6e-06
358.15	0.6982	0.000477	6e-06
358.15	0.7979	0.000479	6e-06
358.15	0.9	0.000483	6e-06
358.15	1	0.000497	7e-06
363.15	0	0.000633	8e-06
363.15	0.1007	0.000569	7e-06
363.15	0.2004	0.000525	7e-06
363.15	0.299	0.000497	6e-06
363.15	0.3981	0.000479	6e-06
363.15	0.5006	0.000465	6e-06
363.15	0.5964	0.000458	6e-06
363.15	0.6982	0.000452	6e-06
363.15	0.7979	0.000455	6e-06
363.15	0.9	0.00046	6e-06
363.15	1	0.000475	6e-06

System: undecane + pentan-1-ol; phases: Liquid
Fixed: Pressure, kPa = 100
Property: Mass density, kg/m3 (Liquid); method: Vibrating tube method
Temperature, K	Mole fraction of undecane	Mass density, kg/m3	uncertainty
283.15	0	821.9	1.66
283.15	0.0999	808.13	1.63
283.15	0.2	796.68	1.61
283.15	0.3026	786.76	1.59
283.15	0.4001	778.65	1.57
283.15	0.5022	771.41	1.56
283.15	0.5976	765.49	1.55
283.15	0.6984	760.02	1.54
283.15	0.801	755.27	1.53
283.15	0.8822	751.87	1.52
283.15	1	747.78	1.51
288.15	0	818.3	1.65
288.15	0.0999	804.49	1.62
288.15	0.2	792.98	1.6
288.15	0.3026	783.04	1.58
288.15	0.4001	774.92	1.57
288.15	0.5022	767.66	1.55
288.15	0.5976	761.74	1.54
288.15	0.6984	756.3	1.53
288.15	0.801	751.55	1.52
288.15	0.8822	748.15	1.51
288.15	1	744.06	1.5
293.15	0	814.68	1.64
293.15	0.0999	800.81	1.62
293.15	0.2	789.27	1.59
293.15	0.3026	779.3	1.57
293.15	0.4001	771.17	1.56
293.15	0.5022	763.91	1.54
293.15	0.5976	757.99	1.53
293.15	0.6984	752.55	1.52
293.15	0.801	747.81	1.51
293.15	0.8822	744.41	1.51
293.15	1	740.35	1.5
298.15	0	811.03	1.64
298.15	0.0999	797.12	1.61
298.15	0.2	785.54	1.59
298.15	0.3026	775.54	1.57
298.15	0.4001	767.4	1.55
298.15	0.5022	760.13	1.54
298.15	0.5976	754.22	1.52
298.15	0.6984	748.78	1.51
298.15	0.801	744.05	1.5
298.15	0.8822	740.67	1.5
298.15	1	736.64	1.49
303.15	0	807.37	1.63
303.15	0.0999	793.4	1.6
303.15	0.2	781.78	1.58
303.15	0.3026	771.75	1.56
303.15	0.4001	763.6	1.54
303.15	0.5022	756.32	1.53
303.15	0.5976	750.42	1.52
303.15	0.6984	745	1.51
303.15	0.801	740.28	1.5
303.15	0.8822	736.92	1.49
303.15	1	732.93	1.48
308.15	0	803.67	1.62
308.15	0.0999	789.65	1.59
308.15	0.2	777.98	1.57
308.15	0.3026	767.93	1.55
308.15	0.4001	759.77	1.54
308.15	0.5022	752.5	1.52
308.15	0.5976	746.6	1.51
308.15	0.6984	741.2	1.5
308.15	0.801	736.49	1.49
308.15	0.8822	733.14	1.48
308.15	1	729.23	1.48
313.15	0	799.94	1.61
313.15	0.0999	785.86	1.59
313.15	0.2	774.15	1.56
313.15	0.3026	764.08	1.54
313.15	0.4001	755.91	1.53
313.15	0.5022	748.64	1.51
313.15	0.5976	742.76	1.5
313.15	0.6984	737.36	1.49
313.15	0.801	732.67	1.48
313.15	0.8822	729.34	1.48
313.15	1	725.53	1.47
318.15	0	796.17	1.61
318.15	0.0999	782.03	1.58
318.15	0.2	770.28	1.56
318.15	0.3026	760.19	1.54
318.15	0.4001	752.02	1.52
318.15	0.5022	744.75	1.51
318.15	0.5976	738.88	1.49
318.15	0.6984	733.51	1.48
318.15	0.801	728.83	1.47
318.15	0.8822	725.53	1.47
318.15	1	721.82	1.46
323.15	0	792.36	1.6
323.15	0.0999	778.15	1.57
323.15	0.2	766.37	1.55
323.15	0.3026	756.27	1.53
323.15	0.4001	748.09	1.51
323.15	0.5022	740.84	1.5
323.15	0.5976	734.98	1.49
323.15	0.6984	729.62	1.48
323.15	0.801	724.97	1.47
323.15	0.8822	721.69	1.46
323.15	1	718.11	1.45
328.15	0	788.5	1.59
328.15	0.0999	774.23	1.56
328.15	0.2	762.42	1.54
328.15	0.3026	752.3	1.52
328.15	0.4001	744.13	1.5
328.15	0.5022	736.88	1.49
328.15	0.5976	731.04	1.48
328.15	0.6984	725.7	1.47
328.15	0.801	721.07	1.46
328.15	0.8822	717.84	1.45
328.15	1	714.39	1.45
333.15	0	784.59	1.58
333.15	0.0999	770.26	1.56
333.15	0.2	758.42	1.53
333.15	0.3026	748.29	1.51
333.15	0.4001	740.12	1.5
333.15	0.5022	732.89	1.48
333.15	0.5976	727.07	1.47
333.15	0.6984	721.76	1.46
333.15	0.801	717.15	1.45
333.15	0.8822	713.96	1.45
333.15	1	710.68	1.44
338.15	0	780.62	1.58
338.15	0.0999	766.24	1.55
338.15	0.2	754.37	1.53
338.15	0.3026	744.23	1.51
338.15	0.4001	736.07	1.49
338.15	0.5022	728.86	1.47
338.15	0.5976	723.06	1.46
338.15	0.6984	717.77	1.45
338.15	0.801	713.2	1.44
338.15	0.8822	710.06	1.44
338.15	1	706.95	1.43
343.15	0	776.58	1.57
343.15	0.0999	762.15	1.54
343.15	0.2	750.25	1.52
343.15	0.3026	740.12	1.5
343.15	0.4001	731.98	1.48
343.15	0.5022	724.77	1.47
343.15	0.5976	719	1.46
343.15	0.6984	713.75	1.44
343.15	0.801	709.22	1.44
343.15	0.8822	706.13	1.43
343.15	1	703.22	1.42
348.15	0	772.49	1.56
348.15	0.0999	758.01	1.53
348.15	0.2	746.09	1.51
348.15	0.3026	735.95	1.49
348.15	0.4001	727.83	1.47
348.15	0.5022	720.65	1.46
348.15	0.5976	714.91	1.45
348.15	0.6984	709.7	1.44
348.15	0.801	705.21	1.43
348.15	0.8822	702.19	1.42
348.15	1	699.47	1.42
353.15	0	768.33	1.55
353.15	0.0999	753.8	1.52
353.15	0.2	741.87	1.5
353.15	0.3026	731.74	1.48
353.15	0.4001	723.64	1.46
353.15	0.5022	716.49	1.45
353.15	0.5976	710.78	1.44
353.15	0.6984	705.61	1.43
353.15	0.801	701.17	1.42
353.15	0.8822	698.22	1.41
353.15	1	695.72	1.41
358.15	0	764.08	1.54
358.15	0.0999	749.51	1.52
358.15	0.2	737.58	1.49
358.15	0.3026	727.46	1.47
358.15	0.4001	719.38	1.46
358.15	0.5022	712.26	1.44
358.15	0.5976	706.59	1.43
358.15	0.6984	701.47	1.42
358.15	0.801	697.1	1.41
358.15	0.8822	694.22	1.41
358.15	1	691.96	1.4
363.15	0	759.77	1.54
363.15	0.0999	745.17	1.51
363.15	0.2	733.23	1.48
363.15	0.3026	723.13	1.46
363.15	0.4001	715.08	1.45
363.15	0.5022	708	1.43
363.15	0.5976	702.37	1.42
363.15	0.6984	697.3	1.41
363.15	0.801	692.99	1.4
363.15	0.8822	690.22	1.4
363.15	1	688.18	1.39

System: undecane + pentan-1-ol; phases: Liquid
Fixed: Pressure, kPa = 100
Property: Viscosity, Pa*s (Liquid); method: Falling or rolling sphere viscometry
Temperature, K	Mole fraction of undecane	Viscosity, Pa*s	uncertainty
283.15	0	0.005431	7.4e-05
283.15	0.0999	0.004269	5.8e-05
283.15	0.2	0.003406	4.6e-05
283.15	0.3026	0.002731	3.7e-05
283.15	0.4001	0.00221	3e-05
283.15	0.5022	0.001884	2.5e-05
283.15	0.5976	0.001694	2.3e-05
283.15	0.6984	0.001551	2.1e-05
283.15	0.801	0.001452	1.9e-05
283.15	0.8822	0.001413	1.9e-05
283.15	1	0.001371	1.8e-05
288.15	0	0.004655	6.3e-05
288.15	0.0999	0.003679	5e-05
288.15	0.2	0.002958	4e-05
288.15	0.3026	0.00239	3.2e-05
288.15	0.4001	0.001945	2.6e-05
288.15	0.5022	0.001689	2.3e-05
288.15	0.5976	0.001535	2.1e-05
288.15	0.6984	0.001419	1.9e-05
288.15	0.801	0.001335	1.8e-05
288.15	0.8822	0.001287	1.7e-05
288.15	1	0.001249	1.7e-05
293.15	0	0.004011	5.4e-05
293.15	0.0999	0.003187	4.3e-05
293.15	0.2	0.00258	3.5e-05
293.15	0.3026	0.002103	2.8e-05
293.15	0.4001	0.001743	2.3e-05
293.15	0.5022	0.001529	2e-05
293.15	0.5976	0.001404	1.9e-05
293.15	0.6984	0.001308	1.7e-05
293.15	0.801	0.001236	1.7e-05
293.15	0.8822	0.001176	1.6e-05
293.15	1	0.001145	1.5e-05
298.15	0	0.003474	4.7e-05
298.15	0.0999	0.002777	3.8e-05
298.15	0.2	0.00226	3.1e-05
298.15	0.3026	0.001862	2.5e-05
298.15	0.4001	0.001571	2.1e-05
298.15	0.5022	0.001395	1.9e-05
298.15	0.5976	0.001295	1.7e-05
298.15	0.6984	0.001214	1.6e-05
298.15	0.801	0.001153	1.5e-05
298.15	0.8822	0.00108	1.4e-05
298.15	1	0.001062	1.4e-05
303.15	0	0.003023	4.1e-05
303.15	0.0999	0.002428	3.3e-05
303.15	0.2	0.001995	2.7e-05
303.15	0.3026	0.001656	2.2e-05
303.15	0.4001	0.001428	1.9e-05
303.15	0.5022	0.001283	1.7e-05
303.15	0.5976	0.001202	1.6e-05
303.15	0.6984	0.001095	1.5e-05
303.15	0.801	0.001026	1.4e-05
303.15	0.8822	0.000999	1.3e-05
303.15	1	0.000982	1.3e-05
308.15	0	0.002642	3.6e-05
308.15	0.0999	0.002136	2.9e-05
308.15	0.2	0.001768	2.4e-05
308.15	0.3026	0.001481	2e-05
308.15	0.4001	0.00129	1.7e-05
308.15	0.5022	0.001153	1.5e-05
308.15	0.5976	0.001062	1.4e-05
308.15	0.6984	0.000998	1.3e-05
308.15	0.801	0.000951	1.3e-05
308.15	0.8822	0.000922	1.2e-05
308.15	1	0.00091	1.2e-05
313.15	0	0.00232	3.1e-05
313.15	0.0999	0.001887	2.5e-05
313.15	0.2	0.001572	2.1e-05
313.15	0.3026	0.00133	1.8e-05
313.15	0.4001	0.00117	1.6e-05
313.15	0.5022	0.001058	1.4e-05
313.15	0.5976	0.000976	1.3e-05
313.15	0.6984	0.000924	1.2e-05
313.15	0.801	0.000881	1.2e-05
313.15	0.8822	0.000859	1.1e-05
313.15	1	0.000847	1.1e-05
318.15	0	0.002045	2.8e-05
318.15	0.0999	0.001675	2.3e-05
318.15	0.2	0.001409	1.9e-05
318.15	0.3026	0.0012	1.6e-05
318.15	0.4001	0.001065	1.4e-05
318.15	0.5022	0.000972	1.3e-05
318.15	0.5976	0.000902	1.2e-05
318.15	0.6984	0.000856	1.1e-05
318.15	0.801	0.000819	1.1e-05
318.15	0.8822	0.000801	1.1e-05
318.15	1	0.00079	1.1e-05
323.15	0	0.00181	2.4e-05
323.15	0.0999	0.001468	2e-05
323.15	0.2	0.001266	1.7e-05
323.15	0.3026	0.001087	1.5e-05
323.15	0.4001	0.000974	1.3e-05
323.15	0.5022	0.000896	1.2e-05
323.15	0.5976	0.000836	1.1e-05
323.15	0.6984	0.000796	1.1e-05
323.15	0.801	0.000764	1e-05
323.15	0.8822	0.000748	1e-05
323.15	1	0.00074	1e-05
328.15	0	0.001608	2.2e-05
328.15	0.0999	0.001336	1.8e-05
328.15	0.2	0.001142	1.5e-05
328.15	0.3026	0.000989	1.3e-05
328.15	0.4001	0.000895	1.2e-05
328.15	0.5022	0.000828	1.1e-05
328.15	0.5976	0.000776	1e-05
328.15	0.6984	0.000742	1e-05
328.15	0.801	0.000714	1e-05
328.15	0.8822	0.000702	9e-06
328.15	1	0.000692	9e-06
333.15	0	0.001434	1.9e-05
333.15	0.0999	0.0012	1.6e-05
333.15	0.2	0.001035	1.4e-05
333.15	0.3026	0.000903	1.2e-05
333.15	0.4001	0.000825	1.1e-05
333.15	0.5022	0.000767	1e-05
333.15	0.5976	0.000723	1e-05
333.15	0.6984	0.000694	9e-06
333.15	0.801	0.00067	9e-06
333.15	0.8822	0.000659	9e-06
333.15	1	0.000651	9e-06
338.15	0	0.001283	1.7e-05
338.15	0.0999	0.001082	1.5e-05
338.15	0.2	0.00094	1.3e-05
338.15	0.3026	0.000827	1.1e-05
338.15	0.4001	0.000763	1e-05
338.15	0.5022	0.000714	1e-05
338.15	0.5976	0.000675	9e-06
338.15	0.6984	0.000652	9e-06
338.15	0.801	0.00063	8e-06
338.15	0.8822	0.000621	8e-06
338.15	1	0.000615	8e-06
343.15	0	0.001152	1.5e-05
343.15	0.0999	0.000979	1.3e-05
343.15	0.2	0.000857	1.2e-05
343.15	0.3026	0.00076	1e-05
343.15	0.4001	0.000708	9e-06
343.15	0.5022	0.000666	9e-06
343.15	0.5976	0.000633	8e-06
343.15	0.6984	0.000613	8e-06
343.15	0.801	0.000594	8e-06
343.15	0.8822	0.000587	8e-06
343.15	1	0.00058	8e-06
348.15	0	0.001038	1.4e-05
348.15	0.0999	0.000889	1.2e-05
348.15	0.2	0.000784	1.1e-05
348.15	0.3026	0.000701	9e-06
348.15	0.4001	0.000659	9e-06
348.15	0.5022	0.000624	8e-06
348.15	0.5976	0.000595	8e-06
348.15	0.6984	0.000578	8e-06
348.15	0.801	0.000561	8e-06
348.15	0.8822	0.000556	7e-06
348.15	1	0.000549	7e-06
353.15	0	0.000939	1.3e-05
353.15	0.0999	0.00081	1.1e-05
353.15	0.2	0.00072	1e-05
353.15	0.3026	0.000649	9e-06
353.15	0.4001	0.000615	8e-06
353.15	0.5022	0.000585	8e-06
353.15	0.5976	0.00056	7e-06
353.15	0.6984	0.000545	7e-06
353.15	0.801	0.000531	7e-06
353.15	0.8822	0.000528	7e-06
353.15	1	0.000522	7e-06
358.15	0	0.000852	1.1e-05
358.15	0.0999	0.000744	1e-05
358.15	0.2	0.000663	9e-06
358.15	0.3026	0.000602	8e-06
358.15	0.4001	0.000577	8e-06
358.15	0.5022	0.000551	7e-06
358.15	0.5976	0.000528	7e-06
358.15	0.6984	0.000517	7e-06
358.15	0.801	0.000504	7e-06
358.15	0.8822	0.000502	7e-06
358.15	1	0.000497	7e-06
363.15	0	0.000776	1e-05
363.15	0.0999	0.00068	9e-06
363.15	0.2	0.000614	8e-06
363.15	0.3026	0.00056	7e-06
363.15	0.4001	0.000542	7e-06
363.15	0.5022	0.000519	7e-06
363.15	0.5976	0.0005	7e-06
363.15	0.6984	0.00049	7e-06
363.15	0.801	0.00048	6e-06
363.15	0.8822	0.00048	6e-06
363.15	1	0.000475	6e-06

System: undecane + hexan-1-ol; phases: Liquid
Fixed: Pressure, kPa = 100
Property: Mass density, kg/m3 (Liquid); method: Vibrating tube method
Temperature, K	Mole fraction of undecane	Mass density, kg/m3	uncertainty
283.15	0	825.94	1.67
283.15	0.1011	812.86	1.64
283.15	0.1989	802.1	1.62
283.15	0.2998	792.19	1.6
283.15	0.4001	783.5	1.58
283.15	0.4994	775.87	1.57
283.15	0.6004	768.89	1.55
283.15	0.6989	762.82	1.54
283.15	0.8001	757.18	1.53
283.15	0.8991	752.28	1.52
283.15	1	747.78	1.51
288.15	0	822.42	1.66
288.15	0.1011	809.29	1.63
288.15	0.1989	798.49	1.61
288.15	0.2998	788.53	1.59
288.15	0.4001	779.81	1.58
288.15	0.4994	772.18	1.56
288.15	0.6004	765.18	1.55
288.15	0.6989	759.1	1.53
288.15	0.8001	753.47	1.52
288.15	0.8991	748.57	1.51
288.15	1	744.06	1.5
293.15	0	818.88	1.65
293.15	0.1011	805.71	1.63
293.15	0.1989	794.85	1.6
293.15	0.2998	784.85	1.59
293.15	0.4001	776.12	1.57
293.15	0.4994	768.47	1.55
293.15	0.6004	761.46	1.54
293.15	0.6989	755.38	1.53
293.15	0.8001	749.75	1.52
293.15	0.8991	744.85	1.51
293.15	1	740.35	1.5
298.15	0	815.32	1.64
298.15	0.1011	802.1	1.62
298.15	0.1989	791.2	1.6
298.15	0.2998	781.16	1.58
298.15	0.4001	772.4	1.56
298.15	0.4994	764.75	1.55
298.15	0.6004	757.73	1.53
298.15	0.6989	751.65	1.52
298.15	0.8001	746.02	1.51
298.15	0.8991	741.12	1.5
298.15	1	736.64	1.49
303.15	0	811.74	1.64
303.15	0.1011	798.47	1.61
303.15	0.1989	787.52	1.59
303.15	0.2998	777.45	1.57
303.15	0.4001	768.67	1.55
303.15	0.4994	761.01	1.54
303.15	0.6004	753.98	1.52
303.15	0.6989	747.89	1.51
303.15	0.8001	742.27	1.5
303.15	0.8991	737.38	1.49
303.15	1	732.93	1.48
308.15	0	808.13	1.63
308.15	0.1011	794.81	1.6
308.15	0.1989	783.82	1.58
308.15	0.2998	773.71	1.56
308.15	0.4001	764.91	1.55
308.15	0.4994	757.24	1.53
308.15	0.6004	750.21	1.52
308.15	0.6989	744.12	1.5
308.15	0.8001	738.5	1.49
308.15	0.8991	733.62	1.48
308.15	1	729.23	1.48
313.15	0	804.5	1.62
313.15	0.1011	791.12	1.6
313.15	0.1989	780.08	1.58
313.15	0.2998	769.94	1.56
313.15	0.4001	761.13	1.54
313.15	0.4994	753.45	1.52
313.15	0.6004	746.41	1.51
313.15	0.6989	740.32	1.5
313.15	0.8001	734.71	1.49
313.15	0.8991	729.84	1.48
313.15	1	725.53	1.47
318.15	0	800.83	1.62
318.15	0.1011	787.39	1.59
318.15	0.1989	776.31	1.57
318.15	0.2998	766.14	1.55
318.15	0.4001	757.31	1.53
318.15	0.4994	749.63	1.52
318.15	0.6004	742.59	1.5
318.15	0.6989	736.5	1.49
318.15	0.8001	730.9	1.48
318.15	0.8991	726.05	1.47
318.15	1	721.82	1.46
323.15	0	797.12	1.61
323.15	0.1011	783.63	1.58
323.15	0.1989	772.51	1.56
323.15	0.2998	762.31	1.54
323.15	0.4001	753.47	1.52
323.15	0.4994	745.77	1.51
323.15	0.6004	738.74	1.49
323.15	0.6989	732.65	1.48
323.15	0.8001	727.06	1.47
323.15	0.8991	722.24	1.46
323.15	1	718.11	1.45
328.15	0	793.37	1.6
328.15	0.1011	779.82	1.58
328.15	0.1989	768.66	1.55
328.15	0.2998	758.44	1.53
328.15	0.4001	749.58	1.52
328.15	0.4994	741.89	1.5
328.15	0.6004	734.86	1.49
328.15	0.6989	728.77	1.47
328.15	0.8001	723.2	1.46
328.15	0.8991	718.41	1.45
328.15	1	714.39	1.45
333.15	0	789.57	1.59
333.15	0.1011	775.97	1.57
333.15	0.1989	764.78	1.55
333.15	0.2998	754.53	1.53
333.15	0.4001	745.66	1.51
333.15	0.4994	737.97	1.49
333.15	0.6004	730.93	1.48
333.15	0.6989	724.87	1.47
333.15	0.8001	719.31	1.46
333.15	0.8991	714.55	1.45
333.15	1	710.68	1.44
338.15	0	785.72	1.59
338.15	0.1011	772.08	1.56
338.15	0.1989	760.84	1.54
338.15	0.2998	750.57	1.52
338.15	0.4001	741.7	1.5
338.15	0.4994	734.01	1.48
338.15	0.6004	726.99	1.47
338.15	0.6989	720.93	1.46
338.15	0.8001	715.39	1.45
338.15	0.8991	710.68	1.44
338.15	1	706.95	1.43
343.15	0	781.83	1.58
343.15	0.1011	768.13	1.55
343.15	0.1989	756.86	1.53
343.15	0.2998	746.58	1.51
343.15	0.4001	737.7	1.49
343.15	0.4994	730.01	1.48
343.15	0.6004	723	1.46
343.15	0.6989	716.95	1.45
343.15	0.8001	711.44	1.44
343.15	0.8991	706.79	1.43
343.15	1	703.22	1.42
348.15	0	777.86	1.57
348.15	0.1011	764.12	1.54
348.15	0.1989	752.83	1.52
348.15	0.2998	742.54	1.5
348.15	0.4001	733.66	1.48
348.15	0.4994	725.98	1.47
348.15	0.6004	718.97	1.46
348.15	0.6989	712.94	1.44
348.15	0.8001	707.47	1.43
348.15	0.8991	702.87	1.42
348.15	1	699.47	1.42
353.15	0	773.86	1.56
353.15	0.1011	760.07	1.54
353.15	0.1989	748.76	1.51
353.15	0.2998	738.45	1.49
353.15	0.4001	729.57	1.48
353.15	0.4994	721.9	1.46
353.15	0.6004	714.9	1.45
353.15	0.6989	708.9	1.44
353.15	0.8001	703.47	1.42
353.15	0.8991	698.94	1.42
353.15	1	695.72	1.41
358.15	0	769.78	1.55
358.15	0.1011	755.96	1.53
358.15	0.1989	744.62	1.51
358.15	0.2998	734.31	1.49
358.15	0.4001	725.43	1.47
358.15	0.4994	717.76	1.45
358.15	0.6004	710.79	1.44
358.15	0.6989	704.82	1.43
358.15	0.8001	699.43	1.42
358.15	0.8991	694.99	1.41
358.15	1	691.96	1.4
363.15	0	765.64	1.55
363.15	0.1011	751.78	1.52
363.15	0.1989	740.43	1.5
363.15	0.2998	730.12	1.48
363.15	0.4001	721.24	1.46
363.15	0.4994	713.59	1.44
363.15	0.6004	706.64	1.43
363.15	0.6989	700.7	1.42
363.15	0.8001	695.37	1.41
363.15	0.8991	691.02	1.4
363.15	1	688.18	1.39

System: undecane + hexan-1-ol; phases: Liquid
Fixed: Pressure, kPa = 100
Property: Viscosity, Pa*s (Liquid); method: Falling or rolling sphere viscometry
Temperature, K	Mole fraction of undecane	Viscosity, Pa*s	uncertainty
283.15	0	0.007487	0.000102
283.15	0.1011	0.005655	7.8e-05
283.15	0.1989	0.004274	5.9e-05
283.15	0.2998	0.00334	4.6e-05
283.15	0.4001	0.002615	3.6e-05
283.15	0.4994	0.002198	3e-05
283.15	0.6004	0.00195	2.6e-05
283.15	0.6989	0.00172	2.3e-05
283.15	0.8001	0.001564	2.1e-05
283.15	0.8991	0.001455	1.9e-05
283.15	1	0.001371	1.8e-05
288.15	0	0.006307	8.6e-05
288.15	0.1011	0.004784	6.5e-05
288.15	0.1989	0.003651	5e-05
288.15	0.2998	0.00288	3.9e-05
288.15	0.4001	0.002322	3.1e-05
288.15	0.4994	0.002019	2.7e-05
288.15	0.6004	0.001752	2.4e-05
288.15	0.6989	0.001554	2.1e-05
288.15	0.8001	0.001419	1.9e-05
288.15	0.8991	0.001329	1.8e-05
288.15	1	0.001249	1.7e-05
293.15	0	0.005348	7.3e-05
293.15	0.1011	0.004073	5.6e-05
293.15	0.1989	0.003136	4.3e-05
293.15	0.2998	0.002505	3.4e-05
293.15	0.4001	0.002118	2.8e-05
293.15	0.4994	0.001808	2.4e-05
293.15	0.6004	0.00158	2.1e-05
293.15	0.6989	0.00141	1.9e-05
293.15	0.8001	0.001293	1.7e-05
293.15	0.8991	0.001218	1.6e-05
293.15	1	0.001145	1.5e-05
298.15	0	0.004555	6.2e-05
298.15	0.1011	0.003494	4.8e-05
298.15	0.1989	0.002719	3.7e-05
298.15	0.2998	0.002198	3e-05
298.15	0.4001	0.001886	2.5e-05
298.15	0.4994	0.001626	2.2e-05
298.15	0.6004	0.001432	1.9e-05
298.15	0.6989	0.001284	1.7e-05
298.15	0.8001	0.001182	1.6e-05
298.15	0.8991	0.001116	1.5e-05
298.15	1	0.001062	1.4e-05
303.15	0	0.003903	5.3e-05
303.15	0.1011	0.003016	4.1e-05
303.15	0.1989	0.002374	3.2e-05
303.15	0.2998	0.001952	2.6e-05
303.15	0.4001	0.001687	2.3e-05
303.15	0.4994	0.00147	2e-05
303.15	0.6004	0.001305	1.7e-05
303.15	0.6989	0.001176	1.6e-05
303.15	0.8001	0.00109	1.5e-05
303.15	0.8991	0.001031	1.4e-05
303.15	1	0.000982	1.3e-05
308.15	0	0.003361	4.6e-05
308.15	0.1011	0.00262	3.6e-05
308.15	0.1989	0.00209	2.8e-05
308.15	0.2998	0.001746	2.3e-05
308.15	0.4001	0.001517	2e-05
308.15	0.4994	0.001334	1.8e-05
308.15	0.6004	0.001193	1.6e-05
308.15	0.6989	0.00108	1.4e-05
308.15	0.8001	0.001002	1.3e-05
308.15	0.8991	0.000954	1.3e-05
308.15	1	0.00091	1.2e-05
313.15	0	0.002912	3.9e-05
313.15	0.1011	0.00229	3.1e-05
313.15	0.1989	0.001857	2.5e-05
313.15	0.2998	0.001574	2.1e-05
313.15	0.4001	0.001372	1.8e-05
313.15	0.4994	0.001226	1.6e-05
313.15	0.6004	0.001106	1.5e-05
313.15	0.6989	0.000996	1.3e-05
313.15	0.8001	0.000927	1.2e-05
313.15	0.8991	0.000886	1.2e-05
313.15	1	0.000847	1.1e-05
318.15	0	0.002538	3.4e-05
318.15	0.1011	0.00202	2.7e-05
318.15	0.1989	0.001664	2.2e-05
318.15	0.2998	0.001437	1.9e-05
318.15	0.4001	0.001245	1.7e-05
318.15	0.4994	0.0011	1.5e-05
318.15	0.6004	0.001008	1.4e-05
318.15	0.6989	0.000921	1.2e-05
318.15	0.8001	0.000861	1.2e-05
318.15	0.8991	0.000822	1.1e-05
318.15	1	0.00079	1.1e-05
323.15	0	0.002228	3e-05
323.15	0.1011	0.001799	2.4e-05
323.15	0.1989	0.001528	2e-05
323.15	0.2998	0.001301	1.7e-05
323.15	0.4001	0.001136	1.5e-05
323.15	0.4994	0.001011	1.4e-05
323.15	0.6004	0.000931	1.2e-05
323.15	0.6989	0.000853	1.1e-05
323.15	0.8001	0.000801	1.1e-05
323.15	0.8991	0.000773	1e-05
323.15	1	0.00074	1e-05
328.15	0	0.00197	2.7e-05
328.15	0.1011	0.001612	2.2e-05
328.15	0.1989	0.001374	1.8e-05
328.15	0.2998	0.00118	1.6e-05
328.15	0.4001	0.001039	1.4e-05
328.15	0.4994	0.00093	1.2e-05
328.15	0.6004	0.000862	1.2e-05
328.15	0.6989	0.000793	1.1e-05
328.15	0.8001	0.000747	1e-05
328.15	0.8991	0.000724	1e-05
328.15	1	0.000692	9e-06
333.15	0	0.001744	2.3e-05
333.15	0.1011	0.001466	2e-05
333.15	0.1989	0.00124	1.7e-05
333.15	0.2998	0.001073	1.4e-05
333.15	0.4001	0.000955	1.3e-05
333.15	0.4994	0.000859	1.1e-05
333.15	0.6004	0.000801	1.1e-05
333.15	0.6989	0.000738	1e-05
333.15	0.8001	0.000699	9e-06
333.15	0.8991	0.000681	9e-06
333.15	1	0.000651	9e-06
338.15	0	0.001553	2.1e-05
338.15	0.1011	0.001318	1.8e-05
338.15	0.1989	0.001124	1.5e-05
338.15	0.2998	0.000982	1.3e-05
338.15	0.4001	0.000878	1.2e-05
338.15	0.4994	0.000796	1.1e-05
338.15	0.6004	0.000744	1e-05
338.15	0.6989	0.000691	9e-06
338.15	0.8001	0.000656	9e-06
338.15	0.8991	0.000641	9e-06
338.15	1	0.000615	8e-06
343.15	0	0.00139	1.9e-05
343.15	0.1011	0.001189	1.6e-05
343.15	0.1989	0.001025	1.4e-05
343.15	0.2998	0.000901	1.2e-05
343.15	0.4001	0.000811	1.1e-05
343.15	0.4994	0.000739	1e-05
343.15	0.6004	0.000695	9e-06
343.15	0.6989	0.000647	9e-06
343.15	0.8001	0.000616	8e-06
343.15	0.8991	0.000604	8e-06
343.15	1	0.00058	8e-06
348.15	0	0.001255	1.7e-05
348.15	0.1011	0.001054	1.4e-05
348.15	0.1989	0.000934	1.3e-05
348.15	0.2998	0.000828	1.1e-05
348.15	0.4001	0.00075	1e-05
348.15	0.4994	0.000687	9e-06
348.15	0.6004	0.000652	9e-06
348.15	0.6989	0.000607	8e-06
348.15	0.8001	0.00058	8e-06
348.15	0.8991	0.000571	8e-06
348.15	1	0.000549	7e-06
353.15	0	0.001125	1.5e-05
353.15	0.1011	0.000981	1.3e-05
353.15	0.1989	0.000855	1.1e-05
353.15	0.2998	0.000765	1e-05
353.15	0.4001	0.000696	9e-06
353.15	0.4994	0.000642	9e-06
353.15	0.6004	0.000611	8e-06
353.15	0.6989	0.000572	8e-06
353.15	0.8001	0.000546	7e-06
353.15	0.8991	0.00054	7e-06
353.15	1	0.000522	7e-06
358.15	0	0.001018	1.4e-05
358.15	0.1011	0.000895	1.2e-05
358.15	0.1989	0.000787	1.1e-05
358.15	0.2998	0.000707	9e-06
358.15	0.4001	0.000649	9e-06
358.15	0.4994	0.0006	8e-06
358.15	0.6004	0.000573	8e-06
358.15	0.6989	0.00054	7e-06
358.15	0.8001	0.000516	7e-06
358.15	0.8991	0.000512	7e-06
358.15	1	0.000497	7e-06
363.15	0	0.000925	1.2e-05
363.15	0.1011	0.00082	1.1e-05
363.15	0.1989	0.000726	1e-05
363.15	0.2998	0.000657	9e-06
363.15	0.4001	0.000605	8e-06
363.15	0.4994	0.000562	8e-06
363.15	0.6004	0.00054	7e-06
363.15	0.6989	0.000512	7e-06
363.15	0.8001	0.00049	7e-06
363.15	0.8991	0.000487	7e-06
363.15	1	0.000475	6e-06
