Measured thermophysical data. Solubility and Solution Thermodynamics of 3-Nitrophthalonitrile in 12 Neat Solvents at Temperatures from 278.15 to 323.15 K
Source: J. Chem. Eng. Data, 2019, 10.1021/acs.jced.8b01250
Compound 1: 3-nitrophthalonitrile, C8H3N3O2, InChI=1S/C8H3N3O2/c9-4-6-2-1-3-8(11(12)13)7(6)5-10/h1-3H, purity 98.1%
Compound 2: methanol, CH4O, InChI=1S/CH4O/c1-2/h2H,1H3, purity 99.5%
Compound 3: ethanol, C2H6O, InChI=1S/C2H6O/c1-2-3/h3H,2H2,1H3, purity 99.7%
Compound 4: propan-1-ol, C3H8O, InChI=1S/C3H8O/c1-2-3-4/h4H,2-3H2,1H3, purity 99.4%
Compound 5: propan-2-ol, C3H8O, InChI=1S/C3H8O/c1-3(2)4/h3-4H,1-2H3, purity 99.7%
Compound 6: 1,2-ethanediol, C2H6O2, InChI=1S/C2H6O2/c3-1-2-4/h3-4H,1-2H2, purity 99.5%
Compound 7: acetone, C3H6O, InChI=1S/C3H6O/c1-3(2)4/h1-2H3, purity 99.7%
Compound 8: toluene, C7H8, InChI=1S/C7H8/c1-7-5-3-2-4-6-7/h2-6H,1H3, purity 99.4%
Compound 9: N-methylpyrrolidone, C5H9NO, InChI=1S/C5H9NO/c1-6-4-2-3-5(6)7/h2-4H2,1H3, purity 99.5%
Compound 10: butan-1-ol, C4H10O, InChI=1S/C4H10O/c1-2-3-4-5/h5H,2-4H2,1H3, purity 99.6%
Compound 11: ethyl acetate, C4H8O2, InChI=1S/C4H8O2/c1-3-6-4(2)5/h3H2,1-2H3, purity 99.5%
Compound 12: 2-methyl-1-propanol, C4H10O, InChI=1S/C4H10O/c1-4(2)3-5/h4-5H,3H2,1-2H3, purity 99.5%
Compound 13: water, H2O, InChI=1S/H2O/h1H2, purity 99.7%

System: 3-nitrophthalonitrile; phases: Crystal, Liquid, Air at 1 atmosphere
Property: Triple point temperature, K (Crystal); method: DSC
Triple point temperature, K	uncertainty
435.55	1.22

System: 3-nitrophthalonitrile; phases: Crystal, Liquid, Air at 1 atmosphere
Property: Molar enthalpy of transition or fusion, kJ/mol (Crystal); method: DSC
Molar enthalpy of transition or fusion, kJ/mol	uncertainty
19.2	0.81

System: 3-nitrophthalonitrile + methanol; phases: Liquid, Crystal
Fixed: Pressure, kPa = 101.2
Property: Mole fraction of 3-nitrophthalonitrile (Liquid); method: Chromatography
Temperature, K	Mole fraction of 3-nitrophthalonitrile	uncertainty
278.15	0.002028	8.9e-05
283.15	0.002403	0.000106
288.15	0.002833	0.000125
293.15	0.003324	0.000146
298.15	0.003883	0.000171
303.15	0.004517	0.000199
308.15	0.005233	0.000231
313.15	0.005974	0.000263
318.15	0.006947	0.000306
323.15	0.007963	0.000351

System: 3-nitrophthalonitrile + ethanol; phases: Liquid, Crystal
Fixed: Pressure, kPa = 101.2
Property: Mole fraction of 3-nitrophthalonitrile (Liquid); method: Chromatography
Temperature, K	Mole fraction of 3-nitrophthalonitrile	uncertainty
278.15	0.0009242	4.07e-05
283.15	0.001108	4.9e-05
288.15	0.001344	5.9e-05
293.15	0.001604	7.1e-05
298.15	0.001942	8.6e-05
303.15	0.002317	0.000102
308.15	0.002733	0.00012
313.15	0.003249	0.000143
318.15	0.003823	0.000168
323.15	0.004479	0.000197

System: 3-nitrophthalonitrile + propan-1-ol; phases: Liquid, Crystal
Fixed: Pressure, kPa = 101.2
Property: Mole fraction of 3-nitrophthalonitrile (Liquid); method: Chromatography
Temperature, K	Mole fraction of 3-nitrophthalonitrile	uncertainty
278.15	0.0007351	3.24e-05
283.15	0.0008989	3.96e-05
288.15	0.001093	4.8e-05
293.15	0.001321	5.8e-05
298.15	0.001588	7e-05
303.15	0.001886	8.3e-05
308.15	0.002262	0.0001
313.15	0.002683	0.000118
318.15	0.003171	0.00014
323.15	0.003733	0.000165

System: 3-nitrophthalonitrile + propan-2-ol; phases: Liquid, Crystal
Fixed: Pressure, kPa = 101.2
Property: Mole fraction of 3-nitrophthalonitrile (Liquid); method: Chromatography
Temperature, K	Mole fraction of 3-nitrophthalonitrile	uncertainty
278.15	0.000561	2.47e-05
283.15	0.0006811	3e-05
288.15	0.000837	3.69e-05
293.15	0.001033	4.6e-05
298.15	0.001252	5.5e-05
303.15	0.001509	6.7e-05
308.15	0.001788	7.9e-05
313.15	0.002162	9.5e-05
318.15	0.002572	0.000113
323.15	0.003049	0.000134

System: 3-nitrophthalonitrile + 1,2-ethanediol; phases: Liquid, Crystal
Fixed: Pressure, kPa = 101.2
Property: Mole fraction of 3-nitrophthalonitrile (Liquid); method: Chromatography
Temperature, K	Mole fraction of 3-nitrophthalonitrile	uncertainty
278.15	0.01314	0.00058
283.15	0.01584	0.0007
288.15	0.01896	0.00084
293.15	0.0226	0.001
298.15	0.02682	0.00118
303.15	0.0317	0.0014
308.15	0.03732	0.00164
313.15	0.04377	0.00193
318.15	0.05117	0.00225
323.15	0.05962	0.00263

System: 3-nitrophthalonitrile + acetone; phases: Liquid, Crystal
Fixed: Pressure, kPa = 101.2
Property: Mole fraction of 3-nitrophthalonitrile (Liquid); method: Chromatography
Temperature, K	Mole fraction of 3-nitrophthalonitrile	uncertainty
278.15	0.02043	0.0009
283.15	0.02419	0.00107
288.15	0.02861	0.00126
293.15	0.03381	0.00149
298.15	0.03994	0.00176
303.15	0.0472	0.00208
308.15	0.05582	0.00246
313.15	0.06608	0.00291
318.15	0.07831	0.00345
323.15	0.09289	0.00409

System: 3-nitrophthalonitrile + toluene; phases: Liquid, Crystal
Fixed: Pressure, kPa = 101.2
Property: Mole fraction of 3-nitrophthalonitrile (Liquid); method: Chromatography
Temperature, K	Mole fraction of 3-nitrophthalonitrile	uncertainty
278.15	0.000946	4.2e-05
283.15	0.001161	5.1e-05
288.15	0.001419	6.3e-05
293.15	0.001729	7.6e-05
298.15	0.002098	9.2e-05
303.15	0.002537	0.000112
308.15	0.003055	0.000135
313.15	0.003667	0.000162
318.15	0.004368	0.000193
323.15	0.005212	0.00023

System: 3-nitrophthalonitrile + N-methylpyrrolidone; phases: Liquid, Crystal
Fixed: Pressure, kPa = 101.2
Property: Mole fraction of 3-nitrophthalonitrile (Liquid); method: Chromatography
Temperature, K	Mole fraction of 3-nitrophthalonitrile	uncertainty
278.15	0.08388	0.0037
283.15	0.09358	0.00412
288.15	0.1041	0.00459
293.15	0.1154	0.00508
298.15	0.1277	0.00563
303.15	0.1408	0.0062
308.15	0.1549	0.00682
313.15	0.1699	0.00749
318.15	0.186	0.00819
323.15	0.2031	0.00895

System: 3-nitrophthalonitrile + butan-1-ol; phases: Liquid, Crystal
Fixed: Pressure, kPa = 101.2
Property: Mole fraction of 3-nitrophthalonitrile (Liquid); method: Chromatography
Temperature, K	Mole fraction of 3-nitrophthalonitrile	uncertainty
278.15	0.0004112	1.81e-05
283.15	0.0004779	2.11e-05
288.15	0.0005694	2.51e-05
293.15	0.0006859	3.02e-05
298.15	0.0008358	3.68e-05
303.15	0.001003	4.4e-05
308.15	0.001205	5.3e-05
313.15	0.001433	6.3e-05
318.15	0.001711	7.5e-05
323.15	0.002073	9.1e-05

System: 3-nitrophthalonitrile + ethyl acetate; phases: Liquid, Crystal
Fixed: Pressure, kPa = 101.2
Property: Mole fraction of 3-nitrophthalonitrile (Liquid); method: Chromatography
Temperature, K	Mole fraction of 3-nitrophthalonitrile	uncertainty
278.15	0.01784	0.00079
283.15	0.02084	0.00092
288.15	0.02424	0.00107
293.15	0.02807	0.00124
298.15	0.03238	0.00143
303.15	0.03722	0.00164
308.15	0.04264	0.00188
313.15	0.0487	0.00215
318.15	0.05547	0.00244
323.15	0.06301	0.00278

System: 3-nitrophthalonitrile + 2-methyl-1-propanol; phases: Liquid, Crystal
Fixed: Pressure, kPa = 101.2
Property: Mole fraction of 3-nitrophthalonitrile (Liquid); method: Chromatography
Temperature, K	Mole fraction of 3-nitrophthalonitrile	uncertainty
278.15	0.0003807	3.81e-05
283.15	0.0004242	4.24e-05
288.15	0.0004772	4.77e-05
293.15	0.0005517	5.52e-05
298.15	0.0006427	6.43e-05
303.15	0.0007654	7.66e-05
308.15	0.0009214	9.22e-05
313.15	0.001113	0.000111
318.15	0.001348	0.000135
323.15	0.00169	0.000169

System: 3-nitrophthalonitrile + water; phases: Liquid, Crystal
Fixed: Pressure, kPa = 101.2
Property: Mole fraction of 3-nitrophthalonitrile (Liquid); method: Chromatography
Temperature, K	Mole fraction of 3-nitrophthalonitrile	uncertainty
278.15	5.317e-05	2.34e-06
283.15	6.38e-05	2.81e-06
288.15	7.983e-05	3.52e-06
293.15	9.782e-05	4.31e-06
298.15	0.0001198	5.3e-06
303.15	0.0001458	6.4e-06
308.15	0.0001758	7.7e-06
313.15	0.0002096	9.2e-06
318.15	0.0002496	1.1e-05
323.15	0.0002978	1.31e-05
