Measured thermophysical data. Isobaric Vapor Liquid Equilibrium Data for the 1,2-Dichloroethane-1-Butanol System
Source: J. Chem. Eng. Data, 2019, 10.1021/acs.jced.9b00484
Compound 1: 1,2-dichloroethane, C2H4Cl2, InChI=1S/C2H4Cl2/c3-1-2-4/h1-2H2
Compound 2: butan-1-ol, C4H10O, InChI=1S/C4H10O/c1-2-3-4-5/h5H,2-4H2,1H3

System: 1,2-dichloroethane; phases: Liquid, Gas
Property: Boiling temperature at pressure P, K (Liquid); method: Ebulliometric method (Recirculating still)
Pressure, kPa	Boiling temperature at pressure P, K	uncertainty
101.35	357.25	0.27
86.69	352.05	0.27
80.02	349.45	0.29
73.35	346.55	0.29
66.68	343.85	0.31
60.01	340.45	0.33

System: butan-1-ol; phases: Liquid, Gas
Property: Boiling temperature at pressure P, K (Liquid); method: Ebulliometric method (Recirculating still)
Pressure, kPa	Boiling temperature at pressure P, K	uncertainty
101.4	390.65	0.25
86.71	386.45	0.25
80.04	384.35	0.26
73.37	382.05	0.27
66.66	379.65	0.28
59.97	376.95	0.29

System: 1,2-dichloroethane + butan-1-ol; phases: Liquid, Gas
Property: Boiling temperature at pressure P, K (Liquid); method: Ebulliometric method (Recirculating still)
Pressure, kPa	Mole fraction of 1,2-dichloroethane	Boiling temperature at pressure P, K	uncertainty
101.35	1	357.25	0.3
101.33	0.912	357.85	0.38
101.3	0.815	358.85	0.42
101.3	0.712	360.15	0.47
101.37	0.605	361.75	0.46
101.35	0.503	362.95	0.47
101.32	0.39	364.75	0.63
100.95	0.291	367.25	1.17
101	0.14	375.2	1.49
101.15	0.088	378.95	2.92
101.4	0	390.65	0.28
86.69	1	352.05	0.3
86.61	0.912	352.65	0.39
86.62	0.815	353.85	0.44
86.66	0.712	355.15	0.46
86.62	0.605	356.75	0.5
86.67	0.503	358.35	0.45
86.61	0.39	359.55	0.55
86.63	0.291	362.15	1.26
86.62	0.14	370.85	1.63
86.69	0.088	375.35	2.99
86.71	0	386.45	0.27
80.02	1	349.45	0.32
80.02	0.912	350.35	0.41
79.99	0.815	351.35	0.44
79.94	0.712	352.65	0.44
79.91	0.599	353.95	0.44
79.99	0.503	355.15	0.51
79.94	0.39	357.15	0.63
79.96	0.291	359.65	1.26
79.94	0.14	368.55	1.64
80.05	0.088	372.85	3.03
80.04	0	384.35	0.29
73.35	1	346.55	0.32
73.34	0.912	347.65	0.42
73.27	0.815	348.45	0.44
73.35	0.712	349.95	0.47
73.37	0.599	351.35	0.49
73.35	0.503	352.95	0.52
73.37	0.39	354.75	0.67
73.29	0.291	357.85	1.14
73.33	0.14	365.1	1.53
73.28	0.088	370.25	3.22
73.37	0	382.05	0.29
66.68	1	343.85	0.33
66.68	0.912	344.85	0.43
66.63	0.815	345.75	0.43
66.71	0.712	346.95	0.47
66.7	0.599	348.55	0.51
66.71	0.503	350.05	0.54
66.66	0.39	351.95	0.74
66.62	0.291	355.55	1.25
66.65	0.14	363.4	1.5
66.61	0.088	367.95	3.13
66.66	0	379.65	0.3
60.01	1	340.45	0.35
60.01	0.912	341.45	0.44
60.04	0.815	342.35	0.46
59.99	0.712	343.85	0.49
60	0.599	345.25	0.49
60.04	0.503	346.75	0.56
59.99	0.39	348.85	0.8
59.95	0.291	352.85	1.27
60.04	0.14	360.65	1.5
59.97	0.088	364.65	3.11
59.97	0	376.95	0.31
