Measured thermophysical data. Vapor Phase PvTx Measurements of Binary Blends of trans-1-Chloro-3,3,3-trifluoroprop-1-ene + Isobutane and cis-1,3,3,3-Tetrafluoroprop-1-ene + Isobutane
Source: J. Chem. Eng. Data, 2018, 10.1021/acs.jced.7b00769
Compound 1: 2-methylpropane, C4H10, InChI=1S/C4H10/c1-4(2)3/h4H,1-3H3, purity 99.9%
Compound 2: (E)-1-chloro-3,3,3-trifluoroprop-1-ene, C3H2ClF3, InChI=1S/C3H2ClF3/c4-2-1-3(5,6)7/h1-2H/b2-1+, purity 99.5%
Compound 3: (Z)-1,3,3,3-tetrafluoro-1-propene, C3H2F4, InChI=1S/C3H2F4/c4-2-1-3(5,6)7/h1-2H/b2-1-, purity 99%

System: (E)-1-chloro-3,3,3-trifluoroprop-1-ene + 2-methylpropane; phases: Gas
Property: Specific volume, m3/kg (Gas); method: ISOCHOR
Mole fraction of 2-methylpropane	Temperature, K	Pressure, kPa	Specific volume, m3/kg	uncertainty
0.125	303.15	113.3	0.174	0.0015
0.125	308.15	115.4	0.1741	0.0014
0.125	313.15	117.5	0.1741	0.0028
0.125	318.15	119.6	0.1742	0.0012
0.125	323.15	121.8	0.1742	0.0032
0.125	328.15	123.8	0.1742	0.0025
0.125	333.15	125.8	0.1743	0.0021
0.125	338.15	128.2	0.1743	0.002
0.125	343.15	130.2	0.1744	0.0025
0.125	348.15	132.2	0.1744	0.0032
0.125	353.15	134.4	0.1744	0.0015
0.125	358.15	136.3	0.1745	0.0023
0.125	363.15	138.3	0.1745	0.0064
0.125	368.15	140.4	0.1745	0.0015
0.125	373.15	142.3	0.1746	0.0015
0.125	378.15	144.4	0.1746	0.0068
0.125	383.15	146.5	0.1747	0.0157
0.453	313.15	197.4	0.1261	0.0027
0.453	318.15	200.9	0.1262	0.0027
0.453	323.15	204.5	0.1262	0.0027
0.453	328.15	208	0.1262	0.0027
0.453	333.15	211.4	0.1262	0.0027
0.453	338.15	214.9	0.1263	0.0027
0.453	343.15	218.5	0.1263	0.0027
0.453	348.15	222	0.1263	0.0027
0.453	353.15	225.5	0.1264	0.0027
0.453	358.15	229	0.1264	0.0027
0.453	363.15	232.1	0.1264	0.0027
0.453	368.15	235.6	0.1264	0.0027
0.453	373.15	239.1	0.1265	0.0027
0.453	378.15	242.6	0.1265	0.0027
0.453	383.15	246.4	0.1265	0.0027
0.644	338.15	576.1	0.0499	0.0016
0.644	343.15	587.5	0.0499	0.0016
0.644	348.15	598.7	0.0499	0.0016
0.644	353.15	609.8	0.0499	0.0016
0.644	358.15	620.8	0.0499	0.0016
0.644	363.15	631.1	0.05	0.0016
0.644	368.15	642.6	0.05	0.0015
0.644	373.15	653.2	0.05	0.0015
0.644	378.15	664.1	0.05	0.0015
0.644	383.15	675	0.05	0.0015
0.746	318.15	340.9	0.0926	0.0013
0.746	323.15	347.6	0.0926	0.0012
0.746	328.15	353.9	0.0926	0.0012
0.746	333.15	360.6	0.0926	0.0007
0.746	338.15	366.9	0.0926	0.0007
0.746	343.15	373.2	0.0927	0.0007
0.746	348.15	379.5	0.0927	0.0007
0.746	353.15	385.8	0.0927	0.0007
0.746	358.15	391.8	0.0927	0.0007
0.746	363.15	398.1	0.0927	0.0007
0.746	368.15	404.2	0.0928	0.0007
0.746	373.15	410.7	0.0928	0.0007
0.746	378.15	416.9	0.0928	0.0007
0.746	383.15	423.2	0.0928	0.0007
0.564	303.15	186.5	0.1429	0.0009
0.564	308.15	190.1	0.1429	0.0027
0.564	313.15	193.7	0.143	0.0027
0.564	318.15	197.5	0.143	0.0027
0.564	323.15	200.9	0.143	0.0027
0.564	328.15	204.3	0.143	0.0027
0.564	333.15	207.8	0.1431	0.0027
0.564	338.15	211.1	0.1431	0.0027
0.564	343.15	214.6	0.1431	0.0027
0.564	348.15	218	0.1432	0.0027
0.564	353.15	221.4	0.1432	0.0027
0.564	358.15	224.6	0.1432	0.0027
0.564	363.15	228.1	0.1433	0.0027
0.564	368.15	231.5	0.1433	0.0027
0.564	373.15	234.8	0.1433	0.0027
0.564	378.15	238.2	0.1434	0.0027
0.564	383.15	241.7	0.1434	0.0027
0.865	333.15	648.1	0.0535	0.0016
0.865	338.15	661.4	0.0535	0.0016
0.865	343.15	674.5	0.0536	0.0016
0.865	348.15	687.5	0.0536	0.0016
0.865	353.15	700.5	0.0536	0.0016
0.865	358.15	713.3	0.0536	0.0016
0.865	363.15	726.1	0.0536	0.0016
0.865	368.15	738.7	0.0536	0.0016
0.865	373.15	751.4	0.0536	0.0016
0.865	378.15	763.9	0.0536	0.0016
0.865	383.15	776.5	0.0536	0.0016

System: (Z)-1,3,3,3-tetrafluoro-1-propene + 2-methylpropane; phases: Gas
Property: Specific volume, m3/kg (Gas); method: ISOCHOR
Mole fraction of 2-methylpropane	Temperature, K	Pressure, kPa	Specific volume, m3/kg	uncertainty
0.118	303.15	145.9	0.152	0.0022
0.118	308.15	148.7	0.152	0.0026
0.118	313.15	151.4	0.1521	0.0021
0.118	318.15	154	0.1521	0.0007
0.118	323.15	156.8	0.1521	0.0015
0.118	328.15	159.4	0.1522	0.0007
0.118	333.15	162	0.1522	0.0013
0.118	338.15	164.6	0.1522	0.0008
0.118	343.15	167.2	0.1523	0.0009
0.118	348.15	169.8	0.1523	0.0011
0.118	353.15	172.5	0.1523	0.003
0.118	358.15	175.1	0.1524	0.001
0.118	363.15	177.7	0.1524	0.0021
0.118	368.15	180.3	0.1524	0.0011
0.118	373.15	182.9	0.1525	0.0012
0.118	378.15	185.5	0.1525	0.0026
0.118	383.15	188.1	0.1525	0.0026
0.222	303.15	155.7	0.1514	0.002
0.222	308.15	158.6	0.1514	0.0006
0.222	313.15	161.5	0.1515	0.0007
0.222	318.15	164.3	0.1515	0.0008
0.222	323.15	167.2	0.1515	0.0007
0.222	328.15	170	0.1516	0.0013
0.222	333.15	172.7	0.1516	0.0006
0.222	338.15	175.4	0.1516	0.0012
0.222	343.15	178.2	0.1517	0.0014
0.222	348.15	180.8	0.1517	0.0007
0.222	353.15	183.7	0.1517	0.0006
0.222	358.15	186.5	0.1518	0.0006
0.222	363.15	189.4	0.1518	0.0006
0.222	368.15	192.1	0.1518	0.0006
0.222	373.15	194.9	0.1519	0.0006
0.222	378.15	197.7	0.1519	0.0006
0.222	383.15	200.5	0.1519	0.0007
0.51	303.15	213.5	0.1286	0.0012
0.51	308.15	217.4	0.1286	0.0012
0.51	313.15	221.3	0.1286	0.0012
0.51	318.15	225.2	0.1287	0.0012
0.51	323.15	229.2	0.1287	0.0012
0.51	328.15	233.1	0.1287	0.0012
0.51	333.15	237	0.1287	0.0012
0.51	338.15	240.9	0.1288	0.0012
0.51	343.15	244.7	0.1288	0.0012
0.51	348.15	248.6	0.1288	0.0011
0.51	353.15	252.4	0.1288	0.0011
0.51	358.15	256.3	0.1289	0.0011
0.51	363.15	260.1	0.1289	0.0011
0.51	368.15	263.9	0.1289	0.0011
0.51	373.15	267.8	0.129	0.0011
0.51	378.15	271.7	0.129	0.0011
0.51	383.15	275.5	0.129	0.0011
0.658	313.15	398.1	0.0757	0.0009
0.658	318.15	406.6	0.0758	0.004
0.658	323.15	414.5	0.0758	0.004
0.658	328.15	423.1	0.0758	0.0026
0.658	333.15	430.7	0.0758	0.0041
0.658	338.15	438.4	0.0758	0.0041
0.658	343.15	446	0.0758	0.0041
0.658	348.15	453.6	0.0759	0.004
0.658	353.15	461.2	0.0759	0.0023
0.658	358.15	468.5	0.0759	0.0041
0.658	363.15	476	0.0759	0.0041
0.658	368.15	483.4	0.0759	0.0041
0.658	373.15	490.9	0.0759	0.0059
0.658	378.15	498.2	0.076	0.004
0.658	383.15	505.8	0.076	0.0008
0.427	303.15	206.5	0.127	0.0012
0.427	308.15	210.5	0.127	0.0012
0.427	313.15	214.4	0.1271	0.0012
0.427	318.15	218.3	0.1271	0.0012
0.427	323.15	222.2	0.1271	0.0012
0.427	328.15	226	0.1271	0.0012
0.427	333.15	229.8	0.1272	0.0012
0.427	338.15	233.6	0.1272	0.0012
0.427	343.15	237.3	0.1272	0.0012
0.427	348.15	241.1	0.1272	0.0011
0.427	353.15	244.7	0.1273	0.0011
0.427	358.15	248.6	0.1273	0.0011
0.427	363.15	252.3	0.1273	0.0011
0.427	368.15	256	0.1274	0.0011
0.427	373.15	259.8	0.1274	0.0011
0.427	378.15	263.6	0.1274	0.0011
0.427	383.15	267.4	0.1274	0.0011
0.725	318.15	362.3	0.0906	0.0047
0.725	323.15	369.1	0.0906	0.004
0.725	328.15	375.8	0.0906	0.004
0.725	333.15	382.5	0.0907	0.0041
0.725	338.15	389.1	0.0907	0.0041
0.725	343.15	395.8	0.0907	0.0041
0.725	348.15	402.5	0.0907	0.0054
0.725	353.15	409.1	0.0907	0.0028
0.725	358.15	415.6	0.0908	0.0023
0.725	363.15	422.1	0.0908	0.0041
0.725	368.15	428.6	0.0908	0.0041
0.725	373.15	435.2	0.0908	0.0041
0.725	378.15	441.7	0.0908	0.0059
0.725	383.15	448.3	0.0909	0.0025
