Measured thermophysical data. Measurement and Correlation of Isothermal Binary Vapor Liquid Equilibrium for Diethyl Carbonate + Isooctane/n-Heptane/Toluene Systems
Source: J. Chem. Eng. Data, 2017, 10.1021/acs.jced.7b00236
Compound 1: 2,2,4-trimethylpentane, C8H18, InChI=1S/C8H18/c1-7(2)6-8(3,4)5/h7H,6H2,1-5H3, purity 99.8%
Compound 2: heptane, C7H16, InChI=1S/C7H16/c1-3-5-7-6-4-2/h3-7H2,1-2H3, purity 99.5%
Compound 3: toluene, C7H8, InChI=1S/C7H8/c1-7-5-3-2-4-6-7/h2-6H,1H3, purity 99.7%
Compound 4: diethyl carbonate, C5H10O3, InChI=1S/C5H10O3/c1-3-7-5(6)8-4-2/h3-4H2,1-2H3, purity 99.5%

System: 2,2,4-trimethylpentane; phases: Liquid, Gas
Property: Vapor or sublimation pressure, kPa (Liquid); method: Ebulliometric method (Recirculating still)
Temperature, K	Vapor or sublimation pressure, kPa	uncertainty
303.15	8.33	0.14
308.15	10.44	0.14
313.15	12.97	0.14
318.15	15.98	0.15
323.15	19.54	0.15

System: heptane; phases: Liquid, Gas
Property: Vapor or sublimation pressure, kPa (Liquid); method: Ebulliometric method (Recirculating still)
Temperature, K	Vapor or sublimation pressure, kPa	uncertainty
303.15	7.79	0.14
308.15	9.85	0.14
313.15	12.34	0.14
318.15	15.33	0.15
323.15	18.9	0.15

System: toluene; phases: Liquid, Gas
Property: Vapor or sublimation pressure, kPa (Liquid); method: Ebulliometric method (Recirculating still)
Temperature, K	Vapor or sublimation pressure, kPa	uncertainty
303.15	4.87	0.14
308.15	6.32	0.14
313.15	7.78	0.14
318.15	9.89	0.14
323.15	12.27	0.14

System: diethyl carbonate; phases: Liquid, Gas
Property: Vapor or sublimation pressure, kPa (Liquid); method: Ebulliometric method (Recirculating still)
Temperature, K	Vapor or sublimation pressure, kPa	uncertainty
303.15	1.95	0.14
308.15	2.61	0.14
313.15	3.43	0.14
318.15	4.46	0.14
323.15	5.75	0.14
303.15	1.99	0.14
308.15	2.65	0.14
313.15	3.45	0.14
318.15	4.51	0.14
323.15	5.83	0.14

System: 2,2,4-trimethylpentane + diethyl carbonate; phases: Liquid, Gas
Property: Vapor or sublimation pressure, kPa (Liquid); method: Ebulliometric method (Recirculating still)
Temperature, K	Mole fraction of 2,2,4-trimethylpentane	Vapor or sublimation pressure, kPa	uncertainty
303.15	0	1.95	0.6
308.15	0	2.61	0.6
313.15	0	3.43	0.6
318.15	0	4.46	0.6
323.15	0	5.75	0.6
303.15	0.1002	3.98	0.6
308.15	0.1002	5.3	0.6
313.15	0.1002	6.63	0.61
318.15	0.1002	8.35	0.61
323.15	0.1002	10.47	0.61
308.15	0.2001	6.49	0.6
303.15	0.2001	5.17	0.6
313.15	0.2001	8.21	0.6
318.15	0.2001	10.33	0.61
323.15	0.2001	12.72	0.61
313.15	0.2981	9.02	0.6
303.15	0.2981	5.83	0.6
318.15	0.2981	11.27	0.61
308.15	0.2981	7.43	0.6
323.15	0.2981	14.05	0.61
308.15	0.4	7.69	0.6
313.15	0.4	10.07	0.61
318.15	0.4	12.58	0.61
303.15	0.4	6.09	0.6
323.15	0.4	15.23	0.61
313.15	0.5	10.47	0.61
308.15	0.5	8.22	0.6
303.15	0.5	6.49	0.6
318.15	0.5	12.85	0.61
323.15	0.5	16.03	0.61
308.15	0.5988	8.62	0.6
313.15	0.5988	10.87	0.61
318.15	0.5988	13.85	0.61
303.15	0.5988	7.03	0.6
323.15	0.5988	16.77	0.61
318.15	0.7003	14.43	0.61
303.15	0.7003	7.53	0.6
308.15	0.7003	9.12	0.6
313.15	0.7003	11.78	0.61
323.15	0.7003	17.68	0.61
318.15	0.8012	14.96	0.61
313.15	0.8012	11.94	0.61
308.15	0.8012	9.29	0.6
303.15	0.8012	7.7	0.6
323.15	0.8012	18.4	0.61
303.15	0.8988	7.79	0.6
308.15	0.8988	9.91	0.6
318.15	0.8988	15.38	0.61
313.15	0.8988	12.47	0.61
323.15	0.8988	19.35	0.61
318.15	1	15.98	0.61
313.15	1	12.97	0.61
303.15	1	8.33	0.6
308.15	1	10.44	0.61
323.15	1	19.54	0.61

System: heptane + diethyl carbonate; phases: Liquid, Gas
Property: Vapor or sublimation pressure, kPa (Liquid); method: Ebulliometric method (Recirculating still)
Temperature, K	Mole fraction of heptane	Vapor or sublimation pressure, kPa	uncertainty
303.15	0	1.95	0.6
303.15	0.1004	3.84	0.6
303.15	0.2	4.64	0.6
303.15	0.3003	5.3	0.6
303.15	0.4	5.83	0.6
303.15	0.5	6.23	0.6
303.15	0.5993	6.36	0.6
303.15	0.6996	6.76	0.6
303.15	0.8	7.02	0.6
303.15	0.899	7.29	0.6
303.15	1	7.79	0.6
308.15	0	2.61	0.6
308.15	0.1004	4.9	0.6
308.15	0.2	5.96	0.6
308.15	0.3003	6.89	0.6
308.15	0.4	7.42	0.6
308.15	0.5	8.08	0.6
308.15	0.5993	8.21	0.6
308.15	0.6996	8.61	0.6
308.15	0.8	9.01	0.6
308.15	0.899	9.41	0.6
308.15	1	9.85	0.6
313.15	0	3.43	0.6
313.15	0.1004	6.23	0.6
313.15	0.2	7.42	0.6
313.15	0.3003	8.88	0.6
313.15	0.4	9.41	0.6
313.15	0.5	9.94	0.6
313.15	0.5993	10.47	0.61
313.15	0.6996	10.73	0.61
313.15	0.8	11.53	0.61
313.15	0.899	11.66	0.61
313.15	1	12.34	0.61
318.15	0	4.46	0.6
318.15	0.1004	7.82	0.61
318.15	0.2	9.67	0.61
318.15	0.3003	10.87	0.61
318.15	0.4	11.93	0.61
318.15	0.5	12.59	0.61
318.15	0.5993	13.12	0.61
318.15	0.6996	13.65	0.61
318.15	0.8	14.31	0.61
318.15	0.899	14.84	0.61
318.15	1	15.33	0.61
323.15	0	5.75	0.6
323.15	0.1004	9.67	0.61
323.15	0.2	12.06	0.61
323.15	0.3003	13.65	0.61
323.15	0.4	14.71	0.61
323.15	0.5	15.64	0.61
323.15	0.5993	16.16	0.61
323.15	0.6996	16.96	0.61
323.15	0.8	17.49	0.61
323.15	0.899	18.28	0.61
323.15	1	18.9	0.61

System: toluene + diethyl carbonate; phases: Liquid, Gas
Property: Vapor or sublimation pressure, kPa (Liquid); method: Ebulliometric method (Recirculating still)
Temperature, K	Mole fraction of toluene	Vapor or sublimation pressure, kPa	uncertainty
303.15	0	1.99	0.6
303.15	0.1002	3.03	0.6
303.15	0.2005	3.49	0.6
303.15	0.3021	3.77	0.6
303.15	0.3958	3.98	0.6
303.15	0.5071	4.27	0.6
303.15	0.5996	4.37	0.6
303.15	0.7	4.37	0.6
303.15	0.7999	4.66	0.6
303.15	0.8987	4.58	0.6
303.15	1	4.87	0.6
308.15	0	2.65	0.6
308.15	0.1002	3.98	0.6
308.15	0.2005	4.41	0.6
308.15	0.3021	5.04	0.6
308.15	0.3958	5.33	0.6
308.15	0.5071	5.43	0.6
308.15	0.5996	5.7	0.6
308.15	0.7	5.96	0.6
308.15	0.7999	5.93	0.6
308.15	0.8987	6.17	0.6
308.15	1	6.32	0.6
313.15	0	3.45	0.6
313.15	0.1002	5.03	0.6
313.15	0.2005	5.81	0.6
313.15	0.3021	6.15	0.6
313.15	0.3958	6.6	0.6
313.15	0.5071	6.76	0.6
313.15	0.5996	7.02	0.6
313.15	0.7	7.28	0.6
313.15	0.7999	7.53	0.6
313.15	0.8987	7.5	0.6
313.15	1	7.78	0.6
318.15	0	4.51	0.6
318.15	0.1002	6.36	0.6
318.15	0.2005	7.41	0.6
318.15	0.3021	8.01	0.6
318.15	0.3958	8.48	0.6
318.15	0.5071	8.77	0.6
318.15	0.5996	9.14	0.6
318.15	0.7	9.4	0.6
318.15	0.7999	9.73	0.6
318.15	0.8987	9.62	0.6
318.15	1	9.89	0.6
323.15	0	5.83	0.6
323.15	0.1002	8.05	0.6
323.15	0.2005	9.32	0.6
323.15	0.3021	10.22	0.6
323.15	0.3958	10.34	0.6
323.15	0.5071	11.16	0.61
323.15	0.5996	11.32	0.61
323.15	0.7	11.79	0.61
323.15	0.7999	11.86	0.61
323.15	0.8987	12.1	0.61
323.15	1	12.27	0.61
