Measured thermophysical data. Experimental Data of Citric Acid Extraction from Aqueous Solution with 1-Decanol by Using Liquid-Liquid Equilibrium
Source: J. Chem. Eng. Data, 2018, 10.1021/acs.jced.7b01135
Compound 1: citric acid, C6H8O7, InChI=1S/C6H8O7/c7-3(8)1-6(13,5(11)12)2-4(9)10/h13H,1-2H2,(H,7,8)(H,9,10)(H,11,12), purity 99%
Compound 2: decan-1-ol, C10H22O, InChI=1S/C10H22O/c1-2-3-4-5-6-7-8-9-10-11/h11H,2-10H2,1H3, purity 99%
Compound 3: water, H2O, InChI=1S/H2O/h1H2, purity 99.9%

System: decan-1-ol; phases: Liquid
Property: Mass density, kg/m3 (Liquid); method: Pycnometric method
Temperature, K	Pressure, kPa	Mass density, kg/m3	uncertainty
298.2	101.325	826.86	2.04

System: decan-1-ol; phases: Liquid
Property: Refractive index (Na D-line) (Liquid); method: Standard Abbe refractometry
Temperature, K	Pressure, kPa	Refractive index (Na D-line)	uncertainty
298.2	101.325	1.4346	0.012

System: water; phases: Liquid
Property: Mass density, kg/m3 (Liquid); method: Pycnometric method
Temperature, K	Pressure, kPa	Mass density, kg/m3	uncertainty
298.2	101.325	997.09	2.04

System: water; phases: Liquid
Property: Refractive index (Na D-line) (Liquid); method: Standard Abbe refractometry
Temperature, K	Pressure, kPa	Refractive index (Na D-line)	uncertainty
298.2	101.325	1.3324	0.012

System: citric acid + water; phases: Liquid
Property: Mass density, kg/m3 (Liquid); method: Pycnometric method
Mass fraction of citric acid	Temperature, K	Pressure, kPa	Mass density, kg/m3	uncertainty
0.2	298.2	101.3	1085.86	2.05

System: citric acid + water; phases: Liquid
Property: Refractive index (Na D-line) (Liquid); method: Standard Abbe refractometry
Mass fraction of citric acid	Temperature, K	Pressure, kPa	Refractive index (Na D-line)	uncertainty
0.2	298.2	101.3	1.356	0.012

System: citric acid + decan-1-ol + water; phases: Liquid
Fixed: Pressure, kPa = 101.3
Property: Refractive index (Na D-line) (Liquid); method: Standard Abbe refractometry
Temperature, K	Mass fraction of water	Mass fraction of citric acid	Refractive index (Na D-line)	uncertainty
298.2	0.9975	0	1.33545	0.012
298.2	0.8911	0.099	1.34548	0.0127
298.2	0.7843	0.1961	1.35888	0.01215
298.2	0.6813	0.292	1.37352	0.01211
298.2	0.5808	0.3872	1.38698	0.01242
298.2	0.4808	0.4808	1.39899	0.01201
298.2	0.3733	0.5818	1.41218	0.01201
298.2	0.2484	0.7019	1.42812	0.01201
308.2	0.9938	0	1.33463	0.012
308.2	0.8878	0.0986	1.34458	0.0125
308.2	0.7814	0.1954	1.35728	0.01237
308.2	0.6788	0.2909	1.37153	0.01238
308.2	0.5787	0.3858	1.38368	0.01203
308.2	0.479	0.479	1.39713	0.01201
308.2	0.3574	0.5932	1.41101	0.01201
308.2	0.2418	0.7062	1.42531	0.01237
318.2	0.9901	0	1.33317	0.012
318.2	0.8845	0.0983	1.34362	0.0121
318.2	0.7786	0.1946	1.35487	0.01262
318.2	0.6763	0.2899	1.36951	0.01237
318.2	0.5766	0.3844	1.38199	0.01266
318.2	0.4773	0.4773	1.39679	0.01818
318.2	0.3786	0.5703	1.40713	0.01202
318.2	0.2461	0.6973	1.42371	0.01229
328.2	0.9864	0	1.33224	0.012
328.2	0.8813	0.0979	1.34212	0.0121
328.2	0.7758	0.1939	1.35321	0.01266
328.2	0.6739	0.2888	1.36727	0.01201
328.2	0.5746	0.3831	1.38091	0.01202
328.2	0.4756	0.4756	1.39476	0.01201
328.2	0.3611	0.583	1.40744	0.01203
328.2	0.2441	0.6961	1.42143	0.01201

System: citric acid + decan-1-ol + water; phases: Liquid mixture 1, Liquid mixture 2
Fixed: Pressure, kPa = 101.3
Property: Mass fraction of citric acid (Liquid mixture 1); method: Titration method
Temperature, K	Mass fraction of water	Mass fraction of citric acid	uncertainty
298.2	0.9975	0	
298.2	0.8911	0.099	0.0165
298.2	0.7843	0.1961	0.0172
298.2	0.6813	0.292	0.0184
298.2	0.5808	0.3872	0.0198
298.2	0.4808	0.4808	0.0213
298.2	0.3733	0.5818	0.0204
298.2	0.2484	0.7019	0.0187
308.2	0.9938	0	
308.2	0.8878	0.0986	0.0165
308.2	0.7814	0.1954	0.0172
308.2	0.6788	0.2909	0.0184
308.2	0.5787	0.3858	0.0198
308.2	0.479	0.479	0.0213
308.2	0.3574	0.5932	0.0202
308.2	0.2418	0.7062	0.0187
318.2	0.9901	0	
318.2	0.8845	0.0983	0.0165
318.2	0.7786	0.1946	0.0172
318.2	0.6763	0.2899	0.0184
318.2	0.5766	0.3844	0.0197
318.2	0.4773	0.4773	0.0213
318.2	0.3786	0.5703	0.0205
318.2	0.2461	0.6973	0.0187
328.2	0.9864	0	
328.2	0.8813	0.0979	0.0165
328.2	0.7758	0.1939	0.0172
328.2	0.6739	0.2888	0.0184
328.2	0.5746	0.3831	0.0197
328.2	0.4756	0.4756	0.0212
328.2	0.3611	0.583	0.0203
328.2	0.2441	0.6961	0.0188

System: citric acid + decan-1-ol + water; phases: Liquid mixture 1, Liquid mixture 2
Fixed: Pressure, kPa = 101.3
Property: Mass fraction of decan-1-ol (Liquid mixture 1); method: Titration method
Property: Mass fraction of decan-1-ol (Liquid mixture 2); method: Titration method
Property: Mass fraction of citric acid (Liquid mixture 2); method: Titration method
Temperature, K	Mass fraction of citric acid	Mass fraction of decan-1-ol	uncertainty	Mass fraction of decan-1-ol	uncertainty	Mass fraction of citric acid	uncertainty
298.2	0.031	0.936	0.0181	0.0237	0.012	0.177	
318.2	0.1296	0.8135	0.0195	0.0679	0.0127	0.6394	
328.2	0.0234	0.9332	0.0181	0.0359	0.012	0.2064	
298.2	0.0553	0.9087	0.0182	0.028	0.012	0.2882	
328.2	0.0443	0.9099	0.0184	0.0401	0.0121	0.3641	
328.2	0.055	0.8967	0.0185	0.0468	0.0121	0.4154	
328.2	0.0811	0.8673	0.0187	0.0537	0.0121	0.5437	
328.2	0.1054	0.8386	0.0193	0.0633	0.0124	0.6196	
328.2	0.1223	0.8179	0.0197	0.0763	0.0134	0.648	
298.2	0.0727	0.8893	0.0182	0.0333	0.0121	0.3607	
298.2	0.0991	0.8603	0.0184	0.0393	0.0121	0.4763	
308.2	0.0931	0.8622	0.0185	0.046	0.0121	0.4909	
298.2	0.1264	0.8296	0.0189	0.0469	0.0121	0.5749	
298.2	0.1405	0.8125	0.0196	0.0539	0.0124	0.6052	
308.2	0.0296	0.9341	0.0183	0.0283	0.012	0.1891	
308.2	0.0522	0.9082	0.0184	0.033	0.0121	0.3114	
308.2	0.0695	0.8887	0.0183	0.0392	0.0121	0.39	
308.2	0.1217	0.8299	0.0189	0.0549	0.0122	0.5908	
308.2	0.1374	0.8109	0.0198	0.0632	0.0124	0.6276	
318.2	0.0269	0.9332	0.0185	0.0319	0.012	0.1976	
318.2	0.0497	0.9068	0.0186	0.0364	0.0121	0.3367	
318.2	0.0638	0.8903	0.0186	0.0428	0.0121	0.4025	
318.2	0.0869	0.8639	0.0186	0.0497	0.0121	0.5166	
318.2	0.1159	0.8308	0.019	0.059	0.0122	0.605	

System: decan-1-ol + water; phases: Liquid
Fixed: Pressure, kPa = 101.3
Property: Refractive index (Na D-line) (Liquid); method: Standard Abbe refractometry
Temperature, K	Mass fraction of water	Refractive index (Na D-line)	uncertainty
298.2	0.9975	1.33545	0.012
308.2	0.9938	1.33463	0.012
318.2	0.9901	1.33317	0.012
328.2	0.9864	1.33224	0.012

System: decan-1-ol + water; phases: Liquid mixture 1, Liquid mixture 2
Fixed: Pressure, kPa = 101.3
Property: Mass fraction of water (Liquid mixture 1); method: Titration method
Temperature, K	Mass fraction of water	uncertainty
298.2	0.9975	0.0025
308.2	0.9938	0.0062
318.2	0.9901	0.0099
328.2	0.9864	0.012
