Measured thermophysical data. Solution Thermodynamic Analysis of p-(Aminomethyl)benzoic Acid in Four Binary Solvents from 288.15 to 328.15 K
Source: J. Chem. Eng. Data, 2018, 10.1021/acs.jced.8b00763
Compound 1: p-(aminomethyl)benzoic acid, C8H9NO2, InChI=1S/C8H9NO2/c9-5-6-1-3-7(4-2-6)8(10)11/h1-4H,5,9H2,(H,10,11), purity 98%
Compound 2: methanol, CH4O, InChI=1S/CH4O/c1-2/h2H,1H3, purity 99.5%
Compound 3: ethanol, C2H6O, InChI=1S/C2H6O/c1-2-3/h3H,2H2,1H3, purity 99.7%
Compound 4: propan-1-ol, C3H8O, InChI=1S/C3H8O/c1-2-3-4/h4H,2-3H2,1H3, purity 99%
Compound 5: propan-2-ol, C3H8O, InChI=1S/C3H8O/c1-3(2)4/h3-4H,1-2H3, purity 99.7%
Compound 6: water, H2O, InChI=1S/H2O/h1H2, purity 99.9%
Compound 7: 3-aminopropanoic acid, C3H7NO2, InChI=1S/C3H7NO2/c4-2-1-3(5)6/h1-2,4H2,(H,5,6), purity 99.5%

System: p-(aminomethyl)benzoic acid + water + methanol; phases: Liquid, Crystal
Fixed: Pressure, kPa = 100
Property: Mole fraction of p-(aminomethyl)benzoic acid (Liquid); method: gravimetric
Solvent: Mole fraction of water	Temperature, K	Mole fraction of p-(aminomethyl)benzoic acid	uncertainty
0.1	288.15	2.98e-05	1.2e-05
0.2	288.15	8.33e-05	3.34e-05
0.3	288.15	0.0001258	5.04e-05
0.4	288.15	0.0001567	6.29e-05
0.5	288.15	0.0002645	0.0001068
0.6	288.15	0.0004507	0.0001806
0.7	288.15	0.0005405	0.0002163
0.8	288.15	0.0006778	0.0002713
0.9	288.15	0.0009638	0.0003856
0.1	293.15	3.97e-05	1.59e-05
0.2	293.15	0.0001099	4.4e-05
0.3	293.15	0.0001538	6.16e-05
0.4	293.15	0.0001942	7.79e-05
0.5	293.15	0.0002914	0.0001178
0.6	293.15	0.0005332	0.0002136
0.7	293.15	0.0005778	0.0002312
0.8	293.15	0.0007755	0.0003103
0.9	293.15	0.0010363	0.0004146
0.1	298.15	4.63e-05	1.86e-05
0.2	298.15	0.0001287	5.15e-05
0.3	298.15	0.0001771	7.09e-05
0.4	298.15	0.0002491	0.0001
0.5	298.15	0.0003811	0.0001534
0.6	298.15	0.0005956	0.0002385
0.7	298.15	0.0006619	0.0002649
0.8	298.15	0.0008981	0.0003594
0.9	298.15	0.0011844	0.0004738
0.1	303.15	5.95e-05	2.39e-05
0.2	303.15	0.0001595	6.39e-05
0.3	303.15	0.0002071	8.29e-05
0.4	303.15	0.0002589	0.0001039
0.5	303.15	0.0004227	0.0001702
0.6	303.15	0.0006396	0.0002563
0.7	303.15	0.0007868	0.000315
0.8	303.15	0.0010294	0.0004119
0.9	303.15	0.0013678	0.0005472
0.1	308.15	7.82e-05	3.14e-05
0.2	308.15	0.0001898	7.6e-05
0.3	308.15	0.0002426	9.71e-05
0.4	308.15	0.0002984	0.0001198
0.5	308.15	0.0004905	0.0001971
0.6	308.15	0.0006778	0.0002717
0.7	308.15	0.0009235	0.0003697
0.8	308.15	0.0011304	0.0004523
0.9	308.15	0.0015058	0.0006024
0.1	313.15	9.26e-05	3.71e-05
0.2	313.15	0.0002261	9.05e-05
0.3	313.15	0.0002722	0.0001089
0.4	313.15	0.0003436	0.0001379
0.5	313.15	0.0005566	0.0002238
0.6	313.15	0.00079	0.0003165
0.7	313.15	0.0009851	0.0003944
0.8	313.15	0.0013448	0.0005381
0.9	313.15	0.0015994	0.0006398
0.1	318.15	0.0001088	4.36e-05
0.2	318.15	0.0002685	0.0001075
0.3	318.15	0.0003163	0.0001266
0.4	318.15	0.0003827	0.0001536
0.5	318.15	0.0006391	0.0002567
0.6	318.15	0.0008474	0.0003394
0.7	318.15	0.0010792	0.000432
0.8	318.15	0.0013912	0.0005566
0.9	318.15	0.0016605	0.0006643
0.1	323.15	0.0001518	6.08e-05
0.2	323.15	0.0003156	0.0001263
0.3	323.15	0.0003573	0.000143
0.4	323.15	0.0004497	0.0001804
0.5	323.15	0.0007118	0.0002856
0.6	323.15	0.0009079	0.0003639
0.7	323.15	0.0012882	0.0005157
0.8	323.15	0.0015914	0.0006368
0.9	323.15	0.0021211	0.0008485
0.1	328.15	0.00018	7.21e-05
0.2	328.15	0.000364	0.0001457
0.3	328.15	0.0004071	0.0001629
0.4	328.15	0.0005058	0.000203
0.5	328.15	0.0007964	0.0003194
0.6	328.15	0.0009637	0.0003861
0.7	328.15	0.0013518	0.0005411
0.8	328.15	0.0016306	0.0006525
0.9	328.15	0.0022129	0.0008853

System: p-(aminomethyl)benzoic acid + water + ethanol; phases: Liquid, Crystal
Fixed: Pressure, kPa = 100
Property: Mole fraction of p-(aminomethyl)benzoic acid (Liquid); method: gravimetric
Solvent: Mole fraction of water	Temperature, K	Mole fraction of p-(aminomethyl)benzoic acid	uncertainty
0.1	288.15	2.74e-05	1.1e-05
0.2	288.15	4.58e-05	1.83e-05
0.3	288.15	8.27e-05	3.32e-05
0.4	288.15	0.0001108	4.45e-05
0.5	288.15	0.0001744	6.99e-05
0.6	288.15	0.000195	7.83e-05
0.7	288.15	0.0003356	0.0001346
0.8	288.15	0.0004926	0.0001972
0.9	288.15	0.0007409	0.0002964
0.1	293.15	3.61e-05	1.44e-05
0.2	293.15	5.78e-05	2.32e-05
0.3	293.15	9.66e-05	3.87e-05
0.4	293.15	0.0001374	5.51e-05
0.5	293.15	0.0001869	7.48e-05
0.6	293.15	0.0002024	8.13e-05
0.7	293.15	0.000378	0.0001517
0.8	293.15	0.0006008	0.0002405
0.9	293.15	0.0008297	0.0003319
0.1	298.15	4.26e-05	1.7e-05
0.2	298.15	6.74e-05	2.7e-05
0.3	298.15	0.000117	4.69e-05
0.4	298.15	0.0001532	6.14e-05
0.5	298.15	0.0002007	8.04e-05
0.6	298.15	0.0002331	9.37e-05
0.7	298.15	0.0004407	0.0001767
0.8	298.15	0.0006293	0.0002519
0.9	298.15	0.0009686	0.0003875
0.1	303.15	4.98e-05	1.99e-05
0.2	303.15	8.29e-05	3.32e-05
0.3	303.15	0.0001363	5.46e-05
0.4	303.15	0.0001692	6.78e-05
0.5	303.15	0.0002236	8.96e-05
0.6	303.15	0.000274	0.0001101
0.7	303.15	0.0004938	0.000198
0.8	303.15	0.0007297	0.0002921
0.9	303.15	0.0010048	0.000402
0.1	308.15	5.94e-05	2.38e-05
0.2	308.15	0.0001027	4.11e-05
0.3	308.15	0.0001505	6.02e-05
0.4	308.15	0.0001727	6.92e-05
0.5	308.15	0.0002575	0.0001033
0.6	308.15	0.0003296	0.0001323
0.7	308.15	0.0005248	0.0002105
0.8	308.15	0.0008357	0.0003346
0.9	308.15	0.0012344	0.0004939
0.1	313.15	7.69e-05	3.08e-05
0.2	313.15	0.0001218	4.88e-05
0.3	313.15	0.0001687	6.75e-05
0.4	313.15	0.0001944	7.79e-05
0.5	313.15	0.0002795	0.0001122
0.6	313.15	0.0003725	0.0001496
0.7	313.15	0.0006113	0.0002451
0.8	313.15	0.0009342	0.0003741
0.9	313.15	0.0015156	0.0006064
0.1	318.15	9.26e-05	3.71e-05
0.2	318.15	0.0001456	5.83e-05
0.3	318.15	0.0001994	7.98e-05
0.4	318.15	0.0002004	8.03e-05
0.5	318.15	0.000298	0.0001198
0.6	318.15	0.0004322	0.0001735
0.7	318.15	0.0006627	0.0002657
0.8	318.15	0.00102	0.0004085
0.9	318.15	0.0016582	0.0006634
0.1	323.15	0.0001177	4.71e-05
0.2	323.15	0.0001674	6.7e-05
0.3	323.15	0.0002159	8.64e-05
0.4	323.15	0.0002256	9.03e-05
0.5	323.15	0.0003035	0.0001222
0.6	323.15	0.0005017	0.0002018
0.7	323.15	0.000823	0.0003301
0.8	323.15	0.0013225	0.0005293
0.9	323.15	0.001734	0.0006937
0.1	328.15	0.000136	5.44e-05
0.2	328.15	0.0001797	7.19e-05
0.3	328.15	0.0002242	8.97e-05
0.4	328.15	0.0002302	9.23e-05
0.5	328.15	0.0003358	0.0001354
0.6	328.15	0.0005648	0.0002269
0.7	328.15	0.0008694	0.0003486
0.8	328.15	0.0014156	0.0005666
0.9	328.15	0.0018929	0.0007572

System: p-(aminomethyl)benzoic acid + water + propan-1-ol; phases: Liquid, Crystal
Fixed: Pressure, kPa = 100
Property: Mole fraction of p-(aminomethyl)benzoic acid (Liquid); method: gravimetric
Solvent: Mole fraction of water	Temperature, K	Mole fraction of p-(aminomethyl)benzoic acid	uncertainty
0.1	288.15	2.18e-05	8.7e-06
0.2	288.15	2.7e-05	1.08e-05
0.3	288.15	4.62e-05	1.85e-05
0.4	288.15	7.2e-05	2.89e-05
0.5	288.15	0.000107	4.31e-05
0.6	288.15	0.0001721	6.9e-05
0.7	288.15	0.0002095	8.42e-05
0.8	288.15	0.0004485	0.0001796
0.9	288.15	0.0005813	0.0002326
0.1	293.15	2.85e-05	1.14e-05
0.2	293.15	3.58e-05	1.43e-05
0.3	293.15	5.26e-05	2.11e-05
0.4	293.15	8.46e-05	3.4e-05
0.5	293.15	0.0001212	4.88e-05
0.6	293.15	0.0001993	7.99e-05
0.7	293.15	0.0002382	9.59e-05
0.8	293.15	0.0005481	0.0002195
0.9	293.15	0.0007361	0.0002945
0.1	298.15	3.14e-05	1.26e-05
0.2	298.15	4.51e-05	1.81e-05
0.3	298.15	6.48e-05	2.6e-05
0.4	298.15	9.6e-05	3.85e-05
0.5	298.15	0.0001394	5.61e-05
0.6	298.15	0.0002114	8.48e-05
0.7	298.15	0.0002961	0.000119
0.8	298.15	0.0006028	0.0002415
0.9	298.15	0.0009291	0.0003717
0.1	303.15	3.77e-05	1.51e-05
0.2	303.15	5.97e-05	2.39e-05
0.3	303.15	7.97e-05	3.19e-05
0.4	303.15	0.0001096	4.4e-05
0.5	303.15	0.0001602	6.44e-05
0.6	303.15	0.0002329	9.34e-05
0.7	303.15	0.0003308	0.0001329
0.8	303.15	0.00065	0.0002603
0.9	303.15	0.0009757	0.0003904
0.1	308.15	4.98e-05	1.99e-05
0.2	308.15	7.74e-05	3.1e-05
0.3	308.15	9.54e-05	3.82e-05
0.4	308.15	0.0001284	5.15e-05
0.5	308.15	0.0001766	7.1e-05
0.6	308.15	0.0002641	0.0001059
0.7	308.15	0.0003602	0.0001448
0.8	308.15	0.0007368	0.0002952
0.9	308.15	0.001211	0.0004845
0.1	313.15	5.73e-05	2.29e-05
0.2	313.15	9.66e-05	3.87e-05
0.3	313.15	0.0001089	4.36e-05
0.4	313.15	0.0001478	5.92e-05
0.5	313.15	0.0002041	8.21e-05
0.6	313.15	0.0003266	0.000131
0.7	313.15	0.0004297	0.0001724
0.8	313.15	0.0007717	0.0003092
0.9	313.15	0.0013285	0.0005315
0.1	318.15	6.63e-05	2.65e-05
0.2	318.15	0.0001204	4.82e-05
0.3	318.15	0.0001548	6.2e-05
0.4	318.15	0.0001859	7.44e-05
0.5	318.15	0.000214	8.59e-05
0.6	318.15	0.0003297	0.0001323
0.7	318.15	0.0004878	0.0001956
0.8	318.15	0.0007812	0.0003132
0.9	318.15	0.0015295	0.000612
0.1	323.15	7.22e-05	2.89e-05
0.2	323.15	0.000147	5.88e-05
0.3	323.15	0.0001619	6.48e-05
0.4	323.15	0.0001942	7.78e-05
0.5	323.15	0.0002613	0.000105
0.6	323.15	0.0003991	0.0001602
0.7	323.15	0.0005977	0.0002395
0.8	323.15	0.0008491	0.0003404
0.9	323.15	0.0017126	0.0006853
0.1	328.15	9.21e-05	3.69e-05
0.2	328.15	0.0001645	6.58e-05
0.3	328.15	0.0001899	7.6e-05
0.4	328.15	0.000223	8.94e-05
0.5	328.15	0.0003197	0.0001282
0.6	328.15	0.0004125	0.0001656
0.7	328.15	0.0006657	0.0002668
0.8	328.15	0.0009229	0.0003699
0.9	328.15	0.0018431	0.0007375

System: p-(aminomethyl)benzoic acid + water + propan-2-ol; phases: Liquid, Crystal
Fixed: Pressure, kPa = 100
Property: Mole fraction of p-(aminomethyl)benzoic acid (Liquid); method: gravimetric
Solvent: Mole fraction of water	Temperature, K	Mole fraction of p-(aminomethyl)benzoic acid	uncertainty
0.1	288.15	1.75e-05	7e-06
0.2	288.15	2.44e-05	9.8e-06
0.3	288.15	3.73e-05	1.5e-05
0.4	288.15	5.4e-05	2.17e-05
0.5	288.15	9.43e-05	3.78e-05
0.6	288.15	0.0001106	4.43e-05
0.7	288.15	0.0001708	6.85e-05
0.8	288.15	0.0002756	0.0001105
0.9	288.15	0.000534	0.0002137
0.1	293.15	2.12e-05	8.5e-06
0.2	293.15	3.13e-05	1.25e-05
0.3	293.15	4.83e-05	1.94e-05
0.4	293.15	6.97e-05	2.8e-05
0.5	293.15	0.0001037	4.16e-05
0.6	293.15	0.0001275	5.12e-05
0.7	293.15	0.0002061	8.26e-05
0.8	293.15	0.0003148	0.0001262
0.9	293.15	0.000624	0.0002497
0.1	298.15	2.57e-05	1.03e-05
0.2	298.15	4.14e-05	1.66e-05
0.3	298.15	5.7e-05	2.28e-05
0.4	298.15	7.83e-05	3.14e-05
0.5	298.15	0.0001213	4.86e-05
0.6	298.15	0.0001344	5.39e-05
0.7	298.15	0.000228	9.15e-05
0.8	298.15	0.0003914	0.0001569
0.9	298.15	0.0007337	0.0002936
0.1	303.15	3.04e-05	1.22e-05
0.2	303.15	5.77e-05	2.31e-05
0.3	303.15	6.93e-05	2.77e-05
0.4	303.15	9.86e-05	3.95e-05
0.5	303.15	0.0001327	5.32e-05
0.6	303.15	0.0001778	7.13e-05
0.7	303.15	0.0002526	0.0001013
0.8	303.15	0.0004212	0.000169
0.9	303.15	0.000912	0.0003649
0.1	308.15	3.4e-05	1.36e-05
0.2	308.15	6.96e-05	2.79e-05
0.3	308.15	7.53e-05	3.02e-05
0.4	308.15	0.0001163	4.66e-05
0.5	308.15	0.0001548	6.21e-05
0.6	308.15	0.000199	7.98e-05
0.7	308.15	0.0002925	0.0001173
0.8	308.15	0.0004836	0.000194
0.9	308.15	0.0010293	0.0004119
0.1	313.15	3.92e-05	1.57e-05
0.2	313.15	9.12e-05	3.65e-05
0.3	313.15	0.000104	4.16e-05
0.4	313.15	0.0001374	5.5e-05
0.5	313.15	0.0001693	6.79e-05
0.6	313.15	0.0002345	9.4e-05
0.7	313.15	0.0003067	0.0001231
0.8	313.15	0.0005655	0.0002268
0.9	313.15	0.0010927	0.0004372
0.1	318.15	5.18e-05	2.08e-05
0.2	318.15	0.0001053	4.21e-05
0.3	318.15	0.0001236	4.95e-05
0.4	318.15	0.0001715	6.86e-05
0.5	318.15	0.0001869	7.5e-05
0.6	318.15	0.0002826	0.0001132
0.7	318.15	0.0003405	0.0001366
0.8	318.15	0.0006209	0.0002489
0.9	318.15	0.0011711	0.0004686
0.1	323.15	5.75e-05	2.3e-05
0.2	323.15	0.0001338	5.36e-05
0.3	323.15	0.0001511	6.05e-05
0.4	323.15	0.0001857	7.43e-05
0.5	323.15	0.0002276	9.13e-05
0.6	323.15	0.0003222	0.000129
0.7	323.15	0.0003813	0.0001529
0.8	323.15	0.0006942	0.0002783
0.9	323.15	0.0013349	0.0005341
0.1	328.15	7.03e-05	2.82e-05
0.2	328.15	0.0001592	6.37e-05
0.3	328.15	0.0001751	7.01e-05
0.4	328.15	0.0002042	8.18e-05
0.5	328.15	0.0002693	0.000108
0.6	328.15	0.0003622	0.000145
0.7	328.15	0.0004181	0.0001677
0.8	328.15	0.0007602	0.0003049
0.9	328.15	0.0014981	0.0005994

System: 3-aminopropanoic acid + methanol + water; phases: Liquid, Crystal
Fixed: Pressure, kPa = 100
Property: Mole fraction of 3-aminopropanoic acid (Liquid); method: gravimetric
Solvent: Mole fraction of water	Temperature, K	Mole fraction of 3-aminopropanoic acid	uncertainty
0.1	288.15	0.09971	0.03989
0.2	288.15	0.07231	0.02894
0.3	288.15	0.04411	0.01769
0.4	288.15	0.02733	0.01099
0.5	288.15	0.01495	0.00611
0.1	293.15	0.1065	0.0426
0.2	293.15	0.07652	0.03063
0.3	293.15	0.05001	0.02005
0.4	293.15	0.03299	0.01326
0.5	293.15	0.01889	0.00769
0.1	298.15	0.1155	0.0462
0.2	298.15	0.08421	0.0337
0.3	298.15	0.05855	0.02346
0.4	298.15	0.03987	0.01602
0.5	298.15	0.02187	0.00892
0.1	303.15	0.1261	0.0504
0.2	303.15	0.09511	0.03806
0.3	303.15	0.06931	0.02776
0.4	303.15	0.04592	0.01845
0.5	303.15	0.02734	0.0111
0.1	308.15	0.1375	0.055
0.2	308.15	0.1099	0.044
0.3	308.15	0.08001	0.03206
0.4	308.15	0.05363	0.0215
0.5	308.15	0.03145	0.01277
