Measured thermophysical data. Solubility Measurement and Correlation of Carbon Monoxide (CO) in Butyraldehydes: n-Butyraldehyde and iso-Butyraldehyde
Source: J. Chem. Eng. Data, 2017, 10.1021/acs.jced.6b00765
Compound 1: butanal, C4H8O, InChI=1S/C4H8O/c1-2-3-4-5/h4H,2-3H2,1H3, purity 99%
Compound 2: 2-methylpropanal, C4H8O, InChI=1S/C4H8O/c1-4(2)3-5/h3-4H,1-2H3, purity 99.5%
Compound 3: carbon monoxide, CO, InChI=1S/CO/c1-2, purity 99.99%

System: butanal + carbon monoxide; phases: Liquid, Gas
Property: Vapor or sublimation pressure, kPa (Liquid); method: Closed cell (Static) method
Temperature, K	Mole fraction of carbon monoxide	Vapor or sublimation pressure, kPa	uncertainty
303.15	0.035	3610	1320
313.15	0.035	3440	1310
323.15	0.035	3260	1330
333.15	0.035	2970	1330
343.15	0.035	3060	1260
353.15	0.035	2980	1150
363.15	0.035	2890	1050
373.15	0.035	2750	1000
303.15	0.086	8420	810
313.15	0.086	8190	770
323.15	0.086	8050	740
333.15	0.086	7920	740
343.15	0.086	7580	710
353.15	0.086	7170	700
363.15	0.086	6710	680
373.15	0.086	6370	660
303.15	0.125	13550	820
313.15	0.125	12950	780
323.15	0.125	12330	740
333.15	0.125	12070	700
343.15	0.125	11750	680
353.15	0.125	11680	650
363.15	0.125	11340	630
373.15	0.125	10950	600
303.15	0.165	19330	750
313.15	0.165	18580	690
323.15	0.165	17930	640
333.15	0.165	17150	600
343.15	0.165	16500	570
353.15	0.165	15780	530
363.15	0.165	14990	490
373.15	0.165	14280	460
303.15	0.267	36990	970
313.15	0.267	34280	890
323.15	0.267	32110	840
333.15	0.267	30290	770
343.15	0.267	28810	720
353.15	0.267	27270	680
363.15	0.267	25750	640
373.15	0.267	24270	610
303.15	0.373	55120	1140
313.15	0.373	50570	1050
323.15	0.373	48140	1000
333.15	0.373	44040	910
343.15	0.373	40710	840
353.15	0.373	39110	810
363.15	0.373	36830	760
373.15	0.373	34940	720

System: butanal + carbon monoxide; phases: Gas, Liquid
Property: Vapor or sublimation pressure, kPa (Gas); method: Closed cell (Static) method
Temperature, K	Mole fraction of carbon monoxide	Vapor or sublimation pressure, kPa	uncertainty
303.15	0.412	67230	1370
313.15	0.412	61380	1250
323.15	0.412	56450	1150
333.15	0.412	52220	1060
343.15	0.412	48700	990
353.15	0.412	45480	920
363.15	0.412	42670	870
373.15	0.412	40150	810
303.15	0.513	88930	1810
313.15	0.513	80100	1630
323.15	0.513	72870	1480
333.15	0.513	66900	1360
343.15	0.513	61360	1240
353.15	0.513	56810	1150
363.15	0.513	52600	1070
373.15	0.513	49830	1010

System: 2-methylpropanal + carbon monoxide; phases: Liquid, Gas
Property: Vapor or sublimation pressure, kPa (Liquid); method: Closed cell (Static) method
Temperature, K	Mole fraction of carbon monoxide	Vapor or sublimation pressure, kPa	uncertainty
303.15	0.07	6660	1700
313.15	0.07	6530	1680
323.15	0.07	6460	1620
333.15	0.07	6310	1560
343.15	0.07	6140	1470
353.15	0.07	5960	1390
363.15	0.07	5760	1280
373.15	0.07	5570	1180
303.15	0.157	15530	730
313.15	0.157	15320	690
323.15	0.157	14880	670
333.15	0.157	14460	640
343.15	0.157	13800	600
353.15	0.157	13190	570
363.15	0.157	12420	540
373.15	0.157	11710	510
303.15	0.256	27860	690
313.15	0.256	26170	640
323.15	0.256	25670	620
333.15	0.256	24450	590
343.15	0.256	23270	560
353.15	0.256	22170	530
363.15	0.256	21030	500
373.15	0.256	20100	480
303.15	0.375	44560	950
313.15	0.375	41370	890
323.15	0.375	39530	840
333.15	0.375	38130	810
343.15	0.375	35810	760
353.15	0.375	33110	700
363.15	0.375	31470	670
373.15	0.375	29810	630

System: 2-methylpropanal + carbon monoxide; phases: Gas, Liquid
Property: Vapor or sublimation pressure, kPa (Gas); method: Closed cell (Static) method
Temperature, K	Mole fraction of carbon monoxide	Vapor or sublimation pressure, kPa	uncertainty
303.15	0.452	56650	1160
313.15	0.452	52700	1070
323.15	0.452	48740	990
333.15	0.452	45650	930
343.15	0.452	42970	870
353.15	0.452	40470	820
363.15	0.452	38130	770
373.15	0.452	36010	730
303.15	0.512	63050	1280
313.15	0.512	57890	1170
323.15	0.512	53530	1090
333.15	0.512	49960	1010
343.15	0.512	46850	950
353.15	0.512	43330	880
363.15	0.512	40250	820
373.15	0.512	37540	760
