Measured thermophysical data. Measurement and Correlation of the Solubility of Maltitol in Different Pure Solvents, Methanol Water Mixtures, and Ethanol Water Mixtures
Source: J. Chem. Eng. Data, 2016, 10.1021/acs.jced.5b00565
Compound 1: 4-O-.alpha.-D-glucopyranosyl-D-glucitol, C12H24O11, InChI=1S/C12H24O11/c13-1-4(16)7(18)11(5(17)2-14)23-12-10(21)9(20)8(19)6(3-15)22-12/h4-21H,1-3H2/t4-,5+,6+,7+,8+,9-,10+,11+,12+/m0/s1
Compound 2: water, H2O, InChI=1S/H2O/h1H2, purity 99.8%
Compound 3: dimethylformamide, C3H7NO, InChI=1S/C3H7NO/c1-4(2)3-5/h3H,1-2H3, purity 99.5%
Compound 4: methanol, CH4O, InChI=1S/CH4O/c1-2/h2H,1H3, purity 99.5%
Compound 5: ethanol, C2H6O, InChI=1S/C2H6O/c1-2-3/h3H,2H2,1H3, purity 99.5%
Compound 6: propan-2-ol, C3H8O, InChI=1S/C3H8O/c1-3(2)4/h3-4H,1-2H3, purity 99.5%

System: 4-O-.alpha.-D-glucopyranosyl-D-glucitol + water; phases: Liquid, Crystal
Fixed: Pressure, kPa = 100
Property: Mole fraction of 4-O-.alpha.-D-glucopyranosyl-D-glucitol (Liquid); method: gravimetric
Temperature, K	Mole fraction of 4-O-.alpha.-D-glucopyranosyl-D-glucitol	uncertainty
298.15	0.061564	0.008621
303.15	0.067109	0.009398
308.15	0.078555	0.011003
313.15	0.097233	0.013618
318.15	0.110805	0.015517
323.15	0.125382	0.017558

System: dimethylformamide + 4-O-.alpha.-D-glucopyranosyl-D-glucitol; phases: Liquid, Crystal
Fixed: Pressure, kPa = 100
Property: Mole fraction of 4-O-.alpha.-D-glucopyranosyl-D-glucitol (Liquid); method: gravimetric
Temperature, K	Mole fraction of 4-O-.alpha.-D-glucopyranosyl-D-glucitol	uncertainty
298.15	0.00761	0.001066
303.15	0.008187	0.001146
308.15	0.009216	0.001291
313.15	0.010931	0.001531
318.15	0.012811	0.001794
323.15	0.015273	0.002139

System: methanol + 4-O-.alpha.-D-glucopyranosyl-D-glucitol; phases: Liquid, Crystal
Fixed: Pressure, kPa = 100
Property: Mole fraction of 4-O-.alpha.-D-glucopyranosyl-D-glucitol (Liquid); method: gravimetric
Temperature, K	Mole fraction of 4-O-.alpha.-D-glucopyranosyl-D-glucitol	uncertainty
298.15	0.00029	4.1e-05
303.15	0.000337	4.7e-05
308.15	0.000393	5.5e-05
313.15	0.000453	6.3e-05
318.15	0.000552	7.7e-05
323.15	0.000706	9.9e-05

System: ethanol + 4-O-.alpha.-D-glucopyranosyl-D-glucitol; phases: Liquid, Crystal
Fixed: Pressure, kPa = 100
Property: Mole fraction of 4-O-.alpha.-D-glucopyranosyl-D-glucitol (Liquid); method: gravimetric
Temperature, K	Mole fraction of 4-O-.alpha.-D-glucopyranosyl-D-glucitol	uncertainty
298.15	3.6e-05	5e-06
303.15	4.4e-05	6e-06
308.15	5.2e-05	7e-06
313.15	6.2e-05	9e-06
318.15	6.4e-05	9e-06
323.15	7e-05	1e-05

System: propan-2-ol + 4-O-.alpha.-D-glucopyranosyl-D-glucitol; phases: Liquid, Crystal
Fixed: Pressure, kPa = 100
Property: Mole fraction of 4-O-.alpha.-D-glucopyranosyl-D-glucitol (Liquid); method: gravimetric
Temperature, K	Mole fraction of 4-O-.alpha.-D-glucopyranosyl-D-glucitol	uncertainty
298.15	0.0019	0.0003
303.15	0.0023	0.0003
308.15	0.0027	0.0004
313.15	0.003	0.0004
318.15	0.0038	0.0005
323.15	0.0051	0.0007

System: methanol + 4-O-.alpha.-D-glucopyranosyl-D-glucitol + water; phases: Liquid, Crystal
Fixed: Pressure, kPa = 100
Property: Mole fraction of 4-O-.alpha.-D-glucopyranosyl-D-glucitol (Liquid); method: gravimetric
Temperature, K	Solvent: Mole fraction of methanol	Mole fraction of 4-O-.alpha.-D-glucopyranosyl-D-glucitol	uncertainty
298.15	0.0588	0.043265	0.00606
298.15	0.1232	0.032424	0.004545
298.15	0.1942	0.02276	0.003196
298.15	0.2726	0.014967	0.002102
298.15	0.3599	0.01317	0.001852
298.15	0.4575	0.007657	0.001091
298.15	0.5675	0.003956	0.000573
298.15	0.6922	0.001691	0.000252
298.15	0.835	0.000607	9.3e-05
303.15	0.0588	0.050883	0.00713
303.15	0.1232	0.039218	0.005498
303.15	0.1942	0.028484	0.004
303.15	0.2726	0.018855	0.002648
303.15	0.3599	0.016457	0.002313
303.15	0.4575	0.009012	0.001284
303.15	0.5675	0.005627	0.000806
303.15	0.6922	0.002174	0.000329
303.15	0.835	0.000776	0.000119
308.15	0.0588	0.066848	0.009365
308.15	0.1232	0.049394	0.006924
308.15	0.1942	0.038718	0.005435
308.15	0.2726	0.02237	0.00315
308.15	0.3599	0.019255	0.002706
308.15	0.4575	0.011816	0.001677
308.15	0.5675	0.007205	0.001032
308.15	0.6922	0.003074	0.000457
308.15	0.835	0.001177	0.00018
313.15	0.0588	0.079945	0.011199
313.15	0.1232	0.062105	0.008705
313.15	0.1942	0.04393	0.006167
313.15	0.2726	0.030522	0.004289
313.15	0.3599	0.025531	0.00359
313.15	0.4575	0.016139	0.002286
313.15	0.5675	0.010944	0.001563
313.15	0.6922	0.003896	0.000596
313.15	0.835	0.001546	0.000235
318.15	0.0588	0.096212	0.013478
318.15	0.1232	0.073974	0.010367
318.15	0.1942	0.056375	0.007909
318.15	0.2726	0.042335	0.005943
318.15	0.3599	0.035867	0.00504
318.15	0.4575	0.024541	0.003471
318.15	0.5675	0.014745	0.002117
318.15	0.6922	0.005725	0.000864
318.15	0.835	0.002185	0.000336
323.15	0.0588	0.118244	0.01656
323.15	0.1232	0.085645	0.012005
323.15	0.1942	0.073101	0.010247
323.15	0.2726	0.057967	0.008134
323.15	0.3599	0.04935	0.00693
323.15	0.4575	0.033289	0.004704
323.15	0.5675	0.02215	0.003162
323.15	0.6922	0.008398	0.001276
323.15	0.835	0.003394	0.00052
298.15	1	0.00029	4.1e-05
303.15	1	0.000337	4.7e-05
308.15	1	0.000393	5.5e-05
313.15	1	0.000453	6.3e-05
318.15	1	0.000552	7.7e-05
323.15	1	0.000706	9.9e-05
298.15	0	0.061564	0.008621
303.15	0	0.067109	0.009398
308.15	0	0.078555	0.011003
313.15	0	0.097233	0.013618
318.15	0	0.110805	0.015517
323.15	0	0.125382	0.017558

System: ethanol + 4-O-.alpha.-D-glucopyranosyl-D-glucitol + water; phases: Liquid, Crystal
Fixed: Pressure, kPa = 100
Property: Mole fraction of 4-O-.alpha.-D-glucopyranosyl-D-glucitol (Liquid); method: gravimetric
Temperature, K	Solvent: Mole fraction of ethanol	Mole fraction of 4-O-.alpha.-D-glucopyranosyl-D-glucitol	uncertainty
298.15	0.0416	0.038364	0.005373
298.15	0.0891	0.035543	0.00498
298.15	0.1435	0.031113	0.004359
298.15	0.2068	0.028916	0.004053
298.15	0.2811	0.021741	0.00306
298.15	0.3697	0.011372	0.001624
298.15	0.4771	0.004794	0.0007
298.15	0.61	0.001253	0.000197
298.15	0.7787	0.000268	4.5e-05
303.15	0.0416	0.04439	0.006219
303.15	0.0891	0.043281	0.006063
303.15	0.1435	0.038022	0.005327
303.15	0.2068	0.034252	0.004802
303.15	0.2811	0.024721	0.003478
303.15	0.3697	0.014843	0.002109
303.15	0.4771	0.005793	0.00085
303.15	0.61	0.001689	0.000259
303.15	0.7787	0.000337	5.6e-05
308.15	0.0416	0.055278	0.007745
308.15	0.0891	0.053913	0.007554
308.15	0.1435	0.04577	0.006415
308.15	0.2068	0.042121	0.005906
308.15	0.2811	0.029951	0.004217
308.15	0.3697	0.017871	0.002538
308.15	0.4771	0.007646	0.001114
308.15	0.61	0.002138	0.000331
308.15	0.7787	0.000422	7.1e-05
313.15	0.0416	0.071213	0.009977
313.15	0.0891	0.069822	0.009782
313.15	0.1435	0.062065	0.008697
313.15	0.2068	0.054728	0.007677
313.15	0.2811	0.038053	0.005361
313.15	0.3697	0.02304	0.003271
313.15	0.4771	0.010093	0.001469
313.15	0.61	0.002977	0.000456
313.15	0.7787	0.000584	9.8e-05
318.15	0.0416	0.089119	0.012482
318.15	0.0891	0.086343	0.012093
318.15	0.1435	0.076533	0.010721
318.15	0.2068	0.069572	0.009751
318.15	0.2811	0.054018	0.007598
318.15	0.3697	0.031574	0.004479
318.15	0.4771	0.016091	0.002322
318.15	0.61	0.003505	0.000573
318.15	0.7787	0.000678	0.000115
323.15	0.0416	0.102478	0.014355
323.15	0.0891	0.096836	0.013561
323.15	0.1435	0.089654	0.012557
323.15	0.2068	0.083145	0.011649
323.15	0.2811	0.067661	0.009507
323.15	0.3697	0.038957	0.005527
323.15	0.4771	0.021878	0.003141
323.15	0.61	0.004675	0.000785
323.15	0.7787	0.000815	0.000147
298.15	0	0.061564	0.008621
303.15	0	0.067109	0.009398
308.15	0	0.078555	0.011003
313.15	0	0.097233	0.013618
318.15	0	0.110805	0.015517
323.15	0	0.125382	0.017558
298.15	1	3.6e-05	5e-06
303.15	1	4.4e-05	6e-06
308.15	1	5.2e-05	7e-06
313.15	1	6.2e-05	9e-06
318.15	1	6.4e-05	9e-06
323.15	1	7e-05	1e-05
