Measured thermophysical data. Volumetric Properties and Viscosity B-Coefficients for the Ternary Systems Epigallocatechin Gallate + MCl + H2O (M = Li, Na, K) at Temperatures 288.15 308.15 K
Source: J. Chem. Eng. Data, 2016, 10.1021/acs.jced.5b00941
Compound 1: (2R,3R)-5,7-dihydroxy-2-(3,4,5-trihydroxyphenyl)chroman-3-yl 3,4,5-trihydroxybenzoate, C22H18O11, InChI=1S/C22H18O11/c23-10-5-12(24)11-7-18(33-22(31)9-3-15(27)20(30)16(28)4-9)21(32-17(11)6-10)8-1-13(25)19(29)14(26)2-8/h1-6,18,21,23-30H,7H2/t18-,21-/m1/s1, purity 99.5%
Compound 2: lithium chloride, ClLi, InChI=1S/ClH.Li/h1H;/q;+1/p-1, purity 99.9%
Compound 3: sodium chloride, ClNa, InChI=1S/ClH.Na/h1H;/q;+1/p-1, purity 99.5%
Compound 4: potassium chloride, ClK, InChI=1S/ClH.K/h1H;/q;+1/p-1, purity 99.5%
Compound 5: water, H2O, InChI=1S/H2O/h1H2, purity 99.8%

System: water; phases: Liquid
Fixed: Pressure, kPa = 100
Property: Mass density, kg/m3 (Liquid); method: Vibrating tube method
Temperature, K	Mass density, kg/m3	uncertainty
288.15	999.099	1.001
293.15	998.205	1.001
298.15	997.046	1.001
303.15	995.644	1.001
308.15	994.024	1.001

System: water; phases: Liquid
Fixed: Pressure, kPa = 100
Property: Viscosity, Pa*s (Liquid); method: Falling or rolling sphere viscometry
Temperature, K	Viscosity, Pa*s	uncertainty
288.15	0.001145	1.4e-05
293.15	0.00101	1.2e-05
298.15	0.000896	1.1e-05
303.15	0.000801	1e-05
308.15	0.000721	9e-06

System: (2R,3R)-5,7-dihydroxy-2-(3,4,5-trihydroxyphenyl)chroman-3-yl 3,4,5-trihydroxybenzoate + lithium chloride + water; phases: Liquid
Fixed: Pressure, kPa = 100
Property: Mass density, kg/m3 (Liquid); method: Vibrating tube method
Molality, mol/kg of (2R,3R)-5,7-dihydroxy-2-(3,4,5-trihydroxyphenyl)chroman-3-yl 3,4,5-trihydroxybenzoate	Solvent: Molality, mol/kg of lithium chloride	Temperature, K	Mass density, kg/m3	uncertainty
0	0	288.15	999.099	1.014
0.0099	0	288.15	1000.712	1.014
0.02	0	288.15	1002.356	1.014
0.0298	0	288.15	1003.966	1.015
0.0399	0	288.15	1005.631	1.014
0.0499	0	288.15	1007.26	1.01
0.0601	0	288.15	1008.94	1.01
0	0	293.15	998.205	1.016
0.0099	0	293.15	999.804	1.014
0.02	0	293.15	1001.441	1.014
0.0298	0	293.15	1003.036	1.014
0.0399	0	293.15	1004.683	1.014
0.0499	0	293.15	1006.291	1.014
0.0601	0	293.15	1007.934	1.013
0	0	298.15	997.046	1.015
0.0099	0	298.15	998.637	1.014
0.02	0	298.15	1000.257	1.014
0.0298	0	298.15	1001.831	1.014
0.0399	0	298.15	1003.467	1.014
0.0499	0	298.15	1005.052	1.014
0.0601	0	298.15	1006.689	1.013
0	0	303.15	995.644	1.015
0.0099	0	303.15	997.228	1.014
0.02	0	303.15	998.831	1.014
0.0298	0	303.15	1000.395	1.014
0.0399	0	303.15	1002.014	1.014
0.0499	0	303.15	1003.597	1.014
0.0601	0	303.15	1005.217	1.013
0	0	308.15	994.024	1.014
0.0099	0	308.15	995.598	1.014
0.02	0	308.15	997.195	1.014
0.0298	0	308.15	998.752	1.014
0.0399	0	308.15	1000.358	1.013
0.0499	0	308.15	1001.925	1.013
0.0601	0	308.15	1003.529	1.013
0	0.1	288.15	1001.508	1.012
0.01	0.0996	288.15	1003.016	1.012
0.02	0.1037	288.15	1004.552	1.013
0.0299	0.1002	288.15	1006.083	1.015
0.0399	0.0955	288.15	1007.655	1.014
0.0503	0.0988	288.15	1009.307	1.014
0.0603	0.0991	288.15	1010.971	1.017
0	0.1	293.15	1000.582	1.013
0.01	0.0996	293.15	1002.08	1.01
0.02	0.1037	293.15	1003.61	1.01
0.0299	0.1002	293.15	1005.136	1.015
0.0399	0.0955	293.15	1006.695	1.014
0.0503	0.0988	293.15	1008.349	1.013
0.0603	0.0991	293.15	1009.981	1.014
0	0.1	298.15	999.41	1.01
0.01	0.0996	298.15	1000.901	1.012
0.02	0.1037	298.15	1002.417	1.013
0.0299	0.1002	298.15	1003.929	1.014
0.0399	0.0955	298.15	1005.474	1.013
0.0503	0.0988	298.15	1007.096	1.013
0.0603	0.0991	298.15	1008.735	1.014
0	0.1	303.15	998.003	1.013
0.01	0.0996	303.15	999.49	1.01
0.02	0.1037	303.15	1000.991	1.012
0.0299	0.1002	303.15	1002.483	1.014
0.0399	0.0955	303.15	1004.021	1.013
0.0503	0.0988	303.15	1005.627	1.013
0.0603	0.0991	303.15	1007.245	1.014
0	0.1	308.15	996.382	1.012
0.01	0.0996	308.15	997.864	1.012
0.02	0.1037	308.15	999.359	1.012
0.0299	0.1002	308.15	1000.838	1.014
0.0399	0.0955	308.15	1002.355	1.013
0.0503	0.0988	308.15	1003.951	1.013
0.0603	0.0991	308.15	1005.537	1.015
0	0.2	288.15	1003.996	1.013
0.01	0.1977	288.15	1005.429	1.012
0.0199	0.1994	288.15	1006.883	1.012
0.0298	0.1996	288.15	1008.381	1.013
0.0396	0.1986	288.15	1009.911	1.014
0.0495	0.2009	288.15	1011.508	1.015
0.06	0.1983	288.15	1013.246	1.015
0	0.2	293.15	1003.064	1.013
0.01	0.1977	293.15	1004.488	1.012
0.0199	0.1994	293.15	1005.935	1.012
0.0298	0.1996	293.15	1007.417	1.013
0.0396	0.1986	293.15	1008.934	1.013
0.0495	0.2009	293.15	1010.511	1.014
0.06	0.1983	293.15	1012.238	1.014
0	0.2	298.15	1001.873	1.013
0.01	0.1977	298.15	1003.29	1.01
0.0199	0.1994	298.15	1004.73	1.01
0.0298	0.1996	298.15	1006.201	1.013
0.0396	0.1986	298.15	1007.702	1.013
0.0495	0.2009	298.15	1009.265	1.014
0.06	0.1983	298.15	1010.974	1.014
0	0.2	303.15	1000.451	1.013
0.01	0.1977	303.15	1001.861	1.011
0.0199	0.1994	303.15	1003.294	1.011
0.0298	0.1996	303.15	1004.757	1.012
0.0396	0.1986	303.15	1006.242	1.013
0.0495	0.2009	303.15	1007.792	1.014
0.06	0.1983	303.15	1009.486	1.014
0	0.2	308.15	998.848	1.013
0.01	0.1977	308.15	1000.25	1.01
0.0199	0.1994	308.15	1001.676	1.011
0.0298	0.1996	308.15	1003.12	1.01
0.0396	0.1986	308.15	1004.608	1.012
0.0495	0.2009	308.15	1006.125	1.013
0.06	0.1983	308.15	1007.801	1.014
0	0.3	288.15	1006.335	1.01
0.0099	0.3021	288.15	1007.625	1.01
0.0203	0.303	288.15	1009.09	1.01
0.0299	0.3038	288.15	1010.519	1.013
0.0396	0.2996	288.15	1012.016	1.015
0.0499	0.2972	288.15	1013.734	1.015
0.0604	0.3005	288.15	1015.54	1.02
0	0.3	293.15	1005.368	1.01
0.0099	0.3021	293.15	1006.651	1.01
0.0203	0.303	293.15	1008.119	1.011
0.0299	0.3038	293.15	1009.533	1.013
0.0396	0.2996	293.15	1011.024	1.015
0.0499	0.2972	293.15	1012.729	1.015
0.0604	0.3005	293.15	1014.511	1.014
0	0.3	298.15	1004.173	1.01
0.0099	0.3021	298.15	1005.451	1.01
0.0203	0.303	298.15	1006.902	1.011
0.0299	0.3038	298.15	1008.304	1.013
0.0396	0.2996	298.15	1009.78	1.01
0.0499	0.2972	298.15	1011.47	1.01
0.0604	0.3005	298.15	1013.239	1.014
0	0.3	303.15	1002.753	1.01
0.0099	0.3021	303.15	1004.029	1.01
0.0203	0.303	303.15	1005.465	1.011
0.0299	0.3038	303.15	1006.854	1.013
0.0396	0.2996	303.15	1008.314	1.015
0.0499	0.2972	303.15	1009.985	1.015
0.0604	0.3005	303.15	1011.75	1.01
0	0.3	308.15	1001.128	1.01
0.0099	0.3021	308.15	1002.398	1.009
0.0203	0.303	308.15	1003.823	1.011
0.0299	0.3038	308.15	1005.201	1.012
0.0396	0.2996	308.15	1006.645	1.014
0.0499	0.2972	308.15	1008.31	1.01
0.0604	0.3005	308.15	1010.06	1.01
0	0.4	288.15	1008.372	1.006
0.0098	0.4029	288.15	1009.653	1.011
0.0203	0.3989	288.15	1011.159	1.012
0.0299	0.4032	288.15	1012.612	1.013
0.0399	0.4004	288.15	1014.241	1.016
0.0501	0.403	288.15	1016.079	1.017
0.0599	0.4039	288.15	1017.845	1.017
0	0.4	293.15	1007.405	1.008
0.0098	0.4029	293.15	1008.682	1.011
0.0203	0.3989	293.15	1010.18	1.01
0.0299	0.4032	293.15	1011.62	1.01
0.0399	0.4004	293.15	1013.277	1.016
0.0501	0.403	293.15	1015.057	1.016
0.0599	0.4039	293.15	1016.797	1.016
0	0.4	298.15	1006.192	1.008
0.0098	0.4029	298.15	1007.462	1.011
0.0203	0.3989	298.15	1008.943	1.012
0.0299	0.4032	298.15	1010.371	1.013
0.0399	0.4004	298.15	1012.014	1.015
0.0501	0.403	298.15	1013.777	1.016
0.0599	0.4039	298.15	1015.502	1.016
0	0.4	303.15	1004.758	1.008
0.0098	0.4029	303.15	1006.022	1.01
0.0203	0.3989	303.15	1007.478	1.012
0.0299	0.4032	303.15	1008.932	1.013
0.0399	0.4004	303.15	1010.542	1.015
0.0501	0.403	303.15	1012.293	1.016
0.0599	0.4039	303.15	1014.004	1.016
0	0.4	308.15	1003.151	1.006
0.0098	0.4029	308.15	1004.412	1.01
0.0203	0.3989	308.15	1005.849	1.011
0.0299	0.4032	308.15	1007.264	1.013
0.0399	0.4004	308.15	1008.852	1.015
0.0501	0.403	308.15	1010.594	1.015
0.0599	0.4039	308.15	1012.289	1.016
0	0.5	288.15	1011.06	1.01
0.0098	0.5035	288.15	1012.248	1.009
0.0199	0.5046	288.15	1013.578	1.011
0.0293	0.5021	288.15	1014.892	1.013
0.0393	0.5022	288.15	1016.428	1.013
0.0488	0.5052	288.15	1017.984	1.018
0.0602	0.4958	288.15	1020.076	1.022
0	0.5	293.15	1010.065	1.008
0.0098	0.5035	293.15	1011.245	1.009
0.0199	0.5046	293.15	1012.571	1.011
0.0293	0.5021	293.15	1013.877	1.012
0.0393	0.5022	293.15	1015.402	1.013
0.0488	0.5052	293.15	1016.946	1.018
0.0602	0.4958	293.15	1019.017	1.02
0	0.5	298.15	1008.814	1.008
0.0098	0.5035	298.15	1009.989	1.008
0.0199	0.5046	298.15	1011.307	1.011
0.0293	0.5021	298.15	1012.624	1.012
0.0393	0.5022	298.15	1014.131	1.013
0.0488	0.5052	298.15	1015.666	1.017
0.0602	0.4958	298.15	1017.722	1.02
0	0.5	303.15	1007.354	1.008
0.0098	0.5035	303.15	1008.527	1.008
0.0199	0.5046	303.15	1009.837	1.011
0.0293	0.5021	303.15	1011.161	1.012
0.0393	0.5022	303.15	1012.657	1.013
0.0488	0.5052	303.15	1014.175	1.017
0.0602	0.4958	303.15	1016.217	1.02
0	0.5	308.15	1005.79	1.01
0.0098	0.5035	308.15	1006.963	1.008
0.0199	0.5046	308.15	1008.252	1.01
0.0293	0.5021	308.15	1009.534	1.012
0.0393	0.5022	308.15	1011.025	1.012
0.0488	0.5052	308.15	1012.529	1.016
0.0602	0.4958	308.15	1014.507	1.02

System: (2R,3R)-5,7-dihydroxy-2-(3,4,5-trihydroxyphenyl)chroman-3-yl 3,4,5-trihydroxybenzoate + lithium chloride + water; phases: Liquid
Fixed: Pressure, kPa = 100
Property: Viscosity, Pa*s (Liquid); method: Falling or rolling sphere viscometry
Molality, mol/kg of (2R,3R)-5,7-dihydroxy-2-(3,4,5-trihydroxyphenyl)chroman-3-yl 3,4,5-trihydroxybenzoate	Solvent: Molality, mol/kg of lithium chloride	Temperature, K	Viscosity, Pa*s	uncertainty
0	0	288.15	0.001145	1.4e-05
0.0099	0	288.15	0.001148	1.4e-05
0.02	0	288.15	0.001158	1.4e-05
0.0298	0	288.15	0.001171	1.5e-05
0.0399	0	288.15	0.001187	1.5e-05
0.0499	0	288.15	0.001203	1.5e-05
0.0601	0	288.15	0.001222	1.5e-05
0	0.1	288.15	0.001146	1.4e-05
0.01	0.0996	288.15	0.001158	1.4e-05
0.02	0.1037	288.15	0.001174	1.5e-05
0.0299	0.1002	288.15	0.001186	1.5e-05
0.0399	0.0955	288.15	0.001203	1.5e-05
0.0503	0.0988	288.15	0.001222	1.5e-05
0.0603	0.0991	288.15	0.001256	1.6e-05
0	0.2	288.15	0.001154	1.4e-05
0.01	0.1977	288.15	0.001178	1.5e-05
0.0199	0.1994	288.15	0.001193	1.5e-05
0.0298	0.1996	288.15	0.001207	1.5e-05
0.0396	0.1986	288.15	0.001226	1.5e-05
0.0495	0.2009	288.15	0.001243	1.5e-05
0.06	0.1983	288.15	0.001263	1.6e-05
0	0.3	288.15	0.001169	1.5e-05
0.0099	0.3021	288.15	0.001197	1.5e-05
0.0203	0.303	288.15	0.00121	1.5e-05
0.0299	0.3038	288.15	0.001228	1.5e-05
0.0396	0.2996	288.15	0.001243	1.5e-05
0.0499	0.2972	288.15	0.001261	1.6e-05
0.0604	0.3005	288.15	0.001281	1.6e-05
0	0.4	288.15	0.001183	1.5e-05
0.0098	0.4029	288.15	0.001216	1.5e-05
0.0203	0.3989	288.15	0.001225	1.5e-05
0.0299	0.4032	288.15	0.001248	1.6e-05
0.0399	0.4004	288.15	0.001264	1.6e-05
0.0501	0.403	288.15	0.001284	1.6e-05
0.0599	0.4039	288.15	0.0013	1.6e-05
0	0.5	288.15	0.001201	1.5e-05
0.0098	0.5035	288.15	0.001238	1.5e-05
0.0199	0.5046	288.15	0.001248	1.6e-05
0.0293	0.5021	288.15	0.001265	1.6e-05
0.0393	0.5022	288.15	0.001283	1.6e-05
0.0488	0.5052	288.15	0.001309	1.6e-05
0.0602	0.4958	288.15	0.001324	1.6e-05
0	0.1	293.15	0.001011	1.3e-05
0.01	0.0996	293.15	0.001023	1.3e-05
0.02	0.1037	293.15	0.001036	1.3e-05
0.0299	0.1002	293.15	0.001047	1.3e-05
0.0399	0.0955	293.15	0.001061	1.3e-05
0.0503	0.0988	293.15	0.001079	1.4e-05
0.0603	0.0991	293.15	0.001105	1.4e-05
0	0.2	293.15	0.001019	1.3e-05
0.01	0.1977	293.15	0.00104	1.3e-05
0.0199	0.1994	293.15	0.001052	1.3e-05
0.0298	0.1996	293.15	0.001065	1.3e-05
0.0396	0.1986	293.15	0.001081	1.3e-05
0.0495	0.2009	293.15	0.001097	1.4e-05
0.06	0.1983	293.15	0.001113	1.4e-05
0	0.3	293.15	0.001033	1.3e-05
0.0099	0.3021	293.15	0.001057	1.3e-05
0.0203	0.303	293.15	0.001069	1.3e-05
0.0299	0.3038	293.15	0.001085	1.4e-05
0.0396	0.2996	293.15	0.001096	1.4e-05
0.0499	0.2972	293.15	0.001112	1.4e-05
0.0604	0.3005	293.15	0.00113	1.4e-05
0	0.4	293.15	0.001045	1.3e-05
0.0098	0.4029	293.15	0.001074	1.3e-05
0.0203	0.3989	293.15	0.001082	1.3e-05
0.0299	0.4032	293.15	0.001102	1.4e-05
0.0399	0.4004	293.15	0.001116	1.4e-05
0.0501	0.403	293.15	0.001133	1.4e-05
0.0599	0.4039	293.15	0.001147	1.4e-05
0	0	293.15	0.00101	1.3e-05
0.0099	0	293.15	0.001014	1.3e-05
0.02	0	293.15	0.001021	1.3e-05
0.0298	0	293.15	0.001034	1.3e-05
0.0399	0	293.15	0.001049	1.3e-05
0.0499	0	293.15	0.001062	1.3e-05
0.0601	0	293.15	0.001079	1.4e-05
0	0.5	293.15	0.001061	1.3e-05
0.0098	0.5035	293.15	0.001092	1.4e-05
0.0199	0.5046	293.15	0.001102	1.4e-05
0.0293	0.5021	293.15	0.001115	1.4e-05
0.0393	0.5022	293.15	0.001133	1.4e-05
0.0488	0.5052	293.15	0.001155	1.4e-05
0.0602	0.4958	293.15	0.001169	1.5e-05
0	0.2	298.15	0.000909	1.1e-05
0.01	0.1977	298.15	0.000926	1.2e-05
0.0199	0.1994	298.15	0.000938	1.2e-05
0.0298	0.1996	298.15	0.000949	1.2e-05
0.0396	0.1986	298.15	0.000964	1.2e-05
0.0495	0.2009	298.15	0.000977	1.2e-05
0.06	0.1983	298.15	0.000992	1.2e-05
0	0.3	298.15	0.000921	1.2e-05
0.0099	0.3021	298.15	0.000943	1.2e-05
0.0203	0.303	298.15	0.000951	1.2e-05
0.0299	0.3038	298.15	0.000966	1.2e-05
0.0396	0.2996	298.15	0.000978	1.2e-05
0.0499	0.2972	298.15	0.000991	1.2e-05
0.0604	0.3005	298.15	0.001007	1.3e-05
0	0.4	298.15	0.000932	1.2e-05
0.0098	0.4029	298.15	0.000956	1.2e-05
0.0203	0.3989	298.15	0.000965	1.2e-05
0.0299	0.4032	298.15	0.000981	1.2e-05
0.0399	0.4004	298.15	0.000994	1.2e-05
0.0501	0.403	298.15	0.00101	1.3e-05
0.0599	0.4039	298.15	0.001023	1.3e-05
0	0	298.15	0.000896	1.1e-05
0.0099	0	298.15	0.000906	1.1e-05
0.02	0	298.15	0.000911	1.1e-05
0.0298	0	298.15	0.00092	1.1e-05
0.0399	0	298.15	0.000934	1.2e-05
0.0499	0	298.15	0.000945	1.2e-05
0.0601	0	298.15	0.000959	1.2e-05
0	0.1	298.15	0.000898	1.1e-05
0.01	0.0996	298.15	0.000912	1.1e-05
0.02	0.1037	298.15	0.000924	1.1e-05
0.0299	0.1002	298.15	0.000933	1.2e-05
0.0399	0.0955	298.15	0.000946	1.2e-05
0.0503	0.0988	298.15	0.000962	1.2e-05
0.0603	0.0991	298.15	0.000975	1.2e-05
0	0.5	298.15	0.000948	1.2e-05
0.0098	0.5035	298.15	0.000975	1.2e-05
0.0199	0.5046	298.15	0.000984	1.2e-05
0.0293	0.5021	298.15	0.000992	1.2e-05
0.0393	0.5022	298.15	0.00101	1.3e-05
0.0488	0.5052	298.15	0.00103	1.3e-05
0.0602	0.4958	298.15	0.001042	1.3e-05
0	0.3	303.15	0.00083	1e-05
0.0099	0.3021	303.15	0.000848	1.1e-05
0.0203	0.303	303.15	0.000856	1.1e-05
0.0299	0.3038	303.15	0.00087	1.1e-05
0.0396	0.2996	303.15	0.000879	1.1e-05
0.0499	0.2972	303.15	0.000892	1.1e-05
0.0604	0.3005	303.15	0.000905	1.1e-05
0	0.4	303.15	0.00084	1.1e-05
0.0098	0.4029	303.15	0.000861	1.1e-05
0.0203	0.3989	303.15	0.000869	1.1e-05
0.0299	0.4032	303.15	0.000883	1.1e-05
0.0399	0.4004	303.15	0.000894	1.1e-05
0.0501	0.403	303.15	0.000909	1.1e-05
0.0599	0.4039	303.15	0.000919	1.1e-05
0	0	303.15	0.000801	1e-05
0.0099	0	303.15	0.000815	1e-05
0.02	0	303.15	0.00082	1e-05
0.0298	0	303.15	0.000827	1e-05
0.0399	0	303.15	0.000838	1e-05
0.0499	0	303.15	0.000849	1.1e-05
0.0601	0	303.15	0.00086	1.1e-05
0	0.1	303.15	0.000809	1e-05
0.01	0.0996	303.15	0.000821	1e-05
0.02	0.1037	303.15	0.000831	1e-05
0.0299	0.1002	303.15	0.000839	1e-05
0.0399	0.0955	303.15	0.000851	1.1e-05
0.0503	0.0988	303.15	0.000866	1.1e-05
0.0603	0.0991	303.15	0.000877	1.1e-05
0	0.2	303.15	0.000818	1e-05
0.01	0.1977	303.15	0.000834	1e-05
0.0199	0.1994	303.15	0.000843	1e-05
0.0298	0.1996	303.15	0.000854	1.1e-05
0.0396	0.1986	303.15	0.000866	1.1e-05
0.0495	0.2009	303.15	0.000879	1.1e-05
0.06	0.1983	303.15	0.000892	1.1e-05
0	0.5	303.15	0.000853	1.1e-05
0.0098	0.5035	303.15	0.000876	1.1e-05
0.0199	0.5046	303.15	0.000885	1.1e-05
0.0293	0.5021	303.15	0.000891	1.1e-05
0.0393	0.5022	303.15	0.000908	1.1e-05
0.0488	0.5052	303.15	0.000927	1.2e-05
0.0602	0.4958	303.15	0.000937	1.2e-05
0	0.4	308.15	0.000762	1e-05
0.0098	0.4029	308.15	0.000781	1e-05
0.0203	0.3989	308.15	0.000789	1e-05
0.0299	0.4032	308.15	0.000801	1e-05
0.0399	0.4004	308.15	0.000812	1e-05
0.0501	0.403	308.15	0.000824	1e-05
0.0599	0.4039	308.15	0.000834	1e-05
0	0	308.15	0.000721	9e-06
0.0099	0	308.15	0.000739	9e-06
0.02	0	308.15	0.000744	9e-06
0.0298	0	308.15	0.00075	9e-06
0.0399	0	308.15	0.000759	9e-06
0.0499	0	308.15	0.000769	1e-05
0.0601	0	308.15	0.000778	1e-05
0	0.1	308.15	0.000735	9e-06
0.01	0.0996	308.15	0.000746	9e-06
0.02	0.1037	308.15	0.000754	9e-06
0.0299	0.1002	308.15	0.00076	9e-06
0.0399	0.0955	308.15	0.000772	1e-05
0.0503	0.0988	308.15	0.000786	1e-05
0.0603	0.0991	308.15	0.000794	1e-05
0	0.2	308.15	0.000743	9e-06
0.01	0.1977	308.15	0.000757	9e-06
0.0199	0.1994	308.15	0.000765	1e-05
0.0298	0.1996	308.15	0.000775	1e-05
0.0396	0.1986	308.15	0.000786	1e-05
0.0495	0.2009	308.15	0.000797	1e-05
0.06	0.1983	308.15	0.000809	1e-05
0	0.3	308.15	0.000753	9e-06
0.0099	0.3021	308.15	0.00077	1e-05
0.0203	0.303	308.15	0.000777	1e-05
0.0299	0.3038	308.15	0.00079	1e-05
0.0396	0.2996	308.15	0.000797	1e-05
0.0499	0.2972	308.15	0.000809	1e-05
0.0604	0.3005	308.15	0.00082	1e-05
0	0.5	308.15	0.000774	1e-05
0.0098	0.5035	308.15	0.000795	1e-05
0.0199	0.5046	308.15	0.000803	1e-05
0.0293	0.5021	308.15	0.000808	1e-05
0.0393	0.5022	308.15	0.000822	1e-05
0.0488	0.5052	308.15	0.000841	1.1e-05
0.0602	0.4958	308.15	0.000849	1.1e-05

System: (2R,3R)-5,7-dihydroxy-2-(3,4,5-trihydroxyphenyl)chroman-3-yl 3,4,5-trihydroxybenzoate + sodium chloride + water; phases: Liquid
Fixed: Pressure, kPa = 100
Property: Mass density, kg/m3 (Liquid); method: Vibrating tube method
Molality, mol/kg of (2R,3R)-5,7-dihydroxy-2-(3,4,5-trihydroxyphenyl)chroman-3-yl 3,4,5-trihydroxybenzoate	Solvent: Molality, mol/kg of sodium chloride	Temperature, K	Mass density, kg/m3	uncertainty
0	0	288.15	999.099	1.016
0.0099	0	288.15	1000.712	1.016
0.02	0	288.15	1002.356	1.016
0.0298	0	288.15	1003.966	1.016
0.0399	0	288.15	1005.631	1.016
0.0499	0	288.15	1007.26	1.02
0.0601	0	288.15	1008.94	1.02
0	0	293.15	998.205	1.017
0.0099	0	293.15	999.804	1.015
0.02	0	293.15	1001.441	1.015
0.0298	0	293.15	1003.036	1.016
0.0399	0	293.15	1004.683	1.015
0.0499	0	293.15	1006.291	1.015
0.0601	0	293.15	1007.934	1.014
0	0	298.15	997.046	1.017
0.0099	0	298.15	998.637	1.015
0.02	0	298.15	1000.257	1.015
0.0298	0	298.15	1001.831	1.015
0.0399	0	298.15	1003.467	1.015
0.0499	0	298.15	1005.052	1.015
0.0601	0	298.15	1006.689	1.014
0	0	303.15	995.644	1.016
0.0099	0	303.15	997.228	1.015
0.02	0	303.15	998.831	1.015
0.0298	0	303.15	1000.395	1.015
0.0399	0	303.15	1002.014	1.015
0.0499	0	303.15	1003.597	1.015
0.0601	0	303.15	1005.217	1.014
0	0	308.15	994.024	1.015
0.0099	0	308.15	995.598	1.015
0.02	0	308.15	997.195	1.015
0.0298	0	308.15	998.752	1.015
0.0399	0	308.15	1000.358	1.015
0.0499	0	308.15	1001.925	1.015
0.0601	0	308.15	1003.529	1.015
0	0.1	288.15	1003.32	1.01
0.01	0.0987	288.15	1004.791	1.013
0.0199	0.1037	288.15	1006.301	1.014
0.0297	0.1002	288.15	1007.792	1.017
0.0401	0.0955	288.15	1009.403	1.015
0.0497	0.0988	288.15	1010.9	1
0.06	0.0991	288.15	1012.556	1.017
0	0.1	293.15	1002.362	1.015
0.01	0.0987	293.15	1003.825	1.012
0.0199	0.1037	293.15	1005.325	1.013
0.0297	0.1002	293.15	1006.792	1.017
0.0401	0.0955	293.15	1008.403	1.015
0.0497	0.0988	293.15	1009.877	1.014
0.06	0.0991	293.15	1011.518	1.015
0	0.1	298.15	1001.151	1.015
0.01	0.0987	298.15	1002.605	1.012
0.0199	0.1037	298.15	1004.091	1.013
0.0297	0.1002	298.15	1005.552	1.016
0.0401	0.0955	298.15	1007.136	1.014
0.0497	0.0988	298.15	1008.603	1.014
0.06	0.0991	298.15	1010.225	1.015
0	0.1	303.15	999.711	1.015
0.01	0.0987	303.15	1001.158	1.012
0.0199	0.1037	303.15	1002.635	1.013
0.0297	0.1002	303.15	1004.086	1.016
0.0401	0.0955	303.15	1005.657	1.014
0.0497	0.0988	303.15	1007.105	1.013
0.06	0.0991	303.15	1008.72	1.01
0	0.1	308.15	998.058	1.014
0.01	0.0987	308.15	999.502	1.012
0.0199	0.1037	308.15	1000.965	1.013
0.0297	0.1002	308.15	1002.412	1.016
0.0401	0.0955	308.15	1003.962	1.014
0.0497	0.0988	308.15	1005.401	1.013
0.06	0.0991	308.15	1006.994	1.015
0	0.2	288.15	1007.43	1.01
0.0099	0.1977	288.15	1008.802	1.013
0.0199	0.1994	288.15	1010.251	1.013
0.03	0.1996	288.15	1011.755	1.014
0.0401	0.1986	288.15	1013.289	1.015
0.0501	0.2009	288.15	1014.928	1.016
0.0605	0.1983	288.15	1016.619	1.016
0	0.2	293.15	1006.418	1.015
0.0099	0.1977	293.15	1007.781	1.012
0.0199	0.1994	293.15	1009.212	1.013
0.03	0.1996	293.15	1010.709	1.014
0.0401	0.1986	293.15	1012.233	1.014
0.0501	0.2009	293.15	1013.821	1.016
0.0605	0.1983	293.15	1015.535	1.016
0	0.2	298.15	1005.144	1.014
0.0099	0.1977	298.15	1006.495	1.012
0.0199	0.1994	298.15	1007.921	1.012
0.03	0.1996	298.15	1009.413	1.014
0.0401	0.1986	298.15	1010.922	1.014
0.0501	0.2009	298.15	1012.518	1.015
0.0605	0.1983	298.15	1014.168	1.015
0	0.2	303.15	1003.651	1.014
0.0099	0.1977	303.15	1005.001	1.012
0.0199	0.1994	303.15	1006.402	1.012
0.03	0.1996	303.15	1007.857	1.014
0.0401	0.1986	303.15	1009.392	1.014
0.0501	0.2009	303.15	1010.96	1.01
0.0605	0.1983	303.15	1012.565	1.015
0	0.2	308.15	1001.984	1.014
0.0099	0.1977	308.15	1003.327	1.012
0.0199	0.1994	308.15	1004.717	1.012
0.03	0.1996	308.15	1006.161	1.013
0.0401	0.1986	308.15	1007.653	1.013
0.0501	0.2009	308.15	1009.181	1.014
0.0605	0.1983	308.15	1010.803	1.015
0	0.3	288.15	1011.33	1.01
0.0099	0.3014	288.15	1012.565	1.011
0.0199	0.3025	288.15	1013.933	1.012
0.0292	0.3038	288.15	1015.293	1.015
0.0392	0.2996	288.15	1016.825	1.017
0.0504	0.2972	288.15	1018.669	1.017
0.0605	0.3005	288.15	1020.451	1.017
0	0.3	293.15	1010.266	1.009
0.0099	0.3014	293.15	1011.496	1.01
0.0199	0.3025	293.15	1012.849	1.012
0.0292	0.3038	293.15	1014.185	1.015
0.0392	0.2996	293.15	1015.706	1.017
0.0504	0.2972	293.15	1017.54	1.02
0.0605	0.3005	293.15	1019.31	1.02
0	0.3	298.15	1008.961	1.009
0.0099	0.3014	298.15	1010.181	1.01
0.0199	0.3025	298.15	1011.537	1.011
0.0292	0.3038	298.15	1012.844	1.014
0.0392	0.2996	298.15	1014.351	1.017
0.0504	0.2972	298.15	1016.174	1.016
0.0605	0.3005	298.15	1017.93	1.01
0	0.3	303.15	1007.441	1.009
0.0099	0.3014	303.15	1008.657	1.01
0.0199	0.3025	303.15	1009.977	1.011
0.0292	0.3038	303.15	1011.294	1.014
0.0392	0.2996	303.15	1012.784	1.017
0.0504	0.2972	303.15	1014.593	1.016
0.0605	0.3005	303.15	1016.268	1.014
0	0.3	308.15	1005.725	1.008
0.0099	0.3014	308.15	1006.935	1.01
0.0199	0.3025	308.15	1008.247	1.011
0.0292	0.3038	308.15	1009.543	1.014
0.0392	0.2996	308.15	1011.023	1.016
0.0504	0.2972	308.15	1012.818	1.015
0.0605	0.3005	308.15	1014.486	1.015
0	0.4	288.15	1015.655	1.01
0.0101	0.4029	288.15	1016.769	1.009
0.02	0.4029	288.15	1018.051	1.012
0.0299	0.4032	288.15	1019.425	1.015
0.0399	0.4004	288.15	1021.048	1.016
0.049	0.403	288.15	1022.538	1.015
0.0586	0.404	288.15	1024.168	1.019
0	0.4	293.15	1014.527	1.009
0.0101	0.4029	293.15	1015.637	1.009
0.02	0.4029	293.15	1016.91	1.01
0.0299	0.4032	293.15	1018.273	1.015
0.0399	0.4004	293.15	1019.88	1.02
0.049	0.403	293.15	1021.355	1.015
0.0586	0.404	293.15	1022.976	1.017
0	0.4	298.15	1013.163	1.009
0.0101	0.4029	298.15	1014.272	1.009
0.02	0.4029	298.15	1015.529	1.011
0.0299	0.4032	298.15	1016.89	1.01
0.0399	0.4004	298.15	1018.482	1.016
0.049	0.403	298.15	1019.946	1.015
0.0586	0.404	298.15	1021.552	1.017
0	0.4	303.15	1011.602	1.009
0.0101	0.4029	303.15	1012.709	1.009
0.02	0.4029	303.15	1013.94	1.01
0.0299	0.4032	303.15	1015.301	1.014
0.0399	0.4004	303.15	1016.876	1.015
0.049	0.403	303.15	1018.329	1.015
0.0586	0.404	303.15	1019.926	1.016
0	0.4	308.15	1009.851	1.009
0.0101	0.4029	308.15	1010.95	1.01
0.02	0.4029	308.15	1012.167	1.011
0.0299	0.4032	308.15	1013.542	1.014
0.0399	0.4004	308.15	1015.082	1.015
0.049	0.403	308.15	1016.515	1.014
0.0586	0.404	308.15	1018.113	1.017
0	0.5	288.15	1019.408	1.007
0.0099	0.5011	288.15	1020.404	1.009
0.0195	0.4986	288.15	1021.565	1.011
0.0302	0.501	288.15	1023.054	1.013
0.0401	0.5006	288.15	1024.588	1.015
0.0499	0.5052	288.15	1026.305	1.022
0.0603	0.4958	288.15	1028.403	1.031
0	0.5	293.15	1018.236	1.008
0.0099	0.5011	293.15	1019.229	1.009
0.0195	0.4986	293.15	1020.355	1.011
0.0302	0.501	293.15	1021.815	1.013
0.0401	0.5006	293.15	1023.371	1.015
0.0499	0.5052	293.15	1025.039	1.021
0.0603	0.4958	293.15	1027.037	1.028
0	0.5	298.15	1016.834	1.008
0.0099	0.5011	298.15	1017.829	1.009
0.0195	0.4986	298.15	1018.919	1.011
0.0302	0.501	298.15	1020.365	1.013
0.0401	0.5006	298.15	1021.915	1.015
0.0499	0.5052	298.15	1023.587	1.021
0.0603	0.4958	298.15	1025.561	1.027
0	0.5	303.15	1015.235	1.008
0.0099	0.5011	303.15	1016.221	1.009
0.0195	0.4986	303.15	1017.31	1.01
0.0302	0.501	303.15	1018.731	1.012
0.0401	0.5006	303.15	1020.251	1.014
0.0499	0.5052	303.15	1021.895	1.02
0.0603	0.4958	303.15	1023.888	1.027
0	0.5	308.15	1013.481	1.007
0.0099	0.5011	308.15	1014.462	1.008
0.0195	0.4986	308.15	1015.541	1.01
0.0302	0.501	308.15	1016.919	1.012
0.0401	0.5006	308.15	1018.399	1.014
0.0499	0.5052	308.15	1020.011	1.02
0.0603	0.4958	308.15	1021.991	1.028

System: (2R,3R)-5,7-dihydroxy-2-(3,4,5-trihydroxyphenyl)chroman-3-yl 3,4,5-trihydroxybenzoate + sodium chloride + water; phases: Liquid
Fixed: Pressure, kPa = 100
Property: Viscosity, Pa*s (Liquid); method: Falling or rolling sphere viscometry
Molality, mol/kg of (2R,3R)-5,7-dihydroxy-2-(3,4,5-trihydroxyphenyl)chroman-3-yl 3,4,5-trihydroxybenzoate	Solvent: Molality, mol/kg of sodium chloride	Temperature, K	Viscosity, Pa*s	uncertainty
0	0.1	288.15	0.001146	1.5e-05
0.01	0.0987	288.15	0.001186	1.5e-05
0.0199	0.1037	288.15	0.001199	1.5e-05
0.0297	0.1002	288.15	0.001213	1.5e-05
0.0401	0.0955	288.15	0.001228	1.5e-05
0.0497	0.0988	288.15	0.001245	1.6e-05
0.06	0.0991	288.15	0.001265	1.6e-05
0	0.1	293.15	0.001011	1.3e-05
0.01	0.0987	293.15	0.001047	1.3e-05
0.0199	0.1037	293.15	0.001058	1.3e-05
0.0297	0.1002	293.15	0.00107	1.3e-05
0.0401	0.0955	293.15	0.001084	1.4e-05
0.0497	0.0988	293.15	0.001095	1.4e-05
0.06	0.0991	293.15	0.001117	1.4e-05
0	0.1	298.15	0.000892	1.1e-05
0.01	0.0987	298.15	0.000924	1.2e-05
0.0199	0.1037	298.15	0.000935	1.2e-05
0.0297	0.1002	298.15	0.000945	1.2e-05
0.0401	0.0955	298.15	0.000956	1.2e-05
0.0497	0.0988	298.15	0.000967	1.2e-05
0.06	0.0991	298.15	0.000983	1.2e-05
0	0.1	303.15	0.000804	1e-05
0.01	0.0987	303.15	0.000832	1.1e-05
0.0199	0.1037	303.15	0.000842	1.1e-05
0.0297	0.1002	303.15	0.000851	1.1e-05
0.0401	0.0955	303.15	0.000859	1.1e-05
0.0497	0.0988	303.15	0.00087	1.1e-05
0.06	0.0991	303.15	0.000884	1.1e-05
0	0.1	308.15	0.00073	9e-06
0.01	0.0987	308.15	0.000755	1e-05
0.0199	0.1037	308.15	0.000764	1e-05
0.0297	0.1002	308.15	0.000772	1e-05
0.0401	0.0955	308.15	0.00078	1e-05
0.0497	0.0988	308.15	0.000789	1e-05
0.06	0.0991	308.15	0.000802	1e-05
0	0.2	288.15	0.001149	1.5e-05
0.0099	0.1977	288.15	0.001196	1.5e-05
0.0199	0.1994	288.15	0.001206	1.5e-05
0.03	0.1996	288.15	0.001224	1.5e-05
0.0401	0.1986	288.15	0.001239	1.6e-05
0.0501	0.2009	288.15	0.001254	1.6e-05
0.0605	0.1983	288.15	0.00128	1.6e-05
0	0.2	293.15	0.001016	1.3e-05
0.0099	0.1977	293.15	0.001058	1.3e-05
0.0199	0.1994	293.15	0.001068	1.3e-05
0.03	0.1996	293.15	0.001081	1.4e-05
0.0401	0.1986	293.15	0.001095	1.4e-05
0.0501	0.2009	293.15	0.001107	1.4e-05
0.0605	0.1983	293.15	0.001127	1.4e-05
0	0.2	298.15	0.000901	1.2e-05
0.0099	0.1977	298.15	0.000937	1.2e-05
0.0199	0.1994	298.15	0.000948	1.2e-05
0.03	0.1996	298.15	0.000958	1.2e-05
0.0401	0.1986	298.15	0.000971	1.2e-05
0.0501	0.2009	298.15	0.000982	1.2e-05
0.0605	0.1983	298.15	0.000998	1.3e-05
0	0.2	303.15	0.000812	1.1e-05
0.0099	0.1977	303.15	0.000844	1.1e-05
0.0199	0.1994	303.15	0.000855	1.1e-05
0.03	0.1996	303.15	0.000864	1.1e-05
0.0401	0.1986	303.15	0.000874	1.1e-05
0.0501	0.2009	303.15	0.000885	1.1e-05
0.0605	0.1983	303.15	0.000899	1.1e-05
0	0.2	308.15	0.000738	1e-05
0.0099	0.1977	308.15	0.000765	1e-05
0.0199	0.1994	308.15	0.000777	1e-05
0.03	0.1996	308.15	0.000784	1e-05
0.0401	0.1986	308.15	0.000793	1e-05
0.0501	0.2009	308.15	0.000802	1e-05
0.0605	0.1983	308.15	0.000817	1e-05
0	0.3	288.15	0.001151	1.5e-05
0.0099	0.3014	288.15	0.001202	1.5e-05
0.0199	0.3025	288.15	0.001215	1.5e-05
0.0292	0.3038	288.15	0.00123	1.5e-05
0.0392	0.2996	288.15	0.001245	1.6e-05
0.0504	0.2972	288.15	0.001263	1.6e-05
0.0605	0.3005	288.15	0.001282	1.6e-05
0	0.3	293.15	0.001019	1.3e-05
0.0099	0.3014	293.15	0.001063	1.4e-05
0.0199	0.3025	293.15	0.001075	1.3e-05
0.0292	0.3038	293.15	0.001087	1.4e-05
0.0392	0.2996	293.15	0.001101	1.4e-05
0.0504	0.2972	293.15	0.001116	1.4e-05
0.0605	0.3005	293.15	0.001132	1.4e-05
0	0.3	298.15	0.00091	1.2e-05
0.0099	0.3014	298.15	0.000949	1.2e-05
0.0199	0.3025	298.15	0.00096	1.2e-05
0.0292	0.3038	298.15	0.00097	1.2e-05
0.0392	0.2996	298.15	0.000983	1.2e-05
0.0504	0.2972	298.15	0.000996	1.2e-05
0.0605	0.3005	298.15	0.001011	1.3e-05
0	0.3	303.15	0.00082	1.1e-05
0.0099	0.3014	303.15	0.000854	1.1e-05
0.0199	0.3025	303.15	0.000864	1.1e-05
0.0292	0.3038	303.15	0.000873	1.1e-05
0.0392	0.2996	303.15	0.000885	1.1e-05
0.0504	0.2972	303.15	0.000897	1.1e-05
0.0605	0.3005	303.15	0.000911	1.2e-05
0	0.3	308.15	0.000745	1e-05
0.0099	0.3014	308.15	0.000776	1e-05
0.0199	0.3025	308.15	0.000784	1e-05
0.0292	0.3038	308.15	0.000794	1e-05
0.0392	0.2996	308.15	0.000804	1e-05
0.0504	0.2972	308.15	0.000814	1e-05
0.0605	0.3005	308.15	0.000828	1e-05
0	0.4	288.15	0.001158	1.5e-05
0.0101	0.4029	288.15	0.001211	1.5e-05
0.02	0.4029	288.15	0.001226	1.5e-05
0.0299	0.4032	288.15	0.001242	1.6e-05
0.0399	0.4004	288.15	0.001259	1.6e-05
0.049	0.403	288.15	0.001276	1.6e-05
0.0586	0.404	288.15	0.001291	1.6e-05
0	0.4	293.15	0.001026	1.3e-05
0.0101	0.4029	293.15	0.001072	1.4e-05
0.02	0.4029	293.15	0.001084	1.4e-05
0.0299	0.4032	293.15	0.0011	1.4e-05
0.0399	0.4004	293.15	0.001115	1.4e-05
0.049	0.403	293.15	0.001127	1.4e-05
0.0586	0.404	293.15	0.001143	1.4e-05
0	0.4	298.15	0.000917	1.2e-05
0.0101	0.4029	298.15	0.000958	1.2e-05
0.02	0.4029	298.15	0.000969	1.2e-05
0.0299	0.4032	298.15	0.000982	1.2e-05
0.0399	0.4004	298.15	0.000996	1.2e-05
0.049	0.403	298.15	0.001007	1.3e-05
0.0586	0.404	298.15	0.001021	1.3e-05
0	0.4	303.15	0.000827	1.1e-05
0.0101	0.4029	303.15	0.000863	1.1e-05
0.02	0.4029	303.15	0.000873	1.1e-05
0.0299	0.4032	303.15	0.000885	1.1e-05
0.0399	0.4004	303.15	0.000898	1.1e-05
0.049	0.403	303.15	0.000908	1.1e-05
0.0586	0.404	303.15	0.00092	1.2e-05
0	0.4	308.15	0.000751	1e-05
0.0101	0.4029	308.15	0.000782	1e-05
0.02	0.4029	308.15	0.000792	1e-05
0.0299	0.4032	308.15	0.000803	1e-05
0.0399	0.4004	308.15	0.000814	1e-05
0.049	0.403	308.15	0.000824	1e-05
0.0586	0.404	308.15	0.000835	1e-05
0	0.5	288.15	0.001165	1.6e-05
0.0099	0.5011	288.15	0.001221	1.6e-05
0.0195	0.4986	288.15	0.001237	1.5e-05
0.0302	0.501	288.15	0.00125	1.6e-05
0.0401	0.5006	288.15	0.001268	1.6e-05
0.0499	0.5052	288.15	0.001285	1.6e-05
0.0603	0.4958	288.15	0.001302	1.6e-05
0	0.5	293.15	0.001033	1.4e-05
0.0099	0.5011	293.15	0.001082	1.4e-05
0.0195	0.4986	293.15	0.001095	1.4e-05
0.0302	0.501	293.15	0.001108	1.4e-05
0.0401	0.5006	293.15	0.001124	1.4e-05
0.0499	0.5052	293.15	0.001137	1.4e-05
0.0603	0.4958	293.15	0.001154	1.5e-05
0	0.5	298.15	0.000925	1.2e-05
0.0099	0.5011	298.15	0.000968	1.2e-05
0.0195	0.4986	298.15	0.00098	1.2e-05
0.0302	0.501	298.15	0.000992	1.2e-05
0.0401	0.5006	298.15	0.001005	1.3e-05
0.0499	0.5052	298.15	0.001018	1.3e-05
0.0603	0.4958	298.15	0.001033	1.3e-05
0	0.5	303.15	0.000834	1.1e-05
0.0099	0.5011	303.15	0.000872	1.1e-05
0.0195	0.4986	303.15	0.000883	1.1e-05
0.0302	0.501	303.15	0.000894	1.1e-05
0.0401	0.5006	303.15	0.000907	1.1e-05
0.0499	0.5052	303.15	0.000917	1.2e-05
0.0603	0.4958	303.15	0.000932	1.2e-05
0	0.5	308.15	0.00076	1e-05
0.0099	0.5011	308.15	0.000796	1e-05
0.0195	0.4986	308.15	0.000804	1e-05
0.0302	0.501	308.15	0.000817	1e-05
0.0401	0.5006	308.15	0.000824	1e-05
0.0499	0.5052	308.15	0.000834	1e-05
0.0603	0.4958	308.15	0.000847	1.1e-05
0	0	288.15	0.001145	1.4e-05
0.0099	0	288.15	0.001148	1.4e-05
0.02	0	288.15	0.001158	1.4e-05
0.0298	0	288.15	0.001171	1.5e-05
0.0399	0	288.15	0.001187	1.5e-05
0.0499	0	288.15	0.001203	1.5e-05
0.0601	0	288.15	0.001222	1.5e-05
0	0	293.15	0.00101	1.3e-05
0.0099	0	293.15	0.001014	1.3e-05
0.02	0	293.15	0.001021	1.3e-05
0.0298	0	293.15	0.001034	1.3e-05
0.0399	0	293.15	0.001049	1.3e-05
0.0499	0	293.15	0.001062	1.3e-05
0.0601	0	293.15	0.001079	1.4e-05
0	0	298.15	0.000896	1.1e-05
0.0099	0	298.15	0.000906	1.1e-05
0.02	0	298.15	0.000911	1.1e-05
0.0298	0	298.15	0.00092	1.2e-05
0.0399	0	298.15	0.000934	1.2e-05
0.0499	0	298.15	0.000945	1.2e-05
0.0601	0	298.15	0.000959	1.2e-05
0	0	303.15	0.000801	1e-05
0.0099	0	303.15	0.000815	1e-05
0.02	0	303.15	0.00082	1e-05
0.0298	0	303.15	0.000827	1e-05
0.0399	0	303.15	0.000838	1.1e-05
0.0499	0	303.15	0.000849	1.1e-05
0.0601	0	303.15	0.00086	1.1e-05
0	0	308.15	0.000721	9e-06
0.0099	0	308.15	0.000739	9e-06
0.02	0	308.15	0.000744	9e-06
0.0298	0	308.15	0.00075	9e-06
0.0399	0	308.15	0.000759	1e-05
0.0499	0	308.15	0.000769	1e-05
0.0601	0	308.15	0.000778	1e-05

System: (2R,3R)-5,7-dihydroxy-2-(3,4,5-trihydroxyphenyl)chroman-3-yl 3,4,5-trihydroxybenzoate + potassium chloride + water; phases: Liquid
Fixed: Pressure, kPa = 100
Property: Mass density, kg/m3 (Liquid); method: Vibrating tube method
Molality, mol/kg of (2R,3R)-5,7-dihydroxy-2-(3,4,5-trihydroxyphenyl)chroman-3-yl 3,4,5-trihydroxybenzoate	Solvent: Molality, mol/kg of potassium chloride	Temperature, K	Mass density, kg/m3	uncertainty
0	0	288.15	999.099	1.016
0.0099	0	288.15	1000.712	1.016
0.02	0	288.15	1002.356	1.016
0.0298	0	288.15	1003.966	1.016
0.0399	0	288.15	1005.631	1.016
0.0499	0	288.15	1007.26	1.02
0.0601	0	288.15	1008.94	1.02
0	0	293.15	998.205	1.017
0.0099	0	293.15	999.804	1.016
0.02	0	293.15	1001.441	1.016
0.0298	0	293.15	1003.036	1.016
0.0399	0	293.15	1004.683	1.016
0.0499	0	293.15	1006.291	1.016
0.0601	0	293.15	1007.934	1.015
0	0	298.15	997.046	1.017
0.0099	0	298.15	998.637	1.016
0.02	0	298.15	1000.257	1.015
0.0298	0	298.15	1001.831	1.016
0.0399	0	298.15	1003.467	1.015
0.0499	0	298.15	1005.052	1.015
0.0601	0	298.15	1006.689	1.014
0	0	303.15	995.644	1.017
0.0099	0	303.15	997.228	1.015
0.02	0	303.15	998.831	1.015
0.0298	0	303.15	1000.395	1.015
0.0399	0	303.15	1002.014	1.015
0.0499	0	303.15	1003.597	1.015
0.0601	0	303.15	1005.217	1.014
0	0	308.15	994.024	1.015
0.0099	0	308.15	995.598	1.015
0.02	0	308.15	997.195	1.015
0.0298	0	308.15	998.752	1.015
0.0399	0	308.15	1000.358	1.015
0.0499	0	308.15	1001.925	1.015
0.0601	0	308.15	1003.529	1.015
0	0.1	288.15	1003.845	1.015
0.0103	0.0987	288.15	1005.381	1.015
0.0199	0.0985	288.15	1006.872	1.014
0.0298	0.1006	288.15	1008.429	1.015
0.0399	0.0995	288.15	1010.079	1.017
0.0501	0.1004	288.15	1011.795	1.017
0.06	0.1005	288.15	1013.528	1.023
0	0.1	293.15	1002.916	1.016
0.0103	0.0987	293.15	1004.444	1.015
0.0199	0.0985	293.15	1005.921	1.014
0.0298	0.1006	293.15	1007.429	1.014
0.0399	0.0995	293.15	1009.019	1.016
0.0501	0.1004	293.15	1010.757	1.017
0.06	0.1005	293.15	1012.432	1.019
0	0.1	298.15	1001.71	1.02
0.0103	0.0987	298.15	1003.233	1.014
0.0199	0.0985	298.15	1004.698	1.014
0.0298	0.1006	298.15	1006.192	1.014
0.0399	0.0995	298.15	1007.769	1.016
0.0501	0.1004	298.15	1009.506	1.016
0.06	0.1005	298.15	1011.138	1.018
0	0.1	303.15	1000.277	1.015
0.0103	0.0987	303.15	1001.785	1.014
0.0199	0.0985	303.15	1003.243	1.013
0.0298	0.1006	303.15	1004.713	1.014
0.0399	0.0995	303.15	1006.284	1.015
0.0501	0.1004	303.15	1007.911	1.015
0.06	0.1005	303.15	1009.491	1.019
0	0.1	308.15	998.631	1.014
0.0103	0.0987	308.15	1000.135	1.014
0.0199	0.0985	308.15	1001.568	1.013
0.0298	0.1006	308.15	1003.051	1.014
0.0399	0.0995	308.15	1004.598	1.015
0.0501	0.1004	308.15	1006.214	1.015
0.06	0.1005	308.15	1007.781	1.022
0	0.2	288.15	1008.579	1.019
0.0098	0.1923	288.15	1009.945	1.014
0.0197	0.1987	288.15	1011.459	1.014
0.0296	0.1943	288.15	1013.063	1.019
0.0396	0.2089	288.15	1014.77	1.03
0.0495	0.1944	288.15	1016.54	1.03
0.0592	0.1939	288.15	1018.427	1.013
0	0.2	293.15	1007.578	1.019
0.0098	0.1923	293.15	1008.933	1.014
0.0197	0.1987	293.15	1010.449	1.014
0.0296	0.1943	293.15	1012.036	1.019
0.0396	0.2089	293.15	1013.719	1.033
0.0495	0.1944	293.15	1015.48	1.03
0.0592	0.1939	293.15	1017.357	1.014
0	0.2	298.15	1006.325	1.019
0.0098	0.1923	298.15	1007.674	1.014
0.0197	0.1987	298.15	1009.187	1.014
0.0296	0.1943	298.15	1010.758	1.018
0.0396	0.2089	298.15	1012.424	1.032
0.0495	0.1944	298.15	1014.172	1.025
0.0592	0.1939	298.15	1015.995	1.014
0	0.2	303.15	1004.852	1.019
0.0098	0.1923	303.15	1006.203	1.013
0.0197	0.1987	303.15	1007.675	1.014
0.0296	0.1943	303.15	1009.26	1.02
0.0396	0.2089	303.15	1010.91	1.03
0.0495	0.1944	303.15	1012.645	1.026
0.0592	0.1939	303.15	1014.495	1.014
0	0.2	308.15	1003.193	1.018
0.0098	0.1923	308.15	1004.544	1.013
0.0197	0.1987	308.15	1005.99	1.01
0.0296	0.1943	308.15	1007.557	1.018
0.0396	0.2089	308.15	1009.198	1.03
0.0495	0.1944	308.15	1010.916	1.029
0.0592	0.1939	308.15	1012.753	1.011
0	0.3	288.15	1013.16	1.01
0.01	0.2986	288.15	1014.374	1.011
0.0196	0.3008	288.15	1015.683	1.014
0.0293	0.2987	288.15	1017.246	1.015
0.0393	0.303	288.15	1018.83	1.02
0.0507	0.298	288.15	1020.908	1.022
0.0598	0.2989	288.15	1022.628	1.022
0	0.3	293.15	1012.126	1.011
0.01	0.2986	293.15	1013.34	1.01
0.0196	0.3008	293.15	1014.622	1.014
0.0293	0.2987	293.15	1016.172	1.015
0.0393	0.303	293.15	1017.745	1.018
0.0507	0.298	293.15	1019.799	1.021
0.0598	0.2989	293.15	1021.509	1.02
0	0.3	298.15	1010.84	1.01
0.01	0.2986	298.15	1012.052	1.011
0.0196	0.3008	298.15	1013.319	1.013
0.0293	0.2987	298.15	1014.856	1.014
0.0393	0.303	298.15	1016.415	1.017
0.0507	0.298	298.15	1018.454	1.021
0.0598	0.2989	298.15	1020.15	1.02
0	0.3	303.15	1009.341	1.011
0.01	0.2986	303.15	1010.546	1.01
0.0196	0.3008	303.15	1011.82	1.01
0.0293	0.2987	303.15	1013.323	1.014
0.0393	0.303	303.15	1014.87	1.02
0.0507	0.298	303.15	1016.894	1.02
0.0598	0.2989	303.15	1018.578	1.019
0	0.3	308.15	1007.64	1.01
0.01	0.2986	308.15	1008.842	1.01
0.0196	0.3008	308.15	1010.122	1.013
0.0293	0.2987	308.15	1011.592	1.014
0.0393	0.303	308.15	1013.128	1.017
0.0507	0.298	308.15	1015.14	1.02
0.0598	0.2989	308.15	1016.811	1.02
0	0.4	288.15	1017.859	1.01
0.0099	0.3991	288.15	1018.864	1.01
0.0191	0.3984	288.15	1019.975	1.011
0.0291	0.4028	288.15	1021.424	1.014
0.039	0.3979	288.15	1022.927	1.019
0.0507	0.4014	288.15	1025.197	1.02
0.0603	0.4008	288.15	1026.928	1.023
0	0.4	293.15	1016.768	1.01
0.0099	0.3991	293.15	1017.775	1.009
0.0191	0.3984	293.15	1018.873	1.011
0.0291	0.4028	293.15	1020.303	1.014
0.039	0.3979	293.15	1021.798	1.018
0.0507	0.4014	293.15	1024.029	1.019
0.0603	0.4008	293.15	1025.764	1.02
0	0.4	298.15	1015.432	1.009
0.0099	0.3991	298.15	1016.438	1.009
0.0191	0.3984	298.15	1017.534	1.01
0.0291	0.4028	298.15	1018.948	1.014
0.039	0.3979	298.15	1020.432	1.018
0.0507	0.4014	298.15	1022.627	1.019
0.0603	0.4008	298.15	1024.371	1.02
0	0.4	303.15	1013.886	1.009
0.0099	0.3991	303.15	1014.881	1.009
0.0191	0.3984	303.15	1015.983	1.01
0.0291	0.4028	303.15	1017.383	1.013
0.039	0.3979	303.15	1018.858	1.018
0.0507	0.4014	303.15	1021.024	1.019
0.0603	0.4008	303.15	1022.768	1.02
0	0.4	308.15	1012.179	1.009
0.0099	0.3991	308.15	1013.178	1.009
0.0191	0.3984	308.15	1014.239	1.01
0.0291	0.4028	308.15	1015.624	1.014
0.039	0.3979	308.15	1017.159	1.017
0.0507	0.4014	308.15	1019.255	1.018
0.0603	0.4008	308.15	1020.98	1.02
0	0.5	288.15	1022.324	1.008
0.0099	0.499	288.15	1023.256	1.008
0.0193	0.5029	288.15	1024.353	1.01
0.0289	0.5033	288.15	1025.747	1.015
0.0399	0.5022	288.15	1027.45	1.02
0.0503	0.5016	288.15	1029.574	1.025
0.0591	0.5	288.15	1031.335	1.025
0	0.5	293.15	1021.2	1
0.0099	0.499	293.15	1022.125	1.008
0.0193	0.5029	293.15	1023.209	1.01
0.0289	0.5033	293.15	1024.584	1.014
0.0399	0.5022	293.15	1026.274	1.019
0.0503	0.5016	293.15	1028.37	1.02
0.0591	0.5	293.15	1030.133	1.023
0	0.5	298.15	1019.839	1.008
0.0099	0.499	298.15	1020.761	1.008
0.0193	0.5029	298.15	1021.831	1.01
0.0289	0.5033	298.15	1023.191	1.014
0.0399	0.5022	298.15	1024.87	1.02
0.0503	0.5016	298.15	1026.94	1.02
0.0591	0.5	298.15	1028.703	1.023
0	0.5	303.15	1018.275	1.008
0.0099	0.499	303.15	1019.192	1.008
0.0193	0.5029	303.15	1020.252	1.01
0.0289	0.5033	303.15	1021.594	1.014
0.0399	0.5022	303.15	1023.263	1.019
0.0503	0.5016	303.15	1025.313	1.024
0.0591	0.5	303.15	1027.073	1.023
0	0.5	308.15	1016.52	1.01
0.0099	0.499	308.15	1017.439	1.007
0.0193	0.5029	308.15	1018.48	1.01
0.0289	0.5033	308.15	1019.806	1.014
0.0399	0.5022	308.15	1021.47	1.02
0.0503	0.5016	308.15	1023.495	1.023
0.0591	0.5	308.15	1025.257	1.025

System: (2R,3R)-5,7-dihydroxy-2-(3,4,5-trihydroxyphenyl)chroman-3-yl 3,4,5-trihydroxybenzoate + potassium chloride + water; phases: Liquid
Fixed: Pressure, kPa = 100
Property: Viscosity, Pa*s (Liquid); method: Falling or rolling sphere viscometry
Molality, mol/kg of (2R,3R)-5,7-dihydroxy-2-(3,4,5-trihydroxyphenyl)chroman-3-yl 3,4,5-trihydroxybenzoate	Solvent: Molality, mol/kg of potassium chloride	Temperature, K	Viscosity, Pa*s	uncertainty
0	0	288.15	0.001145	1.4e-05
0.0099	0	288.15	0.001148	1.4e-05
0.02	0	288.15	0.001158	1.4e-05
0.0298	0	288.15	0.001171	1.5e-05
0.0399	0	288.15	0.001187	1.5e-05
0.0499	0	288.15	0.001203	1.5e-05
0.0601	0	288.15	0.001222	1.5e-05
0	0.1	288.15	0.001145	1.5e-05
0.0103	0.0987	288.15	0.001187	1.5e-05
0.0199	0.0985	288.15	0.001211	1.5e-05
0.0298	0.1006	288.15	0.001218	1.5e-05
0.0399	0.0995	288.15	0.001225	1.5e-05
0.0501	0.1004	288.15	0.001249	1.6e-05
0.06	0.1005	288.15	0.001259	1.6e-05
0	0.2	288.15	0.001145	1.5e-05
0.0098	0.1923	288.15	0.001188	1.5e-05
0.0197	0.1987	288.15	0.001211	1.5e-05
0.0296	0.1943	288.15	0.001219	1.5e-05
0.0396	0.2089	288.15	0.001226	1.6e-05
0.0495	0.1944	288.15	0.001256	1.6e-05
0.0592	0.1939	288.15	0.001266	1.6e-05
0	0.3	288.15	0.001145	1.5e-05
0.01	0.2986	288.15	0.00119	1.5e-05
0.0196	0.3008	288.15	0.001212	1.5e-05
0.0293	0.2987	288.15	0.001222	1.5e-05
0.0393	0.303	288.15	0.001227	1.5e-05
0.0507	0.298	288.15	0.001256	1.6e-05
0.0598	0.2989	288.15	0.001282	1.6e-05
0	0.4	288.15	0.001147	1.5e-05
0.0099	0.3991	288.15	0.00119	1.5e-05
0.0191	0.3984	288.15	0.001217	1.5e-05
0.0291	0.4028	288.15	0.001228	1.5e-05
0.039	0.3979	288.15	0.001239	1.6e-05
0.0507	0.4014	288.15	0.001261	1.6e-05
0.0603	0.4008	288.15	0.001291	1.6e-05
0	0.5	288.15	0.001152	1.5e-05
0.0099	0.499	288.15	0.00119	1.5e-05
0.0193	0.5029	288.15	0.001217	1.5e-05
0.0289	0.5033	288.15	0.001228	1.5e-05
0.0399	0.5022	288.15	0.001248	1.6e-05
0.0503	0.5016	288.15	0.001273	1.6e-05
0.0591	0.5	288.15	0.001295	1.6e-05
0	0.1	293.15	0.00101	1.3e-05
0.0103	0.0987	293.15	0.001033	1.3e-05
0.0199	0.0985	293.15	0.001048	1.3e-05
0.0298	0.1006	293.15	0.001058	1.3e-05
0.0399	0.0995	293.15	0.001084	1.4e-05
0.0501	0.1004	293.15	0.001109	1.4e-05
0.06	0.1005	293.15	0.001116	1.4e-05
0	0.2	293.15	0.00101	1.3e-05
0.0098	0.1923	293.15	0.001034	1.3e-05
0.0197	0.1987	293.15	0.001052	1.3e-05
0.0296	0.1943	293.15	0.001061	1.3e-05
0.0396	0.2089	293.15	0.001089	1.4e-05
0.0495	0.1944	293.15	0.001115	1.4e-05
0.0592	0.1939	293.15	0.001118	1.4e-05
0	0.3	293.15	0.001011	1.3e-05
0.01	0.2986	293.15	0.001035	1.3e-05
0.0196	0.3008	293.15	0.001054	1.3e-05
0.0293	0.2987	293.15	0.001064	1.3e-05
0.0393	0.303	293.15	0.001093	1.4e-05
0.0507	0.298	293.15	0.001118	1.4e-05
0.0598	0.2989	293.15	0.001132	1.4e-05
0	0.4	293.15	0.001013	1.3e-05
0.0099	0.3991	293.15	0.001038	1.3e-05
0.0191	0.3984	293.15	0.001055	1.3e-05
0.0291	0.4028	293.15	0.001065	1.3e-05
0.039	0.3979	293.15	0.001094	1.4e-05
0.0507	0.4014	293.15	0.001129	1.4e-05
0.0603	0.4008	293.15	0.001143	1.4e-05
0	0	293.15	0.00101	1.3e-05
0.0099	0	293.15	0.001014	1.3e-05
0.02	0	293.15	0.001021	1.3e-05
0.0298	0	293.15	0.001034	1.3e-05
0.0399	0	293.15	0.001049	1.3e-05
0.0499	0	293.15	0.001062	1.3e-05
0.0601	0	293.15	0.001079	1.4e-05
0	0.5	293.15	0.001027	1.3e-05
0.0099	0.499	293.15	0.00106	1.3e-05
0.0193	0.5029	293.15	0.001076	1.4e-05
0.0289	0.5033	293.15	0.001093	1.4e-05
0.0399	0.5022	293.15	0.001107	1.4e-05
0.0503	0.5016	293.15	0.001136	1.4e-05
0.0591	0.5	293.15	0.001155	1.5e-05
0	0.2	298.15	0.000896	1.1e-05
0.0098	0.1923	298.15	0.000926	1.2e-05
0.0197	0.1987	298.15	0.000941	1.2e-05
0.0296	0.1943	298.15	0.000952	1.2e-05
0.0396	0.2089	298.15	0.000962	1.2e-05
0.0495	0.1944	298.15	0.000975	1.2e-05
0.0592	0.1939	298.15	0.000998	1.3e-05
0	0.3	298.15	0.000897	1.2e-05
0.01	0.2986	298.15	0.000928	1.2e-05
0.0196	0.3008	298.15	0.000941	1.2e-05
0.0293	0.2987	298.15	0.000954	1.2e-05
0.0393	0.303	298.15	0.000965	1.2e-05
0.0507	0.298	298.15	0.000978	1.2e-05
0.0598	0.2989	298.15	0.00101	1.3e-05
0	0.4	298.15	0.000897	1.2e-05
0.0099	0.3991	298.15	0.000929	1.2e-05
0.0191	0.3984	298.15	0.000941	1.2e-05
0.0291	0.4028	298.15	0.000954	1.2e-05
0.039	0.3979	298.15	0.000966	1.2e-05
0.0507	0.4014	298.15	0.000981	1.2e-05
0.0603	0.4008	298.15	0.001017	1.3e-05
0	0	298.15	0.000896	1.1e-05
0.0099	0	298.15	0.000906	1.1e-05
0.02	0	298.15	0.000911	1.1e-05
0.0298	0	298.15	0.00092	1.2e-05
0.0399	0	298.15	0.000934	1.2e-05
0.0499	0	298.15	0.000945	1.2e-05
0.0601	0	298.15	0.000959	1.2e-05
0	0.1	298.15	0.000896	1.1e-05
0.0103	0.0987	298.15	0.000924	1.2e-05
0.0199	0.0985	298.15	0.000934	1.2e-05
0.0298	0.1006	298.15	0.000946	1.2e-05
0.0399	0.0995	298.15	0.000956	1.2e-05
0.0501	0.1004	298.15	0.00097	1.2e-05
0.06	0.1005	298.15	0.000998	1.3e-05
0	0.5	298.15	0.000899	1.1e-05
0.0099	0.499	298.15	0.00093	1.2e-05
0.0193	0.5029	298.15	0.000943	1.2e-05
0.0289	0.5033	298.15	0.000954	1.2e-05
0.0399	0.5022	298.15	0.000968	1.2e-05
0.0503	0.5016	298.15	0.000982	1.3e-05
0.0591	0.5	298.15	0.001023	1.4e-05
0	0.3	303.15	0.000801	1e-05
0.01	0.2986	303.15	0.000832	1.1e-05
0.0196	0.3008	303.15	0.000847	1.1e-05
0.0293	0.2987	303.15	0.000855	1.1e-05
0.0393	0.303	303.15	0.000867	1.1e-05
0.0507	0.298	303.15	0.000873	1.1e-05
0.0598	0.2989	303.15	0.000895	1.2e-05
0	0.4	303.15	0.000801	1e-05
0.0099	0.3991	303.15	0.000834	1.1e-05
0.0191	0.3984	303.15	0.000848	1.1e-05
0.0291	0.4028	303.15	0.000855	1.1e-05
0.039	0.3979	303.15	0.000869	1.1e-05
0.0507	0.4014	303.15	0.00088	1.1e-05
0.0603	0.4008	303.15	0.000897	1.2e-05
0	0	303.15	0.000801	1e-05
0.0099	0	303.15	0.000815	1e-05
0.02	0	303.15	0.00082	1e-05
0.0298	0	303.15	0.000827	1e-05
0.0399	0	303.15	0.000838	1.1e-05
0.0499	0	303.15	0.000849	1.1e-05
0.0601	0	303.15	0.00086	1.1e-05
0	0.1	303.15	0.000801	1e-05
0.0103	0.0987	303.15	0.000826	1.1e-05
0.0199	0.0985	303.15	0.00084	1.1e-05
0.0298	0.1006	303.15	0.000844	1.1e-05
0.0399	0.0995	303.15	0.000859	1.1e-05
0.0501	0.1004	303.15	0.000867	1.1e-05
0.06	0.1005	303.15	0.000885	1.1e-05
0	0.2	303.15	0.000801	1e-05
0.0098	0.1923	303.15	0.00083	1.1e-05
0.0197	0.1987	303.15	0.000847	1.1e-05
0.0296	0.1943	303.15	0.000852	1.1e-05
0.0396	0.2089	303.15	0.000866	1.1e-05
0.0495	0.1944	303.15	0.000871	1.1e-05
0.0592	0.1939	303.15	0.000885	1.1e-05
0	0.5	303.15	0.000802	1e-05
0.0099	0.499	303.15	0.000834	1.1e-05
0.0193	0.5029	303.15	0.000848	1.1e-05
0.0289	0.5033	303.15	0.000856	1.1e-05
0.0399	0.5022	303.15	0.000869	1.1e-05
0.0503	0.5016	303.15	0.000881	1.1e-05
0.0591	0.5	303.15	0.000897	1.2e-05
0	0.4	308.15	0.00073	1e-05
0.0099	0.3991	308.15	0.00076	1e-05
0.0191	0.3984	308.15	0.000772	1e-05
0.0291	0.4028	308.15	0.00078	1e-05
0.039	0.3979	308.15	0.000793	1e-05
0.0507	0.4014	308.15	0.000803	1e-05
0.0603	0.4008	308.15	0.000813	1e-05
0	0	308.15	0.000721	9e-06
0.0099	0	308.15	0.000739	9e-06
0.02	0	308.15	0.000744	9e-06
0.0298	0	308.15	0.00075	9e-06
0.0399	0	308.15	0.000759	1e-05
0.0499	0	308.15	0.000769	1e-05
0.0601	0	308.15	0.000778	1e-05
0	0.1	308.15	0.000722	9e-06
0.0103	0.0987	308.15	0.000743	9e-06
0.0199	0.0985	308.15	0.000759	1e-05
0.0298	0.1006	308.15	0.00077	1e-05
0.0399	0.0995	308.15	0.000782	1e-05
0.0501	0.1004	308.15	0.000785	1e-05
0.06	0.1005	308.15	0.000785	1e-05
0	0.2	308.15	0.000723	9e-06
0.0098	0.1923	308.15	0.000748	1e-05
0.0197	0.1987	308.15	0.000763	1e-05
0.0296	0.1943	308.15	0.000775	1e-05
0.0396	0.2089	308.15	0.000785	1e-05
0.0495	0.1944	308.15	0.000787	1e-05
0.0592	0.1939	308.15	0.00079	1e-05
0	0.3	308.15	0.000726	9e-06
0.01	0.2986	308.15	0.000751	1e-05
0.0196	0.3008	308.15	0.000763	1e-05
0.0293	0.2987	308.15	0.000775	1e-05
0.0393	0.303	308.15	0.000788	1e-05
0.0507	0.298	308.15	0.000791	1e-05
0.0598	0.2989	308.15	0.000805	1e-05
0	0.5	308.15	0.00073	1e-05
0.0099	0.499	308.15	0.000761	1e-05
0.0193	0.5029	308.15	0.000773	1e-05
0.0289	0.5033	308.15	0.000781	1e-05
0.0399	0.5022	308.15	0.000793	1e-05
0.0503	0.5016	308.15	0.000804	1e-05
0.0591	0.5	308.15	0.000813	1e-05

System: (2R,3R)-5,7-dihydroxy-2-(3,4,5-trihydroxyphenyl)chroman-3-yl 3,4,5-trihydroxybenzoate + water; phases: Liquid
Fixed: Pressure, kPa = 100
Property: Mass density, kg/m3 (Liquid); method: Vibrating tube method
Molality, mol/kg of (2R,3R)-5,7-dihydroxy-2-(3,4,5-trihydroxyphenyl)chroman-3-yl 3,4,5-trihydroxybenzoate	Temperature, K	Mass density, kg/m3	uncertainty
0.0099	288.15	1000.712	1.014
0.02	288.15	1002.356	1.014
0.0298	288.15	1003.966	1.014
0.0399	288.15	1005.631	1.014
0.0499	288.15	1007.26	1.01
0.0601	288.15	1008.94	1.01
0.0099	293.15	999.804	1.015
0.02	293.15	1001.441	1.014
0.0298	293.15	1003.036	1.014
0.0399	293.15	1004.683	1.014
0.0499	293.15	1006.291	1.014
0.0601	293.15	1007.934	1.012
0.0099	298.15	998.637	1.015
0.02	298.15	1000.257	1.013
0.0298	298.15	1001.831	1.014
0.0399	298.15	1003.467	1.013
0.0499	298.15	1005.052	1.013
0.0601	298.15	1006.689	1.012
0.0099	303.15	997.228	1.014
0.02	303.15	998.831	1.013
0.0298	303.15	1000.395	1.013
0.0399	303.15	1002.014	1.013
0.0499	303.15	1003.597	1.013
0.0601	303.15	1005.217	1.012
0.0099	308.15	995.598	1.013
0.02	308.15	997.195	1.013
0.0298	308.15	998.752	1.013
0.0399	308.15	1000.358	1.013
0.0499	308.15	1001.925	1.013
0.0601	308.15	1003.529	1.013

System: (2R,3R)-5,7-dihydroxy-2-(3,4,5-trihydroxyphenyl)chroman-3-yl 3,4,5-trihydroxybenzoate + water; phases: Liquid
Fixed: Pressure, kPa = 100
Property: Viscosity, Pa*s (Liquid); method: Falling or rolling sphere viscometry
Molality, mol/kg of (2R,3R)-5,7-dihydroxy-2-(3,4,5-trihydroxyphenyl)chroman-3-yl 3,4,5-trihydroxybenzoate	Temperature, K	Viscosity, Pa*s	uncertainty
0.0099	288.15	0.001148	1.4e-05
0.02	288.15	0.001158	1.4e-05
0.0298	288.15	0.001171	1.5e-05
0.0399	288.15	0.001187	1.5e-05
0.0499	288.15	0.001203	1.5e-05
0.0601	288.15	0.001222	1.5e-05
0.0099	293.15	0.001014	1.3e-05
0.02	293.15	0.001021	1.3e-05
0.0298	293.15	0.001034	1.3e-05
0.0399	293.15	0.001049	1.3e-05
0.0499	293.15	0.001062	1.3e-05
0.0601	293.15	0.001079	1.4e-05
0.0099	298.15	0.000906	1.1e-05
0.02	298.15	0.000911	1.1e-05
0.0298	298.15	0.00092	1.1e-05
0.0399	298.15	0.000934	1.2e-05
0.0499	298.15	0.000945	1.2e-05
0.0601	298.15	0.000959	1.2e-05
0.0099	303.15	0.000815	1e-05
0.02	303.15	0.00082	1e-05
0.0298	303.15	0.000827	1e-05
0.0399	303.15	0.000838	1e-05
0.0499	303.15	0.000849	1.1e-05
0.0601	303.15	0.00086	1.1e-05
0.0099	308.15	0.000739	9e-06
0.02	308.15	0.000744	9e-06
0.0298	308.15	0.00075	9e-06
0.0399	308.15	0.000759	9e-06
0.0499	308.15	0.000769	1e-05
0.0601	308.15	0.000778	1e-05

System: lithium chloride + water; phases: Liquid
Fixed: Pressure, kPa = 100
Property: Mass density, kg/m3 (Liquid); method: Vibrating tube method
Molality, mol/kg of lithium chloride	Temperature, K	Mass density, kg/m3	uncertainty
0.1	288.15	1001.508	1.001
0.1	293.15	1000.582	1.001
0.1	298.15	999.41	1
0.1	303.15	998.003	1.001
0.1	308.15	996.382	1.001
0.2	288.15	1003.996	1.001
0.2	293.15	1003.064	1.001
0.2	298.15	1001.873	1.001
0.2	303.15	1000.451	1.001
0.2	308.15	998.848	1.001
0.3	288.15	1006.335	1.001
0.3	293.15	1005.368	1.001
0.3	298.15	1004.173	1.001
0.3	303.15	1002.753	1.001
0.3	308.15	1001.128	1.001
0.4	288.15	1008.372	1.001
0.4	293.15	1007.405	1.001
0.4	298.15	1006.192	1.001
0.4	303.15	1004.758	1.001
0.4	308.15	1003.151	1.001
0.5	288.15	1011.06	1
0.5	293.15	1010.065	1.001
0.5	298.15	1008.814	1.001
0.5	303.15	1007.354	1.001
0.5	308.15	1005.79	1

System: lithium chloride + water; phases: Liquid
Fixed: Pressure, kPa = 100
Property: Viscosity, Pa*s (Liquid); method: Falling or rolling sphere viscometry
Molality, mol/kg of lithium chloride	Temperature, K	Viscosity, Pa*s	uncertainty
0.1	288.15	0.001146	1.4e-05
0.2	288.15	0.001154	1.4e-05
0.3	288.15	0.001169	1.4e-05
0.4	288.15	0.001183	1.5e-05
0.5	288.15	0.001201	1.5e-05
0.1	293.15	0.001011	1.2e-05
0.2	293.15	0.001019	1.3e-05
0.3	293.15	0.001033	1.3e-05
0.4	293.15	0.001045	1.3e-05
0.5	293.15	0.001061	1.3e-05
0.2	298.15	0.000909	1.1e-05
0.3	298.15	0.000921	1.1e-05
0.4	298.15	0.000932	1.2e-05
0.1	298.15	0.000898	1.1e-05
0.5	298.15	0.000948	1.2e-05
0.3	303.15	0.00083	1e-05
0.4	303.15	0.00084	1e-05
0.1	303.15	0.000809	1e-05
0.2	303.15	0.000818	1e-05
0.5	303.15	0.000853	1.1e-05
0.4	308.15	0.000762	9e-06
0.1	308.15	0.000735	9e-06
0.2	308.15	0.000743	9e-06
0.3	308.15	0.000753	9e-06
0.5	308.15	0.000774	1e-05

System: sodium chloride + water; phases: Liquid
Fixed: Pressure, kPa = 100
Property: Mass density, kg/m3 (Liquid); method: Vibrating tube method
Molality, mol/kg of sodium chloride	Temperature, K	Mass density, kg/m3	uncertainty
0.1	288.15	1003.32	1
0.1	293.15	1002.362	1.002
0.1	298.15	1001.151	1.001
0.1	303.15	999.711	1.001
0.1	308.15	998.058	1.001
0.2	288.15	1007.43	1
0.2	293.15	1006.418	1.002
0.2	298.15	1005.144	1.001
0.2	303.15	1003.651	1.001
0.2	308.15	1001.984	1.001
0.3	288.15	1011.33	1
0.3	293.15	1010.266	1.002
0.3	298.15	1008.961	1.002
0.3	303.15	1007.441	1.002
0.3	308.15	1005.725	1.001
0.4	288.15	1015.655	1.002
0.4	293.15	1014.527	1.002
0.4	298.15	1013.163	1.002
0.4	303.15	1011.602	1.002
0.4	308.15	1009.851	1.001
0.5	288.15	1019.408	1.002
0.5	293.15	1018.236	1.002
0.5	298.15	1016.834	1.002
0.5	303.15	1015.235	1.002
0.5	308.15	1013.481	1.002

System: sodium chloride + water; phases: Liquid
Fixed: Pressure, kPa = 100
Property: Viscosity, Pa*s (Liquid); method: Falling or rolling sphere viscometry
Molality, mol/kg of sodium chloride	Temperature, K	Viscosity, Pa*s	uncertainty
0.1	288.15	0.001146	1.4e-05
0.1	293.15	0.001011	1.2e-05
0.1	298.15	0.000892	1.1e-05
0.1	303.15	0.000804	1e-05
0.1	308.15	0.00073	9e-06
0.2	288.15	0.001149	1.4e-05
0.2	293.15	0.001016	1.3e-05
0.2	298.15	0.000901	1.1e-05
0.2	303.15	0.000812	1e-05
0.2	308.15	0.000738	9e-06
0.3	288.15	0.001151	1.4e-05
0.3	293.15	0.001019	1.3e-05
0.3	298.15	0.00091	1.1e-05
0.3	303.15	0.00082	1e-05
0.3	308.15	0.000745	9e-06
0.4	288.15	0.001158	1.4e-05
0.4	293.15	0.001026	1.3e-05
0.4	298.15	0.000917	1.1e-05
0.4	303.15	0.000827	1e-05
0.4	308.15	0.000751	9e-06
0.5	288.15	0.001165	1.4e-05
0.5	293.15	0.001033	1.3e-05
0.5	298.15	0.000925	1.1e-05
0.5	303.15	0.000834	1e-05
0.5	308.15	0.00076	9e-06

System: potassium chloride + water; phases: Liquid
Fixed: Pressure, kPa = 100
Property: Mass density, kg/m3 (Liquid); method: Vibrating tube method
Molality, mol/kg of potassium chloride	Temperature, K	Mass density, kg/m3	uncertainty
0.1	288.15	1003.845	1.002
0.1	293.15	1002.916	1.002
0.1	298.15	1001.71	1
0.1	303.15	1000.277	1.002
0.1	308.15	998.631	1.002
0.2	288.15	1008.579	1.002
0.2	293.15	1007.578	1.002
0.2	298.15	1006.325	1.002
0.2	303.15	1004.852	1.002
0.2	308.15	1003.193	1.001
0.3	288.15	1013.16	1
0.3	293.15	1012.126	1.002
0.3	298.15	1010.84	1
0.3	303.15	1009.341	1.002
0.3	308.15	1007.64	1
0.4	288.15	1017.859	1.002
0.4	293.15	1016.768	1.002
0.4	298.15	1015.432	1.002
0.4	303.15	1013.886	1.002
0.4	308.15	1012.179	1.001
0.5	288.15	1022.324	1.002
0.5	293.15	1021.2	1
0.5	298.15	1019.839	1.002
0.5	303.15	1018.275	1.002
0.5	308.15	1016.52	1

System: potassium chloride + water; phases: Liquid
Fixed: Pressure, kPa = 100
Property: Viscosity, Pa*s (Liquid); method: Falling or rolling sphere viscometry
Molality, mol/kg of potassium chloride	Temperature, K	Viscosity, Pa*s	uncertainty
0.1	288.15	0.001145	1.4e-05
0.1	293.15	0.00101	1.2e-05
0.1	298.15	0.000896	1.1e-05
0.1	303.15	0.000801	1e-05
0.1	308.15	0.000722	9e-06
0.2	288.15	0.001145	1.4e-05
0.2	293.15	0.00101	1.2e-05
0.2	298.15	0.000896	1.1e-05
0.2	303.15	0.000801	1e-05
0.2	308.15	0.000723	9e-06
0.3	288.15	0.001145	1.4e-05
0.3	293.15	0.001011	1.2e-05
0.3	298.15	0.000897	1.1e-05
0.3	303.15	0.000801	1e-05
0.3	308.15	0.000726	9e-06
0.4	288.15	0.001147	1.4e-05
0.4	293.15	0.001013	1.3e-05
0.4	298.15	0.000897	1.1e-05
0.4	303.15	0.000801	1e-05
0.4	308.15	0.00073	9e-06
0.5	288.15	0.001152	1.4e-05
0.5	293.15	0.001027	1.3e-05
0.5	298.15	0.000899	1.1e-05
0.5	303.15	0.000802	1e-05
0.5	308.15	0.00073	9e-06
