Measured thermophysical data. Density, Speed of Sound, Viscosity, and Surface Tension of Hexamethylenetetramine Aqueous Solutions from T = (293.15 to 323.15) K
Source: J. Chem. Eng. Data, 2018, 10.1021/acs.jced.8b00492
Compound 1: 1,3,5,7-tetraazaadamantane, C6H12N4, InChI=1S/C6H12N4/c1-7-2-9-4-8(1)5-10(3-7)6-9/h1-6H2, purity 99%
Compound 2: water, H2O, InChI=1S/H2O/h1H2, purity 99.8%

System: water; phases: Liquid
Fixed: Pressure, kPa = 100
Property: Mass density, kg/m3 (Liquid); method: Vibrating tube method
Temperature, K	Mass density, kg/m3	uncertainty
293.15	998.2	2
303.15	995.9	2
313.15	992.3	2
323.15	988.1	2

System: water; phases: Liquid
Fixed: Pressure, kPa = 100
Fixed: Frequency, MHz = 3
Property: Speed of sound, m/s (Liquid); method: Single path-length method
Temperature, K	Speed of sound, m/s	uncertainty
293.15	1482.7	0.7
303.15	1509.4	0.7
313.15	1529.1	0.7
323.15	1541.5	0.7

System: water; phases: Liquid
Fixed: Pressure, kPa = 100
Property: Viscosity, Pa*s (Liquid); method: Capillary tube (Ostwald; Ubbelohde) method
Temperature, K	Viscosity, Pa*s	uncertainty
293.15	0.000993	5e-05
303.15	0.000802	5e-05
313.15	0.000661	5e-05
323.15	0.000555	5e-05

System: water; phases: Liquid, Gas
Property: Surface tension liquid-gas, N/m (Liquid); method: Ring tensiometer
Temperature, K	Surface tension liquid-gas, N/m	uncertainty
293.15	0.0726	0.0009
303.15	0.0711	0.0009
313.15	0.0692	0.0009
323.15	0.0677	0.0009

System: 1,3,5,7-tetraazaadamantane + water; phases: Liquid
Fixed: Pressure, kPa = 100
Property: Mass density, kg/m3 (Liquid); method: Vibrating tube method
Temperature, K	Molality, mol/kg of 1,3,5,7-tetraazaadamantane	Mass density, kg/m3	uncertainty
293.15	0	998.2	2
293.15	0.207	1004.3	2
293.15	0.425	1010.5	2
293.15	0.654	1016.6	2
293.15	0.897	1022.9	2
293.15	1.164	1029.5	2
293.15	1.449	1036.1	2
293.15	1.748	1042.9	2
293.15	2.068	1049.6	2
293.15	2.412	1056.3	2
293.15	2.779	1063.3	2
293.15	3.181	1070.4	2
293.15	3.617	1077.6	2
293.15	4.088	1084.9	2
293.15	4.609	1092.3	2
293.15	5.155	1099.8	2
303.15	0	995.9	2
303.15	0.207	1001.6	2
303.15	0.425	1007.7	2
303.15	0.654	1013.8	2
303.15	0.897	1019.9	2
303.15	1.164	1026.4	2
303.15	1.449	1032.9	2
303.15	1.748	1039.4	2
303.15	2.068	1046	2
303.15	2.412	1052.9	2
303.15	2.779	1059.7	2
303.15	3.181	1066.6	2
303.15	3.617	1073.6	2
303.15	4.088	1080.8	2
303.15	4.609	1088	2
303.15	5.155	1095	2
313.15	0	992.3	2
313.15	0.207	998	2
313.15	0.425	1004.1	2
313.15	0.654	1010.1	2
313.15	0.897	1016.1	2
313.15	1.164	1022.5	2
313.15	1.449	1028.9	2
313.15	1.748	1035.4	2
313.15	2.068	1041.8	2
313.15	2.412	1048.3	2
313.15	2.779	1055	2
313.15	3.181	1061.8	2
313.15	3.617	1068.7	2
313.15	4.088	1075.6	2
313.15	4.609	1082.7	2
313.15	5.155	1089.8	2
323.15	0	988.1	2
323.15	0.207	993.9	2
323.15	0.425	999.7	2
323.15	0.654	1005.6	2
323.15	0.897	1011	2
323.15	1.164	1018	2
323.15	1.449	1024.3	2
323.15	1.748	1030.7	2
323.15	2.068	1037.1	2
323.15	2.412	1043.5	2
323.15	2.779	1050.1	2
323.15	3.181	1056.8	2
323.15	3.617	1063.5	2
323.15	4.088	1070.4	2
323.15	4.609	1077.3	2
323.15	5.155	1084.2	2

System: 1,3,5,7-tetraazaadamantane + water; phases: Liquid
Fixed: Pressure, kPa = 100
Fixed: Frequency, MHz = 3
Property: Speed of sound, m/s (Liquid); method: Single path-length method
Temperature, K	Molality, mol/kg of 1,3,5,7-tetraazaadamantane	Speed of sound, m/s	uncertainty
293.15	0	1482.7	0.7
293.15	0.207	1493.6	0.7
293.15	0.425	1504.9	0.7
293.15	0.654	1516.5	0.7
293.15	0.897	1528.8	0.7
293.15	1.164	1541.8	0.7
293.15	1.449	1555.9	0.7
293.15	1.748	1569.3	0.7
293.15	2.068	1583.3	0.7
293.15	2.412	1597.1	0.7
293.15	2.779	1611.8	0.8
293.15	3.181	1626.9	0.8
293.15	3.617	1642.5	0.8
293.15	4.088	1658.4	0.8
293.15	4.609	1674.7	0.8
293.15	5.155	1691.4	0.8
303.15	0	1509.4	0.7
303.15	0.207	1519	0.7
303.15	0.425	1529.4	0.7
303.15	0.654	1539.3	0.7
303.15	0.897	1550	0.7
303.15	1.164	1561.1	0.7
303.15	1.449	1573.6	0.7
303.15	1.748	1585	0.7
303.15	2.068	1597.4	0.7
303.15	2.412	1609.3	0.7
303.15	2.779	1622.1	0.7
303.15	3.181	1635.2	0.8
303.15	3.617	1648.7	0.8
303.15	4.088	1662.4	0.8
303.15	4.609	1676.5	0.8
303.15	5.155	1690.9	0.8
313.15	0	1529.1	0.7
313.15	0.207	1538	0.7
313.15	0.425	1546.6	0.7
313.15	0.654	1555.4	0.7
313.15	0.897	1565	0.7
313.15	1.164	1574.7	0.7
313.15	1.449	1585.8	0.7
313.15	1.748	1595.6	0.7
313.15	2.068	1606.6	0.7
313.15	2.412	1616	0.7
313.15	2.779	1627.1	0.7
313.15	3.181	1638.5	0.8
313.15	3.617	1650.1	0.8
313.15	4.088	1661.9	0.8
313.15	4.609	1674	0.8
313.15	5.155	1687.2	0.8
323.15	0	1541.5	0.7
323.15	0.207	1549.2	0.7
323.15	0.425	1557.4	0.7
323.15	0.654	1566.1	0.7
323.15	0.897	1574.4	0.7
323.15	1.164	1583	0.7
323.15	1.449	1593.1	0.7
323.15	1.748	1601.3	0.7
323.15	2.068	1611.1	0.7
323.15	2.412	1620	0.7
323.15	2.779	1629.6	0.7
323.15	3.181	1639.4	0.8
323.15	3.617	1649.3	0.8
323.15	4.088	1659.4	0.8
323.15	4.609	1669.7	0.8
323.15	5.155	1680.2	0.8

System: 1,3,5,7-tetraazaadamantane + water; phases: Liquid
Fixed: Pressure, kPa = 100
Property: Viscosity, Pa*s (Liquid); method: Capillary tube (Ostwald; Ubbelohde) method
Temperature, K	Molality, mol/kg of 1,3,5,7-tetraazaadamantane	Viscosity, Pa*s	uncertainty
293.15	0	0.000993	5e-05
293.15	0.207	0.001075	5e-05
293.15	0.425	0.001168	5e-05
293.15	0.654	0.001287	5.1e-05
293.15	0.897	0.001419	5.1e-05
293.15	1.164	0.001579	5.1e-05
293.15	1.449	0.001711	5.1e-05
293.15	1.748	0.001911	5.1e-05
293.15	2.068	0.002142	5.2e-05
293.15	2.412	0.002477	5.2e-05
293.15	2.779	0.002777	5.2e-05
293.15	3.181	0.003217	5.3e-05
293.15	3.617	0.003698	5.4e-05
293.15	4.088	0.004214	5.6e-05
293.15	4.609	0.004991	5.8e-05
293.15	5.155	0.005869	6e-05
303.15	0	0.000802	5e-05
303.15	0.207	0.00088	5e-05
303.15	0.425	0.000942	5e-05
303.15	0.654	0.001025	5e-05
303.15	0.897	0.001085	5e-05
303.15	1.164	0.001193	5e-05
303.15	1.449	0.001309	5.1e-05
303.15	1.748	0.001472	5.1e-05
303.15	2.068	0.001631	5.1e-05
303.15	2.412	0.001875	5.1e-05
303.15	2.779	0.002094	5.1e-05
303.15	3.181	0.002402	5.2e-05
303.15	3.617	0.002743	5.2e-05
303.15	4.088	0.003092	5.3e-05
303.15	4.609	0.003635	5.4e-05
303.15	5.155	0.00421	5.6e-05
313.15	0	0.000661	5e-05
313.15	0.207	0.000718	5e-05
313.15	0.425	0.000761	5e-05
313.15	0.654	0.000806	5e-05
313.15	0.897	0.00087	5e-05
313.15	1.164	0.000936	5e-05
313.15	1.449	0.001017	5e-05
313.15	1.748	0.001158	5e-05
313.15	2.068	0.00126	5.1e-05
313.15	2.412	0.001441	5.1e-05
313.15	2.779	0.001597	5.1e-05
313.15	3.181	0.00182	5.1e-05
313.15	3.617	0.002063	5.1e-05
313.15	4.088	0.002296	5.2e-05
313.15	4.609	0.002687	5.2e-05
313.15	5.155	0.003084	5.3e-05
323.15	0	0.000555	5e-05
323.15	0.207	0.000596	5e-05
323.15	0.425	0.000635	5e-05
323.15	0.654	0.000671	5e-05
323.15	0.897	0.000716	5e-05
323.15	1.164	0.000755	5e-05
323.15	1.449	0.000819	5e-05
323.15	1.748	0.000908	5e-05
323.15	2.068	0.000985	5e-05
323.15	2.412	0.001131	5e-05
323.15	2.779	0.001233	5.1e-05
323.15	3.181	0.001387	5.1e-05
323.15	3.617	0.001569	5.1e-05
323.15	4.088	0.00177	5.1e-05
323.15	4.609	0.002027	5.1e-05
323.15	5.155	0.002327	5.2e-05

System: 1,3,5,7-tetraazaadamantane + water; phases: Liquid, Gas
Property: Surface tension liquid-gas, N/m (Liquid); method: Ring tensiometer
Temperature, K	Molality, mol/kg of 1,3,5,7-tetraazaadamantane	Surface tension liquid-gas, N/m	uncertainty
293.15	0	0.0726	0.0009
293.15	0.207	0.0692	0.0009
293.15	0.425	0.0674	0.0009
293.15	0.654	0.0662	0.0009
293.15	0.897	0.0654	0.0009
293.15	1.164	0.0648	0.0009
293.15	1.449	0.0644	0.0009
293.15	1.748	0.064	0.0009
293.15	2.068	0.0637	0.0009
293.15	2.412	0.0635	0.0009
293.15	2.779	0.0633	0.0009
293.15	3.181	0.0632	0.0009
293.15	3.617	0.0631	0.0009
293.15	4.088	0.063	0.0009
293.15	4.609	0.0629	0.0009
293.15	5.155	0.0629	0.0009
303.15	0	0.0711	0.0009
303.15	0.207	0.0675	0.0009
303.15	0.425	0.0661	0.0009
303.15	0.654	0.065	0.0009
303.15	0.897	0.0642	0.0009
303.15	1.164	0.0635	0.0009
303.15	1.449	0.0629	0.0008
303.15	1.748	0.0625	0.0008
303.15	2.068	0.0622	0.0008
303.15	2.412	0.0619	0.0008
303.15	2.779	0.0617	0.0008
303.15	3.181	0.0615	0.0008
303.15	3.617	0.0614	0.0008
303.15	4.088	0.0613	0.0008
303.15	4.609	0.0612	0.0008
303.15	5.155	0.0612	0.0008
313.15	0	0.0692	0.0009
313.15	0.207	0.0663	0.0009
313.15	0.425	0.0647	0.0009
313.15	0.654	0.0635	0.0009
313.15	0.897	0.0628	0.0008
313.15	1.164	0.0621	0.0008
313.15	1.449	0.0615	0.0008
313.15	1.748	0.0611	0.0008
313.15	2.068	0.0607	0.0008
313.15	2.412	0.0605	0.0008
313.15	2.779	0.0603	0.0008
313.15	3.181	0.0602	0.0008
313.15	3.617	0.0601	0.0008
313.15	4.088	0.06	0.0008
313.15	4.609	0.0599	0.0008
313.15	5.155	0.0599	0.0008
323.15	0	0.0677	0.0009
323.15	0.207	0.0651	0.0009
323.15	0.425	0.0634	0.0008
323.15	0.654	0.0621	0.0008
323.15	0.897	0.0612	0.0008
323.15	1.164	0.0605	0.0008
323.15	1.449	0.0601	0.0008
323.15	1.748	0.0597	0.0008
323.15	2.068	0.0595	0.0008
323.15	2.412	0.0592	0.0008
323.15	2.779	0.059	0.0008
323.15	3.181	0.0589	0.0008
323.15	3.617	0.0588	0.0008
323.15	4.088	0.0587	0.0008
323.15	4.609	0.0586	0.0008
323.15	5.155	0.0586	0.0008
