Measured thermophysical data. High-Pressure Phase Equilibria of Carbon Dioxide + 1-Octanol Binary System
Source: J. Chem. Eng. Data, 2018, 10.1021/acs.jced.7b00865
Compound 1: carbon dioxide, CO2, InChI=1S/CO2/c2-1-3, purity 99.9%
Compound 2: octan-1-ol, C8H18O, InChI=1S/C8H18O/c1-2-3-4-5-6-7-8-9/h9H,2-8H2,1H3, purity 99%

System: carbon dioxide + octan-1-ol; phases: Liquid, Gas
Property: Vapor or sublimation pressure, kPa (Liquid); method: Closed cell (Static) method
Mole fraction of carbon dioxide	Temperature, K	Vapor or sublimation pressure, kPa	uncertainty
0.2538	303.15	2296	130
0.3471	303.15	3478	135
0.4238	303.15	4536	123
0.5151	303.15	5417	119
0.6184	303.15	6625	135
0.6526	303.15	7022	139
0.1074	310.15	1387	113
0.1809	310.15	2203	107
0.2713	310.15	3110	124
0.3402	310.15	4131	166
0.3832	310.15	4954	172
0.4488	310.15	5957	164
0.4975	310.15	6818	167
0.5712	310.15	7903	162
0.5925	310.15	8318	221
0.6174	310.15	8787	241
0.6508	310.15	9476	337
0.6973	310.15	10878	296
0.7212	310.15	11465	301
0.7272	310.15	11728	300
0.7476	310.15	12332	359
0.7498	310.15	12694	363
0.7679	310.15	13161	350
0.7764	310.15	13594	366
0.7785	310.15	13716	421
0.7989	310.15	14469	374
0.0605	315.15	799	107
0.1348	315.15	1581	118
0.2104	315.15	2566	152
0.2675	315.15	3616	168
0.3294	315.15	4572	175
0.3725	315.15	5547	211
0.4178	315.15	6464	155
0.4941	315.15	7543	160
0.5663	315.15	8790	137
0.1046	323.15	1366	144
0.1785	323.15	2417	148
0.2435	323.15	3376	176
0.2814	323.15	4092	198
0.2944	323.15	4436	161
0.3296	323.15	5007	202
0.3734	323.15	5999	185
0.4358	323.15	6973	156
0.4849	323.15	7752	168
0.5116	323.15	8179	174
0.5667	323.15	9197	193
0.6057	323.15	10004	210
0.0596	333.15	1016	147
0.1503	333.15	2334	158
0.2059	333.15	3322	193
0.2695	333.15	4613	188
0.3275	333.15	5575	172
0.3822	333.15	6523	205
0.4251	333.15	7565	204
0.4767	333.15	8437	175
0.5267	333.15	9302	177

System: carbon dioxide + octan-1-ol; phases: Gas, Liquid
Property: Mole fraction of carbon dioxide (Gas); method: volumetric
Mole fraction of carbon dioxide	Temperature, K	Mole fraction of carbon dioxide	uncertainty
0.2538	303.15	0.9909	0.0091
0.3471	303.15	0.9926	0.0074
0.4238	303.15	0.9929	0.0071
0.5151	303.15	0.9931	0.0069
0.6184	303.15	0.9933	0.0067
0.6526	303.15	0.9932	0.0068
0.1074	310.15	0.9908	0.0092
0.1809	310.15	0.9921	0.0079
0.2713	310.15	0.9928	0.0072
0.3402	310.15	0.9938	0.0062
0.3832	310.15	0.9941	0.0059
0.4488	310.15	0.9944	0.0056
0.4975	310.15	0.9945	0.0055
0.5712	310.15	0.9932	0.0068
0.5925	310.15	0.9918	0.0082
0.6174	310.15	0.9912	0.0088
0.6508	310.15	0.9902	0.0098
0.6973	310.15	0.9853	0.0147
0.7212	310.15	0.9849	0.0151
0.7272	310.15	0.9848	0.0152
0.7476	310.15	0.9839	0.0161
0.7498	310.15	0.9822	0.0178
0.7679	310.15	0.9814	0.0186
0.7764	310.15	0.9795	0.0205
0.7785	310.15	0.9794	0.0206
0.7989	310.15	0.9783	0.0217
0.0605	315.15	0.9898	0.0102
0.1348	315.15	0.9929	0.0071
0.2104	315.15	0.9935	0.0065
0.2675	315.15	0.9949	0.0051
0.3294	315.15	0.9957	0.0043
0.3725	315.15	0.9954	0.0046
0.4178	315.15	0.9949	0.0051
0.4941	315.15	0.9937	0.0063
0.5663	315.15	0.9919	0.0081
0.1046	323.15	0.9935	0.0065
0.1785	323.15	0.9951	0.0049
0.2435	323.15	0.9962	0.0038
0.2814	323.15	0.9967	0.0033
0.2944	323.15	0.9968	0.0032
0.3296	323.15	0.9966	0.0034
0.3734	323.15	0.9965	0.0035
0.4358	323.15	0.9956	0.0044
0.4849	323.15	0.9945	0.0055
0.5116	323.15	0.994	0.006
0.5667	323.15	0.9929	0.0071
0.6057	323.15	0.9909	0.0091
0.0596	333.15	0.9955	0.0045
0.1503	333.15	0.9975	0.0025
0.2059	333.15	0.9983	0.0017
0.2695	333.15	0.9984	0.0016
0.3275	333.15	0.9987	0.0013
0.3822	333.15	0.9979	0.0021
0.4251	333.15	0.9974	0.0026
0.4767	333.15	0.9952	0.0048
0.5267	333.15	0.9943	0.0057

System: carbon dioxide + octan-1-ol; phases: Liquid mixture 1, Liquid mixture 2
Fixed: Temperature, K = 303.15
Property: Mole fraction of carbon dioxide (Liquid mixture 1); method: OTHER
Pressure, kPa	Mole fraction of carbon dioxide	uncertainty
7022	0.6526	0.0124
7560	0.6621	0.0123
8520	0.6834	0.0121
10550	0.7095	0.0117

System: carbon dioxide + octan-1-ol; phases: Liquid mixture 2, Liquid mixture 1
Fixed: Temperature, K = 303.15
Property: Mole fraction of carbon dioxide (Liquid mixture 2); method: OTHER
Pressure, kPa	Mole fraction of carbon dioxide	uncertainty
7022	0.9847	0.01
7560	0.9842	0.01
8520	0.9838	0.01
10550	0.9813	0.01
