Measured thermophysical data. Characteristics of Potassium Prolinate + Water + Ethanol Solution as a Phase Changing Absorbent for CO2 Capture
Source: J. Chem. Eng. Data, 2017, 10.1021/acs.jced.7b00267
Compound 1: 2-aminoethan-1-ol, C2H7NO, InChI=1S/C2H7NO/c3-1-2-4/h4H,1-3H2, purity 99.12%
Compound 2: ethanol, C2H6O, InChI=1S/C2H6O/c1-2-3/h3H,2H2,1H3, purity 99.71%
Compound 3: carbon dioxide, CO2, InChI=1S/CO2/c2-1-3, purity 99.99%
Compound 4: potassium L-prolinate, C5H8KNO2, InChI=1S/C5H9NO2.K/c7-5(8)4-2-1-3-6-4;/h4,6H,1-3H2,(H,7,8);/q;+1/p-1/t4-;/m0./s1, purity 99%
Compound 5: water, H2O, InChI=1S/H2O/h1H2, purity 99.9%

System: ethanol; phases: Liquid
Fixed: Pressure, kPa = 101.35
Property: Mass density, kg/m3 (Liquid); method: Vibrating tube method
Temperature, K	Mass density, kg/m3	uncertainty
293.15	789.5	0.4
298.15	785.2	0.4
303.15	780.8	0.4
308.15	776.5	0.4
313.15	772.1	0.4
318.15	767.7	0.4
323.15	763.2	0.4
328.15	758.7	0.4
333.15	754.1	0.4

System: ethanol; phases: Liquid
Fixed: Pressure, kPa = 101.35
Property: Viscosity, Pa*s (Liquid); method: Falling or rolling sphere viscometry
Temperature, K	Viscosity, Pa*s	uncertainty
293.15	0.0011936	3.69e-05
298.15	0.0010854	3.35e-05
303.15	0.0009897	3.06e-05
308.15	0.0009036	2.79e-05
313.15	0.0008277	2.56e-05
318.15	0.000759	2.34e-05
323.15	0.0006978	2.16e-05
328.15	0.0006434	1.99e-05
333.15	0.0005942	1.84e-05

System: potassium L-prolinate + water + ethanol; phases: Liquid
Fixed: Pressure, kPa = 101.35
Property: Mass density, kg/m3 (Liquid); method: Vibrating tube method
Molality, mol/kg of potassium L-prolinate	Molality, mol/kg of water	Temperature, K	Mass density, kg/m3	uncertainty
0	0	293.15	789.5	0.5
0.661	0.661	293.15	833.9	0.5
1.533	1.533	293.15	875.4	0.5
2.367	2.367	293.15	915	0.5
3.349	3.349	293.15	947	0.4
4.564	4.564	293.15	983.5	0.4
6.092	6.092	293.15	1020.6	0.4
0	0	298.15	785.2	0.5
0.661	0.661	298.15	829.6	0.5
1.533	1.533	298.15	871.2	0.5
2.367	2.367	298.15	910.9	0.5
3.349	3.349	298.15	942.9	0.4
4.564	4.564	298.15	979.4	0.4
6.092	6.092	298.15	1016.6	0.4
0	0	303.15	780.8	0.5
0.661	0.661	303.15	825.4	0.5
1.533	1.533	303.15	867	0.5
2.367	2.367	303.15	906.7	0.5
3.349	3.349	303.15	938.8	0.4
4.564	4.564	303.15	975.3	0.4
6.092	6.092	303.15	1012.6	0.4
0	0	308.15	776.5	0.5
0.661	0.661	308.15	821.1	0.5
1.533	1.533	308.15	862.7	0.5
2.367	2.367	308.15	902.5	0.5
3.349	3.349	308.15	934.7	0.4
4.564	4.564	308.15	971.2	0.4
6.092	6.092	308.15	1008.5	0.4
0	0	313.15	772.1	0.5
0.661	0.661	313.15	816.7	0.5
1.533	1.533	313.15	858.5	0.5
2.367	2.367	313.15	898.3	0.5
3.349	3.349	313.15	930.5	0.4
4.564	4.564	313.15	967.1	0.4
6.092	6.092	313.15	1004.5	0.4
0	0	318.15	767.7	0.5
0.661	0.661	318.15	812.4	0.5
1.533	1.533	318.15	854.2	0.5
2.367	2.367	318.15	894	0.5
3.349	3.349	318.15	926.3	0.4
4.564	4.564	318.15	963	0.4
6.092	6.092	318.15	1000.4	0.4
0	0	323.15	763.2	0.5
0.661	0.661	323.15	807.9	0.5
1.533	1.533	323.15	849.8	0.5
2.367	2.367	323.15	889.7	0.5
3.349	3.349	323.15	922.1	0.4
4.564	4.564	323.15	958.8	0.4
6.092	6.092	323.15	996.3	0.4
0	0	328.15	758.7	0.5
0.661	0.661	328.15	803.5	0.5
1.533	1.533	328.15	845.4	0.5
2.367	2.367	328.15	885.4	0.5
3.349	3.349	328.15	917.8	0.4
4.564	4.564	328.15	954.6	0.4
6.092	6.092	328.15	992.2	0.4
0	0	333.15	754.1	0.5
0.661	0.661	333.15	798.9	0.5
1.533	1.533	333.15	841	0.5
2.367	2.367	333.15	881	0.5
3.349	3.349	333.15	913.5	0.4
4.564	4.564	333.15	950.4	0.4
6.092	6.092	333.15	988	0.4

System: potassium L-prolinate + water + ethanol; phases: Liquid
Fixed: Pressure, kPa = 101.35
Property: Viscosity, Pa*s (Liquid); method: Falling or rolling sphere viscometry
Molality, mol/kg of potassium L-prolinate	Molality, mol/kg of water	Temperature, K	Viscosity, Pa*s	uncertainty
0	0	293.15	0.0011936	3.72e-05
0.661	0.661	293.15	0.0019737	6.12e-05
1.533	1.533	293.15	0.0030826	9.57e-05
2.367	2.367	293.15	0.004849	0.0001502
3.349	3.349	293.15	0.0070064	0.000217
4.564	4.564	293.15	0.011173	0.000346
6.092	6.092	293.15	0.018392	0.000571
0	0	298.15	0.0010854	3.38e-05
0.661	0.661	298.15	0.0017727	5.49e-05
1.533	1.533	298.15	0.0027309	8.47e-05
2.367	2.367	298.15	0.0042314	0.0001311
3.349	3.349	298.15	0.0060131	0.0001863
4.564	4.564	298.15	0.009399	0.0002914
6.092	6.092	298.15	0.015118	0.000469
0	0	303.15	0.0009897	3.08e-05
0.661	0.661	303.15	0.0015952	4.94e-05
1.533	1.533	303.15	0.0024407	7.57e-05
2.367	2.367	303.15	0.0037099	0.0001149
3.349	3.349	303.15	0.0051955	0.0001609
4.564	4.564	303.15	0.0079805	0.0002474
6.092	6.092	303.15	0.01257	0.00039
0	0	308.15	0.0009036	2.81e-05
0.661	0.661	308.15	0.0014411	4.46e-05
1.533	1.533	308.15	0.0021814	6.76e-05
2.367	2.367	308.15	0.0032729	0.0001014
3.349	3.349	308.15	0.0045011	0.0001394
4.564	4.564	308.15	0.0068513	0.0002124
6.092	6.092	308.15	0.010568	0.000328
0	0	313.15	0.0008277	2.57e-05
0.661	0.661	313.15	0.0013083	4.05e-05
1.533	1.533	313.15	0.0019552	6.06e-05
2.367	2.367	313.15	0.0028975	8.97e-05
3.349	3.349	313.15	0.00396	0.0001226
4.564	4.564	313.15	0.0059083	0.0001831
6.092	6.092	313.15	0.0089733	0.0002783
0	0	318.15	0.000759	2.36e-05
0.661	0.661	318.15	0.0011923	3.69e-05
1.533	1.533	318.15	0.0017599	5.45e-05
2.367	2.367	318.15	0.0025853	8.01e-05
3.349	3.349	318.15	0.0034893	0.0001081
4.564	4.564	318.15	0.0051532	0.0001597
6.092	6.092	318.15	0.0076884	0.0002384
0	0	323.15	0.0006978	2.17e-05
0.661	0.661	323.15	0.0010877	3.37e-05
1.533	1.533	323.15	0.0015893	4.93e-05
2.367	2.367	323.15	0.0023209	7.19e-05
3.349	3.349	323.15	0.0030927	9.58e-05
4.564	4.564	323.15	0.0045249	0.0001402
6.092	6.092	323.15	0.0066351	0.0002057
0	0	328.15	0.0006434	2e-05
0.661	0.661	328.15	0.0009953	3.08e-05
1.533	1.533	328.15	0.0014418	4.47e-05
2.367	2.367	328.15	0.0020895	6.47e-05
3.349	3.349	328.15	0.002752	8.52e-05
4.564	4.564	328.15	0.0039839	0.0001234
6.092	6.092	328.15	0.0057706	0.0001789
0	0	333.15	0.0005942	1.85e-05
0.661	0.661	333.15	0.000912	2.82e-05
1.533	1.533	333.15	0.0013091	4.06e-05
2.367	2.367	333.15	0.0018835	5.83e-05
3.349	3.349	333.15	0.0024586	7.61e-05
4.564	4.564	333.15	0.0035296	0.0001094
6.092	6.092	333.15	0.0050542	0.0001567

System: water + 2-aminoethan-1-ol + carbon dioxide; phases: Liquid, Gas
Fixed: Temperature, K = 313.2
Property: Molality, mol/kg of carbon dioxide (Liquid); method: phase equilibration
Solvent: Mass fraction of 2-aminoethan-1-ol	Pressure, kPa of carbon dioxide	Molality, mol/kg of carbon dioxide	uncertainty
0.153	1.29	1.102	0.067
0.153	2.67	1.197	0.061
0.153	5.97	1.283	0.059
0.153	13.51	1.373	0.058
0.153	34.27	1.493	0.058
0.153	60.49	1.586	0.058
0.15	1.92	1.098	0.071
0.15	3.24	1.208	0.061
0.15	7.45	1.309	0.059
0.15	14.11	1.392	0.058
0.15	21.88	1.444	0.058
0.15	35.71	1.513	0.058
0.15	53.7	1.579	0.058
0.15	73.95	1.633	0.058
0.15	91.43	1.675	0.058
