Measured thermophysical data. Solubility of 3,7-Dinitro-1,3,5,7-tetraazabicyclo [3.3.1] Nonane in Ethanenitrile, Methanol, 1,1-Dichloroethane, Dimethyl Sulfoxide, Acetone, and Mixed Solvents
Source: J. Chem. Eng. Data, 2015, 10.1021/acs.jced.5b00033
Compound 1: 3,7-dinitroso-1,3,5,7-tetraazabicyclo[3.3.1]nonane, C5H10N6O2, InChI=1S/C5H10N6O2/c12-6-10-2-8-1-9(4-10)5-11(3-8)7-13/h1-5H2, purity 99.98%
Compound 2: acetonitrile, C2H3N, InChI=1S/C2H3N/c1-2-3/h1H3, purity 99.99%
Compound 3: methanol, CH4O, InChI=1S/CH4O/c1-2/h2H,1H3, purity 99.99%
Compound 4: dimethyl sulfoxide, C2H6OS, InChI=1S/C2H6OS/c1-4(2)3/h1-2H3, purity 99.99%
Compound 5: acetone, C3H6O, InChI=1S/C3H6O/c1-3(2)4/h1-2H3, purity 99.99%
Compound 6: water, H2O, InChI=1S/H2O/h1H2, purity 99.9%
Compound 7: ethyl acetate, C4H8O2, InChI=1S/C4H8O2/c1-3-6-4(2)5/h3H2,1-2H3, purity 99.99%
Compound 8: 1,1-dichloroethane, C2H4Cl2, InChI=1S/C2H4Cl2/c1-2(3)4/h2H,1H3, purity 99.99%

System: acetonitrile + 3,7-dinitroso-1,3,5,7-tetraazabicyclo[3.3.1]nonane; phases: Liquid, Crystal
Fixed: Pressure, kPa = 101
Property: Mole fraction of 3,7-dinitroso-1,3,5,7-tetraazabicyclo[3.3.1]nonane (Liquid); method: Chromatography
Temperature, K	Mole fraction of 3,7-dinitroso-1,3,5,7-tetraazabicyclo[3.3.1]nonane	uncertainty
288.15	1.54176e-07	1.2376e-08
293.15	1.78147e-07	1.4285e-08
298.15	1.99383e-07	1.5985e-08
303.15	2.25782e-07	1.8097e-08
308.15	2.49821e-07	2.0016e-08

System: methanol + 3,7-dinitroso-1,3,5,7-tetraazabicyclo[3.3.1]nonane; phases: Liquid, Crystal
Fixed: Pressure, kPa = 101
Property: Mole fraction of 3,7-dinitroso-1,3,5,7-tetraazabicyclo[3.3.1]nonane (Liquid); method: Chromatography
Temperature, K	Mole fraction of 3,7-dinitroso-1,3,5,7-tetraazabicyclo[3.3.1]nonane	uncertainty
288.15	5.48247e-09	4.3893e-10
293.15	5.79752e-09	4.643e-10
298.15	6.36131e-09	5.0938e-10
303.15	6.66727e-09	5.3386e-10
308.15	7.2354e-09	5.7948e-10

System: acetone + 3,7-dinitroso-1,3,5,7-tetraazabicyclo[3.3.1]nonane; phases: Liquid, Crystal
Fixed: Pressure, kPa = 101
Property: Mole fraction of 3,7-dinitroso-1,3,5,7-tetraazabicyclo[3.3.1]nonane (Liquid); method: Chromatography
Temperature, K	Mole fraction of 3,7-dinitroso-1,3,5,7-tetraazabicyclo[3.3.1]nonane	uncertainty
288.15	7.06336e-08	5.6646e-09
293.15	7.98181e-08	6.3983e-09
298.15	8.90498e-08	7.1397e-09
303.15	1.01512e-07	8.132e-09
308.15	1.07572e-07	8.612e-09

System: dimethyl sulfoxide + 3,7-dinitroso-1,3,5,7-tetraazabicyclo[3.3.1]nonane; phases: Liquid, Crystal
Fixed: Pressure, kPa = 101
Property: Mole fraction of 3,7-dinitroso-1,3,5,7-tetraazabicyclo[3.3.1]nonane (Liquid); method: Chromatography
Temperature, K	Mole fraction of 3,7-dinitroso-1,3,5,7-tetraazabicyclo[3.3.1]nonane	uncertainty
288.15	9.2747e-07	7.4378e-08
293.15	1.04711e-06	8.395e-08
298.15	1.17879e-06	9.454e-08
303.15	1.35958e-06	1.0895e-07
308.15	1.46033e-06	1.1694e-07

System: acetonitrile + 3,7-dinitroso-1,3,5,7-tetraazabicyclo[3.3.1]nonane + water; phases: Liquid, Crystal
Fixed: Pressure, kPa = 101
Property: Mole fraction of 3,7-dinitroso-1,3,5,7-tetraazabicyclo[3.3.1]nonane (Liquid); method: Chromatography
Solvent: Volume ratio of component to other component of binary solvent of acetonitrile	Temperature, K	Mole fraction of 3,7-dinitroso-1,3,5,7-tetraazabicyclo[3.3.1]nonane	uncertainty
9	288.15	6.63718e-08	5.4199e-09
9	293.15	9.33191e-08	7.526e-09
9	298.15	1.12919e-07	9.064e-09
9	303.15	1.2855e-07	1.0303e-08
9	308.15	1.41183e-07	1.131e-08
2.3333333	288.15	1.72144e-08	1.3881e-09
2.3333333	293.15	2.14717e-08	1.7263e-09
2.3333333	298.15	2.55069e-08	2.0471e-09
2.3333333	303.15	2.92089e-08	2.341e-09
2.3333333	308.15	3.18355e-08	2.5499e-09

System: methanol + 3,7-dinitroso-1,3,5,7-tetraazabicyclo[3.3.1]nonane + ethyl acetate; phases: Liquid, Crystal
Fixed: Pressure, kPa = 101
Property: Mole fraction of 3,7-dinitroso-1,3,5,7-tetraazabicyclo[3.3.1]nonane (Liquid); method: Chromatography
Solvent: Volume ratio of component to other component of binary solvent of ethyl acetate	Temperature, K	Mole fraction of 3,7-dinitroso-1,3,5,7-tetraazabicyclo[3.3.1]nonane	uncertainty
9	288.15	1.02511e-07	8.217e-09
2.3333333	288.15	9.94584e-08	7.9717e-09
1	288.15	2.85673e-08	2.3928e-09
9	293.15	1.14334e-07	9.166e-09
2.3333333	293.15	1.10495e-07	8.853e-09
1	293.15	4.62264e-08	3.7792e-09
2.3333333	298.15	1.20859e-07	9.695e-09
9	298.15	1.29761e-07	1.0411e-08
1	298.15	6.71797e-08	5.4632e-09
9	303.15	1.5111e-07	1.214e-08
2.3333333	303.15	1.43807e-07	1.1555e-08
1	303.15	9.4769e-08	7.651e-09
9	308.15	1.83476e-07	1.474e-08
2.3333333	308.15	1.72432e-07	1.3847e-08
1	308.15	1.17712e-07	9.465e-09

System: 3,7-dinitroso-1,3,5,7-tetraazabicyclo[3.3.1]nonane + ethyl acetate; phases: Liquid, Crystal
Fixed: Pressure, kPa = 101
Property: Mole fraction of 3,7-dinitroso-1,3,5,7-tetraazabicyclo[3.3.1]nonane (Liquid); method: Chromatography
Temperature, K	Mole fraction of 3,7-dinitroso-1,3,5,7-tetraazabicyclo[3.3.1]nonane	uncertainty
288.15	1.02331e-07	1.1378e-08
293.15	1.16018e-07	1.2898e-08
298.15	1.31245e-07	1.4597e-08
303.15	1.54888e-07	1.7235e-08
308.15	1.84357e-07	2.0509e-08

System: 1,1-dichloroethane + 3,7-dinitroso-1,3,5,7-tetraazabicyclo[3.3.1]nonane; phases: Liquid, Crystal
Fixed: Pressure, kPa = 101
Property: Mole fraction of 3,7-dinitroso-1,3,5,7-tetraazabicyclo[3.3.1]nonane (Liquid); method: Chromatography
Temperature, K	Mole fraction of 3,7-dinitroso-1,3,5,7-tetraazabicyclo[3.3.1]nonane	uncertainty
288.15	7.04587e-09	7.8455e-10
293.15	8.45871e-09	9.4113e-10
298.15	9.87569e-09	1.09946e-09
303.15	1.22858e-08	1.3661e-09
308.15	1.32061e-08	1.4671e-09
