Measured thermophysical data. Density and Viscosity of 2-Butanol + (1-Propanol, 2-Propanol, or 3-Amino-1-propanol) Mixtures at Temperatures of (293.15 to 323.15) K: Application of the ERAS Model
Source: J. Chem. Eng. Data, 2019, 10.1021/acs.jced.8b01097
Compound 1: propan-1-ol, C3H8O, InChI=1S/C3H8O/c1-2-3-4/h4H,2-3H2,1H3
Compound 2: propan-2-ol, C3H8O, InChI=1S/C3H8O/c1-3(2)4/h3-4H,1-2H3
Compound 3: butan-2-ol, C4H10O, InChI=1S/C4H10O/c1-3-4(2)5/h4-5H,3H2,1-2H3
Compound 4: 3-amino-1-propanol, C3H9NO, InChI=1S/C3H9NO/c4-2-1-3-5/h5H,1-4H2

System: propan-1-ol; phases: Liquid
Fixed: Pressure, kPa = 85
Property: Mass density, kg/m3 (Liquid); method: Vibrating tube method
Temperature, K	Mass density, kg/m3	uncertainty
293.15	803.5	1
298.15	799.4	1
303.15	795.4	1
308.15	791.3	1
313.15	787.2	1
318.15	783.1	1
323.15	778.9	1

System: propan-1-ol; phases: Liquid
Fixed: Pressure, kPa = 85
Property: Viscosity, Pa*s (Liquid); method: Concentric cylinders viscometry
Temperature, K	Viscosity, Pa*s	uncertainty
293.15	0.002215	0.000134
298.15	0.00197	0.000119
303.15	0.001752	0.000106
308.15	0.001563	9.4e-05
313.15	0.001399	8.5e-05
318.15	0.001255	7.6e-05
323.15	0.001129	6.8e-05

System: propan-2-ol; phases: Liquid
Fixed: Pressure, kPa = 85
Property: Mass density, kg/m3 (Liquid); method: Vibrating tube method
Temperature, K	Mass density, kg/m3	uncertainty
293.15	784.9	1
298.15	780.7	1
303.15	776.4	1
308.15	772.1	1
313.15	767.6	1
318.15	763.1	1
323.15	758.5	1

System: propan-2-ol; phases: Liquid
Fixed: Pressure, kPa = 85
Property: Viscosity, Pa*s (Liquid); method: Concentric cylinders viscometry
Temperature, K	Viscosity, Pa*s	uncertainty
293.15	0.002429	0.000146
298.15	0.002095	0.000126
303.15	0.001808	0.000109
308.15	0.001567	9.4e-05
313.15	0.001366	8.2e-05
318.15	0.001195	7.2e-05
323.15	0.001052	6.4e-05

System: butan-2-ol; phases: Liquid
Fixed: Pressure, kPa = 85
Property: Mass density, kg/m3 (Liquid); method: Vibrating tube method
Temperature, K	Mass density, kg/m3	uncertainty
293.15	806.2	1
298.15	802	1
303.15	797.9	1
308.15	793.6	1
313.15	789.2	1
318.15	784.7	1
323.15	780.2	1

System: butan-2-ol; phases: Liquid
Fixed: Pressure, kPa = 85
Property: Viscosity, Pa*s (Liquid); method: Concentric cylinders viscometry
Temperature, K	Viscosity, Pa*s	uncertainty
293.15	0.003743	0.000226
298.15	0.003101	0.000187
303.15	0.002579	0.000156
308.15	0.002162	0.000131
313.15	0.001828	0.00011
318.15	0.001559	9.4e-05
323.15	0.001318	8e-05

System: 3-amino-1-propanol; phases: Liquid
Fixed: Pressure, kPa = 85
Property: Mass density, kg/m3 (Liquid); method: Vibrating tube method
Temperature, K	Mass density, kg/m3	uncertainty
293.15	987.8	1.3
298.15	984.3	1.2
303.15	980.3	1.2
308.15	976.2	1.2
313.15	972.3	1.2
318.15	968.5	1.2
323.15	964.9	1.2

System: 3-amino-1-propanol; phases: Liquid
Fixed: Pressure, kPa = 85
Property: Viscosity, Pa*s (Liquid); method: Concentric cylinders viscometry
Temperature, K	Viscosity, Pa*s	uncertainty
293.15	0.037329	0.002274
298.15	0.028595	0.001742
303.15	0.022306	0.001359
308.15	0.017673	0.001076
313.15	0.014208	0.000865
318.15	0.011576	0.000705
323.15	0.009546	0.000582

System: butan-2-ol + propan-1-ol; phases: Liquid
Fixed: Pressure, kPa = 85
Property: Mass density, kg/m3 (Liquid); method: Vibrating tube method
Temperature, K	Mole fraction of butan-2-ol	Mass density, kg/m3	uncertainty
293.15	0	803.5	1
293.15	0.0818	804.1	1
293.15	0.1601	804.6	1
293.15	0.2399	805	1
293.15	0.3499	805.5	1
293.15	0.4399	805.8	1
293.15	0.56	806	1
293.15	0.6515	806.1	1
293.15	0.7385	806.2	1
293.15	0.85	806.3	1
293.15	0.9407	806.3	1
293.15	1	806.2	1
298.15	0	799.4	1
298.15	0.0818	800.1	1
298.15	0.1601	800.6	1
298.15	0.2399	801	1
298.15	0.3499	801.5	1
298.15	0.4399	801.8	1
298.15	0.56	802	1
298.15	0.6515	802.1	1
298.15	0.7385	802.2	1
298.15	0.85	802.2	1
298.15	0.9407	802.1	1
298.15	1	802	1
303.15	0	795.4	1
303.15	0.0818	796.1	1
303.15	0.1601	796.7	1
303.15	0.2399	797.1	1
303.15	0.3499	797.6	1
303.15	0.4399	797.9	1
303.15	0.56	798.1	1
303.15	0.6515	798.2	1
303.15	0.7385	798.2	1
303.15	0.85	798.2	1
303.15	0.9407	798.1	1
303.15	1	797.9	1
308.15	0	791.3	1
308.15	0.0818	792.1	1
308.15	0.1601	792.7	1
308.15	0.2399	793.1	1
308.15	0.3499	793.6	1
308.15	0.4399	793.8	1
308.15	0.56	794	1
308.15	0.6515	794.1	1
308.15	0.7385	794.1	1
308.15	0.85	794	1
308.15	0.9407	793.8	1
308.15	1	793.6	1
313.15	0	787.2	1
313.15	0.0818	788.1	1
313.15	0.1601	788.7	1
313.15	0.2399	789.1	1
313.15	0.3499	789.6	1
313.15	0.4399	789.8	1
313.15	0.56	789.9	1
313.15	0.6515	789.9	1
313.15	0.7385	789.8	1
313.15	0.85	789.7	1
313.15	0.9407	789.5	1
313.15	1	789.2	1
318.15	0	783.1	1
318.15	0.0818	784	1
318.15	0.1601	784.6	1
318.15	0.2399	785.1	1
318.15	0.3499	785.5	1
318.15	0.4399	785.7	1
318.15	0.56	785.8	1
318.15	0.6515	785.7	1
318.15	0.7385	785.6	1
318.15	0.85	785.3	1
318.15	0.9407	785.1	1
318.15	1	784.7	1
323.15	0	778.9	1
323.15	0.0818	779.9	1
323.15	0.1601	780.5	1
323.15	0.2399	781	1
323.15	0.3499	781.4	1
323.15	0.4399	781.5	1
323.15	0.56	781.5	1
323.15	0.6515	781.4	1
323.15	0.7385	781.3	1
323.15	0.85	781	1
323.15	0.9407	780.6	1
323.15	1	780.2	1

System: butan-2-ol + propan-1-ol; phases: Liquid
Fixed: Pressure, kPa = 85
Property: Viscosity, Pa*s (Liquid); method: Concentric cylinders viscometry
Temperature, K	Mole fraction of butan-2-ol	Viscosity, Pa*s	uncertainty
293.15	0	0.002215	0.000134
293.15	0.0818	0.002323	0.00014
293.15	0.1601	0.002428	0.000147
293.15	0.2399	0.00254	0.000153
293.15	0.3499	0.002702	0.000163
293.15	0.4399	0.002838	0.000171
293.15	0.56	0.003023	0.000182
293.15	0.6515	0.003166	0.000191
293.15	0.7385	0.003304	0.000199
293.15	0.85	0.003486	0.00021
293.15	0.9407	0.003639	0.00022
293.15	1	0.003743	0.000226
298.15	0	0.00197	0.000119
298.15	0.0818	0.002047	0.000124
298.15	0.1601	0.002126	0.000128
298.15	0.2399	0.002211	0.000133
298.15	0.3499	0.002331	0.000141
298.15	0.4399	0.002432	0.000147
298.15	0.56	0.00257	0.000155
298.15	0.6515	0.002676	0.000162
298.15	0.7385	0.002778	0.000168
298.15	0.85	0.002913	0.000176
298.15	0.9407	0.003025	0.000183
298.15	1	0.003101	0.000187
303.15	0	0.001752	0.000106
303.15	0.0818	0.001824	0.00011
303.15	0.1601	0.001893	0.000114
303.15	0.2399	0.001962	0.000118
303.15	0.3499	0.002057	0.000124
303.15	0.4399	0.002134	0.000129
303.15	0.56	0.002228	0.000135
303.15	0.6515	0.00231	0.000139
303.15	0.7385	0.00238	0.000144
303.15	0.85	0.002466	0.000149
303.15	0.9407	0.002536	0.000153
303.15	1	0.002579	0.000156
308.15	0	0.001563	9.4e-05
308.15	0.0818	0.001619	9.8e-05
308.15	0.1601	0.001672	0.000101
308.15	0.2399	0.001724	0.000104
308.15	0.3499	0.001795	0.000108
308.15	0.4399	0.001851	0.000112
308.15	0.56	0.001925	0.000116
308.15	0.6515	0.00198	0.00012
308.15	0.7385	0.00203	0.000123
308.15	0.85	0.002089	0.000126
308.15	0.9407	0.002135	0.000129
308.15	1	0.002162	0.000131
313.15	0	0.001399	8.5e-05
313.15	0.0818	0.001444	8.7e-05
313.15	0.1601	0.001485	9e-05
313.15	0.2399	0.001525	9.2e-05
313.15	0.3499	0.00158	9.5e-05
313.15	0.4399	0.001622	9.8e-05
313.15	0.56	0.001676	0.000101
313.15	0.6515	0.001713	0.000103
313.15	0.7385	0.001747	0.000106
313.15	0.85	0.001786	0.000108
313.15	0.9407	0.001814	0.00011
313.15	1	0.001828	0.00011
318.15	0	0.001255	7.6e-05
318.15	0.0818	0.001293	7.8e-05
318.15	0.1601	0.001326	8e-05
318.15	0.2399	0.001358	8.2e-05
318.15	0.3499	0.001398	8.5e-05
318.15	0.4399	0.001429	8.6e-05
318.15	0.56	0.001467	8.9e-05
318.15	0.6515	0.001493	9e-05
318.15	0.7385	0.001516	9.2e-05
318.15	0.85	0.00154	9.3e-05
318.15	0.9407	0.001555	9.4e-05
318.15	1	0.001559	9.4e-05
323.15	0	0.001129	6.8e-05
323.15	0.0818	0.00116	7e-05
323.15	0.1601	0.001185	7.2e-05
323.15	0.2399	0.001209	7.3e-05
323.15	0.3499	0.00124	7.5e-05
323.15	0.4399	0.001263	7.6e-05
323.15	0.56	0.00129	7.8e-05
323.15	0.6515	0.001308	7.9e-05
323.15	0.7385	0.001322	8e-05
323.15	0.85	0.001336	8.1e-05
323.15	0.9407	0.001341	8.1e-05
323.15	1	0.001318	8e-05

System: butan-2-ol + propan-2-ol; phases: Liquid
Fixed: Pressure, kPa = 85
Property: Mass density, kg/m3 (Liquid); method: Vibrating tube method
Temperature, K	Mole fraction of butan-2-ol	Mass density, kg/m3	uncertainty
293.15	0	784.9	1
293.15	0.0807	787.1	1
293.15	0.1619	789.2	1
293.15	0.2385	791	1
293.15	0.3492	793.6	1
293.15	0.4386	795.7	1
293.15	0.56	798.3	1
293.15	0.6489	800	1
293.15	0.7402	801.8	1
293.15	0.8494	803.7	1
293.15	0.9403	805.3	1
293.15	1	806.2	1
298.15	0	780.7	1
298.15	0.0807	782.9	1
298.15	0.1619	785	1
298.15	0.2385	786.9	1
298.15	0.3492	789.5	1
298.15	0.4386	791.5	1
298.15	0.56	794.1	1
298.15	0.6489	795.9	1
298.15	0.7402	797.6	1
298.15	0.8494	799.6	1
298.15	0.9403	801.1	1
298.15	1	802	1
303.15	0	776.4	1
303.15	0.0807	778.7	1
303.15	0.1619	780.8	1
303.15	0.2385	782.7	1
303.15	0.3492	785.3	1
303.15	0.4386	787.4	1
303.15	0.56	790	1
303.15	0.6489	791.8	1
303.15	0.7402	793.5	1
303.15	0.8494	795.5	1
303.15	0.9403	797	1
303.15	1	797.9	1
308.15	0	772.1	1
308.15	0.0807	774.4	1
308.15	0.1619	776.5	1
308.15	0.2385	778.5	1
308.15	0.3492	781.1	1
308.15	0.4386	783.1	1
308.15	0.56	785.7	1
308.15	0.6489	787.5	1
308.15	0.7402	789.3	1
308.15	0.8494	791.2	1
308.15	0.9403	792.7	1
308.15	1	793.6	1
313.15	0	767.6	1
313.15	0.0807	769.9	1
313.15	0.1619	772.1	1
313.15	0.2385	774	1
313.15	0.3492	776.7	1
313.15	0.4386	778.7	1
313.15	0.56	781.3	1
313.15	0.6489	783.1	1
313.15	0.7402	784.9	1
313.15	0.8494	786.8	1
313.15	0.9403	788.4	1
313.15	1	789.2	1
318.15	0	763.1	1
318.15	0.0807	765.5	1
318.15	0.1619	767.6	1
318.15	0.2385	769.6	1
318.15	0.3492	772.2	1
318.15	0.4386	774.3	1
318.15	0.56	776.9	1
318.15	0.6489	778.7	1
318.15	0.7402	780.4	1
318.15	0.8494	782.4	1
318.15	0.9403	783.9	1
318.15	1	784.7	1
323.15	0	758.5	1
323.15	0.0807	760.9	1
323.15	0.1619	763.1	1
323.15	0.2385	765	1
323.15	0.3492	767.7	1
323.15	0.4386	769.7	1
323.15	0.56	772.4	1
323.15	0.6489	774.2	1
323.15	0.7402	775.9	1
323.15	0.8494	777.9	1
323.15	0.9403	779.4	1
323.15	1	780.2	1

System: butan-2-ol + propan-2-ol; phases: Liquid
Fixed: Pressure, kPa = 85
Property: Viscosity, Pa*s (Liquid); method: Concentric cylinders viscometry
Temperature, K	Mole fraction of butan-2-ol	Viscosity, Pa*s	uncertainty
293.15	0	0.002429	0.000146
293.15	0.0807	0.002497	0.00015
293.15	0.1619	0.002584	0.000156
293.15	0.2385	0.002674	0.000161
293.15	0.3492	0.002814	0.00017
293.15	0.4386	0.002932	0.000177
293.15	0.56	0.003097	0.000187
293.15	0.6489	0.003221	0.000194
293.15	0.7402	0.003352	0.000202
293.15	0.8494	0.003511	0.000212
293.15	0.9403	0.003648	0.00022
293.15	1	0.003743	0.000226
298.15	0	0.002095	0.000126
298.15	0.0807	0.002146	0.000129
298.15	0.1619	0.002211	0.000133
298.15	0.2385	0.002282	0.000137
298.15	0.3492	0.002391	0.000144
298.15	0.4386	0.002481	0.00015
298.15	0.56	0.002607	0.000157
298.15	0.6489	0.002702	0.000163
298.15	0.7402	0.002801	0.000169
298.15	0.8494	0.002923	0.000176
298.15	0.9403	0.003028	0.000183
298.15	1	0.003101	0.000187
303.15	0	0.001808	0.000109
303.15	0.0807	0.001851	0.000112
303.15	0.1619	0.001901	0.000115
303.15	0.2385	0.001955	0.000118
303.15	0.3492	0.002038	0.000123
303.15	0.4386	0.002107	0.000127
303.15	0.56	0.002204	0.000133
303.15	0.6489	0.002276	0.000137
303.15	0.7402	0.002352	0.000142
303.15	0.8494	0.002444	0.000147
303.15	0.9403	0.002524	0.000152
303.15	1	0.002579	0.000156
308.15	0	0.001567	9.4e-05
308.15	0.0807	0.001603	9.7e-05
308.15	0.1619	0.001643	9.9e-05
308.15	0.2385	0.001684	0.000102
308.15	0.3492	0.001747	0.000105
308.15	0.4386	0.001801	0.000109
308.15	0.56	0.001876	0.000113
308.15	0.6489	0.001932	0.000117
308.15	0.7402	0.001991	0.00012
308.15	0.8494	0.002062	0.000124
308.15	0.9403	0.002121	0.000128
308.15	1	0.002162	0.000131
313.15	0	0.001366	8.2e-05
313.15	0.0807	0.001397	8.4e-05
313.15	0.1619	0.001427	8.6e-05
313.15	0.2385	0.001459	8.8e-05
313.15	0.3492	0.001508	9.1e-05
313.15	0.4386	0.001549	9.3e-05
313.15	0.56	0.001608	9.7e-05
313.15	0.6489	0.001652	0.0001
313.15	0.7402	0.001697	0.000102
313.15	0.8494	0.001751	0.000106
313.15	0.9403	0.001798	0.000109
313.15	1	0.001828	0.00011
318.15	0	0.001195	7.2e-05
318.15	0.0807	0.001221	7.4e-05
318.15	0.1619	0.001246	7.5e-05
318.15	0.2385	0.001271	7.7e-05
318.15	0.3492	0.00131	7.9e-05
318.15	0.4386	0.001342	8.1e-05
318.15	0.56	0.001388	8.4e-05
318.15	0.6489	0.001422	8.6e-05
318.15	0.7402	0.001457	8.8e-05
318.15	0.8494	0.0015	9.1e-05
318.15	0.9403	0.001536	9.3e-05
318.15	1	0.001559	9.4e-05
323.15	0	0.001052	6.4e-05
323.15	0.0807	0.001072	6.5e-05
323.15	0.1619	0.001093	6.6e-05
323.15	0.2385	0.001113	6.7e-05
323.15	0.3492	0.001144	6.9e-05
323.15	0.4386	0.001169	7.1e-05
323.15	0.56	0.001205	7.3e-05
323.15	0.6489	0.001231	7.4e-05
323.15	0.7402	0.001258	7.6e-05
323.15	0.8494	0.001291	7.8e-05
323.15	0.9403	0.001318	8e-05
323.15	1	0.001318	8e-05

System: butan-2-ol + 3-amino-1-propanol; phases: Liquid
Fixed: Pressure, kPa = 85
Property: Mass density, kg/m3 (Liquid); method: Vibrating tube method
Temperature, K	Mole fraction of butan-2-ol	Mass density, kg/m3	uncertainty
293.15	0	987.8	1.3
293.15	0.081	971.2	1.2
293.15	0.1607	955.5	1.2
293.15	0.2395	940.2	1.1
293.15	0.3499	919.3	1.1
293.15	0.4394	902.8	1.1
293.15	0.5602	881	1.1
293.15	0.658	863.9	1.1
293.15	0.7408	849.7	1
293.15	0.8511	830.9	1
293.15	0.9396	816.2	1
293.15	1	806.2	1
298.15	0	984.3	1.2
298.15	0.081	967.8	1.2
298.15	0.1607	951.9	1.2
298.15	0.2395	936.6	1.1
298.15	0.3499	915.6	1.1
298.15	0.4394	899	1.1
298.15	0.5602	877.2	1.1
298.15	0.658	860	1.1
298.15	0.7408	845.7	1
298.15	0.8511	827	1
298.15	0.9396	812.2	1
298.15	1	802	1
303.15	0	980.3	1.2
303.15	0.081	964	1.2
303.15	0.1607	948.1	1.2
303.15	0.2395	932.7	1.1
303.15	0.3499	911.6	1.1
303.15	0.4394	895	1.1
303.15	0.5602	873.2	1.1
303.15	0.658	856	1.1
303.15	0.7408	841.7	1
303.15	0.8511	823	1
303.15	0.9396	808.2	1
303.15	1	797.9	1
308.15	0	976.2	1.2
308.15	0.081	959.9	1.2
308.15	0.1607	944.2	1.2
308.15	0.2395	928.7	1.1
308.15	0.3499	907.6	1.1
308.15	0.4394	890.9	1.1
308.15	0.5602	869	1.1
308.15	0.658	851.9	1.1
308.15	0.7408	837.6	1
308.15	0.8511	818.9	1
308.15	0.9396	803.9	1
308.15	1	793.6	1
313.15	0	972.3	1.2
313.15	0.081	956.1	1.2
313.15	0.1607	940.2	1.2
313.15	0.2395	924.9	1.1
313.15	0.3499	903.7	1.1
313.15	0.4394	886.9	1.1
313.15	0.5602	865	1.1
313.15	0.658	847.8	1.1
313.15	0.7408	833.5	1
313.15	0.8511	814.7	1
313.15	0.9396	799.6	1
313.15	1	789.2	1
318.15	0	968.5	1.2
318.15	0.081	952.4	1.2
318.15	0.1607	936.6	1.2
318.15	0.2395	921.1	1.1
318.15	0.3499	899.8	1.1
318.15	0.4394	882.9	1.1
318.15	0.5602	860.9	1.1
318.15	0.658	843.6	1.1
318.15	0.7408	829.3	1
318.15	0.8511	810.4	1
318.15	0.9396	795.2	1
318.15	1	784.7	1
323.15	0	964.9	1.2
323.15	0.081	948.9	1.2
323.15	0.1607	933	1.2
323.15	0.2395	917.5	1.1
323.15	0.3499	896.1	1.1
323.15	0.4394	879.2	1.1
323.15	0.5602	857	1.1
323.15	0.658	839.7	1.1
323.15	0.7408	825.2	1
323.15	0.8511	806.1	1
323.15	0.9396	790.8	1
323.15	1	780.2	1

System: butan-2-ol + 3-amino-1-propanol; phases: Liquid
Fixed: Pressure, kPa = 85
Property: Viscosity, Pa*s (Liquid); method: Concentric cylinders viscometry
Temperature, K	Mole fraction of butan-2-ol	Viscosity, Pa*s	uncertainty
293.15	0	0.037329	0.002274
293.15	0.081	0.030364	0.001847
293.15	0.1607	0.02531	0.001538
293.15	0.2395	0.02096	0.001273
293.15	0.3499	0.015846	0.000961
293.15	0.4394	0.01263	0.000765
293.15	0.5602	0.009361	0.000567
293.15	0.658	0.007574	0.000458
293.15	0.7408	0.006103	0.000369
293.15	0.8511	0.004795	0.00029
293.15	0.9396	0.004079	0.000246
293.15	1	0.003743	0.000226
298.15	0	0.028595	0.001742
298.15	0.081	0.023431	0.001426
298.15	0.1607	0.019732	0.001199
298.15	0.2395	0.016461	0.001
298.15	0.3499	0.012592	0.000764
298.15	0.4394	0.010149	0.000615
298.15	0.5602	0.007634	0.000462
298.15	0.658	0.006253	0.000378
298.15	0.7408	0.005076	0.000307
298.15	0.8511	0.004016	0.000243
298.15	0.9396	0.003403	0.000205
298.15	1	0.003101	0.000187
303.15	0	0.022306	0.001359
303.15	0.081	0.018389	0.001119
303.15	0.1607	0.015603	0.000948
303.15	0.2395	0.013108	0.000796
303.15	0.3499	0.010148	0.000616
303.15	0.4394	0.008261	0.000501
303.15	0.5602	0.006309	0.000382
303.15	0.658	0.005213	0.000315
303.15	0.7408	0.004261	0.000258
303.15	0.8511	0.003377	0.000204
303.15	0.9396	0.002853	0.000172
303.15	1	0.002579	0.000156
308.15	0	0.017673	0.001076
308.15	0.081	0.014659	0.000892
308.15	0.1607	0.012507	0.00076
308.15	0.2395	0.010581	0.000643
308.15	0.3499	0.00829	0.000503
308.15	0.4394	0.006808	0.000413
308.15	0.5602	0.005251	0.000318
308.15	0.658	0.004371	0.000264
308.15	0.7408	0.003604	0.000218
308.15	0.8511	0.002866	0.000173
308.15	0.9396	0.002411	0.000146
308.15	1	0.002162	0.000131
313.15	0	0.014208	0.000865
313.15	0.081	0.011855	0.000721
313.15	0.1607	0.010158	0.000618
313.15	0.2395	0.008658	0.000526
313.15	0.3499	0.006856	0.000416
313.15	0.4394	0.005676	0.000344
313.15	0.5602	0.004422	0.000268
313.15	0.658	0.003715	0.000225
313.15	0.7408	0.00307	0.000186
313.15	0.8511	0.002446	0.000148
313.15	0.9396	0.002053	0.000124
313.15	1	0.001828	0.00011
318.15	0	0.011576	0.000705
318.15	0.081	0.009715	0.000591
318.15	0.1607	0.008364	0.000508
318.15	0.2395	0.007173	0.000436
318.15	0.3499	0.005733	0.000348
318.15	0.4394	0.004781	0.00029
318.15	0.5602	0.003758	0.000228
318.15	0.658	0.003174	0.000192
318.15	0.7408	0.002634	0.000159
318.15	0.8511	0.002103	0.000127
318.15	0.9396	0.00176	0.000106
318.15	1	0.001559	9.4e-05
323.15	0	0.009546	0.000582
323.15	0.081	0.008057	0.00049
323.15	0.1607	0.006971	0.000424
323.15	0.2395	0.006012	0.000365
323.15	0.3499	0.00485	0.000294
323.15	0.4394	0.004064	0.000246
323.15	0.5602	0.003228	0.000195
323.15	0.658	0.002731	0.000165
323.15	0.7408	0.002275	0.000138
323.15	0.8511	0.00182	0.00011
323.15	0.9396	0.001519	9.2e-05
323.15	1	0.001318	8e-05
