Measured thermophysical data. Solubilities of Five Lithium Salts in 1-Butyl-3-methylimidazolium Dicyanamide and in 1-Butyl-3-methylimidazolium Tetrafluoroborate from 298.15 to 343.15 K
Source: J. Chem. Eng. Data, 2018, 10.1021/acs.jced.8b00618
Compound 1: lithium fluoride, FLi, InChI=1S/FH.Li/h1H;/q;+1/p-1, purity 97%
Compound 2: lithium chloride, ClLi, InChI=1S/ClH.Li/h1H;/q;+1/p-1, purity 99%
Compound 3: lithium bromide, BrLi, InChI=1S/BrH.Li/h1H;/q;+1/p-1, purity 99%
Compound 4: lithium bis((trifluoromethyl)sulfonyl)amide, C2F6LiNO4S2, InChI=1S/C2F6NO4S2.Li/c3-1(4,5)14(10,11)9-15(12,13)2(6,7)8;/q-1;+1, purity 99%
Compound 5: lithium hexafluorophosphate, F6LiP, InChI=1S/F6P.Li/c1-7(2,3,4,5)6;/q-1;+1, purity 97%
Compound 6: 1-butyl-3-methylimidazolium dicyanamide, C10H15N5, InChI=1S/C8H15N2.C2N3/c1-3-4-5-10-7-6-9(2)8-10;3-1-5-2-4/h6-8H,3-5H2,1-2H3;/q+1;-1, purity 98%
Compound 7: 1-butyl-3-methylimidazolium trifluoromethanesulfonate, C9H15F3N2O3S, InChI=1S/C8H15N2.CHF3O3S/c1-3-4-5-10-7-6-9(2)8-10;2-1(3,4)8(5,6)7/h6-8H,3-5H2,1-2H3;(H,5,6,7)/q+1;/p-1, purity 98%
Compound 8: 1-butyl-3-methylimidazolium tetrafluoroborate, C8H15BF4N2, InChI=1S/C8H15N2.BF4/c1-3-4-5-10-7-6-9(2)8-10;2-1(3,4)5/h6-8H,3-5H2,1-2H3;/q+1;-1, purity 98%

System: lithium chloride + 1-butyl-3-methylimidazolium trifluoromethanesulfonate; phases: Liquid, Crystal
Fixed: Pressure, kPa = 100
Property: Mole fraction of lithium chloride (Liquid); method: spectroscopy
Temperature, K	Mole fraction of lithium chloride	uncertainty
298.15	0.0285	0.0034
303.15	0.03	0.0036
313.15	0.034	0.0041
323.15	0.0433	0.0052
333.15	0.056	0.0068
343.15	0.0753	0.0091
353.15	0.0938	0.0113

System: lithium chloride + 1-butyl-3-methylimidazolium dicyanamide; phases: Liquid, Crystal
Fixed: Pressure, kPa = 100
Property: Mole fraction of lithium chloride (Liquid); method: spectroscopy
Temperature, K	Mole fraction of lithium chloride	uncertainty
298.15	0.0756	0.0091
303.15	0.0807	0.0097
313.15	0.0927	0.0112
323.15	0.108	0.013
333.15	0.131	0.016
343.15	0.152	0.018

System: lithium bromide + 1-butyl-3-methylimidazolium dicyanamide; phases: Liquid, Crystal
Fixed: Pressure, kPa = 100
Property: Mole fraction of lithium bromide (Liquid); method: spectroscopy
Temperature, K	Mole fraction of lithium bromide	uncertainty
298.15	0.09	0.0108
303.15	0.095	0.0114
313.15	0.107	0.013
323.15	0.126	0.015
333.15	0.15	0.018
343.15	0.184	0.022

System: lithium bis((trifluoromethyl)sulfonyl)amide + 1-butyl-3-methylimidazolium dicyanamide; phases: Liquid, Crystal
Fixed: Pressure, kPa = 100
Property: Mole fraction of lithium bis((trifluoromethyl)sulfonyl)amide (Liquid); method: spectroscopy
Temperature, K	Mole fraction of lithium bis((trifluoromethyl)sulfonyl)amide	uncertainty
298.15	0.112	0.013
303.15	0.117	0.014
313.15	0.133	0.016
323.15	0.153	0.018
333.15	0.177	0.021
343.15	0.205	0.025

System: lithium hexafluorophosphate + 1-butyl-3-methylimidazolium dicyanamide; phases: Liquid, Crystal
Fixed: Pressure, kPa = 100
Property: Mole fraction of lithium hexafluorophosphate (Liquid); method: spectroscopy
Temperature, K	Mole fraction of lithium hexafluorophosphate	uncertainty
298.15	0.135	0.016
303.15	0.139	0.017
313.15	0.155	0.019
323.15	0.176	0.021
333.15	0.203	0.024
343.15	0.242	0.029

System: lithium fluoride + 1-butyl-3-methylimidazolium dicyanamide; phases: Liquid, Crystal
Fixed: Pressure, kPa = 100
Property: Mole fraction of lithium fluoride (Liquid); method: spectroscopy
Temperature, K	Mole fraction of lithium fluoride	uncertainty
298.15	0.000634	7.6e-05
303.15	0.000637	7.6e-05
313.15	0.000646	7.8e-05
323.15	0.000672	8.1e-05
333.15	0.000711	8.5e-05
343.15	0.000725	8.7e-05

System: lithium chloride + 1-butyl-3-methylimidazolium tetrafluoroborate; phases: Liquid, Crystal
Fixed: Pressure, kPa = 100
Property: Mole fraction of lithium chloride (Liquid); method: spectroscopy
Temperature, K	Mole fraction of lithium chloride	uncertainty
298.15	0.0377	0.0045
303.15	0.0406	0.0049
313.15	0.0536	0.0065
323.15	0.0678	0.0082
333.15	0.087	0.0105
343.15	0.105	0.013

System: lithium bromide + 1-butyl-3-methylimidazolium tetrafluoroborate; phases: Liquid, Crystal
Fixed: Pressure, kPa = 100
Property: Mole fraction of lithium bromide (Liquid); method: spectroscopy
Temperature, K	Mole fraction of lithium bromide	uncertainty
298.15	0.062	0.0075
303.15	0.066	0.008
313.15	0.081	0.0098
323.15	0.107	0.013
333.15	0.13	0.016
343.15	0.17	0.021

System: lithium bis((trifluoromethyl)sulfonyl)amide + 1-butyl-3-methylimidazolium tetrafluoroborate; phases: Liquid, Crystal
Fixed: Pressure, kPa = 100
Property: Mole fraction of lithium bis((trifluoromethyl)sulfonyl)amide (Liquid); method: spectroscopy
Temperature, K	Mole fraction of lithium bis((trifluoromethyl)sulfonyl)amide	uncertainty
298.15	0.094	0.0113
303.15	0.098	0.0118
313.15	0.109	0.013
323.15	0.13	0.016
333.15	0.153	0.018
343.15	0.177	0.021

System: lithium hexafluorophosphate + 1-butyl-3-methylimidazolium tetrafluoroborate; phases: Liquid, Crystal
Fixed: Pressure, kPa = 100
Property: Mole fraction of lithium hexafluorophosphate (Liquid); method: spectroscopy
Temperature, K	Mole fraction of lithium hexafluorophosphate	uncertainty
298.15	0.103	0.012
303.15	0.108	0.013
313.15	0.125	0.015
323.15	0.141	0.017
333.15	0.163	0.02
343.15	0.196	0.024

System: lithium fluoride + 1-butyl-3-methylimidazolium tetrafluoroborate; phases: Liquid, Crystal
Fixed: Pressure, kPa = 100
Property: Mole fraction of lithium fluoride (Liquid); method: spectroscopy
Temperature, K	Mole fraction of lithium fluoride	uncertainty
298.15	0.000318	3.8e-05
303.15	0.00032	3.8e-05
313.15	0.000323	3.9e-05
323.15	0.00033	4e-05
333.15	0.000333	4e-05
343.15	0.000341	4.1e-05
