Measured thermophysical data. Solubility of Nesquehonite and Calcite in Pressurized Carbonated Water from 293.15 to 343.15 K
Source: J. Chem. Eng. Data, 2018, 10.1021/acs.jced.8b00185
Compound 1: calcium carbonate, CCaO3, InChI=1S/CH2O3.Ca/c2-1(3)4;/h(H2,2,3,4);/q;+2/p-2, purity 99%
Compound 2: magnesium carbonate, CMgO3, InChI=1S/CH2O3.Mg/c2-1(3)4;/h(H2,2,3,4);/q;+2/p-2, purity 99.69%
Compound 3: water, H2O, InChI=1S/H2O/h1H2, purity 99.9%
Compound 4: carbon dioxide, CO2, InChI=1S/CO2/c2-1-3, purity 99%

System: calcium carbonate + carbon dioxide + water; phases: Liquid, Crystal, Gas
Property: Mole fraction of calcium carbonate (Liquid); method: spectroscopy
Temperature, K	Pressure, kPa of carbon dioxide	Mole fraction of calcium carbonate	uncertainty
293.15	1000	0.0004004	2.3e-05
293.15	2000	0.0005013	2.22e-05
293.15	3000	0.0005484	2.38e-05
293.15	4000	0.000571	2.32e-05
293.15	5000	0.0005903	2.31e-05
303.15	1000	0.0003455	2.35e-05
303.15	2000	0.0004384	2.36e-05
303.15	3000	0.0004776	2.42e-05
303.15	4000	0.0005131	2.46e-05
303.15	5000	0.0005347	2.33e-05
313.15	1000	0.0002796	2.31e-05
313.15	2000	0.0003785	2.36e-05
313.15	3000	0.0004147	2.34e-05
313.15	4000	0.0004312	2.38e-05
313.15	5000	0.0004745	2.42e-05
323.15	1000	0.0002332	2.14e-05
323.15	2000	0.0003164	2.34e-05
323.15	3000	0.0003584	2.35e-05
323.15	4000	0.0003859	2.3e-05
323.15	5000	0.0004011	2.39e-05
333.15	1000	0.0002064	2.12e-05
333.15	2000	0.0002595	2.27e-05
333.15	3000	0.0002928	2.32e-05
333.15	4000	0.0003206	2.24e-05
333.15	5000	0.0003449	2.25e-05
343.15	1000	0.0001652	2.17e-05
343.15	2000	0.0002113	2.27e-05
343.15	3000	0.000243	2.2e-05
343.15	4000	0.0002871	2.19e-05
343.15	5000	0.0003009	2.19e-05

System: magnesium carbonate + carbon dioxide + water; phases: Liquid, Crystal of intercomponent compound 1, Gas
Property: Mole fraction of magnesium carbonate (Liquid); method: spectroscopy
Temperature, K	Pressure, kPa of carbon dioxide	Mole fraction of magnesium carbonate	uncertainty
293.15	1	0.0132	0.00208
293.15	1.5	0.01539	0.00224
293.15	2	0.01669	0.00237
293.15	2.5	0.01709	0.00241
293.15	3	0.01826	0.00255
293.15	3.5	0.01862	0.00259
293.15	4	0.01963	0.00273
293.15	4.5	0.01977	0.00275
293.15	5	0.02031	0.00282
303.15	1	0.01038	0.00207
303.15	1.5	0.01154	0.00207
303.15	2	0.01324	0.00207
303.15	2.5	0.0138	0.00207
303.15	3	0.01465	0.00207
303.15	3.5	0.015	0.00207
303.15	4	0.01569	0.00207
303.15	4.5	0.01612	0.00207
303.15	5	0.01629	0.00207
313.15	1	0.00787	0.00204
313.15	1.5	0.00912	0.00204
313.15	2	0.01038	0.00204
313.15	2.5	0.01119	0.00204
313.15	3	0.01185	0.00204
313.15	3.5	0.01275	0.00204
313.15	4	0.01293	0.00204
313.15	4.5	0.01356	0.00205
313.15	5	0.01401	0.00205
323.15	1	0.00618	0.00202
323.15	1.5	0.00746	0.00202
323.15	2	0.00813	0.00202
323.15	2.5	0.00896	0.00202
323.15	3	0.00971	0.00202
323.15	3.5	0.01085	0.00202
323.15	4	0.0114	0.00202
323.15	4.5	0.01177	0.00202
323.15	5	0.01216	0.00202
333.15	1	0.00518	0.00201
333.15	1.5	0.00618	0.00201
333.15	2	0.00708	0.00201
333.15	2.5	0.00766	0.00201
333.15	3	0.00848	0.00201
333.15	3.5	0.00908	0.00201
333.15	4	0.00925	0.00201
333.15	4.5	0.00945	0.00201
333.15	5	0.00992	0.00201
343.15	1	0.00414	0.00201
343.15	1.5	0.00493	0.002
343.15	2	0.00555	0.002
343.15	2.5	0.00641	0.00202
343.15	3	0.00677	0.00203
343.15	3.5	0.00748	0.00205
343.15	4	0.00809	0.00208
343.15	4.5	0.00818	0.00209
343.15	5	0.00836	0.0021
