Measured thermophysical data. Effect of Ionic Liquids on the Binary Vapor-Liquid Equilibrium of Ethyl Acetate + Methanol System at 101.3 kPa
Source: J. Chem. Eng. Data, 2019, 10.1021/acs.jced.8b00424
Compound 1: ethyl acetate, C4H8O2, InChI=1S/C4H8O2/c1-3-6-4(2)5/h3H2,1-2H3, purity 99.5%
Compound 2: methanol, CH4O, InChI=1S/CH4O/c1-2/h2H,1H3, purity 99.5%
Compound 3: 1-ethyl-3-methylimidazolium bromide, C6H11BrN2, InChI=1S/C6H11N2.BrH/c1-3-8-5-4-7(2)6-8;/h4-6H,3H2,1-2H3;1H/q+1;/p-1, purity 98%
Compound 4: 1-ethyl-3-methylimidazolium chloride, C6H11ClN2, InChI=1S/C6H11N2.ClH/c1-3-8-5-4-7(2)6-8;/h4-6H,3H2,1-2H3;1H/q+1;/p-1, purity 98%
Compound 5: 1-ethyl-3-methylimidazolium acetate, C8H14N2O2, InChI=1S/C6H11N2.C2H4O2/c1-3-8-5-4-7(2)6-8;1-2(3)4/h4-6H,3H2,1-2H3;1H3,(H,3,4)/q+1;/p-1, purity 98%

System: ethyl acetate; phases: Liquid, Gas
Property: Vapor or sublimation pressure, kPa (Liquid); method: Ebulliometric method (Recirculating still)
Temperature, K	Vapor or sublimation pressure, kPa	uncertainty
349.95	101.3	0.2

System: methanol; phases: Liquid, Gas
Property: Vapor or sublimation pressure, kPa (Liquid); method: Ebulliometric method (Recirculating still)
Temperature, K	Vapor or sublimation pressure, kPa	uncertainty
337.45	101.3	0.2

System: ethyl acetate + methanol; phases: Liquid, Gas
Fixed: Pressure, kPa = 101.3
Property: Boiling temperature at pressure P, K (Liquid); method: Ebulliometric method (Recirculating still)
Mole fraction of ethyl acetate	Boiling temperature at pressure P, K	uncertainty
0	337.45	0.09
0.023	337.29	0.1
0.049	336.85	0.1
0.077	336.49	0.09
0.113	336.12	0.09
0.158	335.8	0.09
0.198	335.62	0.09
0.266	335.45	0.09
0.322	335.5	0.09
0.428	335.7	0.09
0.54	336.26	0.09
0.673	337.48	0.1
0.809	339.95	0.1
0.898	343.06	0.13
0.961	346.8	0.16
1	349.95	0.09

System: ethyl acetate + methanol; phases: Gas, Liquid
Fixed: Pressure, kPa = 101.3
Property: Mole fraction of ethyl acetate (Gas); method: Chromatography
Mole fraction of ethyl acetate	Mole fraction of ethyl acetate	uncertainty
0	0	
0.023	0.039	0.004
0.049	0.08	0.004
0.077	0.116	0.003
0.113	0.159	0.003
0.158	0.199	0.003
0.198	0.233	0.003
0.266	0.275	0.003
0.322	0.314	0.004
0.428	0.354	0.004
0.54	0.413	0.004
0.673	0.485	0.005
0.809	0.589	0.005
0.898	0.715	0.005
0.961	0.857	0.006
1	1	

System: ethyl acetate + methanol + 1-ethyl-3-methylimidazolium bromide; phases: Liquid, Gas
Fixed: Pressure, kPa = 101.3
Property: Boiling temperature at pressure P, K (Liquid); method: Ebulliometric method (Recirculating still)
Mole fraction of 1-ethyl-3-methylimidazolium bromide	Solvent: Mole fraction of ethyl acetate	Boiling temperature at pressure P, K	uncertainty
0.102	0.076	340.4	0.14
0.103	0.149	339.41	0.13
0.103	0.211	339.04	0.12
0.103	0.273	339.01	0.12
0.101	0.33	339.13	0.13
0.101	0.391	339.54	0.13
0.102	0.456	340.22	0.13
0.103	0.509	340.9	0.14
0.101	0.57	341.68	0.14
0.102	0.627	342.56	0.15
0.1	0.688	343.5	0.15
0.098	0.754	344.6	0.15
0.099	0.836	346.5	0.15
0.153	0.055	344.32	0.19
0.153	0.106	342.91	0.18
0.152	0.154	342.02	0.16
0.151	0.205	341.48	0.15
0.152	0.252	341.36	0.15
0.152	0.301	341.45	0.14
0.151	0.365	341.86	0.14
0.15	0.426	342.45	0.14
0.15	0.49	343.15	0.14
0.151	0.548	343.85	0.14
0.15	0.618	344.85	0.15
0.149	0.685	345.79	0.15
0.149	0.82	348.2	0.14
0.202	0.046	349	0.22
0.203	0.101	346.79	0.2
0.203	0.165	345.21	0.18
0.202	0.225	344.38	0.16
0.202	0.287	344.12	0.15
0.201	0.343	344.17	0.14
0.201	0.402	344.56	0.14
0.2	0.463	345.15	0.14
0.201	0.515	345.92	0.14
0.2	0.568	346.74	0.15
0.2	0.612	347.45	0.15
0.199	0.676	348.5	0.16
0.199	0.795	350.6	0.15
0	0	337.45	0.1
0	0.023	337.29	0.1
0	0.049	336.85	0.1
0	0.077	336.49	0.1
0	0.113	336.12	0.1
0	0.158	335.8	0.1
0	0.198	335.62	0.1
0	0.266	335.45	0.1
0	0.322	335.5	0.1
0	0.428	335.7	0.1
0	0.54	336.26	0.1
0	0.673	337.48	0.1
0	0.809	339.95	0.11
0	0.898	343.06	0.13
0	0.961	346.8	0.17
0	1	349.95	0.1

System: ethyl acetate + methanol + 1-ethyl-3-methylimidazolium bromide; phases: Gas, Liquid
Fixed: Pressure, kPa = 101.3
Property: Mole fraction of ethyl acetate (Gas); method: Chromatography
Mole fraction of 1-ethyl-3-methylimidazolium bromide	Solvent: Mole fraction of ethyl acetate	Mole fraction of ethyl acetate	uncertainty
0.102	0.076	0.164	0.004
0.103	0.149	0.272	0.005
0.103	0.211	0.343	0.005
0.103	0.273	0.4	0.005
0.101	0.33	0.441	0.006
0.101	0.391	0.485	0.007
0.102	0.456	0.525	0.007
0.103	0.509	0.56	0.007
0.101	0.57	0.597	0.006
0.102	0.627	0.635	0.006
0.1	0.688	0.673	0.006
0.098	0.754	0.718	0.006
0.099	0.836	0.782	0.005
0.153	0.055	0.151	0.005
0.153	0.106	0.255	0.005
0.152	0.154	0.328	0.005
0.151	0.205	0.395	0.006
0.152	0.252	0.445	0.006
0.152	0.301	0.483	0.006
0.151	0.365	0.532	0.007
0.15	0.426	0.576	0.006
0.15	0.49	0.615	0.006
0.151	0.548	0.655	0.006
0.15	0.618	0.7	0.005
0.149	0.685	0.743	0.005
0.149	0.82	0.83	0.004
0.202	0.046	0.156	0.005
0.203	0.101	0.287	0.005
0.203	0.165	0.396	0.006
0.202	0.225	0.474	0.006
0.202	0.287	0.535	0.007
0.201	0.343	0.587	0.006
0.201	0.402	0.63	0.006
0.2	0.463	0.667	0.006
0.201	0.515	0.705	0.005
0.2	0.568	0.733	0.005
0.2	0.612	0.758	0.005
0.199	0.676	0.795	0.004
0.199	0.795	0.865	0.004
0	0	0	
0	0.023	0.039	0.004
0	0.049	0.08	0.004
0	0.077	0.116	0.003
0	0.113	0.159	0.003
0	0.158	0.199	0.003
0	0.198	0.233	0.003
0	0.266	0.275	0.004
0	0.322	0.314	0.004
0	0.428	0.354	0.004
0	0.54	0.413	0.005
0	0.673	0.485	0.006
0	0.809	0.589	0.006
0	0.898	0.715	0.006
0	0.961	0.857	0.006
0	1	1	

System: ethyl acetate + methanol + 1-ethyl-3-methylimidazolium bromide; phases: Gas, Liquid
Fixed: Pressure, kPa = 101.3
Property: Mole fraction of 1-ethyl-3-methylimidazolium bromide (Gas); method: Chromatography
Mole fraction of 1-ethyl-3-methylimidazolium bromide	Solvent: Mole fraction of ethyl acetate	Mole fraction of 1-ethyl-3-methylimidazolium bromide	uncertainty
0.102	0.076	0	
0.103	0.149	0	
0.103	0.211	0	
0.103	0.273	0	
0.101	0.33	0	
0.101	0.391	0	
0.102	0.456	0	
0.103	0.509	0	
0.101	0.57	0	
0.102	0.627	0	
0.1	0.688	0	
0.098	0.754	0	
0.099	0.836	0	
0.153	0.055	0	
0.153	0.106	0	
0.152	0.154	0	
0.151	0.205	0	
0.152	0.252	0	
0.152	0.301	0	
0.151	0.365	0	
0.15	0.426	0	
0.15	0.49	0	
0.151	0.548	0	
0.15	0.618	0	
0.149	0.685	0	
0.149	0.82	0	
0.202	0.046	0	
0.203	0.101	0	
0.203	0.165	0	
0.202	0.225	0	
0.202	0.287	0	
0.201	0.343	0	
0.201	0.402	0	
0.2	0.463	0	
0.201	0.515	0	
0.2	0.568	0	
0.2	0.612	0	
0.199	0.676	0	
0.199	0.795	0	

System: ethyl acetate + methanol + 1-ethyl-3-methylimidazolium chloride; phases: Liquid, Gas
Fixed: Pressure, kPa = 101.3
Property: Boiling temperature at pressure P, K (Liquid); method: Ebulliometric method (Recirculating still)
Mole fraction of 1-ethyl-3-methylimidazolium chloride	Solvent: Mole fraction of ethyl acetate	Boiling temperature at pressure P, K	uncertainty
0.053	0.049	339.45	0.15
0.053	0.091	338.9	0.15
0.052	0.135	338.42	0.15
0.053	0.213	337.7	0.14
0.052	0.285	337.45	0.13
0.051	0.346	337.55	0.13
0.052	0.403	337.85	0.13
0.052	0.474	338.35	0.13
0.051	0.534	338.85	0.15
0.051	0.618	339.97	0.17
0.05	0.687	340.98	0.17
0.05	0.758	342.25	0.18
0.049	0.824	343.85	0.18
0.103	0.047	342.55	0.21
0.104	0.112	341.65	0.18
0.104	0.173	340.85	0.17
0.102	0.237	340.15	0.17
0.103	0.288	339.75	0.16
0.102	0.336	339.65	0.15
0.103	0.392	339.8	0.15
0.103	0.446	340.45	0.16
0.102	0.523	341.7	0.16
0.1	0.609	343.22	0.17
0.099	0.675	344.35	0.17
0.098	0.728	345.3	0.18
0.1	0.782	346.4	0.18
0.152	0.041	348.15	0.25
0.152	0.079	346.85	0.21
0.151	0.124	345.55	0.21
0.15	0.174	344.55	0.2
0.15	0.242	343.75	0.19
0.149	0.309	343.25	0.19
0.15	0.355	343.27	0.18
0.151	0.403	343.62	0.19
0.151	0.47	344.25	0.18
0.15	0.552	345.3	0.17
0.151	0.615	346.45	0.16
0.15	0.682	347.83	0.17
0.149	0.747	349.36	0.19
0	0	337.45	0.1
0	0.023	337.29	0.1
0	0.049	336.85	0.1
0	0.077	336.49	0.1
0	0.113	336.12	0.1
0	0.158	335.8	0.1
0	0.198	335.62	0.1
0	0.266	335.45	0.1
0	0.322	335.5	0.1
0	0.428	335.7	0.1
0	0.54	336.26	0.1
0	0.673	337.48	0.1
0	0.809	339.95	0.11
0	0.898	343.06	0.13
0	0.961	346.8	0.17
0	1	349.95	0.1

System: ethyl acetate + methanol + 1-ethyl-3-methylimidazolium chloride; phases: Gas, Liquid
Fixed: Pressure, kPa = 101.3
Property: Mole fraction of ethyl acetate (Gas); method: Chromatography
Mole fraction of 1-ethyl-3-methylimidazolium chloride	Solvent: Mole fraction of ethyl acetate	Mole fraction of ethyl acetate	uncertainty
0.053	0.049	0.105	0.004
0.053	0.091	0.178	0.004
0.052	0.135	0.237	0.004
0.053	0.213	0.323	0.005
0.052	0.285	0.382	0.006
0.051	0.346	0.425	0.006
0.052	0.403	0.456	0.007
0.052	0.474	0.504	0.007
0.051	0.534	0.535	0.007
0.051	0.618	0.588	0.007
0.05	0.687	0.625	0.007
0.05	0.758	0.685	0.007
0.049	0.824	0.741	0.006
0.103	0.047	0.125	0.005
0.104	0.112	0.254	0.005
0.104	0.173	0.345	0.005
0.102	0.237	0.413	0.006
0.103	0.288	0.465	0.007
0.102	0.336	0.503	0.007
0.103	0.392	0.545	0.007
0.103	0.446	0.582	0.007
0.102	0.523	0.628	0.006
0.1	0.609	0.681	0.006
0.099	0.675	0.719	0.006
0.098	0.728	0.755	0.005
0.1	0.782	0.798	0.005
0.152	0.041	0.136	0.006
0.152	0.079	0.234	0.006
0.151	0.124	0.325	0.005
0.15	0.174	0.402	0.006
0.15	0.242	0.487	0.007
0.149	0.309	0.555	0.007
0.15	0.355	0.595	0.006
0.151	0.403	0.633	0.006
0.151	0.47	0.678	0.006
0.15	0.552	0.728	0.005
0.151	0.615	0.763	0.005
0.15	0.682	0.806	0.005
0.149	0.747	0.843	0.004
0	0	0	
0	0.023	0.039	0.004
0	0.049	0.08	0.004
0	0.077	0.116	0.003
0	0.113	0.159	0.003
0	0.158	0.199	0.003
0	0.198	0.233	0.003
0	0.266	0.275	0.004
0	0.322	0.314	0.004
0	0.428	0.354	0.004
0	0.54	0.413	0.005
0	0.673	0.485	0.006
0	0.809	0.589	0.006
0	0.898	0.715	0.006
0	0.961	0.857	0.006
0	1	1	

System: ethyl acetate + methanol + 1-ethyl-3-methylimidazolium chloride; phases: Gas, Liquid
Fixed: Pressure, kPa = 101.3
Property: Mole fraction of 1-ethyl-3-methylimidazolium chloride (Gas); method: Chromatography
Mole fraction of 1-ethyl-3-methylimidazolium chloride	Solvent: Mole fraction of ethyl acetate	Mole fraction of 1-ethyl-3-methylimidazolium chloride	uncertainty
0.053	0.049	0	
0.053	0.091	0	
0.052	0.135	0	
0.053	0.213	0	
0.052	0.285	0	
0.051	0.346	0	
0.052	0.403	0	
0.052	0.474	0	
0.051	0.534	0	
0.051	0.618	0	
0.05	0.687	0	
0.05	0.758	0	
0.049	0.824	0	
0.103	0.047	0	
0.104	0.112	0	
0.104	0.173	0	
0.102	0.237	0	
0.103	0.288	0	
0.102	0.336	0	
0.103	0.392	0	
0.103	0.446	0	
0.102	0.523	0	
0.1	0.609	0	
0.099	0.675	0	
0.098	0.728	0	
0.1	0.782	0	
0.152	0.041	0	
0.152	0.079	0	
0.151	0.124	0	
0.15	0.174	0	
0.15	0.242	0	
0.149	0.309	0	
0.15	0.355	0	
0.151	0.403	0	
0.151	0.47	0	
0.15	0.552	0	
0.151	0.615	0	
0.15	0.682	0	
0.149	0.747	0	

System: ethyl acetate + methanol + 1-ethyl-3-methylimidazolium acetate; phases: Liquid, Gas
Fixed: Pressure, kPa = 101.3
Property: Boiling temperature at pressure P, K (Liquid); method: Ebulliometric method (Recirculating still)
Mole fraction of 1-ethyl-3-methylimidazolium acetate	Solvent: Mole fraction of ethyl acetate	Boiling temperature at pressure P, K	uncertainty
0.022	0.018	338.46	0.17
0.022	0.052	337.74	0.16
0.021	0.106	337.02	0.15
0.022	0.158	336.55	0.14
0.022	0.211	336.28	0.14
0.023	0.257	336.19	0.14
0.024	0.312	336.2	0.15
0.023	0.381	336.37	0.16
0.022	0.452	336.88	0.17
0.022	0.518	337.55	0.19
0.021	0.663	339.45	0.22
0.022	0.808	342.55	0.23
0.021	0.894	345.25	0.22
0.02	0.97	348.95	0.22
0.049	0.043	339.95	0.21
0.051	0.098	339.12	0.2
0.052	0.151	338.5	0.2
0.051	0.205	338.15	0.19
0.051	0.251	338.05	0.18
0.05	0.315	338.2	0.18
0.051	0.406	338.79	0.17
0.051	0.461	339.3	0.18
0.052	0.513	339.95	0.18
0.053	0.563	340.75	0.18
0.053	0.641	342.05	0.19
0.052	0.718	343.42	0.19
0.052	0.778	344.68	0.19
0.052	0.893	347.75	0.17
0.099	0.083	344.16	0.22
0.1	0.121	343.48	0.21
0.101	0.17	342.76	0.21
0.102	0.238	342.18	0.19
0.102	0.289	342.05	0.19
0.103	0.342	342.03	0.18
0.102	0.412	342.31	0.17
0.101	0.483	343.05	0.18
0.1	0.541	343.85	0.18
0.101	0.618	345.25	0.18
0.102	0.684	346.45	0.18
0.101	0.737	347.46	0.18
0.102	0.786	348.45	0.18
0.101	0.873	350.2	0.16
0	0	337.45	0.1
0	0.023	337.29	0.1
0	0.049	336.85	0.1
0	0.077	336.49	0.1
0	0.113	336.12	0.1
0	0.158	335.8	0.1
0	0.198	335.62	0.1
0	0.266	335.45	0.1
0	0.322	335.5	0.1
0	0.428	335.7	0.1
0	0.54	336.26	0.1
0	0.673	337.48	0.1
0	0.809	339.95	0.11
0	0.898	343.06	0.13
0	0.961	346.8	0.17
0	1	349.95	0.1

System: ethyl acetate + methanol + 1-ethyl-3-methylimidazolium acetate; phases: Gas, Liquid
Fixed: Pressure, kPa = 101.3
Property: Mole fraction of ethyl acetate (Gas); method: Chromatography
Mole fraction of 1-ethyl-3-methylimidazolium acetate	Solvent: Mole fraction of ethyl acetate	Mole fraction of ethyl acetate	uncertainty
0.022	0.018	0.038	0.004
0.022	0.052	0.099	0.004
0.021	0.106	0.176	0.004
0.022	0.158	0.233	0.005
0.022	0.211	0.283	0.005
0.023	0.257	0.321	0.006
0.024	0.312	0.35	0.007
0.023	0.381	0.395	0.008
0.022	0.452	0.437	0.008
0.022	0.518	0.465	0.009
0.021	0.663	0.557	0.009
0.022	0.808	0.682	0.009
0.021	0.894	0.788	0.007
0.02	0.97	0.924	0.007
0.049	0.043	0.102	0.005
0.051	0.098	0.202	0.005
0.052	0.151	0.279	0.005
0.051	0.205	0.337	0.006
0.051	0.251	0.383	0.006
0.05	0.315	0.438	0.007
0.051	0.406	0.499	0.008
0.051	0.461	0.537	0.008
0.052	0.513	0.569	0.008
0.053	0.563	0.606	0.008
0.053	0.641	0.655	0.007
0.052	0.718	0.708	0.007
0.052	0.778	0.755	0.006
0.052	0.893	0.863	0.005
0.099	0.083	0.227	0.005
0.1	0.121	0.303	0.006
0.101	0.17	0.38	0.006
0.102	0.238	0.469	0.007
0.102	0.289	0.522	0.007
0.103	0.342	0.572	0.007
0.102	0.412	0.625	0.007
0.101	0.483	0.673	0.007
0.1	0.541	0.708	0.007
0.101	0.618	0.754	0.006
0.102	0.684	0.796	0.006
0.101	0.737	0.827	0.006
0.102	0.786	0.86	0.005
0.101	0.873	0.918	0.004
0	0	0	
0	0.023	0.039	0.004
0	0.049	0.08	0.004
0	0.077	0.116	0.003
0	0.113	0.159	0.003
0	0.158	0.199	0.003
0	0.198	0.233	0.003
0	0.266	0.275	0.004
0	0.322	0.314	0.004
0	0.428	0.354	0.004
0	0.54	0.413	0.005
0	0.673	0.485	0.006
0	0.809	0.589	0.006
0	0.898	0.715	0.006
0	0.961	0.857	0.006
0	1	1	

System: ethyl acetate + methanol + 1-ethyl-3-methylimidazolium acetate; phases: Gas, Liquid
Fixed: Pressure, kPa = 101.3
Property: Mole fraction of 1-ethyl-3-methylimidazolium acetate (Gas); method: Chromatography
Mole fraction of 1-ethyl-3-methylimidazolium acetate	Solvent: Mole fraction of ethyl acetate	Mole fraction of 1-ethyl-3-methylimidazolium acetate	uncertainty
0.022	0.018	0	
0.022	0.052	0	
0.021	0.106	0	
0.022	0.158	0	
0.022	0.211	0	
0.023	0.257	0	
0.024	0.312	0	
0.023	0.381	0	
0.022	0.452	0	
0.022	0.518	0	
0.021	0.663	0	
0.022	0.808	0	
0.021	0.894	0	
0.02	0.97	0	
0.049	0.043	0	
0.051	0.098	0	
0.052	0.151	0	
0.051	0.205	0	
0.051	0.251	0	
0.05	0.315	0	
0.051	0.406	0	
0.051	0.461	0	
0.052	0.513	0	
0.053	0.563	0	
0.053	0.641	0	
0.052	0.718	0	
0.052	0.778	0	
0.052	0.893	0	
0.099	0.083	0	
0.1	0.121	0	
0.101	0.17	0	
0.102	0.238	0	
0.102	0.289	0	
0.103	0.342	0	
0.102	0.412	0	
0.101	0.483	0	
0.1	0.541	0	
0.101	0.618	0	
0.102	0.684	0	
0.101	0.737	0	
0.102	0.786	0	
0.101	0.873	0	
