Measured thermophysical data. (Solid + Liquid) Phase Equilibria in the Quaternary System (NaBr + MgBr2 + CaBr2 + H2O) at 298.15 K
Source: J. Chem. Eng. Data, 2018, 10.1021/acs.jced.8b00291
Compound 1: sodium bromide, BrNa, InChI=1S/BrH.Na/h1H;/q;+1/p-1, purity 99.9%
Compound 2: magnesium bromide (MgBr2), Br2Mg, InChI=1S/2BrH.Mg/h2*1H;/q;;+2/p-2, purity 99.9%
Compound 3: water, H2O, InChI=1S/H2O/h1H2, purity 99.8%
Compound 4: calcium bromide, Br2Ca, InChI=1S/2BrH.Ca/h2*1H;/q;;+2/p-2, purity 99.9%

System: sodium bromide + magnesium bromide (MgBr2) + water; phases: Liquid, Crystal of intercomponent compound 1
Fixed: Pressure, kPa = 77.406
Fixed: Temperature, K = 298.15
Property: Mass fraction of sodium bromide (Liquid); method: Titration method
Mass fraction of magnesium bromide (MgBr2)	Mass fraction of sodium bromide	uncertainty
0	0.4857	0.0101
0.022	0.46	0.012
0.0399	0.4417	0.0118
0.1066	0.3715	0.0118
0.1735	0.3019	0.012
0.2063	0.2609	0.0115
0.3007	0.1773	0.0113
0.3831	0.1075	0.0112
0.4276	0.0716	0.0111

System: sodium bromide + magnesium bromide (MgBr2) + water; phases: Liquid, Crystal
Fixed: Pressure, kPa = 77.406
Fixed: Temperature, K = 298.15
Property: Mass fraction of sodium bromide (Liquid); method: Titration method
Mass fraction of magnesium bromide (MgBr2)	Mass fraction of sodium bromide	uncertainty
0.4276	0.0716	0.0104
0.4626	0.0541	0.0108
0.4795	0.0352	0.012

System: sodium bromide + magnesium bromide (MgBr2) + water; phases: Liquid, Crystal of intercomponent compound 2
Fixed: Pressure, kPa = 77.406
Fixed: Temperature, K = 298.15
Property: Mass fraction of sodium bromide (Liquid); method: Titration method
Mass fraction of magnesium bromide (MgBr2)	Mass fraction of sodium bromide	uncertainty
0.4795	0.0352	0.01
0.4916	0.0189	0.01
0.4979	0.0102	0.01
0.5018	0.0072	0.0072
0.5061	0	

System: sodium bromide + calcium bromide + water; phases: Liquid, Crystal of intercomponent compound 1
Fixed: Pressure, kPa = 77.406
Fixed: Temperature, K = 298.15
Property: Mass fraction of sodium bromide (Liquid); method: Titration method
Mass fraction of calcium bromide	Mass fraction of sodium bromide	uncertainty
0	0.4857	0.0101
0.0287	0.4571	0.0116
0.0831	0.4041	0.0121
0.142	0.331	0.0116
0.1995	0.2891	0.0113
0.2526	0.2347	0.0113
0.3677	0.1403	0.011
0.446	0.0861	0.0108

System: sodium bromide + calcium bromide + water; phases: Liquid, Crystal
Fixed: Temperature, K = 298.15
Fixed: Pressure, kPa = 77.406
Property: Mass fraction of sodium bromide (Liquid); method: Titration method
Mass fraction of calcium bromide	Mass fraction of sodium bromide	uncertainty
0.446	0.0861	0.0109
0.5166	0.0365	0.0105
0.5931	0.0088	0.0088
0.5934	0.0076	0.0076

System: sodium bromide + calcium bromide + water; phases: Liquid, Crystal of intercomponent compound 2
Fixed: Temperature, K = 298.15
Fixed: Pressure, kPa = 77.406
Property: Mass fraction of sodium bromide (Liquid); method: Titration method
Mass fraction of calcium bromide	Mass fraction of sodium bromide	uncertainty
0.5934	0.0076	0.0076
0.5969	0.0047	0.0047
0.6023	0.0018	0.0018
0.6025	0	

System: magnesium bromide (MgBr2) + calcium bromide + water; phases: Liquid, Crystal of intercomponent compound 1
Property: Mass fraction of magnesium bromide (MgBr2) (Liquid); method: Titration method
Mass fraction of calcium bromide	Pressure, kPa	Temperature, K	Mass fraction of magnesium bromide (MgBr2)	uncertainty
0.5437	77.406	298.15	0.0592	0.006

System: magnesium bromide (MgBr2) + calcium bromide + water; phases: Liquid, Crystal of intercomponent compound 2
Property: Mass fraction of magnesium bromide (MgBr2) (Liquid); method: Titration method
Mass fraction of calcium bromide	Pressure, kPa	Temperature, K	Mass fraction of magnesium bromide (MgBr2)	uncertainty
0.5437	77.406	298.15	0.0592	0.006

System: sodium bromide + water; phases: Liquid, Crystal of intercomponent compound 1
Property: Mass fraction of sodium bromide (Liquid); method: Titration method
Pressure, kPa	Temperature, K	Mass fraction of sodium bromide	uncertainty
77.406	298.15	0.4857	0.0101

System: magnesium bromide (MgBr2) + water; phases: Liquid, Crystal of intercomponent compound 1
Property: Mass fraction of magnesium bromide (MgBr2) (Liquid); method: Titration method
Pressure, kPa	Temperature, K	Mass fraction of magnesium bromide (MgBr2)	uncertainty
77.406	298.15	0.5061	0.0061

System: calcium bromide + water; phases: Liquid, Crystal of intercomponent compound 2
Property: Mass fraction of calcium bromide (Liquid); method: Titration method
Temperature, K	Pressure, kPa	Mass fraction of calcium bromide	uncertainty
298.15	77.406	0.6025	0.0061
