Measured thermophysical data. p.rho.T Property of trans-1-Chloro-3,3,3-trifluoropropene (R 1233zd(E)) near Critical Density
Source: J. Chem. Eng. Data, 2016, 10.1021/acs.jced.6b00502
Compound 1: (E)-1-chloro-3,3,3-trifluoroprop-1-ene, C3H2ClF3, InChI=1S/C3H2ClF3/c4-2-1-3(5,6)7/h1-2H/b2-1+

System: (E)-1-chloro-3,3,3-trifluoroprop-1-ene; phases: Fluid (supercritical or subcritical phases)
Property: Mass density, kg/m3 (Fluid (supercritical or subcritical phases)); method: ISOCHOR
Temperature, K	Pressure, kPa	Mass density, kg/m3	uncertainty
423.54	2562.1	161.6	3.1
433.53	2731.2	161.5	1.3
443.52	2895.1	161.5	1.4
433.53	3198.3	245.7	4.3
438.52	3344.4	245.6	5.6
443.52	3487.1	245.6	2.1
437.54	3476	339.4	36.8
438.53	3520.6	339.4	17.4
439.53	3564.3	339.4	33.2
440.53	3608.2	339.3	10
441.54	3651.5	339.3	6.8
438.51	3552.1	380	35.9
439.51	3602.8	380	24.8
440.51	3652.7	380	22
441.51	3701.8	380	15.7
442.52	3751.1	379.9	22.2
443.51	3799.6	379.9	13.3
439.54	3610.5	416.9	23.8
440.54	3665.6	416.9	18.7
441.53	3719.8	416.9	27.6
442.53	3773.9	416.9	19.5
443.53	3827.4	416.8	16
439.53	3604	442.7	24.1
440.53	3662	442.7	19.3
441.53	3719.6	442.7	26.9
442.53	3776.3	442.6	19.1
443.52	3833.4	442.6	16.4
439.55	3608.2	465.4	24
440.55	3668.2	465.4	17.4
441.54	3728.8	465.4	27.2
442.55	3788.9	465.4	18.8
443.54	3848.8	465.4	16.2
439.52	3601.5	486.6	23.7
440.51	3664	486.5	16
441.52	3726.6	486.5	27.6
442.51	3789.5	486.5	18.9
443.5	3852.4	486.5	13.7
439.52	3611.2	516.3	24.3
440.51	3677.6	516.2	22.7
441.52	3744.1	516.2	15.1
442.52	3810.5	516.2	12.8
443.51	3877.4	516.2	8.5
438.53	3571.8	568.4	29
439.53	3645.2	568.4	15.7
440.52	3718.8	568.4	12.6
441.53	3792.4	568.4	8.8
442.53	3866.8	568.3	7.6
443.53	3941.4	568.3	6.8
437.53	3538.8	624.6	26.9
438.53	3615.1	624.6	9.1
439.53	3691.5	624.6	6.9
440.53	3773	624.5	7.2
441.53	3858.4	624.5	5.3
442.53	3946.6	624.5	4.8
443.53	4035.7	624.4	4.4
436.55	3512.2	661.8	10.5
437.54	3587.6	661.7	8.2
438.55	3677.9	661.7	6.1
439.54	3778	661.7	4.8
440.55	3878.7	661.6	4.7
441.56	3977.8	661.6	4.4
442.54	4078.9	661.6	3.4
443.53	4178.7	661.5	3.5
428.53	3351.6	790.8	3.7
433.53	4118.1	790.7	3.5
438.53	4899.9	790.5	3.2
443.53	5689.8	790.3	3.2
413.53	2366.4	875.6	4.4
423.52	4414.5	875.2	3.5
433.53	6510	874.8	3.5
443.53	8631.6	874.4	3.5
393.52	2254.6	984.7	4
398.52	3744.2	984.5	4
403.53	5244.9	984.2	4
408.51	6747.1	984	4
413.52	8255.5	983.8	4
418.52	9765.1	983.5	3.9
393.52	4508.4	1013.7	4.1
398.51	6161.8	1013.5	4.1
403.52	7820	1013.2	4.1
408.5	9479.2	1013	4.1
373.51	1489.9	1056.3	4.2
378.51	3383.3	1056	4.2
383.51	5277	1055.8	4.2
388.5	7177.9	1055.5	4.2
393.51	9082.8	1055.3	4.2
353.51	1024.5	1120.1	4.5
358.51	3366.7	1119.8	4.5
363.53	5713.1	1119.6	4.5
368.54	8055.5	1119.3	4.5
338.52	776.8	1163.5	4.7
343.51	3480.6	1163.3	4.7
348.51	6176.9	1163	4.7
353.51	8867.2	1162.7	4.7
328.5	2985.9	1201.2	4.8
333.5	6038.3	1200.9	4.8
338.5	9077.7	1200.6	4.8
