Measured thermophysical data. Experimental Study of a Hydrophobic Solvent for Natural Gas Sweetening Based on the Solubility and Selectivity for Light Hydrocarbons (CH4, C2H6) and Acid Gases (CO2 and H2S) at 298-353 K
Source: J. Chem. Eng. Data, 2019, 10.1021/acs.jced.8b00735
Compound 1: nitrous oxide, N2O, InChI=1S/N2O/c1-2-3
Compound 2: water, H2O, InChI=1S/H2O/h1H2, purity 99.8%
Compound 3: 2-(2-fluorophenyl)ethylamine, C8H10FN, InChI=1S/C8H10FN/c9-8-4-2-1-3-7(8)5-6-10/h1-4H,5-6,10H2

System: nitrous oxide + water; phases: Liquid, Gas
Property: Molality, mol/kg of nitrous oxide (Liquid); method: phase equilibration
Temperature, K	Pressure, kPa of nitrous oxide	Molality, mol/kg of nitrous oxide	uncertainty
298.15	55.25	0.013	0.006
313.15	73.67	0.014	0.006
353.15	35.7	0.003	0.003

System: nitrous oxide + 2-(2-fluorophenyl)ethylamine; phases: Liquid, Gas
Property: Molality, mol/kg of nitrous oxide (Liquid); method: phase equilibration
Temperature, K	Pressure, kPa of nitrous oxide	Molality, mol/kg of nitrous oxide	uncertainty
298.15	32	0.024	0.01
313.15	136.5	0.078	0.009
333.15	24.8	0.012	0.01
353.15	33.91	0.013	0.01
