Measured thermophysical data. Measurement and Correlation of the Solubility of Pyrimethanil in Seven Monosolvents and Two Different Binary Mixed Solvents
Source: J. Chem. Eng. Data, 2018, 10.1021/acs.jced.8b00124
Compound 1: 2-anilino-4,6-dimethylpyrimidine, C12H13N3, InChI=1S/C12H13N3/c1-9-8-10(2)14-12(13-9)15-11-6-4-3-5-7-11/h3-8H,1-2H3,(H,13,14,15), purity 98%
Compound 2: methanol, CH4O, InChI=1S/CH4O/c1-2/h2H,1H3, purity 99.5%
Compound 3: ethanol, C2H6O, InChI=1S/C2H6O/c1-2-3/h3H,2H2,1H3, purity 99.5%
Compound 4: propan-1-ol, C3H8O, InChI=1S/C3H8O/c1-2-3-4/h4H,2-3H2,1H3, purity 99.5%
Compound 5: propan-2-ol, C3H8O, InChI=1S/C3H8O/c1-3(2)4/h3-4H,1-2H3, purity 99.5%
Compound 6: butan-1-ol, C4H10O, InChI=1S/C4H10O/c1-2-3-4-5/h5H,2-4H2,1H3, purity 99.5%
Compound 7: 2-methyl-1-propanol, C4H10O, InChI=1S/C4H10O/c1-4(2)3-5/h4-5H,3H2,1-2H3, purity 99.5%
Compound 8: cyclohexane, C6H12, InChI=1S/C6H12/c1-2-4-6-5-3-1/h1-6H2, purity 99.5%
Compound 9: water, H2O, InChI=1S/H2O/h1H2, purity 99.9%
Compound 10: 2-benzamidoacetic acid, C9H9NO3, InChI=1S/C9H9NO3/c11-8(12)6-10-9(13)7-4-2-1-3-5-7/h1-5H,6H2,(H,10,13)(H,11,12), purity 99%

System: 2-anilino-4,6-dimethylpyrimidine; phases: Crystal, Liquid, Air at 1 atmosphere
Property: Normal melting temperature, K (Crystal); method: DTA
Normal melting temperature, K	uncertainty
369.29	1.06

System: 2-anilino-4,6-dimethylpyrimidine; phases: Crystal, Liquid, Air at 1 atmosphere
Property: Molar enthalpy of transition or fusion, kJ/mol (Crystal); method: DSC
Molar enthalpy of transition or fusion, kJ/mol	uncertainty
25.44	1.11

System: 2-anilino-4,6-dimethylpyrimidine + methanol; phases: Liquid, Crystal
Fixed: Pressure, kPa = 100
Property: Mole fraction of 2-anilino-4,6-dimethylpyrimidine (Liquid); method: gravimetric
Temperature, K	Mole fraction of 2-anilino-4,6-dimethylpyrimidine	uncertainty
283.15	0.01379	0.00414
288.15	0.01616	0.00485
293.15	0.01934	0.0058
298.15	0.02451	0.00735
303.15	0.03106	0.00932
308.15	0.0418	0.01254
313.15	0.05677	0.01703
318.15	0.07648	0.02295
323.15	0.1073	0.0322

System: 2-anilino-4,6-dimethylpyrimidine + ethanol; phases: Liquid, Crystal
Fixed: Pressure, kPa = 100
Property: Mole fraction of 2-anilino-4,6-dimethylpyrimidine (Liquid); method: gravimetric
Temperature, K	Mole fraction of 2-anilino-4,6-dimethylpyrimidine	uncertainty
283.15	0.01457	0.00437
288.15	0.0175	0.00525
293.15	0.02109	0.00633
298.15	0.0267	0.00801
303.15	0.0332	0.00996
308.15	0.0438	0.01314
313.15	0.05768	0.01731
318.15	0.0785	0.02356
323.15	0.1122	0.0337

System: 2-anilino-4,6-dimethylpyrimidine + propan-1-ol; phases: Liquid, Crystal
Fixed: Pressure, kPa = 100
Property: Mole fraction of 2-anilino-4,6-dimethylpyrimidine (Liquid); method: gravimetric
Temperature, K	Mole fraction of 2-anilino-4,6-dimethylpyrimidine	uncertainty
283.15	0.0179	0.00537
288.15	0.02145	0.00644
293.15	0.02636	0.00791
298.15	0.03155	0.00947
303.15	0.03701	0.0111
308.15	0.04812	0.01444
313.15	0.06815	0.02045
318.15	0.09712	0.02914
323.15	0.1313	0.0394

System: 2-anilino-4,6-dimethylpyrimidine + propan-2-ol; phases: Liquid, Crystal
Fixed: Pressure, kPa = 100
Property: Mole fraction of 2-anilino-4,6-dimethylpyrimidine (Liquid); method: gravimetric
Temperature, K	Mole fraction of 2-anilino-4,6-dimethylpyrimidine	uncertainty
283.15	0.01032	0.0031
288.15	0.01256	0.00377
293.15	0.01602	0.00481
298.15	0.01983	0.00595
303.15	0.02503	0.00751
308.15	0.03239	0.00972
313.15	0.04293	0.01288
318.15	0.06105	0.01832
323.15	0.08607	0.02583

System: 2-anilino-4,6-dimethylpyrimidine + butan-1-ol; phases: Liquid, Crystal
Fixed: Pressure, kPa = 100
Property: Mole fraction of 2-anilino-4,6-dimethylpyrimidine (Liquid); method: gravimetric
Temperature, K	Mole fraction of 2-anilino-4,6-dimethylpyrimidine	uncertainty
283.15	0.01926	0.00578
288.15	0.02509	0.00753
293.15	0.03167	0.0095
298.15	0.03891	0.01167
303.15	0.04981	0.01495
308.15	0.06384	0.01916
313.15	0.0813	0.0244
318.15	0.1122	0.0337
323.15	0.1449	0.0435

System: 2-anilino-4,6-dimethylpyrimidine + 2-methyl-1-propanol; phases: Liquid, Crystal
Fixed: Pressure, kPa = 100
Property: Mole fraction of 2-anilino-4,6-dimethylpyrimidine (Liquid); method: gravimetric
Temperature, K	Mole fraction of 2-anilino-4,6-dimethylpyrimidine	uncertainty
283.15	0.01479	0.00444
288.15	0.01783	0.00535
293.15	0.02358	0.00707
298.15	0.02798	0.00839
303.15	0.0345	0.01035
308.15	0.04541	0.01363
313.15	0.06522	0.01957
318.15	0.0937	0.02812
323.15	0.13	0.039

System: 2-anilino-4,6-dimethylpyrimidine + cyclohexane; phases: Liquid, Crystal
Fixed: Pressure, kPa = 100
Property: Mole fraction of 2-anilino-4,6-dimethylpyrimidine (Liquid); method: gravimetric
Temperature, K	Mole fraction of 2-anilino-4,6-dimethylpyrimidine	uncertainty
283.15	0.00583	0.001749
288.15	0.007511	0.002254
293.15	0.009505	0.002852
298.15	0.01228	0.00368
303.15	0.01572	0.00472
308.15	0.02125	0.00638
313.15	0.03038	0.00912
318.15	0.04354	0.01307
323.15	0.06143	0.01843

System: 2-anilino-4,6-dimethylpyrimidine + methanol + water; phases: Liquid, Crystal
Fixed: Pressure, kPa = 100
Property: Mole fraction of 2-anilino-4,6-dimethylpyrimidine (Liquid); method: gravimetric
Temperature, K	Solvent: Mole fraction of methanol	Mole fraction of 2-anilino-4,6-dimethylpyrimidine	uncertainty
283.15	0.3	0.0001913	6.09e-05
283.15	0.4	0.0005287	0.000165
283.15	0.5	0.00133	0.000411
283.15	0.6	0.002511	0.000761
283.15	0.7	0.004011	0.001209
283.15	0.8	0.006245	0.001877
283.15	0.9	0.009368	0.002812
288.15	0.3	0.0002306	7.34e-05
288.15	0.4	0.0006467	0.0002002
288.15	0.5	0.001465	0.000455
288.15	0.6	0.002963	0.000899
288.15	0.7	0.004844	0.00146
288.15	0.8	0.007607	0.002286
288.15	0.9	0.01158	0.00348
293.15	0.3	0.0002966	9.39e-05
293.15	0.4	0.0007962	0.0002457
293.15	0.5	0.001728	0.000536
293.15	0.6	0.003499	0.001062
293.15	0.7	0.005757	0.001735
293.15	0.8	0.009004	0.002706
293.15	0.9	0.01363	0.00409
298.15	0.3	0.0003638	0.0001146
298.15	0.4	0.0009461	0.0002913
298.15	0.5	0.002001	0.000618
298.15	0.6	0.003888	0.001183
298.15	0.7	0.006872	0.002072
298.15	0.8	0.0107	0.00322
298.15	0.9	0.01684	0.00505
303.15	0.3	0.0004288	0.0001353
303.15	0.4	0.001136	0.000351
303.15	0.5	0.002512	0.000779
303.15	0.6	0.005044	0.001533
303.15	0.7	0.008558	0.002582
303.15	0.8	0.01397	0.0042
303.15	0.9	0.02154	0.00647
308.15	0.3	0.0005129	0.0001637
308.15	0.4	0.001455	0.000452
308.15	0.5	0.003398	0.001049
308.15	0.6	0.006364	0.001929
308.15	0.7	0.01024	0.00309
308.15	0.8	0.01844	0.00554
308.15	0.9	0.02755	0.00827
313.15	0.3	0.0006323	0.0002022
313.15	0.4	0.001801	0.000562
313.15	0.5	0.004496	0.001387
313.15	0.6	0.008234	0.002496
313.15	0.7	0.01341	0.00405
313.15	0.8	0.02442	0.00735
313.15	0.9	0.03813	0.01145
318.15	0.3	0.0007668	0.0002451
318.15	0.4	0.002193	0.000686
318.15	0.5	0.005655	0.001747
318.15	0.6	0.01052	0.0032
318.15	0.7	0.0186	0.00565
318.15	0.8	0.0388	0.01167
318.15	0.9	0.05809	0.01744
323.15	0.3	0.0009607	0.0003056
323.15	0.4	0.002655	0.000836
323.15	0.5	0.007267	0.00224
323.15	0.6	0.01295	0.00396
323.15	0.7	0.02628	0.00801
323.15	0.8	0.05842	0.01757
323.15	0.9	0.08561	0.02569
283.15	1	0.01379	0.00414
288.15	1	0.01616	0.00485
293.15	1	0.01934	0.0058
298.15	1	0.02451	0.00735
303.15	1	0.03106	0.00932
308.15	1	0.0418	0.01254
313.15	1	0.05677	0.01703
318.15	1	0.07648	0.02295
323.15	1	0.1073	0.0322

System: 2-anilino-4,6-dimethylpyrimidine + ethanol + water; phases: Liquid, Crystal
Fixed: Pressure, kPa = 100
Property: Mole fraction of 2-anilino-4,6-dimethylpyrimidine (Liquid); method: gravimetric
Temperature, K	Solvent: Mole fraction of ethanol	Mole fraction of 2-anilino-4,6-dimethylpyrimidine	uncertainty
283.15	0.3	0.001187	0.000369
283.15	0.4	0.002777	0.000849
283.15	0.5	0.005283	0.001607
283.15	0.6	0.008079	0.002431
283.15	0.7	0.01006	0.00302
283.15	0.8	0.01239	0.00372
283.15	0.9	0.01435	0.00431
288.15	0.3	0.001444	0.000447
288.15	0.4	0.003272	0.000999
288.15	0.5	0.006076	0.001847
288.15	0.6	0.009262	0.002791
288.15	0.7	0.01248	0.00375
288.15	0.8	0.01516	0.00455
288.15	0.9	0.01627	0.00488
293.15	0.3	0.001704	0.000529
293.15	0.4	0.004053	0.001238
293.15	0.5	0.007549	0.00229
293.15	0.6	0.01085	0.00327
293.15	0.7	0.0152	0.00457
293.15	0.8	0.01805	0.00542
293.15	0.9	0.01951	0.00585
298.15	0.3	0.002142	0.000664
298.15	0.4	0.004948	0.00151
298.15	0.5	0.009018	0.002735
298.15	0.6	0.01293	0.0039
298.15	0.7	0.01846	0.00555
298.15	0.8	0.02227	0.00668
298.15	0.9	0.02467	0.0074
303.15	0.3	0.002658	0.00082
303.15	0.4	0.005901	0.001805
303.15	0.5	0.01142	0.00347
303.15	0.6	0.01647	0.00496
303.15	0.7	0.02184	0.00656
303.15	0.8	0.02808	0.00843
303.15	0.9	0.03104	0.00931
308.15	0.3	0.003316	0.001029
308.15	0.4	0.007754	0.002369
308.15	0.5	0.01443	0.0044
308.15	0.6	0.02312	0.00696
308.15	0.7	0.02914	0.00875
308.15	0.8	0.03645	0.01094
308.15	0.9	0.04016	0.01205
313.15	0.3	0.004242	0.001318
313.15	0.4	0.01006	0.00308
313.15	0.5	0.01918	0.00585
313.15	0.6	0.03113	0.00937
313.15	0.7	0.03897	0.01171
313.15	0.8	0.04833	0.01451
313.15	0.9	0.05414	0.01625
318.15	0.3	0.005506	0.001701
318.15	0.4	0.01252	0.00386
318.15	0.5	0.02723	0.0083
318.15	0.6	0.04163	0.01253
318.15	0.7	0.0528	0.01586
318.15	0.8	0.06437	0.01932
318.15	0.9	0.07282	0.02185
323.15	0.3	0.007665	0.002351
323.15	0.4	0.01576	0.00486
323.15	0.5	0.03527	0.01074
323.15	0.6	0.05294	0.01595
323.15	0.7	0.07193	0.02161
323.15	0.8	0.08761	0.02629
323.15	0.9	0.09998	0.03
283.15	1	0.01457	0.00437
288.15	1	0.0175	0.00525
293.15	1	0.02109	0.00633
298.15	1	0.0267	0.00801
303.15	1	0.0332	0.00996
308.15	1	0.0438	0.01314
313.15	1	0.05768	0.01731
318.15	1	0.0785	0.02356
323.15	1	0.1122	0.0337

System: 2-benzamidoacetic acid + ethanol; phases: Liquid, Crystal
Fixed: Pressure, kPa = 100
Property: Mole fraction of 2-benzamidoacetic acid (Liquid); method: gravimetric
Temperature, K	Mole fraction of 2-benzamidoacetic acid	uncertainty
298.15	0.01478	0.00178
303.15	0.0169	0.00203
308.15	0.01967	0.00236
313.15	0.02321	0.00279
318.15	0.02889	0.00347

System: 2-benzamidoacetic acid + propan-1-ol; phases: Liquid, Crystal
Fixed: Pressure, kPa = 100
Property: Mole fraction of 2-benzamidoacetic acid (Liquid); method: gravimetric
Temperature, K	Mole fraction of 2-benzamidoacetic acid	uncertainty
298.15	0.00915	0.0011
303.15	0.01125	0.00135
308.15	0.01259	0.00151
313.15	0.01524	0.00183
318.15	0.01806	0.00217

System: 2-benzamidoacetic acid + butan-1-ol; phases: Liquid, Crystal
Fixed: Pressure, kPa = 100
Property: Mole fraction of 2-benzamidoacetic acid (Liquid); method: gravimetric
Temperature, K	Mole fraction of 2-benzamidoacetic acid	uncertainty
298.15	0.00768	0.00093
303.15	0.00965	0.00116
308.15	0.0114	0.00137
313.15	0.01274	0.00153
318.15	0.01465	0.00176
