Measured thermophysical data. Density Measurements of Propellant EHF-TU at (3 to 7) MPa Supercritical Pressures
Source: J. Chem. Eng. Data, 2018, 10.1021/acs.jced.7b01097
Compound 1: decane, C10H22, InChI=1S/C10H22/c1-3-5-7-9-10-8-6-4-2/h3-10H2,1-2H3

System: decane; phases: Liquid
Fixed: Pressure, kPa = 3000
Property: Mass density, kg/m3 (Liquid); method: Coriolis flow meter
Temperature, K	Mass density, kg/m3	uncertainty
285.3	736.8	14.89
313.1	716.24	14.42
343.4	706.6	14.3
354.5	682.3	14.66
373.3	660.16	13.47
423.7	630.21	12.95
475.8	588.61	12.42
523.2	547.44	12.27
571.8	487.16	14.19
624.2	365.9	16.19

System: decane; phases: Gas
Fixed: Pressure, kPa = 3000
Property: Mass density, kg/m3 (Gas); method: Coriolis flow meter
Temperature, K	Mass density, kg/m3	uncertainty
673.2	143.74	8.29
700.3	112.44	7.02
723	96.77	5.35
