Measured thermophysical data. Solid Liquid Equilibria in the Binary Systems of Saturated Fatty Acids or Triglycerides (C12 to C18) + Hexadecane
Source: J. Chem. Eng. Data, 2017, 10.1021/acs.jced.6b00355
Compound 1: octadecanoic acid, C18H36O2, InChI=1S/C18H36O2/c1-2-3-4-5-6-7-8-9-10-11-12-13-14-15-16-17-18(19)20/h2-17H2,1H3,(H,19,20), purity 98.5%
Compound 2: hexadecanoic acid, C16H32O2, InChI=1S/C16H32O2/c1-2-3-4-5-6-7-8-9-10-11-12-13-14-15-16(17)18/h2-15H2,1H3,(H,17,18), purity 98.5%
Compound 3: tetradecanoic acid, C14H28O2, InChI=1S/C14H28O2/c1-2-3-4-5-6-7-8-9-10-11-12-13-14(15)16/h2-13H2,1H3,(H,15,16), purity 99%
Compound 4: dodecanoic acid, C12H24O2, InChI=1S/C12H24O2/c1-2-3-4-5-6-7-8-9-10-11-12(13)14/h2-11H2,1H3,(H,13,14), purity 99%
Compound 5: glycerol trioctadecanoate, C57H110O6, InChI=1S/C57H110O6/c1-4-7-10-13-16-19-22-25-28-31-34-37-40-43-46-49-55(58)61-52-54(63-57(60)51-48-45-42-39-36-33-30-27-24-21-18-15-12-9-6-3)53-62-56(59)50-47-44-41-38-35-32-29-26-23-20-17-14-11-8-5-2/h54H,4-53H2,1-3H3, purity 99%
Compound 6: 1,2,3-propanetriyl tri(hexadecanoate), C51H98O6, InChI=1S/C51H98O6/c1-4-7-10-13-16-19-22-25-28-31-34-37-40-43-49(52)55-46-48(57-51(54)45-42-39-36-33-30-27-24-21-18-15-12-9-6-3)47-56-50(53)44-41-38-35-32-29-26-23-20-17-14-11-8-5-2/h48H,4-47H2,1-3H3, purity 99%
Compound 7: 1,2,3-propanetriyl tri(tetradecanoate), C45H86O6, InChI=1S/C45H86O6/c1-4-7-10-13-16-19-22-25-28-31-34-37-43(46)49-40-42(51-45(48)39-36-33-30-27-24-21-18-15-12-9-6-3)41-50-44(47)38-35-32-29-26-23-20-17-14-11-8-5-2/h42H,4-41H2,1-3H3, purity 99%
Compound 8: 1,2,3-propanetriyl tridodecanoate, C39H74O6, InChI=1S/C39H74O6/c1-4-7-10-13-16-19-22-25-28-31-37(40)43-34-36(45-39(42)33-30-27-24-21-18-15-12-9-6-3)35-44-38(41)32-29-26-23-20-17-14-11-8-5-2/h36H,4-35H2,1-3H3, purity 98%
Compound 9: hexadecane, C16H34, InChI=1S/C16H34/c1-3-5-7-9-11-13-15-16-14-12-10-8-6-4-2/h3-16H2,1-2H3, purity 98.5%

System: octadecanoic acid; phases: Crystal, Liquid, Air at 1 atmosphere
Property: Normal melting temperature, K (Crystal); method: DTA
Normal melting temperature, K	uncertainty
343.1	0.7

System: octadecanoic acid; phases: Crystal, Liquid, Air at 1 atmosphere
Property: Molar enthalpy of transition or fusion, kJ/mol (Crystal); method: DSC
Molar enthalpy of transition or fusion, kJ/mol	uncertainty
63.31	1.69

System: hexadecanoic acid; phases: Crystal, Liquid, Air at 1 atmosphere
Property: Normal melting temperature, K (Crystal); method: DTA
Normal melting temperature, K	uncertainty
335.9	0.7

System: hexadecanoic acid; phases: Crystal, Liquid, Air at 1 atmosphere
Property: Molar enthalpy of transition or fusion, kJ/mol (Crystal); method: DSC
Molar enthalpy of transition or fusion, kJ/mol	uncertainty
55.84	1.46

System: tetradecanoic acid; phases: Crystal, Liquid, Air at 1 atmosphere
Property: Normal melting temperature, K (Crystal); method: DTA
Normal melting temperature, K	uncertainty
327.6	0.7

System: tetradecanoic acid; phases: Crystal, Liquid, Air at 1 atmosphere
Property: Molar enthalpy of transition or fusion, kJ/mol (Crystal); method: DSC
Molar enthalpy of transition or fusion, kJ/mol	uncertainty
44.87	1.11

System: dodecanoic acid; phases: Crystal, Liquid, Air at 1 atmosphere
Property: Normal melting temperature, K (Crystal); method: DTA
Normal melting temperature, K	uncertainty
317.4	0.7

System: dodecanoic acid; phases: Crystal, Liquid, Air at 1 atmosphere
Property: Molar enthalpy of transition or fusion, kJ/mol (Crystal); method: DSC
Molar enthalpy of transition or fusion, kJ/mol	uncertainty
37.61	0.89

System: glycerol trioctadecanoate; phases: Crystal, Liquid, Air at 1 atmosphere
Property: Normal melting temperature, K (Crystal); method: DTA
Normal melting temperature, K	uncertainty
346.6	0.7

System: glycerol trioctadecanoate; phases: Crystal, Liquid, Air at 1 atmosphere
Property: Molar enthalpy of transition or fusion, kJ/mol (Crystal); method: DSC
Molar enthalpy of transition or fusion, kJ/mol	uncertainty
195.3	8.6

System: 1,2,3-propanetriyl tri(hexadecanoate); phases: Crystal, Liquid, Air at 1 atmosphere
Property: Normal melting temperature, K (Crystal); method: DTA
Normal melting temperature, K	uncertainty
340.7	0.7

System: 1,2,3-propanetriyl tri(hexadecanoate); phases: Crystal, Liquid, Air at 1 atmosphere
Property: Molar enthalpy of transition or fusion, kJ/mol (Crystal); method: DSC
Molar enthalpy of transition or fusion, kJ/mol	uncertainty
181.1	5.2

System: 1,2,3-propanetriyl tri(tetradecanoate); phases: Crystal, Liquid, Air at 1 atmosphere
Property: Normal melting temperature, K (Crystal); method: DTA
Normal melting temperature, K	uncertainty
331.1	0.7

System: 1,2,3-propanetriyl tri(tetradecanoate); phases: Crystal, Liquid, Air at 1 atmosphere
Property: Molar enthalpy of transition or fusion, kJ/mol (Crystal); method: DSC
Molar enthalpy of transition or fusion, kJ/mol	uncertainty
153.74	6.17

System: 1,2,3-propanetriyl tridodecanoate; phases: Crystal, Liquid, Air at 1 atmosphere
Property: Normal melting temperature, K (Crystal); method: DTA
Normal melting temperature, K	uncertainty
321.9	0.7

System: 1,2,3-propanetriyl tridodecanoate; phases: Crystal, Liquid, Air at 1 atmosphere
Property: Molar enthalpy of transition or fusion, kJ/mol (Crystal); method: DSC
Molar enthalpy of transition or fusion, kJ/mol	uncertainty
127.18	2.54

System: hexadecane; phases: Crystal, Liquid, Air at 1 atmosphere
Property: Normal melting temperature, K (Crystal); method: DTA
Normal melting temperature, K	uncertainty
291.3	0.7

System: octadecanoic acid + hexadecane; phases: Liquid, Crystal
Fixed: Pressure, kPa = 100
Property: Solid-liquid equilibrium temperature, K (Liquid); method: DTA
Mole fraction of octadecanoic acid	Solid-liquid equilibrium temperature, K	uncertainty
1	343.1	1.3
0.88	343.3	1.3
0.76	340.7	1.4
0.65	338.3	1.4
0.54	336	1.4
0.44	333.8	1.4
0.35	331.3	1.4
0.3	330	1.4
0.26	328.6	1.4
0.21	326.9	1.4
0.17	325.4	1.4
0.12	322.9	1.4
0.08	319.6	1.4
0.04	314	1.5

System: octadecanoic acid + hexadecane; phases: Liquid, Crystal, Crystal
Property: Eutectic temperature, K (Liquid); method: DTA
Pressure, kPa	Eutectic temperature, K	uncertainty
100	291.1	0.5

System: hexadecane + glycerol trioctadecanoate; phases: Liquid, Crystal
Fixed: Pressure, kPa = 100
Property: Solid-liquid equilibrium temperature, K (Liquid); method: DTA
Mole fraction of glycerol trioctadecanoate	Solid-liquid equilibrium temperature, K	uncertainty
1	346.6	1.3
0.69	346.3	1.3
0.5	344	1.3
0.372	342.1	1.4
0.28	340.2	1.4
0.2	338.3	1.4
0.14	336.3	1.4
0.12	335.3	1.4
0.1	334.4	1.4
0.08	333.3	1.4
0.06	332	1.4
0.04	330.4	1.4
0.03	328.4	1.5
0.01	324.7	1.5

System: hexadecane + glycerol trioctadecanoate; phases: Liquid, Crystal, Crystal
Property: Eutectic temperature, K (Liquid); method: DTA
Pressure, kPa	Eutectic temperature, K	uncertainty
100	290.3	0.5

System: hexadecanoic acid + hexadecane; phases: Liquid, Crystal
Fixed: Pressure, kPa = 100
Property: Solid-liquid equilibrium temperature, K (Liquid); method: DTA
Mole fraction of hexadecanoic acid	Solid-liquid equilibrium temperature, K	uncertainty
1	335.9	1.3
0.89	336.1	1.3
0.78	333.6	1.4
0.67	331.4	1.4
0.57	329.1	1.4
0.47	326.8	1.4
0.37	324.3	1.4
0.32	323.1	1.4
0.27	321.4	1.4
0.23	319.7	1.4
0.18	317.9	1.4
0.13	315.1	1.4
0.09	311.9	1.4

System: hexadecanoic acid + hexadecane; phases: Liquid, Crystal, Crystal
Property: Eutectic temperature, K (Liquid); method: DTA
Pressure, kPa	Eutectic temperature, K	uncertainty
100	291.3	0.4

System: hexadecane + 1,2,3-propanetriyl tri(hexadecanoate); phases: Liquid, Crystal
Fixed: Pressure, kPa = 100
Property: Solid-liquid equilibrium temperature, K (Liquid); method: DTA
Mole fraction of 1,2,3-propanetriyl tri(hexadecanoate)	Solid-liquid equilibrium temperature, K	uncertainty
1	340.7	1.3
0.71	339.6	1.3
0.53	337.2	1.3
0.4	335.3	1.3
0.3	333.7	1.4
0.22	331.6	1.4
0.16	329.8	1.4
0.13	328.8	1.4
0.11	327.7	1.4
0.09	326.9	1.4
0.07	325.4	1.4
0.05	323.5	1.4
0.03	321.5	1.4

System: hexadecane + 1,2,3-propanetriyl tri(hexadecanoate); phases: Liquid, Crystal, Crystal
Property: Eutectic temperature, K (Liquid); method: DTA
Pressure, kPa	Eutectic temperature, K	uncertainty
100	290.5	0.4

System: tetradecanoic acid + hexadecane; phases: Liquid, Crystal
Fixed: Pressure, kPa = 100
Property: Solid-liquid equilibrium temperature, K (Liquid); method: DTA
Mole fraction of tetradecanoic acid	Solid-liquid equilibrium temperature, K	uncertainty
1	327.6	1.3
0.9	327.7	1.3
0.8	325.1	1.4
0.7	322.7	1.4
0.6	320.6	1.4
0.5	318.3	1.4
0.4	315.7	1.4
0.35	314.2	1.4
0.3	312.8	1.4
0.25	310.7	1.4
0.2	308.9	1.4
0.15	306.3	1.4
0.1	302.4	1.4

System: tetradecanoic acid + hexadecane; phases: Liquid, Crystal, Crystal
Property: Eutectic temperature, K (Liquid); method: DTA
Pressure, kPa	Eutectic temperature, K	uncertainty
100	290.7	0.5

System: hexadecane + 1,2,3-propanetriyl tri(tetradecanoate); phases: Liquid, Crystal
Fixed: Pressure, kPa = 100
Property: Solid-liquid equilibrium temperature, K (Liquid); method: DTA
Mole fraction of 1,2,3-propanetriyl tri(tetradecanoate)	Solid-liquid equilibrium temperature, K	uncertainty
1	331.1	1.3
0.74	330.8	1.3
0.56	328.7	1.3
0.42	326.7	1.3
0.32	325	1.4
0.24	323.5	1.4
0.17	321.7	1.4
0.14	320.8	1.4
0.12	319.6	1.4
0.09	318.7	1.4
0.07	316.9	1.4
0.05	315.3	1.4
0.03	313	1.5
0.02	309.3	2

System: hexadecane + 1,2,3-propanetriyl tri(tetradecanoate); phases: Liquid, Crystal, Crystal
Property: Eutectic temperature, K (Liquid); method: DTA
Pressure, kPa	Eutectic temperature, K	uncertainty
100	290.9	0.5

System: dodecanoic acid + hexadecane; phases: Liquid, Crystal
Fixed: Pressure, kPa = 100
Property: Solid-liquid equilibrium temperature, K (Liquid); method: DTA
Mole fraction of dodecanoic acid	Solid-liquid equilibrium temperature, K	uncertainty
1	317.4	0.7
0.91	315.9	0.7
0.82	313.7	0.7
0.73	311.4	0.7
0.63	309.1	0.7
0.53	306.8	0.7
0.43	304.2	0.7
0.38	302.9	0.7
0.33	301.3	0.7
0.27	299.4	0.7
0.22	297.1	0.7

System: dodecanoic acid + hexadecane; phases: Liquid, Crystal, Crystal
Property: Eutectic temperature, K (Liquid); method: DTA
Pressure, kPa	Eutectic temperature, K	uncertainty
100	290.3	0.4

System: 1,2,3-propanetriyl tridodecanoate + hexadecane; phases: Liquid, Crystal
Fixed: Pressure, kPa = 100
Property: Solid-liquid equilibrium temperature, K (Liquid); method: DTA
Mole fraction of 1,2,3-propanetriyl tridodecanoate	Solid-liquid equilibrium temperature, K	uncertainty
1	321.9	0.7
0.76	318.5	0.7
0.59	316.5	0.7
0.45	314.7	0.7
0.35	313	0.7
0.26	311.7	0.7
0.19	310.4	0.7
0.16	309.5	0.7
0.13	307.9	0.7
0.11	307.2	0.7
0.08	306	0.7
0.06	303.9	0.8
0.04	301.8	1
0.02	297.3	1.1

System: 1,2,3-propanetriyl tridodecanoate + hexadecane; phases: Liquid, Crystal, Crystal
Property: Eutectic temperature, K (Liquid); method: DTA
Pressure, kPa	Eutectic temperature, K	uncertainty
100	291.1	0.4
