Measured thermophysical data. Water Activity, Solubility Determination, and Model Simulation of the CaCl2-SrCl2-H2O Ternary System at 323.15 K
Source: J. Chem. Eng. Data, 2018, 10.1021/acs.jced.8b00003
Compound 1: strontium chloride, Cl2Sr, InChI=1S/2ClH.Sr/h2*1H;/q;;+2/p-2, purity 99.8%
Compound 2: calcium chloride, CaCl2, InChI=1S/Ca.2ClH/h;2*1H/q+2;;/p-2, purity 99.95%
Compound 3: water, H2O, InChI=1S/H2O/h1H2, purity 99.9%

System: calcium chloride + strontium chloride + water; phases: Liquid
Fixed: Temperature, K = 323.15
Fixed: Pressure, kPa = 100
Property: (Relative) activity of water (Liquid); method: ISOPIE
Molality, mol/kg of calcium chloride	Molality, mol/kg of strontium chloride	(Relative) activity of water	uncertainty
0.4343	0	0.9793	0.05
0.3908	0.0432	0.9793	0.05
0.3055	0.1306	0.9793	0.05
0.2214	0.2173	0.9793	0.05
0.1311	0.3054	0.9793	0.05
0.044	0.3941	0.9793	0.05
0	0.4393	0.9793	0.05
1.0606	0	0.9419	0.05
0.9631	0.1064	0.9419	0.05
0.7495	0.3212	0.9419	0.05
0.5441	0.5341	0.9419	0.05
0.3264	0.7601	0.9419	0.05
0.1096	0.9821	0.9419	0.05
0	1.0949	0.9419	0.05
1.3401	0	0.9219	0.05
1.2115	0.1338	0.9219	0.05
0.948	0.4262	0.9219	0.05
0.6886	0.676	0.9219	0.05
0.4128	0.9612	0.9219	0.05
0.139	1.2454	0.9219	0.05
0	1.3886	0.9219	0.05
2.0148	0	0.8645	0.05
1.8224	0.2013	0.8645	0.05
1.429	0.6123	0.8645	0.05
1.039	1.02	0.8645	0.05
0.6243	1.4537	0.8645	0.05
0.2105	1.8865	0.8645	0.05
0	2.1063	0.8645	0.05
2.1411	0	0.8521	0.05
1.9376	0.214	0.8521	0.05
1.5196	0.6512	0.8521	0.05
1.1057	1.0854	0.8521	0.05
0.6644	1.5471	0.8521	0.05
0.2241	2.008	0.8521	0.05
0	2.2424	0.8521	0.05
2.7554	0	0.7876	0.05
2.4958	0.2756	0.7876	0.05
1.9622	0.8408	0.7876	0.05
1.431	1.4048	0.7876	0.05
0.8619	2.0007	0.7876	0.05
0.2915	2.6116	0.7876	0.05
0	2.9203	0.7876	0.05
3.5913	0	0.6895	0.0501
3.2564	0.3597	0.6895	0.0501
2.5662	1.0998	0.6895	0.05
1.875	1.8408	0.6895	0.05
1.1321	2.6363	0.6895	0.05
0.3838	3.4392	0.6895	0.05
0	3.8508	0.6895	0.0501
4.827	0	0.5425	0.0501
4.3978	0.4731	0.5425	0.0501
3.4476	1.4473	0.5425	0.05
2.5025	2.4717	0.5425	0.0501
5.1959	0	0.5018	0.0501
4.7266	0.5067	0.5018	0.0501
3.7796	1.5781	0.5018	0.05

System: calcium chloride + strontium chloride + water; phases: Liquid, Crystal of intercomponent compound 1
Fixed: Temperature, K = 323.15
Fixed: Pressure, kPa = 100
Property: Mass fraction of strontium chloride (Liquid); method: chemical analysis
Mass fraction of calcium chloride	Mass fraction of strontium chloride	uncertainty
0	0.4206	0.0043
0.0096	0.4103	0.0042
0.0358	0.3815	0.0039
0.0744	0.3396	0.0036
0.1427	0.2668	0.0031
0.2071	0.2046	0.0029
0.2454	0.1705	0.0035
0.2505	0.1642	0.0032
0.2557	0.1592	0.0029

System: calcium chloride + strontium chloride + water; phases: Liquid, Crystal of intercomponent compound 1
Fixed: Temperature, K = 323.15
Fixed: Pressure, kPa = 100
Property: Mass fraction of strontium chloride (Liquid); method: chemical analysis
Mass fraction of calcium chloride	Mass fraction of strontium chloride	uncertainty
0.2505	0.1642	0.0029
0.2557	0.1592	0.0028
0.2689	0.1474	0.0028
0.3535	0.0677	0.0028
0.4212	0.0294	0.0017
0.5008	0.0095	0.0008
0.5618	0.0081	0.0029
0.5641	0.0066	0.0028

System: calcium chloride + strontium chloride + water; phases: Liquid, Crystal of intercomponent compound 1
Fixed: Temperature, K = 323.15
Fixed: Pressure, kPa = 100
Property: Mass fraction of strontium chloride (Liquid); method: chemical analysis
Mass fraction of calcium chloride	Mass fraction of strontium chloride	uncertainty
0.5618	0.0081	0.0029
0.5641	0.0066	0.0054
0.5686	0	

System: calcium chloride + water; phases: Liquid
Fixed: Temperature, K = 323.15
Fixed: Pressure, kPa = 100
Property: (Relative) activity of water (Liquid); method: ISOPIE
Molality, mol/kg of calcium chloride	(Relative) activity of water	uncertainty
0.4343	0.9793	0.05
1.0606	0.9419	0.05
1.3401	0.9219	0.05
2.0148	0.8645	0.05
2.1411	0.8521	0.05
2.7554	0.7876	0.05
3.5913	0.6895	0.0501
4.827	0.5425	0.0501
5.1959	0.5018	0.0501

System: calcium chloride + water; phases: Liquid, Crystal of intercomponent compound 1
Property: Mass fraction of calcium chloride (Liquid); method: chemical analysis
Temperature, K	Pressure, kPa	Mass fraction of calcium chloride	uncertainty
323.15	100	0.5686	

System: strontium chloride + water; phases: Liquid
Fixed: Temperature, K = 323.15
Fixed: Pressure, kPa = 100
Property: (Relative) activity of water (Liquid); method: ISOPIE
Molality, mol/kg of strontium chloride	(Relative) activity of water	uncertainty
0.4393	0.9793	0.05
1.0949	0.9419	0.05
1.3886	0.9219	0.05
2.1063	0.8645	0.05
2.2424	0.8521	0.05
2.9203	0.7876	0.05
3.8508	0.6895	0.0501

System: strontium chloride + water; phases: Liquid, Crystal of intercomponent compound 1
Property: Mass fraction of strontium chloride (Liquid); method: chemical analysis
Temperature, K	Pressure, kPa	Mass fraction of strontium chloride	uncertainty
323.15	100	0.4206	0.0043
