Measured thermophysical data. Vapor Phase PvTx Measurements of Binary Blends of 2,3,3,3-Tetrafluoroprop-1-ene + Propane and cis-1,2,3,3,3-Pentafluoroprop-1-ene + Propane
Source: J. Chem. Eng. Data, 2016, 10.1021/acs.jced.6b00396
Compound 1: propane, C3H8, InChI=1S/C3H8/c1-3-2/h3H2,1-2H3, purity 99.9%
Compound 2: 2,3,3,3-tetrafluoro-1-propene, C3H2F4, InChI=1S/C3H2F4/c1-2(4)3(5,6)7/h1H2, purity 99.95%
Compound 3: (Z)-1,2,3,3,3-pentafluoro-1-propene, C3HF5, InChI=1S/C3HF5/c4-1-2(5)3(6,7)8/h1H/b2-1-, purity 97%

System: propane + 2,3,3,3-tetrafluoro-1-propene; phases: Gas
Property: Specific volume, m3/kg (Gas); method: ISOCHOR
Temperature, K	Pressure, kPa	Mole fraction of propane	Specific volume, m3/kg	uncertainty
288.16	449	0.23	0.048	0.01
293.15	459.2	0.23	0.048	0.01
298.15	470.2	0.23	0.048	0.01
303.15	479.7	0.23	0.048	0.01
308.15	489.4	0.23	0.048	0.01
313.15	499.1	0.23	0.048	0.01
318.15	508.7	0.23	0.048	0.01
323.15	518.3	0.23	0.048	0.01
328.15	527.8	0.23	0.048	0.01
333.15	537.3	0.23	0.048	0.01
338.15	546.7	0.23	0.048	0.01
343.15	556.2	0.23	0.048	0.01
348.15	565.8	0.23	0.048	0.01
353.15	575.1	0.23	0.048	0.01
358.15	584.5	0.23	0.048	0.01
363.15	593.8	0.23	0.048	0.01
288.13	614.2	0.611	0.047	0.01
293.17	628.3	0.611	0.047	0.01
298.15	642.2	0.611	0.047	0.01
303.15	656.1	0.611	0.047	0.01
308.15	669.8	0.611	0.047	0.01
313.15	683.5	0.611	0.047	0.01
318.15	697.1	0.611	0.047	0.01
323.15	710.9	0.611	0.047	0.01
328.15	724.4	0.611	0.047	0.01
333.15	737.9	0.611	0.047	0.01
338.15	751.3	0.611	0.047	0.01
343.15	764.6	0.611	0.047	0.01
348.14	778	0.611	0.047	0.01
353.15	791.3	0.611	0.047	0.01
358.15	804.5	0.611	0.047	0.01
363.15	817.7	0.611	0.047	0.01
278.15	366.9	0.505	0.072	0.01
283.15	374.9	0.505	0.072	0.01
288.15	382.8	0.505	0.072	0.01
293.15	390.7	0.505	0.072	0.01
298.15	398.5	0.505	0.072	0.01
303.15	406.7	0.505	0.072	0.01
308.15	414.4	0.505	0.072	0.01
313.15	422.1	0.505	0.072	0.01
318.15	429.8	0.505	0.072	0.01
323.15	437.5	0.505	0.072	0.01
328.15	445.3	0.505	0.072	0.01
333.15	452.9	0.505	0.072	0.01
338.15	460.5	0.505	0.072	0.01
343.15	468.1	0.505	0.072	0.01
348.15	475.6	0.505	0.072	0.01
353.15	483.2	0.505	0.072	0.01
358.15	490.8	0.505	0.072	0.01
363.15	498.3	0.505	0.072	0.01
278.15	366.9	0.505	0.072	0.01
283.15	374.9	0.505	0.072	0.01
298.15	807.3	0.839	0.047	0.01
303.15	825.7	0.839	0.047	0.01
308.15	844	0.839	0.047	0.01
313.15	862.2	0.839	0.047	0.01
318.15	880.3	0.839	0.047	0.01
323.15	898.3	0.839	0.047	0.01
328.15	916.2	0.839	0.047	0.01
333.15	934	0.839	0.047	0.01
338.15	951.8	0.839	0.047	0.01
343.15	969.5	0.839	0.047	0.01
348.15	987.1	0.839	0.047	0.01
353.15	1004.6	0.839	0.047	0.01
358.15	1022.2	0.839	0.047	0.01
363.16	1039.6	0.839	0.047	0.01
268.15	333	0.709	0.095	0.01
273.15	340.4	0.709	0.095	0.01
278.15	347.7	0.709	0.095	0.01
283.15	354.8	0.709	0.095	0.01
288.16	362	0.709	0.095	0.01
293.15	369.3	0.709	0.095	0.01
298.15	376.6	0.709	0.095	0.01
303.15	383.9	0.709	0.095	0.01
308.15	391	0.709	0.095	0.01
313.15	398.2	0.709	0.095	0.01
318.15	405.3	0.709	0.095	0.01
323.15	412.4	0.709	0.095	0.01
328.15	419.5	0.709	0.095	0.01
333.15	426.6	0.709	0.095	0.01
338.15	433.8	0.709	0.095	0.01
343.15	440.8	0.709	0.095	0.01
348.15	447.9	0.709	0.095	0.01
353.15	454.9	0.709	0.095	0.01
358.15	462	0.709	0.095	0.01
363.15	469	0.709	0.095	0.01

System: propane + (Z)-1,2,3,3,3-pentafluoro-1-propene; phases: Gas
Property: Specific volume, m3/kg (Gas); method: ISOCHOR
Temperature, K	Pressure, kPa	Mole fraction of propane	Specific volume, m3/kg	uncertainty
308.15	491.5	0.225	0.042	0.01
313.15	501.4	0.225	0.042	0.01
318.15	511.5	0.225	0.042	0.01
323.15	521.2	0.225	0.042	0.01
328.15	531.1	0.225	0.042	0.01
333.15	540.8	0.225	0.042	0.01
338.15	550.6	0.225	0.042	0.01
343.15	560.3	0.225	0.042	0.01
348.15	570	0.225	0.042	0.01
353.15	580.1	0.225	0.042	0.01
358.15	589.7	0.225	0.042	0.01
363.16	599.3	0.225	0.042	0.01
308.15	412.6	0.516	0.067	0.01
313.15	420.3	0.516	0.067	0.01
318.15	428	0.516	0.067	0.01
323.15	435.7	0.516	0.067	0.01
328.15	443.4	0.516	0.067	0.01
333.15	451	0.516	0.067	0.01
338.15	458.7	0.516	0.067	0.01
343.15	466.6	0.516	0.067	0.01
348.15	474.1	0.516	0.067	0.01
353.15	481.7	0.516	0.067	0.01
358.15	489.3	0.516	0.067	0.01
363.15	496.8	0.516	0.067	0.01
303.15	722.5	0.593	0.038	0.01
308.15	738.6	0.593	0.038	0.01
313.15	754.6	0.593	0.038	0.01
318.15	770.3	0.593	0.038	0.01
323.15	786.1	0.593	0.038	0.01
328.15	801.7	0.593	0.038	0.01
333.15	817.3	0.593	0.038	0.01
338.15	832.7	0.593	0.038	0.01
343.15	848.1	0.593	0.038	0.01
348.15	863.4	0.593	0.038	0.01
353.15	878.7	0.593	0.038	0.01
358.15	893.9	0.593	0.038	0.01
363.15	909	0.593	0.038	0.01
308.15	946.2	0.69	0.032	0.01
313.15	968.3	0.69	0.032	0.01
318.15	990.1	0.69	0.032	0.01
323.15	1011.5	0.69	0.032	0.01
328.15	1033	0.69	0.032	0.01
333.15	1054.4	0.69	0.032	0.01
338.15	1075.7	0.69	0.032	0.01
343.15	1096.9	0.69	0.032	0.01
348.15	1118	0.69	0.032	0.01
353.15	1139.2	0.69	0.032	0.01
358.15	1160	0.69	0.032	0.01
363.15	1180.9	0.69	0.032	0.01
303.15	459.8	0.855	0.09	0.01
308.15	468.5	0.855	0.09	0.01
313.15	477.3	0.855	0.09	0.01
318.15	486	0.855	0.09	0.01
323.15	494.7	0.855	0.09	0.01
328.15	503.4	0.855	0.09	0.01
333.15	512.1	0.855	0.09	0.01
338.15	520.9	0.855	0.09	0.01
343.15	529.5	0.855	0.09	0.01
348.15	538.1	0.855	0.09	0.01
353.15	546.7	0.855	0.09	0.01
358.15	555.3	0.855	0.09	0.01
363.15	563.9	0.855	0.09	0.01
