Measured thermophysical data. Elimination of Tar in Biomass Gasification Process: Liquid Liquid Equilibrium of Ternary Systems {Water + Solvent (p-Xylene and Methyl Hexadecanoate) + Model Molecules of Tar (Thiophene, Pyridine, Naphthalene, Phenathrene, and Anthracene)}
Source: J. Chem. Eng. Data, 2017, 10.1021/acs.jced.6b00857
Compound 1: thiophene, C4H4S, InChI=1S/C4H4S/c1-2-4-5-3-1/h1-4H, purity 99%
Compound 2: pyridine, C5H5N, InChI=1S/C5H5N/c1-2-4-6-5-3-1/h1-5H, purity 99.8%
Compound 3: naphthalene, C10H8, InChI=1S/C10H8/c1-2-6-10-8-4-3-7-9(10)5-1/h1-8H, purity 99%
Compound 4: phenanthrene, C14H10, InChI=1S/C14H10/c1-3-7-13-11(5-1)9-10-12-6-2-4-8-14(12)13/h1-10H, purity 99.5%
Compound 5: anthracene, C14H10, InChI=1S/C14H10/c1-2-6-12-10-14-8-4-3-7-13(14)9-11(12)5-1/h1-10H, purity 99%
Compound 6: 1,4-dimethylbenzene, C8H10, InChI=1S/C8H10/c1-7-3-5-8(2)6-4-7/h3-6H,1-2H3, purity 99%
Compound 7: methyl hexadecanoate, C17H34O2, InChI=1S/C17H34O2/c1-3-4-5-6-7-8-9-10-11-12-13-14-15-16-17(18)19-2/h3-16H2,1-2H3, purity 97%
Compound 8: water, H2O, InChI=1S/H2O/h1H2, purity 99.9%

System: 1,4-dimethylbenzene + thiophene + water; phases: Liquid mixture 1, Liquid mixture 2
Fixed: Pressure, kPa = 100
Property: Mole fraction of 1,4-dimethylbenzene (Liquid mixture 1); method: Chromatography and Titration
Property: Mole fraction of water (Liquid mixture 2); method: Chromatography and Titration
Property: Mole fraction of thiophene (Liquid mixture 2); method: Chromatography and Titration
Temperature, K	Mole fraction of thiophene	Mole fraction of 1,4-dimethylbenzene	uncertainty	Mole fraction of water	uncertainty	Mole fraction of thiophene	uncertainty
303.2	5.02e-05	3.28e-05	1e-06	0.00301	9e-05	0.064	
303.2	1.92e-05	3.28e-05	1e-06	0.00301	9e-05	0.0255	
303.2	5e-06	3.28e-05	1e-06	0.00301	9e-05	0.0068	
323.2	5.91e-05	3.87e-05	1.2e-06	0.00468	0.00014	0.0638	
323.2	2.36e-05	3.87e-05	1.2e-06	0.00468	0.00014	0.0255	
323.2	6.1e-06	3.87e-05	1.2e-06	0.00468	0.00014	0.0068	
343.2	7.32e-05	5.07e-05	1.5e-06	0.0073	0.00022	0.0634	
343.2	2.82e-05	5.07e-05	1.5e-06	0.0073	0.00022	0.0253	
343.2	7.7e-06	5.07e-05	1.5e-06	0.0073	0.00022	0.0068	

System: 1,4-dimethylbenzene + pyridine + water; phases: Liquid mixture 1, Liquid mixture 2
Fixed: Pressure, kPa = 100
Property: Mole fraction of 1,4-dimethylbenzene (Liquid mixture 1); method: Chromatography and Titration
Property: Mole fraction of water (Liquid mixture 2); method: Chromatography and Titration
Property: Mole fraction of pyridine (Liquid mixture 2); method: Chromatography and Titration
Temperature, K	Mole fraction of pyridine	Mole fraction of 1,4-dimethylbenzene	uncertainty	Mole fraction of water	uncertainty	Mole fraction of pyridine	uncertainty
303.2	0.00409	3.28e-05	1e-06	0.00301	9e-05	0.0391	
303.2	0.0017	3.28e-05	1e-06	0.00301	9e-05	0.0163	
303.2	0.0005	3.28e-05	1e-06	0.00301	9e-05	0.0046	
323.2	0.00348	3.87e-05	1.2e-06	0.00468	0.00014	0.0421	
323.2	0.00148	3.87e-05	1.2e-06	0.00468	0.00014	0.0175	
323.2	0.00041	3.87e-05	1.2e-06	0.00468	0.00014	0.005	
303.2	0.00315	5.07e-05	1.5e-06	0.0073	0.00022	0.044	
303.2	0.0013	5.07e-05	1.5e-06	0.0073	0.00022	0.0182	
303.2	0.00037	5.07e-05	1.5e-06	0.0073	0.00022	0.0052	

System: naphthalene + 1,4-dimethylbenzene + water; phases: Liquid mixture 1, Liquid mixture 2
Fixed: Pressure, kPa = 100
Property: Mole fraction of naphthalene (Liquid mixture 1); method: Chromatography and Titration
Property: Mole fraction of water (Liquid mixture 2); method: Chromatography and Titration
Property: Mole fraction of naphthalene (Liquid mixture 2); method: Chromatography and Titration
Temperature, K	Mole fraction of 1,4-dimethylbenzene	Mole fraction of naphthalene	uncertainty	Mole fraction of water	uncertainty	Mole fraction of naphthalene	uncertainty
303.2	3.28e-05	5.71e-07	1.7e-08	0.00301	9e-05	0.0417	
303.2	3.28e-05	2.26e-07	9e-09	0.00301	9e-05	0.0166	
303.2	3.28e-05	5.6e-08	7e-09	0.00301	9e-05	0.0042	
323.2	3.87e-05	7.82e-07	2.4e-08	0.00468	0.00014	0.0417	
323.2	3.87e-05	3.16e-07	1e-08	0.00468	0.00014	0.0166	
323.2	3.87e-05	7.9e-08	5e-09	0.00468	0.00014	0.0042	
343.2	5.07e-05	1.18e-06	4e-08	0.0073	0.00022	0.0417	
343.2	5.07e-05	4.89e-07	1.5e-08	0.0073	0.00022	0.0166	
343.2	5.07e-05	1.22e-07	4e-09	0.0073	0.00022	0.0042	

System: phenanthrene + 1,4-dimethylbenzene + water; phases: Liquid mixture 1, Liquid mixture 2
Fixed: Pressure, kPa = 100
Property: Mole fraction of phenanthrene (Liquid mixture 1); method: Chromatography and Titration
Property: Mole fraction of water (Liquid mixture 2); method: Chromatography and Titration
Property: Mole fraction of phenanthrene (Liquid mixture 2); method: Chromatography and Titration
Temperature, K	Mole fraction of 1,4-dimethylbenzene	Mole fraction of phenanthrene	uncertainty	Mole fraction of water	uncertainty	Mole fraction of phenanthrene	uncertainty
303.2	3.28e-05	5.26e-08	1.6e-09	0.00301	9e-05	0.0302	
303.2	3.28e-05	2.48e-08	9e-10	0.00301	9e-05	0.012	
303.2	3.28e-05	8.2e-09	7e-10	0.00301	9e-05	0.003	
323.2	3.87e-05	7.39e-08	2.2e-09	0.00468	0.00014	0.0302	
323.2	3.87e-05	3.78e-08	1.1e-09	0.00468	0.00014	0.012	
323.2	3.87e-05	1.3e-09	5e-10	0.00468	0.00014	0.003	
343.2	5.07e-05	1.44e-07	4e-09	0.0073	0.00022	0.0302	
343.2	5.07e-05	6.88e-08	2.1e-09	0.0073	0.00022	0.012	
343.2	5.07e-05	2.17e-08	7e-10	0.0073	0.00022	0.003	

System: 1,4-dimethylbenzene + anthracene + water; phases: Liquid mixture 1, Liquid mixture 2
Fixed: Pressure, kPa = 100
Property: Mole fraction of anthracene (Liquid mixture 1); method: Chromatography and Titration
Property: Mole fraction of water (Liquid mixture 2); method: Chromatography and Titration
Property: Mole fraction of anthracene (Liquid mixture 2); method: Chromatography and Titration
Temperature, K	Mole fraction of 1,4-dimethylbenzene	Mole fraction of anthracene	uncertainty	Mole fraction of water	uncertainty	Mole fraction of anthracene	uncertainty
303.2	3.28e-05	1.03e-08	3e-10	0.00301	9e-05	0.00476	
303.2	3.28e-05	5.6e-09	2e-10	0.00301	9e-05	0.00239	
303.2	3.28e-05	3.8e-09	2e-10	0.00301	9e-05	0.0012	
323.2	3.87e-05	2.25e-08	7e-10	0.00468	0.00014	0.00476	
323.2	3.87e-05	1.14e-08	3e-10	0.00468	0.00014	0.00239	
323.2	3.87e-05	7.3e-09	2e-10	0.00468	0.00014	0.0012	
343.2	5.07e-05	4.53e-08	1.4e-09	0.0073	0.00022	0.00476	
343.2	5.07e-05	2.18e-08	7e-10	0.0073	0.00022	0.00239	
343.2	5.07e-05	1.17e-08	4e-10	0.0073	0.00022	0.0012	

System: thiophene + methyl hexadecanoate + water; phases: Liquid mixture 1, Liquid mixture 2
Fixed: Pressure, kPa = 100
Property: Mole fraction of methyl hexadecanoate (Liquid mixture 1); method: Chromatography and Titration
Property: Mole fraction of water (Liquid mixture 2); method: Chromatography and Titration
Property: Mole fraction of thiophene (Liquid mixture 2); method: Chromatography and Titration
Temperature, K	Mole fraction of thiophene	Mole fraction of methyl hexadecanoate	uncertainty	Mole fraction of water	uncertainty	Mole fraction of thiophene	uncertainty
303.2	0.000106	9.42e-07	2.9e-08	0.0364	0.0011	0.144	
303.2	4.11e-05	9.42e-07	2.9e-08	0.0364	0.0011	0.0645	
303.2	1.34e-05	9.42e-07	2.9e-08	0.0364	0.0011	0.019	
323.2	0.000114	1.34e-06	4e-08	0.0393	0.0012	0.139	
323.2	4.74e-05	1.34e-06	4.1e-08	0.0393	0.0012	0.062	
323.2	1.4e-05	1.34e-06	4.1e-08	0.0393	0.0012	0.0178	
343.2	0.000146	2.18e-06	7e-08	0.0458	0.0014	0.137	
343.2	5.38e-05	2.18e-06	7e-08	0.0458	0.0014	0.0617	
343.2	1.61e-05	2.18e-06	7e-08	0.0458	0.0014	0.0172	

System: pyridine + methyl hexadecanoate + water; phases: Liquid mixture 1, Liquid mixture 2
Fixed: Pressure, kPa = 100
Property: Mole fraction of methyl hexadecanoate (Liquid mixture 1); method: Chromatography and Titration
Property: Mole fraction of water (Liquid mixture 2); method: Chromatography and Titration
Property: Mole fraction of pyridine (Liquid mixture 2); method: Chromatography and Titration
Temperature, K	Mole fraction of pyridine	Mole fraction of methyl hexadecanoate	uncertainty	Mole fraction of water	uncertainty	Mole fraction of pyridine	uncertainty
303.2	0.00531	9.42e-07	2.9e-08	0.0364	0.0011	0.0859	
303.2	0.00207	9.42e-07	2.9e-08	0.0364	0.0011	0.04	
303.2	0.0006	9.42e-07	2.9e-08	0.0364	0.0011	0.0117	
323.2	0.00488	1.34e-06	4.1e-08	0.0393	0.0012	0.0874	
323.2	0.00198	1.34e-06	4.1e-08	0.0393	0.0012	0.0403	
323.2	0.00055	1.34e-06	4.1e-08	0.0393	0.0012	0.0117	
343.2	0.00457	2.18e-06	7e-08	0.0458	0.0014	0.0897	
343.2	0.00188	2.18e-06	7e-08	0.0458	0.0014	0.0415	
343.2	0.00051	2.18e-06	7e-08	0.0458	0.0014	0.0119	

System: naphthalene + methyl hexadecanoate + water; phases: Liquid mixture 1, Liquid mixture 2
Fixed: Pressure, kPa = 100
Property: Mole fraction of methyl hexadecanoate (Liquid mixture 1); method: Chromatography and Titration
Property: Mole fraction of water (Liquid mixture 2); method: Chromatography and Titration
Property: Mole fraction of naphthalene (Liquid mixture 2); method: Chromatography and Titration
Temperature, K	Mole fraction of naphthalene	Mole fraction of methyl hexadecanoate	uncertainty	Mole fraction of water	uncertainty	Mole fraction of naphthalene	uncertainty
303.2	7.18e-07	9.42e-07	2.9e-08	0.0364	0.0011	0.0989	
303.2	2.96e-07	9.42e-07	2.9e-08	0.0364	0.0011	0.0412	
303.2	8.2e-08	9.42e-07	2.9e-08	0.0364	0.0011	0.0105	
323.2	9.94e-07	1.34e-06	4e-08	0.0393	0.0012	0.0989	
323.2	4.39e-07	1.34e-06	4e-08	0.0393	0.0012	0.0412	
323.2	1.13e-07	1.34e-06	4.1e-08	0.0393	0.0012	0.0105	
343.2	1.5e-06	2.18e-06	7e-08	0.0458	0.0014	0.0989	
343.2	6.56e-07	2.18e-06	7e-08	0.0458	0.0014	0.0412	
343.2	1.74e-07	2.18e-06	7e-08	0.0458	0.0014	0.0105	

System: phenanthrene + methyl hexadecanoate + water; phases: Liquid mixture 1, Liquid mixture 2
Fixed: Pressure, kPa = 100
Property: Mole fraction of methyl hexadecanoate (Liquid mixture 1); method: Chromatography and Titration
Property: Mole fraction of water (Liquid mixture 2); method: Chromatography and Titration
Property: Mole fraction of phenanthrene (Liquid mixture 2); method: Chromatography and Titration
Temperature, K	Mole fraction of phenanthrene	Mole fraction of methyl hexadecanoate	uncertainty	Mole fraction of water	uncertainty	Mole fraction of phenanthrene	uncertainty
303.2	3.17e-07	9.42e-07	2.9e-08	0.0364	0.0011	0.0733	
303.2	1.68e-07	9.42e-07	2.9e-08	0.0364	0.0011	0.0301	
303.2	8.2e-08	9.42e-07	2.9e-08	0.0364	0.0011	0.0078	
323.2	5.41e-07	1.34e-06	4.1e-08	0.0393	0.0012	0.0733	
323.2	2.64e-07	1.34e-06	4.1e-08	0.0393	0.0012	0.0301	
323.2	9.9e-08	1.34e-06	4e-08	0.0393	0.0012	0.0078	
343.2	1.16e-06	2.18e-06	7e-08	0.0458	0.0014	0.0733	
343.2	6.51e-07	2.18e-06	7e-08	0.0458	0.0014	0.0301	
343.2	1.93e-07	2.18e-06	7e-08	0.0458	0.0014	0.0078	

System: methyl hexadecanoate + anthracene + water; phases: Liquid mixture 1, Liquid mixture 2
Fixed: Pressure, kPa = 100
Property: Mole fraction of anthracene (Liquid mixture 1); method: Chromatography and Titration
Property: Mole fraction of water (Liquid mixture 2); method: Chromatography and Titration
Property: Mole fraction of anthracene (Liquid mixture 2); method: Chromatography and Titration
Temperature, K	Mole fraction of methyl hexadecanoate	Mole fraction of anthracene	uncertainty	Mole fraction of water	uncertainty	Mole fraction of anthracene	uncertainty
303.2	9.42e-07	5.49e-08	1.7e-09	0.0364	0.0011	0.0121	
303.2	9.42e-07	3.61e-08	1.3e-09	0.0364	0.0011	0.0061	
303.2	9.42e-07	2.52e-08	1.1e-09	0.0364	0.0011	0.00297	
323.2	1.34e-06	1.05e-07	3e-09	0.0393	0.0012	0.0121	
323.2	1.34e-06	6.35e-08	1.9e-09	0.0393	0.0012	0.0061	
323.2	1.34e-06	5.06e-08	1.5e-09	0.0393	0.0012	0.00297	
343.2	2.18e-06	2.57e-07	8e-09	0.0458	0.0014	0.0121	
343.2	2.18e-06	1.55e-07	5e-09	0.0458	0.0014	0.0061	
343.2	2.18e-06	1.09e-07	3e-09	0.0458	0.0014	0.00297	
