Measured thermophysical data. Phase Equilibrium Study in Aqueous Solutions Containing Ionic Liquid 1-Butyl-3-methyl Imidazolium Chloride and Poly(propylene glycol) 400 or Poly(ethylene glycol) Dimethyl Ether 250 via a Vapor-Liquid Equilibrium Study at T = 298.15 K
Source: J. Chem. Eng. Data, 2019, 10.1021/acs.jced.9b00365
Compound 1: 1-butyl-3-methylimidazolium chloride, C8H15ClN2, InChI=1S/C8H15N2.ClH/c1-3-4-5-10-7-6-9(2)8-10;/h6-8H,3-5H2,1-2H3;1H/q+1;/p-1
Compound 2: water, H2O, InChI=1S/H2O/h1H2, purity 99.9%

System: 1-butyl-3-methylimidazolium chloride + water; phases: Liquid
Fixed: Pressure, kPa = 85
Fixed: Temperature, K = 298.15
Property: (Relative) activity of water (Liquid); method: ISOPIE
Molality, mol/kg of 1-butyl-3-methylimidazolium chloride	(Relative) activity of water	uncertainty
0.3206	0.9908	0.0387
0.3487	0.9901	0.0387
0.4115	0.9883	0.0389
0.4127	0.988	0.0389
0.5616	0.9837	0.0387
0.7402	0.9793	0.0388
1.0346	0.9721	0.0387
0.3741	0.9893	0.0387
0.4003	0.9888	0.0387
0.4909	0.9861	0.0387
0.5052	0.9858	0.0387
0.5971	0.9823	0.0387
0.7438	0.979	0.0388
0.837	0.9768	0.0387
