Measured thermophysical data. Measurement and Correlation of Derivatized Anthraquinone Solubility in Supercritical Carbon Dioxide
Source: J. Chem. Eng. Data, 2015, 10.1021/acs.jced.5b00480
Compound 1: 1,4-diamino-2,3-dichloro-9,10-antracenedione, C14H8Cl2N2O2, InChI=1S/C14H8Cl2N2O2/c15-9-10(16)12(18)8-7(11(9)17)13(19)5-3-1-2-4-6(5)14(8)20/h1-4H,17-18H2, purity 93%
Compound 2: 1,8-dihydroxy-4,5-dinitro-9,10-anthracenedione, C14H6N2O8, InChI=1S/C14H6N2O8/c17-7-3-1-5(15(21)22)9-11(7)14(20)12-8(18)4-2-6(16(23)24)10(12)13(9)19/h1-4,17-18H, purity 98%
Compound 3: carbon dioxide, CO2, InChI=1S/CO2/c2-1-3, purity 99.9%

System: 1,4-diamino-2,3-dichloro-9,10-antracenedione + carbon dioxide; phases: Gas, Crystal
Property: Mole fraction of 1,4-diamino-2,3-dichloro-9,10-antracenedione (Gas); method: UV Spectroscopy
Temperature, K	Pressure, kPa	Mole fraction of 1,4-diamino-2,3-dichloro-9,10-antracenedione	uncertainty
323.15	12500	5.13e-07	6.6e-08
323.15	15000	7.33e-07	1.9e-08
323.15	17500	9.59e-07	1.29e-07
323.15	20000	1.235e-06	1.28e-07
323.15	22500	1.265e-06	6.5e-08
323.15	25000	1.595e-06	6.9e-08
353.15	12500	5.3e-08	7e-09
353.15	15000	3.23e-07	7.2e-08
353.15	17500	8.83e-07	5.8e-08
353.15	20000	1.53e-06	1.41e-07
353.15	22500	2.385e-06	1.147e-06
353.15	25000	3.14e-06	5.46e-07
383.15	12500	1.77e-07	3.8e-08
383.15	15000	4.32e-07	9.9e-08
383.15	17500	8.46e-07	5.3e-08
383.15	20000	1.676e-06	2.7e-07
383.15	22500	3.115e-06	4.08e-07
383.15	25000	5.235e-06	5.97e-07

System: 1,8-dihydroxy-4,5-dinitro-9,10-anthracenedione + carbon dioxide; phases: Gas, Crystal
Property: Mole fraction of 1,8-dihydroxy-4,5-dinitro-9,10-anthracenedione (Gas); method: UV Spectroscopy
Temperature, K	Pressure, kPa	Mole fraction of 1,8-dihydroxy-4,5-dinitro-9,10-anthracenedione	uncertainty
323.15	15000	2.19e-07	8.7e-08
323.15	17500	3.55e-07	1.85e-07
323.15	20000	4.33e-07	4.8e-08
323.15	22500	5.4e-07	2e-08
323.15	25000	5.8e-07	1.46e-07
353.15	15000	1.68e-07	1.4e-08
353.15	17500	2.91e-07	2.2e-08
353.15	20000	4.46e-07	6.9e-08
353.15	22500	7.38e-07	4.8e-08
353.15	25000	8.79e-07	7.7e-08
383.15	15000	2.28e-07	1.9e-08
383.15	17500	4.12e-07	2.36e-07
383.15	20000	7.29e-07	4.6e-08
383.15	22500	9.05e-07	1.09e-07
383.15	25000	1.115e-06	1.57e-07
