Measured thermophysical data. Surface Tension and Parachor Measurement of Low-Global Warming Potential Working Fluid cis-1-Chloro-2,3,3,3-tetrafluoropropene (R1224yd(Z))
Source: J. Chem. Eng. Data, 2019, 10.1021/acs.jced.9b00613
Compound 1: (Z)-1-chloro-2,3,3,3-tetrafluoropropene, C3HClF4, InChI=1S/C3HClF4/c4-1-2(5)3(6,7)8/h1H/b2-1-, purity 99.5%
Compound 2: 1,1,1,3,3-pentafluoropropane, C3H3F5, InChI=1S/C3H3F5/c4-2(5)1-3(6,7)8/h2H,1H2, purity 99.5%

System: (Z)-1-chloro-2,3,3,3-tetrafluoropropene; phases: Liquid, Gas
Property: Surface tension liquid-gas, N/m (Liquid); method: Capillary rise
Temperature, K	Surface tension liquid-gas, N/m	uncertainty
335.17	0.00836	0.00018
351.6	0.00656	0.00017
361.77	0.00538	0.00016
372.13	0.00428	0.00015
266	0.01685	0.0002
271.89	0.01599	0.0002
280.83	0.01497	0.0002
287.34	0.01398	0.0002
296.79	0.01291	0.00019
309.52	0.01131	0.00019
316.03	0.01062	0.00019
329.35	0.00895	0.00018
342	0.00754	0.00017
357.3	0.00592	0.00016
367.09	0.00483	0.00016
287.51	0.01387	0.0002
303.04	0.01202	0.00019
319.83	0.01005	0.00018
272.87	0.01582	0.0002
275.52	0.01542	0.0002
266.74	0.01649	0.0002
293.45	0.0132	0.0002
325.37	0.00955	0.00018
337.62	0.00812	0.00018
346.99	0.00695	0.00017
368.6	0.0047	0.00016

System: 1,1,1,3,3-pentafluoropropane; phases: Liquid, Gas
Property: Surface tension liquid-gas, N/m (Liquid); method: Capillary rise
Temperature, K	Surface tension liquid-gas, N/m	uncertainty
267.32	0.01768	0.0002
271.47	0.01716	0.0002
277.73	0.01644	0.0002
283.18	0.01561	0.00019
288.35	0.01491	0.00019
293.81	0.01424	0.00019
302.97	0.01302	0.00019
312.56	0.01198	0.00018
313.15	0.01159	0.00018
322.07	0.01061	0.00018
334.76	0.00907	0.00017
343.24	0.00797	0.00017
353.15	0.00678	0.00017
363.08	0.00571	0.00015
373.17	0.00464	0.00015
382.94	0.00362	0.00014
272.96	0.01689	0.0002
278	0.01631	0.0002
282.98	0.01556	0.0002
287.77	0.015	0.00019
293.59	0.01409	0.00019
298.52	0.01362	0.00019
303.29	0.01293	0.00019
308.4	0.01239	0.00019
312.93	0.01181	0.00018
323.23	0.01051	0.00018
332.33	0.00938	0.00018
342.86	0.00802	0.00017
353.12	0.00673	0.00016
371.88	0.00488	0.00015
