Measured thermophysical data. Solubility Measurement and Modeling of 2-Amino-4,6-dichoropyrimidine in Ten Pure Solvents and (Ethyl Acetate + Ethanol) Solvent Mixtures
Source: J. Chem. Eng. Data, 2018, 10.1021/acs.jced.8b00292
Compound 1: 2-amino-4,6-dichloropyrimidine, C4H3Cl2N3, InChI=1S/C4H3Cl2N3/c5-2-1-3(6)9-4(7)8-2/h1H,(H2,7,8,9), purity 99.6%
Compound 2: methanol, CH4O, InChI=1S/CH4O/c1-2/h2H,1H3, purity 99.7%
Compound 3: propan-1-ol, C3H8O, InChI=1S/C3H8O/c1-2-3-4/h4H,2-3H2,1H3, purity 99.4%
Compound 4: propan-2-ol, C3H8O, InChI=1S/C3H8O/c1-3(2)4/h3-4H,1-2H3, purity 99.5%
Compound 5: ethanol, C2H6O, InChI=1S/C2H6O/c1-2-3/h3H,2H2,1H3, purity 99.5%
Compound 6: toluene, C7H8, InChI=1S/C7H8/c1-7-5-3-2-4-6-7/h2-6H,1H3, purity 99.6%
Compound 7: ethyl acetate, C4H8O2, InChI=1S/C4H8O2/c1-3-6-4(2)5/h3H2,1-2H3, purity 99.5%
Compound 8: acetonitrile, C2H3N, InChI=1S/C2H3N/c1-2-3/h1H3, purity 99.4%
Compound 9: 1,4-dioxane, C4H8O2, InChI=1S/C4H8O2/c1-2-6-4-3-5-1/h1-4H2, purity 99.6%
Compound 10: cyclohexane, C6H12, InChI=1S/C6H12/c1-2-4-6-5-3-1/h1-6H2, purity 99.6%
Compound 11: acetone, C3H6O, InChI=1S/C3H6O/c1-3(2)4/h1-2H3, purity 99.5%
Compound 12: 2-amino-4-chlorobenzoic acid, C7H6ClNO2, InChI=1S/C7H6ClNO2/c8-4-1-2-5(7(10)11)6(9)3-4/h1-3H,9H2,(H,10,11), purity 99.5%

System: 2-amino-4,6-dichloropyrimidine; phases: Crystal, Liquid, Air at 1 atmosphere
Property: Triple point temperature, K (Crystal); method: DSC
Triple point temperature, K	uncertainty
496.42	1.22

System: 2-amino-4,6-dichloropyrimidine; phases: Crystal, Liquid, Air at 1 atmosphere
Property: Molar enthalpy of transition or fusion, kJ/mol (Crystal); method: DSC
Molar enthalpy of transition or fusion, kJ/mol	uncertainty
19.5	0.9

System: 2-amino-4,6-dichloropyrimidine + methanol; phases: Liquid, Crystal
Fixed: Pressure, kPa = 101.2
Property: Mole fraction of 2-amino-4,6-dichloropyrimidine (Liquid); method: Chromatography
Temperature, K	Mole fraction of 2-amino-4,6-dichloropyrimidine	uncertainty
278.15	0.001135	5.9e-05
283.15	0.001316	6.9e-05
288.15	0.001584	8.2e-05
293.15	0.001833	9.5e-05
298.15	0.002183	0.000114
303.15	0.002511	0.000131
308.15	0.002929	0.000152
313.15	0.003355	0.000175
318.15	0.003888	0.000202

System: 2-amino-4,6-dichloropyrimidine + ethanol; phases: Liquid, Crystal
Fixed: Pressure, kPa = 101.2
Property: Mole fraction of 2-amino-4,6-dichloropyrimidine (Liquid); method: Chromatography
Temperature, K	Mole fraction of 2-amino-4,6-dichloropyrimidine	uncertainty
278.15	0.0009295	4.84e-05
283.15	0.001111	5.8e-05
288.15	0.001324	6.9e-05
293.15	0.001578	8.2e-05
298.15	0.001826	9.5e-05
303.15	0.002151	0.000112
308.15	0.002511	0.000131
313.15	0.002925	0.000152
318.15	0.003391	0.000177

System: 2-amino-4,6-dichloropyrimidine + propan-1-ol; phases: Liquid, Crystal
Fixed: Pressure, kPa = 101.2
Property: Mole fraction of 2-amino-4,6-dichloropyrimidine (Liquid); method: Chromatography
Temperature, K	Mole fraction of 2-amino-4,6-dichloropyrimidine	uncertainty
278.15	0.0007923	4.13e-05
283.15	0.0009503	4.95e-05
288.15	0.001129	5.9e-05
293.15	0.001356	7.1e-05
298.15	0.001626	8.5e-05
303.15	0.001919	0.0001
308.15	0.002259	0.000118
313.15	0.002654	0.000138
318.15	0.003133	0.000163

System: 2-amino-4,6-dichloropyrimidine + propan-2-ol; phases: Liquid, Crystal
Fixed: Pressure, kPa = 101.2
Property: Mole fraction of 2-amino-4,6-dichloropyrimidine (Liquid); method: Chromatography
Temperature, K	Mole fraction of 2-amino-4,6-dichloropyrimidine	uncertainty
278.15	0.0005173	2.69e-05
283.15	0.0006454	3.36e-05
288.15	0.0008083	4.21e-05
293.15	0.0009886	5.15e-05
298.15	0.001212	6.3e-05
303.15	0.00148	7.7e-05
308.15	0.001778	9.3e-05
313.15	0.002151	0.000112
318.15	0.002574	0.000134

System: 2-amino-4,6-dichloropyrimidine + acetone; phases: Liquid, Crystal
Fixed: Pressure, kPa = 101.2
Property: Mole fraction of 2-amino-4,6-dichloropyrimidine (Liquid); method: Chromatography
Temperature, K	Mole fraction of 2-amino-4,6-dichloropyrimidine	uncertainty
278.15	0.005384	0.00028
283.15	0.006179	0.000322
288.15	0.007301	0.00038
293.15	0.008477	0.000441
298.15	0.009697	0.000505
303.15	0.01098	0.00057
308.15	0.01256	0.00065
313.15	0.01433	0.00075
318.15	0.0163	0.00085

System: 2-amino-4,6-dichloropyrimidine + 1,4-dioxane; phases: Liquid, Crystal
Fixed: Pressure, kPa = 101.2
Property: Mole fraction of 2-amino-4,6-dichloropyrimidine (Liquid); method: Chromatography
Temperature, K	Mole fraction of 2-amino-4,6-dichloropyrimidine	uncertainty
288.15	0.01216	0.00063
293.15	0.01394	0.00073
298.15	0.01597	0.00083
303.15	0.01819	0.00095
308.15	0.02054	0.00107
313.15	0.02326	0.00121
318.15	0.02619	0.00136

System: 2-amino-4,6-dichloropyrimidine + acetonitrile; phases: Liquid, Crystal
Fixed: Pressure, kPa = 101.2
Property: Mole fraction of 2-amino-4,6-dichloropyrimidine (Liquid); method: Chromatography
Temperature, K	Mole fraction of 2-amino-4,6-dichloropyrimidine	uncertainty
278.15	0.001275	6.6e-05
283.15	0.001548	8.1e-05
288.15	0.001859	9.7e-05
293.15	0.00223	0.000116
298.15	0.002651	0.000138
303.15	0.003145	0.000164
308.15	0.003702	0.000193
313.15	0.004336	0.000226
318.15	0.005048	0.000263

System: 2-amino-4,6-dichloropyrimidine + ethyl acetate; phases: Liquid, Crystal
Fixed: Pressure, kPa = 101.2
Property: Mole fraction of 2-amino-4,6-dichloropyrimidine (Liquid); method: Chromatography
Temperature, K	Mole fraction of 2-amino-4,6-dichloropyrimidine	uncertainty
278.15	0.004585	0.000239
283.15	0.005352	0.000279
288.15	0.00631	0.000328
293.15	0.007301	0.00038
298.15	0.008473	0.000441
303.15	0.00981	0.000511
308.15	0.01126	0.00059
313.15	0.01292	0.00067
318.15	0.01471	0.00077

System: 2-amino-4,6-dichloropyrimidine + toluene; phases: Liquid, Crystal
Fixed: Pressure, kPa = 101.2
Property: Mole fraction of 2-amino-4,6-dichloropyrimidine (Liquid); method: Chromatography
Temperature, K	Mole fraction of 2-amino-4,6-dichloropyrimidine	uncertainty
278.15	0.0005509	2.87e-05
283.15	0.0006946	3.62e-05
288.15	0.0008559	4.46e-05
293.15	0.001052	5.5e-05
298.15	0.001284	6.7e-05
303.15	0.001565	8.1e-05
308.15	0.001883	9.8e-05
313.15	0.00228	0.000119
318.15	0.002737	0.000142

System: 2-amino-4,6-dichloropyrimidine + cyclohexane; phases: Liquid, Crystal
Fixed: Pressure, kPa = 101.2
Property: Mole fraction of 2-amino-4,6-dichloropyrimidine (Liquid); method: Chromatography
Temperature, K	Mole fraction of 2-amino-4,6-dichloropyrimidine	uncertainty
283.15	4.26e-05	2.22e-06
288.15	5.553e-05	2.89e-06
293.15	7.145e-05	3.72e-06
298.15	9.052e-05	4.71e-06
303.15	0.0001152	6e-06
308.15	0.0001438	7.5e-06
313.15	0.0001807	9.4e-06
318.15	0.0002238	1.17e-05

System: 2-amino-4,6-dichloropyrimidine + ethyl acetate + ethanol; phases: Liquid, Crystal
Fixed: Pressure, kPa = 101.1
Property: Mole fraction of 2-amino-4,6-dichloropyrimidine (Liquid); method: Chromatography
Temperature, K	Solvent: Mass fraction of ethyl acetate	Mole fraction of 2-amino-4,6-dichloropyrimidine	uncertainty
278.15	1	0.004585	0.000239
283.15	1	0.005352	0.000279
288.15	1	0.00631	0.000328
293.15	1	0.007301	0.00038
298.15	1	0.008473	0.000441
303.15	1	0.00981	0.000511
308.15	1	0.01126	0.00059
313.15	1	0.01292	0.00067
318.15	1	0.01471	0.00077
278.15	0.9005	0.003998	0.000208
283.15	0.9005	0.004668	0.000243
288.15	0.9005	0.005528	0.000288
293.15	0.9005	0.006423	0.000334
298.15	0.9005	0.007459	0.000388
303.15	0.9005	0.008638	0.00045
308.15	0.9005	0.009872	0.000514
313.15	0.9005	0.0114	0.00059
318.15	0.9005	0.01299	0.00068
278.15	0.7992	0.003455	0.00018
283.15	0.7992	0.004017	0.000209
288.15	0.7992	0.004738	0.000247
293.15	0.7992	0.005559	0.000289
298.15	0.7992	0.006422	0.000334
303.15	0.7992	0.007382	0.000384
308.15	0.7992	0.008588	0.000447
313.15	0.7992	0.009873	0.000514
318.15	0.7992	0.01129	0.00059
278.15	0.6997	0.002981	0.000155
283.15	0.6997	0.003461	0.00018
288.15	0.6997	0.004076	0.000212
293.15	0.6997	0.004785	0.000249
298.15	0.6997	0.005544	0.000289
303.15	0.6997	0.006424	0.000334
308.15	0.6997	0.007374	0.000384
313.15	0.6997	0.008537	0.000444
318.15	0.6997	0.009787	0.000509
278.15	0.6008	0.002495	0.00013
283.15	0.6008	0.002959	0.000154
288.15	0.6008	0.003485	0.000181
293.15	0.6008	0.004075	0.000212
298.15	0.6008	0.004725	0.000246
303.15	0.6008	0.005511	0.000287
308.15	0.6008	0.006359	0.000331
313.15	0.6008	0.007315	0.000381
318.15	0.6008	0.008405	0.000438
278.15	0.5003	0.002116	0.00011
283.15	0.5003	0.002496	0.00013
288.15	0.5003	0.002951	0.000154
293.15	0.5003	0.003487	0.000182
298.15	0.5003	0.004026	0.00021
303.15	0.5003	0.004686	0.000244
308.15	0.5003	0.005425	0.000282
313.15	0.5003	0.006279	0.000327
318.15	0.5003	0.007209	0.000375
278.15	0.4011	0.001797	9.4e-05
283.15	0.4011	0.002112	0.00011
288.15	0.4011	0.002529	0.000132
293.15	0.4011	0.002966	0.000154
298.15	0.4011	0.003434	0.000179
303.15	0.4011	0.004016	0.000209
308.15	0.4011	0.004648	0.000242
313.15	0.4011	0.005386	0.00028
318.15	0.4011	0.006209	0.000323
278.15	0.2991	0.001521	7.9e-05
283.15	0.2991	0.001798	9.4e-05
288.15	0.2991	0.002145	0.000112
293.15	0.2991	0.002532	0.000132
298.15	0.2991	0.002921	0.000152
303.15	0.2991	0.003417	0.000178
308.15	0.2991	0.003974	0.000207
313.15	0.2991	0.004607	0.00024
318.15	0.2991	0.00532	0.000277
278.15	0.2009	0.001297	6.8e-05
283.15	0.2009	0.001542	8e-05
288.15	0.2009	0.001833	9.5e-05
293.15	0.2009	0.002164	0.000113
298.15	0.2009	0.002505	0.00013
303.15	0.2009	0.002945	0.000153
308.15	0.2009	0.003429	0.000179
313.15	0.2009	0.003979	0.000207
318.15	0.2009	0.004587	0.000239
278.15	0.1001	0.001098	5.7e-05
283.15	0.1001	0.001316	6.9e-05
288.15	0.1001	0.001559	8.1e-05
293.15	0.1001	0.001842	9.6e-05
298.15	0.1001	0.00214	0.000111
303.15	0.1001	0.002517	0.000131
308.15	0.1001	0.002933	0.000153
313.15	0.1001	0.00341	0.000178
318.15	0.1001	0.003942	0.000205
278.15	0	0.0009295	4.84e-05
283.15	0	0.001111	5.8e-05
288.15	0	0.001324	6.9e-05
293.15	0	0.001578	8.2e-05
298.15	0	0.001826	9.5e-05
303.15	0	0.002151	0.000112
308.15	0	0.002511	0.000131
313.15	0	0.002925	0.000152
318.15	0	0.003391	0.000177

System: 2-amino-4-chlorobenzoic acid + acetone; phases: Liquid, Crystal
Fixed: Pressure, kPa = 101.2
Property: Mole fraction of 2-amino-4-chlorobenzoic acid (Liquid); method: Chromatography
Temperature, K	Mole fraction of 2-amino-4-chlorobenzoic acid	uncertainty
278.15	0.01588	0.00083
288.15	0.02251	0.00117
298.15	0.03063	0.00159
308.15	0.04041	0.0021
