Measured thermophysical data. Solubility Behavior of Calcium Sulfate Dihydrate (Gypsum) in an Aqueous Sodium Chloride System in the Presence of Hydroxyalkyl Ammonium Acetate Ionic Liquids Additives: Morphology Changes and Physicochemical Solution Properties at 35 degC
Source: J. Chem. Eng. Data, 2019, 10.1021/acs.jced.9b00354
Compound 1: calcium sulfate, CaO4S, InChI=1S/Ca.H2O4S/c;1-5(2,3)4/h;(H2,1,2,3,4)/q+2;/p-2, purity 98%
Compound 2: sodium chloride, ClNa, InChI=1S/ClH.Na/h1H;/q;+1/p-1, purity 99.9%
Compound 3: 2-hydroxyethylammonium acetate, C4H11NO3, InChI=1S/C2H7NO.C2H4O2/c3-1-2-4;1-2(3)4/h4H,1-3H2;1H3,(H,3,4), purity 95%
Compound 4: 2,2'-azanediylbis(ethanol) acetate, C6H15NO4, InChI=1S/C4H11NO2.C2H4O2/c6-3-1-5-2-4-7;1-2(3)4/h5-7H,1-4H2;1H3,(H,3,4), purity 95%
Compound 5: triethanolammonium acetate, C8H19NO5, InChI=1S/C6H15NO3.C2H4O2/c8-4-1-7(2-5-9)3-6-10;1-2(3)4/h8-10H,1-6H2;1H3,(H,3,4), purity 95%
Compound 6: water, H2O, InChI=1S/H2O/h1H2, purity 99.9%

System: sodium chloride + calcium sulfate + water; phases: Liquid, Crystal of intercomponent compound 1
Fixed: Temperature, K = 308.15
Fixed: Pressure, kPa = 100
Property: Molality, mol/kg of calcium sulfate (Liquid); method: titration
Molality, mol/kg of sodium chloride	Molality, mol/kg of calcium sulfate	uncertainty
0	0.0148	0.004
0.165	0.0229	0.004
0.6175	0.0345	0.004
1.311	0.0454	0.004
1.7506	0.0503	0.004
2.3309	0.052	0.004
2.8165	0.0523	0.004
3.302	0.0509	0.004
3.835	0.0494	0.004
4.2002	0.0471	0.004
4.3222	0.0464	0.004
4.9037	0.0429	0.004
5.3408	0.0399	0.004

System: sodium chloride + calcium sulfate + water; phases: Liquid
Fixed: Pressure, kPa = 100
Fixed: Temperature, K = 308.15
Property: Mass density, kg/m3 (Liquid); method: Vibrating tube method
Molality, mol/kg of sodium chloride	Molality, mol/kg of calcium sulfate	Mass density, kg/m3	uncertainty
0	0.0148	995.9	10
0.165	0.0229	1003.6	10
0.6175	0.0345	1021.5	10
1.311	0.0454	1048.4	10
1.7506	0.0503	1065.1	10
2.3309	0.052	1087.4	10
2.8165	0.0523	1104.9	10
3.302	0.0509	1123.5	10
3.835	0.0494	1142.9	10
4.2002	0.0471	1156.4	10
4.3222	0.0464	1160.8	10
4.9037	0.0429	1181.5	10.1
5.3408	0.0399	1197	10.1

System: sodium chloride + calcium sulfate + water; phases: Liquid
Fixed: Pressure, kPa = 100
Fixed: Temperature, K = 308.15
Property: Speed of sound, m/s (Liquid); method: Single path-length method
Molality, mol/kg of sodium chloride	Molality, mol/kg of calcium sulfate	Speed of sound, m/s	uncertainty
0	0.0148	1521.4	0.7
0.165	0.0229	1533.6	0.7
0.6175	0.0345	1557.5	0.6
1.311	0.0454	1594.2	0.6
1.7506	0.0503	1617.5	0.6
2.3309	0.052	1648.4	1
2.8165	0.0523	1673.6	0.6
3.302	0.0509	1699.4	0.8
3.835	0.0494	1727.4	0.7
4.2002	0.0471	1747	0.6
4.3222	0.0464	1753.5	0.7
4.9037	0.0429	1783.9	0.6
5.3408	0.0399	1807.2	0.6

System: 2-hydroxyethylammonium acetate + calcium sulfate + water; phases: Liquid, Crystal of intercomponent compound 1
Fixed: Temperature, K = 308.15
Fixed: Pressure, kPa = 100
Property: Molality, mol/kg of calcium sulfate (Liquid); method: titration
Solvent: Mass fraction of 2-hydroxyethylammonium acetate	Molality, mol/kg of calcium sulfate	uncertainty
0.05	0.0368	0.004
0.1	0.0491	0.0041
0.15	0.0551	0.0041

System: 2-hydroxyethylammonium acetate + calcium sulfate + water; phases: Liquid
Fixed: Pressure, kPa = 100
Fixed: Temperature, K = 308.15
Property: Mass density, kg/m3 (Liquid); method: Vibrating tube method
Solvent: Mass fraction of 2-hydroxyethylammonium acetate	Molality, mol/kg of calcium sulfate	Mass density, kg/m3	uncertainty
0.05	0.0368	1004.3	10.1
0.1	0.0491	1015.3	10.1
0.15	0.0551	1025.5	10.2

System: 2-hydroxyethylammonium acetate + calcium sulfate + water; phases: Liquid
Fixed: Pressure, kPa = 100
Fixed: Temperature, K = 308.15
Property: Speed of sound, m/s (Liquid); method: Single path-length method
Solvent: Mass fraction of 2-hydroxyethylammonium acetate	Molality, mol/kg of calcium sulfate	Speed of sound, m/s	uncertainty
0.05	0.0368	1551.7	2.7
0.1	0.0491	1575.3	3.8
0.15	0.0551	1604.2	5

System: 2,2'-azanediylbis(ethanol) acetate + calcium sulfate + water; phases: Liquid, Crystal of intercomponent compound 1
Fixed: Temperature, K = 308.15
Fixed: Pressure, kPa = 100
Property: Molality, mol/kg of calcium sulfate (Liquid); method: titration
Solvent: Mass fraction of 2,2'-azanediylbis(ethanol) acetate	Molality, mol/kg of calcium sulfate	uncertainty
0.05	0.031	0.004
0.1	0.0396	0.0041
0.15	0.0506	0.0043

System: 2,2'-azanediylbis(ethanol) acetate + calcium sulfate + water; phases: Liquid
Fixed: Pressure, kPa = 100
Fixed: Temperature, K = 308.15
Property: Mass density, kg/m3 (Liquid); method: Vibrating tube method
Solvent: Mass fraction of 2,2'-azanediylbis(ethanol) acetate	Molality, mol/kg of calcium sulfate	Mass density, kg/m3	uncertainty
0.05	0.031	1007	10.1
0.1	0.0396	1017.7	10.1
0.15	0.0506	1031.8	10.3

System: 2,2'-azanediylbis(ethanol) acetate + calcium sulfate + water; phases: Liquid
Fixed: Pressure, kPa = 100
Fixed: Temperature, K = 308.15
Property: Speed of sound, m/s (Liquid); method: Single path-length method
Solvent: Mass fraction of 2,2'-azanediylbis(ethanol) acetate	Molality, mol/kg of calcium sulfate	Speed of sound, m/s	uncertainty
0.05	0.031	1549.8	2.8
0.1	0.0396	1577	3.6
0.15	0.0506	1616	6.3

System: triethanolammonium acetate + calcium sulfate + water; phases: Liquid, Crystal of intercomponent compound 1
Fixed: Temperature, K = 308.15
Fixed: Pressure, kPa = 100
Property: Molality, mol/kg of calcium sulfate (Liquid); method: titration
Solvent: Mass fraction of triethanolammonium acetate	Molality, mol/kg of calcium sulfate	uncertainty
0.05	0.0292	0.004
0.1	0.037	0.0041
0.15	0.0457	0.0042

System: triethanolammonium acetate + calcium sulfate + water; phases: Liquid
Fixed: Pressure, kPa = 100
Fixed: Temperature, K = 308.15
Property: Mass density, kg/m3 (Liquid); method: Vibrating tube method
Solvent: Mass fraction of triethanolammonium acetate	Molality, mol/kg of calcium sulfate	Mass density, kg/m3	uncertainty
0.05	0.0292	1008	10.1
0.1	0.037	1018.7	10.1
0.15	0.0457	1029.6	10.2

System: triethanolammonium acetate + calcium sulfate + water; phases: Liquid
Fixed: Pressure, kPa = 100
Fixed: Temperature, K = 308.15
Property: Speed of sound, m/s (Liquid); method: Single path-length method
Solvent: Mass fraction of triethanolammonium acetate	Molality, mol/kg of calcium sulfate	Speed of sound, m/s	uncertainty
0.05	0.0292	1548	2.7
0.1	0.037	1572.7	3.5
0.15	0.0457	1599.3	4.7

System: calcium sulfate + water; phases: Liquid, Crystal of intercomponent compound 1
Property: Molality, mol/kg of calcium sulfate (Liquid); method: titration
Temperature, K	Pressure, kPa	Molality, mol/kg of calcium sulfate	uncertainty
308.15	100	0.0148	0.004

System: calcium sulfate + water; phases: Liquid
Property: Mass density, kg/m3 (Liquid); method: Vibrating tube method
Molality, mol/kg of calcium sulfate	Pressure, kPa	Temperature, K	Mass density, kg/m3	uncertainty
0.0148	100	308.15	995.9	10

System: calcium sulfate + water; phases: Liquid
Property: Speed of sound, m/s (Liquid); method: Single path-length method
Molality, mol/kg of calcium sulfate	Pressure, kPa	Temperature, K	Speed of sound, m/s	uncertainty
0.0148	100	308.15	1521.4	0.7
