Measured thermophysical data. Solid-Liquid Equilibrium of the Quaternary System Lithium, Potassium, Rubidium, and Borate at T = 323 K
Source: J. Chem. Eng. Data, 2018, 10.1021/acs.jced.8b00391
Compound 1: water, H2O, InChI=1S/H2O/h1H2, purity 99.9%
Compound 2: lithium borate, B4Li2O7, InChI=1S/B4O7.2Li/c5-3-7-1-8-4(6,11-3)10-2-9-3;;/q-2;2*+1, purity 99%
Compound 3: potassium tetraborate, B4K2O7, InChI=1S/B4O7.2K/c5-1-7-3-9-2(6)10-4(8-1)11-3;;/q-2;2*+1, purity 99%
Compound 4: rubidium pentaborate, B5O8Rb, InChI=1S/B5O8.Rb/c6-1-8-3-11-4-9-2(7)10-5(12-3)13-4;/q-1;+1, purity 99%

System: potassium tetraborate + water; phases: Liquid, Crystal of intercomponent compound 1
Property: Mass fraction of potassium tetraborate (Liquid); method: spectroscopy and titration
Temperature, K	Pressure, kPa	Mass fraction of potassium tetraborate	uncertainty
323	100	0.2458	0.0025

System: lithium borate + water; phases: Liquid, Crystal of intercomponent compound 1
Property: Mass fraction of lithium borate (Liquid); method: spectroscopy and titration
Temperature, K	Pressure, kPa	Mass fraction of lithium borate	uncertainty
323	100	0.0387	0.0003

System: lithium borate + potassium tetraborate + water; phases: Liquid, Crystal of intercomponent compound 1
Property: Mass fraction of potassium tetraborate (Liquid); method: spectroscopy and chemical analysis
Mass fraction of lithium borate	Temperature, K	Pressure, kPa	Mass fraction of potassium tetraborate	uncertainty
0.0462	323	100	0.2729	0.0028

System: lithium borate + potassium tetraborate + water; phases: Liquid
Property: Mass density, kg/m3 (Liquid); method: Pycnometric method
Mass fraction of lithium borate	Mass fraction of potassium tetraborate	Temperature, K	Pressure, kPa	Mass density, kg/m3	uncertainty
0.0462	0.2729	323	100	1366.1	1.2

System: lithium borate + potassium tetraborate + water; phases: Liquid
Property: Refractive index (Na D-line) (Liquid); method: Standard Abbe refractometry
Mass fraction of lithium borate	Mass fraction of potassium tetraborate	Temperature, K	Pressure, kPa	Refractive index (Na D-line)	uncertainty
0.0462	0.2729	323	100	1.3846	0.0004

System: lithium borate + potassium tetraborate + water; phases: Liquid, Crystal of intercomponent compound 2
Property: Mass fraction of potassium tetraborate (Liquid); method: spectroscopy and chemical analysis
Mass fraction of lithium borate	Temperature, K	Pressure, kPa	Mass fraction of potassium tetraborate	uncertainty
0.0462	323	100	0.2729	0.0028

System: potassium tetraborate + rubidium pentaborate + water; phases: Liquid, Crystal of intercomponent compound 1
Property: Mass fraction of rubidium pentaborate (Liquid); method: spectroscopy and chemical analysis
Mass fraction of potassium tetraborate	Temperature, K	Pressure, kPa	Mass fraction of rubidium pentaborate	uncertainty
0.2514	323	100	0.1269	0.0013

System: potassium tetraborate + rubidium pentaborate + water; phases: Liquid, Crystal of intercomponent compound 2
Property: Mass fraction of rubidium pentaborate (Liquid); method: spectroscopy and chemical analysis
Mass fraction of potassium tetraborate	Temperature, K	Pressure, kPa	Mass fraction of rubidium pentaborate	uncertainty
0.2514	323	100	0.1269	0.0013

System: potassium tetraborate + rubidium pentaborate + water; phases: Liquid
Property: Mass density, kg/m3 (Liquid); method: Pycnometric method
Mass fraction of potassium tetraborate	Mass fraction of rubidium pentaborate	Temperature, K	Pressure, kPa	Mass density, kg/m3	uncertainty
0.2514	0.1269	323	100	1423.5	1.2

System: potassium tetraborate + rubidium pentaborate + water; phases: Liquid
Property: Refractive index (Na D-line) (Liquid); method: Standard Abbe refractometry
Mass fraction of potassium tetraborate	Mass fraction of rubidium pentaborate	Temperature, K	Pressure, kPa	Refractive index (Na D-line)	uncertainty
0.2514	0.1269	323	100	1.3874	0.0004

System: lithium borate + rubidium pentaborate + water; phases: Liquid, Crystal of intercomponent compound 1
Property: Mass fraction of rubidium pentaborate (Liquid); method: spectroscopy and chemical analysis
Mass fraction of lithium borate	Temperature, K	Pressure, kPa	Mass fraction of rubidium pentaborate	uncertainty
0.0361	323	100	0.0732	0.0008

System: lithium borate + rubidium pentaborate + water; phases: Liquid, Crystal of intercomponent compound 2
Property: Mass fraction of rubidium pentaborate (Liquid); method: spectroscopy and chemical analysis
Mass fraction of lithium borate	Temperature, K	Pressure, kPa	Mass fraction of rubidium pentaborate	uncertainty
0.0361	323	100	0.0732	0.0008

System: lithium borate + rubidium pentaborate + water; phases: Liquid
Property: Mass density, kg/m3 (Liquid); method: Pycnometric method
Mass fraction of lithium borate	Mass fraction of rubidium pentaborate	Temperature, K	Pressure, kPa	Mass density, kg/m3	uncertainty
0.0361	0.0732	323	100	1141.5	0.9

System: lithium borate + rubidium pentaborate + water; phases: Liquid
Property: Refractive index (Na D-line) (Liquid); method: Standard Abbe refractometry
Mass fraction of lithium borate	Mass fraction of rubidium pentaborate	Temperature, K	Pressure, kPa	Refractive index (Na D-line)	uncertainty
0.0361	0.0732	323	100	1.3472	0.0004
