Measured thermophysical data. Phase behavior at Different Temperatures of an Aqueous Two-Phase Ionic Liquid Containing ([BPy] NO3 + Ammonium Sulfate and Sodium Sulfate + Water)
Source: J. Chem. Eng. Data, 2017, 10.1021/acs.jced.6b00844
Compound 1: 1-butylpyridinium nitrate, C9H14N2O3, InChI=1S/C9H14N.NO3/c1-2-3-7-10-8-5-4-6-9-10;2-1(3)4/h4-6,8-9H,2-3,7H2,1H3;/q+1;-1, purity 99%
Compound 2: ammonium sulfate, H8N2O4S, InChI=1S/2H3N.H2O4S/c;;1-5(2,3)4/h2*1H3;(H2,1,2,3,4), purity 99%
Compound 3: sodium sulfate, Na2O4S, InChI=1S/2Na.H2O4S/c;;1-5(2,3)4/h;;(H2,1,2,3,4)/q2*+1;/p-2, purity 99%
Compound 4: water, H2O, InChI=1S/H2O/h1H2, purity 99.9%

System: water + ammonium sulfate + 1-butylpyridinium nitrate; phases: Liquid mixture 1, Liquid mixture 2
Fixed: Pressure, kPa = 100
Property: Mass fraction of ammonium sulfate (Liquid mixture 1); method: Titration method
Temperature, K	Mass fraction of 1-butylpyridinium nitrate	Mass fraction of ammonium sulfate	uncertainty
298.15	0.7855	0.0088	0.002
298.15	0.6785	0.0205	0.0021
298.15	0.6458	0.0258	0.0022
298.15	0.6082	0.0359	0.0023
298.15	0.5882	0.0404	0.0024
298.15	0.5635	0.0472	0.0025
298.15	0.5334	0.0622	0.0028
298.15	0.5198	0.0663	0.0029
298.15	0.4993	0.0754	0.0031
298.15	0.4806	0.0838	0.0032
298.15	0.4634	0.0918	0.0034
298.15	0.447	0.0987	0.0036
298.15	0.4313	0.1066	0.0037
298.15	0.4177	0.1126	0.0039
298.15	0.4022	0.1208	0.0041
298.15	0.3818	0.1326	0.0044
298.15	0.3656	0.1418	0.0046
298.15	0.3509	0.15	0.0048
298.15	0.3345	0.1601	0.0051
298.15	0.3199	0.1688	0.0054
298.15	0.3045	0.1787	0.0057
298.15	0.2907	0.1874	0.0059
298.15	0.2858	0.1904	0.006
298.15	0.2819	0.193	0.0061
298.15	0.2784	0.1953	0.0062
298.15	0.278	0.1956	0.0062
298.15	0.2757	0.1971	0.0063
298.15	0.2714	0.2001	0.0063
298.15	0.2677	0.2025	0.0064
298.15	0.2633	0.2055	0.0065
298.15	0.2597	0.2079	0.0066
298.15	0.2581	0.2091	0.0066
298.15	0.2551	0.2111	0.0067
298.15	0.2511	0.2138	0.0068
298.15	0.2463	0.2171	0.0069
298.15	0.246	0.2174	0.0069
298.15	0.2421	0.2201	0.007
298.15	0.2393	0.222	0.007
298.15	0.2381	0.2229	0.007
298.15	0.233	0.2264	0.0072
298.15	0.229	0.2293	0.0072
298.15	0.2285	0.2296	0.0073
298.15	0.2242	0.2327	0.0074
298.15	0.2203	0.2355	0.0074
298.15	0.2195	0.236	0.0075
298.15	0.215	0.2393	0.0076
298.15	0.212	0.2414	0.0076
298.15	0.2101	0.2428	0.0077
298.15	0.2051	0.2465	0.0078
298.15	0.2045	0.2469	0.0078
298.15	0.2	0.2502	0.0079
298.15	0.1959	0.2533	0.008
298.15	0.1953	0.2538	0.008
298.15	0.1908	0.2571	0.0081
298.15	0.1867	0.2602	0.0082
298.15	0.1866	0.2603	0.0082
298.15	0.1828	0.2632	0.0083
298.15	0.1777	0.2671	0.0084
298.15	0.1761	0.2683	0.0085
298.15	0.1715	0.2719	0.0086
298.15	0.1689	0.2739	0.0086
298.15	0.1672	0.2753	0.0087
298.15	0.1628	0.2788	0.0088
298.15	0.1589	0.2819	0.0088
298.15	0.1581	0.2825	0.0088
298.15	0.152	0.2858	0.0089
298.15	0.1452	0.2892	0.0091
298.15	0.1394	0.2939	0.0093
298.15	0.1374	0.2969	0.0094
298.15	0.1319	0.3014	0.0096
298.15	0.1267	0.3078	0.0098
298.15	0.1198	0.3152	0.01
298.15	0.1139	0.3215	0.0101
298.15	0.109	0.325	0.0103
298.15	0.1041	0.3322	0.0106
298.15	0.0998	0.3369	0.0107
298.15	0.0975	0.3406	0.011
298.15	0.0953	0.3442	0.0109
298.15	0.0905	0.348	0.011
298.15	0.0848	0.3543	0.0111
298.15	0.079	0.3586	0.0113
298.15	0.0747	0.3657	0.0117
298.15	0.0702	0.3713	0.0118
298.15	0.0645	0.3788	0.012
308.15	0.7576	0.0081	0.002
308.15	0.5936	0.0372	0.0023
308.15	0.5625	0.0469	0.0025
308.15	0.5417	0.0561	0.0027
308.15	0.521	0.0654	0.0029
308.15	0.5089	0.0688	0.0029
308.15	0.4911	0.0767	0.0031
308.15	0.4749	0.0833	0.0032
308.15	0.4551	0.0935	0.0035
308.15	0.4418	0.0989	0.0035
308.15	0.4246	0.1077	0.0038
308.15	0.4087	0.1162	0.004
308.15	0.3973	0.1208	0.0041
308.15	0.3748	0.1345	0.0044
308.15	0.3611	0.1412	0.0046
308.15	0.3435	0.1523	0.0049
308.15	0.3284	0.1618	0.0052
308.15	0.312	0.1724	0.0055
308.15	0.2993	0.1803	0.0057
308.15	0.2874	0.1877	0.006
308.15	0.2768	0.194	0.0061
308.15	0.2674	0.1997	0.0063
308.15	0.2629	0.2031	0.0064
308.15	0.2538	0.2096	0.0067
308.15	0.2404	0.2206	0.007
308.15	0.2295	0.2277	0.0072
308.15	0.2215	0.2334	0.0074
308.15	0.211	0.2406	0.0076
308.15	0.2016	0.2471	0.0078
308.15	0.1927	0.2535	0.008
308.15	0.183	0.2608	0.0082
308.15	0.1727	0.2688	0.0085
308.15	0.1615	0.2782	0.0088
308.15	0.15	0.2908	0.0092
308.15	0.1447	0.2932	0.0093
308.15	0.1179	0.3187	0.0101
308.15	0.1006	0.3369	0.0107
308.15	0.0833	0.3567	0.0114
318.15	0.7562	0.0089	0.002
318.15	0.7029	0.0159	0.0021
318.15	0.669	0.0219	0.0021
318.15	0.6472	0.028	0.0022
318.15	0.6167	0.034	0.0023
318.15	0.5618	0.0523	0.0026
318.15	0.5334	0.0624	0.0028
318.15	0.5104	0.0716	0.003
318.15	0.4898	0.0806	0.0032
318.15	0.4812	0.0845	0.0032
318.15	0.4719	0.0889	0.0034
318.15	0.4505	0.0995	0.0036
318.15	0.4308	0.1099	0.0038
318.15	0.4138	0.1193	0.0041
318.15	0.3979	0.1285	0.0043
318.15	0.3797	0.1393	0.0046
318.15	0.3628	0.1497	0.0048
318.15	0.3481	0.159	0.005
318.15	0.335	0.1649	0.0064
318.15	0.3318	0.1672	0.0058
318.15	0.3281	0.1695	0.0053
318.15	0.3255	0.1708	0.0055
318.15	0.3214	0.1736	0.006
318.15	0.3179	0.1761	0.0055
318.15	0.3146	0.1794	0.0056
318.15	0.3112	0.1799	0.0058
318.15	0.304	0.1848	0.0058
318.15	0.3027	0.1856	0.0058
318.15	0.3015	0.1879	0.006
318.15	0.2995	0.1887	0.0061
318.15	0.2938	0.1915	0.0062
318.15	0.2893	0.1948	0.0061
318.15	0.2882	0.1966	0.0062
318.15	0.2849	0.1978	0.0065
318.15	0.2818	0.2004	0.0062
318.15	0.2777	0.2037	0.0064
318.15	0.2742	0.2058	0.0068
318.15	0.2701	0.208	0.0066
318.15	0.2629	0.2126	0.0067
318.15	0.2559	0.2172	0.0068
318.15	0.2542	0.2173	0.0068
318.15	0.2504	0.2212	0.0073
318.15	0.2455	0.2256	0.0071
318.15	0.2392	0.2294	0.0073
318.15	0.2331	0.2338	0.0074
318.15	0.2287	0.2384	0.0077
318.15	0.2269	0.2405	0.0078
318.15	0.2185	0.2475	0.0078
318.15	0.2148	0.2484	0.0078
318.15	0.2076	0.2527	0.0079
318.15	0.2049	0.256	0.0079
318.15	0.2021	0.2572	0.0083
318.15	0.1971	0.2614	0.0081
318.15	0.1943	0.2633	0.0082
318.15	0.1916	0.2659	0.009
318.15	0.1875	0.2713	0.0084
318.15	0.1848	0.2715	0.0085
318.15	0.1789	0.2763	0.0091
318.15	0.1759	0.2809	0.0087
318.15	0.1724	0.2817	0.0088
318.15	0.1685	0.2857	0.0092
318.15	0.1622	0.2913	0.0091
318.15	0.1597	0.2941	0.0098
318.15	0.1558	0.2969	0.0098
318.15	0.1515	0.3015	0.0095
318.15	0.1467	0.309	0.0099
318.15	0.1415	0.3144	0.01
318.15	0.132	0.322	0.0104
318.15	0.1294	0.3261	0.0101
318.15	0.1201	0.3338	0.0104
318.15	0.1176	0.3381	0.0109
318.15	0.1105	0.3448	0.0112
318.15	0.1071	0.3498	0.0108
318.15	0.1006	0.3543	0.0112
318.15	0.0963	0.3596	0.0118
318.15	0.0918	0.3645	0.0113
318.15	0.0848	0.3727	0.0117
318.15	0.0803	0.3805	0.0121
318.15	0.0732	0.3876	0.0123
328.15	0.7577	0.008	0.002
328.15	0.7196	0.0134	0.0021
328.15	0.6663	0.0211	0.0021
328.15	0.635	0.0267	0.0022
328.15	0.6159	0.0329	0.0023
328.15	0.59	0.0391	0.0024
328.15	0.5667	0.0472	0.0025
328.15	0.5521	0.0516	0.0026
328.15	0.5326	0.0596	0.0027
328.15	0.5129	0.0678	0.0029
328.15	0.4941	0.0761	0.003
328.15	0.4832	0.0794	0.0031
328.15	0.4684	0.0854	0.0033
328.15	0.4526	0.0925	0.0034
328.15	0.4326	0.1028	0.0037
328.15	0.4142	0.1127	0.0039
328.15	0.3972	0.122	0.0041
328.15	0.3815	0.1305	0.0044
328.15	0.3613	0.1425	0.0047
328.15	0.3407	0.1555	0.005
328.15	0.3222	0.167	0.0055
328.15	0.3185	0.1705	0.0055
328.15	0.3154	0.1727	0.0055
328.15	0.3118	0.1751	0.0056
328.15	0.3081	0.1777	0.0057
328.15	0.3046	0.1801	0.0057
328.15	0.3011	0.1822	0.0058
328.15	0.3004	0.183	0.0058
328.15	0.2981	0.1846	0.0059
328.15	0.2939	0.1875	0.006
328.15	0.2897	0.1905	0.006
328.15	0.2862	0.1909	0.0061
328.15	0.2854	0.1936	0.0062
328.15	0.2809	0.1968	0.0063
328.15	0.2772	0.1994	0.0063
328.15	0.2756	0.2009	0.0064
328.15	0.2725	0.2028	0.0064
328.15	0.2675	0.2065	0.0066
328.15	0.2628	0.2099	0.0066
328.15	0.2597	0.2101	0.0067
328.15	0.258	0.2134	0.0068
328.15	0.2541	0.2163	0.0069
328.15	0.2499	0.2194	0.007
328.15	0.2479	0.2197	0.007
328.15	0.2453	0.2229	0.0071
328.15	0.2401	0.2268	0.0072
328.15	0.238	0.2279	0.0072
328.15	0.235	0.2306	0.0073
328.15	0.23	0.2345	0.0075
328.15	0.2275	0.2371	0.0075
328.15	0.2243	0.2388	0.0075
328.15	0.219	0.243	0.0077
328.15	0.2164	0.2449	0.0077
328.15	0.2051	0.2511	0.0079
328.15	0.1991	0.2555	0.0081
328.15	0.1959	0.2603	0.0084
328.15	0.1936	0.2615	0.0082
328.15	0.1874	0.2659	0.0085
328.15	0.1832	0.2715	0.0086
328.15	0.1828	0.272	0.0086
328.15	0.1719	0.2805	0.0088
328.15	0.1681	0.2843	0.0089
328.15	0.1612	0.2877	0.009
328.15	0.1567	0.2921	0.0092
328.15	0.1484	0.2984	0.0094
328.15	0.1442	0.3024	0.0096
328.15	0.1401	0.3065	0.0097
328.15	0.1357	0.3109	0.01
328.15	0.1321	0.3169	0.0101
328.15	0.1272	0.3216	0.0102
328.15	0.1219	0.3268	0.0103
328.15	0.1167	0.3321	0.0106
328.15	0.1124	0.3396	0.0107
328.15	0.1032	0.3469	0.0109
328.15	0.0972	0.3527	0.0112
328.15	0.0952	0.3562	0.0113
328.15	0.0905	0.3626	0.0115
328.15	0.0848	0.3685	0.0117
328.15	0.076	0.3806	0.0121
328.15	0.0717	0.387	0.0122
328.15	0.066	0.3923	0.0123

System: water + sodium sulfate + 1-butylpyridinium nitrate; phases: Liquid mixture 1, Liquid mixture 2
Fixed: Pressure, kPa = 100
Property: Mass fraction of sodium sulfate (Liquid mixture 1); method: Titration method
Temperature, K	Mass fraction of 1-butylpyridinium nitrate	Mass fraction of sodium sulfate	uncertainty
298.15	0.5834	0.0113	0.0021
298.15	0.5786	0.0119	0.0021
298.15	0.562	0.0142	0.0021
298.15	0.5366	0.0183	0.0021
298.15	0.5124	0.0229	0.0022
298.15	0.4696	0.0328	0.0023
298.15	0.4675	0.0334	0.0023
298.15	0.4637	0.0344	0.0023
298.15	0.4559	0.0366	0.0023
298.15	0.4525	0.0376	0.0023
298.15	0.45	0.0383	0.0023
298.15	0.4479	0.0389	0.0024
298.15	0.4464	0.0393	0.0024
298.15	0.4436	0.0402	0.0024
298.15	0.4421	0.0407	0.0024
298.15	0.4385	0.0417	0.0024
298.15	0.416	0.0492	0.0025
298.15	0.4124	0.0504	0.0026
298.15	0.4099	0.0513	0.0026
298.15	0.4074	0.0522	0.0026
298.15	0.4049	0.0531	0.0026
298.15	0.4022	0.0541	0.0026
298.15	0.3981	0.0556	0.0027
298.15	0.3958	0.0565	0.0026
298.15	0.3941	0.0572	0.0026
298.15	0.3866	0.0586	0.0026
298.15	0.3856	0.059	0.0027
298.15	0.384	0.0595	0.0027
298.15	0.3828	0.06	0.0027
298.15	0.3821	0.0607	0.0028
298.15	0.3779	0.062	0.0027
298.15	0.3753	0.0625	0.0027
298.15	0.374	0.0629	0.0027
298.15	0.3726	0.0634	0.0028
298.15	0.3706	0.064	0.0028
298.15	0.37	0.0644	0.0028
298.15	0.3694	0.0647	0.0028
298.15	0.3676	0.0652	0.0028
298.15	0.3665	0.0657	0.0028
298.15	0.3651	0.0662	0.0029
298.15	0.3637	0.0667	0.0029
298.15	0.3623	0.0673	0.0029
298.15	0.3608	0.0678	0.0029
298.15	0.3593	0.0684	0.0029
298.15	0.358	0.0689	0.0029
298.15	0.3561	0.0695	0.0029
298.15	0.3554	0.0699	0.0029
298.15	0.3545	0.0703	0.0029
298.15	0.353	0.0709	0.0029
298.15	0.3515	0.0715	0.0029
298.15	0.3497	0.0722	0.0029
298.15	0.3471	0.0729	0.003
298.15	0.3464	0.0734	0.003
298.15	0.3456	0.0739	0.003
298.15	0.3447	0.0744	0.003
298.15	0.3439	0.075	0.003
298.15	0.3409	0.0758	0.003
298.15	0.3392	0.0765	0.003
298.15	0.3384	0.077	0.0031
298.15	0.3366	0.0777	0.0031
298.15	0.3355	0.0783	0.0031
298.15	0.3347	0.0788	0.0031
298.15	0.3329	0.0796	0.0031
298.15	0.3309	0.0804	0.0032
298.15	0.3289	0.0811	0.0032
298.15	0.3279	0.0817	0.0032
298.15	0.326	0.0825	0.0033
298.15	0.3217	0.0851	0.0033
298.15	0.3196	0.086	0.0033
298.15	0.3184	0.0866	0.0033
298.15	0.3162	0.0875	0.0033
298.15	0.315	0.0882	0.0033
298.15	0.3126	0.0892	0.0034
298.15	0.3113	0.0899	0.0034
298.15	0.3102	0.0906	0.0034
298.15	0.3079	0.0916	0.0034
298.15	0.3065	0.0924	0.0035
298.15	0.3051	0.0931	0.0035
298.15	0.3038	0.0939	0.0035
298.15	0.3025	0.0947	0.0035
298.15	0.3	0.0958	0.0035
298.15	0.2988	0.0966	0.0036
298.15	0.2973	0.0974	0.0036
298.15	0.2959	0.0983	0.0036
298.15	0.2944	0.0992	0.0037
298.15	0.2929	0.1001	0.0037
298.15	0.2915	0.101	0.0037
298.15	0.2899	0.102	0.0037
298.15	0.2883	0.1029	0.0037
298.15	0.2865	0.1039	0.0037
298.15	0.2849	0.1049	0.0037
298.15	0.2817	0.1062	0.0037
298.15	0.2799	0.1072	0.0037
298.15	0.2765	0.1085	0.0038
298.15	0.2745	0.1097	0.0038
298.15	0.2716	0.1111	0.0039
298.15	0.2702	0.1121	0.0039
298.15	0.2677	0.1133	0.0039
298.15	0.2658	0.1145	0.004
298.15	0.2638	0.1157	0.004
298.15	0.2617	0.117	0.004
298.15	0.2596	0.1182	0.0041
298.15	0.2575	0.1195	0.0041
298.15	0.2553	0.1208	0.0041
298.15	0.253	0.1221	0.0042
298.15	0.2508	0.1235	0.0042
298.15	0.2494	0.1255	0.0043
298.15	0.2451	0.1274	0.0042
298.15	0.2425	0.129	0.0043
298.15	0.2398	0.1305	0.0044
298.15	0.2378	0.132	0.0044
298.15	0.2349	0.1335	0.0044
298.15	0.2317	0.1351	0.0045
298.15	0.2306	0.1361	0.0045
298.15	0.2278	0.138	0.0046
298.15	0.2249	0.1397	0.0046
298.15	0.222	0.1415	0.0046
298.15	0.2188	0.1433	0.0047
298.15	0.2157	0.1452	0.0048
298.15	0.2148	0.1466	0.0048
298.15	0.2115	0.1486	0.0048
298.15	0.2083	0.1508	0.0049
298.15	0.205	0.1528	0.0049
298.15	0.2012	0.1549	0.005
298.15	0.1978	0.157	0.005
298.15	0.194	0.1592	0.0051
298.15	0.1927	0.161	0.0052
298.15	0.1887	0.1634	0.0052
298.15	0.1849	0.1657	0.0053
298.15	0.1809	0.1683	0.0054
298.15	0.1769	0.1709	0.0055
308.15	0.4603	0.0435	0.0025
308.15	0.4419	0.0484	0.0025
308.15	0.4213	0.054	0.0026
308.15	0.4099	0.0576	0.0027
308.15	0.3952	0.0632	0.0028
308.15	0.3859	0.0662	0.0028
308.15	0.376	0.0695	0.0029
308.15	0.3649	0.0755	0.003
308.15	0.352	0.0797	0.0031
308.15	0.3387	0.0847	0.0032
308.15	0.3314	0.0884	0.0034
308.15	0.321	0.0938	0.0034
308.15	0.3093	0.0973	0.0035
308.15	0.306	0.0989	0.0036
308.15	0.306	0.0994	0.0036
308.15	0.3046	0.1001	0.0036
308.15	0.3014	0.1016	0.0036
308.15	0.2978	0.1033	0.0037
308.15	0.2957	0.1046	0.0037
308.15	0.2939	0.1057	0.0037
308.15	0.2922	0.1064	0.0037
308.15	0.2902	0.1077	0.0038
308.15	0.2861	0.1096	0.0038
308.15	0.2837	0.1109	0.0039
308.15	0.2815	0.1124	0.0039
308.15	0.2806	0.1137	0.004
308.15	0.2789	0.1139	0.0039
308.15	0.2766	0.1155	0.004
308.15	0.2723	0.1177	0.0041
308.15	0.2697	0.1194	0.0041
308.15	0.2652	0.1216	0.0042
308.15	0.2625	0.1234	0.0041
308.15	0.2576	0.1257	0.0042
308.15	0.2547	0.1276	0.0043
308.15	0.2534	0.129	0.0044
308.15	0.2513	0.1297	0.0043
308.15	0.2479	0.1318	0.0043
308.15	0.2445	0.134	0.0045
308.15	0.2374	0.1385	0.0046
308.15	0.2355	0.1392	0.0046
308.15	0.2338	0.1409	0.0046
308.15	0.2319	0.1414	0.0046
308.15	0.2303	0.1432	0.0047
308.15	0.2252	0.1461	0.0047
308.15	0.2188	0.1493	0.0049
308.15	0.2165	0.1501	0.0048
308.15	0.2146	0.152	0.0049
308.15	0.2094	0.155	0.005
308.15	0.2047	0.1579	0.005
308.15	0.1997	0.161	0.0051
308.15	0.1978	0.1633	0.0053
308.15	0.1902	0.1673	0.0054
308.15	0.1842	0.1708	0.0055
308.15	0.1821	0.1733	0.0057
308.15	0.1765	0.177	0.0056
308.15	0.1707	0.181	0.0057
308.15	0.1644	0.1848	0.0058
308.15	0.158	0.189	0.0059
308.15	0.1553	0.1922	0.006
308.15	0.1483	0.1968	0.0062
308.15	0.1416	0.2012	0.0063
308.15	0.1339	0.2063	0.0065
308.15	0.1259	0.2115	0.0067
308.15	0.1226	0.2154	0.0069
308.15	0.1142	0.2213	0.007
308.15	0.108	0.2257	0.0072
308.15	0.1019	0.2321	0.0075
308.15	0.0977	0.2364	0.0077
308.15	0.0946	0.2402	0.0079
308.15	0.0912	0.2453	0.0081
308.15	0.0875	0.2504	0.0082
308.15	0.0822	0.2566	0.0082
308.15	0.076	0.263	0.0085
308.15	0.0715	0.2687	0.0087
318.15	0.5715	0.0159	0.0021
318.15	0.544	0.0207	0.0021
318.15	0.518	0.0264	0.0022
318.15	0.4961	0.0314	0.0023
318.15	0.459	0.0445	0.0025
318.15	0.4447	0.0492	0.0025
318.15	0.431	0.0534	0.0026
318.15	0.4148	0.0597	0.0027
318.15	0.4013	0.0644	0.0028
318.15	0.3868	0.07	0.0029
318.15	0.3729	0.0753	0.003
318.15	0.3594	0.0808	0.003
318.15	0.3567	0.0827	0.0034
318.15	0.3536	0.0844	0.0032
318.15	0.3518	0.0851	0.0032
318.15	0.3473	0.0867	0.0033
318.15	0.3467	0.0885	0.0034
318.15	0.3421	0.0902	0.0033
318.15	0.3392	0.0904	0.0034
318.15	0.3372	0.0916	0.0034
318.15	0.3349	0.0934	0.0035
318.15	0.3318	0.0949	0.0035
318.15	0.3286	0.0964	0.0035
318.15	0.3253	0.0981	0.0035
318.15	0.3218	0.0987	0.0036
318.15	0.3211	0.1005	0.0037
318.15	0.3176	0.1022	0.0037
318.15	0.3124	0.1044	0.0037
318.15	0.3104	0.1059	0.0037
318.15	0.3064	0.1079	0.0037
318.15	0.3042	0.1085	0.0039
318.15	0.3022	0.1098	0.0039
318.15	0.2983	0.1119	0.004
318.15	0.2958	0.1136	0.0041
318.15	0.2914	0.1158	0.0041
318.15	0.2871	0.1181	0.0041
318.15	0.284	0.1181	0.0041
318.15	0.2825	0.1205	0.0042
318.15	0.2798	0.1224	0.0042
318.15	0.2747	0.125	0.0043
318.15	0.2728	0.1259	0.0042
318.15	0.2717	0.1271	0.0043
318.15	0.2684	0.1292	0.0043
318.15	0.263	0.132	0.0044
318.15	0.2575	0.135	0.0045
318.15	0.2542	0.1374	0.0045
318.15	0.2508	0.1397	0.0046
318.15	0.2444	0.143	0.0047
318.15	0.2408	0.1457	0.0048
318.15	0.2369	0.1483	0.0048
318.15	0.233	0.1513	0.005
318.15	0.2288	0.1542	0.005
318.15	0.2244	0.1572	0.005
318.15	0.2155	0.1617	0.0051
318.15	0.2108	0.1651	0.0053
318.15	0.2056	0.1687	0.0054
318.15	0.204	0.1714	0.0055
318.15	0.1934	0.1768	0.0056
318.15	0.1872	0.1809	0.0057
318.15	0.1773	0.1863	0.0059
318.15	0.1707	0.1909	0.0062
318.15	0.1677	0.1945	0.0062
318.15	0.1605	0.1995	0.0063
318.15	0.153	0.2049	0.0065
318.15	0.1446	0.2105	0.0067
318.15	0.1408	0.2148	0.0068
318.15	0.1305	0.2213	0.007
318.15	0.1264	0.2262	0.0072
318.15	0.1165	0.2331	0.0074
318.15	0.1112	0.2385	0.0077
318.15	0.1061	0.2442	0.0078
318.15	0.0949	0.2522	0.008
318.15	0.0902	0.2584	0.0082
318.15	0.0845	0.2648	0.0083
328.15	0.7839	0.0024	0.002
328.15	0.7323	0.0049	0.002
328.15	0.7046	0.0066	0.002
328.15	0.683	0.0089	0.002
328.15	0.6549	0.0105	0.002
328.15	0.6432	0.0119	0.002
328.15	0.6213	0.0138	0.0021
328.15	0.5968	0.0171	0.0021
328.15	0.5721	0.0204	0.0021
328.15	0.5584	0.0229	0.0021
328.15	0.5475	0.0249	0.0022
328.15	0.5327	0.0297	0.0022
328.15	0.488	0.0399	0.0024
328.15	0.4645	0.0484	0.0025
328.15	0.4522	0.0528	0.0026
328.15	0.4334	0.0594	0.0027
328.15	0.4265	0.0616	0.0028
328.15	0.4211	0.0638	0.0028
328.15	0.4116	0.0668	0.0028
328.15	0.4043	0.0693	0.0029
328.15	0.4005	0.0707	0.003
328.15	0.3918	0.0747	0.003
328.15	0.3841	0.0774	0.0031
328.15	0.378	0.0807	0.0031
328.15	0.3676	0.0841	0.0032
328.15	0.3638	0.0872	0.0034
328.15	0.356	0.0907	0.0033
328.15	0.3475	0.0935	0.0034
328.15	0.34	0.097	0.0036
328.15	0.3377	0.0996	0.0041
328.15	0.3278	0.1028	0.0036
328.15	0.3061	0.1135	0.004
328.15	0.2416	0.1529	0.0049
328.15	0.2332	0.1569	0.005
328.15	0.2318	0.159	0.0051
328.15	0.2272	0.162	0.0053
328.15	0.2257	0.1643	0.0053
328.15	0.2206	0.1676	0.0054
328.15	0.2157	0.1711	0.0055
328.15	0.2101	0.1747	0.0056
328.15	0.2051	0.1785	0.0057
328.15	0.1992	0.1822	0.0058
328.15	0.1915	0.1867	0.0059
328.15	0.1849	0.1912	0.0061
328.15	0.1825	0.1944	0.0065
328.15	0.1799	0.1976	0.0065
328.15	0.1751	0.2025	0.0065
328.15	0.1703	0.206	0.0065
328.15	0.1628	0.2112	0.0067
328.15	0.1562	0.217	0.0069
328.15	0.1451	0.2238	0.0071
328.15	0.1412	0.2283	0.0073
328.15	0.1322	0.2349	0.0074
328.15	0.1225	0.2417	0.0077
328.15	0.1178	0.247	0.008
328.15	0.1134	0.2523	0.0082
