Measured thermophysical data. Density and Viscosity of Ternary Mixture of Cyclopentanol + exo-Tetrahydrodicyclopentadiene + 1,3-Dimethyladamantane
Source: J. Chem. Eng. Data, 2019, 10.1021/acs.jced.9b00074
Compound 1: cyclopentanol, C5H10O, InChI=1S/C5H10O/c6-5-3-1-2-4-5/h5-6H,1-4H2, purity 99%
Compound 2: exo-tetrahydrodicyclopentadiene, C10H16, InChI=1S/C10H16/c1-2-9-7-4-5-8(6-7)10(9)3-1/h7-10H,1-6H2/t7-,8+,9+,10-, purity 98%
Compound 3: 1,3-dimethyladamantane, C12H20, InChI=1S/C12H20/c1-11-4-9-3-10(5-11)7-12(2,6-9)8-11/h9-10H,3-8H2,1-2H3, purity 99%

System: cyclopentanol; phases: Liquid
Fixed: Pressure, kPa = 100
Property: Mass density, kg/m3 (Liquid); method: Vibrating tube method
Temperature, K	Mass density, kg/m3	uncertainty
293.15	947.04	0.57
298.15	943.08	0.57
303.15	939.08	0.57
308.15	935.03	0.56
313.15	930.92	0.56
318.15	926.76	0.56
323.15	922.53	0.56
328.15	918.24	0.55
333.15	913.89	0.55

System: cyclopentanol; phases: Liquid
Fixed: Pressure, kPa = 100
Property: Viscosity, Pa*s (Liquid); method: Falling or rolling sphere viscometry
Temperature, K	Viscosity, Pa*s	uncertainty
293.15	0.011725	0.000249
298.15	0.0096	0.000204
303.15	0.007891	0.000168
308.15	0.006564	0.000139
313.15	0.005509	0.000117
318.15	0.004657	9.9e-05
323.15	0.00397	8.4e-05
328.15	0.003409	7.2e-05
333.15	0.002945	6.3e-05

System: exo-tetrahydrodicyclopentadiene; phases: Liquid
Fixed: Pressure, kPa = 100
Property: Mass density, kg/m3 (Liquid); method: Vibrating tube method
Temperature, K	Mass density, kg/m3	uncertainty
293.15	935.88	0.7
298.15	932	0.69
303.15	928.08	0.69
308.15	924.16	0.69
313.15	920.24	0.68
318.15	916.31	0.68
323.15	912.38	0.68
328.15	908.44	0.68
333.15	904.5	0.67

System: exo-tetrahydrodicyclopentadiene; phases: Liquid
Fixed: Pressure, kPa = 100
Property: Viscosity, Pa*s (Liquid); method: Falling or rolling sphere viscometry
Temperature, K	Viscosity, Pa*s	uncertainty
293.15	0.003017	6.8e-05
298.15	0.002731	6.1e-05
303.15	0.002488	5.6e-05
308.15	0.002273	5.1e-05
313.15	0.002087	4.7e-05
318.15	0.001922	4.3e-05
323.15	0.001776	4e-05
328.15	0.001646	3.7e-05
333.15	0.00153	3.4e-05

System: 1,3-dimethyladamantane; phases: Liquid
Fixed: Pressure, kPa = 100
Property: Mass density, kg/m3 (Liquid); method: Vibrating tube method
Temperature, K	Mass density, kg/m3	uncertainty
293.15	901.57	0.55
298.15	898	0.54
303.15	894.43	0.54
308.15	890.86	0.54
313.15	887.29	0.54
318.15	883.71	0.54
323.15	880.13	0.53
328.15	876.55	0.53
333.15	872.96	0.53

System: 1,3-dimethyladamantane; phases: Liquid
Fixed: Pressure, kPa = 100
Property: Viscosity, Pa*s (Liquid); method: Falling or rolling sphere viscometry
Temperature, K	Viscosity, Pa*s	uncertainty
293.15	0.00375	8e-05
298.15	0.00334	7.1e-05
303.15	0.002997	6.4e-05
308.15	0.002702	5.7e-05
313.15	0.00245	5.2e-05
318.15	0.002231	4.7e-05
323.15	0.002039	4.3e-05
328.15	0.001871	4e-05
333.15	0.001722	3.7e-05

System: cyclopentanol + exo-tetrahydrodicyclopentadiene; phases: Liquid
Fixed: Pressure, kPa = 100
Property: Mass density, kg/m3 (Liquid); method: Vibrating tube method
Temperature, K	Mole fraction of cyclopentanol	Mass density, kg/m3	uncertainty
293.15	0.101	935.59	0.66
293.15	0.201	935.84	0.63
293.15	0.296	936.28	0.61
293.15	0.3962	937.08	0.59
293.15	0.5016	938.1	0.58
293.15	0.6017	939.39	0.58
293.15	0.7011	940.96	0.57
293.15	0.7968	942.64	0.57
293.15	0.9005	944.8	0.57
298.15	0.101	931.59	0.66
298.15	0.201	931.81	0.63
298.15	0.296	932.23	0.61
298.15	0.3962	932.99	0.59
298.15	0.5016	934	0.58
298.15	0.6017	935.27	0.57
298.15	0.7011	936.86	0.57
298.15	0.7968	938.57	0.57
298.15	0.9005	940.78	0.57
303.15	0.101	927.56	0.65
303.15	0.201	927.75	0.63
303.15	0.296	928.14	0.61
303.15	0.3962	928.88	0.59
303.15	0.5016	929.87	0.58
303.15	0.6017	931.12	0.57
303.15	0.7011	932.71	0.57
303.15	0.7968	934.45	0.57
303.15	0.9005	936.7	0.57
308.15	0.101	923.52	0.65
308.15	0.201	923.67	0.62
308.15	0.296	924.03	0.6
308.15	0.3962	924.74	0.59
308.15	0.5016	925.71	0.58
308.15	0.6017	926.94	0.57
308.15	0.7011	928.53	0.57
308.15	0.7968	930.28	0.56
308.15	0.9005	932.57	0.56
313.15	0.101	919.47	0.65
313.15	0.201	919.57	0.62
313.15	0.296	919.9	0.6
313.15	0.3962	920.57	0.59
313.15	0.5016	921.52	0.57
313.15	0.6017	922.73	0.57
313.15	0.7011	924.31	0.56
313.15	0.7968	926.07	0.56
313.15	0.9005	928.4	0.56
318.15	0.101	915.4	0.65
318.15	0.201	915.45	0.62
318.15	0.296	915.74	0.6
318.15	0.3962	916.37	0.58
318.15	0.5016	917.29	0.57
318.15	0.6017	918.48	0.56
318.15	0.7011	920.05	0.56
318.15	0.7968	921.82	0.56
318.15	0.9005	924.18	0.56
323.15	0.101	911.31	0.64
323.15	0.201	911.3	0.62
323.15	0.296	911.55	0.6
323.15	0.3962	912.15	0.58
323.15	0.5016	913.03	0.57
323.15	0.6017	914.19	0.56
323.15	0.7011	915.74	0.56
323.15	0.7968	917.51	0.56
323.15	0.9005	919.9	0.56
328.15	0.101	907.2	0.64
328.15	0.201	907.12	0.61
328.15	0.296	907.33	0.59
328.15	0.3962	907.88	0.58
328.15	0.5016	908.73	0.57
328.15	0.6017	909.87	0.56
328.15	0.7011	911.39	0.56
328.15	0.7968	913.16	0.55
328.15	0.9005	915.56	0.55
333.15	0.101	903.08	0.64
333.15	0.201	902.92	0.61
333.15	0.296	903.08	0.59
333.15	0.3962	903.59	0.58
333.15	0.5016	904.4	0.56
333.15	0.6017	905.5	0.56
333.15	0.7011	907	0.55
333.15	0.7968	908.75	0.55
333.15	0.9005	911.17	0.55

System: cyclopentanol + exo-tetrahydrodicyclopentadiene; phases: Liquid
Fixed: Pressure, kPa = 100
Property: Viscosity, Pa*s (Liquid); method: Falling or rolling sphere viscometry
Temperature, K	Mole fraction of cyclopentanol	Viscosity, Pa*s	uncertainty
293.15	0.101	0.003091	6.9e-05
293.15	0.201	0.00326	7.2e-05
293.15	0.296	0.003471	7.6e-05
293.15	0.3962	0.003794	8.3e-05
293.15	0.5016	0.004304	9.3e-05
293.15	0.6017	0.005009	0.000108
293.15	0.7011	0.005976	0.000128
293.15	0.7968	0.00724	0.000154
293.15	0.9005	0.009125	0.000194
298.15	0.101	0.002829	6.3e-05
298.15	0.201	0.002917	6.4e-05
298.15	0.296	0.003093	6.8e-05
298.15	0.3962	0.003355	7.3e-05
298.15	0.5016	0.003762	8.1e-05
298.15	0.6017	0.00432	9.3e-05
298.15	0.7011	0.005083	0.000109
298.15	0.7968	0.006076	0.00013
298.15	0.9005	0.007555	0.000161
303.15	0.101	0.002564	5.7e-05
303.15	0.201	0.002623	5.8e-05
303.15	0.296	0.002774	6.1e-05
303.15	0.3962	0.002987	6.5e-05
303.15	0.5016	0.003316	7.2e-05
303.15	0.6017	0.003761	8.1e-05
303.15	0.7011	0.004367	9.3e-05
303.15	0.7968	0.005154	0.00011
303.15	0.9005	0.006316	0.000134
308.15	0.101	0.002329	5.2e-05
308.15	0.201	0.002376	5.2e-05
308.15	0.296	0.002499	5.5e-05
308.15	0.3962	0.002674	5.8e-05
308.15	0.5016	0.002941	6.4e-05
308.15	0.6017	0.003298	7.1e-05
308.15	0.7011	0.00378	8.1e-05
308.15	0.7968	0.004407	9.4e-05
308.15	0.9005	0.005324	0.000113
313.15	0.101	0.002122	4.7e-05
313.15	0.201	0.002156	4.8e-05
313.15	0.296	0.002261	5e-05
313.15	0.3962	0.002404	5.2e-05
313.15	0.5016	0.00262	5.7e-05
313.15	0.6017	0.002908	6.2e-05
313.15	0.7011	0.003296	7.1e-05
313.15	0.7968	0.003796	8.1e-05
313.15	0.9005	0.004527	9.6e-05
318.15	0.101	0.00194	4.3e-05
318.15	0.201	0.001965	4.3e-05
318.15	0.296	0.002053	4.5e-05
318.15	0.3962	0.002171	4.7e-05
318.15	0.5016	0.002348	5.1e-05
318.15	0.6017	0.00258	5.5e-05
318.15	0.7011	0.002893	6.2e-05
318.15	0.7968	0.003293	7e-05
318.15	0.9005	0.003878	8.2e-05
323.15	0.101	0.001779	4e-05
323.15	0.201	0.001799	4e-05
323.15	0.296	0.001871	4.1e-05
323.15	0.3962	0.001968	4.3e-05
323.15	0.5016	0.002112	4.6e-05
323.15	0.6017	0.002302	4.9e-05
323.15	0.7011	0.002554	5.5e-05
323.15	0.7968	0.002876	6.1e-05
323.15	0.9005	0.003346	7.1e-05
328.15	0.101	0.001639	3.7e-05
328.15	0.201	0.00165	3.6e-05
328.15	0.296	0.001711	3.7e-05
328.15	0.3962	0.001791	3.9e-05
328.15	0.5016	0.001908	4.1e-05
328.15	0.6017	0.002063	4.4e-05
328.15	0.7011	0.002268	4.9e-05
328.15	0.7968	0.002527	5.4e-05
328.15	0.9005	0.002906	6.2e-05
333.15	0.101	0.001514	3.4e-05
333.15	0.201	0.001521	3.4e-05
333.15	0.296	0.001569	3.4e-05
333.15	0.3962	0.001635	3.6e-05
333.15	0.5016	0.001732	3.7e-05
333.15	0.6017	0.001858	4e-05
333.15	0.7011	0.002023	4.3e-05
333.15	0.7968	0.002233	4.8e-05
333.15	0.9005	0.00254	5.4e-05

System: cyclopentanol + 1,3-dimethyladamantane; phases: Liquid
Fixed: Pressure, kPa = 100
Property: Mass density, kg/m3 (Liquid); method: Vibrating tube method
Temperature, K	Mole fraction of cyclopentanol	Mass density, kg/m3	uncertainty
293.15	0.0963	903.9	0.55
293.15	0.1973	906.97	0.55
293.15	0.3101	910.8	0.55
293.15	0.4019	914.34	0.55
293.15	0.4995	918.49	0.55
293.15	0.5999	923.27	0.56
293.15	0.6997	928.58	0.56
293.15	0.7976	934.17	0.56
293.15	0.9003	940.6	0.57
298.15	0.0963	900.22	0.54
298.15	0.1973	903.23	0.55
298.15	0.3101	907	0.55
298.15	0.4019	910.49	0.55
298.15	0.4995	914.58	0.55
298.15	0.5999	919.31	0.56
298.15	0.6997	924.57	0.56
298.15	0.7976	930.15	0.56
298.15	0.9003	936.59	0.57
303.15	0.0963	896.53	0.54
303.15	0.1973	899.47	0.54
303.15	0.3101	903.18	0.55
303.15	0.4019	906.62	0.55
303.15	0.4995	910.65	0.55
303.15	0.5999	915.31	0.55
303.15	0.6997	920.53	0.56
303.15	0.7976	926.1	0.56
303.15	0.9003	932.59	0.56
308.15	0.0963	892.84	0.54
308.15	0.1973	895.7	0.54
308.15	0.3101	899.33	0.54
308.15	0.4019	902.72	0.55
308.15	0.4995	906.7	0.55
308.15	0.5999	911.29	0.55
308.15	0.6997	916.45	0.55
308.15	0.7976	922.01	0.56
308.15	0.9003	928.43	0.56
313.15	0.0963	889.12	0.54
313.15	0.1973	891.91	0.54
313.15	0.3101	895.47	0.54
313.15	0.4019	898.8	0.54
313.15	0.4995	902.71	0.55
313.15	0.5999	907.24	0.55
313.15	0.6997	912.35	0.55
313.15	0.7976	917.88	0.55
313.15	0.9003	924.29	0.56
318.15	0.0963	885.4	0.54
318.15	0.1973	888.1	0.54
318.15	0.3101	891.59	0.54
318.15	0.4019	894.85	0.54
318.15	0.4995	898.7	0.54
318.15	0.5999	903.16	0.55
318.15	0.6997	908.21	0.55
318.15	0.7976	913.7	0.55
318.15	0.9003	920.09	0.56
323.15	0.0963	881.66	0.53
323.15	0.1973	884.27	0.54
323.15	0.3101	887.67	0.54
323.15	0.4019	890.88	0.54
323.15	0.4995	894.66	0.54
323.15	0.5999	899.04	0.54
323.15	0.6997	904.03	0.55
323.15	0.7976	909.47	0.55
323.15	0.9003	915.84	0.55
328.15	0.0963	877.91	0.53
328.15	0.1973	880.42	0.53
328.15	0.3101	883.74	0.54
328.15	0.4019	886.87	0.54
328.15	0.4995	890.58	0.54
328.15	0.5999	894.89	0.54
328.15	0.6997	899.81	0.54
328.15	0.7976	905.2	0.55
328.15	0.9003	911.54	0.55
333.15	0.0963	874.14	0.53
333.15	0.1973	876.55	0.53
333.15	0.3101	879.77	0.53
333.15	0.4019	882.83	0.54
333.15	0.4995	886.46	0.54
333.15	0.5999	890.7	0.54
333.15	0.6997	895.55	0.54
333.15	0.7976	900.88	0.55
333.15	0.9003	907.18	0.55

System: cyclopentanol + 1,3-dimethyladamantane; phases: Liquid
Fixed: Pressure, kPa = 100
Property: Viscosity, Pa*s (Liquid); method: Falling or rolling sphere viscometry
Temperature, K	Mole fraction of cyclopentanol	Viscosity, Pa*s	uncertainty
293.15	0.0963	0.003868	8.2e-05
293.15	0.1973	0.004123	8.8e-05
293.15	0.3101	0.004531	9.6e-05
293.15	0.4019	0.004967	0.000106
293.15	0.4995	0.00561	0.000119
293.15	0.5999	0.006396	0.000136
293.15	0.6997	0.00757	0.000161
293.15	0.7976	0.008863	0.000188
293.15	0.9003	0.010324	0.000219
298.15	0.0963	0.00342	7.3e-05
298.15	0.1973	0.003627	7.7e-05
298.15	0.3101	0.003953	8.4e-05
298.15	0.4019	0.0043	9.1e-05
298.15	0.4995	0.004805	0.000102
298.15	0.5999	0.005428	0.000115
298.15	0.6997	0.006304	0.000134
298.15	0.7976	0.0073	0.000155
298.15	0.9003	0.008417	0.000179
303.15	0.0963	0.003048	6.5e-05
303.15	0.1973	0.003212	6.8e-05
303.15	0.3101	0.003477	7.4e-05
303.15	0.4019	0.003756	8e-05
303.15	0.4995	0.004154	8.8e-05
303.15	0.5999	0.004643	9.9e-05
303.15	0.6997	0.005319	0.000113
303.15	0.7976	0.006092	0.000129
303.15	0.9003	0.006972	0.000148
308.15	0.0963	0.002729	5.8e-05
308.15	0.1973	0.002863	6.1e-05
308.15	0.3101	0.003076	6.5e-05
308.15	0.4019	0.003302	7e-05
308.15	0.4995	0.003618	7.7e-05
308.15	0.5999	0.004007	8.5e-05
308.15	0.6997	0.004532	9.6e-05
308.15	0.7976	0.005135	0.000109
308.15	0.9003	0.005829	0.000124
313.15	0.0963	0.002457	5.2e-05
313.15	0.1973	0.002565	5.5e-05
313.15	0.3101	0.002736	5.8e-05
313.15	0.4019	0.002919	6.2e-05
313.15	0.4995	0.003174	6.7e-05
313.15	0.5999	0.003484	7.4e-05
313.15	0.6997	0.003891	8.3e-05
313.15	0.7976	0.004365	9.3e-05
313.15	0.9003	0.004915	0.000104
318.15	0.0963	0.002222	4.7e-05
318.15	0.1973	0.002307	4.9e-05
318.15	0.3101	0.002447	5.2e-05
318.15	0.4019	0.002595	5.5e-05
318.15	0.4995	0.002801	6e-05
318.15	0.5999	0.003048	6.5e-05
318.15	0.6997	0.003368	7.2e-05
318.15	0.7976	0.003742	7.9e-05
318.15	0.9003	0.004179	8.9e-05
323.15	0.0963	0.002018	4.3e-05
323.15	0.1973	0.002083	4.4e-05
323.15	0.3101	0.002199	4.7e-05
323.15	0.4019	0.00232	4.9e-05
323.15	0.4995	0.002485	5.3e-05
323.15	0.5999	0.002681	5.7e-05
323.15	0.6997	0.002935	6.2e-05
323.15	0.7976	0.003234	6.9e-05
323.15	0.9003	0.003582	7.6e-05
328.15	0.0963	0.001841	3.9e-05
328.15	0.1973	0.001893	4e-05
328.15	0.3101	0.001984	4.2e-05
328.15	0.4019	0.002082	4.4e-05
328.15	0.4995	0.002217	4.7e-05
328.15	0.5999	0.002376	5e-05
328.15	0.6997	0.002576	5.5e-05
328.15	0.7976	0.002814	6e-05
328.15	0.9003	0.003093	6.6e-05
333.15	0.0963	0.001686	3.6e-05
333.15	0.1973	0.001724	3.7e-05
333.15	0.3101	0.001797	3.8e-05
333.15	0.4019	0.001877	4e-05
333.15	0.4995	0.001987	4.2e-05
333.15	0.5999	0.002116	4.5e-05
333.15	0.6997	0.002275	4.8e-05
333.15	0.7976	0.002469	5.2e-05
333.15	0.9003	0.002689	5.7e-05

System: exo-tetrahydrodicyclopentadiene + 1,3-dimethyladamantane; phases: Liquid
Fixed: Pressure, kPa = 100
Property: Mass density, kg/m3 (Liquid); method: Vibrating tube method
Temperature, K	Mole fraction of exo-tetrahydrodicyclopentadiene	Mass density, kg/m3	uncertainty
293.15	0.0998	905.2	0.55
293.15	0.2023	908.96	0.55
293.15	0.2984	912.36	0.56
293.15	0.3996	915.9	0.57
293.15	0.4998	919.37	0.58
293.15	0.5973	922.65	0.59
293.15	0.7005	926.17	0.61
293.15	0.8026	929.43	0.63
293.15	0.9	932.64	0.66
298.15	0.0998	901.59	0.55
298.15	0.2023	905.3	0.55
298.15	0.2984	908.68	0.56
298.15	0.3996	912.18	0.56
298.15	0.4998	915.61	0.57
298.15	0.5973	918.86	0.59
298.15	0.7005	922.34	0.61
298.15	0.8026	925.59	0.63
298.15	0.9	928.76	0.66
303.15	0.0998	897.97	0.55
303.15	0.2023	901.64	0.55
303.15	0.2984	904.99	0.55
303.15	0.3996	908.45	0.56
303.15	0.4998	911.85	0.57
303.15	0.5973	915.06	0.59
303.15	0.7005	918.51	0.6
303.15	0.8026	921.77	0.63
303.15	0.9	924.88	0.65
308.15	0.0998	894.36	0.54
308.15	0.2023	897.98	0.55
308.15	0.2984	901.29	0.55
308.15	0.3996	904.71	0.56
308.15	0.4998	908.08	0.57
308.15	0.5973	911.26	0.58
308.15	0.7005	914.67	0.6
308.15	0.8026	917.91	0.62
308.15	0.9	921	0.65
313.15	0.0998	890.74	0.54
313.15	0.2023	894.32	0.55
313.15	0.2984	897.59	0.55
313.15	0.3996	900.98	0.56
313.15	0.4998	904.31	0.57
313.15	0.5973	907.45	0.58
313.15	0.7005	910.84	0.6
313.15	0.8026	914.04	0.62
313.15	0.9	917.12	0.65
318.15	0.0998	887.12	0.54
318.15	0.2023	890.65	0.54
318.15	0.2984	893.89	0.55
318.15	0.3996	897.24	0.56
318.15	0.4998	900.53	0.57
318.15	0.5973	903.65	0.58
318.15	0.7005	906.99	0.6
318.15	0.8026	910.17	0.62
318.15	0.9	913.23	0.65
323.15	0.0998	883.5	0.54
323.15	0.2023	886.99	0.54
323.15	0.2984	890.18	0.55
323.15	0.3996	893.49	0.55
323.15	0.4998	896.75	0.56
323.15	0.5973	899.83	0.58
323.15	0.7005	903.15	0.59
323.15	0.8026	906.3	0.62
323.15	0.9	909.33	0.64
328.15	0.0998	879.87	0.54
328.15	0.2023	883.31	0.54
328.15	0.2984	886.47	0.55
328.15	0.3996	889.74	0.55
328.15	0.4998	892.97	0.56
328.15	0.5973	896.02	0.58
328.15	0.7005	899.3	0.59
328.15	0.8026	902.43	0.62
328.15	0.9	905.43	0.64
333.15	0.0998	876.23	0.53
333.15	0.2023	879.65	0.54
333.15	0.2984	882.76	0.54
333.15	0.3996	885.99	0.55
333.15	0.4998	889.18	0.56
333.15	0.5973	892.2	0.57
333.15	0.7005	895.45	0.59
333.15	0.8026	898.54	0.61
333.15	0.9	901.52	0.64

System: exo-tetrahydrodicyclopentadiene + 1,3-dimethyladamantane; phases: Liquid
Fixed: Pressure, kPa = 100
Property: Viscosity, Pa*s (Liquid); method: Falling or rolling sphere viscometry
Temperature, K	Mole fraction of exo-tetrahydrodicyclopentadiene	Viscosity, Pa*s	uncertainty
293.15	0.0998	0.003715	7.9e-05
293.15	0.2023	0.00367	7.8e-05
293.15	0.2984	0.003623	7.8e-05
293.15	0.3996	0.003555	7.7e-05
293.15	0.4998	0.003474	7.5e-05
293.15	0.5973	0.003388	7.4e-05
293.15	0.7005	0.003293	7.2e-05
293.15	0.8026	0.0032	7.1e-05
293.15	0.9	0.003114	6.9e-05
298.15	0.0998	0.003316	7.1e-05
298.15	0.2023	0.003277	7e-05
298.15	0.2984	0.003238	6.9e-05
298.15	0.3996	0.003181	6.8e-05
298.15	0.4998	0.003116	6.7e-05
298.15	0.5973	0.003045	6.6e-05
298.15	0.7005	0.002965	6.5e-05
298.15	0.8026	0.002885	6.4e-05
298.15	0.9	0.002814	6.3e-05
303.15	0.0998	0.002977	6.3e-05
303.15	0.2023	0.002947	6.3e-05
303.15	0.2984	0.002915	6.2e-05
303.15	0.3996	0.002867	6.2e-05
303.15	0.4998	0.00281	6.1e-05
303.15	0.5973	0.00275	6e-05
303.15	0.7005	0.00268	5.9e-05
303.15	0.8026	0.002618	5.8e-05
303.15	0.9	0.002555	5.7e-05
308.15	0.0998	0.002687	5.7e-05
308.15	0.2023	0.002666	5.7e-05
308.15	0.2984	0.002637	5.7e-05
308.15	0.3996	0.002601	5.6e-05
308.15	0.4998	0.002547	5.5e-05
308.15	0.5973	0.002495	5.4e-05
308.15	0.7005	0.002438	5.3e-05
308.15	0.8026	0.002385	5.3e-05
308.15	0.9	0.002332	5.2e-05
313.15	0.0998	0.00244	5.2e-05
313.15	0.2023	0.002422	5.2e-05
313.15	0.2984	0.002394	5.1e-05
313.15	0.3996	0.002363	5.1e-05
313.15	0.4998	0.002319	5e-05
313.15	0.5973	0.002275	5e-05
313.15	0.7005	0.002227	4.9e-05
313.15	0.8026	0.002179	4.8e-05
313.15	0.9	0.002136	4.8e-05
318.15	0.0998	0.002222	4.7e-05
318.15	0.2023	0.002209	4.7e-05
318.15	0.2984	0.002185	4.7e-05
318.15	0.3996	0.002157	4.6e-05
318.15	0.4998	0.002121	4.6e-05
318.15	0.5973	0.002081	4.5e-05
318.15	0.7005	0.002042	4.5e-05
318.15	0.8026	0.002002	4.4e-05
318.15	0.9	0.001964	4.4e-05
323.15	0.0998	0.002032	4.3e-05
323.15	0.2023	0.00202	4.3e-05
323.15	0.2984	0.002001	4.3e-05
323.15	0.3996	0.001978	4.3e-05
323.15	0.4998	0.001946	4.2e-05
323.15	0.5973	0.001915	4.2e-05
323.15	0.7005	0.001879	4.1e-05
323.15	0.8026	0.001844	4.1e-05
323.15	0.9	0.001812	4e-05
328.15	0.0998	0.001867	4e-05
328.15	0.2023	0.001857	4e-05
328.15	0.2984	0.001839	3.9e-05
328.15	0.3996	0.001819	3.9e-05
328.15	0.4998	0.001794	3.9e-05
328.15	0.5973	0.001764	3.8e-05
328.15	0.7005	0.001734	3.8e-05
328.15	0.8026	0.001704	3.8e-05
328.15	0.9	0.001677	3.7e-05
333.15	0.0998	0.001719	3.7e-05
333.15	0.2023	0.001714	3.7e-05
333.15	0.2984	0.001696	3.6e-05
333.15	0.3996	0.001679	3.6e-05
333.15	0.4998	0.001657	3.6e-05
333.15	0.5973	0.001631	3.6e-05
333.15	0.7005	0.001605	3.5e-05
333.15	0.8026	0.00158	3.5e-05
333.15	0.9	0.001557	3.5e-05

System: cyclopentanol + exo-tetrahydrodicyclopentadiene + 1,3-dimethyladamantane; phases: Liquid
Fixed: Pressure, kPa = 100
Property: Mass density, kg/m3 (Liquid); method: Vibrating tube method
Temperature, K	Mole fraction of cyclopentanol	Mole fraction of exo-tetrahydrodicyclopentadiene	Mass density, kg/m3	uncertainty
293.15	0.7993	0.1022	938.63	0.57
293.15	0.6987	0.2036	936.95	0.57
293.15	0.697	0.1041	932.8	0.56
293.15	0.6001	0.299	935.35	0.57
293.15	0.6007	0.2001	931.58	0.57
293.15	0.598	0.1044	927.54	0.56
293.15	0.5027	0.3988	934.39	0.57
293.15	0.5017	0.2996	930.57	0.57
293.15	0.4992	0.2026	926.66	0.56
293.15	0.4988	0.1025	922.62	0.56
293.15	0.3997	0.5013	933.47	0.58
293.15	0.4011	0.3978	929.72	0.57
293.15	0.3974	0.2998	925.84	0.57
293.15	0.3983	0.1999	922.11	0.56
293.15	0.3983	0.0996	918.18	0.56
293.15	0.3009	0.6018	932.9	0.59
293.15	0.2976	0.5028	929.29	0.58
293.15	0.3002	0.4003	925.69	0.57
293.15	0.3013	0.3001	922.09	0.56
293.15	0.2988	0.2027	918.29	0.56
293.15	0.2997	0.1005	914.36	0.55
293.15	0.1979	0.6989	932.31	0.61
293.15	0.1995	0.6001	928.82	0.59
293.15	0.2032	0.4991	925.59	0.58
293.15	0.2021	0.3993	922.08	0.57
293.15	0.2049	0.3034	918.36	0.56
293.15	0.2003	0.2027	914.75	0.56
293.15	0.1992	0.1048	911.03	0.55
293.15	0.1038	0.7978	932.32	0.63
293.15	0.0996	0.6983	928.85	0.61
293.15	0.1006	0.6011	925.6	0.59
293.15	0.1019	0.4984	922.12	0.58
293.15	0.1024	0.4001	918.68	0.57
293.15	0.1002	0.2995	915.04	0.56
293.15	0.0997	0.2023	911.49	0.55
293.15	0.1006	0.1025	907.84	0.55
298.15	0.7993	0.1022	934.59	0.57
298.15	0.6987	0.2036	932.88	0.57
298.15	0.697	0.1041	928.76	0.56
298.15	0.6001	0.299	931.27	0.57
298.15	0.6007	0.2001	927.53	0.56
298.15	0.598	0.1044	923.54	0.56
298.15	0.5027	0.3988	930.32	0.57
298.15	0.5017	0.2996	926.54	0.57
298.15	0.4992	0.2026	922.67	0.56
298.15	0.4988	0.1025	918.67	0.56
298.15	0.3997	0.5013	929.42	0.58
298.15	0.4011	0.3978	925.7	0.57
298.15	0.3974	0.2998	921.87	0.56
298.15	0.3983	0.1999	918.17	0.56
298.15	0.3983	0.0996	914.29	0.55
298.15	0.3009	0.6018	928.88	0.59
298.15	0.2976	0.5028	925.29	0.58
298.15	0.3002	0.4003	921.73	0.57
298.15	0.3013	0.3001	918.16	0.56
298.15	0.2988	0.2027	914.4	0.56
298.15	0.2997	0.1005	910.52	0.55
298.15	0.1979	0.6989	928.34	0.61
298.15	0.1995	0.6001	924.86	0.59
298.15	0.2032	0.4991	921.66	0.58
298.15	0.2021	0.3993	918.17	0.57
298.15	0.2049	0.3034	914.49	0.56
298.15	0.2003	0.2027	910.92	0.55
298.15	0.1992	0.1048	907.25	0.55
298.15	0.1038	0.7978	928.34	0.63
298.15	0.0996	0.6983	924.91	0.61
298.15	0.1006	0.6011	921.69	0.59
298.15	0.1019	0.4984	918.24	0.58
298.15	0.1024	0.4001	914.83	0.57
298.15	0.1002	0.2995	911.23	0.56
298.15	0.0997	0.2023	907.73	0.55
298.15	0.1006	0.1025	904.12	0.55
303.15	0.7993	0.1022	930.49	0.56
303.15	0.6987	0.2036	928.77	0.56
303.15	0.697	0.1041	924.68	0.56
303.15	0.6001	0.299	927.16	0.57
303.15	0.6007	0.2001	923.46	0.56
303.15	0.598	0.1044	919.5	0.56
303.15	0.5027	0.3988	926.23	0.57
303.15	0.5017	0.2996	922.48	0.56
303.15	0.4992	0.2026	918.64	0.56
303.15	0.4988	0.1025	914.69	0.55
303.15	0.3997	0.5013	925.35	0.58
303.15	0.4011	0.3978	921.66	0.57
303.15	0.3974	0.2998	917.87	0.56
303.15	0.3983	0.1999	914.21	0.56
303.15	0.3983	0.0996	910.37	0.55
303.15	0.3009	0.6018	924.85	0.59
303.15	0.2976	0.5028	921.27	0.58
303.15	0.3002	0.4003	917.75	0.57
303.15	0.3013	0.3001	914.21	0.56
303.15	0.2988	0.2027	910.49	0.55
303.15	0.2997	0.1005	906.66	0.55
303.15	0.1979	0.6989	924.31	0.6
303.15	0.1995	0.6001	920.9	0.59
303.15	0.2032	0.4991	917.69	0.57
303.15	0.2021	0.3993	914.23	0.56
303.15	0.2049	0.3034	910.6	0.56
303.15	0.2003	0.2027	907.08	0.55
303.15	0.1992	0.1048	903.44	0.55
303.15	0.1038	0.7978	924.35	0.63
303.15	0.0996	0.6983	920.94	0.6
303.15	0.1006	0.6011	917.75	0.59
303.15	0.1019	0.4984	914.34	0.57
303.15	0.1024	0.4001	910.97	0.56
303.15	0.1002	0.2995	907.41	0.56
303.15	0.0997	0.2023	903.95	0.55
303.15	0.1006	0.1025	900.38	0.55
308.15	0.7993	0.1022	926.35	0.56
308.15	0.6987	0.2036	924.62	0.56
308.15	0.697	0.1041	920.57	0.56
308.15	0.6001	0.299	923.02	0.56
308.15	0.6007	0.2001	919.35	0.56
308.15	0.598	0.1044	915.43	0.55
308.15	0.5027	0.3988	922.1	0.57
308.15	0.5017	0.2996	918.39	0.56
308.15	0.4992	0.2026	914.6	0.56
308.15	0.4988	0.1025	910.68	0.55
308.15	0.3997	0.5013	921.25	0.58
308.15	0.4011	0.3978	917.6	0.57
308.15	0.3974	0.2998	913.85	0.56
308.15	0.3983	0.1999	910.22	0.55
308.15	0.3983	0.0996	906.42	0.55
308.15	0.3009	0.6018	920.77	0.59
308.15	0.2976	0.5028	917.23	0.57
308.15	0.3002	0.4003	913.74	0.56
308.15	0.3013	0.3001	910.24	0.56
308.15	0.2988	0.2027	906.56	0.55
308.15	0.2997	0.1005	902.78	0.55
308.15	0.1979	0.6989	920.25	0.6
308.15	0.1995	0.6001	916.93	0.59
308.15	0.2032	0.4991	913.71	0.57
308.15	0.2021	0.3993	910.28	0.56
308.15	0.2049	0.3034	906.69	0.56
308.15	0.2003	0.2027	903.21	0.55
308.15	0.1992	0.1048	899.63	0.55
308.15	0.1038	0.7978	920.34	0.62
308.15	0.0996	0.6983	916.97	0.6
308.15	0.1006	0.6011	913.81	0.58
308.15	0.1019	0.4984	910.42	0.57
308.15	0.1024	0.4001	907.09	0.56
308.15	0.1002	0.2995	903.57	0.55
308.15	0.0997	0.2023	900.16	0.55
308.15	0.1006	0.1025	896.63	0.54
313.15	0.7993	0.1022	922.17	0.56
313.15	0.6987	0.2036	920.43	0.56
313.15	0.697	0.1041	916.42	0.56
313.15	0.6001	0.299	918.85	0.56
313.15	0.6007	0.2001	915.22	0.56
313.15	0.598	0.1044	911.34	0.55
313.15	0.5027	0.3988	917.95	0.57
313.15	0.5017	0.2996	914.28	0.56
313.15	0.4992	0.2026	910.52	0.55
313.15	0.4988	0.1025	906.65	0.55
313.15	0.3997	0.5013	917.12	0.57
313.15	0.4011	0.3978	913.51	0.56
313.15	0.3974	0.2998	909.8	0.56
313.15	0.3983	0.1999	906.21	0.55
313.15	0.3983	0.0996	902.46	0.55
313.15	0.3009	0.6018	916.67	0.58
313.15	0.2976	0.5028	913.16	0.57
313.15	0.3002	0.4003	909.71	0.56
313.15	0.3013	0.3001	906.25	0.55
313.15	0.2988	0.2027	902.61	0.55
313.15	0.2997	0.1005	898.87	0.55
313.15	0.1979	0.6989	916.18	0.6
313.15	0.1995	0.6001	912.93	0.58
313.15	0.2032	0.4991	909.71	0.57
313.15	0.2021	0.3993	906.31	0.56
313.15	0.2049	0.3034	902.77	0.55
313.15	0.2003	0.2027	899.33	0.55
313.15	0.1992	0.1048	895.78	0.54
313.15	0.1038	0.7978	916.31	0.62
313.15	0.0996	0.6983	912.98	0.6
313.15	0.1006	0.6011	909.85	0.58
313.15	0.1019	0.4984	906.49	0.57
313.15	0.1024	0.4001	903.2	0.56
313.15	0.1002	0.2995	899.73	0.55
313.15	0.0997	0.2023	896.35	0.55
313.15	0.1006	0.1025	892.87	0.54
318.15	0.7993	0.1022	917.94	0.56
318.15	0.6987	0.2036	916.21	0.56
318.15	0.697	0.1041	912.24	0.55
318.15	0.6001	0.299	914.64	0.56
318.15	0.6007	0.2001	911.05	0.55
318.15	0.598	0.1044	907.21	0.55
318.15	0.5027	0.3988	913.76	0.56
318.15	0.5017	0.2996	910.13	0.56
318.15	0.4992	0.2026	906.41	0.55
318.15	0.4988	0.1025	902.59	0.55
318.15	0.3997	0.5013	912.96	0.57
318.15	0.4011	0.3978	909.38	0.56
318.15	0.3974	0.2998	905.72	0.55
318.15	0.3983	0.1999	902.18	0.55
318.15	0.3983	0.0996	898.47	0.55
318.15	0.3009	0.6018	912.54	0.58
318.15	0.2976	0.5028	909.07	0.57
318.15	0.3002	0.4003	905.65	0.56
318.15	0.3013	0.3001	902.23	0.55
318.15	0.2988	0.2027	898.63	0.55
318.15	0.2997	0.1005	894.94	0.54
318.15	0.1979	0.6989	912.09	0.6
318.15	0.1995	0.6001	908.87	0.58
318.15	0.2032	0.4991	905.68	0.57
318.15	0.2021	0.3993	902.32	0.56
318.15	0.2049	0.3034	898.82	0.55
318.15	0.2003	0.2027	895.42	0.55
318.15	0.1992	0.1048	891.92	0.54
318.15	0.1038	0.7978	912.27	0.62
318.15	0.0996	0.6983	908.98	0.6
318.15	0.1006	0.6011	905.87	0.58
318.15	0.1019	0.4984	902.55	0.57
318.15	0.1024	0.4001	899.3	0.56
318.15	0.1002	0.2995	895.86	0.55
318.15	0.0997	0.2023	892.53	0.54
318.15	0.1006	0.1025	889.1	0.54
323.15	0.7993	0.1022	913.67	0.55
323.15	0.6987	0.2036	911.94	0.55
323.15	0.697	0.1041	908.01	0.55
323.15	0.6001	0.299	910.39	0.56
323.15	0.6007	0.2001	906.84	0.55
323.15	0.598	0.1044	903.05	0.55
323.15	0.5027	0.3988	909.54	0.56
323.15	0.5017	0.2996	905.95	0.55
323.15	0.4992	0.2026	902.27	0.55
323.15	0.4988	0.1025	898.49	0.55
323.15	0.3997	0.5013	908.77	0.57
323.15	0.4011	0.3978	905.23	0.56
323.15	0.3974	0.2998	901.61	0.55
323.15	0.3983	0.1999	898.11	0.55
323.15	0.3983	0.0996	894.44	0.54
323.15	0.3009	0.6018	908.38	0.58
323.15	0.2976	0.5028	904.95	0.57
323.15	0.3002	0.4003	901.57	0.56
323.15	0.3013	0.3001	898.18	0.55
323.15	0.2988	0.2027	894.63	0.55
323.15	0.2997	0.1005	890.99	0.54
323.15	0.1979	0.6989	907.98	0.59
323.15	0.1995	0.6001	904.79	0.58
323.15	0.2032	0.4991	901.63	0.57
323.15	0.2021	0.3993	898.3	0.56
323.15	0.2049	0.3034	894.85	0.55
323.15	0.2003	0.2027	891.5	0.54
323.15	0.1992	0.1048	888.04	0.54
323.15	0.1038	0.7978	908.21	0.62
323.15	0.0996	0.6983	904.96	0.59
323.15	0.1006	0.6011	901.88	0.58
323.15	0.1019	0.4984	898.6	0.56
323.15	0.1024	0.4001	895.38	0.56
323.15	0.1002	0.2995	891.99	0.55
323.15	0.0997	0.2023	888.69	0.54
323.15	0.1006	0.1025	885.3	0.54
328.15	0.7993	0.1022	909.35	0.55
328.15	0.6987	0.2036	907.64	0.55
328.15	0.697	0.1041	903.75	0.55
328.15	0.6001	0.299	906.11	0.55
328.15	0.6007	0.2001	902.59	0.55
328.15	0.598	0.1044	898.85	0.55
328.15	0.5027	0.3988	905.28	0.56
328.15	0.5017	0.2996	901.73	0.55
328.15	0.4992	0.2026	898.1	0.55
328.15	0.4988	0.1025	894.36	0.54
328.15	0.3997	0.5013	904.54	0.57
328.15	0.4011	0.3978	901.05	0.56
328.15	0.3974	0.2998	897.47	0.55
328.15	0.3983	0.1999	894.01	0.54
328.15	0.3983	0.0996	890.39	0.54
328.15	0.3009	0.6018	904.19	0.58
328.15	0.2976	0.5028	900.8	0.57
328.15	0.3002	0.4003	897.46	0.56
328.15	0.3013	0.3001	894.11	0.55
328.15	0.2988	0.2027	890.68	0.54
328.15	0.2997	0.1005	887.01	0.54
328.15	0.1979	0.6989	903.84	0.59
328.15	0.1995	0.6001	900.68	0.58
328.15	0.2032	0.4991	897.57	0.56
328.15	0.2021	0.3993	894.26	0.55
328.15	0.2049	0.3034	890.86	0.55
328.15	0.2003	0.2027	887.55	0.54
328.15	0.1992	0.1048	884.14	0.54
328.15	0.1038	0.7978	904.13	0.61
328.15	0.0996	0.6983	900.92	0.59
328.15	0.1006	0.6011	897.88	0.58
328.15	0.1019	0.4984	894.63	0.56
328.15	0.1024	0.4001	891.45	0.55
328.15	0.1002	0.2995	888.1	0.55
328.15	0.0997	0.2023	884.85	0.54
328.15	0.1006	0.1025	881.5	0.54
333.15	0.7993	0.1022	904.99	0.55
333.15	0.6987	0.2036	903.28	0.55
333.15	0.697	0.1041	899.44	0.55
333.15	0.6001	0.299	901.78	0.55
333.15	0.6007	0.2001	898.3	0.55
333.15	0.598	0.1044	894.6	0.54
333.15	0.5027	0.3988	900.99	0.56
333.15	0.5017	0.2996	897.47	0.55
333.15	0.4992	0.2026	893.89	0.54
333.15	0.4988	0.1025	890.21	0.54
333.15	0.3997	0.5013	900.29	0.56
333.15	0.4011	0.3978	896.83	0.55
333.15	0.3974	0.2998	893.29	0.55
333.15	0.3983	0.1999	889.88	0.54
333.15	0.3983	0.0996	886.3	0.54
333.15	0.3009	0.6018	899.97	0.58
333.15	0.2976	0.5028	896.62	0.56
333.15	0.3002	0.4003	893.32	0.55
333.15	0.3013	0.3001	890.01	0.55
333.15	0.2988	0.2027	886.55	0.54
333.15	0.2997	0.1005	883	0.54
333.15	0.1979	0.6989	899.68	0.59
333.15	0.1995	0.6001	896.55	0.57
333.15	0.2032	0.4991	893.46	0.56
333.15	0.2021	0.3993	890.19	0.55
333.15	0.2049	0.3034	886.85	0.54
333.15	0.2003	0.2027	883.58	0.54
333.15	0.1992	0.1048	880.22	0.54
333.15	0.1038	0.7978	900.05	0.61
333.15	0.0996	0.6983	896.86	0.59
333.15	0.1006	0.6011	893.86	0.57
333.15	0.1019	0.4984	890.64	0.56
333.15	0.1024	0.4001	887.5	0.55
333.15	0.1002	0.2995	884.2	0.54
333.15	0.0997	0.2023	880.99	0.54
333.15	0.1006	0.1025	877.68	0.53

System: cyclopentanol + exo-tetrahydrodicyclopentadiene + 1,3-dimethyladamantane; phases: Liquid
Fixed: Pressure, kPa = 100
Property: Viscosity, Pa*s (Liquid); method: Falling or rolling sphere viscometry
Temperature, K	Mole fraction of cyclopentanol	Mole fraction of exo-tetrahydrodicyclopentadiene	Viscosity, Pa*s	uncertainty
293.15	0.7993	0.1022	0.007982	0.00017
293.15	0.6987	0.2036	0.006375	0.000136
293.15	0.697	0.1041	0.006885	0.000147
293.15	0.6001	0.299	0.005293	0.000113
293.15	0.6007	0.2001	0.00567	0.000121
293.15	0.598	0.1044	0.006002	0.000128
293.15	0.5027	0.3988	0.004539	9.8e-05
293.15	0.5017	0.2996	0.004727	0.000101
293.15	0.4992	0.2026	0.005032	0.000107
293.15	0.4988	0.1025	0.005269	0.000112
293.15	0.3997	0.5013	0.003983	8.6e-05
293.15	0.4011	0.3978	0.004188	9e-05
293.15	0.3974	0.2998	0.004372	9.4e-05
293.15	0.3983	0.1999	0.004571	9.8e-05
293.15	0.3983	0.0996	0.004743	0.000101
293.15	0.3009	0.6018	0.003633	7.9e-05
293.15	0.2976	0.5028	0.003791	8.2e-05
293.15	0.3002	0.4003	0.00396	8.5e-05
293.15	0.3013	0.3001	0.004142	8.9e-05
293.15	0.2988	0.2027	0.00425	9.1e-05
293.15	0.2997	0.1005	0.004347	9.3e-05
293.15	0.1979	0.6989	0.003351	7.3e-05
293.15	0.1995	0.6001	0.003472	7.6e-05
293.15	0.2032	0.4991	0.003619	7.8e-05
293.15	0.2021	0.3993	0.003736	8e-05
293.15	0.2049	0.3034	0.003851	8.2e-05
293.15	0.2003	0.2027	0.003946	8.4e-05
293.15	0.1992	0.1048	0.00403	8.6e-05
293.15	0.1038	0.7978	0.003168	7e-05
293.15	0.0996	0.6983	0.003272	7.2e-05
293.15	0.1006	0.6011	0.003379	7.4e-05
293.15	0.1019	0.4984	0.003483	7.5e-05
293.15	0.1024	0.4001	0.003576	7.7e-05
293.15	0.1002	0.2995	0.003651	7.8e-05
293.15	0.0997	0.2023	0.003722	7.9e-05
293.15	0.1006	0.1025	0.003795	8.1e-05
298.15	0.7993	0.1022	0.006642	0.000141
298.15	0.6987	0.2036	0.005392	0.000115
298.15	0.697	0.1041	0.005786	0.000123
298.15	0.6001	0.299	0.004544	9.7e-05
298.15	0.6007	0.2001	0.004839	0.000103
298.15	0.598	0.1044	0.005099	0.000109
298.15	0.5027	0.3988	0.003949	8.5e-05
298.15	0.5017	0.2996	0.004153	8.9e-05
298.15	0.4992	0.2026	0.004345	9.3e-05
298.15	0.4988	0.1025	0.004535	9.7e-05
298.15	0.3997	0.5013	0.003507	7.6e-05
298.15	0.4011	0.3978	0.003674	7.9e-05
298.15	0.3974	0.2998	0.003821	8.2e-05
298.15	0.3983	0.1999	0.003983	8.5e-05
298.15	0.3983	0.0996	0.004125	8.8e-05
298.15	0.3009	0.6018	0.00323	7e-05
298.15	0.2976	0.5028	0.003357	7.3e-05
298.15	0.3002	0.4003	0.003496	7.5e-05
298.15	0.3013	0.3001	0.003644	7.8e-05
298.15	0.2988	0.2027	0.003729	8e-05
298.15	0.2997	0.1005	0.003804	8.1e-05
298.15	0.1979	0.6989	0.002995	6.6e-05
298.15	0.1995	0.6001	0.003093	6.7e-05
298.15	0.2032	0.4991	0.003214	7e-05
298.15	0.2021	0.3993	0.00331	7.1e-05
298.15	0.2049	0.3034	0.003406	7.3e-05
298.15	0.2003	0.2027	0.003482	7.4e-05
298.15	0.1992	0.1048	0.00355	7.6e-05
298.15	0.1038	0.7978	0.002845	6.3e-05
298.15	0.0996	0.6983	0.00293	6.4e-05
298.15	0.1006	0.6011	0.003022	6.6e-05
298.15	0.1019	0.4984	0.003105	6.7e-05
298.15	0.1024	0.4001	0.003178	6.8e-05
298.15	0.1002	0.2995	0.003243	6.9e-05
298.15	0.0997	0.2023	0.003297	7e-05
298.15	0.1006	0.1025	0.003359	7.2e-05
303.15	0.7993	0.1022	0.005586	0.000119
303.15	0.6987	0.2036	0.004608	9.8e-05
303.15	0.697	0.1041	0.004916	0.000105
303.15	0.6001	0.299	0.003938	8.4e-05
303.15	0.6007	0.2001	0.004175	8.9e-05
303.15	0.598	0.1044	0.00438	9.3e-05
303.15	0.5027	0.3988	0.003466	7.4e-05
303.15	0.5017	0.2996	0.003632	7.8e-05
303.15	0.4992	0.2026	0.003786	8.1e-05
303.15	0.4988	0.1025	0.003937	8.4e-05
303.15	0.3997	0.5013	0.003112	6.7e-05
303.15	0.4011	0.3978	0.003248	7e-05
303.15	0.3974	0.2998	0.003367	7.2e-05
303.15	0.3983	0.1999	0.0035	7.5e-05
303.15	0.3983	0.0996	0.003613	7.7e-05
303.15	0.3009	0.6018	0.002886	6.3e-05
303.15	0.2976	0.5028	0.002994	6.5e-05
303.15	0.3002	0.4003	0.003108	6.7e-05
303.15	0.3013	0.3001	0.003231	6.9e-05
303.15	0.2988	0.2027	0.003299	7e-05
303.15	0.2997	0.1005	0.003355	7.1e-05
303.15	0.1979	0.6989	0.002691	5.9e-05
303.15	0.1995	0.6001	0.002774	6e-05
303.15	0.2032	0.4991	0.002875	6.2e-05
303.15	0.2021	0.3993	0.002953	6.4e-05
303.15	0.2049	0.3034	0.003031	6.5e-05
303.15	0.2003	0.2027	0.003095	6.6e-05
303.15	0.1992	0.1048	0.003148	6.7e-05
303.15	0.1038	0.7978	0.002567	5.7e-05
303.15	0.0996	0.6983	0.00264	5.8e-05
303.15	0.1006	0.6011	0.002716	5.9e-05
303.15	0.1019	0.4984	0.002786	6e-05
303.15	0.1024	0.4001	0.002846	6.1e-05
303.15	0.1002	0.2995	0.002899	6.2e-05
303.15	0.0997	0.2023	0.002946	6.3e-05
303.15	0.1006	0.1025	0.002993	6.4e-05
308.15	0.7993	0.1022	0.004742	0.000101
308.15	0.6987	0.2036	0.00397	8.5e-05
308.15	0.697	0.1041	0.004212	9e-05
308.15	0.6001	0.299	0.003438	7.4e-05
308.15	0.6007	0.2001	0.00363	7.7e-05
308.15	0.598	0.1044	0.003793	8.1e-05
308.15	0.5027	0.3988	0.003066	6.6e-05
308.15	0.5017	0.2996	0.003197	6.8e-05
308.15	0.4992	0.2026	0.003322	7.1e-05
308.15	0.4988	0.1025	0.003444	7.3e-05
308.15	0.3997	0.5013	0.002774	6e-05
308.15	0.4011	0.3978	0.002887	6.2e-05
308.15	0.3974	0.2998	0.002984	6.4e-05
308.15	0.3983	0.1999	0.003094	6.6e-05
308.15	0.3983	0.0996	0.003186	6.8e-05
308.15	0.3009	0.6018	0.002593	5.6e-05
308.15	0.2976	0.5028	0.002683	5.8e-05
308.15	0.3002	0.4003	0.002777	6e-05
308.15	0.3013	0.3001	0.00288	6.2e-05
308.15	0.2988	0.2027	0.002934	6.3e-05
308.15	0.2997	0.1005	0.002978	6.3e-05
308.15	0.1979	0.6989	0.002431	5.3e-05
308.15	0.1995	0.6001	0.002501	5.4e-05
308.15	0.2032	0.4991	0.002584	5.6e-05
308.15	0.2021	0.3993	0.002649	5.7e-05
308.15	0.2049	0.3034	0.002713	5.8e-05
308.15	0.2003	0.2027	0.002765	5.9e-05
308.15	0.1992	0.1048	0.002809	6e-05
308.15	0.1038	0.7978	0.002328	5.1e-05
308.15	0.0996	0.6983	0.00239	5.2e-05
308.15	0.1006	0.6011	0.002453	5.3e-05
308.15	0.1019	0.4984	0.002512	5.4e-05
308.15	0.1024	0.4001	0.002563	5.5e-05
308.15	0.1002	0.2995	0.002607	5.6e-05
308.15	0.0997	0.2023	0.002645	5.6e-05
308.15	0.1006	0.1025	0.002683	5.7e-05
313.15	0.7993	0.1022	0.004058	8.6e-05
313.15	0.6987	0.2036	0.003446	7.3e-05
313.15	0.697	0.1041	0.003638	7.7e-05
313.15	0.6001	0.299	0.003022	6.5e-05
313.15	0.6007	0.2001	0.003176	6.8e-05
313.15	0.598	0.1044	0.003306	7e-05
313.15	0.5027	0.3988	0.002721	5.8e-05
313.15	0.5017	0.2996	0.00283	6.1e-05
313.15	0.4992	0.2026	0.002933	6.3e-05
313.15	0.4988	0.1025	0.00303	6.4e-05
313.15	0.3997	0.5013	0.002487	5.4e-05
313.15	0.4011	0.3978	0.002579	5.5e-05
313.15	0.3974	0.2998	0.002661	5.7e-05
313.15	0.3983	0.1999	0.002749	5.9e-05
313.15	0.3983	0.0996	0.002824	6e-05
313.15	0.3009	0.6018	0.002339	5.1e-05
313.15	0.2976	0.5028	0.002415	5.2e-05
313.15	0.3002	0.4003	0.002494	5.4e-05
313.15	0.3013	0.3001	0.002579	5.5e-05
313.15	0.2988	0.2027	0.002623	5.6e-05
313.15	0.2997	0.1005	0.002657	5.7e-05
313.15	0.1979	0.6989	0.002204	4.8e-05
313.15	0.1995	0.6001	0.002261	4.9e-05
313.15	0.2032	0.4991	0.002334	5e-05
313.15	0.2021	0.3993	0.002385	5.1e-05
313.15	0.2049	0.3034	0.00244	5.2e-05
313.15	0.2003	0.2027	0.002482	5.3e-05
313.15	0.1992	0.1048	0.002518	5.4e-05
313.15	0.1038	0.7978	0.002121	4.7e-05
313.15	0.0996	0.6983	0.002175	4.8e-05
313.15	0.1006	0.6011	0.002227	4.8e-05
313.15	0.1019	0.4984	0.002275	4.9e-05
313.15	0.1024	0.4001	0.002318	5e-05
313.15	0.1002	0.2995	0.002354	5e-05
313.15	0.0997	0.2023	0.002386	5.1e-05
313.15	0.1006	0.1025	0.002417	5.1e-05
318.15	0.7993	0.1022	0.003499	7.4e-05
318.15	0.6987	0.2036	0.003012	6.4e-05
318.15	0.697	0.1041	0.003165	6.7e-05
318.15	0.6001	0.299	0.002672	5.7e-05
318.15	0.6007	0.2001	0.002797	6e-05
318.15	0.598	0.1044	0.002902	6.2e-05
318.15	0.5027	0.3988	0.00243	5.2e-05
318.15	0.5017	0.2996	0.00252	5.4e-05
318.15	0.4992	0.2026	0.002604	5.6e-05
318.15	0.4988	0.1025	0.002681	5.7e-05
318.15	0.3997	0.5013	0.002239	4.8e-05
318.15	0.4011	0.3978	0.002316	5e-05
318.15	0.3974	0.2998	0.002383	5.1e-05
318.15	0.3983	0.1999	0.002457	5.2e-05
318.15	0.3983	0.0996	0.002516	5.4e-05
318.15	0.3009	0.6018	0.00212	4.6e-05
318.15	0.2976	0.5028	0.002183	4.7e-05
318.15	0.3002	0.4003	0.002249	4.8e-05
318.15	0.3013	0.3001	0.002321	5e-05
318.15	0.2988	0.2027	0.002355	5e-05
318.15	0.2997	0.1005	0.002381	5.1e-05
318.15	0.1979	0.6989	0.002006	4.4e-05
318.15	0.1995	0.6001	0.002054	4.5e-05
318.15	0.2032	0.4991	0.002115	4.6e-05
318.15	0.2021	0.3993	0.002158	4.6e-05
318.15	0.2049	0.3034	0.002204	4.7e-05
318.15	0.2003	0.2027	0.002238	4.8e-05
318.15	0.1992	0.1048	0.002268	4.8e-05
318.15	0.1038	0.7978	0.001939	4.3e-05
318.15	0.0996	0.6983	0.001984	4.4e-05
318.15	0.1006	0.6011	0.002029	4.4e-05
318.15	0.1019	0.4984	0.002069	4.5e-05
318.15	0.1024	0.4001	0.002104	4.5e-05
318.15	0.1002	0.2995	0.002136	4.6e-05
318.15	0.0997	0.2023	0.002161	4.6e-05
318.15	0.1006	0.1025	0.002189	4.7e-05
323.15	0.7993	0.1022	0.003039	6.5e-05
323.15	0.6987	0.2036	0.002649	5.6e-05
323.15	0.697	0.1041	0.002772	5.9e-05
323.15	0.6001	0.299	0.002375	5.1e-05
323.15	0.6007	0.2001	0.002478	5.3e-05
323.15	0.598	0.1044	0.002563	5.5e-05
323.15	0.5027	0.3988	0.002179	4.7e-05
323.15	0.5017	0.2996	0.002254	4.8e-05
323.15	0.4992	0.2026	0.002323	5e-05
323.15	0.4988	0.1025	0.002386	5.1e-05
323.15	0.3997	0.5013	0.002024	4.4e-05
323.15	0.4011	0.3978	0.002088	4.5e-05
323.15	0.3974	0.2998	0.002144	4.6e-05
323.15	0.3983	0.1999	0.002204	4.7e-05
323.15	0.3983	0.0996	0.002253	4.8e-05
323.15	0.3009	0.6018	0.001928	4.2e-05
323.15	0.2976	0.5028	0.001982	4.3e-05
323.15	0.3002	0.4003	0.002037	4.4e-05
323.15	0.3013	0.3001	0.002097	4.5e-05
323.15	0.2988	0.2027	0.002124	4.5e-05
323.15	0.2997	0.1005	0.002145	4.6e-05
323.15	0.1979	0.6989	0.001833	4e-05
323.15	0.1995	0.6001	0.001872	4.1e-05
323.15	0.2032	0.4991	0.001924	4.2e-05
323.15	0.2021	0.3993	0.00196	4.2e-05
323.15	0.2049	0.3034	0.001998	4.3e-05
323.15	0.2003	0.2027	0.002027	4.3e-05
323.15	0.1992	0.1048	0.002052	4.4e-05
323.15	0.1038	0.7978	0.001779	3.9e-05
323.15	0.0996	0.6983	0.001817	4e-05
323.15	0.1006	0.6011	0.001855	4e-05
323.15	0.1019	0.4984	0.00189	4.1e-05
323.15	0.1024	0.4001	0.001926	4.1e-05
323.15	0.1002	0.2995	0.001945	4.2e-05
323.15	0.0997	0.2023	0.001965	4.2e-05
323.15	0.1006	0.1025	0.001989	4.2e-05
328.15	0.7993	0.1022	0.002657	5.7e-05
328.15	0.6987	0.2036	0.002342	5e-05
328.15	0.697	0.1041	0.002443	5.2e-05
328.15	0.6001	0.299	0.002122	4.5e-05
328.15	0.6007	0.2001	0.002207	4.7e-05
328.15	0.598	0.1044	0.002276	4.8e-05
328.15	0.5027	0.3988	0.001965	4.2e-05
328.15	0.5017	0.2996	0.002026	4.3e-05
328.15	0.4992	0.2026	0.002082	4.4e-05
328.15	0.4988	0.1025	0.002134	4.5e-05
328.15	0.3997	0.5013	0.001836	4e-05
328.15	0.4011	0.3978	0.00189	4.1e-05
328.15	0.3974	0.2998	0.001936	4.1e-05
328.15	0.3983	0.1999	0.001986	4.2e-05
328.15	0.3983	0.0996	0.002027	4.3e-05
328.15	0.3009	0.6018	0.001758	3.8e-05
328.15	0.2976	0.5028	0.001804	3.9e-05
328.15	0.3002	0.4003	0.001851	4e-05
328.15	0.3013	0.3001	0.001901	4.1e-05
328.15	0.2988	0.2027	0.001924	4.1e-05
328.15	0.2997	0.1005	0.001938	4.1e-05
328.15	0.1979	0.6989	0.00168	3.7e-05
328.15	0.1995	0.6001	0.001713	3.7e-05
328.15	0.2032	0.4991	0.001757	3.8e-05
328.15	0.2021	0.3993	0.001787	3.8e-05
328.15	0.2049	0.3034	0.00182	3.9e-05
328.15	0.2003	0.2027	0.001843	3.9e-05
328.15	0.1992	0.1048	0.001865	4e-05
328.15	0.1038	0.7978	0.001637	3.6e-05
328.15	0.0996	0.6983	0.00167	3.7e-05
328.15	0.1006	0.6011	0.001703	3.7e-05
328.15	0.1019	0.4984	0.001731	3.7e-05
328.15	0.1024	0.4001	0.001756	3.8e-05
328.15	0.1002	0.2995	0.001779	3.8e-05
328.15	0.0997	0.2023	0.001795	3.8e-05
328.15	0.1006	0.1025	0.001815	3.9e-05
333.15	0.7993	0.1022	0.002337	5e-05
333.15	0.6987	0.2036	0.002084	4.4e-05
333.15	0.697	0.1041	0.002166	4.6e-05
333.15	0.6001	0.299	0.001905	4.1e-05
333.15	0.6007	0.2001	0.001976	4.2e-05
333.15	0.598	0.1044	0.002032	4.3e-05
333.15	0.5027	0.3988	0.001778	3.8e-05
333.15	0.5017	0.2996	0.001828	3.9e-05
333.15	0.4992	0.2026	0.001875	4e-05
333.15	0.4988	0.1025	0.001916	4.1e-05
333.15	0.3997	0.5013	0.001672	3.6e-05
333.15	0.4011	0.3978	0.001717	3.7e-05
333.15	0.3974	0.2998	0.001756	3.8e-05
333.15	0.3983	0.1999	0.001797	3.8e-05
333.15	0.3983	0.0996	0.00183	3.9e-05
333.15	0.3009	0.6018	0.00161	3.5e-05
333.15	0.2976	0.5028	0.001648	3.6e-05
333.15	0.3002	0.4003	0.001688	3.6e-05
333.15	0.3013	0.3001	0.001732	3.7e-05
333.15	0.2988	0.2027	0.001749	3.7e-05
333.15	0.2997	0.1005	0.00176	3.7e-05
333.15	0.1979	0.6989	0.001544	3.4e-05
333.15	0.1995	0.6001	0.001572	3.4e-05
333.15	0.2032	0.4991	0.00161	3.5e-05
333.15	0.2021	0.3993	0.001635	3.5e-05
333.15	0.2049	0.3034	0.001663	3.6e-05
333.15	0.2003	0.2027	0.001682	3.6e-05
333.15	0.1992	0.1048	0.001699	3.6e-05
333.15	0.1038	0.7978	0.00151	3.3e-05
333.15	0.0996	0.6983	0.00154	3.4e-05
333.15	0.1006	0.6011	0.001568	3.4e-05
333.15	0.1019	0.4984	0.001593	3.4e-05
333.15	0.1024	0.4001	0.001613	3.5e-05
333.15	0.1002	0.2995	0.001628	3.5e-05
333.15	0.0997	0.2023	0.001645	3.5e-05
333.15	0.1006	0.1025	0.001662	3.5e-05
