Measured thermophysical data. Measurement of the Speed of Sound in Near-Critical and Supercritical n-Heptane at Temperatures from (513.40 to 650.90) K and Pressures from (2.5 to 10.0) MPa
Source: J. Chem. Eng. Data, 2018, 10.1021/acs.jced.8b00212
Compound 1: heptane, C7H16, InChI=1S/C7H16/c1-3-5-7-6-4-2/h3-7H2,1-2H3, purity 99%

System: heptane; phases: Fluid (supercritical or subcritical phases)
Property: Speed of sound, m/s (Fluid (supercritical or subcritical phases)); method: Brillouin light scattering
Temperature, K	Pressure, kPa	Speed of sound, m/s	uncertainty
513.92	2500	266.66	7.49
525.23	2500	196.31	5.45
528.93	2500	167.01	5.05
534.12	2500	121.38	4.81
538.13	2500	101.28	3.8
544.09	2500	100.71	2.22
547.02	2500	107.6	2.32
552.59	2500	118.66	2.55
559.91	2500	129.19	2.81
564.02	2500	135.46	3.05
572.57	2500	144.47	3.17
584.19	2500	156.26	3.52
590.48	2500	161.58	3.6
601.6	2500	170.4	3.79
612.58	2500	179.23	4.14
620.87	2500	183.77	4.23
632.18	2500	189.44	4.34
640.72	2500	192.85	4.57
650.07	2500	195.77	4.64
513.59	3000	293.56	8.71
523.83	3000	242.56	6.72
528.41	3000	218.56	5.82
532.76	3000	193.81	5.41
538.36	3000	152.7	4.45
544.95	3000	115.6	3.38
549.04	3000	105.27	2.89
553.93	3000	110.64	2.61
574.87	5000	160.49	3.93
577.04	5000	154.18	3.81
582.31	5000	142.67	3.26
588.17	5000	139.88	3.19
592.28	5000	136.41	3.04
597.48	5000	135.43	3.22
602.3	5000	135.26	2.9
607.65	5000	136.72	3.06
615.11	5000	142.58	3.08
623.25	5000	150.58	3.17
632.29	5000	156.55	3.44
643.51	5000	165.41	3.62
513.58	6000	394.15	14.26
524.62	6000	357.73	11.9
529.1	6000	344.17	11.11
533.77	6000	331.99	10.4
539.09	6000	316.72	9.62
543.6	6000	300.59	8.85
548.98	6000	283.97	8.11
553.05	6000	270.32	7.48
557.86	6000	255.8	6.86
563.84	6000	236.54	6.16
574.85	6000	211.93	5.39
583.18	6000	191.45	4.76
592.57	6000	176.14	4.22
604.1	6000	161.83	3.71
613.73	6000	158.49	3.6
559.74	3000	116.03	2.43
563.09	3000	119.84	2.49
574.33	3000	134.46	2.98
582.39	3000	142.99	3.14
591.77	3000	152.87	3.47
602.84	3000	161.38	3.6
612.37	3000	167.57	3.72
623.42	3000	174.58	4.02
632.04	3000	179.96	4.13
641.53	3000	186.21	4.24
650.9	3000	189.41	4.31
513.65	4000	333.84	10.82
524.25	4000	291.43	8.65
528.9	4000	269.01	7.59
533.55	4000	252.16	6.91
537.58	4000	231.06	6.43
541.47	4000	208.26	5.35
549.16	4000	178.39	4.83
553.43	4000	160.12	4.05
560.41	4000	132.63	2.94
563.94	4000	124.51	2.88
575.28	4000	113.58	2.42
584.6	4000	122.55	2.53
591.62	4000	127.84	2.64
603.68	4000	143.88	3.08
612.08	4000	149.82	3.22
621.22	4000	157.32	3.48
631.85	4000	163.15	3.59
641.95	4000	173.32	3.96
622.48	6000	158.77	3.57
632.41	6000	159.42	3.54
643.04	6000	164.74	3.62
513.4	8000	451.65	18.11
524.62	8000	417.84	15.93
528.95	8000	403.55	14.59
533.57	8000	391.25	14.15
538.84	8000	376.34	13.25
542.55	8000	364.39	12.47
548.66	8000	346.4	11.18
553.19	8000	335.76	10.84
557.81	8000	325.48	10.2
563.58	8000	312.82	9.51
574.41	8000	287.41	8.19
583.1	8000	270.69	7.47
593.19	8000	249.19	6.66
604.67	8000	226	5.85
613.93	8000	218.01	5.43
620.2	8000	211.6	5.26
632.86	8000	201.03	4.79
642.59	8000	195.65	4.64
515.3	10000	481.16	20.24
523.19	10000	459.31	18.87
533.4	10000	437.12	17.1
543.16	10000	413.25	15.35
553.2	10000	388.87	13.68
563.03	10000	363.89	12.45
573.39	10000	345.21	11.14
579.18	10000	331.94	10.38
515.23	5000	363.89	12.46
521.41	5000	337.01	10.89
534.45	5000	293.97	8.71
543.5	5000	262.34	7.38
553.42	5000	225.17	5.84
565.65	5000	187.87	4.7
582.86	10000	325.02	10.17
587.85	10000	315.79	9.58
592.71	10000	307.49	9.34
603.51	10000	291.2	8.58
614.03	10000	272.94	7.51
623.13	10000	260.67	7.17
