Measured thermophysical data. Density, Viscosity, and Vapor Pressure Measurements of Water + Lithium Bis(trifluoromethylsulfonyl)imide Solutions
Source: J. Chem. Eng. Data, 2017, 10.1021/acs.jced.7b00135
Compound 1: lithium bis((trifluoromethyl)sulfonyl)amide, C2F6LiNO4S2, InChI=1S/C2F6NO4S2.Li/c3-1(4,5)14(10,11)9-15(12,13)2(6,7)8;/q-1;+1
Compound 2: water, H2O, InChI=1S/H2O/h1H2, purity 99.9%

System: water; phases: Liquid, Gas
Property: Vapor or sublimation pressure, kPa (Liquid); method: Closed cell (Static) method
Temperature, K	Vapor or sublimation pressure, kPa	uncertainty
274.15	0.661	0.031
279.48	0.953	0.031
286.16	1.508	0.031
291.39	2.094	0.032
293.14	2.337	0.032
296.32	2.834	0.032
296.31	2.839	0.032
298.81	3.288	0.032
301.37	3.827	0.033
303.57	4.36	0.033
307.73	5.507	0.034
308.26	5.666	0.034
312.87	7.275	0.036
313.07	7.345	0.035
314.62	7.977	0.036
318.13	9.585	0.038
318.13	9.578	0.038
322.99	12.26	0.041
323.1	12.32	0.041
323.17	12.362	0.041
328.14	15.748	0.045
328.14	15.746	0.045
328.88	16.312	0.045
333.15	20.056	0.051
343.15	31.279	0.066
353.15	47.45	0.091
363.15	70.21	0.129
373.15	101.425	1.509
383.15	143.287	1.518
393.15	198.752	1.533
403.15	270.216	1.559
413.15	361.642	1.602
423.15	476.334	1.67
433.15	618.336	1.773
443.15	792.154	1.922
453.15	1002.713	2.13
463.15	1255.226	2.401
468.15	1398.871	2.571
470.15	1459.748	2.646
471.15	1490.952	2.684
274.15	0.657	0.055
278.15	0.873	0.069
283.15	1.228	0.095
293.15	2.339	0.181
303.15	4.247	0.329
313.15	7.385	0.572
323.15	12.352	0.957
333.15	19.946	1.545
343.15	31.201	2.417
353.15	47.414	3.673
363.15	70.182	5.437
373.15	101.418	7.856
383.15	143.379	11.107
393.15	198.674	15.39
403.15	270.28	20.937
413.15	361.539	28.006
423.15	476.165	36.885
433.15	618.235	47.89
443.15	792.187	61.365
453.15	1002.811	77.68
463.15	1255.236	97.233
471.15	1490.935	115.49

System: water + lithium bis((trifluoromethyl)sulfonyl)amide; phases: Liquid, Crystal
Property: Mass fraction of lithium bis((trifluoromethyl)sulfonyl)amide (Liquid); method: Titration method
Temperature, K	Pressure, kPa	Mass fraction of lithium bis((trifluoromethyl)sulfonyl)amide	uncertainty
295.15	100	0.814	0.002

System: water + lithium bis((trifluoromethyl)sulfonyl)amide; phases: Liquid
Fixed: Pressure, kPa = 100
Property: Mass density, kg/m3 (Liquid); method: Vibrating tube method
Mass fraction of lithium bis((trifluoromethyl)sulfonyl)amide	Temperature, K	Mass density, kg/m3	uncertainty
0.273922	298.15	1160	1
0.487077	298.15	1325	1
0.663326	298.15	1493	1
0.802436	298.15	1654	1
0.273922	323.15	1148	1
0.487077	323.15	1304	1
0.663326	323.15	1467	1
0.802436	323.15	1624	1
0.273922	348.15	1131	1
0.487077	348.15	1282	1
0.663326	348.15	1440	1
0.802436	348.15	1598	1
0.273922	373.15	1109	1
0.487077	373.15	1258	1
0.663326	373.15	1401	1
0.802436	373.15	1557	1

System: water + lithium bis((trifluoromethyl)sulfonyl)amide; phases: Liquid
Fixed: Pressure, kPa = 100
Property: Viscosity, Pa*s (Liquid); method: Capillary tube (Ostwald; Ubbelohde) method
Mass fraction of lithium bis((trifluoromethyl)sulfonyl)amide	Temperature, K	Viscosity, Pa*s	uncertainty
0.273922	298.15	0.00154	8e-05
0.487077	298.15	0.00274	0.00014
0.663326	298.15	0.00534	0.00027
0.802436	298.15	0.01823	0.00092
0.273922	323.15	0.00088	4e-05
0.487077	323.15	0.0015	8e-05
0.663326	323.15	0.00283	0.00014
0.802436	323.15	0.00875	0.00044
0.273922	348.15	0.00059	3e-05
0.487077	348.15	0.001	5e-05
0.663326	348.15	0.00182	9e-05
0.802436	348.15	0.0052	0.00026
0.273922	373.15	0.00048	2e-05
0.487077	373.15	0.00068	3e-05
0.663326	373.15	0.00154	8e-05
0.802436	373.15	0.00342	0.00017

System: water + lithium bis((trifluoromethyl)sulfonyl)amide; phases: Liquid, Gas
Property: Vapor or sublimation pressure, kPa (Liquid); method: Closed Cell Method
Mass fraction of lithium bis((trifluoromethyl)sulfonyl)amide	Temperature, K	Vapor or sublimation pressure, kPa	uncertainty
0	274.15	0.657	0.055
0.017145	274.15	0.656	0.055
0.021168	274.15	0.655	0.055
0.029074	274.15	0.654	0.055
0.05253	274.15	0.653	0.055
0.077956	274.15	0.651	0.055
0.111849	274.15	0.647	0.055
0.208962	274.15	0.634	0.054
0.308633	274.15	0.613	0.053
0.394538	274.15	0.585	0.051
0.494645	274.15	0.534	0.048
0.603595	274.15	0.444	0.043
0.668212	274.15	0.364	0.04
0.721027	274.15	0.275	0.036
0.759967	274.15	0.196	0.033
0.782351	274.15	0.145	0.032
0.806508	274.15	0.094	0.031
0	278.15	0.873	0.069
0.017145	278.15	0.872	0.069
0.021168	278.15	0.871	0.069
0.029074	278.15	0.87	0.068
0.05253	278.15	0.869	0.068
0.077956	278.15	0.866	0.068
0.111849	278.15	0.861	0.068
0.208962	278.15	0.846	0.067
0.308633	278.15	0.818	0.065
0.394538	278.15	0.781	0.063
0.494645	278.15	0.716	0.059
0.603595	278.15	0.602	0.052
0.668212	278.15	0.501	0.046
0.721027	278.15	0.385	0.041
0.759967	278.15	0.278	0.036
0.782351	278.15	0.212	0.034
0.806508	278.15	0.14	0.032
0	283.15	1.228	0.095
0.017145	283.15	1.226	0.095
0.021168	283.15	1.225	0.095
0.029074	283.15	1.224	0.095
0.05253	283.15	1.221	0.095
0.077956	283.15	1.217	0.094
0.111849	283.15	1.211	0.094
0.208962	283.15	1.187	0.092
0.308633	283.15	1.15	0.089
0.394538	283.15	1.099	0.085
0.494645	283.15	1.011	0.078
0.603595	283.15	0.854	0.067
0.668212	283.15	0.716	0.059
0.721027	283.15	0.557	0.05
0.759967	283.15	0.411	0.042
0.782351	283.15	0.317	0.037
0.806508	283.15	0.217	0.034
0	293.15	2.339	0.181
0.017145	293.15	2.336	0.181
0.021168	293.15	2.335	0.181
0.029074	293.15	2.334	0.181
0.05253	293.15	2.328	0.18
0.077956	293.15	2.32	0.18
0.111849	293.15	2.31	0.179
0.208962	293.15	2.262	0.175
0.308633	293.15	2.192	0.17
0.394538	293.15	2.097	0.162
0.494645	293.15	1.936	0.15
0.603595	293.15	1.652	0.128
0.668212	293.15	1.399	0.108
0.721027	293.15	1.107	0.086
0.759967	293.15	0.837	0.066
0.782351	293.15	0.665	0.056
0.806508	293.15	0.473	0.045
0	303.15	4.247	0.329
0.017145	303.15	4.242	0.329
0.021168	303.15	4.241	0.329
0.029074	303.15	4.239	0.328
0.05253	303.15	4.231	0.328
0.077956	303.15	4.22	0.327
0.111849	303.15	4.201	0.325
0.208962	303.15	4.115	0.319
0.308633	303.15	3.981	0.308
0.394538	303.15	3.811	0.295
0.494645	303.15	3.522	0.273
0.603595	303.15	3.026	0.234
0.668212	303.15	2.577	0.2
0.721027	303.15	2.07	0.16
0.759967	303.15	1.582	0.123
0.782351	303.15	1.279	0.099
0.806508	303.15	0.934	0.073
0	313.15	7.385	0.572
0.017145	313.15	7.376	0.572
0.021168	313.15	7.375	0.571
0.029074	313.15	7.372	0.571
0.05253	313.15	7.358	0.57
0.077956	313.15	7.339	0.569
0.111849	313.15	7.307	0.566
0.208962	313.15	7.161	0.555
0.308633	313.15	6.935	0.537
0.394538	313.15	6.653	0.515
0.494645	313.15	6.173	0.478
0.603595	313.15	5.338	0.414
0.668212	313.15	4.576	0.355
0.721027	313.15	3.717	0.288
0.759967	313.15	2.881	0.223
0.782351	313.15	2.352	0.182
0.806508	313.15	1.75	0.136
0	323.15	12.352	0.957
0.017145	323.15	12.339	0.957
0.021168	323.15	12.336	0.956
0.029074	323.15	12.331	0.955
0.05253	323.15	12.309	0.954
0.077956	323.15	12.278	0.951
0.111849	323.15	12.223	0.947
0.208962	323.15	11.986	0.929
0.308633	323.15	11.62	0.9
0.394538	323.15	11.173	0.866
0.494645	323.15	10.392	0.805
0.603595	323.15	9.01	0.698
0.668212	323.15	7.799	0.604
0.721027	323.15	6.367	0.493
0.759967	323.15	4.992	0.387
0.782351	323.15	4.12	0.319
0.806508	323.15	3.109	0.241
0	333.15	19.946	1.545
0.017145	333.15	19.926	1.545
0.021168	333.15	19.923	1.543
0.029074	333.15	19.913	1.543
0.05253	333.15	19.878	1.54
0.077956	333.15	19.827	1.536
0.111849	333.15	19.738	1.529
0.208962	333.15	19.355	1.499
0.308633	333.15	18.77	1.454
0.394538	333.15	18.053	1.399
0.494645	333.15	16.796	1.301
0.603595	333.15	14.56	1.128
0.668212	333.15	12.62	0.978
0.721027	333.15	10.338	0.801
0.759967	333.15	8.154	0.632
0.782351	333.15	6.761	0.524
0.806508	333.15	5.13	0.398
0	343.15	31.201	2.417
0.017145	343.15	31.172	2.416
0.021168	343.15	31.167	2.414
0.029074	343.15	31.153	2.413
0.05253	343.15	31.099	2.409
0.077956	343.15	31.018	2.403
0.111849	343.15	30.88	2.392
0.208962	343.15	30.284	2.346
0.308633	343.15	29.383	2.276
0.394538	343.15	28.27	2.19
0.494645	343.15	26.322	2.039
0.603595	343.15	22.828	1.769
0.668212	343.15	19.819	1.536
0.721027	343.15	16.289	1.262
0.759967	343.15	12.936	1.002
0.782351	343.15	10.776	0.835
0.806508	343.15	8.227	0.638
0	353.15	47.414	3.673
0.017145	353.15	47.373	3.671
0.021168	353.15	47.366	3.669
0.029074	353.15	47.344	3.668
0.05253	353.15	47.262	3.661
0.077956	353.15	47.139	3.652
0.111849	353.15	46.929	3.635
0.208962	353.15	46.025	3.565
0.308633	353.15	44.668	3.46
0.394538	353.15	42.986	3.33
0.494645	353.15	40.035	3.102
0.603595	353.15	34.723	2.69
0.668212	353.15	30.177	2.338
0.721027	353.15	24.865	1.927
0.759967	353.15	19.83	1.537
0.782351	353.15	16.569	1.284
0.806508	353.15	12.693	0.984
0	363.15	70.182	5.437
0.017145	363.15	70.126	5.434
0.021168	363.15	70.114	5.431
0.029074	363.15	70.083	5.429
0.05253	363.15	69.96	5.419
0.077956	363.15	69.779	5.405
0.111849	363.15	69.467	5.381
0.208962	363.15	68.13	5.278
0.308633	363.15	66.137	5.124
0.394538	363.15	63.659	4.932
0.494645	363.15	59.301	4.594
0.603595	363.15	51.439	3.985
0.668212	363.15	44.738	3.466
0.721027	363.15	36.938	2.862
0.759967	363.15	29.576	2.292
0.782351	363.15	24.794	1.922
0.806508	363.15	19.068	1.478
0	373.15	101.418	7.856
0.017145	373.15	101.343	7.852
0.021168	373.15	101.326	7.849
0.029074	373.15	101.281	7.846
0.05253	373.15	101.105	7.832
0.077956	373.15	100.842	7.812
0.111849	373.15	100.391	7.777
0.208962	373.15	98.462	7.628
0.308633	373.15	95.612	7.407
0.394538	373.15	92.051	7.131
0.494645	373.15	85.773	6.645
0.603595	373.15	74.405	5.765
0.668212	373.15	64.779	5.019
0.721027	373.15	53.601	4.153
0.759967	373.15	43.113	3.341
0.782351	373.15	36.251	2.81
0.806508	373.15	27.978	2.169
0	383.15	143.379	11.107
0.017145	383.15	143.279	11.101
0.021168	383.15	143.256	11.097
0.029074	383.15	143.192	11.092
0.05253	383.15	142.945	11.073
0.077956	383.15	142.57	11.044
0.111849	383.15	141.933	10.995
0.208962	383.15	139.211	10.784
0.308633	383.15	135.199	10.474
0.394538	383.15	130.184	10.085
0.494645	383.15	121.335	9.4
0.603595	383.15	105.239	8.153
0.668212	383.15	91.679	7.103
0.721027	383.15	75.98	5.887
0.759967	383.15	61.297	4.75
0.782351	383.15	51.676	4.005
0.806508	383.15	39.98	3.099
0	393.15	198.674	15.39
0.017145	393.15	198.544	15.382
0.021168	393.15	198.512	15.377
0.029074	393.15	198.423	15.371
0.05253	393.15	198.082	15.344
0.077956	393.15	197.56	15.304
0.111849	393.15	196.676	15.235
0.208962	393.15	192.904	14.943
0.308633	393.15	187.374	14.515
0.394538	393.15	180.445	13.979
0.494645	393.15	168.194	13.03
0.603595	393.15	145.839	11.299
0.668212	393.15	127.11	9.848
0.721027	393.15	105.53	8.177
0.759967	393.15	85.389	6.617
0.782351	393.15	72.139	5.591
0.806508	393.15	55.97	4.338
0	403.15	270.28	20.937
0.017145	403.15	270.115	20.927
0.021168	403.15	270.072	20.921
0.029074	403.15	269.952	20.911
0.05253	403.15	269.488	20.875
0.077956	403.15	268.776	20.82
0.111849	403.15	267.569	20.727
0.208962	403.15	262.432	20.329
0.308633	403.15	254.957	19.751
0.394538	403.15	245.541	19.022
0.494645	403.15	228.879	17.732
0.603595	403.15	198.424	15.373
0.668212	403.15	173.026	13.406
0.721027	403.15	143.859	11.146
0.759967	403.15	116.739	9.046
0.782351	403.15	98.83	7.659
0.806508	403.15	76.893	5.96
0	413.15	361.539	28.006
0.017145	413.15	361.334	27.993
0.021168	413.15	361.277	27.986
0.029074	413.15	361.117	27.973
0.05253	413.15	360.496	27.925
0.077956	413.15	359.538	27.851
0.111849	413.15	357.918	27.726
0.208962	413.15	351.036	27.193
0.308633	413.15	341.077	26.422
0.394538	413.15	328.477	25.447
0.494645	413.15	306.21	23.722
0.603595	413.15	265.396	20.561
0.668212	413.15	231.523	17.938
0.721027	413.15	192.762	14.936
0.759967	413.15	156.865	12.155
0.782351	413.15	133.132	10.318
0.806508	413.15	103.816	8.047
0	423.15	476.165	36.885
0.017145	423.15	475.907	36.868
0.021168	423.15	475.832	36.859
0.029074	423.15	475.622	36.843
0.05253	423.15	474.802	36.78
0.077956	423.15	473.533	36.681
0.111849	423.15	471.394	36.516
0.208962	423.15	462.286	35.811
0.308633	423.15	449.169	34.796
0.394538	423.15	432.566	33.51
0.494645	423.15	403.173	31.234
0.603595	423.15	349.246	27.058
0.668212	423.15	304.649	23.603
0.721027	423.15	253.823	19.667
0.759967	423.15	206.888	16.031
0.782351	423.15	175.793	13.624
0.806508	423.15	137.375	10.648
0	433.15	618.235	47.89
0.017145	433.15	617.918	47.868
0.021168	433.15	617.82	47.858
0.029074	433.15	617.547	47.837
0.05253	433.15	616.479	47.754
0.077956	433.15	614.818	47.626
0.111849	433.15	612.023	47.409
0.208962	433.15	600.14	46.49
0.308633	433.15	583.13	45.173
0.394538	433.15	561.512	43.499
0.494645	433.15	523.24	40.536
0.603595	433.15	452.961	35.093
0.668212	433.15	395.165	30.616
0.721027	433.15	329.358	25.519
0.759967	433.15	268.98	20.843
0.782351	433.15	228.823	17.733
0.806508	433.15	179.008	13.875
0	443.15	792.187	61.365
0.017145	443.15	791.803	61.338
0.021168	443.15	791.676	61.325
0.029074	443.15	791.326	61.298
0.05253	443.15	789.958	61.192
0.077956	443.15	787.806	61.026
0.111849	443.15	784.21	60.748
0.208962	443.15	768.91	59.563
0.308633	443.15	747.052	57.871
0.394538	443.15	719.296	55.723
0.494645	443.15	670.167	51.918
0.603595	443.15	579.645	44.907
0.668212	443.15	505.569	39.17
0.721027	443.15	421.605	32.666
0.759967	443.15	344.824	26.719
0.782351	443.15	293.661	22.758
0.806508	443.15	230.07	17.833
0	453.15	1002.811	77.68
0.017145	453.15	1002.353	77.648
0.021168	453.15	1002.193	77.632
0.029074	453.15	1001.75	77.598
0.05253	453.15	1000.006	77.463
0.077956	453.15	997.267	77.251
0.111849	453.15	992.665	76.895
0.208962	453.15	973.167	75.386
0.308633	453.15	945.486	73.243
0.394538	453.15	910.196	70.511
0.494645	453.15	847.739	65.675
0.603595	453.15	732.751	56.769
0.668212	453.15	638.949	49.504
0.721027	453.15	533.117	41.306
0.759967	453.15	436.494	33.823
0.782351	453.15	372.287	28.851
0.806508	453.15	291.946	22.629
0	463.15	1255.236	97.233
0.017145	463.15	1254.695	97.193
0.021168	463.15	1254.495	97.176
0.029074	463.15	1253.94	97.133
0.05253	463.15	1251.743	96.963
0.077956	463.15	1248.279	96.695
0.111849	463.15	1242.485	96.247
0.208962	463.15	1217.914	94.345
0.308633	463.15	1183.106	91.651
0.394538	463.15	1138.773	88.218
0.494645	463.15	1060.204	82.134
0.603595	463.15	915.505	70.927
0.668212	463.15	797.995	61.826
0.721027	463.15	666.07	51.608
0.759967	463.15	546.304	42.331
0.782351	463.15	466.213	36.13
0.806508	463.15	366.291	28.391
0	471.15	1490.935	115.49
0.017145	471.15	1490.336	115.444
0.021168	471.15	1490.1	115.426
0.029074	471.15	1489.436	115.375
0.05253	471.15	1486.815	115.172
0.077956	471.15	1482.662	114.851
0.111849	471.15	1475.724	114.314
0.208962	471.15	1446.355	112.041
0.308633	471.15	1405.013	108.84
0.394538	471.15	1352.142	104.747
0.494645	471.15	1258.451	97.492
0.603595	471.15	1085.807	84.121
0.668212	471.15	946.442	73.327
0.721027	471.15	790.183	61.224
0.759967	471.15	649.062	50.293
0.782351	471.15	554.763	42.992
0.806508	471.15	436.297	33.818
