Measured thermophysical data. Study of the Solubility, Supersolubility and Metastable Zone Width of Li2CO3 in the LiCl-NaCl-KCl-Na2SO4 System from 293.15 to 353.15K
Source: J. Chem. Eng. Data, 2018, 10.1021/acs.jced.7b01012
Compound 1: lithium chloride, ClLi, InChI=1S/ClH.Li/h1H;/q;+1/p-1, purity 99%
Compound 2: lithium carbonate, CLi2O3, InChI=1S/CH2O3.2Li/c2-1(3)4;;/h(H2,2,3,4);;/q;2*+1/p-2, purity 99.99%
Compound 3: water, H2O, InChI=1S/H2O/h1H2, purity 99.9%

System: lithium chloride + lithium carbonate + water; phases: Liquid, Crystal
Fixed: Solvent: Mass fraction of lithium chloride = 0.1305
Fixed: Pressure, kPa = 100
Property: Mass fraction of lithium carbonate (Liquid); method: Titration method
Temperature, K	Mass fraction of lithium carbonate	uncertainty
293.15	0.0001886	2e-06
303.15	0.0001777	2e-06
313.15	0.0001668	2e-06
323.15	0.0001647	2e-06
333.15	0.0001586	2e-06
343.15	0.0001575	2e-06
353.15	0.0001579	2e-06

System: lithium carbonate + water; phases: Liquid, Crystal
Fixed: Pressure, kPa = 100
Property: Mass fraction of lithium carbonate (Liquid); method: Titration method
Temperature, K	Mass fraction of lithium carbonate	uncertainty
293.15	0.01342	0.00054
303.15	0.01223	0.00049
313.15	0.01135	0.00045
323.15	0.01087	0.00044
333.15	0.01015	0.00041
343.15	0.00959	0.00038
353.15	0.00864	0.00035
