Measured thermophysical data. Experimental Mutual Solubility Data for Cyclohexane and Water in Aqueous Solutions of Diethanolamine
Source: J. Chem. Eng. Data, 2019, 10.1021/acs.jced.8b01179
Compound 1: diethanolamine, C4H11NO2, InChI=1S/C4H11NO2/c6-3-1-5-2-4-7/h5-7H,1-4H2
Compound 2: cyclohexane, C6H12, InChI=1S/C6H12/c1-2-4-6-5-3-1/h1-6H2
Compound 3: water, H2O, InChI=1S/H2O/h1H2, purity 99.9%

System: cyclohexane + water + diethanolamine; phases: Liquid mixture 1, Liquid mixture 2
Fixed: Pressure, kPa = 100
Property: Mole fraction of cyclohexane (Liquid mixture 1); method: Chromatography
Property: Mole fraction of diethanolamine (Liquid mixture 2); method: Chromatography
Property: Mole fraction of water (Liquid mixture 2); method: Chromatography
Temperature, K	Mole fraction of diethanolamine	Mole fraction of cyclohexane	uncertainty	Mole fraction of diethanolamine	uncertainty	Mole fraction of water	uncertainty
298	0.028921	6.91e-05	6.9713e-06	0.000200524	2.914e-05	0.000378093	
303	0.08112	8.56942e-05	8.9926e-06	0.000210017	5.2556e-05	0.000444082	
313	0.081121	8.81274e-05	9.1909e-06	0.000207605	2.3958e-05	0.000504072	
318	0.081126	9.50624e-05	1.1104e-05	0.000200912	2.047e-05	0.000833883	
298	0.116017	9.64877e-05	1.05423e-05	0.000216966	2.2285e-05	0.000378095	
303	0.116018	9.69946e-05	1.15842e-05	0.000214535	2.6486e-05	0.000408092	
313	0.116021	9.99884e-05	1.20295e-05	0.00021172	0.00021172	0.000540061	
318	0.116023	0.000127788	1.81723e-05	0.000201552	3.0633e-05	0.000702076	
298	0.136566	0.000103431	1.1365e-05	0.000293213	0.000144078	0.000426056	
303	0.136552	0.000118347	1.55157e-05	0.000293845	4.9924e-05	0.000468077	
313	0.136559	0.000118739	2.6295e-05	0.000285584	3.9609e-05	0.000528061	
303	0.028921	6.8959e-05	6.9614e-06	0.000201263	2.528e-05	0.000402088	
318	0.136564	0.000157446	2.5304e-05	0.000275284	0.000275284	0.000804035	
313	0.028922	7.1492e-05	7.232e-06	0.000194481	2.1356e-05	0.000438091	
318	0.028923	7.4193e-05	7.534e-06	0.000193701	2.9528e-05	0.000677992	
298	0.052625	7.55117e-05	7.7076e-06	0.000207391	2.3193e-05	0.00037809	
303	0.052626	7.62678e-05	7.8296e-06	0.000203572	0.000178801	0.000438082	
313	0.052626	8.00218e-05	8.192e-06	0.000206205	0.000180716	0.00051007	
318	0.052629	8.40091e-05	8.6815e-06	0.000201437	0.000201437	0.000821881	
298	0.081119	8.34723e-05	8.792e-06	0.000213906	6.7435e-05	0.000402084	
