Measured thermophysical data. Computation of Liquid Isothermal Compressibility from Density Measurements: An Application to Toluene
Source: J. Chem. Eng. Data, 2018, 10.1021/acs.jced.8b00148
Compound 1: toluene, C7H8, InChI=1S/C7H8/c1-7-5-3-2-4-6-7/h2-6H,1H3

System: toluene; phases: Liquid
Property: Mass density, kg/m3 (Liquid); method: Vibrating tube method
Pressure, kPa	Temperature, K	Mass density, kg/m3	uncertainty
101.3	293.15	867.1	0.5
2000	293.15	868.3	0.5
4000	293.15	869.8	0.5
6000	293.15	871.2	0.5
10000	293.15	874.1	0.5
20000	293.15	880.9	0.6
30000	293.15	887.2	0.6
40000	293.15	893.2	0.6
50000	293.15	898.8	0.6
60000	293.15	904.1	0.6
70000	293.15	909.2	0.6
80000	293.15	914.1	0.6
90000	293.15	918.7	0.6
94000	293.15	920.5	0.6
96000	293.15	921.4	0.6
98000	293.15	922.3	0.6
100000	293.15	923.2	0.6
101.3	323.15	838.8	0.5
2000	323.15	840.3	0.5
4000	323.15	842.1	0.5
6000	323.15	843.8	0.5
10000	323.15	847.3	0.5
20000	323.15	855.2	0.6
30000	323.15	862.6	0.6
40000	323.15	869.4	0.6
50000	323.15	875.8	0.6
60000	323.15	881.8	0.6
70000	323.15	887.5	0.6
80000	323.15	893	0.7
90000	323.15	898.1	0.7
94000	323.15	900.1	0.7
96000	323.15	901	0.7
98000	323.15	902	0.7
100000	323.15	902.9	0.7
101.3	303.15	857.7	0.5
2000	303.15	858.8	0.5
4000	303.15	860.4	0.5
6000	303.15	861.9	0.5
10000	303.15	865.1	0.5
20000	303.15	872.3	0.6
30000	303.15	879	0.6
40000	303.15	885.2	0.6
50000	303.15	891	0.6
60000	303.15	896.7	0.6
70000	303.15	901.9	0.6
80000	303.15	907	0.6
90000	303.15	911.8	0.6
94000	303.15	913.6	0.7
96000	303.15	914.4	0.7
98000	303.15	915.3	0.7
100000	303.15	916.5	0.7
101.3	333.15	829	0.5
2000	333.15	830.9	0.5
4000	333.15	832.8	0.5
6000	333.15	834.7	0.5
10000	333.15	838.3	0.5
20000	333.15	846.8	0.5
30000	333.15	854.4	0.6
40000	333.15	861.6	0.6
50000	333.15	868.2	0.6
60000	333.15	874.5	0.6
70000	333.15	880.4	0.6
80000	333.15	885.9	0.7
90000	333.15	891.3	0.7
94000	333.15	893.3	0.7
96000	333.15	894.4	0.7
98000	333.15	895.4	0.7
100000	333.15	896.3	0.7
101.3	313.15	848.1	0.5
2000	313.15	849.4	0.5
4000	313.15	851.1	0.5
6000	313.15	852.8	0.5
10000	313.15	856.3	0.5
20000	313.15	863.8	0.6
30000	313.15	870.8	0.6
40000	313.15	877.5	0.6
50000	313.15	883.4	0.6
60000	313.15	889.2	0.6
70000	313.15	894.7	0.6
80000	313.15	899.9	0.6
90000	313.15	904.9	0.7
94000	313.15	906.6	0.7
96000	313.15	907.5	0.7
98000	313.15	908.5	0.7
100000	313.15	909.7	0.7
101.3	343.15	819.4	0.5
2000	343.15	821.4	0.5
4000	343.15	823.4	0.5
6000	343.15	825.4	0.5
10000	343.15	829.2	0.5
20000	343.15	838.2	0.5
30000	343.15	846.3	0.6
40000	343.15	853.8	0.6
50000	343.15	860.7	0.6
60000	343.15	867.2	0.6
70000	343.15	873.4	0.7
80000	343.15	879.2	0.7
90000	343.15	884.7	0.7
94000	343.15	886.7	0.7
96000	343.15	887.8	0.7
98000	343.15	888.8	0.7
100000	343.15	889.8	0.7
8000	298.15	872.6	0.5
12000	298.15	875.5	0.5
14000	298.15	876.9	0.5
16000	298.15	878.2	0.6
18000	298.15	879.6	0.6
22000	298.15	882.2	0.6
24000	298.15	883.5	0.6
26000	298.15	884.7	0.6
28000	298.15	886	0.6
32000	298.15	888.5	0.6
34000	298.15	889.6	0.6
36000	298.15	890.8	0.6
38000	298.15	892	0.6
42000	298.15	894.3	0.6
44000	298.15	895.4	0.6
46000	298.15	896.5	0.6
48000	298.15	897.7	0.6
52000	298.15	899.8	0.6
54000	298.15	900.9	0.6
56000	298.15	902	0.6
58000	298.15	903.1	0.6
62000	298.15	905.2	0.6
64000	298.15	906.2	0.6
66000	298.15	907.2	0.6
68000	298.15	908.2	0.6
72000	298.15	910.2	0.6
74000	298.15	911.2	0.6
76000	298.15	912.2	0.6
78000	298.15	913.1	0.6
82000	298.15	915	0.6
84000	298.15	915.9	0.6
86000	298.15	916.9	0.6
88000	298.15	917.8	0.6
92000	298.15	919.6	0.6
