Measured thermophysical data. Solubilities of Palmitic Acid + Capsaicin in Supercritical Carbon Dioxide
Source: J. Chem. Eng. Data, 2017, 10.1021/acs.jced.7b00576
Compound 1: carbon dioxide, CO2, InChI=1S/CO2/c2-1-3, purity 99.995%
Compound 2: naphthalene, C10H8, InChI=1S/C10H8/c1-2-6-10-8-4-3-7-9(10)5-1/h1-8H, purity 99.8%
Compound 3: phenanthrene, C14H10, InChI=1S/C14H10/c1-3-7-13-11(5-1)9-10-12-6-2-4-8-14(12)13/h1-10H, purity 99.6%
Compound 4: hexadecanoic acid, C16H32O2, InChI=1S/C16H32O2/c1-2-3-4-5-6-7-8-9-10-11-12-13-14-15-16(17)18/h2-15H2,1H3,(H,17,18), purity 99%
Compound 5: capsaicin, C18H27NO3, InChI=1S/C18H27NO3/c1-14(2)8-6-4-5-7-9-18(21)19-13-15-10-11-16(20)17(12-15)22-3/h6,8,10-12,14,20H,4-5,7,9,13H2,1-3H3,(H,19,21)/b8-6+, purity 96%

System: carbon dioxide + naphthalene; phases: Fluid (supercritical or subcritical phases), Crystal
Property: Mole fraction of naphthalene (Fluid (supercritical or subcritical phases)); method: UV spectroscopy
Temperature, K	Pressure, kPa	Mole fraction of naphthalene	uncertainty
308.15	8500	0.0078	0.0006
308.15	9510	0.0092	0.0006
308.15	11020	0.0112	0.0006
308.15	12520	0.013	0.0006
308.15	13710	0.0141	0.0006
308.15	15050	0.015	0.0006
308.15	16570	0.016	0.0006
308.15	18080	0.0167	0.0006
308.15	19590	0.0171	0.0006
308.15	21030	0.0174	0.0006
308.15	23120	0.0177	0.0006
308.15	25130	0.0178	0.0006
308.15	27650	0.018	0.0006
308.15	30160	0.0181	0.0006
308.15	32690	0.0183	0.0006
308.15	35170	0.0183	0.0006
328.15	11130	0.0072	0.0006
328.15	12510	0.0146	0.0006
328.15	14040	0.0222	0.0006
328.15	15050	0.0268	0.0006
328.15	16040	0.0305	0.0006
328.15	17060	0.0333	0.0006
328.15	18060	0.0365	0.0006
328.15	19090	0.0386	0.0006
328.15	20520	0.0417	0.0006
328.15	22090	0.0446	0.0006
328.15	23530	0.0473	0.0006
328.15	25070	0.0502	0.0006
328.15	27100	0.052	0.0006
328.15	30090	0.0533	0.0006
328.15	33120	0.0539	0.0006
328.15	36140	0.0541	0.0006
328.15	39140	0.0545	0.0006

System: carbon dioxide + naphthalene + phenanthrene; phases: Fluid (supercritical or subcritical phases), Crystal, Crystal
Fixed: Temperature, K = 308.15
Property: Mole fraction of naphthalene (Fluid (supercritical or subcritical phases)); method: UV spectroscopy
Pressure, kPa	Mole fraction of naphthalene	uncertainty
10150	0.0133	0.0133
15220	0.0173	0.0173
20300	0.0195	0.0184
25280	0.0214	0.0172
30130	0.0228	0.0164
35220	0.0231	0.0163

System: carbon dioxide + naphthalene + phenanthrene; phases: Fluid (supercritical or subcritical phases), Crystal, Crystal
Property: Mole fraction of phenanthrene (Fluid (supercritical or subcritical phases)); method: UV spectroscopy
Temperature, K	Pressure, kPa	Mole fraction of phenanthrene	uncertainty
308.15	10150	0.0016	0.0016
308.15	15220	0.002	0.002
308.15	20300	0.0022	0.0022
308.15	25280	0.0031	0.0031
308.15	30130	0.0032	0.0032
308.15	35220	0.0033	0.0033
328.15	10130	0.0013	0.0013
328.15	15240	0.0055	0.0055
328.15	20300	0.0085	0.0085
328.15	25320	0.0115	0.0115
328.15	30360	0.0134	0.0106
328.15	35130	0.0159	0.0094

System: carbon dioxide + naphthalene + phenanthrene; phases: Fluid (supercritical or subcritical phases), Liquid
Fixed: Temperature, K = 328.15
Fixed: Solvent: Mole fraction of naphthalene = 0.5
Property: Mole fraction of naphthalene (Fluid (supercritical or subcritical phases)); method: UV spectroscopy
Pressure, kPa	Mole fraction of naphthalene	uncertainty
10130	0.0123	0.0005
15240	0.022	0.0005
20300	0.0292	0.0005
25320	0.0347	0.0005
30360	0.0384	0.0005
35130	0.042	0.0006

System: carbon dioxide + naphthalene + phenanthrene; phases: Fluid (supercritical or subcritical phases), Liquid
Fixed: Temperature, K = 328.15
Fixed: Solvent: Mole fraction of naphthalene = 0.5
Property: Mole fraction of phenanthrene (Fluid (supercritical or subcritical phases)); method: UV spectroscopy
Pressure, kPa	Mole fraction of phenanthrene	uncertainty
10130	0.0013	0.0002
15240	0.0055	0.0002
20300	0.0085	0.0002
25320	0.0115	0.0002
30360	0.0134	0.0002
35130	0.0159	0.0002

System: carbon dioxide + hexadecanoic acid + capsaicin; phases: Fluid (supercritical or subcritical phases), Crystal, Crystal
Fixed: Temperature, K = 308.15
Property: Mole fraction of hexadecanoic acid (Fluid (supercritical or subcritical phases)); method: UV spectroscopy
Pressure, kPa	Mole fraction of hexadecanoic acid	uncertainty
10270	0.000192	0.000192
12190	0.000267	0.000267
14290	0.000371	0.000371
16340	0.000425	0.000425
18130	0.000466	0.000466
20150	0.000483	0.000483
22230	0.000559	0.000559
24370	0.000574	0.000574
26370	0.000624	0.000624
28400	0.000672	0.000672
30220	0.000724	0.000724
32410	0.000753	0.000753
35030	0.000824	0.000824

System: carbon dioxide + hexadecanoic acid + capsaicin; phases: Fluid (supercritical or subcritical phases), Crystal, Crystal
Property: Mole fraction of capsaicin (Fluid (supercritical or subcritical phases)); method: UV spectroscopy
Temperature, K	Pressure, kPa	Mole fraction of capsaicin	uncertainty
308.15	10270	3.2e-05	5e-05
308.15	12190	4.5e-05	5e-05
308.15	14290	4e-05	5e-05
308.15	16340	6.2e-05	5e-05
308.15	18130	8.7e-05	5e-05
308.15	20150	9e-05	5e-05
308.15	22230	0.000109	5e-05
308.15	24370	9.8e-05	5e-05
308.15	26370	0.000107	5e-05
308.15	28400	0.000126	5e-05
308.15	30220	0.000123	5e-05
308.15	32410	0.000126	5e-05
308.15	35030	0.000142	5e-05
328.15	10350	6.1e-05	5e-05
328.15	12310	0.000105	5e-05
328.15	14310	0.000192	5e-05
328.15	16370	0.000224	5e-05
328.15	18140	0.000252	5e-05
328.15	20270	0.000306	5e-05
328.15	22180	0.00033	5e-05
328.15	24380	0.000378	5e-05
328.15	26400	0.000418	5e-05
328.15	28180	0.000453	5e-05
328.15	30400	0.000474	5e-05
328.15	32390	0.000509	5e-05
328.15	35260	0.000529	5e-05

System: carbon dioxide + hexadecanoic acid + capsaicin; phases: Fluid (supercritical or subcritical phases), Liquid
Fixed: Temperature, K = 328.15
Fixed: Solvent: Mole fraction of hexadecanoic acid = 0.5
Property: Mole fraction of hexadecanoic acid (Fluid (supercritical or subcritical phases)); method: UV spectroscopy
Pressure, kPa	Mole fraction of hexadecanoic acid	uncertainty
10350	0.000436	4.4e-05
12310	0.000526	5.3e-05
14310	0.000938	9.4e-05
16370	0.001014	0.000102
18140	0.001513	0.000152
20270	0.002758	0.000277
22180	0.004775	0.000479
24380	0.007274	0.000729
26400	0.008656	0.000867
28180	0.009868	0.000988
30400	0.011646	0.001167
32390	0.012957	0.001298
35260	0.015374	0.00154

System: carbon dioxide + hexadecanoic acid + capsaicin; phases: Fluid (supercritical or subcritical phases), Liquid
Fixed: Temperature, K = 328.15
Fixed: Solvent: Mole fraction of hexadecanoic acid = 0.5
Property: Mole fraction of capsaicin (Fluid (supercritical or subcritical phases)); method: UV spectroscopy
Pressure, kPa	Mole fraction of capsaicin	uncertainty
10350	6.1e-05	5e-05
12310	0.000105	5e-05
14310	0.000192	5e-05
16370	0.000224	5e-05
18140	0.000252	5e-05
20270	0.000306	5e-05
22180	0.00033	5e-05
24380	0.000378	5e-05
26400	0.000418	5e-05
28180	0.000453	5e-05
30400	0.000474	5e-05
32390	0.000509	5e-05
35260	0.000529	5e-05
