Measured thermophysical data. Measurement and Modeling of Solid Liquid Equilibrium of para-tert-Butylbenzoic Acid in Acetic Acid/Methanol + Water and Acetic Acid + para-tert-Butyltoluene Binary Systems at Various Temperatures
Source: J. Chem. Eng. Data, 2017, 10.1021/acs.jced.6b00464
Compound 1: acetic acid, C2H4O2, InChI=1S/C2H4O2/c1-2(3)4/h1H3,(H,3,4), purity 99.5%
Compound 2: 4-(1,1-dimethylethyl)benzoic acid, C11H14O2, InChI=1S/C11H14O2/c1-11(2,3)9-6-4-8(5-7-9)10(12)13/h4-7H,1-3H3,(H,12,13), purity 99%
Compound 3: water, H2O, InChI=1S/H2O/h1H2, purity 99.8%
Compound 4: methanol, CH4O, InChI=1S/CH4O/c1-2/h2H,1H3, purity 99.5%
Compound 5: 1-(1,1-dimethylethyl)-4-methylbenzene, C11H16, InChI=1S/C11H16/c1-9-5-7-10(8-6-9)11(2,3)4/h5-8H,1-4H3, purity 95%
Compound 6: ethanol, C2H6O, InChI=1S/C2H6O/c1-2-3/h3H,2H2,1H3, purity 99.5%
Compound 7: benzoic acid, C7H6O2, InChI=1S/C7H6O2/c8-7(9)6-4-2-1-3-5-6/h1-5H,(H,8,9), purity 99.5%
Compound 8: toluene, C7H8, InChI=1S/C7H8/c1-7-5-3-2-4-6-7/h2-6H,1H3, purity 99.5%

System: acetic acid + 4-(1,1-dimethylethyl)benzoic acid + water; phases: Liquid, Crystal
Fixed: Pressure, kPa = 94.64
Property: Mole fraction of 4-(1,1-dimethylethyl)benzoic acid (Liquid); method: gravimetric
Temperature, K	Solvent: Mole fraction of acetic acid	Mole fraction of 4-(1,1-dimethylethyl)benzoic acid	uncertainty
293.15	0.0323	7.1e-05	3e-06
298.15	0.0323	8.4e-05	3e-06
303.15	0.0323	9.7e-05	4e-06
308.15	0.0323	0.000117	5e-06
313.15	0.0323	0.000132	5e-06
318.15	0.0323	0.000154	6e-06
323.15	0.0323	0.000174	7e-06
328.15	0.0323	0.000198	8e-06
333.15	0.0323	0.000228	9e-06
293.15	0.0698	9.3e-05	4e-06
298.15	0.0698	0.000116	5e-06
303.15	0.0698	0.000134	5e-06
308.15	0.0698	0.000154	6e-06
313.15	0.0698	0.000178	7e-06
318.15	0.0698	0.00021	9e-06
323.15	0.0698	0.000235	1e-05
328.15	0.0698	0.00027	1.1e-05
333.15	0.0698	0.000315	1.3e-05
293.15	0.1139	0.000141	6e-06
298.15	0.1139	0.000164	7e-06
303.15	0.1139	0.000189	8e-06
308.15	0.1139	0.000214	9e-06
313.15	0.1139	0.000249	1e-05
318.15	0.1139	0.000291	1.2e-05
323.15	0.1139	0.000337	1.4e-05
328.15	0.1139	0.000391	1.6e-05
333.15	0.1139	0.000446	1.8e-05
293.15	0.1667	0.000248	1e-05
298.15	0.1667	0.000293	1.2e-05
303.15	0.1667	0.000349	1.4e-05
308.15	0.1667	0.000402	1.7e-05
313.15	0.1667	0.000475	1.9e-05
318.15	0.1667	0.000541	2.2e-05
323.15	0.1667	0.000619	2.5e-05
328.15	0.1667	0.00069	2.8e-05
333.15	0.1667	0.000769	3.2e-05
293.15	0.2308	0.000506	2.1e-05
298.15	0.2308	0.000617	2.5e-05
303.15	0.2308	0.000736	3e-05
308.15	0.2308	0.000859	3.5e-05
313.15	0.2308	0.000977	4e-05
318.15	0.2308	0.001102	4.5e-05
323.15	0.2308	0.001259	5.1e-05
328.15	0.2308	0.001444	5.9e-05
333.15	0.2308	0.001628	6.7e-05
293.15	0.3103	0.00124	5e-05
298.15	0.3103	0.001459	5.9e-05
303.15	0.3103	0.001678	6.8e-05
308.15	0.3103	0.00197	8e-05
313.15	0.3103	0.002246	9.1e-05
318.15	0.3103	0.002561	0.000103
323.15	0.3103	0.002912	0.000117
328.15	0.3103	0.003192	0.000129
333.15	0.3103	0.003498	0.000141

System: methanol + 4-(1,1-dimethylethyl)benzoic acid + water; phases: Liquid, Crystal
Fixed: Pressure, kPa = 94.64
Property: Mole fraction of 4-(1,1-dimethylethyl)benzoic acid (Liquid); method: gravimetric
Temperature, K	Solvent: Mole fraction of methanol	Mole fraction of 4-(1,1-dimethylethyl)benzoic acid	uncertainty
293.15	0.0589	1.8e-05	1e-06
298.15	0.0589	2.8e-05	1e-06
303.15	0.0589	4.7e-05	2e-06
308.15	0.0589	7.7e-05	3e-06
313.15	0.0589	0.000122	5e-06
318.15	0.0589	0.000188	8e-06
323.15	0.0589	0.00029	1.2e-05
328.15	0.0589	0.000444	1.8e-05
293.15	0.1234	2.9e-05	1e-06
298.15	0.1234	4.6e-05	2e-06
303.15	0.1234	7e-05	3e-06
308.15	0.1234	0.000102	4e-06
313.15	0.1234	0.000151	6e-06
318.15	0.1234	0.000224	9e-06
323.15	0.1234	0.000344	1.4e-05
328.15	0.1234	0.000479	1.9e-05
293.15	0.1945	4.7e-05	2e-06
298.15	0.1945	7.1e-05	3e-06
303.15	0.1945	0.000106	4e-06
308.15	0.1945	0.000149	6e-06
313.15	0.1945	0.000203	8e-06
318.15	0.1945	0.000296	1.2e-05
323.15	0.1945	0.000436	1.8e-05
328.15	0.1945	0.000581	2.5e-05
293.15	0.273	0.00016	7e-06
298.15	0.273	0.00023	1e-05
303.15	0.273	0.000325	1.4e-05
308.15	0.273	0.00044	1.8e-05
313.15	0.273	0.00061	2.5e-05
318.15	0.273	0.000802	3.3e-05
323.15	0.273	0.001019	4.2e-05
328.15	0.273	0.001345	5.6e-05
293.15	0.3603	0.00059	2.4e-05
298.15	0.3603	0.000742	3.1e-05
303.15	0.3603	0.001002	4.1e-05
308.15	0.3603	0.00128	5.3e-05
313.15	0.3603	0.001595	6.5e-05
318.15	0.3603	0.001932	7.9e-05
323.15	0.3603	0.002353	9.6e-05
328.15	0.3603	0.002958	0.000123
293.15	0.458	0.001747	7.1e-05
298.15	0.458	0.002125	8.6e-05
303.15	0.458	0.002674	0.000108
308.15	0.458	0.003405	0.000138
313.15	0.458	0.004195	0.00017
318.15	0.458	0.005073	0.000205
323.15	0.458	0.005983	0.000242
328.15	0.458	0.007229	0.000292

System: acetic acid + 1-(1,1-dimethylethyl)-4-methylbenzene + 4-(1,1-dimethylethyl)benzoic acid; phases: Liquid, Crystal
Fixed: Pressure, kPa = 94.64
Property: Mole fraction of 4-(1,1-dimethylethyl)benzoic acid (Liquid); method: gravimetric
Temperature, K	Solvent: Mole fraction of acetic acid	Mole fraction of 4-(1,1-dimethylethyl)benzoic acid	uncertainty
293.15	0.2151	0.069	0.003
298.15	0.2151	0.081	0.003
303.15	0.2151	0.094	0.004
308.15	0.2151	0.109	0.004
313.15	0.2151	0.126	0.005
318.15	0.2151	0.142	0.006
323.15	0.2151	0.163	0.007
328.15	0.2151	0.181	0.007
333.15	0.2151	0.203	0.008
293.15	0.3814	0.171	0.007
298.15	0.3814	0.187	0.008
303.15	0.3814	0.208	0.008
308.15	0.3814	0.227	0.009
313.15	0.3814	0.247	0.01
318.15	0.3814	0.265	0.011
323.15	0.3814	0.291	0.012
328.15	0.3814	0.31	0.012
333.15	0.3814	0.332	0.013
293.15	0.5139	0.149	0.006
298.15	0.5139	0.165	0.007
303.15	0.5139	0.187	0.008
308.15	0.5139	0.206	0.008
313.15	0.5139	0.225	0.009
318.15	0.5139	0.244	0.01
323.15	0.5139	0.267	0.011
328.15	0.5139	0.287	0.012
333.15	0.5139	0.311	0.012
293.15	0.6218	0.121	0.005
298.15	0.6218	0.137	0.006
303.15	0.6218	0.159	0.006
308.15	0.6218	0.177	0.007
313.15	0.6218	0.199	0.008
318.15	0.6218	0.219	0.009
323.15	0.6218	0.241	0.01
328.15	0.6218	0.259	0.01
333.15	0.6218	0.282	0.011
293.15	0.7115	0.103	0.004
298.15	0.7115	0.117	0.005
303.15	0.7115	0.135	0.005
308.15	0.7115	0.153	0.006
313.15	0.7115	0.172	0.007
318.15	0.7115	0.19	0.008
323.15	0.7115	0.214	0.009
328.15	0.7115	0.234	0.009
333.15	0.7115	0.254	0.01
293.15	0.7872	0.091	0.004
298.15	0.7872	0.104	0.004
303.15	0.7872	0.12	0.005
308.15	0.7872	0.134	0.005
313.15	0.7872	0.149	0.006
318.15	0.7872	0.164	0.007
323.15	0.7872	0.186	0.007
328.15	0.7872	0.209	0.008
333.15	0.7872	0.229	0.009
293.15	0.301	0.133	0.005
298.15	0.301	0.15	0.006
303.15	0.301	0.17	0.007
308.15	0.301	0.189	0.008
313.15	0.301	0.208	0.008
318.15	0.301	0.229	0.009
323.15	0.301	0.251	0.01
328.15	0.301	0.271	0.011
333.15	0.301	0.297	0.012

System: ethanol + benzoic acid; phases: Liquid, Crystal
Fixed: Pressure, kPa = 94.64
Property: Mole fraction of benzoic acid (Liquid); method: gravimetric
Temperature, K	Mole fraction of benzoic acid	uncertainty
278.15	0.13	0.005
283.15	0.14	0.006
293.15	0.165	0.007
303.15	0.195	0.008
313.15	0.236	0.009
323.15	0.275	0.011

System: ethanol + benzoic acid + toluene; phases: Liquid, Crystal
Fixed: Solvent: Mass fraction of ethanol = 0.5
Fixed: Pressure, kPa = 94.64
Property: Mole fraction of benzoic acid (Liquid); method: gravimetric
Temperature, K	Mole fraction of benzoic acid	uncertainty
278.15	0.11	0.004
283.15	0.12	0.005
293.15	0.146	0.006
303.15	0.173	0.007
313.15	0.202	0.008
323.15	0.244	0.01
