Measured thermophysical data. Equilibrium Data for Aqueous Two-Phase Systems Formed by Ionic Liquid (1-Butyl-3-methylimidazolium Methanesulfonate, 1-Butyl-3-methylimidazolium Chloride, and 1-Ethyl-3-methylimidazolium Chloride) and Inorganic Salts (Dibasic Potassium Phosphate and Tripotassium Phosphate) at 298.15 K
Source: J. Chem. Eng. Data, 2019, 10.1021/acs.jced.9b00055
Compound 1: 1-ethyl-3-methylimidazolium chloride, C6H11ClN2, InChI=1S/C6H11N2.ClH/c1-3-8-5-4-7(2)6-8;/h4-6H,3H2,1-2H3;1H/q+1;/p-1, purity 98%
Compound 2: 1-butyl-3-methylimidazolium chloride, C8H15ClN2, InChI=1S/C8H15N2.ClH/c1-3-4-5-10-7-6-9(2)8-10;/h6-8H,3-5H2,1-2H3;1H/q+1;/p-1, purity 98%
Compound 3: 1-butyl-3-methylimidazolium methanesulfonate, C9H18N2O3S, InChI=1S/C8H15N2.CH4O3S/c1-3-4-5-10-7-6-9(2)8-10;1-5(2,3)4/h6-8H,3-5H2,1-2H3;1H3,(H,2,3,4)/q+1;/p-1, purity 95%
Compound 4: tripotassium phosphate, K3O4P, InChI=1S/3K.H3O4P/c;;;1-5(2,3)4/h;;;(H3,1,2,3,4)/q3*+1;/p-3, purity 99%
Compound 5: dipotassium hydrogen phosphate, HK2O4P, InChI=1S/2K.H3O4P/c;;1-5(2,3)4/h;;(H3,1,2,3,4)/q2*+1;/p-2, purity 99%
Compound 6: water, H2O, InChI=1S/H2O/h1H2, purity 99.8%

System: 1-ethyl-3-methylimidazolium chloride + tripotassium phosphate + water; phases: Liquid mixture 1, Liquid mixture 2
Fixed: Pressure, kPa = 101.5
Fixed: Temperature, K = 298.15
Property: Mass fraction of tripotassium phosphate (Liquid mixture 1); method: Titration method
Mass fraction of 1-ethyl-3-methylimidazolium chloride	Mass fraction of tripotassium phosphate	uncertainty
0.4253	0.021	0.0008
0.4011	0.0231	0.0009
0.3745	0.0278	0.0011
0.3479	0.0344	0.0014
0.3215	0.0424	0.0017
0.2987	0.0493	0.002
0.271	0.0603	0.0024
0.2528	0.0667	0.0027
0.2318	0.0764	0.0031
0.2118	0.0856	0.0034
0.176	0.103	0.0041
0.1624	0.1098	0.0044
0.1508	0.1156	0.0046
0.1374	0.1235	0.0049
0.1278	0.1296	0.0052
0.1185	0.1358	0.0054
0.1109	0.1409	0.0056
0.1042	0.1452	0.0058
0.0968	0.15	0.006
0.0843	0.1586	0.0063
0.0756	0.164	0.0066
0.0683	0.1706	0.0068
0.0623	0.1762	0.007
0.0567	0.1814	0.0073

System: 1-ethyl-3-methylimidazolium chloride + dipotassium hydrogen phosphate + water; phases: Liquid mixture 1, Liquid mixture 2
Fixed: Pressure, kPa = 101.5
Fixed: Temperature, K = 298.15
Property: Mass fraction of dipotassium hydrogen phosphate (Liquid mixture 1); method: Titration method
Mass fraction of 1-ethyl-3-methylimidazolium chloride	Mass fraction of dipotassium hydrogen phosphate	uncertainty
0.4391	0.0151	0.0006
0.4054	0.0209	0.0008
0.3761	0.0259	0.001
0.3504	0.0301	0.0012
0.3305	0.0341	0.0014
0.3018	0.0415	0.0017
0.2751	0.0497	0.002
0.2502	0.0581	0.0023
0.229	0.0689	0.0028
0.207	0.0801	0.0032
0.1831	0.0905	0.0036
0.1642	0.1024	0.0041
0.1471	0.1138	0.0046
0.131	0.1239	0.005
0.1164	0.1351	0.0054
0.1029	0.1459	0.0058
0.0922	0.1546	0.0062
0.0849	0.1605	0.0064
0.0682	0.1731	0.0069
0.0548	0.1884	0.0075

System: 1-butyl-3-methylimidazolium chloride + tripotassium phosphate + water; phases: Liquid mixture 1, Liquid mixture 2
Fixed: Pressure, kPa = 101.5
Fixed: Temperature, K = 298.15
Property: Mass fraction of tripotassium phosphate (Liquid mixture 1); method: Titration method
Mass fraction of 1-butyl-3-methylimidazolium chloride	Mass fraction of tripotassium phosphate	uncertainty
0.6039	0.011	0.0004
0.5722	0.0139	0.0006
0.5286	0.0193	0.0008
0.4959	0.0242	0.001
0.4469	0.0272	0.0011
0.4134	0.0353	0.0014
0.3852	0.0422	0.0017
0.3669	0.0458	0.0018
0.3436	0.0534	0.0021
0.3214	0.0597	0.0024
0.2958	0.0685	0.0027
0.2739	0.0759	0.003
0.2533	0.0818	0.0033
0.2354	0.0904	0.0036
0.2162	0.0995	0.004
0.199	0.1097	0.0044
0.1865	0.117	0.0047
0.173	0.1244	0.005
0.1601	0.1322	0.0053
0.1484	0.1361	0.0054
0.1244	0.1474	0.0059
0.1065	0.159	0.0064
0.0989	0.1633	0.0065
0.0985	0.1638	0.0066
0.0916	0.1692	0.0068
0.0849	0.1754	0.007
0.0774	0.1817	0.0073
0.0729	0.1843	0.0074
0.0675	0.1863	0.0075
0.0623	0.1893	0.0076
0.0541	0.1977	0.0079

System: 1-butyl-3-methylimidazolium chloride + dipotassium hydrogen phosphate + water; phases: Liquid mixture 1, Liquid mixture 2
Fixed: Pressure, kPa = 101.5
Fixed: Temperature, K = 298.15
Property: Mass fraction of dipotassium hydrogen phosphate (Liquid mixture 1); method: Titration method
Mass fraction of 1-butyl-3-methylimidazolium chloride	Mass fraction of dipotassium hydrogen phosphate	uncertainty
0.6419	0.0101	0.0004
0.5573	0.0132	0.0005
0.5204	0.0164	0.0007
0.4857	0.0192	0.0008
0.4445	0.0246	0.001
0.4097	0.0323	0.0013
0.3786	0.0389	0.0016
0.3497	0.0469	0.0019
0.315	0.0597	0.0024
0.2858	0.0677	0.0027
0.257	0.0791	0.0032
0.2325	0.0881	0.0035
0.2007	0.1109	0.0044
0.1736	0.1302	0.0052
0.1494	0.1463	0.0059
0.1269	0.1623	0.0065
0.1118	0.1756	0.007
0.0938	0.1926	0.0077
0.083	0.2275	0.0091

System: 1-butyl-3-methylimidazolium methanesulfonate + tripotassium phosphate + water; phases: Liquid mixture 1, Liquid mixture 2
Fixed: Pressure, kPa = 101.5
Fixed: Temperature, K = 298.15
Property: Mass fraction of tripotassium phosphate (Liquid mixture 1); method: Titration method
Mass fraction of 1-butyl-3-methylimidazolium methanesulfonate	Mass fraction of tripotassium phosphate	uncertainty
0.6943	0.0109	0.0004
0.6048	0.0143	0.0006
0.5524	0.0174	0.0007
0.5059	0.0239	0.001
0.4597	0.0325	0.0013
0.4167	0.0426	0.0017
0.3761	0.0562	0.0022
0.3371	0.0689	0.0028
0.2998	0.0802	0.0032
0.261	0.1006	0.004
0.2275	0.1181	0.0047
0.1994	0.1333	0.0053
0.1745	0.1469	0.0059
0.1558	0.1582	0.0063
0.1387	0.168	0.0067
0.1248	0.1758	0.007
0.1131	0.1815	0.0073
0.1017	0.1896	0.0076
0.0899	0.1988	0.008
0.0808	0.2066	0.0083
0.0715	0.2144	0.0086
0.0642	0.2206	0.0088
0.0574	0.2257	0.009
0.0502	0.2319	0.0093

System: 1-butyl-3-methylimidazolium methanesulfonate + dipotassium hydrogen phosphate + water; phases: Liquid mixture 1, Liquid mixture 2
Fixed: Pressure, kPa = 101.5
Fixed: Temperature, K = 298.15
Property: Mass fraction of dipotassium hydrogen phosphate (Liquid mixture 1); method: Titration method
Mass fraction of 1-butyl-3-methylimidazolium methanesulfonate	Mass fraction of dipotassium hydrogen phosphate	uncertainty
0.6563	0.0107	0.0004
0.6221	0.0152	0.0006
0.5732	0.0186	0.0007
0.5306	0.0216	0.0009
0.4937	0.0241	0.001
0.4529	0.0294	0.0012
0.412	0.0368	0.0015
0.3755	0.0458	0.0018
0.3352	0.0545	0.0022
0.3022	0.0675	0.0027
0.2632	0.0856	0.0034
0.2266	0.1013	0.0041
0.1907	0.124	0.005
0.1606	0.1436	0.0057
0.1362	0.1605	0.0064
0.1159	0.1742	0.007
0.0921	0.191	0.0076
0.0767	0.2025	0.0081
0.0531	0.2094	0.0084
0.0402	0.2242	0.009
