Measured thermophysical data. Solubility of Collinin and Isocollinin in Pressurized Carbon Dioxide: Synthesis, Solubility Parameters, and Equilibrium Measurements
Source: J. Chem. Eng. Data, 2019, 10.1021/acs.jced.9b00234
Compound 1: collinin, C20H24O4, InChI=1S/C20H24O4/c1-14(2)6-5-7-15(3)12-13-23-17-10-8-16-9-11-18(21)24-19(16)20(17)22-4/h6,8-12H,5,7,13H2,1-4H3/b15-12+
Compound 2: isocollinin, C20H24O4, InChI=1S/C20H24O4/c1-14(2)6-5-7-15(3)12-13-23-20-17(22-4)10-8-16-9-11-18(21)24-19(16)20/h6,8-12H,5,7,13H2,1-4H3/b15-12+
Compound 3: 7-geranyloxy-8-hydroxycoumarin, C19H22O4, InChI=1S/C19H22O4/c1-13(2)5-4-6-14(3)11-12-22-16-9-7-15-8-10-17(20)23-19(15)18(16)21/h5,7-11,21H,4,6,12H2,1-3H3/b14-11+
Compound 4: 8-geranyloxy-7-hydroxycoumarin, C19H22O4, InChI=1S/C19H22O4/c1-13(2)5-4-6-14(3)11-12-22-19-16(20)9-7-15-8-10-17(21)23-18(15)19/h5,7-11,20H,4,6,12H2,1-3H3/b14-11+
Compound 5: anthracene, C14H10, InChI=1S/C14H10/c1-2-6-12-10-14-8-4-3-7-13(14)9-11(12)5-1/h1-10H, purity 98.7%
Compound 6: carbon dioxide, CO2, InChI=1S/CO2/c2-1-3, purity 99.9%

System: collinin; phases: Crystal, Liquid, Air at 1 atmosphere
Property: Normal melting temperature, K (Crystal); method: DTA
Normal melting temperature, K	uncertainty
318.75	0.5

System: collinin; phases: Crystal, Liquid, Air at 1 atmosphere
Property: Molar enthalpy of transition or fusion, kJ/mol (Crystal); method: DSC
Molar enthalpy of transition or fusion, kJ/mol	uncertainty
25.024244592	5.7470378

System: isocollinin; phases: Crystal, Liquid, Air at 1 atmosphere
Property: Normal melting temperature, K (Crystal); method: DTA
Normal melting temperature, K	uncertainty
316.85	0.5

System: isocollinin; phases: Crystal, Liquid, Air at 1 atmosphere
Property: Molar enthalpy of transition or fusion, kJ/mol (Crystal); method: DSC
Molar enthalpy of transition or fusion, kJ/mol	uncertainty
24.071878328	5.7470378

System: 7-geranyloxy-8-hydroxycoumarin; phases: Crystal, Liquid, Air at 1 atmosphere
Property: Normal melting temperature, K (Crystal); method: DTA
Normal melting temperature, K	uncertainty
370.35	0.5

System: 7-geranyloxy-8-hydroxycoumarin; phases: Crystal, Liquid, Air at 1 atmosphere
Property: Molar enthalpy of transition or fusion, kJ/mol (Crystal); method: DSC
Molar enthalpy of transition or fusion, kJ/mol	uncertainty
27.82223883	5.50157265

System: 8-geranyloxy-7-hydroxycoumarin; phases: Crystal, Liquid, Air at 1 atmosphere
Property: Normal melting temperature, K (Crystal); method: DTA
Normal melting temperature, K	uncertainty
378.75	0.5

System: 8-geranyloxy-7-hydroxycoumarin; phases: Crystal, Liquid, Air at 1 atmosphere
Property: Molar enthalpy of transition or fusion, kJ/mol (Crystal); method: DSC
Molar enthalpy of transition or fusion, kJ/mol	uncertainty
31.531870674	5.50157265

System: anthracene; phases: Crystal, Liquid, Air at 1 atmosphere
Property: Normal melting temperature, K (Crystal); method: DTA
Normal melting temperature, K	uncertainty
490.15	0.5

System: collinin + carbon dioxide; phases: Fluid (supercritical or subcritical phases), Crystal
Fixed: Temperature, K = 303.15
Property: Vapor or sublimation pressure, kPa (Fluid (supercritical or subcritical phases)); method: UV detection
Mole fraction of collinin	Vapor or sublimation pressure, kPa	uncertainty
9.7e-07	7400	240
1.88e-06	7540	320
2.8e-06	7580	300
3.14e-06	7710	320
3.55e-06	8080	400

System: collinin + carbon dioxide; phases: Fluid (supercritical or subcritical phases), Liquid
Fixed: Temperature, K = 323.15
Property: Vapor or sublimation pressure, kPa (Fluid (supercritical or subcritical phases)); method: UV detection
Mole fraction of collinin	Vapor or sublimation pressure, kPa	uncertainty
7e-07	9940	780
1.59e-06	10090	790
4.73e-06	10110	790
6.26e-06	10130	790
6.68e-06	10250	850
7.07e-06	10480	920

System: isocollinin + carbon dioxide; phases: Fluid (supercritical or subcritical phases), Crystal
Fixed: Temperature, K = 303.15
Property: Vapor or sublimation pressure, kPa (Fluid (supercritical or subcritical phases)); method: UV detection
Mole fraction of isocollinin	Vapor or sublimation pressure, kPa	uncertainty
2.12e-06	7220	240
3.1e-06	7300	260
4.02e-06	7310	240
4.94e-06	7360	240
5.92e-06	7370	240

System: isocollinin + carbon dioxide; phases: Fluid (supercritical or subcritical phases), Liquid
Fixed: Temperature, K = 323.15
Property: Vapor or sublimation pressure, kPa (Fluid (supercritical or subcritical phases)); method: UV detection
Mole fraction of isocollinin	Vapor or sublimation pressure, kPa	uncertainty
1.47e-06	10460	820
2.8e-06	10640	830
3.82e-06	11060	870
5.08e-06	11080	900
6.11e-06	11290	890

System: anthracene + carbon dioxide; phases: Fluid (supercritical or subcritical phases), Crystal
Fixed: Temperature, K = 303.15
Property: Vapor or sublimation pressure, kPa (Fluid (supercritical or subcritical phases)); method: UV detection
Mole fraction of anthracene	Vapor or sublimation pressure, kPa	uncertainty
4.1e-06	8560	250
6.9e-06	8860	250
8.7e-06	9250	250
1.03e-05	9780	250
2.64e-05	10880	240
