Measured thermophysical data. Density, Speed of Sound, and Viscosity of Diethylene Glycol Monoethyl Ether + N,N-Dimethylformamide (Ethanol, Water) at T = 288.15-318.15 K
Source: J. Chem. Eng. Data, 2019, 10.1021/acs.jced.8b01012
Compound 1: 3,6-dioxa-1-octanol, C6H14O3, InChI=1S/C6H14O3/c1-2-8-5-6-9-4-3-7/h7H,2-6H2,1H3, purity 98%
Compound 2: ethanol, C2H6O, InChI=1S/C2H6O/c1-2-3/h3H,2H2,1H3, purity 99.2%
Compound 3: dimethylformamide, C3H7NO, InChI=1S/C3H7NO/c1-4(2)3-5/h3H,1-2H3, purity 99.8%
Compound 4: water, H2O, InChI=1S/H2O/h1H2, purity 99.9%

System: 3,6-dioxa-1-octanol; phases: Liquid
Fixed: Pressure, kPa = 86.8
Property: Mass density, kg/m3 (Liquid); method: Vibrating tube method
Temperature, K	Mass density, kg/m3	uncertainty
288.15	992.168	0.857
298.15	983.078	0.848
308.15	974.272	0.84
318.15	965.333	0.831
298.15	983.111	0.848
308.15	974.184	0.84
318.15	965.33	0.831

System: 3,6-dioxa-1-octanol; phases: Liquid
Fixed: Pressure, kPa = 86.8
Fixed: Frequency, MHz = 3
Property: Speed of sound, m/s (Liquid); method: Single path-length method
Temperature, K	Speed of sound, m/s	uncertainty
288.15	1410.4	6.33
298.15	1374.42	6.33
308.15	1339.93	6.33
318.15	1304.08	6.33
288.15	1410.78	6.33
308.15	1338.93	6.33
318.15	1304.97	6.33

System: 3,6-dioxa-1-octanol; phases: Liquid
Fixed: Pressure, kPa = 86.8
Property: Viscosity, Pa*s (Liquid); method: Capillary tube (Ostwald; Ubbelohde) method
Temperature, K	Viscosity, Pa*s	uncertainty
288.15	0.004855	8.1e-05
298.15	0.003672	7.3e-05
308.15	0.002851	6.8e-05
318.15	0.002264	6.5e-05

System: ethanol; phases: Liquid
Fixed: Pressure, kPa = 86.8
Property: Mass density, kg/m3 (Liquid); method: Vibrating tube method
Temperature, K	Mass density, kg/m3	uncertainty
288.15	795.17	0.439
298.15	786.468	0.44
308.15	777.826	0.441
318.15	768.977	0.441

System: ethanol; phases: Liquid
Fixed: Pressure, kPa = 86.8
Fixed: Frequency, MHz = 3
Property: Speed of sound, m/s (Liquid); method: Single path-length method
Temperature, K	Speed of sound, m/s	uncertainty
288.15	1181.85	6.06
298.15	1148.28	6.06
308.15	1113.11	6.06
318.15	1079.48	6.06

System: ethanol; phases: Liquid
Fixed: Pressure, kPa = 86.8
Property: Viscosity, Pa*s (Liquid); method: Capillary tube (Ostwald; Ubbelohde) method
Temperature, K	Viscosity, Pa*s	uncertainty
288.15	0.001332	6.1e-05
298.15	0.001105	6e-05
308.15	0.000932	6e-05
318.15	0.000787	6e-05

System: dimethylformamide; phases: Liquid
Fixed: Pressure, kPa = 86.8
Property: Mass density, kg/m3 (Liquid); method: Vibrating tube method
Temperature, K	Mass density, kg/m3	uncertainty
288.15	953.295	0.407
298.15	943.773	0.408
308.15	934.208	0.408
318.15	924.591	0.409

System: dimethylformamide; phases: Liquid
Fixed: Pressure, kPa = 86.8
Fixed: Frequency, MHz = 3
Property: Speed of sound, m/s (Liquid); method: Single path-length method
Temperature, K	Speed of sound, m/s	uncertainty
288.15	1496.93	6.01
298.15	1457.7	6.01
308.15	1418.4	6.01
318.15	1379.4	6.01

System: dimethylformamide; phases: Liquid
Fixed: Pressure, kPa = 86.8
Property: Viscosity, Pa*s (Liquid); method: Capillary tube (Ostwald; Ubbelohde) method
Temperature, K	Viscosity, Pa*s	uncertainty
288.15	0.00094	6e-05
298.15	0.000844	6e-05
308.15	0.000773	6e-05
318.15	0.000713	6e-05

System: water; phases: Liquid
Fixed: Pressure, kPa = 86.8
Property: Mass density, kg/m3 (Liquid); method: Vibrating tube method
Temperature, K	Mass density, kg/m3	uncertainty
288.15	999.094	0.401
298.15	997.045	0.401
308.15	994.039	0.402
318.15	990.21	0.402

System: water; phases: Liquid
Fixed: Pressure, kPa = 86.8
Fixed: Frequency, MHz = 3
Property: Speed of sound, m/s (Liquid); method: Single path-length method
Temperature, K	Speed of sound, m/s	uncertainty
288.15	1466.56	6
298.15	1496.91	6
308.15	1519.73	6
318.15	1536.22	6

System: water; phases: Liquid
Fixed: Pressure, kPa = 86.8
Property: Viscosity, Pa*s (Liquid); method: Capillary tube (Ostwald; Ubbelohde) method
Temperature, K	Viscosity, Pa*s	uncertainty
288.15	0.001089	6e-05
298.15	0.000879	6e-05
308.15	0.000747	6e-05
318.15	0.000657	6e-05

System: 3,6-dioxa-1-octanol + water; phases: Liquid
Fixed: Pressure, kPa = 86.8
Property: Mass density, kg/m3 (Liquid); method: Vibrating tube method
Temperature, K	Mole fraction of 3,6-dioxa-1-octanol	Mass density, kg/m3	uncertainty
288.15	0	999.094	0.401
288.15	0.1148	1032.203	0.408
288.15	0.199	1025.843	0.412
288.15	0.3006	1019.046	0.422
288.15	0.3979	1013.017	0.438
288.15	0.5002	1007.404	0.466
288.15	0.5934	1003.387	0.506
288.15	0.6888	999.679	0.561
288.15	0.7914	996.945	0.64
288.15	0.901	994.08	0.744
288.15	1	992.168	0.857
298.15	0	997.045	0.401
298.15	0.1148	1022.1	0.409
298.15	0.199	1017.31	0.411
298.15	0.3006	1010.291	0.42
298.15	0.3979	1004.179	0.436
298.15	0.5002	998.903	0.464
298.15	0.5934	994.44	0.503
298.15	0.6888	991.058	0.558
298.15	0.7914	988.092	0.636
298.15	0.901	985.202	0.738
298.15	1	983.078	0.848
308.15	0	994.039	0.402
308.15	0.1148	1015.52	0.408
308.15	0.199	1008.728	0.411
308.15	0.3006	1001.507	0.419
308.15	0.3979	995.358	0.435
308.15	0.5002	989.953	0.464
308.15	0.5934	985.727	0.502
308.15	0.6888	982.303	0.556
308.15	0.7914	979.121	0.632
308.15	0.901	976.331	0.732
308.15	1	974.272	0.84
318.15	0	990.21	0.402
318.15	0.1148	1004.748	0.416
318.15	0.199	999.956	0.411
318.15	0.3006	992.546	0.419
318.15	0.3979	986.424	0.435
318.15	0.5002	980.424	0.463
318.15	0.5934	976.792	0.501
318.15	0.6888	973.371	0.554
318.15	0.7914	970.295	0.628
318.15	0.901	967.383	0.726
318.15	1	965.333	0.831

System: 3,6-dioxa-1-octanol + water; phases: Liquid
Fixed: Pressure, kPa = 86.8
Fixed: Frequency, MHz = 3
Property: Speed of sound, m/s (Liquid); method: Single path-length method
Temperature, K	Mole fraction of 3,6-dioxa-1-octanol	Speed of sound, m/s	uncertainty
288.15	0	1466.56	6
288.15	0.1148	1690.35	6.03
288.15	0.199	1628.79	6.03
288.15	0.3006	1568.45	6.05
288.15	0.3979	1525.91	6.07
288.15	0.5002	1492.69	6.1
288.15	0.5934	1467.79	6.13
288.15	0.6888	1449.32	6.17
288.15	0.7914	1433.9	6.21
288.15	0.901	1420.16	6.27
288.15	1	1410.4	6.33
298.15	0	1496.91	6
298.15	0.1148	1665	6.02
298.15	0.199	1596.5	6.03
298.15	0.3006	1534.7	6.04
298.15	0.3979	1491.49	6.07
298.15	0.5002	1457.73	6.1
298.15	0.5934	1432.89	6.13
298.15	0.6888	1414.17	6.17
298.15	0.7914	1398.62	6.21
298.15	0.901	1384.53	6.27
298.15	1	1374.42	6.33
308.15	0	1519.73	6
308.15	0.1148	1638.62	6.01
308.15	0.199	1563.46	6.03
308.15	0.3006	1499.96	6.04
308.15	0.3979	1456.78	6.07
308.15	0.5002	1422.74	6.1
308.15	0.5934	1398.14	6.13
308.15	0.6888	1379.45	6.17
308.15	0.7914	1363.63	6.21
308.15	0.901	1349.44	6.27
308.15	1	1339.93	6.33
318.15	0	1536.22	6
318.15	0.1148	1611.31	6.03
318.15	0.199	1530.71	6.03
318.15	0.3006	1466.28	6.04
318.15	0.3979	1422.53	6.07
318.15	0.5002	1388.53	6.09
318.15	0.5934	1369.79	6.13
318.15	0.6888	1351.88	6.17
318.15	0.7914	1333.97	6.21
318.15	0.901	1316.47	6.27
318.15	1	1304.08	6.33

System: 3,6-dioxa-1-octanol + water; phases: Liquid
Fixed: Pressure, kPa = 86.8
Property: Viscosity, Pa*s (Liquid); method: Capillary tube (Ostwald; Ubbelohde) method
Temperature, K	Mole fraction of 3,6-dioxa-1-octanol	Viscosity, Pa*s	uncertainty
288.15	0	0.001089	6e-05
288.15	0.1148	0.005923	6.9e-05
288.15	0.199	0.008569	7.5e-05
288.15	0.3006	0.009241	8e-05
288.15	0.3979	0.00905	8.3e-05
288.15	0.5002	0.008089	8.3e-05
288.15	0.5934	0.007182	8.2e-05
288.15	0.6888	0.006478	8.2e-05
288.15	0.7914	0.005945	8.2e-05
288.15	0.901	0.005356	8.2e-05
288.15	1	0.004855	8.1e-05
298.15	0	0.000879	6e-05
298.15	0.1148	0.003913	6.5e-05
298.15	0.199	0.005663	6.9e-05
298.15	0.3006	0.006064	7.1e-05
298.15	0.3979	0.00587	7.2e-05
298.15	0.5002	0.005464	7.3e-05
298.15	0.5934	0.00504	7.3e-05
298.15	0.6888	0.004656	7.3e-05
298.15	0.7914	0.004322	7.3e-05
298.15	0.901	0.003984	7.3e-05
298.15	1	0.003672	7.3e-05
308.15	0	0.000747	6e-05
308.15	0.1148	0.002299	6.2e-05
308.15	0.199	0.003849	6.4e-05
308.15	0.3006	0.004241	6.6e-05
308.15	0.3979	0.004132	6.6e-05
308.15	0.5002	0.003943	6.7e-05
308.15	0.5934	0.003687	6.7e-05
308.15	0.6888	0.003482	6.7e-05
308.15	0.7914	0.003233	6.8e-05
308.15	0.901	0.002989	6.8e-05
308.15	1	0.002851	6.8e-05
318.15	0	0.000657	6e-05
318.15	0.1148	0.001219	6.1e-05
318.15	0.199	0.002597	6.3e-05
318.15	0.3006	0.003104	6.3e-05
318.15	0.3979	0.003052	6.4e-05
318.15	0.5002	0.002959	6.4e-05
318.15	0.5934	0.002836	6.4e-05
318.15	0.6888	0.002648	6.4e-05
318.15	0.7914	0.002512	6.5e-05
318.15	0.901	0.002385	6.5e-05
318.15	1	0.002264	6.5e-05

System: 3,6-dioxa-1-octanol + ethanol; phases: Liquid
Fixed: Pressure, kPa = 86.8
Property: Mass density, kg/m3 (Liquid); method: Vibrating tube method
Temperature, K	Mole fraction of 3,6-dioxa-1-octanol	Mass density, kg/m3	uncertainty
288.15	0	795.17	0.439
288.15	0.1002	837.908	0.47
288.15	0.2006	870.9	0.475
288.15	0.3007	897.319	0.489
288.15	0.4078	919.99	0.515
288.15	0.5035	936.4	0.548
288.15	0.6057	951.441	0.592
288.15	0.704	963.82	0.644
288.15	0.8031	974.752	0.707
288.15	0.8958	983.35	0.773
288.15	1	992.168	0.857
298.15	0	786.468	0.44
298.15	0.1002	829.152	0.472
298.15	0.2006	862.004	0.476
298.15	0.3007	888.352	0.489
298.15	0.4078	910.939	0.515
298.15	0.5035	927.454	0.546
298.15	0.6057	942.554	0.59
298.15	0.704	954.878	0.64
298.15	0.8031	965.624	0.701
298.15	0.8958	974.429	0.766
298.15	1	983.111	0.848
308.15	0	777.826	0.441
308.15	0.1002	820.616	0.473
308.15	0.2006	853.449	0.476
308.15	0.3007	879.549	0.489
308.15	0.4078	902.29	0.514
308.15	0.5035	918.819	0.544
308.15	0.6057	933.819	0.587
308.15	0.704	946.039	0.636
308.15	0.8031	956.877	0.696
308.15	0.8958	965.626	0.759
308.15	1	974.184	0.84
318.15	0	768.977	0.441
318.15	0.1002	811.796	0.476
318.15	0.2006	844.715	0.477
318.15	0.3007	870.669	0.49
318.15	0.4078	893.4	0.514
318.15	0.5035	909.976	0.543
318.15	0.6057	925.125	0.584
318.15	0.704	937.103	0.633
318.15	0.8031	947.896	0.691
318.15	0.8958	956.681	0.753
318.15	1	965.33	0.831

System: 3,6-dioxa-1-octanol + ethanol; phases: Liquid
Fixed: Pressure, kPa = 86.8
Fixed: Frequency, MHz = 3
Property: Speed of sound, m/s (Liquid); method: Single path-length method
Temperature, K	Mole fraction of 3,6-dioxa-1-octanol	Speed of sound, m/s	uncertainty
288.15	0	1181.85	6.06
288.15	0.1002	1228.95	6.08
288.15	0.2006	1266.65	6.09
288.15	0.3007	1297.58	6.12
288.15	0.4078	1324.53	6.14
288.15	0.5035	1344.1	6.17
288.15	0.6057	1362.22	6.2
288.15	0.704	1377.04	6.23
288.15	0.8031	1390.58	6.26
288.15	0.8958	1400.66	6.29
288.15	1	1410.78	6.33
298.15	0	1148.28	6.06
298.15	0.1002	1194.26	6.08
298.15	0.2006	1231.88	6.09
298.15	0.3007	1262.64	6.12
298.15	0.4078	1289.12	6.14
298.15	0.5035	1308.74	6.17
298.15	0.6057	1326.74	6.2
298.15	0.704	1341.43	6.23
298.15	0.8031	1354.27	6.26
298.15	0.8958	1364.78	6.29
298.15	1	1374.42	6.33
308.15	0	1113.11	6.06
308.15	0.1002	1160.69	6.08
308.15	0.2006	1198.03	6.09
308.15	0.3007	1228.27	6.12
308.15	0.4078	1254.95	6.14
308.15	0.5035	1274.3	6.17
308.15	0.6057	1292.19	6.2
308.15	0.704	1306.56	6.22
308.15	0.8031	1319.39	6.26
308.15	0.8958	1329.69	6.29
308.15	1	1338.93	6.33
318.15	0	1079.48	6.06
318.15	0.1002	1126.89	6.08
318.15	0.2006	1164.37	6.09
318.15	0.3007	1194.27	6.12
318.15	0.4078	1220.91	6.14
318.15	0.5035	1240.08	6.17
318.15	0.6057	1257.7	6.19
318.15	0.704	1278.81	6.22
318.15	0.8031	1284.49	6.26
318.15	0.8958	1294.7	6.29
318.15	1	1304.97	6.33

System: 3,6-dioxa-1-octanol + ethanol; phases: Liquid
Fixed: Pressure, kPa = 86.8
Property: Viscosity, Pa*s (Liquid); method: Capillary tube (Ostwald; Ubbelohde) method
Temperature, K	Mole fraction of 3,6-dioxa-1-octanol	Viscosity, Pa*s	uncertainty
288.15	0	0.001332	6.1e-05
288.15	0.1002	0.001564	6.1e-05
288.15	0.2006	0.001856	6.2e-05
288.15	0.3007	0.002208	6.2e-05
288.15	0.4078	0.002641	6.4e-05
288.15	0.5035	0.003054	6.6e-05
288.15	0.6057	0.003458	6.8e-05
288.15	0.704	0.003849	7.1e-05
288.15	0.8031	0.004247	7.4e-05
288.15	0.8958	0.00454	7.7e-05
288.15	1	0.004855	8.1e-05
298.15	0	0.001105	6e-05
298.15	0.1002	0.001302	6.1e-05
298.15	0.2006	0.001526	6.1e-05
298.15	0.3007	0.001823	6.2e-05
298.15	0.4078	0.002124	6.3e-05
298.15	0.5035	0.002391	6.4e-05
298.15	0.6057	0.002716	6.5e-05
298.15	0.704	0.002999	6.7e-05
298.15	0.8031	0.003269	6.9e-05
298.15	0.8958	0.003472	7.1e-05
298.15	1	0.003672	7.3e-05
308.15	0	0.000932	6e-05
308.15	0.1002	0.001089	6.1e-05
308.15	0.2006	0.00126	6.1e-05
308.15	0.3007	0.00149	6.1e-05
308.15	0.4078	0.001717	6.2e-05
308.15	0.5035	0.001915	6.2e-05
308.15	0.6057	0.002153	6.3e-05
308.15	0.704	0.002376	6.4e-05
308.15	0.8031	0.002596	6.6e-05
308.15	0.8958	0.002751	6.7e-05
308.15	1	0.002851	6.8e-05
318.15	0	0.000787	6e-05
318.15	0.1002	0.000926	6e-05
318.15	0.2006	0.001059	6.1e-05
318.15	0.3007	0.001228	6.1e-05
318.15	0.4078	0.001417	6.1e-05
318.15	0.5035	0.001602	6.2e-05
318.15	0.6057	0.001769	6.2e-05
318.15	0.704	0.001948	6.3e-05
318.15	0.8031	0.002114	6.4e-05
318.15	0.8958	0.002219	6.5e-05
318.15	1	0.002264	6.5e-05

System: 3,6-dioxa-1-octanol + dimethylformamide; phases: Liquid
Fixed: Pressure, kPa = 86.8
Property: Mass density, kg/m3 (Liquid); method: Vibrating tube method
Temperature, K	Mole fraction of 3,6-dioxa-1-octanol	Mass density, kg/m3	uncertainty
288.15	0	953.295	0.407
288.15	0.1001	960.952	0.41
288.15	0.2007	967.011	0.415
288.15	0.2956	972.05	0.424
288.15	0.4013	976.667	0.443
288.15	0.5005	980.3	0.473
288.15	0.5857	982.933	0.509
288.15	0.7004	986.048	0.576
288.15	0.7999	988.365	0.652
288.15	0.8976	990.329	0.744
288.15	1	992.168	0.857
298.15	0	943.773	0.408
298.15	0.1001	951.433	0.411
298.15	0.2007	957.743	0.416
298.15	0.2956	962.74	0.425
298.15	0.4013	967.423	0.444
298.15	0.5005	971.171	0.473
298.15	0.5857	973.939	0.508
298.15	0.7004	977.2	0.574
298.15	0.7999	979.35	0.648
298.15	0.8976	981.333	0.737
298.15	1	983.111	0.848
308.15	0	934.208	0.408
308.15	0.1001	942.01	0.411
308.15	0.2007	948.358	0.416
308.15	0.2956	953.585	0.425
308.15	0.4013	958.301	0.444
308.15	0.5005	962.101	0.472
308.15	0.5857	964.934	0.507
308.15	0.7004	968.106	0.571
308.15	0.7999	970.438	0.644
308.15	0.8976	972.437	0.731
308.15	1	974.272	0.84
318.15	0	924.591	0.409
318.15	0.1001	932.624	0.412
318.15	0.2007	939.082	0.417
318.15	0.2956	944.238	0.426
318.15	0.4013	948.998	0.444
318.15	0.5005	952.876	0.472
318.15	0.5857	955.797	0.506
318.15	0.7004	958.976	0.569
318.15	0.7999	961.414	0.64
318.15	0.8976	963.45	0.725
318.15	1	965.333	0.831

System: 3,6-dioxa-1-octanol + dimethylformamide; phases: Liquid
Fixed: Pressure, kPa = 86.8
Fixed: Frequency, MHz = 3
Property: Speed of sound, m/s (Liquid); method: Single path-length method
Temperature, K	Mole fraction of 3,6-dioxa-1-octanol	Speed of sound, m/s	uncertainty
288.15	0	1496.93	6.01
288.15	0.1001	1488.74	6.02
288.15	0.2007	1480.35	6.03
288.15	0.2956	1472.15	6.05
288.15	0.4013	1462.98	6.07
288.15	0.5005	1454.19	6.1
288.15	0.5857	1446.65	6.13
288.15	0.7004	1436.51	6.18
288.15	0.7999	1427.97	6.22
288.15	0.8976	1419.33	6.27
288.15	1	1410.4	6.33
298.15	0	1457.7	6.01
298.15	0.1001	1449.81	6.02
298.15	0.2007	1441.6	6.03
298.15	0.2956	1433.75	6.05
298.15	0.4013	1424.96	6.07
298.15	0.5005	1416.6	6.1
298.15	0.5857	1409.6	6.13
298.15	0.7004	1399.65	6.18
298.15	0.7999	1391.46	6.22
298.15	0.8976	1383.08	6.27
298.15	1	1374.42	6.33
308.15	0	1418.4	6.01
308.15	0.1001	1411.11	6.02
308.15	0.2007	1403.2	6.03
308.15	0.2956	1396.21	6.05
308.15	0.4013	1387.81	6.07
308.15	0.5005	1379.85	6.1
308.15	0.5857	1373.23	6.13
308.15	0.7004	1363.7	6.18
308.15	0.7999	1355.68	6.22
308.15	0.8976	1347.55	6.27
308.15	1	1338.93	6.33
318.15	0	1379.4	6.01
318.15	0.1001	1373.18	6.02
318.15	0.2007	1365.75	6.03
318.15	0.2956	1358.56	6.05
318.15	0.4013	1350.46	6.07
318.15	0.5005	1343.02	6.1
318.15	0.5857	1336.85	6.13
318.15	0.7004	1327.53	6.18
318.15	0.7999	1320.07	6.22
318.15	0.8976	1312.21	6.27
318.15	1	1304.08	6.33

System: 3,6-dioxa-1-octanol + dimethylformamide; phases: Liquid
Fixed: Pressure, kPa = 86.8
Property: Viscosity, Pa*s (Liquid); method: Capillary tube (Ostwald; Ubbelohde) method
Temperature, K	Mole fraction of 3,6-dioxa-1-octanol	Viscosity, Pa*s	uncertainty
288.15	0	0.00094	6e-05
288.15	0.1001	0.001147	6e-05
288.15	0.2007	0.001489	6.1e-05
288.15	0.2956	0.001836	6.1e-05
288.15	0.4013	0.002256	6.2e-05
288.15	0.5005	0.002663	6.3e-05
288.15	0.5857	0.003033	6.5e-05
288.15	0.7004	0.003538	6.8e-05
288.15	0.7999	0.003963	7.1e-05
288.15	0.8976	0.004426	7.6e-05
288.15	1	0.004855	8.1e-05
298.15	0	0.000844	6e-05
298.15	0.1001	0.001047	6e-05
298.15	0.2007	0.001315	6.1e-05
298.15	0.2956	0.001578	6.1e-05
298.15	0.4013	0.001876	6.1e-05
298.15	0.5005	0.002175	6.2e-05
298.15	0.5857	0.002444	6.3e-05
298.15	0.7004	0.002798	6.5e-05
298.15	0.7999	0.003102	6.7e-05
298.15	0.8976	0.003387	7e-05
298.15	1	0.003672	7.3e-05
308.15	0	0.000773	6e-05
308.15	0.1001	0.000952	6e-05
308.15	0.2007	0.001149	6e-05
308.15	0.2956	0.001348	6.1e-05
308.15	0.4013	0.001577	6.1e-05
308.15	0.5005	0.001793	6.2e-05
308.15	0.5857	0.001974	6.2e-05
308.15	0.7004	0.002227	6.3e-05
308.15	0.7999	0.002445	6.5e-05
308.15	0.8976	0.002647	6.6e-05
308.15	1	0.002851	6.8e-05
318.15	0	0.000713	6e-05
318.15	0.1001	0.000853	6e-05
318.15	0.2007	0.000999	6e-05
318.15	0.2956	0.001149	6e-05
318.15	0.4013	0.001319	6.1e-05
318.15	0.5005	0.001481	6.1e-05
318.15	0.5857	0.001619	6.2e-05
318.15	0.7004	0.001815	6.2e-05
318.15	0.7999	0.001978	6.3e-05
318.15	0.8976	0.002126	6.4e-05
318.15	1	0.002264	6.5e-05
