Measured thermophysical data. pvT Property of HFE 7100 in the Gaseous Phase
Source: J. Chem. Eng. Data, 2015, 10.1021/acs.jced.5b00513
Compound 1: methyl nonafluoroisobutyl ether, C5H3F9O, InChI=1S/C5H3F9O/c1-15-5(13,14)2(6,3(7,8)9)4(10,11)12/h1H3, purity 99.5%
Compound 2: 1-methoxy-nonafluorobutane, C5H3F9O, InChI=1S/C5H3F9O/c1-15-5(13,14)3(8,9)2(6,7)4(10,11)12/h1H3, purity 99.5%

System: 1-methoxy-nonafluorobutane + methyl nonafluoroisobutyl ether; phases: Liquid, Gas
Fixed: Mass fraction of 1-methoxy-nonafluorobutane = 0.377
Property: Vapor or sublimation pressure, kPa (Liquid); method: Closed cell (Static) method
Temperature, K	Vapor or sublimation pressure, kPa	uncertainty
338.152	120.14	0.61
347.895	163.08	0.7
358.151	220.01	0.83
368.15	289.31	1.01
377.897	371.99	1.23
396.147	572.54	1.88
406.246	714.05	2.34

System: 1-methoxy-nonafluorobutane + methyl nonafluoroisobutyl ether; phases: Gas
Fixed: Mass fraction of 1-methoxy-nonafluorobutane = 0.377
Property: Amount density, mol/m3 (Gas); method: ISOCHOR
Temperature, K	Pressure, kPa	Amount density, mol/m3	uncertainty
431.15	877.86	316.5	0.39
431.15	696.89	234.49	0.32
431.15	542.65	173.73	0.26
431.15	416.82	128.71	0.21
431.15	317.09	95.36	0.19
431.15	239.54	70.65	0.17
431.15	180.05	52.34	0.16
429.15	870.54	316.54	0.39
429.15	691.91	234.52	0.32
429.15	539.17	173.75	0.26
429.15	414.37	128.73	0.21
429.15	315.38	95.37	0.19
429.15	238.29	70.66	0.17
429.15	179.14	52.35	0.16
427.15	863.18	316.57	0.4
427.15	686.89	234.54	0.32
427.15	535.69	173.77	0.26
427.15	411.93	128.74	0.22
427.15	313.64	95.38	0.19
427.15	237.03	70.67	0.17
427.15	178.24	52.35	0.16
425.15	855.75	316.6	0.4
425.15	681.86	234.56	0.32
425.15	532.2	173.78	0.26
425.15	409.48	128.75	0.22
425.15	311.88	95.39	0.19
425.15	235.78	70.67	0.17
425.15	177.33	52.36	0.16
423.15	676.78	234.59	0.32
423.15	528.7	173.8	0.26
423.15	407.01	128.77	0.22
423.15	310.13	95.4	0.19
423.15	234.51	70.68	0.17
421.15	671.73	234.61	0.31
421.15	525.2	173.82	0.26
421.15	404.55	128.78	0.22
421.15	308.37	95.41	0.19
418.15	664.06	234.65	0.32
418.15	519.9	173.85	0.26
418.15	400.84	128.8	0.22
418.15	305.74	95.43	0.19
418.15	231.36	70.7	0.18
416.15	658.93	234.67	0.32
416.15	516.36	173.86	0.27
414.15	653.76	234.69	0.32
413.15	651.15	234.71	0.32
413.15	511.18	173.89	0.27
413.15	394.62	128.83	0.22
413.15	301.31	95.45	0.2
413.15	228.19	70.72	0.18
413.15	171.97	52.39	0.17
411.15	645.96	234.73	0.32
411.15	507.44	173.91	0.27
408.15	502.05	173.93	0.27
408.15	388.34	128.86	0.23
408.15	296.87	95.47	0.2
406.15	632.76	234.79	0.33
406.15	498.43	173.95	0.27
403.15	624.65	234.82	0.33
403.15	492.98	173.98	0.28
403.15	382.03	128.9	0.23
403.15	292.4	95.5	0.2
403.15	221.8	70.75	0.18
401.15	489.34	173.99	0.28
398.15	483.81	174.02	0.27
398.15	375.65	128.93	0.23
398.15	287.9	95.52	0.21
396.15	480.1	174.04	0.27
393.15	474.46	174.07	0.27
393.15	369.23	128.96	0.24
393.15	283.39	95.55	0.21
393.15	215.36	70.79	0.19
393.15	162.67	52.45	0.18
391.15	470.64	174.08	0.28
388.15	362.74	128.99	0.23
388.15	278.82	95.57	0.22
383.15	356.13	129.03	0.24
383.15	274.23	95.59	0.21
383.15	209.1	70.82	0.19
383.15	157.94	52.47	0.18
378.15	349.33	129.06	0.24
378.15	269.59	95.62	0.22
373.15	264.87	95.64	0.21
373.15	202.27	70.86	0.2
373.15	153.22	52.5	0.19
368.15	260.04	95.67	0.22
363.15	195.54	70.89	0.2
363.15	148.41	52.52	0.2
