Measured thermophysical data. Application of Conductance Study to Analyze Micellization Behavior of Cationic Gemini Surfactants in Water and Water Ethanol Solvent Mixed Media
Source: J. Chem. Eng. Data, 2016, 10.1021/acs.jced.5b00485
Compound 1: N1,N1,N7,N7-tetramethyl-N1,N7-dioctylheptane-1,7-diaminium bromide, C27H60Br2N2, InChI=1S/C27H60N2.2BrH/c1-7-9-11-13-16-20-24-28(3,4)26-22-18-15-19-23-27-29(5,6)25-21-17-14-12-10-8-2;;/h7-27H2,1-6H3;2*1H/q+2;;/p-2
Compound 2: octylene-1,8-bis(dimethyloctylammonium) bromide, C28H62Br2N2, InChI=1S/C28H62N2.2BrH/c1-7-9-11-13-17-21-25-29(3,4)27-23-19-15-16-20-24-28-30(5,6)26-22-18-14-12-10-8-2;;/h7-28H2,1-6H3;2*1H/q+2;;/p-2
Compound 3: water, H2O, InChI=1S/H2O/h1H2, purity 99.9%
Compound 4: ethanol, C2H6O, InChI=1S/C2H6O/c1-2-3/h3H,2H2,1H3, purity 99.8%

System: water; phases: Liquid, Air at 1 atmosphere
Property: Surface tension liquid-gas, N/m (Liquid); method: Maximal bubble pressure
Temperature, K	Surface tension liquid-gas, N/m	uncertainty
293.15	0.0728	0.0004

System: ethanol + water + N1,N1,N7,N7-tetramethyl-N1,N7-dioctylheptane-1,7-diaminium bromide; phases: Liquid
Fixed: Pressure, kPa = 100
Fixed: Frequency, MHz = 0.001
Property: Electrical conductivity, S/m (Liquid); method: Alternating current cell with electrodes
Solvent: Mass fraction of ethanol	Temperature, K	Molality, mol/kg of N1,N1,N7,N7-tetramethyl-N1,N7-dioctylheptane-1,7-diaminium bromide	Electrical conductivity, S/m	uncertainty
0	288.15	0.00346	0.045	0.0006
0	288.15	0.00683	0.0906	0.0009
0	288.15	0.01013	0.1321	0.0012
0	288.15	0.01335	0.1701	0.0014
0	288.15	0.01649	0.2053	0.0016
0	288.15	0.01957	0.2383	0.0018
0	288.15	0.02257	0.2693	0.002
0	288.15	0.02551	0.2984	0.0022
0	288.15	0.02839	0.3261	0.0024
0	288.15	0.0312	0.3525	0.0026
0	288.15	0.03396	0.3773	0.0027
0	288.15	0.03665	0.4012	0.0029
0	288.15	0.03929	0.4237	0.003
0	288.15	0.04187	0.4456	0.0032
0	288.15	0.0444	0.461	0.0035
0	288.15	0.04688	0.4806	0.0037
0	288.15	0.04931	0.5009	0.0038
0	288.15	0.05169	0.5198	0.0038
0	288.15	0.05403	0.534	0.0039
0	288.15	0.05632	0.5494	0.004
0	288.15	0.05856	0.5647	0.0041
0	288.15	0.06076	0.5807	0.0042
0	288.15	0.06292	0.5961	0.0043
0	288.15	0.06504	0.611	0.0043
0	288.15	0.06712	0.6248	0.0043
0	288.15	0.06916	0.6378	0.0044
0	288.15	0.07117	0.6503	0.0044
0	288.15	0.07313	0.6618	0.0044
0	288.15	0.07507	0.6728	0.0044
0	288.15	0.07697	0.6825	0.0045
0	288.15	0.07883	0.6918	0.0045
0	288.15	0.08066	0.7006	0.0046
0	288.15	0.08246	0.7086	0.0046
0	288.15	0.08423	0.7159	0.0046
0	288.15	0.08597	0.7231	0.0047
0	288.15	0.08768	0.7297	0.0047
0	288.15	0.08936	0.7375	0.0047
0	288.15	0.09102	0.7433	0.0047
0	288.15	0.09264	0.7486	0.0048
0	288.15	0.09424	0.7533	0.0048
0	288.15	0.09582	0.7584	0.005
0	288.15	0.09737	0.7635	0.0049
0	288.15	0.09889	0.7686	0.0051
0	288.15	0.10039	0.7735	0.0052
0	288.15	0.10187	0.7782	0.0052
0	288.15	0.10332	0.7828	0.0052
0	288.15	0.10475	0.7873	0.0052
0	288.15	0.10616	0.7914	0.0053
0	288.15	0.10755	0.7956	0.0053
0	288.15	0.10891	0.7996	0.0053
0	288.15	0.11026	0.8036	0.0053
0	288.15	0.11158	0.8074	0.0054
0	288.15	0.11289	0.8111	0.0054
0	288.15	0.11418	0.8148	0.0054
0	288.15	0.11545	0.8184	0.0054
0	288.15	0.1167	0.8218	0.0054
0	288.15	0.11793	0.825	0.0055
0	288.15	0.11914	0.8283	0.0055
0	288.15	0.12034	0.8317	0.0055
0	288.15	0.12152	0.8351	0.0055
0	293.15	0.00358	0.0614	0.0004
0	293.15	0.00707	0.1141	0.0007
0	293.15	0.01048	0.1619	0.001
0	293.15	0.01381	0.2059	0.0012
0	293.15	0.01706	0.2467	0.0014
0	293.15	0.02023	0.2847	0.0016
0	293.15	0.02333	0.3205	0.0018
0	293.15	0.02635	0.3542	0.002
0	293.15	0.02931	0.3863	0.0022
0	293.15	0.03221	0.4164	0.0024
0	293.15	0.03504	0.4453	0.0025
0	293.15	0.0378	0.4726	0.0027
0	293.15	0.04051	0.4989	0.0028
0	293.15	0.04316	0.5237	0.0031
0	293.15	0.04576	0.5474	0.0033
0	293.15	0.0483	0.57	0.0034
0	293.15	0.05078	0.5891	0.0035
0	293.15	0.05322	0.6085	0.0037
0	293.15	0.05561	0.6274	0.0038
0	293.15	0.05795	0.6459	0.0039
0	293.15	0.06024	0.6632	0.004
0	293.15	0.06249	0.6801	0.0041
0	293.15	0.06469	0.6958	0.0041
0	293.15	0.06685	0.7104	0.0043
0	293.15	0.06897	0.7244	0.0043
0	293.15	0.07105	0.7376	0.0044
0	293.15	0.07309	0.7496	0.0044
0	293.15	0.0751	0.7611	0.0044
0	293.15	0.07706	0.7718	0.0046
0	293.15	0.07899	0.7823	0.0046
0	293.15	0.08089	0.7922	0.0046
0	293.15	0.08275	0.8007	0.0047
0	293.15	0.08458	0.8095	0.0047
0	293.15	0.08637	0.8177	0.0048
0	293.15	0.08814	0.8255	0.0049
0	293.15	0.08987	0.833	0.0049
0	293.15	0.09157	0.8399	0.0049
0	293.15	0.09325	0.8467	0.0049
0	293.15	0.0949	0.8531	0.0051
0	293.15	0.09652	0.8596	0.0051
0	293.15	0.09811	0.8656	0.0051
0	293.15	0.09967	0.8712	0.0052
0	293.15	0.10122	0.8769	0.0053
0	293.15	0.10273	0.8822	0.0054
0	293.15	0.10422	0.8877	0.0054
0	293.15	0.10569	0.8931	0.0054
0	293.15	0.10714	0.8979	0.0054
0	293.15	0.10856	0.9028	0.0054
0	293.15	0.10996	0.9078	0.0055
0	293.15	0.11134	0.9126	0.0055
0	293.15	0.11269	0.9169	0.0055
0	293.15	0.11403	0.9214	0.0056
0	293.15	0.11535	0.9255	0.0056
0	293.15	0.11664	0.9298	0.0057
0	293.15	0.11792	0.9337	0.0057
0	293.15	0.11918	0.9381	0.0057
0	293.15	0.12042	0.9422	0.0057
0	293.15	0.12164	0.9463	0.0058
0	293.15	0.12285	0.9498	0.0057
0	293.15	0.12403	0.9537	0.0057
0	298.15	0.00412	0.0733	0.0005
0	298.15	0.00813	0.1367	0.0008
0	298.15	0.01203	0.194	0.0011
0	298.15	0.01584	0.2465	0.0014
0	298.15	0.01956	0.2953	0.0017
0	298.15	0.02318	0.3409	0.002
0	298.15	0.02672	0.3836	0.0023
0	298.15	0.03018	0.4238	0.0026
0	298.15	0.03355	0.4622	0.0028
0	298.15	0.03684	0.4985	0.003
0	298.15	0.04006	0.5328	0.0033
0	298.15	0.0432	0.5664	0.0035
0	298.15	0.04628	0.5975	0.0037
0	298.15	0.04928	0.6276	0.0039
0	298.15	0.05222	0.6556	0.0041
0	298.15	0.0551	0.6806	0.0042
0	298.15	0.05791	0.7052	0.0044
0	298.15	0.06066	0.7286	0.0045
0	298.15	0.06336	0.7512	0.0046
0	298.15	0.066	0.7722	0.0047
0	298.15	0.06858	0.7917	0.0048
0	298.15	0.07111	0.81	0.0049
0	298.15	0.07359	0.8269	0.005
0	298.15	0.07602	0.8426	0.0051
0	298.15	0.07841	0.8573	0.0052
0	298.15	0.08074	0.871	0.0053
0	298.15	0.08303	0.8838	0.0053
0	298.15	0.08528	0.8958	0.0054
0	298.15	0.08748	0.9072	0.0056
0	298.15	0.08964	0.918	0.0056
0	298.15	0.09176	0.9283	0.0057
0	298.15	0.09385	0.9381	0.0057
0	298.15	0.09589	0.9474	0.0058
0	298.15	0.0979	0.9564	0.0059
0	298.15	0.09987	0.9652	0.0059
0	298.15	0.1018	0.9737	0.0059
0	298.15	0.1037	0.9813	0.006
0	298.15	0.10557	0.9894	0.0061
0	298.15	0.10741	0.9968	0.0061
0	298.15	0.10921	1.004	0.0061
0	298.15	0.11098	1.0113	0.0062
0	298.15	0.11272	1.018	0.0062
0	298.15	0.11444	1.0247	0.0062
0	298.15	0.11612	1.0312	0.0063
0	298.15	0.11778	1.0376	0.0063
0	298.15	0.11941	1.0437	0.0064
0	298.15	0.12101	1.0501	0.0064
0	298.15	0.12259	1.0561	0.0065
0	298.15	0.12414	1.0618	0.0065
0	298.15	0.12566	1.0676	0.0065
0	298.15	0.12717	1.073	0.0065
0	298.15	0.12865	1.0784	0.0065
0	298.15	0.1301	1.0836	0.0072
0	298.15	0.13154	1.0886	0.0073
0	298.15	0.13295	1.0937	0.0073
0	298.15	0.13434	1.0987	0.0073
0	298.15	0.13571	1.1034	0.0074
0	298.15	0.13706	1.1083	0.0075
0	298.15	0.13839	1.1131	0.0076
0	298.15	0.1397	1.1176	0.0076
0	303.15	0.00395	0.0825	0.0005
0	303.15	0.0078	0.1546	0.0008
0	303.15	0.01155	0.2192	0.0012
0	303.15	0.01522	0.2786	0.0016
0	303.15	0.0188	0.3341	0.0019
0	303.15	0.02229	0.3857	0.0024
0	303.15	0.02571	0.4344	0.0027
0	303.15	0.02904	0.4801	0.003
0	303.15	0.0323	0.5234	0.0034
0	303.15	0.03549	0.5642	0.0036
0	303.15	0.0386	0.6027	0.0038
0	303.15	0.04165	0.6395	0.0042
0	303.15	0.04463	0.6742	0.0044
0	303.15	0.04755	0.707	0.0046
0	303.15	0.0504	0.737	0.0049
0	303.15	0.0532	0.7654	0.005
0	303.15	0.05594	0.7928	0.0052
0	303.15	0.05862	0.8182	0.0053
0	303.15	0.06124	0.8422	0.0055
0	303.15	0.06382	0.8647	0.0056
0	303.15	0.06634	0.8857	0.0057
0	303.15	0.06881	0.9055	0.0058
0	303.15	0.07123	0.9241	0.0059
0	303.15	0.07361	0.9413	0.006
0	303.15	0.07594	0.9574	0.0061
0	303.15	0.07823	0.9726	0.0062
0	303.15	0.08047	0.9867	0.0063
0	303.15	0.08267	1.0004	0.0063
0	303.15	0.08483	1.0133	0.0064
0	303.15	0.08695	1.0258	0.0065
0	303.15	0.08904	1.0377	0.0066
0	303.15	0.09108	1.0486	0.0067
0	303.15	0.09309	1.0594	0.0068
0	303.15	0.09506	1.0699	0.0069
0	303.15	0.097	1.0799	0.0069
0	303.15	0.09891	1.0894	0.007
0	303.15	0.10078	1.0989	0.007
0	303.15	0.10262	1.1081	0.0071
0	303.15	0.10443	1.1172	0.0072
0	303.15	0.10621	1.1254	0.0073
0	303.15	0.10795	1.1341	0.0073
0	303.15	0.10968	1.1428	0.0074
0	303.15	0.11137	1.1494	0.0075
0	303.15	0.11303	1.1525	0.0076
0	303.15	0.11467	1.1586	0.0073
0	303.15	0.11628	1.1652	0.0072
0	303.15	0.11787	1.1723	0.0074
0	303.15	0.11943	1.1795	0.0075
0	303.15	0.12096	1.1864	0.0075
0	303.15	0.12248	1.1934	0.0076
0	303.15	0.12397	1.1999	0.0073
0	303.15	0.12543	1.2068	0.0074
0	303.15	0.12688	1.2133	0.0075
0	303.15	0.1283	1.2196	0.0075
0	303.15	0.1297	1.2253	0.0076
0	303.15	0.13108	1.2314	0.0076
0	303.15	0.13245	1.2375	0.0077
0	303.15	0.13379	1.2434	0.0077
0	303.15	0.13511	1.2489	0.0078
0	303.15	0.13641	1.2544	0.0078
0	308.15	0.00314	0.0748	0.0005
0	308.15	0.0062	0.1404	0.0007
0	308.15	0.00919	0.2	0.0009
0	308.15	0.01211	0.2553	0.0012
0	308.15	0.01497	0.3068	0.0016
0	308.15	0.01775	0.3553	0.0019
0	308.15	0.02047	0.4012	0.0022
0	308.15	0.02313	0.4441	0.0023
0	308.15	0.02574	0.4852	0.0026
0	308.15	0.02828	0.5247	0.0028
0	308.15	0.03077	0.5621	0.003
0	308.15	0.0332	0.5977	0.0033
0	308.15	0.03558	0.6323	0.0035
0	308.15	0.03792	0.6661	0.0037
0	308.15	0.0402	0.6997	0.0039
0	308.15	0.04243	0.731	0.0042
0	308.15	0.04462	0.7591	0.0043
0	308.15	0.04677	0.786	0.0045
0	308.15	0.04887	0.8115	0.0047
0	308.15	0.05093	0.8363	0.0048
0	308.15	0.05295	0.86	0.005
0	308.15	0.05493	0.8824	0.005
0	308.15	0.05688	0.9035	0.0052
0	308.15	0.05878	0.9239	0.0053
0	308.15	0.06065	0.9434	0.0055
0	308.15	0.06248	0.9619	0.0056
0	308.15	0.06428	0.979	0.0057
0	308.15	0.06605	0.9956	0.0058
0	308.15	0.06778	1.0114	0.0059
0	308.15	0.06949	1.0263	0.006
0	308.15	0.07116	1.0404	0.0061
0	308.15	0.0728	1.0542	0.0062
0	308.15	0.07442	1.0668	0.0063
0	308.15	0.076	1.079	0.0064
0	308.15	0.07756	1.0898	0.0065
0	308.15	0.07909	1.1022	0.0065
0	308.15	0.0806	1.1118	0.0066
0	308.15	0.08208	1.1219	0.0067
0	308.15	0.08353	1.1327	0.0067
0	308.15	0.08496	1.1426	0.0068
0	308.15	0.08637	1.1523	0.0069
0	308.15	0.08776	1.1621	0.0069
0	308.15	0.08912	1.1712	0.007
0	308.15	0.09046	1.1795	0.0071
0	308.15	0.09178	1.1886	0.0071
0	308.15	0.09307	1.1971	0.0071
0	308.15	0.09435	1.205	0.0072
0	308.15	0.09561	1.2127	0.0072
0	308.15	0.09685	1.2203	0.0073
0	308.15	0.09807	1.2289	0.0074
0	308.15	0.09927	1.2361	0.0074
0	308.15	0.10045	1.2436	0.0074
0	308.15	0.10162	1.2506	0.0074
0	308.15	0.10276	1.2573	0.0075
0	308.15	0.10389	1.2637	0.0075
0	308.15	0.10501	1.2721	0.0075
0	308.15	0.10611	1.2783	0.0076
0	308.15	0.10719	1.2843	0.0076
0	308.15	0.10826	1.2901	0.0076
0	313.15	0.00321	0.0867	0.0005
0	313.15	0.00651	0.1626	0.0008
0	313.15	0.00972	0.2318	0.001
0	313.15	0.01285	0.2956	0.0013
0	313.15	0.0159	0.3549	0.0017
0	313.15	0.01887	0.411	0.002
0	313.15	0.02177	0.4636	0.0023
0	313.15	0.0246	0.5134	0.0026
0	313.15	0.02737	0.5608	0.0029
0	313.15	0.03007	0.606	0.0031
0	313.15	0.0327	0.6486	0.0034
0	313.15	0.03528	0.6897	0.0037
0	313.15	0.03779	0.7286	0.0039
0	313.15	0.04025	0.7657	0.0041
0	313.15	0.04266	0.8008	0.0042
0	313.15	0.04501	0.8346	0.0045
0	313.15	0.04731	0.8666	0.0047
0	313.15	0.04956	0.8969	0.0048
0	313.15	0.05176	0.9261	0.005
0	313.15	0.05392	0.9541	0.0051
0	313.15	0.05603	0.9819	0.0052
0	313.15	0.0581	1.0077	0.0054
0	313.15	0.06013	1.032	0.0056
0	313.15	0.06211	1.0546	0.0057
0	313.15	0.06405	1.0757	0.0058
0	313.15	0.06596	1.0961	0.0059
0	313.15	0.06783	1.1153	0.006
0	313.15	0.06966	1.1338	0.0061
0	313.15	0.07146	1.151	0.0062
0	313.15	0.07322	1.1678	0.0063
0	313.15	0.07495	1.1836	0.0064
0	313.15	0.07665	1.1981	0.0065
0	313.15	0.07831	1.2127	0.0066
0	313.15	0.07994	1.2263	0.0067
0	313.15	0.08155	1.2399	0.0068
0	313.15	0.08313	1.2527	0.0069
0	313.15	0.08467	1.2647	0.0069
0	313.15	0.08619	1.2764	0.007
0	313.15	0.08769	1.2879	0.0071
0	313.15	0.08915	1.2981	0.0071
0	313.15	0.0906	1.3086	0.0072
0	313.15	0.09201	1.3189	0.0073
0	313.15	0.09341	1.3268	0.0072
0	313.15	0.09478	1.3358	0.0073
0	313.15	0.09612	1.3449	0.0073
0	313.15	0.09745	1.354	0.0073
0	313.15	0.09875	1.363	0.0074
0	313.15	0.10003	1.3693	0.0074
0	313.15	0.10129	1.3783	0.0074
0	313.15	0.10253	1.3855	0.0076
0	313.15	0.10375	1.3923	0.0076
0	313.15	0.10495	1.3989	0.0076
0	313.15	0.10614	1.4051	0.0076
0	313.15	0.1073	1.411	0.0076
0	313.15	0.10845	1.4165	0.0076
0	313.15	0.10958	1.4217	0.0075
0	313.15	0.11069	1.4266	0.0074
0	313.15	0.11178	1.4312	0.0074
0	313.15	0.11286	1.4355	0.0073
0	318.15	0.00275	0.0804	0.0005
0	318.15	0.00557	0.1507	0.0007
0	318.15	0.00825	0.2156	0.001
0	318.15	0.01087	0.2766	0.0012
0	318.15	0.01343	0.3337	0.0015
0	318.15	0.01593	0.3879	0.0018
0	318.15	0.01837	0.4391	0.0021
0	318.15	0.02075	0.4875	0.0024
0	318.15	0.02309	0.5336	0.0026
0	318.15	0.02536	0.5768	0.0029
0	318.15	0.02759	0.6191	0.0032
0	318.15	0.02977	0.6595	0.0034
0	318.15	0.03191	0.6992	0.0035
0	318.15	0.034	0.7358	0.0037
0	318.15	0.03604	0.772	0.004
0	318.15	0.03804	0.8061	0.0042
0	318.15	0.04	0.8387	0.0043
0	318.15	0.04192	0.8696	0.0045
0	318.15	0.0438	0.8989	0.0047
0	318.15	0.04564	0.9262	0.0048
0	318.15	0.04745	0.9522	0.0049
0	318.15	0.04922	0.9784	0.0052
0	318.15	0.05096	1.0043	0.0053
0	318.15	0.05266	1.0258	0.0056
0	318.15	0.05433	1.0487	0.0056
0	318.15	0.05597	1.071	0.0057
0	318.15	0.05757	1.0923	0.0058
0	318.15	0.05915	1.1133	0.0059
0	318.15	0.0607	1.1328	0.0061
0	318.15	0.06222	1.1506	0.0062
0	318.15	0.06372	1.1656	0.0062
0	318.15	0.06518	1.1858	0.0063
0	318.15	0.06662	1.1977	0.0065
0	318.15	0.06804	1.2143	0.0065
0	318.15	0.06943	1.2281	0.0065
0	318.15	0.07079	1.2444	0.0066
0	318.15	0.07214	1.2569	0.0067
0	318.15	0.07346	1.2706	0.0068
0	318.15	0.07476	1.2841	0.0069
0	318.15	0.07603	1.2963	0.0069
0	318.15	0.07729	1.3096	0.007
0	318.15	0.07852	1.32	0.0071
0	318.15	0.07974	1.3335	0.0071
0	318.15	0.08093	1.3436	0.0072
0	318.15	0.08211	1.3557	0.0073
0	318.15	0.08326	1.365	0.0073
0	318.15	0.0844	1.3763	0.0074
0	318.15	0.08552	1.3851	0.0075
0	318.15	0.08663	1.3953	0.0075
0	318.15	0.08771	1.4033	0.0075
0	318.15	0.08878	1.4127	0.0076
0	318.15	0.08984	1.4208	0.0076
0	318.15	0.09087	1.4284	0.0076
0	318.15	0.0919	1.4381	0.0077
0	318.15	0.0929	1.4425	0.0077
0	318.15	0.0939	1.4489	0.0077
0	318.15	0.09487	1.4549	0.0077
0	318.15	0.09584	1.4597	0.0077
0	318.15	0.09679	1.4657	0.0078
0	323.15	0.00277	0.0873	0.0005
0	323.15	0.00548	0.1644	0.0007
0	323.15	0.00812	0.2351	0.001
0	323.15	0.01069	0.3008	0.0013
0	323.15	0.01321	0.3629	0.0016
0	323.15	0.01566	0.4212	0.0018
0	323.15	0.01806	0.4754	0.0021
0	323.15	0.02041	0.5277	0.0023
0	323.15	0.0227	0.5778	0.0026
0	323.15	0.02494	0.6254	0.0029
0	323.15	0.02712	0.6715	0.0031
0	323.15	0.02926	0.7138	0.0034
0	323.15	0.03136	0.753	0.0036
0	323.15	0.03341	0.7921	0.0038
0	323.15	0.03541	0.8301	0.004
0	323.15	0.03738	0.8645	0.0041
0	323.15	0.0393	0.8986	0.0043
0	323.15	0.04118	0.9304	0.0045
0	323.15	0.04303	0.9603	0.0046
0	323.15	0.04483	0.9926	0.0048
0	323.15	0.0466	1.0218	0.005
0	323.15	0.04834	1.0494	0.0052
0	323.15	0.05004	1.0774	0.0054
0	323.15	0.05171	1.1042	0.0056
0	323.15	0.05335	1.1307	0.0058
0	323.15	0.05495	1.1552	0.006
0	323.15	0.05653	1.1791	0.0061
0	323.15	0.05808	1.203	0.0063
0	323.15	0.05959	1.2231	0.0064
0	323.15	0.06108	1.2446	0.0065
0	323.15	0.06254	1.2654	0.0066
0	323.15	0.06398	1.2833	0.0068
0	323.15	0.06539	1.2997	0.0068
0	323.15	0.06678	1.3198	0.007
0	323.15	0.06814	1.333	0.0071
0	323.15	0.06948	1.3491	0.0072
0	323.15	0.07079	1.3645	0.0072
0	323.15	0.07208	1.3798	0.0073
0	323.15	0.07335	1.3942	0.0074
0	323.15	0.0746	1.4084	0.0075
0	323.15	0.07583	1.422	0.0076
0	323.15	0.07704	1.4358	0.0076
0	323.15	0.07822	1.448	0.0078
0	323.15	0.07939	1.4603	0.0078
0	323.15	0.08054	1.4722	0.0079
0	323.15	0.08167	1.4847	0.0079
0	323.15	0.08279	1.4945	0.008
0	323.15	0.08388	1.506	0.008
0	323.15	0.08496	1.515	0.0081
0	323.15	0.08602	1.526	0.0082
0	323.15	0.08707	1.5336	0.0082
0	323.15	0.0881	1.5423	0.0082
0	323.15	0.08911	1.5504	0.0082
0	323.15	0.09011	1.5581	0.0083
0	323.15	0.09109	1.5654	0.0083
0	323.15	0.09206	1.5722	0.0082
0	323.15	0.09302	1.5785	0.0083
0	323.15	0.09396	1.5844	0.0083
0	323.15	0.09489	1.5898	0.0083
0.1	288.15	0.00363	0.0393	0.0004
0.1	288.15	0.00722	0.0744	0.0006
0.1	288.15	0.01075	0.1064	0.0009
0.1	288.15	0.01424	0.1365	0.0011
0.1	288.15	0.01768	0.1644	0.0014
0.1	288.15	0.02107	0.1909	0.0016
0.1	288.15	0.02442	0.2162	0.0019
0.1	288.15	0.02773	0.2403	0.0021
0.1	288.15	0.03099	0.263	0.0023
0.1	288.15	0.0342	0.2847	0.0025
0.1	288.15	0.03738	0.3056	0.0026
0.1	288.15	0.04051	0.3258	0.0029
0.1	288.15	0.04361	0.3452	0.0029
0.1	288.15	0.04666	0.3637	0.003
0.1	288.15	0.04967	0.3813	0.0031
0.1	288.15	0.05265	0.398	0.0033
0.1	288.15	0.05559	0.4141	0.0033
0.1	288.15	0.0585	0.4294	0.0034
0.1	288.15	0.06136	0.4427	0.0035
0.1	288.15	0.06419	0.4556	0.0036
0.1	288.15	0.06897	0.4769	0.0038
0.1	288.15	0.07365	0.4961	0.004
0.1	288.15	0.07824	0.5134	0.0041
0.1	288.15	0.08273	0.5292	0.0043
0.1	288.15	0.08713	0.5437	0.0044
0.1	288.15	0.09144	0.5573	0.0045
0.1	288.15	0.09567	0.57	0.0047
0.1	288.15	0.09981	0.5819	0.0048
0.1	288.15	0.10388	0.5933	0.0049
0.1	288.15	0.10787	0.604	0.005
0.1	288.15	0.11178	0.6145	0.0051
0.1	288.15	0.11562	0.6245	0.0052
0.1	288.15	0.11939	0.6339	0.0053
0.1	288.15	0.12309	0.6431	0.0054
0.1	288.15	0.12672	0.6522	0.0054
0.1	288.15	0.13029	0.6606	0.0055
0.1	288.15	0.13379	0.6691	0.0056
0.1	288.15	0.13723	0.6771	0.0057
0.1	288.15	0.14061	0.685	0.0057
0.1	288.15	0.14393	0.6927	0.0058
0.1	288.15	0.14719	0.7002	0.0059
0.1	288.15	0.1504	0.7073	0.006
0.1	288.15	0.15355	0.7141	0.006
0.1	288.15	0.15665	0.721	0.0061
0.1	288.15	0.1597	0.7276	0.0062
0.1	288.15	0.16269	0.734	0.0062
0.1	288.15	0.16564	0.7403	0.0063
0.1	288.15	0.16854	0.7463	0.0064
0.1	288.15	0.1714	0.7525	0.0064
0.1	288.15	0.1742	0.7591	0.0065
0.1	288.15	0.17697	0.7642	0.0065
0.1	288.15	0.17968	0.77	0.0066
0.1	288.15	0.18236	0.7756	0.0066
0.1	288.15	0.185	0.7814	0.0066
0.1	288.15	0.18759	0.7863	0.0066
0.1	288.15	0.19014	0.7914	0.0067
0.1	288.15	0.19266	0.7964	0.0067
0.1	288.15	0.19514	0.8012	0.0067
0.1	288.15	0.19758	0.8062	0.0067
0.1	288.15	0.19998	0.8108	0.0066
0.1	288.15	0.20235	0.8149	0.0066
0.1	288.15	0.20469	0.8192	0.0067
0.1	288.15	0.20699	0.8233	0.0067
0.1	288.15	0.20925	0.8272	0.0067
0.1	288.15	0.21149	0.8311	0.0067
0.1	288.15	0.21369	0.8349	0.0066
0.1	288.15	0.21586	0.8384	0.0066
0.1	288.15	0.21801	0.8418	0.0066
0.1	293.15	0.00361	0.0476	0.0003
0.1	293.15	0.00716	0.0869	0.0007
0.1	293.15	0.01067	0.1243	0.001
0.1	293.15	0.01413	0.1597	0.0012
0.1	293.15	0.01754	0.1933	0.0014
0.1	293.15	0.02091	0.2253	0.0017
0.1	293.15	0.02423	0.2556	0.0019
0.1	293.15	0.02751	0.2843	0.0021
0.1	293.15	0.03075	0.3115	0.0023
0.1	293.15	0.03394	0.3373	0.0025
0.1	293.15	0.03709	0.3618	0.0027
0.1	293.15	0.04328	0.407	0.003
0.1	293.15	0.04631	0.4278	0.0031
0.1	293.15	0.04931	0.4476	0.0033
0.1	293.15	0.05518	0.4842	0.0035
0.1	293.15	0.05807	0.5011	0.0036
0.1	293.15	0.06092	0.5171	0.0038
0.1	293.15	0.06373	0.5324	0.0039
0.1	293.15	0.06848	0.557	0.004
0.1	293.15	0.07313	0.5795	0.0042
0.1	293.15	0.07769	0.6003	0.0043
0.1	293.15	0.08215	0.6196	0.0045
0.1	293.15	0.08653	0.6375	0.0046
0.1	293.15	0.09082	0.6542	0.0047
0.1	293.15	0.09503	0.6699	0.0049
0.1	293.15	0.09915	0.6846	0.005
0.1	293.15	0.1032	0.6985	0.0051
0.1	293.15	0.10716	0.7116	0.0052
0.1	293.15	0.11106	0.7242	0.0053
0.1	293.15	0.11488	0.7361	0.0054
0.1	293.15	0.11863	0.7476	0.0055
0.1	293.15	0.12231	0.7587	0.0056
0.1	293.15	0.12593	0.7694	0.0057
0.1	293.15	0.12948	0.7797	0.0058
0.1	293.15	0.13297	0.7898	0.0058
0.1	293.15	0.1364	0.7996	0.0059
0.1	293.15	0.13976	0.8091	0.006
0.1	293.15	0.14307	0.8184	0.0061
0.1	293.15	0.14632	0.8274	0.0062
0.1	293.15	0.14952	0.8363	0.0062
0.1	293.15	0.15266	0.8449	0.0063
0.1	293.15	0.15575	0.8533	0.0064
0.1	293.15	0.15879	0.8615	0.0065
0.1	293.15	0.16177	0.8695	0.0065
0.1	293.15	0.16471	0.8773	0.0066
0.1	293.15	0.1676	0.8849	0.0067
0.1	293.15	0.17045	0.8922	0.0067
0.1	293.15	0.17325	0.8992	0.0068
0.1	293.15	0.176	0.9061	0.0068
0.1	293.15	0.17871	0.9126	0.0069
0.1	293.15	0.18138	0.9188	0.0069
0.1	293.15	0.18401	0.9248	0.0069
0.1	293.15	0.1866	0.9304	0.0069
0.1	293.15	0.18915	0.9357	0.0069
0.1	293.15	0.19166	0.9407	0.007
0.1	293.15	0.19413	0.9453	0.007
0.1	293.15	0.19657	0.9495	0.0069
0.1	298.15	0.0028	0.0424	0.0003
0.1	298.15	0.00556	0.0811	0.0005
0.1	298.15	0.00829	0.1164	0.0006
0.1	298.15	0.01098	0.1496	0.0009
0.1	298.15	0.01364	0.1809	0.0012
0.1	298.15	0.01626	0.2104	0.0014
0.1	298.15	0.01884	0.2389	0.0015
0.1	298.15	0.02139	0.2659	0.0018
0.1	298.15	0.02391	0.2919	0.002
0.1	298.15	0.0264	0.3168	0.0022
0.1	298.15	0.02886	0.3407	0.0022
0.1	298.15	0.03128	0.3637	0.0024
0.1	298.15	0.03368	0.386	0.0026
0.1	298.15	0.03604	0.4074	0.0027
0.1	298.15	0.03838	0.428	0.0028
0.1	298.15	0.04069	0.4478	0.003
0.1	298.15	0.04297	0.467	0.0031
0.1	298.15	0.04522	0.4854	0.0032
0.1	298.15	0.04744	0.5031	0.0033
0.1	298.15	0.04964	0.52	0.0035
0.1	298.15	0.05368	0.5487	0.0037
0.1	298.15	0.05763	0.5755	0.0038
0.1	298.15	0.06149	0.6001	0.004
0.1	298.15	0.06528	0.6232	0.0041
0.1	298.15	0.06898	0.6446	0.0042
0.1	298.15	0.0726	0.6643	0.0044
0.1	298.15	0.07615	0.6829	0.0045
0.1	298.15	0.07963	0.7002	0.0046
0.1	298.15	0.08303	0.7166	0.0047
0.1	298.15	0.08637	0.7322	0.0048
0.1	298.15	0.08964	0.7468	0.0049
0.1	298.15	0.09284	0.7605	0.005
0.1	298.15	0.09599	0.7738	0.0051
0.1	298.15	0.09907	0.7866	0.0052
0.1	298.15	0.10209	0.7987	0.0053
0.1	298.15	0.10505	0.8104	0.0053
0.1	298.15	0.10796	0.8218	0.0054
0.1	298.15	0.11082	0.8328	0.0055
0.1	298.15	0.11362	0.8436	0.0057
0.1	298.15	0.11637	0.8538	0.0056
0.1	298.15	0.11907	0.8638	0.0057
0.1	298.15	0.12173	0.8735	0.0059
0.1	298.15	0.12433	0.8828	0.0059
0.1	298.15	0.12689	0.8918	0.0059
0.1	298.15	0.1294	0.9008	0.006
0.1	298.15	0.13188	0.9093	0.0061
0.1	298.15	0.1343	0.9175	0.0061
0.1	298.15	0.13669	0.9256	0.0062
0.1	298.15	0.13904	0.9336	0.0063
0.1	298.15	0.14134	0.9415	0.0063
0.1	298.15	0.14361	0.949	0.0064
0.1	298.15	0.14584	0.9562	0.0065
0.1	298.15	0.14804	0.9635	0.0066
0.1	298.15	0.1502	0.9703	0.0065
0.1	298.15	0.15232	0.9771	0.0066
0.1	298.15	0.15441	0.984	0.0067
0.1	298.15	0.15647	0.9904	0.0067
0.1	298.15	0.1585	0.9971	0.0068
0.1	298.15	0.16049	1.0032	0.0069
0.1	298.15	0.16245	1.0094	0.0069
0.1	298.15	0.16438	1.0158	0.0069
0.1	298.15	0.166287	1.0217	0.007
0.1	298.15	0.16816	1.0275	0.007
0.1	298.15	0.17001	1.0329	0.007
0.1	298.15	0.17183	1.0381	0.007
0.1	298.15	0.17362	1.0433	0.0071
0.1	298.15	0.17538	1.0487	0.0071
0.1	298.15	0.177123	1.0539	0.0072
0.1	303.15	0.00367	0.0641	0.0004
0.1	303.15	0.00728	0.1167	0.0007
0.1	303.15	0.01084	0.1665	0.001
0.1	303.15	0.01436	0.2136	0.0012
0.1	303.15	0.01783	0.2583	0.0016
0.1	303.15	0.02125	0.3005	0.0019
0.1	303.15	0.02462	0.3404	0.0021
0.1	303.15	0.02794	0.3782	0.0024
0.1	303.15	0.03123	0.4139	0.0026
0.1	303.15	0.03447	0.4476	0.0028
0.1	303.15	0.03767	0.4795	0.003
0.1	303.15	0.04083	0.5097	0.0032
0.1	303.15	0.04394	0.5382	0.0033
0.1	303.15	0.04702	0.5652	0.0035
0.1	303.15	0.05005	0.5908	0.0036
0.1	303.15	0.05305	0.615	0.0038
0.1	303.15	0.05601	0.6379	0.0039
0.1	303.15	0.05893	0.6597	0.004
0.1	303.15	0.06182	0.6803	0.0041
0.1	303.15	0.06467	0.7	0.0043
0.1	303.15	0.06948	0.7314	0.0044
0.1	303.15	0.07419	0.7604	0.0046
0.1	303.15	0.0788	0.7872	0.0048
0.1	303.15	0.08331	0.8121	0.005
0.1	303.15	0.08774	0.8354	0.0051
0.1	303.15	0.09208	0.8572	0.0053
0.1	303.15	0.09633	0.8777	0.0054
0.1	303.15	0.1005	0.8972	0.0055
0.1	303.15	0.10458	0.9157	0.0056
0.1	303.15	0.10859	0.9334	0.0057
0.1	303.15	0.11252	0.9504	0.0059
0.1	303.15	0.11638	0.9668	0.0059
0.1	303.15	0.12017	0.9826	0.006
0.1	303.15	0.12388	0.998	0.0062
0.1	303.15	0.12753	1.0129	0.0062
0.1	303.15	0.13111	1.0274	0.0064
0.1	303.15	0.13463	1.0416	0.0064
0.1	303.15	0.13808	1.0554	0.0066
0.1	303.15	0.14147	1.0688	0.0066
0.1	303.15	0.14481	1.082	0.0068
0.1	303.15	0.14808	1.0947	0.0068
0.1	303.15	0.1513	1.1072	0.007
0.1	303.15	0.15446	1.1192	0.007
0.1	303.15	0.15757	1.1309	0.0071

System: ethanol + water + N1,N1,N7,N7-tetramethyl-N1,N7-dioctylheptane-1,7-diaminium bromide; phases: Liquid, Air at 1 atmosphere
Fixed: Temperature, K = 293.15
Property: Surface tension liquid-gas, N/m (Liquid); method: Maximal bubble pressure
Solvent: Mass fraction of ethanol	Molality, mol/kg of N1,N1,N7,N7-tetramethyl-N1,N7-dioctylheptane-1,7-diaminium bromide	Surface tension liquid-gas, N/m	uncertainty
0	0	0.0728	0.0007
0	0.00674	0.0602	0.0006
0	0.01312	0.0526	0.0005
0	0.01918	0.0481	0.0005
0	0.02493	0.0458	0.0004
0	0.03041	0.0442	0.0004
0	0.03562	0.0433	0.0004
0	0.04059	0.0422	0.0004
0	0.04533	0.0414	0.0004
0	0.04987	0.0404	0.0004
0	0.0542	0.0395	0.0004
0	0.05836	0.0391	0.0004
0	0.06233	0.0384	0.0004
0	0.06615	0.0381	0.0004
0	0.06981	0.0378	0.0004
0	0.07333	0.0375	0.0004
0	0.07672	0.0374	0.0004
0	0.07997	0.0372	0.0004
0	0.08311	0.0373	0.0004
0	0.08613	0.0373	0.0004
0	0.08905	0.0374	0.0004
0	0.09186	0.0373	0.0004
0	0.09457	0.0374	0.0004
0	0.09719	0.0372	0.0004
0	0.09973	0.0371	0.0004
0	0.10218	0.037	0.0004
0	0.10456	0.037	0.0004
0	0.10685	0.037	0.0004
0	0.10908	0.0369	0.0004
0	0.11124	0.037	0.0004
0	0.11333	0.0369	0.0004
0	0.11536	0.0369	0.0004
0.1	0	0.0425	0.0004
0.1	0.00386	0.0409	0.0004
0.1	0.00759	0.0396	0.0004
0.1	0.0112	0.0385	0.0004
0.1	0.01468	0.0374	0.0004
0.1	0.01806	0.0362	0.0004
0.1	0.02132	0.0354	0.0004
0.1	0.02449	0.0348	0.0004
0.1	0.02755	0.0342	0.0003
0.1	0.03053	0.0338	0.0003
0.1	0.03341	0.0334	0.0003
0.1	0.03621	0.033	0.0003
0.1	0.03893	0.0326	0.0003
0.1	0.04157	0.0323	0.0003
0.1	0.04414	0.0321	0.0003
0.1	0.04663	0.0319	0.0003
0.1	0.04906	0.0317	0.0003
0.1	0.05142	0.0316	0.0003
0.1	0.05372	0.0314	0.0003
0.1	0.05595	0.0313	0.0003
0.1	0.05813	0.0312	0.0003
0.1	0.06026	0.0311	0.0003
0.1	0.06233	0.031	0.0003
0.1	0.06434	0.031	0.0003
0.1	0.06631	0.0309	0.0003
0.1	0.06823	0.0308	0.0003
0.1	0.0701	0.0307	0.0003
0.1	0.07193	0.0307	0.0003
0.1	0.07372	0.0306	0.0003
0.1	0.07546	0.0305	0.0003
0.1	0.07717	0.0305	0.0003
0.1	0.07883	0.0304	0.0003
0.1	0.08046	0.0304	0.0003
0.1	0.08205	0.0303	0.0003
0.1	0.08361	0.0302	0.0003
0.1	0.08513	0.0302	0.0003
0.1	0.08662	0.0302	0.0003
0.1	0.08808	0.0302	0.0003
0.1	0.0895	0.0302	0.0003
0.1	0.0909	0.0301	0.0003
0.1	0.09227	0.0301	0.0003
0.1	0.09361	0.0302	0.0003
0.1	0.09492	0.0302	0.0003
0.1	0.09621	0.0301	0.0003
0.1	0.09747	0.0301	0.0003
0.1	0.09871	0.03	0.0003
0.1	0.09992	0.0301	0.0003
0.1	0.10111	0.03	0.0003
0.1	0.10228	0.0301	0.0003
0.1	0.10342	0.0302	0.0003
0.1	0.10455	0.0302	0.0003
0.1	0.10565	0.03	0.0003
0.1	0.10673	0.0301	0.0003
0.1	0.10779	0.0301	0.0003
0.1	0.10884	0.0301	0.0003
0.1	0.10986	0.0301	0.0003
0.1	0.11087	0.0301	0.0003
0.1	0.11186	0.03	0.0003
0.1	0.11283	0.0301	0.0003
0.1	0.11378	0.0302	0.0003
0.1	0.11472	0.03	0.0003
0.1	0.11565	0.0301	0.0003
0.1	0.11655	0.0302	0.0003
0.1	0.11745	0.0302	0.0003
0.1	0.11832	0.0302	0.0003
0.1	0.11919	0.0302	0.0003
0.1	0.12003	0.0301	0.0003

System: ethanol + water + octylene-1,8-bis(dimethyloctylammonium) bromide; phases: Liquid
Fixed: Pressure, kPa = 100
Fixed: Frequency, MHz = 0.001
Property: Electrical conductivity, S/m (Liquid); method: Alternating current cell with electrodes
Solvent: Mass fraction of ethanol	Temperature, K	Molality, mol/kg of octylene-1,8-bis(dimethyloctylammonium) bromide	Electrical conductivity, S/m	uncertainty
0	288.15	0.00336	0.0505	0.0002
0	288.15	0.00663	0.0932	0.0004
0	288.15	0.00981	0.1321	0.0005
0	288.15	0.0129	0.1683	0.0008
0	288.15	0.01592	0.2016	0.0009
0	288.15	0.01886	0.2324	0.0011
0	288.15	0.02172	0.2617	0.0013
0	288.15	0.02451	0.2891	0.0015
0	288.15	0.02723	0.3153	0.0016
0	288.15	0.02989	0.3399	0.0018
0	288.15	0.03248	0.3632	0.0019
0	288.15	0.03501	0.3851	0.0021
0	288.15	0.03748	0.4064	0.0022
0	288.15	0.03989	0.4265	0.0023
0	288.15	0.04225	0.4454	0.0024
0	288.15	0.04455	0.4635	0.0025
0	288.15	0.0468	0.4814	0.0027
0	288.15	0.049	0.4962	0.0027
0	288.15	0.05116	0.5107	0.0028
0	288.15	0.05326	0.524	0.003
0	288.15	0.05532	0.5388	0.0031
0	288.15	0.05734	0.5518	0.0031
0	288.15	0.05931	0.5643	0.0031
0	288.15	0.06124	0.5764	0.0033
0	288.15	0.06313	0.5875	0.0033
0	288.15	0.06499	0.5979	0.0033
0	288.15	0.0668	0.6082	0.0035
0	288.15	0.06858	0.6183	0.0034
0	288.15	0.07032	0.6257	0.0034
0	288.15	0.07203	0.6333	0.0034
0	288.15	0.07371	0.6407	0.0037
0	288.15	0.07535	0.6476	0.0037
0	288.15	0.07697	0.6543	0.0036
0	288.15	0.07855	0.6612	0.0038
0	288.15	0.0801	0.6669	0.0038
0	288.15	0.08162	0.6729	0.0038
0	288.15	0.08312	0.6782	0.004
0	288.15	0.08459	0.6836	0.004
0	288.15	0.08603	0.6883	0.004
0	288.15	0.08745	0.6929	0.0041
0	288.15	0.08884	0.6978	0.0041
0	288.15	0.0902	0.7032	0.0041
0	288.15	0.09155	0.7075	0.0043
0	288.15	0.09287	0.7107	0.0038
0	288.15	0.09416	0.7171	0.004
0	288.15	0.09544	0.7187	0.0044
0	288.15	0.09669	0.7229	0.0043
0	288.15	0.09792	0.7267	0.0045
0	288.15	0.09913	0.7304	0.0045
0	288.15	0.10033	0.7341	0.0043
0	293.15	0.0041	0.0582	0.0003
0	293.15	0.0081	0.1144	0.0006
0	293.15	0.012	0.1652	0.0009
0	293.15	0.01579	0.2119	0.0012
0	293.15	0.01949	0.2553	0.0016
0	293.15	0.0231	0.2955	0.0019
0	293.15	0.02663	0.3335	0.0021
0	293.15	0.03006	0.3691	0.0024
0	293.15	0.03342	0.4026	0.0026
0	293.15	0.03669	0.4344	0.0029
0	293.15	0.03989	0.4642	0.0031
0	293.15	0.04301	0.4923	0.0032
0	293.15	0.04607	0.5188	0.0034
0	293.15	0.04905	0.5437	0.0036
0	293.15	0.05197	0.567	0.0037
0	293.15	0.05483	0.5887	0.0039
0	293.15	0.05762	0.609	0.004
0	293.15	0.06035	0.6279	0.0041
0	293.15	0.06302	0.6451	0.0042
0	293.15	0.06564	0.6601	0.0043
0	293.15	0.0682	0.6739	0.0044
0	293.15	0.07071	0.688	0.0044
0	293.15	0.07317	0.7011	0.0046
0	293.15	0.07558	0.7134	0.0046
0	293.15	0.07794	0.725	0.0048
0	293.15	0.08025	0.736	0.0048
0	293.15	0.08252	0.7465	0.005
0	293.15	0.08475	0.7565	0.005
0	293.15	0.08693	0.766	0.005
0	293.15	0.08907	0.7751	0.0051
0	293.15	0.09117	0.7838	0.0052
0	293.15	0.09323	0.7792	0.00517
0	293.15	0.09525	0.7999	0.0053
0	293.15	0.09723	0.8076	0.0053
0	293.15	0.09918	0.815	0.0055
0	293.15	0.10109	0.822	0.0052
0	293.15	0.10297	0.8288	0.0058
0	293.15	0.10482	0.8355	0.0058
0	293.15	0.10663	0.841	0.0058
0	293.15	0.10841	0.8473	0.0058
0	293.15	0.11016	0.8534	0.0059
0	293.15	0.11188	0.8595	0.0066
0	293.15	0.11357	0.8655	0.0067
0	293.15	0.11524	0.8711	0.0068
0	293.15	0.11687	0.8766	0.0069
0	293.15	0.11848	0.882	0.007
0	293.15	0.12006	0.8873	0.007
0	293.15	0.12162	0.8924	0.0071
0	293.15	0.12315	0.8974	0.0072
0	293.15	0.12466	0.9022	0.0072
0	298.15	0.0032	0.0429	0.0002
0	298.15	0.00631	0.0986	0.0005
0	298.15	0.00934	0.1476	0.0008
0	298.15	0.0123	0.1943	0.0011
0	298.15	0.01519	0.2376	0.0015
0	298.15	0.018	0.2782	0.0018
0	298.15	0.02074	0.3165	0.0022
0	298.15	0.02342	0.352	0.0025
0	298.15	0.02604	0.3857	0.0027
0	298.15	0.02859	0.4174	0.003
0	298.15	0.03109	0.4477	0.0032
0	298.15	0.03353	0.4764	0.0033
0	298.15	0.03591	0.5034	0.0035
0	298.15	0.03824	0.5292	0.0037
0	298.15	0.04052	0.5538	0.0039
0	298.15	0.04275	0.5774	0.0041
0	298.15	0.04493	0.5998	0.0042
0	298.15	0.04706	0.6208	0.0043
0	298.15	0.04915	0.6405	0.0044
0	298.15	0.05119	0.6584	0.0045
0	298.15	0.05319	0.6728	0.0047
0	298.15	0.05515	0.6898	0.0047
0	298.15	0.05708	0.7062	0.0049
0	298.15	0.05896	0.7214	0.0049
0	298.15	0.0608	0.7358	0.005
0	298.15	0.06261	0.7495	0.0051
0	298.15	0.06438	0.7621	0.0053
0	298.15	0.06612	0.7741	0.0053
0	298.15	0.06783	0.7855	0.0054
0	298.15	0.0695	0.7965	0.0055
0	298.15	0.07114	0.8065	0.0055
0	298.15	0.07275	0.816	0.0056
0	298.15	0.07434	0.8253	0.0056
0	298.15	0.07589	0.8343	0.0056
0	298.15	0.07741	0.8427	0.0057
0	298.15	0.07891	0.851	0.0057
0	298.15	0.08038	0.8585	0.0058
0	298.15	0.08183	0.8659	0.0059
0	298.15	0.08324	0.8731	0.0059
0	298.15	0.08464	0.8795	0.0059
0	298.15	0.08601	0.8852	0.006
0	298.15	0.08736	0.8918	0.006
0	298.15	0.08868	0.8983	0.0061
0	298.15	0.08998	0.9052	0.0061
0	298.15	0.09126	0.9113	0.0062
0	298.15	0.09252	0.9172	0.0065
0	298.15	0.09376	0.9233	0.0065
0	298.15	0.09498	0.9287	0.0063
0	298.15	0.09618	0.9342	0.0063
0	298.15	0.09736	0.9389	0.0064
0	303.15	0.00365	0.069	0.0004
0	303.15	0.0072	0.139	0.0007
0	303.15	0.01065	0.2009	0.001
0	303.15	0.01401	0.2586	0.0018
0	303.15	0.01728	0.311	0.0021
0	303.15	0.02047	0.3605	0.0024
0	303.15	0.02357	0.4071	0.0025
0	303.15	0.0266	0.4503	0.0028
0	303.15	0.02955	0.4905	0.0031
0	303.15	0.03243	0.5267	0.0033
0	303.15	0.03523	0.5629	0.0035
0	303.15	0.03797	0.5998	0.0037
0	303.15	0.04065	0.6325	0.004
0	303.15	0.04326	0.6617	0.0041
0	303.15	0.04581	0.6911	0.0043
0	303.15	0.0483	0.7168	0.0045
0	303.15	0.05074	0.7398	0.0046
0	303.15	0.05312	0.7667	0.0048
0	303.15	0.05545	0.7853	0.0049
0	303.15	0.05772	0.8097	0.005
0	303.15	0.05995	0.8284	0.0051
0	303.15	0.06213	0.8443	0.0052
0	303.15	0.06426	0.8636	0.0053
0	303.15	0.06635	0.8772	0.0054
0	303.15	0.0684	0.8926	0.0055
0	303.15	0.0704	0.9064	0.0056
0	303.15	0.07236	0.9199	0.0057
0	303.15	0.07428	0.9326	0.0057
0	303.15	0.07617	0.9448	0.0058
0	303.15	0.07801	0.9564	0.0059
0	303.15	0.07982	0.9651	0.006
0	303.15	0.0816	0.9781	0.006
0	303.15	0.08334	0.9891	0.0061
0	303.15	0.08504	0.9982	0.0062
0	303.15	0.08672	1.0053	0.0063
0	303.15	0.08836	1.017	0.0063
0	303.15	0.08998	1.0271	0.0064
0	303.15	0.09156	1.0347	0.0064
0	303.15	0.09312	1.0443	0.0065
0	303.15	0.09464	1.0515	0.0065
0	303.15	0.09614	1.0583	0.0066
0	303.15	0.09762	1.0675	0.0066
0	303.15	0.09906	1.0745	0.0066
0	303.15	0.10049	1.0827	0.0066
0	303.15	0.10188	1.0887	0.0067
0	303.15	0.10326	1.097	0.0068
0	303.15	0.10461	1.1025	0.0069
0	303.15	0.10594	1.1025	0.007
0	303.15	0.10724	1.1159	0.007
0	303.15	0.10853	1.1225	0.0069
0	308.15	0.00373	0.0893	0.0005
0	308.15	0.00736	0.1665	0.0008
0	308.15	0.01089	0.2354	0.0011
0	308.15	0.01432	0.2994	0.0014
0	308.15	0.01766	0.3593	0.0018
0	308.15	0.02091	0.4137	0.0022
0	308.15	0.02407	0.4656	0.0025
0	308.15	0.02716	0.514	0.0027
0	308.15	0.03016	0.5602	0.003
0	308.15	0.03309	0.6034	0.0033
0	308.15	0.03594	0.6441	0.0035
0	308.15	0.03873	0.6822	0.0037
0	308.15	0.04145	0.7178	0.004
0	308.15	0.0441	0.7517	0.0042
0	308.15	0.04669	0.7836	0.0044
0	308.15	0.04922	0.8135	0.0046
0	308.15	0.05169	0.8412	0.0048
0	308.15	0.05411	0.8667	0.0049
0	308.15	0.05647	0.8904	0.005
0	308.15	0.05877	0.9135	0.0051
0	308.15	0.06103	0.9341	0.0052
0	308.15	0.06323	0.9538	0.0053
0	308.15	0.06539	0.9725	0.0055
0	308.15	0.0675	0.9895	0.0056
0	308.15	0.06957	1.0066	0.0057
0	308.15	0.0716	1.0218	0.0058
0	308.15	0.07358	1.0368	0.0059
0	308.15	0.07552	1.0512	0.006
0	308.15	0.07742	1.0645	0.0061
0	308.15	0.07929	1.0778	0.0062
0	308.15	0.08111	1.0898	0.0063
0	308.15	0.0829	1.1017	0.0063
0	308.15	0.08466	1.1137	0.0064
0	308.15	0.08638	1.1248	0.0065
0	308.15	0.08807	1.1353	0.0065
0	308.15	0.08973	1.1461	0.0066
0	308.15	0.09135	1.1562	0.0067
0	308.15	0.09295	1.1658	0.0067
0	308.15	0.09451	1.1745	0.0068
0	308.15	0.09605	1.1845	0.0069
0	308.15	0.09756	1.1931	0.0069
0	308.15	0.09904	1.2015	0.007
0	308.15	0.1005	1.2098	0.007
0	308.15	0.10193	1.2178	0.0071
0	308.15	0.10333	1.2266	0.0071
0	308.15	0.10471	1.2339	0.0072
0	308.15	0.10607	1.2421	0.0073
0	308.15	0.1074	1.2488	0.0073
0	308.15	0.10871	1.2565	0.0073
0	308.15	0.11	1.2646	0.0073
0	313.15	0.00397	0.1011	0.0005
0	313.15	0.00784	0.1891	0.0008
0	313.15	0.0116	0.2694	0.0012
0	313.15	0.01526	0.3431	0.0016
0	313.15	0.01882	0.4106	0.0019
0	313.15	0.02229	0.4749	0.0023
0	313.15	0.02567	0.5346	0.0026
0	313.15	0.02897	0.5903	0.003
0	313.15	0.03218	0.6421	0.0034
0	313.15	0.03532	0.6919	0.0037
0	313.15	0.03837	0.7377	0.004
0	313.15	0.04136	0.7807	0.0042
0	313.15	0.04427	0.8213	0.0045
0	313.15	0.04712	0.8594	0.0047
0	313.15	0.0499	0.8944	0.0049
0	313.15	0.05261	0.928	0.0051
0	313.15	0.05526	0.9585	0.0053
0	313.15	0.05786	0.9872	0.0054
0	313.15	0.06039	1.0137	0.0055
0	313.15	0.06287	1.0387	0.0057
0	313.15	0.0653	1.0626	0.0059
0	313.15	0.06768	1.0846	0.006
0	313.15	0.07	1.1059	0.0061
0	313.15	0.07227	1.1257	0.0063
0	313.15	0.0745	1.1449	0.0064
0	313.15	0.07668	1.1626	0.0065
0	313.15	0.07882	1.1802	0.0066
0	313.15	0.08091	1.197	0.0067
0	313.15	0.08297	1.2125	0.0068
0	313.15	0.08498	1.2276	0.0069
0	313.15	0.08695	1.2423	0.007
0	313.15	0.08888	1.2558	0.0071
0	313.15	0.09078	1.2703	0.0072
0	313.15	0.09264	1.2816	0.0073
0	313.15	0.09447	1.2966	0.0074
0	313.15	0.09626	1.308	0.0074
0	313.15	0.09802	1.3205	0.0075
0	313.15	0.09974	1.3315	0.0076
0	313.15	0.10144	1.3426	0.0076
0	313.15	0.1031	1.3531	0.0077
0	313.15	0.10473	1.364	0.0078
0	313.15	0.10634	1.3731	0.0078
0	313.15	0.10792	1.3848	0.0079
0	313.15	0.10947	1.394	0.0079
0	313.15	0.11099	1.4031	0.008
0	313.15	0.11249	1.4143	0.0081
0	313.15	0.11396	1.4228	0.0081
0	313.15	0.11541	1.4312	0.0083
0	313.15	0.11683	1.4396	0.0083
0	313.15	0.11823	1.4484	0.0083
0	318.15	0.00377	0.1083	0.0005
0	318.15	0.00744	0.2002	0.0009
0	318.15	0.01101	0.2877	0.0013
0	318.15	0.01448	0.366	0.0016
0	318.15	0.01786	0.4391	0.002
0	318.15	0.02115	0.5069	0.0024
0	318.15	0.02435	0.5705	0.0027
0	318.15	0.02747	0.6295	0.003
0	318.15	0.03051	0.6854	0.0034
0	318.15	0.03348	0.7376	0.0037
0	318.15	0.03637	0.7865	0.0039
0	318.15	0.03919	0.8321	0.0042
0	318.15	0.04194	0.8747	0.0045
0	318.15	0.04463	0.9153	0.0047
0	318.15	0.04725	0.9537	0.0049
0	318.15	0.04981	0.9894	0.0051
0	318.15	0.05232	1.0236	0.0053
0	318.15	0.05476	1.0545	0.0055
0	318.15	0.05716	1.083	0.0056
0	318.15	0.05949	1.1106	0.0058
0	318.15	0.06178	1.1355	0.0059
0	318.15	0.06402	1.1598	0.0061
0	318.15	0.0662	1.1827	0.0062
0	318.15	0.06835	1.2042	0.0064
0	318.15	0.07044	1.2255	0.0065
0	318.15	0.0725	1.2469	0.0066
0	318.15	0.07451	1.2657	0.0067
0	318.15	0.07648	1.2856	0.0069
0	318.15	0.0784	1.3021	0.007
0	318.15	0.0803	1.3188	0.0071
0	318.15	0.08215	1.3355	0.0072
0	318.15	0.08396	1.3498	0.0073
0	318.15	0.08575	1.364	0.0073
0	318.15	0.08749	1.3798	0.0074
0	318.15	0.08921	1.3949	0.0075
0	318.15	0.09089	1.4077	0.0076
0	318.15	0.09254	1.4215	0.0077
0	318.15	0.09416	1.4333	0.0078
0	318.15	0.09575	1.4452	0.0078
0	318.15	0.09731	1.4588	0.0079
0	318.15	0.09884	1.4675	0.0079
0	318.15	0.10034	1.4782	0.008
0	318.15	0.10182	1.4888	0.0081
0	318.15	0.10327	1.4988	0.0082
0	318.15	0.1047	1.5091	0.0082
0	318.15	0.1061	1.5194	0.0083
0	318.15	0.10748	1.5296	0.0083
0	318.15	0.10884	1.5406	0.0084
0	318.15	0.11017	1.5495	0.0085
0	318.15	0.11148	1.5592	0.0086
0	323.15	0.00376	0.1151	0.0006
0	323.15	0.00741	0.2165	0.0009
0	323.15	0.01096	0.3071	0.0013
0	323.15	0.01442	0.3918	0.0016
0	323.15	0.01779	0.4688	0.002
0	323.15	0.02106	0.5416	0.0023
0	323.15	0.02425	0.6105	0.0026
0	323.15	0.02736	0.6732	0.0029
0	323.15	0.0304	0.7335	0.0032
0	323.15	0.03335	0.7881	0.0035
0	323.15	0.03623	0.8389	0.0038
0	323.15	0.03905	0.8888	0.004
0	323.15	0.04179	0.9349	0.0043
0	323.15	0.04447	0.9796	0.0045
0	323.15	0.04709	1.0187	0.0047
0	323.15	0.04964	1.0578	0.0049
0	323.15	0.05214	1.0944	0.0051
0	323.15	0.05458	1.1301	0.0053
0	323.15	0.05696	1.1603	0.0055
0	323.15	0.0593	1.1905	0.0057
0	323.15	0.06158	1.2211	0.0059
0	323.15	0.06381	1.2492	0.0061
0	323.15	0.06599	1.2749	0.0063
0	323.15	0.06813	1.2995	0.0064
0	323.15	0.07022	1.3225	0.0066
0	323.15	0.07227	1.3453	0.0067
0	323.15	0.07428	1.3658	0.0068
0	323.15	0.07624	1.3873	0.0069
0	323.15	0.07817	1.4084	0.007
0	323.15	0.08005	1.426	0.0072
0	323.15	0.0819	1.4441	0.0072
0	323.15	0.08372	1.4621	0.0074
0	323.15	0.0855	1.4773	0.0075
0	323.15	0.08724	1.4945	0.0075
0	323.15	0.08895	1.5098	0.0076
0	323.15	0.09063	1.5248	0.0077
0	323.15	0.09228	1.5399	0.0078
0	323.15	0.0939	1.5548	0.0079
0	323.15	0.09548	1.5665	0.008
0	323.15	0.09704	1.5786	0.008
0	323.15	0.09857	1.5922	0.0081
0	323.15	0.10008	1.6049	0.0082
0	323.15	0.10155	1.6169	0.0083
0	323.15	0.103	1.6308	0.0084
0	323.15	0.10443	1.6419	0.0085
0	323.15	0.10583	1.6544	0.0086
0	323.15	0.10721	1.6646	0.0086
0	323.15	0.10856	1.6758	0.0086
0	323.15	0.10989	1.687	0.0087
0	323.15	0.1112	1.6973	0.0088
0.1	288.15	0.00567	0.0579	0.0005
0.1	288.15	0.00777	0.0772	0.0006
0.1	288.15	0.00986	0.0955	0.0008
0.1	288.15	0.01192	0.1129	0.0009
0.1	288.15	0.01397	0.1279	0.001
0.1	288.15	0.016	0.1458	0.0012
0.1	288.15	0.01801	0.1614	0.0013
0.1	288.15	0.02	0.1763	0.0014
0.1	288.15	0.02198	0.1908	0.0015
0.1	288.15	0.02393	0.2048	0.0017
0.1	288.15	0.02588	0.2184	0.0018
0.1	288.15	0.0278	0.2315	0.0019
0.1	288.15	0.02971	0.2441	0.002
0.1	288.15	0.0316	0.2564	0.0021
0.1	288.15	0.03347	0.2683	0.0022
0.1	288.15	0.03533	0.2797	0.0023
0.1	288.15	0.04018	0.3082	0.0026
0.1	288.15	0.04492	0.3343	0.0028
0.1	288.15	0.04956	0.3581	0.003
0.1	288.15	0.05409	0.3797	0.0032
0.1	288.15	0.05853	0.3991	0.0033
0.1	288.15	0.06288	0.4167	0.0035
0.1	288.15	0.06713	0.4328	0.0037
0.1	288.15	0.07129	0.4477	0.0038
0.1	288.15	0.07537	0.4615	0.004
0.1	288.15	0.07937	0.4744	0.0041
0.1	288.15	0.08329	0.4866	0.0042
0.1	288.15	0.08712	0.4978	0.0044
0.1	288.15	0.09088	0.5086	0.0045
0.1	288.15	0.09457	0.5188	0.0046
0.1	288.15	0.09819	0.5285	0.0047
0.1	288.15	0.10173	0.5376	0.0048
0.1	288.15	0.10521	0.5466	0.0049
0.1	288.15	0.10863	0.5553	0.005
0.1	288.15	0.11198	0.5635	0.0051
0.1	288.15	0.11527	0.5715	0.0052
0.1	288.15	0.11849	0.5793	0.0053
0.1	288.15	0.12166	0.5866	0.0054
0.1	288.15	0.12477	0.594	0.0055
0.1	288.15	0.12783	0.601	0.0056
0.1	288.15	0.13083	0.6078	0.0057
0.1	288.15	0.13378	0.6144	0.0058
0.1	288.15	0.13668	0.6209	0.0058
0.1	288.15	0.13953	0.6272	0.0059
0.1	288.15	0.14233	0.6332	0.006
0.1	288.15	0.14509	0.639	0.0061
0.1	288.15	0.14779	0.6446	0.0061
0.1	288.15	0.15045	0.6492	0.0062
0.1	288.15	0.15307	0.6543	0.0063
0.1	288.15	0.15565	0.6592	0.0063
0.1	288.15	0.15818	0.6642	0.0064
0.1	288.15	0.16067	0.6687	0.0065
0.1	288.15	0.16312	0.6734	0.0066
0.1	288.15	0.16554	0.6779	0.0066
0.1	288.15	0.16791	0.6824	0.0067
0.1	288.15	0.17025	0.6866	0.0068
0.1	288.15	0.17255	0.6908	0.0069
0.1	288.15	0.17482	0.695	0.007
0.1	288.15	0.17705	0.699	0.0071
0.1	288.15	0.17925	0.7027	0.0071
0.1	288.15	0.18142	0.7067	0.0071
0.1	288.15	0.18355	0.7105	0.0071
0.1	288.15	0.18565	0.7144	0.0071
0.1	288.15	0.18772	0.7182	0.0071
0.1	288.15	0.18976	0.7216	0.0071
0.1	288.15	0.19177	0.7251	0.0071
0.1	288.15	0.19376	0.7285	0.0071
0.1	293.15	0.00563	0.0691	0.0005
0.1	293.15	0.00772	0.0903	0.0007
0.1	293.15	0.00979	0.1109	0.0008
0.1	293.15	0.01184	0.1309	0.001
0.1	293.15	0.01387	0.1505	0.0011
0.1	293.15	0.01589	0.1695	0.0012
0.1	293.15	0.01789	0.1879	0.0013
0.1	293.15	0.01987	0.2058	0.0015
0.1	293.15	0.02183	0.2231	0.0016
0.1	293.15	0.02378	0.2398	0.0017
0.1	293.15	0.0257	0.256	0.0018
0.1	293.15	0.02762	0.2717	0.002
0.1	293.15	0.02951	0.2868	0.0021
0.1	293.15	0.03139	0.3014	0.0022
0.1	293.15	0.03325	0.3155	0.0023
0.1	293.15	0.0351	0.3291	0.0024
0.1	293.15	0.03992	0.3629	0.0027
0.1	293.15	0.04463	0.3936	0.0029
0.1	293.15	0.04925	0.4216	0.0032
0.1	293.15	0.05376	0.4472	0.0033
0.1	293.15	0.05817	0.4706	0.0035
0.1	293.15	0.06249	0.4921	0.0037
0.1	293.15	0.06673	0.5119	0.0038
0.1	293.15	0.07087	0.5303	0.0039
0.1	293.15	0.07493	0.5475	0.0041
0.1	293.15	0.07891	0.5636	0.0043
0.1	293.15	0.0828	0.5788	0.0044
0.1	293.15	0.08662	0.5931	0.0046
0.1	293.15	0.09037	0.6068	0.0047
0.1	293.15	0.09404	0.6198	0.0048
0.1	293.15	0.09764	0.6323	0.005
0.1	293.15	0.10117	0.6443	0.0051
0.1	293.15	0.10464	0.6559	0.0052
0.1	293.15	0.10804	0.667	0.0053
0.1	293.15	0.11138	0.6777	0.0054
0.1	293.15	0.11465	0.6881	0.0055
0.1	293.15	0.11787	0.6982	0.0056
0.1	293.15	0.12103	0.7079	0.0057
0.1	293.15	0.12413	0.7172	0.0057
0.1	293.15	0.12718	0.7263	0.0059
0.1	293.15	0.13017	0.735	0.0059
0.1	293.15	0.13311	0.7435	0.006
0.1	293.15	0.136	0.7517	0.0061
0.1	293.15	0.13884	0.7596	0.0061
0.1	293.15	0.14163	0.7672	0.0062
0.1	293.15	0.14438	0.7746	0.0063
0.1	293.15	0.14708	0.7818	0.0064
0.1	293.15	0.14973	0.7888	0.0064
0.1	293.15	0.15235	0.7955	0.0065
0.1	293.15	0.15491	0.8022	0.0066
0.1	293.15	0.15744	0.8086	0.0067
0.1	293.15	0.15993	0.815	0.0068
0.1	293.15	0.16237	0.8213	0.0068
0.1	293.15	0.16478	0.8276	0.0069
0.1	293.15	0.16715	0.8338	0.0069
0.1	293.15	0.16949	0.8401	0.007
0.1	293.15	0.17179	0.8465	0.0071
0.1	293.15	0.17405	0.853	0.0073
0.1	293.15	0.17628	0.8596	0.0074
0.1	298.15	0.0048	0.0699	0.0004
0.1	298.15	0.00949	0.123	0.0006
0.1	298.15	0.01406	0.1755	0.001
0.1	298.15	0.01575	0.1939	0.0012
0.1	298.15	0.01742	0.2119	0.0013
0.1	298.15	0.01908	0.229	0.0015
0.1	298.15	0.02072	0.2454	0.0016
0.1	298.15	0.02235	0.2615	0.0017
0.1	298.15	0.02396	0.2772	0.0018
0.1	298.15	0.02556	0.2925	0.0019
0.1	298.15	0.02714	0.3075	0.002
0.1	298.15	0.02871	0.3219	0.0021
0.1	298.15	0.03027	0.336	0.0022
0.1	298.15	0.03181	0.3498	0.0023
0.1	298.15	0.03334	0.3633	0.0024
0.1	298.15	0.03486	0.3764	0.0025
0.1	298.15	0.03636	0.3892	0.0026
0.1	298.15	0.03785	0.4015	0.0027
0.1	298.15	0.03933	0.4137	0.0027
0.1	298.15	0.0408	0.4256	0.0028
0.1	298.15	0.04225	0.437	0.0029
0.1	298.15	0.04369	0.4482	0.003
0.1	298.15	0.04512	0.4589	0.0031
0.1	298.15	0.04653	0.4694	0.0031
0.1	298.15	0.04794	0.4797	0.0032
0.1	298.15	0.04933	0.4898	0.0034
0.1	298.15	0.05071	0.4995	0.0034
0.1	298.15	0.05208	0.5086	0.0035
0.1	298.15	0.05568	0.5306	0.0035
0.1	298.15	0.05919	0.5486	0.0037
0.1	298.15	0.06264	0.5695	0.0038
0.1	298.15	0.06601	0.5868	0.004
0.1	298.15	0.06931	0.6027	0.0041
0.1	298.15	0.07254	0.6204	0.0042
0.1	298.15	0.0757	0.6371	0.0043
0.1	298.15	0.07881	0.6529	0.0045
0.1	298.15	0.08185	0.6679	0.0046
0.1	298.15	0.08483	0.6821	0.0047
0.1	298.15	0.08775	0.6957	0.0048
0.1	298.15	0.09061	0.709	0.0049
0.1	298.15	0.09342	0.7208	0.005
0.1	298.15	0.09618	0.7325	0.0051
0.1	298.15	0.09888	0.7439	0.0052
0.1	298.15	0.10154	0.7547	0.0053
0.1	298.15	0.10414	0.7654	0.0054
0.1	298.15	0.1067	0.7755	0.0055
0.1	298.15	0.10921	0.785	0.0055
0.1	298.15	0.11168	0.7946	0.0056
0.1	298.15	0.1141	0.8039	0.0057
0.1	298.15	0.11648	0.8097	0.0058
0.1	298.15	0.11882	0.8204	0.0058
0.1	298.15	0.12112	0.83	0.0059
0.1	298.15	0.12337	0.8375	0.006
0.1	298.15	0.12559	0.8461	0.006
0.1	298.15	0.12778	0.8586	0.0061
0.1	298.15	0.12992	0.8615	0.0062
0.1	298.15	0.13203	0.8732	0.0063
0.1	298.15	0.1341	0.876	0.0063
0.1	298.15	0.13615	0.8871	0.0064
0.1	298.15	0.13815	0.8898	0.0065
0.1	298.15	0.14013	0.9004	0.0065
0.1	298.15	0.14207	0.9027	0.0065
0.1	298.15	0.14398	0.913	0.0066
0.1	298.15	0.14587	0.9152	0.0067
0.1	298.15	0.14772	0.925	0.0067
0.1	298.15	0.14955	0.927	0.0067
0.1	298.15	0.15134	0.9365	0.0068
0.1	298.15	0.15311	0.9385	0.0068
0.1	298.15	0.15485	0.9474	0.0069
0.1	298.15	0.15657	0.9497	0.007
0.1	298.15	0.15826	0.9579	0.007
0.1	298.15	0.15993	0.9629	0.007
0.1	298.15	0.16157	0.9679	0.0071
0.1	298.15	0.16319	0.9727	0.0071
0.1	298.15	0.16478	0.9774	0.0072
0.1	303.15	0.00477	0.079	0.0005
0.1	303.15	0.0076	0.1156	0.0008
0.1	303.15	0.00943	0.139	0.0009
0.1	303.15	0.0117	0.1677	0.001
0.1	303.15	0.01397	0.196	0.0012
0.1	303.15	0.01565	0.2166	0.0013
0.1	303.15	0.01731	0.2367	0.0014
0.1	303.15	0.01895	0.2563	0.0015
0.1	303.15	0.02059	0.2754	0.0017
0.1	303.15	0.02221	0.294	0.0018
0.1	303.15	0.02381	0.3121	0.0019
0.1	303.15	0.0254	0.3297	0.002
0.1	303.15	0.02697	0.3469	0.0021
0.1	303.15	0.02854	0.3635	0.0023
0.1	303.15	0.03008	0.3796	0.0024
0.1	303.15	0.03162	0.3953	0.0025
0.1	303.15	0.03314	0.4105	0.0026
0.1	303.15	0.03465	0.4253	0.0027
0.1	303.15	0.03614	0.4396	0.0027
0.1	303.15	0.03763	0.4535	0.0028
0.1	303.15	0.0391	0.467	0.0029
0.1	303.15	0.04055	0.4801	0.003
0.1	303.15	0.042	0.4928	0.003
0.1	303.15	0.04343	0.5051	0.0031
0.1	303.15	0.04485	0.5171	0.0032
0.1	303.15	0.04626	0.5287	0.0033
0.1	303.15	0.04766	0.5413	0.0034
0.1	303.15	0.04905	0.5595	0.0035
0.1	303.15	0.05042	0.5659	0.0036
0.1	303.15	0.05178	0.5754	0.0036
0.1	303.15	0.05536	0.5982	0.0037
0.1	303.15	0.05886	0.6226	0.0039
0.1	303.15	0.06229	0.6455	0.0041
0.1	303.15	0.06564	0.667	0.0042
0.1	303.15	0.06893	0.6872	0.0044
0.1	303.15	0.07214	0.7063	0.0045
0.1	303.15	0.0753	0.7245	0.0046
0.1	303.15	0.07839	0.7419	0.0047
0.1	303.15	0.08142	0.7585	0.0048
0.1	303.15	0.08438	0.7745	0.0049
0.1	303.15	0.0873	0.7898	0.005
0.1	303.15	0.09015	0.8046	0.0051
0.1	303.15	0.09295	0.8189	0.0052
0.1	303.15	0.0957	0.8328	0.0053
0.1	303.15	0.09839	0.8462	0.0054
0.1	303.15	0.10104	0.8592	0.0055
0.1	303.15	0.10364	0.8719	0.0056
0.1	303.15	0.10619	0.8842	0.0057
0.1	303.15	0.10869	0.8962	0.0058
0.1	303.15	0.11115	0.9078	0.0059
0.1	303.15	0.11357	0.9191	0.006
0.1	303.15	0.11594	0.93	0.0062
0.1	303.15	0.11827	0.9407	0.0062
0.1	303.15	0.12056	0.951	0.0062
0.1	303.15	0.12282	0.961	0.0063
0.1	303.15	0.12503	0.9707	0.0064
0.1	303.15	0.12721	0.9802	0.0063
0.1	303.15	0.12935	0.9893	0.0065
0.1	303.15	0.13145	0.9982	0.0065
0.1	303.15	0.13352	1.0068	0.0067
0.1	303.15	0.13556	1.0151	0.0066
0.1	303.15	0.13756	1.0232	0.0068
0.1	303.15	0.13953	1.0311	0.0067
0.1	303.15	0.14147	1.0387	0.0069
0.1	303.15	0.14338	1.0462	0.0068
0.1	303.15	0.14526	1.0534	0.007
0.1	303.15	0.14711	1.0605	0.007
0.1	303.15	0.14894	1.0674	0.0071
0.1	303.15	0.15073	1.0742	0.0071
0.1	303.15	0.1525	1.0809	0.0072
0.1	303.15	0.15424	1.0875	0.0072
0.1	303.15	0.15595	1.094	0.0073
0.1	303.15	0.15764	1.1004	0.0073
0.1	303.15	0.1593	1.1069	0.0073
0.1	303.15	0.16094	1.1133	0.0074
0.1	303.15	0.16256	1.1198	0.0075
0.1	303.15	0.16415	1.1263	0.0076

System: ethanol + water + octylene-1,8-bis(dimethyloctylammonium) bromide; phases: Liquid, Air at 1 atmosphere
Fixed: Temperature, K = 293.15
Property: Surface tension liquid-gas, N/m (Liquid); method: Maximal bubble pressure
Solvent: Mass fraction of ethanol	Molality, mol/kg of octylene-1,8-bis(dimethyloctylammonium) bromide	Surface tension liquid-gas, N/m	uncertainty
0	0	0.0728	0.0005
0	0.00309	0.0613	0.0004
0	0.00613	0.0551	0.0004
0	0.00913	0.0515	0.0004
0	0.01207	0.049	0.0004
0	0.01498	0.0473	0.0004
0	0.01783	0.0459	0.0004
0	0.02065	0.0445	0.0003
0	0.02341	0.0431	0.0003
0	0.02614	0.0425	0.0003
0	0.02883	0.0416	0.0003
0	0.03148	0.041	0.0003
0	0.03408	0.0403	0.0003
0	0.03665	0.0394	0.0003
0	0.03919	0.0391	0.0003
0	0.04168	0.0388	0.0003
0	0.04414	0.0386	0.0003
0	0.04657	0.0381	0.0003
0	0.04896	0.0379	0.0003
0	0.05131	0.0376	0.0003
0	0.05364	0.0374	0.0003
0	0.05593	0.0372	0.0003
0	0.05819	0.0373	0.0003
0	0.06042	0.0371	0.0003
0	0.06262	0.037	0.0003
0	0.06479	0.0369	0.0003
0	0.06693	0.037	0.0003
0	0.06904	0.0368	0.0003
0	0.07113	0.0367	0.0003
0	0.07724	0.0366	0.0003
0	0.08312	0.0369	0.0003
0	0.08878	0.0367	0.0003
0	0.09423	0.0369	0.0003
0	0.09948	0.0366	0.0003
0	0.10455	0.0369	0.0003
0	0.10944	0.0364	0.0003
0	0.11416	0.0366	0.0003
0	0.11872	0.0364	0.0003
0	0.12313	0.0365	0.0003
0.1	0	0.0443	0.0003
0.1	0.00471	0.041	0.0003
0.1	0.00927	0.0394	0.0003
0.1	0.01367	0.0384	0.0003
0.1	0.01793	0.0375	0.0003
0.1	0.02206	0.0367	0.0003
0.1	0.02606	0.036	0.0003
0.1	0.02993	0.0353	0.0003
0.1	0.03369	0.0346	0.0003
0.1	0.03734	0.0342	0.0003
0.1	0.04088	0.0337	0.0003
0.1	0.04431	0.0334	0.0003
0.1	0.04765	0.0331	0.0003
0.1	0.05089	0.0328	0.0003
0.1	0.05405	0.0326	0.0003
0.1	0.05711	0.0325	0.0003
0.1	0.0601	0.0324	0.0003
0.1	0.063	0.0323	0.0003
0.1	0.06583	0.0322	0.0003
0.1	0.06858	0.0321	0.0003
0.1	0.07127	0.0321	0.0003
0.1	0.07388	0.0321	0.0003
0.1	0.07643	0.0321	0.0003
0.1	0.07892	0.0321	0.0003
0.1	0.08135	0.032	0.0003
0.1	0.08372	0.032	0.0003
0.1	0.08603	0.032	0.0003
0.1	0.08829	0.0319	0.0003
0.1	0.09049	0.0318	0.0003
0.1	0.09265	0.032	0.0003
0.1	0.09475	0.032	0.0003
0.1	0.09681	0.0319	0.0003
0.1	0.09882	0.0319	0.0003
0.1	0.10079	0.0318	0.0003
0.1	0.10272	0.032	0.0003
0.1	0.1046	0.032	0.0003
0.1	0.10644	0.0319	0.0003
0.1	0.10825	0.032	0.0003
0.1	0.11002	0.032	0.0003
0.1	0.11175	0.0318	0.0003
0.1	0.11344	0.0319	0.0003
0.1	0.1151	0.032	0.0003
0.1	0.11673	0.032	0.0003
0.1	0.11833	0.0318	0.0003
0.1	0.11989	0.032	0.0003
0.1	0.12143	0.0321	0.0003
0.1	0.12293	0.032	0.0003
0.1	0.12441	0.032	0.0003
0.1	0.12586	0.0318	0.0003
0.1	0.12728	0.032	0.0003
0.1	0.12867	0.032	0.0003
0.1	0.13004	0.0319	0.0003
0.1	0.13139	0.0318	0.0003
0.1	0.13271	0.032	0.0003
0.1	0.134	0.0318	0.0003
0.1	0.13528	0.0319	0.0003

System: water + N1,N1,N7,N7-tetramethyl-N1,N7-dioctylheptane-1,7-diaminium bromide; phases: Liquid
Fixed: Pressure, kPa = 100
Fixed: Frequency, MHz = 0.001
Property: Electrical conductivity, S/m (Liquid); method: Alternating current cell with electrodes
Temperature, K	Molality, mol/kg of N1,N1,N7,N7-tetramethyl-N1,N7-dioctylheptane-1,7-diaminium bromide	Electrical conductivity, S/m	uncertainty
288.15	0.00346	0.045	0.0006
288.15	0.00683	0.0906	0.0009
288.15	0.01013	0.1321	0.0012
288.15	0.01335	0.1701	0.0014
288.15	0.01649	0.2053	0.0016
288.15	0.01957	0.2383	0.0019
288.15	0.02257	0.2693	0.0021
288.15	0.02551	0.2984	0.0023
288.15	0.02839	0.3261	0.0024
288.15	0.0312	0.3525	0.0026
288.15	0.03396	0.3773	0.0028
288.15	0.03665	0.4012	0.0029
288.15	0.03929	0.4237	0.0031
288.15	0.04187	0.4456	0.0033
288.15	0.0444	0.461	0.0033
288.15	0.04688	0.4806	0.0036
288.15	0.04931	0.5009	0.0037
288.15	0.05169	0.5198	0.0037
288.15	0.05403	0.534	0.0038
288.15	0.05632	0.5494	0.004
288.15	0.05856	0.5647	0.0041
288.15	0.06076	0.5807	0.0042
288.15	0.06292	0.5961	0.0042
288.15	0.06504	0.611	0.0043
288.15	0.06712	0.6248	0.0043
288.15	0.06916	0.6378	0.0043
288.15	0.07117	0.6503	0.0044
288.15	0.07313	0.6618	0.0044
288.15	0.07507	0.6728	0.0044
288.15	0.07697	0.6825	0.0045
288.15	0.07883	0.6918	0.0045
288.15	0.08066	0.7006	0.0046
288.15	0.08246	0.7086	0.0046
288.15	0.08423	0.7159	0.0047
288.15	0.08597	0.7231	0.0047
288.15	0.08768	0.7297	0.0047
288.15	0.08936	0.7375	0.0048
288.15	0.09102	0.7433	0.0048
288.15	0.09264	0.7486	0.0049
288.15	0.09424	0.7533	0.0049
288.15	0.09582	0.7584	0.005
288.15	0.09737	0.7635	0.005
288.15	0.09889	0.7686	0.005
288.15	0.10039	0.7735	0.0051
288.15	0.10187	0.7782	0.0051
288.15	0.10332	0.7828	0.0051
288.15	0.10475	0.7873	0.0052
288.15	0.10616	0.7914	0.0052
288.15	0.10755	0.7956	0.0052
288.15	0.10891	0.7996	0.0053
288.15	0.11026	0.8036	0.0053
288.15	0.11158	0.8074	0.0053
288.15	0.11289	0.8111	0.0054
288.15	0.11418	0.8148	0.0054
288.15	0.11545	0.8184	0.0054
288.15	0.1167	0.8218	0.0054
288.15	0.11793	0.825	0.0055
288.15	0.11914	0.8283	0.0055
288.15	0.12034	0.8317	0.0055
288.15	0.12152	0.8351	0.0056
293.15	0.00358	0.0614	0.0004
293.15	0.00707	0.1141	0.0007
293.15	0.01048	0.1619	0.001
293.15	0.01381	0.2059	0.0012
293.15	0.01706	0.2467	0.0014
293.15	0.02023	0.2847	0.0016
293.15	0.02333	0.3205	0.0018
293.15	0.02635	0.3542	0.002
293.15	0.02931	0.3863	0.0022
293.15	0.03221	0.4164	0.0024
293.15	0.03504	0.4453	0.0025
293.15	0.0378	0.4726	0.0027
293.15	0.04051	0.4989	0.0028
293.15	0.04316	0.5237	0.0031
293.15	0.04576	0.5474	0.0033
293.15	0.0483	0.57	0.0034
293.15	0.05078	0.5891	0.0035
293.15	0.05322	0.6085	0.0037
293.15	0.05561	0.6274	0.0038
293.15	0.05795	0.6459	0.0039
293.15	0.06024	0.6632	0.004
293.15	0.06249	0.6801	0.0041
293.15	0.06469	0.6958	0.0042
293.15	0.06685	0.7104	0.0042
293.15	0.06897	0.7244	0.0043
293.15	0.07105	0.7376	0.0044
293.15	0.07309	0.7496	0.0044
293.15	0.0751	0.7611	0.0045
293.15	0.07706	0.7718	0.0045
293.15	0.07899	0.7823	0.0046
293.15	0.08089	0.7922	0.0046
293.15	0.08275	0.8007	0.0047
293.15	0.08458	0.8095	0.0048
293.15	0.08637	0.8177	0.0048
293.15	0.08814	0.8255	0.0049
293.15	0.08987	0.833	0.0049
293.15	0.09157	0.8399	0.005
293.15	0.09325	0.8467	0.005
293.15	0.0949	0.8531	0.0051
293.15	0.09652	0.8596	0.0051
293.15	0.09811	0.8656	0.0052
293.15	0.09967	0.8712	0.0052
293.15	0.10122	0.8769	0.0053
293.15	0.10273	0.8822	0.0053
293.15	0.10422	0.8877	0.0053
293.15	0.10569	0.8931	0.0054
293.15	0.10714	0.8979	0.0054
293.15	0.10856	0.9028	0.0054
293.15	0.10996	0.9078	0.0055
293.15	0.11134	0.9126	0.0055
293.15	0.11269	0.9169	0.0055
293.15	0.11403	0.9214	0.0056
293.15	0.11535	0.9255	0.0056
293.15	0.11664	0.9298	0.0056
293.15	0.11792	0.9337	0.0057
293.15	0.11918	0.9381	0.0057
293.15	0.12042	0.9422	0.0057
293.15	0.12164	0.9463	0.0058
293.15	0.12285	0.9498	0.0058
293.15	0.12403	0.9537	0.0058
298.15	0.00412	0.0733	0.0004
298.15	0.00813	0.1367	0.0008
298.15	0.01203	0.194	0.0012
298.15	0.01584	0.2465	0.0015
298.15	0.01956	0.2953	0.0018
298.15	0.02318	0.3409	0.0021
298.15	0.02672	0.3836	0.0023
298.15	0.03018	0.4238	0.0026
298.15	0.03355	0.4622	0.0028
298.15	0.03684	0.4985	0.0031
298.15	0.04006	0.5328	0.0033
298.15	0.0432	0.5664	0.0035
298.15	0.04628	0.5975	0.0037
298.15	0.04928	0.6276	0.0039
298.15	0.05222	0.6556	0.0041
298.15	0.0551	0.6806	0.0042
298.15	0.05791	0.7052	0.0044
298.15	0.06066	0.7286	0.0045
298.15	0.06336	0.7512	0.0046
298.15	0.066	0.7722	0.0047
298.15	0.06858	0.7917	0.0048
298.15	0.07111	0.81	0.0049
298.15	0.07359	0.8269	0.005
298.15	0.07602	0.8426	0.0051
298.15	0.07841	0.8573	0.0052
298.15	0.08074	0.871	0.0053
298.15	0.08303	0.8838	0.0053
298.15	0.08528	0.8958	0.0054
298.15	0.08748	0.9072	0.0055
298.15	0.08964	0.918	0.0056
298.15	0.09176	0.9283	0.0056
298.15	0.09385	0.9381	0.0057
298.15	0.09589	0.9474	0.0058
298.15	0.0979	0.9564	0.0058
298.15	0.09987	0.9652	0.0059
298.15	0.1018	0.9737	0.0059
298.15	0.1037	0.9813	0.006
298.15	0.10557	0.9894	0.0061
298.15	0.10741	0.9968	0.0061
298.15	0.10921	1.004	0.0062
298.15	0.11098	1.0113	0.0062
298.15	0.11272	1.018	0.0062
298.15	0.11444	1.0247	0.0062
298.15	0.11612	1.0312	0.0063
298.15	0.11778	1.0376	0.0063
298.15	0.11941	1.0437	0.0064
298.15	0.12101	1.0501	0.0064
298.15	0.12259	1.0561	0.0065
298.15	0.12414	1.0618	0.0065
298.15	0.12566	1.0676	0.0066
298.15	0.12717	1.073	0.0068
298.15	0.12865	1.0784	0.0071
298.15	0.1301	1.0836	0.0072
298.15	0.13154	1.0886	0.0072
298.15	0.13295	1.0937	0.0073
298.15	0.13434	1.0987	0.0073
298.15	0.13571	1.1034	0.0074
298.15	0.13706	1.1083	0.0074
298.15	0.13839	1.1131	0.0074
298.15	0.1397	1.1176	0.0074
303.15	0.00395	0.0825	0.0005
303.15	0.0078	0.1546	0.0011
303.15	0.01155	0.2192	0.0015
303.15	0.01522	0.2786	0.0019
303.15	0.0188	0.3341	0.0022
303.15	0.02229	0.3857	0.0026
303.15	0.02571	0.4344	0.0029
303.15	0.02904	0.4801	0.0032
303.15	0.0323	0.5234	0.0035
303.15	0.03549	0.5642	0.0037
303.15	0.0386	0.6027	0.004
303.15	0.04165	0.6395	0.0043
303.15	0.04463	0.6742	0.0044
303.15	0.04755	0.707	0.0046
303.15	0.0504	0.737	0.0048
303.15	0.0532	0.7654	0.005
303.15	0.05594	0.7928	0.0052
303.15	0.05862	0.8182	0.0053
303.15	0.06124	0.8422	0.0055
303.15	0.06382	0.8647	0.0056
303.15	0.06634	0.8857	0.0057
303.15	0.06881	0.9055	0.0058
303.15	0.07123	0.9241	0.0059
303.15	0.07361	0.9413	0.006
303.15	0.07594	0.9574	0.0061
303.15	0.07823	0.9726	0.0061
303.15	0.08047	0.9867	0.0062
303.15	0.08267	1.0004	0.0063
303.15	0.08483	1.0133	0.0064
303.15	0.08695	1.0258	0.0065
303.15	0.08904	1.0377	0.0066
303.15	0.09108	1.0486	0.0067
303.15	0.09309	1.0594	0.0068
303.15	0.09506	1.0699	0.0068
303.15	0.097	1.0799	0.0069
303.15	0.09891	1.0894	0.007
303.15	0.10078	1.0989	0.0071
303.15	0.10262	1.1081	0.0071
303.15	0.10443	1.1172	0.0072
303.15	0.10621	1.1254	0.0073
303.15	0.10795	1.1341	0.0074
303.15	0.10968	1.1428	0.0074
303.15	0.11137	1.1494	0.0073
303.15	0.11303	1.1525	0.0072
303.15	0.11467	1.1586	0.0072
303.15	0.11628	1.1652	0.0072
303.15	0.11787	1.1723	0.0073
303.15	0.11943	1.1795	0.0072
303.15	0.12096	1.1864	0.0072
303.15	0.12248	1.1934	0.0073
303.15	0.12397	1.1999	0.0073
303.15	0.12543	1.2068	0.0074
303.15	0.12688	1.2133	0.0075
303.15	0.1283	1.2196	0.0075
303.15	0.1297	1.2253	0.0075
303.15	0.13108	1.2314	0.0076
303.15	0.13245	1.2375	0.0077
303.15	0.13379	1.2434	0.0077
303.15	0.13511	1.2489	0.0077
303.15	0.13641	1.2544	0.0078
308.15	0.00314	0.0748	0.0005
308.15	0.0062	0.1404	0.0009
308.15	0.00919	0.2	0.0011
308.15	0.01211	0.2553	0.0015
308.15	0.01497	0.3068	0.0018
308.15	0.01775	0.3553	0.0021
308.15	0.02047	0.4012	0.0023
308.15	0.02313	0.4441	0.0025
308.15	0.02574	0.4852	0.0027
308.15	0.02828	0.5247	0.003
308.15	0.03077	0.5621	0.0032
308.15	0.0332	0.5977	0.0034
308.15	0.03558	0.6323	0.0036
308.15	0.03792	0.6661	0.0038
308.15	0.0402	0.6997	0.004
308.15	0.04243	0.731	0.0042
308.15	0.04462	0.7591	0.0043
308.15	0.04677	0.786	0.0045
308.15	0.04887	0.8115	0.0046
308.15	0.05093	0.8363	0.0048
308.15	0.05295	0.86	0.005
308.15	0.05493	0.8824	0.0051
308.15	0.05688	0.9035	0.0052
308.15	0.05878	0.9239	0.0054
308.15	0.06065	0.9434	0.0055
308.15	0.06248	0.9619	0.0056
308.15	0.06428	0.979	0.0057
308.15	0.06605	0.9956	0.0058
308.15	0.06778	1.0114	0.0059
308.15	0.06949	1.0263	0.006
308.15	0.07116	1.0404	0.0061
308.15	0.0728	1.0542	0.0062
308.15	0.07442	1.0668	0.0063
308.15	0.076	1.079	0.0064
308.15	0.07756	1.0898	0.0065
308.15	0.07909	1.1022	0.0065
308.15	0.0806	1.1118	0.0066
308.15	0.08208	1.1219	0.0067
308.15	0.08353	1.1327	0.0067
308.15	0.08496	1.1426	0.0068
308.15	0.08637	1.1523	0.0069
308.15	0.08776	1.1621	0.0069
308.15	0.08912	1.1712	0.007
308.15	0.09046	1.1795	0.0071
308.15	0.09178	1.1886	0.0071
308.15	0.09307	1.1971	0.0071
308.15	0.09435	1.205	0.0072
308.15	0.09561	1.2127	0.0072
308.15	0.09685	1.2203	0.0073
308.15	0.09807	1.2289	0.0074
308.15	0.09927	1.2361	0.0074
308.15	0.10045	1.2436	0.0074
308.15	0.10162	1.2506	0.0074
308.15	0.10276	1.2573	0.0075
308.15	0.10389	1.2637	0.0075
308.15	0.10501	1.2721	0.0075
308.15	0.10611	1.2783	0.0076
308.15	0.10719	1.2843	0.0076
308.15	0.10826	1.2901	0.0077
313.15	0.00321	0.0867	0.0005
313.15	0.00651	0.1626	0.0008
313.15	0.00972	0.2318	0.0012
313.15	0.01285	0.2956	0.0016
313.15	0.0159	0.3549	0.0019
313.15	0.01887	0.411	0.0022
313.15	0.02177	0.4636	0.0025
313.15	0.0246	0.5134	0.0028
313.15	0.02737	0.5608	0.0031
313.15	0.03007	0.606	0.0033
313.15	0.0327	0.6486	0.0036
313.15	0.03528	0.6897	0.0038
313.15	0.03779	0.7286	0.004
313.15	0.04025	0.7657	0.0042
313.15	0.04266	0.8008	0.0043
313.15	0.04501	0.8346	0.0045
313.15	0.04731	0.8666	0.0047
313.15	0.04956	0.8969	0.0048
313.15	0.05176	0.9261	0.005
313.15	0.05392	0.9541	0.0051
313.15	0.05603	0.9819	0.0053
313.15	0.0581	1.0077	0.0054
313.15	0.06013	1.032	0.0056
313.15	0.06211	1.0546	0.0057
313.15	0.06405	1.0757	0.0058
313.15	0.06596	1.0961	0.0059
313.15	0.06783	1.1153	0.006
313.15	0.06966	1.1338	0.0061
313.15	0.07146	1.151	0.0062
313.15	0.07322	1.1678	0.0063
313.15	0.07495	1.1836	0.0064
313.15	0.07665	1.1981	0.0065
313.15	0.07831	1.2127	0.0066
313.15	0.07994	1.2263	0.0067
313.15	0.08155	1.2399	0.0068
313.15	0.08313	1.2527	0.0069
313.15	0.08467	1.2647	0.0069
313.15	0.08619	1.2764	0.007
313.15	0.08769	1.2879	0.0071
313.15	0.08915	1.2981	0.0071
313.15	0.0906	1.3086	0.0072
313.15	0.09201	1.3189	0.0073
313.15	0.09341	1.3268	0.0072
313.15	0.09478	1.3358	0.0073
313.15	0.09612	1.3449	0.0073
313.15	0.09745	1.354	0.0073
313.15	0.09875	1.363	0.0074
313.15	0.10003	1.3693	0.0074
313.15	0.10129	1.3783	0.0075
313.15	0.10253	1.3855	0.0076
313.15	0.10375	1.3923	0.0076
313.15	0.10495	1.3989	0.0076
313.15	0.10614	1.4051	0.0076
313.15	0.1073	1.411	0.0076
313.15	0.10845	1.4165	0.0076
313.15	0.10958	1.4217	0.0076
313.15	0.11069	1.4266	0.0076
313.15	0.11178	1.4312	0.0076
313.15	0.11286	1.4355	0.0077
318.15	0.00275	0.0804	0.0004
318.15	0.00557	0.1507	0.0008
318.15	0.00825	0.2156	0.0012
318.15	0.01087	0.2766	0.0015
318.15	0.01343	0.3337	0.0018
318.15	0.01593	0.3879	0.0021
318.15	0.01837	0.4391	0.0024
318.15	0.02075	0.4875	0.0027
318.15	0.02309	0.5336	0.0029
318.15	0.02536	0.5768	0.0031
318.15	0.02759	0.6191	0.0034
318.15	0.02977	0.6595	0.0036
318.15	0.03191	0.6992	0.0038
318.15	0.034	0.7358	0.004
318.15	0.03604	0.772	0.0041
318.15	0.03804	0.8061	0.0043
318.15	0.04	0.8387	0.0045
318.15	0.04192	0.8696	0.0046
318.15	0.0438	0.8989	0.0047
318.15	0.04564	0.9262	0.0049
318.15	0.04745	0.9522	0.005
318.15	0.04922	0.9784	0.0052
318.15	0.05096	1.0043	0.0054
318.15	0.05266	1.0258	0.0055
318.15	0.05433	1.0487	0.0056
318.15	0.05597	1.071	0.0057
318.15	0.05757	1.0923	0.0059
318.15	0.05915	1.1133	0.006
318.15	0.0607	1.1328	0.0061
318.15	0.06222	1.1506	0.0062
318.15	0.06372	1.1656	0.0063
318.15	0.06518	1.1858	0.0063
318.15	0.06662	1.1977	0.0065
318.15	0.06804	1.2143	0.0065
318.15	0.06943	1.2281	0.0066
318.15	0.07079	1.2444	0.0067
318.15	0.07214	1.2569	0.0067
318.15	0.07346	1.2706	0.0068
318.15	0.07476	1.2841	0.0069
318.15	0.07603	1.2963	0.007
318.15	0.07729	1.3096	0.007
318.15	0.07852	1.32	0.0071
318.15	0.07974	1.3335	0.0072
318.15	0.08093	1.3436	0.0072
318.15	0.08211	1.3557	0.0073
318.15	0.08326	1.365	0.0073
318.15	0.0844	1.3763	0.0074
318.15	0.08552	1.3851	0.0075
318.15	0.08663	1.3953	0.0075
318.15	0.08771	1.4033	0.0075
318.15	0.08878	1.4127	0.0076
318.15	0.08984	1.4208	0.0076
318.15	0.09087	1.4284	0.0076
318.15	0.0919	1.4381	0.0077
318.15	0.0929	1.4425	0.0077
318.15	0.0939	1.4489	0.0077
318.15	0.09487	1.4549	0.0077
318.15	0.09584	1.4597	0.0077
318.15	0.09679	1.4657	0.0076
323.15	0.00277	0.0873	0.0004
323.15	0.00548	0.1644	0.0009
323.15	0.00812	0.2351	0.0013
323.15	0.01069	0.3008	0.0016
323.15	0.01321	0.3629	0.002
323.15	0.01566	0.4212	0.0023
323.15	0.01806	0.4754	0.0026
323.15	0.02041	0.5277	0.0028
323.15	0.0227	0.5778	0.0031
323.15	0.02494	0.6254	0.0034
323.15	0.02712	0.6715	0.0036
323.15	0.02926	0.7138	0.0038
323.15	0.03136	0.753	0.004
323.15	0.03341	0.7921	0.0042
323.15	0.03541	0.8301	0.0043
323.15	0.03738	0.8645	0.0045
323.15	0.0393	0.8986	0.0046
323.15	0.04118	0.9304	0.0047
323.15	0.04303	0.9603	0.0049
323.15	0.04483	0.9926	0.0051
323.15	0.0466	1.0218	0.0053
323.15	0.04834	1.0494	0.0054
323.15	0.05004	1.0774	0.0055
323.15	0.05171	1.1042	0.0056
323.15	0.05335	1.1307	0.0059
323.15	0.05495	1.1552	0.006
323.15	0.05653	1.1791	0.0062
323.15	0.05808	1.203	0.0063
323.15	0.05959	1.2231	0.0064
323.15	0.06108	1.2446	0.0065
323.15	0.06254	1.2654	0.0067
323.15	0.06398	1.2833	0.0069
323.15	0.06539	1.2997	0.0069
323.15	0.06678	1.3198	0.0071
323.15	0.06814	1.333	0.0071
323.15	0.06948	1.3491	0.0072
323.15	0.07079	1.3645	0.0073
323.15	0.07208	1.3798	0.0074
323.15	0.07335	1.3942	0.0075
323.15	0.0746	1.4084	0.0076
323.15	0.07583	1.422	0.0077
323.15	0.07704	1.4358	0.0077
323.15	0.07822	1.448	0.0078
323.15	0.07939	1.4603	0.0078
323.15	0.08054	1.4722	0.0079
323.15	0.08167	1.4847	0.008
323.15	0.08279	1.4945	0.008
323.15	0.08388	1.506	0.0081
323.15	0.08496	1.515	0.0081
323.15	0.08602	1.526	0.0082
323.15	0.08707	1.5336	0.0082
323.15	0.0881	1.5423	0.0082
323.15	0.08911	1.5504	0.0082
323.15	0.09011	1.5581	0.0083
323.15	0.09109	1.5654	0.0083
323.15	0.09206	1.5722	0.0082
323.15	0.09302	1.5785	0.0083
323.15	0.09396	1.5844	0.0083
323.15	0.09489	1.5898	0.0083

System: water + N1,N1,N7,N7-tetramethyl-N1,N7-dioctylheptane-1,7-diaminium bromide; phases: Liquid, Air at 1 atmosphere
Fixed: Temperature, K = 293.15
Property: Surface tension liquid-gas, N/m (Liquid); method: Maximal bubble pressure
Molality, mol/kg of N1,N1,N7,N7-tetramethyl-N1,N7-dioctylheptane-1,7-diaminium bromide	Surface tension liquid-gas, N/m	uncertainty
0.00674	0.0602	0.0004
0.01312	0.0526	0.0003
0.01918	0.0481	0.0003
0.02493	0.0458	0.0003
0.03041	0.0442	0.0003
0.03562	0.0433	0.0003
0.04059	0.0422	0.0003
0.04533	0.0414	0.0003
0.04987	0.0404	0.0003
0.0542	0.0395	0.0003
0.05836	0.0391	0.0003
0.06233	0.0384	0.0003
0.06615	0.0381	0.0003
0.06981	0.0378	0.0003
0.07333	0.0375	0.0003
0.07672	0.0374	0.0003
0.07997	0.0372	0.0003
0.08311	0.0373	0.0003
0.08613	0.0373	0.0003
0.08905	0.0374	0.0003
0.09186	0.0373	0.0003
0.09457	0.0374	0.0003
0.09719	0.0372	0.0003
0.09973	0.0371	0.0003
0.10218	0.037	0.0003
0.10456	0.037	0.0003
0.10685	0.037	0.0003
0.10908	0.0369	0.0003
0.11124	0.037	0.0003
0.11333	0.0369	0.0003
0.11536	0.0369	0.0003

System: ethanol + water; phases: Liquid, Air at 1 atmosphere
Fixed: Mass fraction of ethanol = 0.1
Fixed: Temperature, K = 293.15
Property: Surface tension liquid-gas, N/m (Liquid); method: Maximal bubble pressure
Surface tension liquid-gas, N/m	uncertainty
0.0425	0.0003
0.0443	0.0003

System: water + octylene-1,8-bis(dimethyloctylammonium) bromide; phases: Liquid
Fixed: Pressure, kPa = 100
Fixed: Frequency, MHz = 0.001
Property: Electrical conductivity, S/m (Liquid); method: Alternating current cell with electrodes
Temperature, K	Molality, mol/kg of octylene-1,8-bis(dimethyloctylammonium) bromide	Electrical conductivity, S/m	uncertainty
298.15	0.0032	0.0429	0.0004
288.15	0.00336	0.0505	0.0002
303.15	0.00365	0.069	0.0008
308.15	0.00373	0.0893	0.0006
323.15	0.00376	0.1151	0.0005
318.15	0.00377	0.1083	0.0006
313.15	0.00397	0.1011	0.0005
293.15	0.0041	0.0582	0.0003
298.15	0.00631	0.0986	0.0009
288.15	0.00663	0.0932	0.0004
303.15	0.0072	0.139	0.0011
308.15	0.00736	0.1665	0.001
323.15	0.00741	0.2165	0.001
318.15	0.00744	0.2002	0.0011
313.15	0.00784	0.1891	0.001
293.15	0.0081	0.1144	0.0006
298.15	0.00934	0.1476	0.0011
288.15	0.00981	0.1321	0.0005
303.15	0.01065	0.2009	0.0015
308.15	0.01089	0.2354	0.0014
323.15	0.01096	0.3071	0.0015
318.15	0.01101	0.2877	0.0016
313.15	0.0116	0.2694	0.0015
293.15	0.012	0.1652	0.0009
298.15	0.0123	0.1943	0.0014
288.15	0.0129	0.1683	0.0007
303.15	0.01401	0.2586	0.0018
308.15	0.01432	0.2994	0.0017
323.15	0.01442	0.3918	0.0019
318.15	0.01448	0.366	0.002
298.15	0.01519	0.2376	0.0017
313.15	0.01526	0.3431	0.0019
293.15	0.01579	0.2119	0.0012
288.15	0.01592	0.2016	0.0009
303.15	0.01728	0.311	0.0021
308.15	0.01766	0.3593	0.002
323.15	0.01779	0.4688	0.0022
318.15	0.01786	0.4391	0.0024
298.15	0.018	0.2782	0.0021
313.15	0.01882	0.4106	0.0022
288.15	0.01886	0.2324	0.0011
293.15	0.01949	0.2553	0.0016
303.15	0.02047	0.3605	0.0024
298.15	0.02074	0.3165	0.0022
308.15	0.02091	0.4137	0.0024
323.15	0.02106	0.5416	0.0026
318.15	0.02115	0.5069	0.0027
288.15	0.02172	0.2617	0.0013
313.15	0.02229	0.4749	0.0026
293.15	0.0231	0.2955	0.0019
298.15	0.02342	0.352	0.0025
303.15	0.02357	0.4071	0.0026
308.15	0.02407	0.4656	0.0026
323.15	0.02425	0.6105	0.0029
318.15	0.02435	0.5705	0.0031
288.15	0.02451	0.2891	0.0014
313.15	0.02567	0.5346	0.003
298.15	0.02604	0.3857	0.0028
303.15	0.0266	0.4503	0.0029
293.15	0.02663	0.3335	0.0021
308.15	0.02716	0.514	0.0029
288.15	0.02723	0.3153	0.0016
323.15	0.02736	0.6732	0.0033
318.15	0.02747	0.6295	0.0034
298.15	0.02859	0.4174	0.003
313.15	0.02897	0.5903	0.0033
303.15	0.02955	0.4905	0.0031
288.15	0.02989	0.3399	0.0018
293.15	0.03006	0.3691	0.0024
308.15	0.03016	0.5602	0.0031
323.15	0.0304	0.7335	0.0035
318.15	0.03051	0.6854	0.0036
298.15	0.03109	0.4477	0.0031
313.15	0.03218	0.6421	0.0036
303.15	0.03243	0.5267	0.0034
288.15	0.03248	0.3632	0.0019
308.15	0.03309	0.6034	0.0034
323.15	0.03335	0.7881	0.0038
293.15	0.03342	0.4026	0.0026
318.15	0.03348	0.7376	0.0039
298.15	0.03353	0.4764	0.0033
288.15	0.03501	0.3851	0.002
303.15	0.03523	0.5629	0.0036
313.15	0.03532	0.6919	0.0039
298.15	0.03591	0.5034	0.0035
308.15	0.03594	0.6441	0.0036
323.15	0.03623	0.8389	0.004
318.15	0.03637	0.7865	0.0041
293.15	0.03669	0.4344	0.0028
288.15	0.03748	0.4064	0.0021
303.15	0.03797	0.5998	0.0038
298.15	0.03824	0.5292	0.0037
313.15	0.03837	0.7377	0.0041
308.15	0.03873	0.6822	0.0038
323.15	0.03905	0.8888	0.0043
318.15	0.03919	0.8321	0.0044
293.15	0.03989	0.4642	0.0031
288.15	0.03989	0.4265	0.0023
298.15	0.04052	0.5538	0.0039
303.15	0.04065	0.6325	0.004
313.15	0.04136	0.7807	0.0043
308.15	0.04145	0.7178	0.004
323.15	0.04179	0.9349	0.0045
318.15	0.04194	0.8747	0.0046
288.15	0.04225	0.4454	0.0024
298.15	0.04275	0.5774	0.0041
293.15	0.04301	0.4923	0.0032
303.15	0.04326	0.6617	0.0041
308.15	0.0441	0.7517	0.0042
313.15	0.04427	0.8213	0.0045
323.15	0.04447	0.9796	0.0047
288.15	0.04455	0.4635	0.0025
318.15	0.04463	0.9153	0.0048
298.15	0.04493	0.5998	0.0042
303.15	0.04581	0.6911	0.0043
293.15	0.04607	0.5188	0.0034
308.15	0.04669	0.7836	0.0044
288.15	0.0468	0.4814	0.0026
298.15	0.04706	0.6208	0.0043
323.15	0.04709	1.0187	0.0049
313.15	0.04712	0.8594	0.0047
318.15	0.04725	0.9537	0.005
303.15	0.0483	0.7168	0.0045
288.15	0.049	0.4962	0.0027
293.15	0.04905	0.5437	0.0036
298.15	0.04915	0.6405	0.0044
308.15	0.04922	0.8135	0.0046
323.15	0.04964	1.0578	0.0051
318.15	0.04981	0.9894	0.0052
313.15	0.0499	0.8944	0.0049
303.15	0.05074	0.7398	0.0046
288.15	0.05116	0.5107	0.0029
298.15	0.05119	0.6584	0.0045
308.15	0.05169	0.8412	0.0048
293.15	0.05197	0.567	0.0037
323.15	0.05214	1.0944	0.0053
318.15	0.05232	1.0236	0.0054
313.15	0.05261	0.928	0.0051
303.15	0.05312	0.7667	0.0048
298.15	0.05319	0.6728	0.0047
288.15	0.05326	0.524	0.0029
308.15	0.05411	0.8667	0.0049
323.15	0.05458	1.1301	0.0055
318.15	0.05476	1.0545	0.0055
293.15	0.05483	0.5887	0.0039
298.15	0.05515	0.6898	0.0047
313.15	0.05526	0.9585	0.0053
288.15	0.05532	0.5388	0.003
303.15	0.05545	0.7853	0.0049
308.15	0.05647	0.8904	0.005
323.15	0.05696	1.1603	0.0056
298.15	0.05708	0.7062	0.0049
318.15	0.05716	1.083	0.0057
288.15	0.05734	0.5518	0.0031
293.15	0.05762	0.609	0.004
303.15	0.05772	0.8097	0.005
313.15	0.05786	0.9872	0.0054
308.15	0.05877	0.9135	0.0051
298.15	0.05896	0.7214	0.0049
323.15	0.0593	1.1905	0.0058
288.15	0.05931	0.5643	0.0032
318.15	0.05949	1.1106	0.0058
303.15	0.05995	0.8284	0.0051
293.15	0.06035	0.6279	0.0041
313.15	0.06039	1.0137	0.0056
298.15	0.0608	0.7358	0.005
308.15	0.06103	0.9341	0.0052
288.15	0.06124	0.5764	0.0032
323.15	0.06158	1.2211	0.006
318.15	0.06178	1.1355	0.006
303.15	0.06213	0.8443	0.0052
298.15	0.06261	0.7495	0.0051
313.15	0.06287	1.0387	0.0057
293.15	0.06302	0.6451	0.0042
288.15	0.06313	0.5875	0.0033
308.15	0.06323	0.9538	0.0053
323.15	0.06381	1.2492	0.0062
318.15	0.06402	1.1598	0.0061
303.15	0.06426	0.8636	0.0053
298.15	0.06438	0.7621	0.0052
288.15	0.06499	0.5979	0.0033
313.15	0.0653	1.0626	0.0059
308.15	0.06539	0.9725	0.0055
293.15	0.06564	0.6601	0.0043
323.15	0.06599	1.2749	0.0063
298.15	0.06612	0.7741	0.0053
318.15	0.0662	1.1827	0.0063
303.15	0.06635	0.8772	0.0054
288.15	0.0668	0.6082	0.0034
308.15	0.0675	0.9895	0.0056
313.15	0.06768	1.0846	0.006
298.15	0.06783	0.7855	0.0054
323.15	0.06813	1.2995	0.0065
293.15	0.0682	0.6739	0.0044
318.15	0.06835	1.2042	0.0064
303.15	0.0684	0.8926	0.0055
288.15	0.06858	0.6183	0.0034
298.15	0.0695	0.7965	0.0054
308.15	0.06957	1.0066	0.0057
313.15	0.07	1.1059	0.0061
323.15	0.07022	1.3225	0.0066
288.15	0.07032	0.6257	0.0035
303.15	0.0704	0.9064	0.0056
318.15	0.07044	1.2255	0.0065
293.15	0.07071	0.688	0.0045
298.15	0.07114	0.8065	0.0055
308.15	0.0716	1.0218	0.0058
288.15	0.07203	0.6333	0.0036
313.15	0.07227	1.1257	0.0063
323.15	0.07227	1.3453	0.0067
303.15	0.07236	0.9199	0.0056
318.15	0.0725	1.2469	0.0066
298.15	0.07275	0.816	0.0055
293.15	0.07317	0.7011	0.0046
308.15	0.07358	1.0368	0.0059
288.15	0.07371	0.6407	0.0036
303.15	0.07428	0.9326	0.0057
323.15	0.07428	1.3658	0.0068
298.15	0.07434	0.8253	0.0056
313.15	0.0745	1.1449	0.0064
318.15	0.07451	1.2657	0.0067
288.15	0.07535	0.6476	0.0037
308.15	0.07552	1.0512	0.006
293.15	0.07558	0.7134	0.0047
298.15	0.07589	0.8343	0.0057
303.15	0.07617	0.9448	0.0058
323.15	0.07624	1.3873	0.0069
318.15	0.07648	1.2856	0.0069
313.15	0.07668	1.1626	0.0065
288.15	0.07697	0.6543	0.0037
298.15	0.07741	0.8427	0.0057
308.15	0.07742	1.0645	0.0061
293.15	0.07794	0.725	0.0047
303.15	0.07801	0.9564	0.0059
323.15	0.07817	1.4084	0.0071
318.15	0.0784	1.3021	0.007
288.15	0.07855	0.6612	0.0038
313.15	0.07882	1.1802	0.0066
298.15	0.07891	0.851	0.0057
308.15	0.07929	1.0778	0.0062
303.15	0.07982	0.9651	0.0059
323.15	0.08005	1.426	0.0072
288.15	0.0801	0.6669	0.0038
293.15	0.08025	0.736	0.0048
318.15	0.0803	1.3188	0.0071
298.15	0.08038	0.8585	0.0058
313.15	0.08091	1.197	0.0067
308.15	0.08111	1.0898	0.0062
303.15	0.0816	0.9781	0.006
288.15	0.08162	0.6729	0.0039
298.15	0.08183	0.8659	0.0059
323.15	0.0819	1.4441	0.0073
318.15	0.08215	1.3355	0.0072
293.15	0.08252	0.7465	0.0049
308.15	0.0829	1.1017	0.0063
313.15	0.08297	1.2125	0.0068
288.15	0.08312	0.6782	0.0039
298.15	0.08324	0.8731	0.0059
303.15	0.08334	0.9891	0.0061
323.15	0.08372	1.4621	0.0074
318.15	0.08396	1.3498	0.0073
288.15	0.08459	0.6836	0.004
298.15	0.08464	0.8795	0.006
308.15	0.08466	1.1137	0.0064
293.15	0.08475	0.7565	0.0049
313.15	0.08498	1.2276	0.0069
303.15	0.08504	0.9982	0.0062
323.15	0.0855	1.4773	0.0075
318.15	0.08575	1.364	0.0073
298.15	0.08601	0.8852	0.006
288.15	0.08603	0.6883	0.0041
308.15	0.08638	1.1248	0.0065
303.15	0.08672	1.0053	0.0062
293.15	0.08693	0.766	0.005
313.15	0.08695	1.2423	0.007
323.15	0.08724	1.4945	0.0076
298.15	0.08736	0.8918	0.006
288.15	0.08745	0.6929	0.0041
318.15	0.08749	1.3798	0.0074
308.15	0.08807	1.1353	0.0065
303.15	0.08836	1.017	0.0063
298.15	0.08868	0.8983	0.0061
288.15	0.08884	0.6978	0.0041
313.15	0.08888	1.2558	0.0071
323.15	0.08895	1.5098	0.0076
293.15	0.08907	0.7751	0.0051
318.15	0.08921	1.3949	0.0075
308.15	0.08973	1.1461	0.0066
298.15	0.08998	0.9052	0.0061
303.15	0.08998	1.0271	0.0064
288.15	0.0902	0.7032	0.0042
323.15	0.09063	1.5248	0.0078
313.15	0.09078	1.2703	0.0072
318.15	0.09089	1.4077	0.0076
293.15	0.09117	0.7838	0.0052
298.15	0.09126	0.9113	0.0062
308.15	0.09135	1.1562	0.0067
288.15	0.09155	0.7075	0.0042
303.15	0.09156	1.0347	0.0064
323.15	0.09228	1.5399	0.0078
298.15	0.09252	0.9172	0.0062
318.15	0.09254	1.4215	0.0077
313.15	0.09264	1.2816	0.0073
288.15	0.09287	0.7107	0.0042
308.15	0.09295	1.1658	0.0067
303.15	0.09312	1.0443	0.0065
293.15	0.09323	0.792	0.0052
298.15	0.09376	0.9233	0.0063
323.15	0.0939	1.5548	0.0079
288.15	0.09416	0.7171	0.0043
318.15	0.09416	1.4333	0.0078
313.15	0.09447	1.2966	0.0074
308.15	0.09451	1.1745	0.0068
303.15	0.09464	1.0515	0.0065
298.15	0.09498	0.9287	0.0063
293.15	0.09525	0.7999	0.0053
288.15	0.09544	0.7187	0.0043
323.15	0.09548	1.5665	0.008
318.15	0.09575	1.4452	0.0078
308.15	0.09605	1.1845	0.0069
303.15	0.09614	1.0583	0.0066
298.15	0.09618	0.9342	0.0063
313.15	0.09626	1.308	0.0074
288.15	0.09669	0.7229	0.0044
323.15	0.09704	1.5786	0.008
293.15	0.09723	0.8076	0.0054
318.15	0.09731	1.4588	0.0079
298.15	0.09736	0.9389	0.0064
308.15	0.09756	1.1931	0.0069
303.15	0.09762	1.0675	0.0066
288.15	0.09792	0.7267	0.0044
313.15	0.09802	1.3205	0.0075
323.15	0.09857	1.5922	0.0081
318.15	0.09884	1.4675	0.0079
308.15	0.09904	1.2015	0.007
303.15	0.09906	1.0745	0.0066
288.15	0.09913	0.7304	0.0045
293.15	0.09918	0.815	0.0053
313.15	0.09974	1.3315	0.0076
323.15	0.10008	1.6049	0.0082
288.15	0.10033	0.7341	0.0045
318.15	0.10034	1.4782	0.008
303.15	0.10049	1.0827	0.0068
308.15	0.1005	1.2098	0.007
293.15	0.10109	0.822	0.0058
313.15	0.10144	1.3426	0.0076
323.15	0.10155	1.6169	0.0083
318.15	0.10182	1.4888	0.0081
303.15	0.10188	1.0887	0.0068
308.15	0.10193	1.2178	0.0071
293.15	0.10297	0.8288	0.006
323.15	0.103	1.6308	0.0084
313.15	0.1031	1.3531	0.0077
303.15	0.10326	1.097	0.0069
318.15	0.10327	1.4988	0.0082
308.15	0.10333	1.2266	0.0071
323.15	0.10443	1.6419	0.0085
303.15	0.10461	1.1025	0.0069
318.15	0.1047	1.5091	0.0082
308.15	0.10471	1.2339	0.0072
313.15	0.10473	1.364	0.0078
293.15	0.10482	0.8355	0.0061
323.15	0.10583	1.6544	0.0086
303.15	0.10594	1.1025	0.007
308.15	0.10607	1.2421	0.0073
318.15	0.1061	1.5194	0.0083
313.15	0.10634	1.3731	0.0078
293.15	0.10663	0.841	0.0064
323.15	0.10721	1.6646	0.0086
303.15	0.10724	1.1159	0.007
308.15	0.1074	1.2488	0.0073
318.15	0.10748	1.5296	0.0084
313.15	0.10792	1.3848	0.0079
293.15	0.10841	0.8473	0.0065
303.15	0.10853	1.1225	0.0071
323.15	0.10856	1.6758	0.0087
308.15	0.10871	1.2565	0.0073
318.15	0.10884	1.5406	0.0084
313.15	0.10947	1.394	0.0079
323.15	0.10989	1.687	0.0088
308.15	0.11	1.2646	0.0073
293.15	0.11016	0.8534	0.0065
318.15	0.11017	1.5495	0.0085
313.15	0.11099	1.4031	0.008
323.15	0.1112	1.6973	0.0088
318.15	0.11148	1.5592	0.0086
293.15	0.11188	0.8595	0.0065
313.15	0.11249	1.4143	0.0081
293.15	0.11357	0.8655	0.0065
313.15	0.11396	1.4228	0.008
293.15	0.11524	0.8711	0.0065
313.15	0.11541	1.4312	0.008
313.15	0.11683	1.4396	0.0081
293.15	0.11687	0.8766	0.0065
313.15	0.11823	1.4484	0.0081
293.15	0.11848	0.882	0.0065
293.15	0.12006	0.8873	0.0065
293.15	0.12162	0.8924	0.0065
293.15	0.12315	0.8974	0.0065
293.15	0.12466	0.9022	0.0065

System: water + octylene-1,8-bis(dimethyloctylammonium) bromide; phases: Liquid, Air at 1 atmosphere
Fixed: Temperature, K = 293.15
Property: Surface tension liquid-gas, N/m (Liquid); method: Maximal bubble pressure
Molality, mol/kg of octylene-1,8-bis(dimethyloctylammonium) bromide	Surface tension liquid-gas, N/m	uncertainty
0.00309	0.0613	0.0004
0.00613	0.0551	0.0004
0.00913	0.0515	0.0003
0.01207	0.049	0.0003
0.01498	0.0473	0.0003
0.01783	0.0459	0.0003
0.02065	0.0445	0.0003
0.02341	0.0431	0.0003
0.02614	0.0425	0.0003
0.02883	0.0416	0.0003
0.03148	0.041	0.0003
0.03408	0.0403	0.0003
0.03665	0.0394	0.0003
0.03919	0.0391	0.0003
0.04168	0.0388	0.0003
0.04414	0.0386	0.0003
0.04657	0.0381	0.0003
0.04896	0.0379	0.0003
0.05131	0.0376	0.0003
0.05364	0.0374	0.0003
0.05593	0.0372	0.0003
0.05819	0.0373	0.0003
0.06042	0.0371	0.0003
0.06262	0.037	0.0003
0.06479	0.0369	0.0003
0.06693	0.037	0.0003
0.06904	0.0368	0.0003
0.07113	0.0367	0.0003
0.07724	0.0366	0.0003
0.08312	0.0369	0.0003
0.08878	0.0367	0.0003
0.09423	0.0369	0.0003
0.09948	0.0366	0.0003
0.10455	0.0369	0.0003
0.10944	0.0364	0.0003
0.11416	0.0366	0.0003
0.11872	0.0364	0.0003
0.12313	0.0365	0.0003
