Measured thermophysical data. Solid Forms, Crystal Habits, and Solubility of Danthron
Source: J. Chem. Eng. Data, 2015, 10.1021/acs.jced.5b00192
Compound 1: 1,8-dihydroxyanthraquinone, C14H8O4, InChI=1S/C14H8O4/c15-9-5-1-3-7-11(9)14(18)12-8(13(7)17)4-2-6-10(12)16/h1-6,15-16H, purity 99.9%
Compound 2: acetone, C3H6O, InChI=1S/C3H6O/c1-3(2)4/h1-2H3, purity 99.8%
Compound 3: acetonitrile, C2H3N, InChI=1S/C2H3N/c1-2-3/h1H3, purity 99.9%
Compound 4: butan-1-ol, C4H10O, InChI=1S/C4H10O/c1-2-3-4-5/h5H,2-4H2,1H3, purity 99.7%
Compound 5: toluene, C7H8, InChI=1S/C7H8/c1-7-5-3-2-4-6-7/h2-6H,1H3, purity 99.9%

System: 1,8-dihydroxyanthraquinone; phases: Crystal 2, Crystal 1, Air at 1 atmosphere
Property: Triple point temperature, K (Crystal 2); method: DTA
Triple point temperature, K	uncertainty
435.39	0.86

System: 1,8-dihydroxyanthraquinone; phases: Crystal 1, Liquid, Air at 1 atmosphere
Property: Normal melting temperature, K (Crystal 1); method: DTA
Normal melting temperature, K	uncertainty
468.53	1.54

System: 1,8-dihydroxyanthraquinone; phases: Crystal 2, Crystal 1, Air at 1 atmosphere
Property: Molar enthalpy of transition or fusion, kJ/mol (Crystal 2); method: DSC
Molar enthalpy of transition or fusion, kJ/mol	uncertainty
4.96	0.19

System: 1,8-dihydroxyanthraquinone; phases: Crystal 1, Liquid, Air at 1 atmosphere
Property: Molar enthalpy of transition or fusion, kJ/mol (Crystal 1); method: DSC
Molar enthalpy of transition or fusion, kJ/mol	uncertainty
20.06	0.75

System: acetone + 1,8-dihydroxyanthraquinone; phases: Liquid, Crystal 2
Fixed: Pressure, kPa = 101
Property: Mass ratio of solute to solvent of 1,8-dihydroxyanthraquinone (Liquid); method: gravimetric
Temperature, K	Mass ratio of solute to solvent of 1,8-dihydroxyanthraquinone	uncertainty
293.15	0.006535	0.000198
298.15	0.007676	0.000232
303.15	0.009269	0.000281
308.15	0.011077	0.000335
313.15	0.013053	0.000395
318.15	0.015382	0.000465

System: acetonitrile + 1,8-dihydroxyanthraquinone; phases: Liquid, Crystal 2
Fixed: Pressure, kPa = 101
Property: Mass ratio of solute to solvent of 1,8-dihydroxyanthraquinone (Liquid); method: gravimetric
Temperature, K	Mass ratio of solute to solvent of 1,8-dihydroxyanthraquinone	uncertainty
293.15	0.003075	9.3e-05
298.15	0.003703	0.000112
303.15	0.004589	0.000139
308.15	0.005574	0.000169
313.15	0.006812	0.000206
318.15	0.008081	0.000244

System: butan-1-ol + 1,8-dihydroxyanthraquinone; phases: Liquid, Crystal 2
Fixed: Pressure, kPa = 101
Property: Mass ratio of solute to solvent of 1,8-dihydroxyanthraquinone (Liquid); method: gravimetric
Temperature, K	Mass ratio of solute to solvent of 1,8-dihydroxyanthraquinone	uncertainty
293.15	0.000821	2.5e-05
298.15	0.000943	2.9e-05
303.15	0.001254	3.8e-05
308.15	0.001451	4.4e-05
313.15	0.001926	5.9e-05
318.15	0.002432	7.4e-05

System: toluene + 1,8-dihydroxyanthraquinone; phases: Liquid, Crystal 2
Fixed: Pressure, kPa = 101
Property: Mass ratio of solute to solvent of 1,8-dihydroxyanthraquinone (Liquid); method: gravimetric
Temperature, K	Mass ratio of solute to solvent of 1,8-dihydroxyanthraquinone	uncertainty
293.15	0.020571	0.000621
298.15	0.023402	0.000707
303.15	0.027387	0.000828
308.15	0.032007	0.000967
313.15	0.037043	0.001119
318.15	0.042727	0.00129
