Measured thermophysical data. Density and Viscosity of the Nonaqueous and Aqueous Mixtures of Methyldiethanolamine and Monoethylene Glycol at Temperatures from 283.15 to 353.15 K
Source: J. Chem. Eng. Data, 2019, 10.1021/acs.jced.9b00607
Compound 1: N-methyldiethanolamine, C5H13NO2, InChI=1S/C5H13NO2/c1-6(2-4-7)3-5-8/h7-8H,2-5H2,1H3, purity 99%
Compound 2: 1,2-ethanediol, C2H6O2, InChI=1S/C2H6O2/c3-1-2-4/h3-4H,1-2H2, purity 99.8%
Compound 3: water, H2O, InChI=1S/H2O/h1H2, purity 99.9%

System: N-methyldiethanolamine; phases: Liquid
Fixed: Pressure, kPa = 102
Property: Mass density, kg/m3 (Liquid); method: Vibrating tube method
Temperature, K	Mass density, kg/m3	uncertainty
283.15	1048	0.3
298.15	1036.8	0.3
313.15	1025.3	0.3
323.15	1017.7	0.2
333.15	1010	0.2
343.15	1002.2	0.2
353.15	994.5	0.2

System: N-methyldiethanolamine; phases: Liquid
Fixed: Pressure, kPa = 102
Property: Viscosity, Pa*s (Liquid); method: Falling or rolling sphere viscometry
Temperature, K	Viscosity, Pa*s	uncertainty
283.15	0.19815	0.00943
298.15	0.07487	0.00148
313.15	0.03505	0.00111
323.15	0.02196	0.00043
333.15	0.01483	0.00049
343.15	0.01029	0.00054
353.15	0.0074	0.00032

System: 1,2-ethanediol; phases: Liquid
Fixed: Pressure, kPa = 102
Property: Mass density, kg/m3 (Liquid); method: Vibrating tube method
Temperature, K	Mass density, kg/m3	uncertainty
283.15	1120	0.2
298.15	1109.9	0.2
313.15	1099.1	0.3
323.15	1091.6	0.1
333.15	1085	0.1
343.15	1077.6	0.1
353.15	1070.1	0.1

System: 1,2-ethanediol; phases: Liquid
Fixed: Pressure, kPa = 102
Property: Viscosity, Pa*s (Liquid); method: Falling or rolling sphere viscometry
Temperature, K	Viscosity, Pa*s	uncertainty
283.15	0.03407	0.00407
298.15	0.01727	0.00109
313.15	0.00969	0.00106
323.15	0.00681	0.00036
333.15	0.00528	0.00047
343.15	0.00406	0.00046
353.15	0.00321	0.00031

System: water; phases: Liquid
Fixed: Pressure, kPa = 102
Property: Mass density, kg/m3 (Liquid); method: Vibrating tube method
Temperature, K	Mass density, kg/m3	uncertainty
283.15	999.9	0.1
298.15	997.2	0.1
313.15	992.3	0.1
323.15	988.3	0.1
333.15	983.5	0.1
343.15	978.1	0.1
353.15	972.3	0.1

System: water; phases: Liquid
Fixed: Pressure, kPa = 102
Property: Viscosity, Pa*s (Liquid); method: Falling or rolling sphere viscometry
Temperature, K	Viscosity, Pa*s	uncertainty
283.15	0.00132	1e-05
298.15	0.00091	1e-05
313.15	0.00067	1e-05
323.15	0.00057	1e-05

System: N-methyldiethanolamine + 1,2-ethanediol; phases: Liquid
Fixed: Pressure, kPa = 102
Property: Mass density, kg/m3 (Liquid); method: Vibrating tube method
Temperature, K	Mass fraction of N-methyldiethanolamine	Mass density, kg/m3	uncertainty
283.15	0	1120	0.2
283.15	0.3	1101.8	0.3
283.15	0.4	1095.1	0.3
283.15	0.5	1088.1	0.4
283.15	0.7	1073.3	0.5
283.15	0.8	1065.4	0.7
283.15	0.9	1057.2	0.8
283.15	1	1048	0.3
298.15	0	1109.9	0.2
298.15	0.3	1090.9	0.3
298.15	0.4	1084.3	0.3
298.15	0.5	1077.2	0.4
298.15	0.7	1062.1	0.5
298.15	0.8	1054	0.7
298.15	0.9	1045.6	0.8
298.15	1	1036.8	0.3
313.15	0	1099.1	0.3
313.15	0.3	1079.9	0.2
313.15	0.4	1073.2	0.3
313.15	0.5	1066	0.3
313.15	0.7	1050.8	0.5
313.15	0.8	1042.6	0.7
313.15	0.9	1034.1	0.8
313.15	1	1025.3	0.3
323.15	0	1091.6	0.1
323.15	0.3	1072.5	0.2
323.15	0.4	1065.7	0.3
323.15	0.5	1058.5	0.3
323.15	0.7	1043.1	0.5
323.15	0.8	1034.9	0.7
323.15	0.9	1026.4	0.8
323.15	1	1017.7	0.2
333.15	0	1085	0.1
333.15	0.3	1065.1	0.2
333.15	0.4	1058.1	0.3
333.15	0.5	1050.9	0.3
333.15	0.7	1035.4	0.5
333.15	0.8	1027.2	0.7
333.15	0.9	1018.7	0.8
333.15	1	1010	0.2
343.15	0	1077.6	0.1
343.15	0.3	1057.4	0.2
343.15	0.4	1050.5	0.3
343.15	0.5	1043.1	0.3
343.15	0.7	1027.5	0.5
343.15	0.8	1019.3	0.7
343.15	0.9	1010.9	0.8
343.15	1	1002.2	0.2
353.15	0	1070.1	0.1
353.15	0.3	1049.7	0.2
353.15	0.4	1042.7	0.3
353.15	0.5	1035.3	0.3
353.15	0.7	1019.7	0.5
353.15	0.8	1011.5	0.7
353.15	0.9	1003	0.8
353.15	1	994.5	0.2

System: N-methyldiethanolamine + 1,2-ethanediol; phases: Liquid
Fixed: Pressure, kPa = 102
Property: Viscosity, Pa*s (Liquid); method: Falling or rolling sphere viscometry
Temperature, K	Mass fraction of N-methyldiethanolamine	Viscosity, Pa*s	uncertainty
283.15	0	0.03407	0.00407
283.15	0.3	0.06436	0.00415
283.15	0.4	0.08069	0.00427
283.15	0.5	0.09966	0.00468
283.15	0.8	0.16427	0.00758
283.15	0.9	0.18133	0.00861
283.15	1	0.19815	0.00943
298.15	0	0.01727	0.00109
298.15	0.3	0.03043	0.00112
298.15	0.4	0.03657	0.00113
298.15	0.5	0.04355	0.00116
298.15	0.7	0.05807	0.00267
298.15	0.8	0.06659	0.00274
298.15	0.9	0.06921	0.00275
298.15	1	0.07487	0.00148
313.15	0	0.00969	0.00106
313.15	0.3	0.01589	0.00105
313.15	0.4	0.01852	0.00105
313.15	0.5	0.02158	0.00108
313.15	0.7	0.02772	0.00111
313.15	0.8	0.03049	0.00111
313.15	0.9	0.03305	0.00112
313.15	1	0.03505	0.00111
323.15	0	0.00681	0.00036
323.15	0.3	0.0108	0.00035
323.15	0.4	0.01243	0.00036
323.15	0.5	0.0142	0.00036
323.15	0.7	0.01775	0.00039
323.15	0.8	0.01948	0.0004
323.15	0.9	0.02091	0.0004
323.15	1	0.02196	0.00043
333.15	0	0.00528	0.00047
333.15	0.3	0.00782	0.00047
333.15	0.4	0.00882	0.00048
333.15	0.5	0.00994	0.00048
333.15	0.7	0.01217	0.00049
333.15	0.8	0.01326	0.00049
333.15	0.9	0.01412	0.00049
333.15	1	0.01483	0.00049
343.15	0	0.00406	0.00046
343.15	0.3	0.00575	0.00046
343.15	0.4	0.00645	0.00046
343.15	0.5	0.00717	0.00046
343.15	0.7	0.00861	0.00047
343.15	0.8	0.00926	0.00047
343.15	0.9	0.00981	0.00047
343.15	1	0.01029	0.00054
353.15	0	0.00321	0.00031
353.15	0.3	0.00444	0.00031
353.15	0.4	0.00489	0.00031
353.15	0.5	0.00536	0.00031
353.15	0.7	0.00632	0.00032
353.15	0.8	0.00676	0.00032
353.15	0.9	0.00713	0.00032
353.15	1	0.0074	0.00032

System: N-methyldiethanolamine + 1,2-ethanediol + water; phases: Liquid
Fixed: Pressure, kPa = 102
Property: Mass density, kg/m3 (Liquid); method: Vibrating tube method
Temperature, K	Mass fraction of N-methyldiethanolamine	Mass fraction of 1,2-ethanediol	Mass density, kg/m3	uncertainty
283.15	0.05	0.9	1114.1	0.3
283.15	0.9	0.05	1057.6	0.7
283.15	0.3	0.6	1096.6	0.3
283.15	0.6	0.3	1078.5	0.5
283.15	0.1	0.6	1090.1	0.3
283.15	0.3	0.4	1081.2	0.3
283.15	0.6	0.1	1067.8	0.4
283.15	0.25	0.25	1061	0.3
298.15	0.05	0.9	1103.7	0.4
298.15	0.9	0.05	1046.3	0.7
298.15	0.3	0.6	1086.1	0.4
298.15	0.6	0.3	1067.6	0.5
298.15	0.1	0.6	1080.5	0.4
298.15	0.3	0.4	1071.2	0.4
298.15	0.6	0.1	1057.4	0.5
298.15	0.25	0.25	1052.2	0.4
313.15	0.05	0.9	1093.1	0.3
313.15	0.9	0.05	1034.8	0.7
313.15	0.3	0.6	1075.1	0.3
313.15	0.6	0.3	1056.3	0.4
313.15	0.1	0.6	1070.3	0.2
313.15	0.3	0.4	1060.9	0.3
313.15	0.6	0.1	1046.5	0.4
313.15	0.25	0.25	1043.2	0.3
323.15	0.05	0.9	1086.4	0.7
323.15	0.9	0.05	1027.5	0.9
323.15	0.3	0.6	1068.2	0.6
323.15	0.6	0.3	1049.1	0.7
323.15	0.1	0.6	1063.4	0.6
323.15	0.3	0.4	1053.8	0.6
323.15	0.6	0.1	1039.4	0.7
323.15	0.25	0.25	1036.6	0.6
333.15	0.05	0.9	1079.1	0.7
333.15	0.9	0.05	1019.8	1
333.15	0.3	0.6	1060.7	0.7
333.15	0.6	0.3	1041.5	0.8
333.15	0.1	0.6	1056.8	0.7
333.15	0.3	0.4	1047.1	0.7
333.15	0.6	0.1	1031.7	0.8
333.15	0.25	0.25	1030.5	0.7
343.15	0.05	0.9	1071.8	0.7
343.15	0.9	0.05	1012	1
343.15	0.3	0.6	1053.2	0.7
343.15	0.6	0.3	1033.6	0.8
343.15	0.1	0.6	1049.4	0.7
343.15	0.3	0.4	1039.5	0.7
343.15	0.6	0.1	1023.7	0.8
343.15	0.25	0.25	1023.5	0.7
353.15	0.05	0.9	1064.6	0.9
353.15	0.9	0.05	1004.2	1.1
353.15	0.3	0.6	1045.7	0.9
353.15	0.6	0.3	1025.8	1
353.15	0.1	0.6	1042.1	0.9
353.15	0.3	0.4	1031.9	0.9
353.15	0.6	0.1	1015.8	1
353.15	0.25	0.25	1016.1	0.9

System: N-methyldiethanolamine + 1,2-ethanediol + water; phases: Liquid
Fixed: Pressure, kPa = 102
Property: Viscosity, Pa*s (Liquid); method: Falling or rolling sphere viscometry
Temperature, K	Mass fraction of N-methyldiethanolamine	Mass fraction of 1,2-ethanediol	Viscosity, Pa*s	uncertainty
283.15	0.05	0.9	0.03053	0.00411
283.15	0.9	0.05	0.204	0.01245
283.15	0.3	0.6	0.04712	0.00413
283.15	0.6	0.3	0.10316	0.00551
283.15	0.1	0.6	0.013	0.00408
283.15	0.3	0.4	0.02237	0.00419
283.15	0.6	0.1	0.05877	0.00531
283.15	0.25	0.25	0.00975	0.0041
298.15	0.05	0.9	0.0158	0.00111
298.15	0.9	0.05	0.07959	0.00479
298.15	0.3	0.6	0.02247	0.00116
298.15	0.6	0.3	0.04392	0.00164
298.15	0.1	0.6	0.00727	0.00109
298.15	0.3	0.4	0.01152	0.00115
298.15	0.6	0.1	0.02509	0.00153
298.15	0.25	0.25	0.00533	0.0011
313.15	0.05	0.9	0.00902	0.00105
313.15	0.9	0.05	0.0349	0.0018
313.15	0.3	0.6	0.01201	0.00106
313.15	0.6	0.3	0.02096	0.00115
313.15	0.1	0.6	0.0044	0.00104
313.15	0.3	0.4	0.00644	0.00106
313.15	0.6	0.1	0.01215	0.00116
313.15	0.25	0.25	0.00325	0.00105
323.15	0.05	0.9	0.00649	0.00035
323.15	0.9	0.05	0.0217	0.00087
323.15	0.3	0.6	0.00832	0.00036
323.15	0.6	0.3	0.0136	0.00044
323.15	0.1	0.6	0.00336	0.00035
323.15	0.3	0.4	0.00473	0.00036
323.15	0.6	0.1	0.00818	0.00047
323.15	0.25	0.25	0.00246	0.00035
333.15	0.05	0.9	0.00486	0.00047
333.15	0.9	0.05	0.01425	0.00069
333.15	0.3	0.6	0.00603	0.00048
333.15	0.6	0.3	0.00933	0.00051
333.15	0.1	0.6	0.00257	0.00047
333.15	0.3	0.4	0.00351	0.00048
333.15	0.6	0.1	0.00575	0.00052
333.15	0.25	0.25	0.00192	0.00047
343.15	0.05	0.9	0.00376	0.00046
343.15	0.9	0.05	0.00976	0.00057
343.15	0.3	0.6	0.0045	0.00046
343.15	0.6	0.3	0.00663	0.00048
343.15	0.1	0.6	0.00204	0.00046
343.15	0.3	0.4	0.0027	0.00046
343.15	0.6	0.1	0.00415	0.00048
343.15	0.25	0.25	0.00155	0.00046
353.15	0.05	0.9	0.00297	0.00031
353.15	0.9	0.05	0.00696	0.00038
353.15	0.3	0.6	0.00347	0.00031
353.15	0.6	0.3	0.00489	0.00032
353.15	0.1	0.6	0.00166	0.00031
353.15	0.3	0.4	0.00213	0.00031
353.15	0.6	0.1	0.00312	0.00033
353.15	0.25	0.25	0.00126	0.00031
