Measured thermophysical data. Measurement and Correlation of Isobaric Vapor-Liquid Equilibrium for Binary Systems of Allyl Alcohol with Isobutyl Acetate, Butyl Acetate, and Butyl Propionate at 101.3 kPa
Source: J. Chem. Eng. Data, 2018, 10.1021/acs.jced.7b01024
Compound 1: 2-propenol, C3H6O, InChI=1S/C3H6O/c1-2-3-4/h2,4H,1,3H2, purity 99%
Compound 2: 2-methylpropyl ethanoate, C6H12O2, InChI=1S/C6H12O2/c1-5(2)4-8-6(3)7/h5H,4H2,1-3H3, purity 99%
Compound 3: butyl ethanoate, C6H12O2, InChI=1S/C6H12O2/c1-3-4-5-8-6(2)7/h3-5H2,1-2H3, purity 99%
Compound 4: butyl propanoate, C7H14O2, InChI=1S/C7H14O2/c1-3-5-6-9-7(8)4-2/h3-6H2,1-2H3, purity 99%

System: 2-propenol; phases: Liquid, Gas
Property: Boiling temperature at pressure P, K (Liquid); method: Ebulliometric method (Recirculating still)
Pressure, kPa	Boiling temperature at pressure P, K	uncertainty
101.3	369.9	0.44

System: 2-methylpropyl ethanoate; phases: Liquid, Gas
Property: Boiling temperature at pressure P, K (Liquid); method: Ebulliometric method (Recirculating still)
Pressure, kPa	Boiling temperature at pressure P, K	uncertainty
101.3	389.75	0.2

System: butyl ethanoate; phases: Liquid, Gas
Property: Boiling temperature at pressure P, K (Liquid); method: Ebulliometric method (Recirculating still)
Pressure, kPa	Boiling temperature at pressure P, K	uncertainty
101.3	399.15	0.2

System: butyl propanoate; phases: Liquid, Gas
Property: Boiling temperature at pressure P, K (Liquid); method: Ebulliometric method (Recirculating still)
Pressure, kPa	Boiling temperature at pressure P, K	uncertainty
101.3	418.25	0.2

System: 2-propenol + 2-methylpropyl ethanoate; phases: Liquid, Gas
Fixed: Pressure, kPa = 101.3
Property: Boiling temperature at pressure P, K (Liquid); method: Ebulliometric method (Recirculating still)
Mole fraction of 2-propenol	Boiling temperature at pressure P, K	uncertainty
0.0216	388.25	0.82
0.0479	386.75	0.77
0.0909	384.65	0.7
0.1359	382.85	0.64
0.1994	380.55	0.59
0.2768	378.3	0.56
0.3316	376.85	0.53
0.4072	375.35	0.5
0.4858	373.95	0.49
0.5765	372.7	0.48
0.6502	371.85	0.47
0.7206	371.15	0.46
0.8054	370.5	0.46
0.9027	370.1	0.45
0.9843	369.95	0.45

System: 2-propenol + 2-methylpropyl ethanoate; phases: Gas, Liquid
Fixed: Pressure, kPa = 101.3
Property: Mole fraction of 2-propenol (Gas); method: Chromatography
Mole fraction of 2-propenol	Mole fraction of 2-propenol	uncertainty
0.0216	0.0575	0.0316
0.0479	0.1216	0.0293
0.0909	0.2123	0.0263
0.1359	0.2931	0.0229
0.1994	0.3878	0.0203
0.2768	0.481	0.0185
0.3316	0.5311	0.017
0.4072	0.5987	0.0163
0.4858	0.6578	0.0151
0.5765	0.7126	0.0147
0.6502	0.7631	0.0147
0.7206	0.806	0.014
0.8054	0.8507	0.0143
0.9027	0.9186	0.0151
0.9843	0.9856	0.0144

System: 2-propenol + butyl ethanoate; phases: Liquid, Gas
Fixed: Pressure, kPa = 101.3
Property: Boiling temperature at pressure P, K (Liquid); method: Ebulliometric method (Recirculating still)
Mole fraction of 2-propenol	Boiling temperature at pressure P, K	uncertainty
0.041	395.9	0.93
0.0825	393.1	0.88
0.1208	390.9	0.78
0.1663	388.63	0.73
0.2202	386.15	0.69
0.267	384.3	0.64
0.323	382.2	0.6
0.3873	380.3	0.56
0.465	378.3	0.53
0.5389	376.8	0.51
0.6249	375.2	0.5
0.7313	373.2	0.49
0.8186	372	0.48
0.9118	370.9	0.47
0.9725	370.2	0.47

System: 2-propenol + butyl ethanoate; phases: Gas, Liquid
Fixed: Pressure, kPa = 101.3
Property: Mole fraction of 2-propenol (Gas); method: Chromatography
Mole fraction of 2-propenol	Mole fraction of 2-propenol	uncertainty
0.041	0.1264	0.0318
0.0825	0.2282	0.0299
0.1208	0.3076	0.0251
0.1663	0.3816	0.0223
0.2202	0.4598	0.0206
0.267	0.5156	0.0189
0.323	0.5756	0.0178
0.3873	0.6379	0.0162
0.465	0.6928	0.0149
0.5389	0.7374	0.0145
0.6249	0.79	0.0142
0.7313	0.8496	0.0139
0.8186	0.899	0.0138
0.9118	0.9494	0.0137
0.9725	0.9832	0.0137

System: 2-propenol + butyl propanoate; phases: Liquid, Gas
Fixed: Pressure, kPa = 101.3
Property: Boiling temperature at pressure P, K (Liquid); method: Ebulliometric method (Recirculating still)
Mole fraction of 2-propenol	Boiling temperature at pressure P, K	uncertainty
0.0121	415.92	1.71
0.0629	408.95	1.56
0.1117	403.5	1.31
0.1521	399.8	1.11
0.2087	395.3	0.98
0.2659	391.5	0.82
0.3498	387.25	0.73
0.4065	384.8	0.67
0.4799	381.85	0.63
0.5223	380.55	0.55
0.5891	378.9	0.55
0.7142	375.6	0.54
0.7853	374.15	0.51
0.8914	371.95	0.51
0.9483	370.85	0.51
0.9818	370.2	0.51

System: 2-propenol + butyl propanoate; phases: Gas, Liquid
Fixed: Pressure, kPa = 101.3
Property: Mole fraction of 2-propenol (Gas); method: Chromatography
Mole fraction of 2-propenol	Mole fraction of 2-propenol	uncertainty
0.0121	0.0733	0.0515
0.0629	0.2854	0.0433
0.1117	0.4176	0.0319
0.1521	0.5021	0.0253
0.2087	0.5933	0.0212
0.2659	0.6618	0.0172
0.3498	0.7307	0.0156
0.4065	0.7706	0.0146
0.4799	0.8151	0.014
0.5223	0.8345	0.0131
0.5891	0.8583	0.0129
0.7142	0.904	0.013
0.7853	0.9275	0.0127
0.8914	0.9636	0.0127
0.9483	0.9822	0.0126
0.9818	0.9934	0.0066
