Measured thermophysical data. Extraction of Carboxylic Acids from Aqueous Solutions by Using [BMim][NTf2] and Salting-out Agents
Source: J. Chem. Eng. Data, 2019, 10.1021/acs.jced.9b00041
Compound 1: 4-oxopentanoic acid, C5H8O3, InChI=1S/C5H8O3/c1-4(6)2-3-5(7)8/h2-3H2,1H3,(H,7,8)
Compound 2: 1-butyl-3-methylimidazolium bis(trifluoromethylsulfonyl)imide, C10H15F6N3O4S2, InChI=1S/C8H15N2.C2F6NO4S2/c1-3-4-5-10-7-6-9(2)8-10;3-1(4,5)14(10,11)9-15(12,13)2(6,7)8/h6-8H,3-5H2,1-2H3;/q+1;-1
Compound 3: water, H2O, InChI=1S/H2O/h1H2, purity 99.8%
Compound 4: 2-hydroxypropanoic acid, C3H6O3, InChI=1S/C3H6O3/c1-2(4)3(5)6/h2,4H,1H3,(H,5,6), purity 90%

System: 4-oxopentanoic acid; phases: Liquid
Property: Mass density, kg/m3 (Liquid); method: Vibrating tube method
Temperature, K	Pressure, kPa	Mass density, kg/m3	uncertainty
298.15	101.325	1135.71	10

System: 1-butyl-3-methylimidazolium bis(trifluoromethylsulfonyl)imide; phases: Liquid
Property: Mass density, kg/m3 (Liquid); method: Vibrating tube method
Temperature, K	Pressure, kPa	Mass density, kg/m3	uncertainty
298.15	101.325	1436.46	10.02

System: water; phases: Liquid
Property: Mass density, kg/m3 (Liquid); method: Vibrating tube method
Temperature, K	Pressure, kPa	Mass density, kg/m3	uncertainty
298.15	101.325	997.05	10

System: 2-hydroxypropanoic acid; phases: Liquid
Property: Mass density, kg/m3 (Liquid); method: Vibrating tube method
Temperature, K	Pressure, kPa	Mass density, kg/m3	uncertainty
298.15	101.325	1202.57	34.69

System: 4-oxopentanoic acid + water + 1-butyl-3-methylimidazolium bis(trifluoromethylsulfonyl)imide; phases: Liquid mixture 1, Liquid mixture 2
Fixed: Temperature, K = 298.15
Fixed: Pressure, kPa = 100
Property: Mole fraction of 4-oxopentanoic acid (Liquid mixture 1); method: Titration method
Mole fraction of water	Mole fraction of 4-oxopentanoic acid	uncertainty
0.9915	0.0077	0.0077
0.9818	0.0169	0.0142
0.9615	0.0374	0.0141
0.9367	0.0613	0.0138
0.9024	0.0927	0.0134
0.8565	0.13	0.0125
0.7734	0.1787	0.0117
0.5859	0.2218	0.012
0.5492	0.2143	0.0122
0.4698	0.1834	0.0122
0.3708	0.1294	0.0122
0.2909	0.0765	0.0151
0.2702	0	

System: 4-oxopentanoic acid + water + 1-butyl-3-methylimidazolium bis(trifluoromethylsulfonyl)imide; phases: Liquid
Fixed: Temperature, K = 303.15
Fixed: Pressure, kPa = 100
Property: Mass density, kg/m3 (Liquid); method: Vibrating tube method
Mole fraction of water	Mole fraction of 4-oxopentanoic acid	Mass density, kg/m3	uncertainty
0.9915	0.0077	1005.9	5.9
0.9818	0.0169	1015.3	17
0.9615	0.0374	1033.1	3.9
0.9367	0.0613	1052.4	3.7
0.9024	0.0927	1077.4	3.7
0.8565	0.13	1114	3.9
0.7734	0.1787	1188.2	4.9
0.5859	0.2218	1302.6	11.2
0.5492	0.2143	1327.2	11.2
0.4698	0.1834	1357.4	4.6
0.3708	0.1294	1385.1	4.6
0.2909	0.0765	1403	4.5

System: 4-oxopentanoic acid + water + 1-butyl-3-methylimidazolium bis(trifluoromethylsulfonyl)imide; phases: Liquid mixture 1, Liquid mixture 2
Fixed: Temperature, K = 298.15
Fixed: Pressure, kPa = 100
Property: Mole fraction of 4-oxopentanoic acid (Liquid mixture 1); method: Density calibration data
Property: Mole fraction of 4-oxopentanoic acid (Liquid mixture 2); method: Density calibration data
Property: Mole fraction of water (Liquid mixture 2); method: Density calibration data
Mole fraction of water	Mole fraction of 4-oxopentanoic acid	uncertainty	Mole fraction of 4-oxopentanoic acid	uncertainty	Mole fraction of water	uncertainty
0.8585	0.1273	0.003	0.2165	0.005	0.5963	
0.8967	0.0973	0.0023	0.2163	0.005	0.5445	
0.9363	0.0622	0.0016	0.1688	0.0039	0.4399	
0.969	0.0304	0.0011	0.106	0.0025	0.3326	
0.9847	0.0142	0.0009	0.0724	0.0017	0.2793	

System: 2-hydroxypropanoic acid + water; phases: Liquid
Property: Mass density, kg/m3 (Liquid); method: Vibrating tube method
Mass fraction of water	Temperature, K	Pressure, kPa	Mass density, kg/m3	uncertainty
0.089	298.15	100	1202.57	10

System: 2-hydroxypropanoic acid + water + 1-butyl-3-methylimidazolium bis(trifluoromethylsulfonyl)imide; phases: Liquid mixture 1, Liquid mixture 2
Fixed: Temperature, K = 298.15
Fixed: Pressure, kPa = 100
Property: Mole fraction of water (Liquid mixture 1); method: Density calibration data
Property: Mole fraction of 2-hydroxypropanoic acid (Liquid mixture 2); method: Density calibration data
Property: Mole fraction of water (Liquid mixture 2); method: Density calibration data
Mole fraction of 2-hydroxypropanoic acid	Mole fraction of water	uncertainty	Mole fraction of 2-hydroxypropanoic acid	uncertainty	Mole fraction of water	uncertainty
0.3016	0.2977	0.0069	0.4642	0.0108	0.516	
0.2654	0.2918	0.0068	0.4169	0.0097	0.5661	
0.2359	0.2875	0.0067	0.3741	0.0087	0.6113	
0.2064	0.2836	0.0066	0.3106	0.0072	0.6784	
0.155	0.2777	0.0065	0.2273	0.0053	0.7659	
0.1124	0.2734	0.0064	0.1301	0.0031	0.8671	
0.056	0.2685	0.0062	0.0346	0.0011	0.964	

System: 2-hydroxypropanoic acid + water + 1-butyl-3-methylimidazolium bis(trifluoromethylsulfonyl)imide; phases: Liquid mixture 1, Liquid mixture 2
Fixed: Temperature, K = 298.15
Fixed: Pressure, kPa = 100
Property: Mole fraction of 2-hydroxypropanoic acid (Liquid mixture 1); method: Titration method
Mole fraction of water	Mole fraction of 2-hydroxypropanoic acid	uncertainty
0.977	0.0223	0.0142
0.9562	0.0431	0.0141
0.9559	0.043	0.0142
0.9292	0.0698	0.0142
0.8943	0.104	0.0143
0.8524	0.1453	0.0146
0.6802	0.3094	0.0162
0.5659	0.4097	0.0173
0.4725	0.4766	0.018
0.4398	0.4872	0.0171
0.3969	0.4878	0.0171
0.3667	0.4732	0.018
0.3298	0.443	0.0225
0.3017	0.3679	0.0685
0.2907	0.1427	0.1113
0.2808	0.2332	0.1101
0.2702	0	

System: 2-hydroxypropanoic acid + water + 1-butyl-3-methylimidazolium bis(trifluoromethylsulfonyl)imide; phases: Liquid
Fixed: Temperature, K = 303.15
Fixed: Pressure, kPa = 100
Property: Mass density, kg/m3 (Liquid); method: Vibrating tube method
Mole fraction of water	Mole fraction of 2-hydroxypropanoic acid	Mass density, kg/m3	uncertainty
0.977	0.0223	1021	6
0.9562	0.0431	1040.1	4
0.9559	0.043	1040.4	4.1
0.9292	0.0698	1061.3	3.6
0.8943	0.104	1084.7	3.4
0.8524	0.1453	1108.2	3.3
0.6802	0.3094	1175.6	7.7
0.5659	0.4097	1141.7	11.2
0.4725	0.4766	1210.4	11.5
0.4398	0.4872	1248.8	5.1
0.3969	0.4878	1284.4	5.1
0.3667	0.4732	1318	6.1
0.3298	0.443	1337.7	5.5
0.3017	0.3679	1362.5	5.1
0.2907	0.1427	1400.7	3.5
0.2808	0.2332	1389.8	3.4

System: water + 1-butyl-3-methylimidazolium bis(trifluoromethylsulfonyl)imide; phases: Liquid mixture 1, Liquid mixture 2
Property: Mole fraction of water (Liquid mixture 1); method: Titration method
Temperature, K	Pressure, kPa	Mole fraction of water	uncertainty
298.15	100	0.2702	0.0107
