Measured thermophysical data. Densities and Viscosities for the Ternary System of 1,2,3,4-Tetrahydronaphthalene + Isopropylcyclohexane + Cyclopropanemethanol and Corresponding Binaries at T = (293.15 to 343.15) K
Source: J. Chem. Eng. Data, 2018, 10.1021/acs.jced.8b00662
Compound 1: 1,2,3,4-tetrahydronaphthalene, C10H12, InChI=1S/C10H12/c1-2-6-10-8-4-3-7-9(10)5-1/h1-2,5-6H,3-4,7-8H2, purity 99.5%
Compound 2: (1-methylethyl)cyclohexane, C9H18, InChI=1S/C9H18/c1-8(2)9-6-4-3-5-7-9/h8-9H,3-7H2,1-2H3, purity 99%
Compound 3: cyclopropylmethanol, C4H8O, InChI=1S/C4H8O/c5-3-4-1-2-4/h4-5H,1-3H2, purity 99.5%

System: 1,2,3,4-tetrahydronaphthalene; phases: Liquid
Fixed: Pressure, kPa = 100
Property: Mass density, kg/m3 (Liquid); method: Vibrating tube method
Temperature, K	Mass density, kg/m3	uncertainty
293.15	968.89	1.16
298.15	964.92	1.16
303.15	960.96	1.15
308.15	956.99	1.15
313.15	953.03	1.14
318.15	949.05	1.14
323.15	945.1	1.14
328.15	941.13	1.13
333.15	937.17	1.13
338.15	933.19	1.12
343.15	929.2	1.12

System: 1,2,3,4-tetrahydronaphthalene; phases: Liquid
Fixed: Pressure, kPa = 100
Property: Viscosity, Pa*s (Liquid); method: Falling or rolling sphere viscometry
Temperature, K	Viscosity, Pa*s	uncertainty
293.15	0.002233	4.7e-05
298.15	0.002019	4.3e-05
303.15	0.001838	3.9e-05
308.15	0.001681	3.6e-05
313.15	0.001546	3.3e-05
318.15	0.001428	3e-05
323.15	0.001324	2.8e-05
328.15	0.001233	2.6e-05
333.15	0.001151	2.4e-05
338.15	0.001079	2.3e-05
343.15	0.001013	2.2e-05

System: (1-methylethyl)cyclohexane; phases: Liquid
Fixed: Pressure, kPa = 100
Property: Mass density, kg/m3 (Liquid); method: Vibrating tube method
Temperature, K	Mass density, kg/m3	uncertainty
293.15	802.14	0.97
298.15	798.24	0.97
303.15	794.34	0.96
308.15	790.43	0.96
313.15	786.51	0.95
318.15	782.59	0.95
323.15	778.66	0.95
328.15	774.72	0.94
333.15	770.77	0.94
338.15	766.81	0.93
343.15	762.84	0.93

System: (1-methylethyl)cyclohexane; phases: Liquid
Fixed: Pressure, kPa = 100
Property: Viscosity, Pa*s (Liquid); method: Falling or rolling sphere viscometry
Temperature, K	Viscosity, Pa*s	uncertainty
293.15	0.001093	2.3e-05
298.15	0.001016	2.2e-05
303.15	0.000947	2e-05
308.15	0.000886	1.9e-05
313.15	0.000831	1.8e-05
318.15	0.000782	1.7e-05
323.15	0.000738	1.6e-05
328.15	0.000698	1.5e-05
333.15	0.000661	1.4e-05
338.15	0.000628	1.3e-05
343.15	0.000598	1.3e-05

System: cyclopropylmethanol; phases: Liquid
Fixed: Pressure, kPa = 100
Property: Mass density, kg/m3 (Liquid); method: Vibrating tube method
Temperature, K	Mass density, kg/m3	uncertainty
293.15	913.02	1.1
298.15	908.96	1.09
303.15	904.87	1.09
308.15	900.74	1.08
313.15	896.59	1.08
318.15	892.38	1.07
323.15	888.17	1.07
328.15	883.86	1.06
333.15	879.52	1.06
338.15	875.1	1.05
343.15	870.62	1.05

System: cyclopropylmethanol; phases: Liquid
Fixed: Pressure, kPa = 100
Property: Viscosity, Pa*s (Liquid); method: Falling or rolling sphere viscometry
Temperature, K	Viscosity, Pa*s	uncertainty
293.15	0.003988	8.5e-05
298.15	0.003455	7.4e-05
303.15	0.003009	6.4e-05
308.15	0.002635	5.6e-05
313.15	0.002321	4.9e-05
318.15	0.002054	4.4e-05
323.15	0.001825	3.9e-05
328.15	0.001629	3.5e-05
333.15	0.00146	3.1e-05
338.15	0.001316	2.8e-05
343.15	0.00119	2.5e-05

System: 1,2,3,4-tetrahydronaphthalene + cyclopropylmethanol; phases: Liquid
Fixed: Pressure, kPa = 100
Property: Mass density, kg/m3 (Liquid); method: Vibrating tube method
Temperature, K	Mole fraction of 1,2,3,4-tetrahydronaphthalene	Mass density, kg/m3	uncertainty
293.15	0	913.02	1.1
293.15	0.0993	921.89	1.11
293.15	0.1972	929.26	1.12
293.15	0.3008	936.02	1.13
293.15	0.3978	941.84	1.13
293.15	0.4986	947.21	1.14
293.15	0.6031	952.27	1.14
293.15	0.7031	956.72	1.15
293.15	0.7981	960.63	1.15
293.15	0.901	964.72	1.16
293.15	1	968.89	1.16
298.15	0	908.96	1.09
298.15	0.0993	917.77	1.1
298.15	0.1972	925.12	1.11
298.15	0.3008	931.86	1.12
298.15	0.3978	937.67	1.13
298.15	0.4986	943.05	1.13
298.15	0.6031	948.12	1.14
298.15	0.7031	952.59	1.14
298.15	0.7981	956.53	1.15
298.15	0.901	960.66	1.15
298.15	1	964.92	1.16
303.15	0	904.87	1.09
303.15	0.0993	913.62	1.1
303.15	0.1972	920.94	1.11
303.15	0.3008	927.67	1.12
303.15	0.3978	933.47	1.12
303.15	0.4986	938.85	1.13
303.15	0.6031	943.94	1.13
303.15	0.7031	948.44	1.14
303.15	0.7981	952.41	1.14
303.15	0.901	956.59	1.15
303.15	1	960.96	1.15
308.15	0	900.74	1.08
308.15	0.0993	909.43	1.1
308.15	0.1972	916.73	1.1
308.15	0.3008	923.44	1.11
308.15	0.3978	929.24	1.12
308.15	0.4986	934.63	1.12
308.15	0.6031	939.74	1.13
308.15	0.7031	944.26	1.13
308.15	0.7981	948.28	1.14
308.15	0.901	952.52	1.14
308.15	1	956.99	1.15
313.15	0	896.59	1.08
313.15	0.0993	905.22	1.09
313.15	0.1972	912.49	1.1
313.15	0.3008	919.19	1.11
313.15	0.3978	925	1.11
313.15	0.4986	930.4	1.12
313.15	0.6031	935.53	1.12
313.15	0.7031	940.09	1.13
313.15	0.7981	944.15	1.13
313.15	0.901	948.45	1.14
313.15	1	953.03	1.14
318.15	0	892.38	1.07
318.15	0.0993	900.96	1.09
318.15	0.1972	908.2	1.09
318.15	0.3008	914.89	1.1
318.15	0.3978	920.7	1.11
318.15	0.4986	926.13	1.11
318.15	0.6031	931.29	1.12
318.15	0.7031	935.88	1.13
318.15	0.7981	939.99	1.13
318.15	0.901	944.36	1.13
318.15	1	949.05	1.14
323.15	0	888.17	1.07
323.15	0.0993	896.69	1.08
323.15	0.1972	903.9	1.09
323.15	0.3008	910.59	1.1
323.15	0.3978	916.41	1.1
323.15	0.4986	921.85	1.11
323.15	0.6031	927.06	1.11
323.15	0.7031	931.69	1.12
323.15	0.7981	935.85	1.12
323.15	0.901	940.3	1.13
323.15	1	945.1	1.14
328.15	0	883.86	1.06
328.15	0.0993	892.34	1.07
328.15	0.1972	899.54	1.08
328.15	0.3008	906.23	1.09
328.15	0.3978	912.06	1.1
328.15	0.4986	917.54	1.1
328.15	0.6031	922.78	1.11
328.15	0.7031	927.49	1.12
328.15	0.7981	931.68	1.12
328.15	0.901	936.23	1.13
328.15	1	941.13	1.13
333.15	0	879.52	1.06
333.15	0.0993	887.95	1.07
333.15	0.1972	895.13	1.08
333.15	0.3008	901.83	1.09
333.15	0.3978	907.69	1.09
333.15	0.4986	913.2	1.1
333.15	0.6031	918.5	1.1
333.15	0.7031	923.23	1.11
333.15	0.7981	927.51	1.12
333.15	0.901	932.14	1.12
333.15	1	937.17	1.13
338.15	0	875.1	1.05
338.15	0.0993	883.49	1.06
338.15	0.1972	890.66	1.07
338.15	0.3008	897.37	1.08
338.15	0.3978	903.28	1.09
338.15	0.4986	908.82	1.09
338.15	0.6031	914.15	1.1
338.15	0.7031	918.94	1.11
338.15	0.7981	923.3	1.11
338.15	0.901	928.03	1.12
338.15	1	933.19	1.12
343.15	0	870.62	1.05
343.15	0.0993	878.98	1.06
343.15	0.1972	886.15	1.07
343.15	0.3008	892.87	1.08
343.15	0.3978	898.8	1.08
343.15	0.4986	904.39	1.09
343.15	0.6031	909.78	1.09
343.15	0.7031	914.63	1.1
343.15	0.7981	919.07	1.11
343.15	0.901	923.91	1.11
343.15	1	929.2	1.12

System: 1,2,3,4-tetrahydronaphthalene + cyclopropylmethanol; phases: Liquid
Fixed: Pressure, kPa = 100
Property: Viscosity, Pa*s (Liquid); method: Falling or rolling sphere viscometry
Temperature, K	Mole fraction of 1,2,3,4-tetrahydronaphthalene	Viscosity, Pa*s	uncertainty
293.15	0	0.003988	8.5e-05
293.15	0.0993	0.003498	7.5e-05
293.15	0.1972	0.003134	6.7e-05
293.15	0.3008	0.002837	6e-05
293.15	0.3978	0.002622	5.6e-05
293.15	0.4986	0.002449	5.2e-05
293.15	0.6031	0.002318	4.9e-05
293.15	0.7031	0.002229	4.7e-05
293.15	0.7981	0.002182	4.6e-05
293.15	0.901	0.002164	4.6e-05
293.15	1	0.002233	4.7e-05
298.15	0	0.003455	7.4e-05
298.15	0.0993	0.003039	6.5e-05
298.15	0.1972	0.002734	5.8e-05
298.15	0.3008	0.00249	5.3e-05
298.15	0.3978	0.002313	4.9e-05
298.15	0.4986	0.002173	4.6e-05
298.15	0.6031	0.002068	4.4e-05
298.15	0.7031	0.001997	4.2e-05
298.15	0.7981	0.001963	4.2e-05
298.15	0.901	0.001952	4.1e-05
298.15	1	0.002019	4.3e-05
303.15	0	0.003009	6.4e-05
303.15	0.0993	0.002656	5.7e-05
303.15	0.1972	0.002402	5.1e-05
303.15	0.3008	0.0022	4.7e-05
303.15	0.3978	0.002053	4.4e-05
303.15	0.4986	0.00194	4.1e-05
303.15	0.6031	0.001855	3.9e-05
303.15	0.7031	0.0018	3.8e-05
303.15	0.7981	0.001774	3.8e-05
303.15	0.901	0.00177	3.8e-05
303.15	1	0.001838	3.9e-05
308.15	0	0.002635	5.6e-05
308.15	0.0993	0.002338	5e-05
308.15	0.1972	0.002123	4.5e-05
308.15	0.3008	0.001958	4.2e-05
308.15	0.3978	0.001836	3.9e-05
308.15	0.4986	0.001747	3.7e-05
308.15	0.6031	0.001675	3.6e-05
308.15	0.7031	0.001633	3.5e-05
308.15	0.7981	0.001613	3.4e-05
308.15	0.901	0.001618	3.4e-05
308.15	1	0.001681	3.6e-05
313.15	0	0.002321	4.9e-05
313.15	0.0993	0.002068	4.4e-05
313.15	0.1972	0.001889	4e-05
313.15	0.3008	0.001754	3.7e-05
313.15	0.3978	0.001651	3.5e-05
313.15	0.4986	0.001579	3.4e-05
313.15	0.6031	0.001521	3.2e-05
313.15	0.7031	0.001491	3.2e-05
313.15	0.7981	0.001474	3.1e-05
313.15	0.901	0.001485	3.2e-05
313.15	1	0.001546	3.3e-05
318.15	0	0.002054	4.4e-05
318.15	0.0993	0.00184	3.9e-05
318.15	0.1972	0.001688	3.6e-05
318.15	0.3008	0.001577	3.4e-05
318.15	0.3978	0.001492	3.2e-05
318.15	0.4986	0.001433	3.1e-05
318.15	0.6031	0.001387	3e-05
318.15	0.7031	0.001366	2.9e-05
318.15	0.7981	0.001355	2.9e-05
318.15	0.901	0.001369	2.9e-05
318.15	1	0.001428	3e-05
323.15	0	0.001825	3.9e-05
323.15	0.0993	0.001644	3.5e-05
323.15	0.1972	0.001517	3.2e-05
323.15	0.3008	0.001423	3e-05
323.15	0.3978	0.001355	2.9e-05
323.15	0.4986	0.001305	2.8e-05
323.15	0.6031	0.001271	2.7e-05
323.15	0.7031	0.001254	2.7e-05
323.15	0.7981	0.001235	2.6e-05
323.15	0.901	0.001263	2.7e-05
323.15	1	0.001324	2.8e-05
328.15	0	0.001629	3.5e-05
328.15	0.0993	0.001476	3.1e-05
328.15	0.1972	0.001369	2.9e-05
328.15	0.3008	0.001291	2.8e-05
328.15	0.3978	0.00122	2.6e-05
328.15	0.4986	0.001195	2.5e-05
328.15	0.6031	0.001169	2.5e-05
328.15	0.7031	0.001156	2.5e-05
328.15	0.7981	0.001157	2.5e-05
328.15	0.901	0.001174	2.5e-05
328.15	1	0.001233	2.6e-05
333.15	0	0.00146	3.1e-05
333.15	0.0993	0.001331	2.8e-05
333.15	0.1972	0.001241	2.6e-05
333.15	0.3008	0.001176	2.5e-05
333.15	0.3978	0.001131	2.4e-05
333.15	0.4986	0.0011	2.3e-05
333.15	0.6031	0.00108	2.3e-05
333.15	0.7031	0.001071	2.3e-05
333.15	0.7981	0.001076	2.3e-05
333.15	0.901	0.001094	2.3e-05
333.15	1	0.001151	2.4e-05
338.15	0	0.001316	2.8e-05
338.15	0.0993	0.001205	2.6e-05
338.15	0.1972	0.00113	2.4e-05
338.15	0.3008	0.001078	2.3e-05
338.15	0.3978	0.001041	2.2e-05
338.15	0.4986	0.001015	2.2e-05
338.15	0.6031	0.001004	2.1e-05
338.15	0.7031	0.000996	2.1e-05
338.15	0.7981	0.001003	2.1e-05
338.15	0.901	0.001024	2.2e-05
338.15	1	0.001079	2.3e-05
343.15	0	0.00119	2.5e-05
343.15	0.0993	0.001095	2.3e-05
343.15	0.1972	0.001033	2.2e-05
343.15	0.3008	0.00099	2.1e-05
343.15	0.3978	0.000961	2e-05
343.15	0.4986	0.000941	2e-05
343.15	0.6031	0.000933	2e-05
343.15	0.7031	0.000931	2e-05
343.15	0.7981	0.000941	2e-05
343.15	0.901	0.000961	2e-05
343.15	1	0.001013	2.2e-05

System: 1,2,3,4-tetrahydronaphthalene + (1-methylethyl)cyclohexane; phases: Liquid
Fixed: Pressure, kPa = 100
Property: Mass density, kg/m3 (Liquid); method: Vibrating tube method
Temperature, K	Mole fraction of 1,2,3,4-tetrahydronaphthalene	Mass density, kg/m3	uncertainty
293.15	0	802.14	0.97
293.15	0.0995	816.67	0.99
293.15	0.1995	831.75	1.01
293.15	0.299	847.23	1.02
293.15	0.4004	863.44	1.04
293.15	0.5006	879.87	1.06
293.15	0.5995	896.5	1.08
293.15	0.7015	914.1	1.1
293.15	0.7991	931.39	1.12
293.15	0.9006	949.99	1.14
293.15	1	968.89	1.16
298.15	0	798.24	0.97
298.15	0.0995	812.77	0.99
298.15	0.1995	827.85	1
298.15	0.299	843.32	1.02
298.15	0.4004	859.53	1.04
298.15	0.5006	875.96	1.06
298.15	0.5995	892.57	1.08
298.15	0.7015	910.16	1.1
298.15	0.7991	927.44	1.12
298.15	0.9006	946.04	1.14
298.15	1	964.92	1.16
303.15	0	794.34	0.96
303.15	0.0995	808.86	0.98
303.15	0.1995	823.93	1
303.15	0.299	839.4	1.02
303.15	0.4004	855.61	1.03
303.15	0.5006	872.03	1.05
303.15	0.5995	888.63	1.07
303.15	0.7015	906.22	1.09
303.15	0.7991	923.49	1.11
303.15	0.9006	942.08	1.13
303.15	1	960.96	1.15
308.15	0	790.43	0.96
308.15	0.0995	804.95	0.98
308.15	0.1995	820.02	0.99
308.15	0.299	835.48	1.01
308.15	0.4004	851.68	1.03
308.15	0.5006	868.1	1.05
308.15	0.5995	884.69	1.07
308.15	0.7015	902.28	1.09
308.15	0.7991	919.54	1.11
308.15	0.9006	938.12	1.13
308.15	1	956.99	1.15
313.15	0	786.51	0.95
313.15	0.0995	801.03	0.97
313.15	0.1995	816.1	0.99
313.15	0.299	831.55	1.01
313.15	0.4004	847.75	1.03
313.15	0.5006	864.17	1.04
313.15	0.5995	880.76	1.06
313.15	0.7015	898.34	1.08
313.15	0.7991	915.59	1.1
313.15	0.9006	934.17	1.13
313.15	1	953.03	1.14
318.15	0	782.59	0.95
318.15	0.0995	797.11	0.97
318.15	0.1995	812.17	0.98
318.15	0.299	827.63	1
318.15	0.4004	843.82	1.02
318.15	0.5006	860.23	1.04
318.15	0.5995	876.81	1.06
318.15	0.7015	894.39	1.08
318.15	0.7991	911.63	1.1
318.15	0.9006	930.21	1.12
318.15	1	949.05	1.14
323.15	0	778.66	0.95
323.15	0.0995	793.18	0.96
323.15	0.1995	808.24	0.98
323.15	0.299	823.7	1
323.15	0.4004	839.88	1.02
323.15	0.5006	856.3	1.03
323.15	0.5995	872.87	1.05
323.15	0.7015	890.45	1.07
323.15	0.7991	907.69	1.09
323.15	0.9006	926.26	1.12
323.15	1	945.1	1.14
328.15	0	774.72	0.94
328.15	0.0995	789.24	0.96
328.15	0.1995	804.3	0.98
328.15	0.299	819.76	0.99
328.15	0.4004	835.94	1.01
328.15	0.5006	852.35	1.03
328.15	0.5995	868.92	1.05
328.15	0.7015	886.5	1.07
328.15	0.7991	903.74	1.09
328.15	0.9006	922.3	1.11
328.15	1	941.13	1.13
333.15	0	770.77	0.94
333.15	0.0995	785.29	0.95
333.15	0.1995	800.35	0.97
333.15	0.299	815.81	0.99
333.15	0.4004	831.99	1.01
333.15	0.5006	848.4	1.03
333.15	0.5995	864.97	1.04
333.15	0.7015	882.54	1.06
333.15	0.7991	899.78	1.08
333.15	0.9006	918.35	1.11
333.15	1	937.17	1.13
338.15	0	766.81	0.93
338.15	0.0995	781.34	0.95
338.15	0.1995	796.4	0.97
338.15	0.299	811.85	0.98
338.15	0.4004	828.03	1
338.15	0.5006	844.44	1.02
338.15	0.5995	861.01	1.04
338.15	0.7015	878.57	1.06
338.15	0.7991	895.81	1.08
338.15	0.9006	914.37	1.1
338.15	1	933.19	1.12
343.15	0	762.84	0.93
343.15	0.0995	777.38	0.95
343.15	0.1995	792.44	0.96
343.15	0.299	807.89	0.98
343.15	0.4004	824.07	1
343.15	0.5006	840.47	1.02
343.15	0.5995	857.04	1.04
343.15	0.7015	874.6	1.06
343.15	0.7991	891.84	1.08
343.15	0.9006	910.39	1.1
343.15	1	929.2	1.12

System: 1,2,3,4-tetrahydronaphthalene + (1-methylethyl)cyclohexane; phases: Liquid
Fixed: Pressure, kPa = 100
Property: Viscosity, Pa*s (Liquid); method: Falling or rolling sphere viscometry
Temperature, K	Mole fraction of 1,2,3,4-tetrahydronaphthalene	Viscosity, Pa*s	uncertainty
293.15	0	0.001093	2.3e-05
293.15	0.0995	0.001129	2.4e-05
293.15	0.1995	0.001195	2.6e-05
293.15	0.299	0.001258	2.7e-05
293.15	0.4004	0.001334	2.8e-05
293.15	0.5006	0.001436	3.1e-05
293.15	0.5995	0.001543	3.3e-05
293.15	0.7015	0.001671	3.6e-05
293.15	0.7991	0.001823	3.9e-05
293.15	0.9006	0.002008	4.3e-05
293.15	1	0.002233	4.7e-05
298.15	0	0.001016	2.2e-05
298.15	0.0995	0.001053	2.3e-05
298.15	0.1995	0.001108	2.4e-05
298.15	0.299	0.001165	2.5e-05
298.15	0.4004	0.001233	2.6e-05
298.15	0.5006	0.001324	2.8e-05
298.15	0.5995	0.001416	3e-05
298.15	0.7015	0.001531	3.3e-05
298.15	0.7991	0.001662	3.5e-05
298.15	0.9006	0.001824	3.9e-05
298.15	1	0.002019	4.3e-05
303.15	0	0.000947	2e-05
303.15	0.0995	0.00098	2.1e-05
303.15	0.1995	0.00103	2.2e-05
303.15	0.299	0.00108	2.3e-05
303.15	0.4004	0.001143	2.4e-05
303.15	0.5006	0.001225	2.6e-05
303.15	0.5995	0.001305	2.8e-05
303.15	0.7015	0.001407	3e-05
303.15	0.7991	0.001521	3.2e-05
303.15	0.9006	0.001667	3.5e-05
303.15	1	0.001838	3.9e-05
308.15	0	0.000886	1.9e-05
308.15	0.0995	0.000916	2e-05
308.15	0.1995	0.000961	2.1e-05
308.15	0.299	0.001007	2.2e-05
308.15	0.4004	0.001064	2.3e-05
308.15	0.5006	0.001137	2.4e-05
308.15	0.5995	0.001208	2.6e-05
308.15	0.7015	0.0013	2.8e-05
308.15	0.7991	0.001404	3e-05
308.15	0.9006	0.001532	3.3e-05
308.15	1	0.001681	3.6e-05
313.15	0	0.000831	1.8e-05
313.15	0.0995	0.000859	1.8e-05
313.15	0.1995	0.0009	1.9e-05
313.15	0.299	0.000942	2e-05
313.15	0.4004	0.000994	2.1e-05
313.15	0.5006	0.00106	2.3e-05
313.15	0.5995	0.001124	2.4e-05
313.15	0.7015	0.001207	2.6e-05
313.15	0.7991	0.0013	2.8e-05
313.15	0.9006	0.001413	3e-05
313.15	1	0.001546	3.3e-05
318.15	0	0.000782	1.7e-05
318.15	0.0995	0.000798	1.7e-05
318.15	0.1995	0.000837	1.8e-05
318.15	0.299	0.000876	1.9e-05
318.15	0.4004	0.000925	2e-05
318.15	0.5006	0.000986	2.1e-05
318.15	0.5995	0.001045	2.2e-05
318.15	0.7015	0.001121	2.4e-05
318.15	0.7991	0.001206	2.6e-05
318.15	0.9006	0.001309	2.8e-05
318.15	1	0.001428	3e-05
323.15	0	0.000738	1.6e-05
323.15	0.0995	0.000761	1.6e-05
323.15	0.1995	0.000795	1.7e-05
323.15	0.299	0.000831	1.8e-05
323.15	0.4004	0.000875	1.9e-05
323.15	0.5006	0.00093	2e-05
323.15	0.5995	0.000982	2.1e-05
323.15	0.7015	0.00105	2.2e-05
323.15	0.7991	0.001123	2.4e-05
323.15	0.9006	0.001219	2.6e-05
323.15	1	0.001324	2.8e-05
328.15	0	0.000698	1.5e-05
328.15	0.0995	0.00072	1.5e-05
328.15	0.1995	0.000751	1.6e-05
328.15	0.299	0.000784	1.7e-05
328.15	0.4004	0.000825	1.8e-05
328.15	0.5006	0.000875	1.9e-05
328.15	0.5995	0.000922	2e-05
328.15	0.7015	0.000985	2.1e-05
328.15	0.7991	0.001051	2.2e-05
328.15	0.9006	0.001137	2.4e-05
328.15	1	0.001233	2.6e-05
333.15	0	0.000661	1.4e-05
333.15	0.0995	0.000681	1.5e-05
333.15	0.1995	0.000711	1.5e-05
333.15	0.299	0.000741	1.6e-05
333.15	0.4004	0.000779	1.7e-05
333.15	0.5006	0.000825	1.8e-05
333.15	0.5995	0.000869	1.9e-05
333.15	0.7015	0.000926	2e-05
333.15	0.7991	0.000986	2.1e-05
333.15	0.9006	0.001065	2.3e-05
333.15	1	0.001151	2.4e-05
338.15	0	0.000628	1.3e-05
338.15	0.0995	0.000647	1.4e-05
338.15	0.1995	0.000674	1.4e-05
338.15	0.299	0.000703	1.5e-05
338.15	0.4004	0.000737	1.6e-05
338.15	0.5006	0.00078	1.7e-05
338.15	0.5995	0.00082	1.7e-05
338.15	0.7015	0.000873	1.9e-05
338.15	0.7991	0.000928	2e-05
338.15	0.9006	0.000999	2.1e-05
338.15	1	0.001079	2.3e-05
343.15	0	0.000598	1.3e-05
343.15	0.0995	0.000616	1.3e-05
343.15	0.1995	0.000641	1.4e-05
343.15	0.299	0.000668	1.4e-05
343.15	0.4004	0.0007	1.5e-05
343.15	0.5006	0.00074	1.6e-05
343.15	0.5995	0.000776	1.7e-05
343.15	0.7015	0.000825	1.8e-05
343.15	0.7991	0.000875	1.9e-05
343.15	0.9006	0.000942	2e-05
343.15	1	0.001013	2.2e-05

System: (1-methylethyl)cyclohexane + cyclopropylmethanol; phases: Liquid
Fixed: Pressure, kPa = 100
Property: Mass density, kg/m3 (Liquid); method: Vibrating tube method
Temperature, K	Mole fraction of (1-methylethyl)cyclohexane	Mass density, kg/m3	uncertainty
293.15	0	913.02	1.1
293.15	0.0996	891.76	1.08
293.15	0.1991	874.27	1.06
293.15	0.2995	859.61	1.04
293.15	0.3996	847.35	1.02
293.15	0.4993	836.86	1.01
293.15	0.5997	827.69	1
293.15	0.7011	819.71	0.99
293.15	0.7967	812.9	0.98
293.15	0.9026	806.51	0.98
293.15	1	802.14	0.97
298.15	0	908.96	1.09
298.15	0.0996	887.68	1.07
298.15	0.1991	870.17	1.05
298.15	0.2995	855.52	1.03
298.15	0.3996	843.25	1.02
298.15	0.4993	832.77	1.01
298.15	0.5997	823.61	1
298.15	0.7011	815.65	0.99
298.15	0.7967	808.85	0.98
298.15	0.9026	802.52	0.97
298.15	1	798.24	0.97
303.15	0	904.87	1.09
303.15	0.0996	883.58	1.07
303.15	0.1991	866.05	1.05
303.15	0.2995	851.39	1.03
303.15	0.3996	839.12	1.01
303.15	0.4993	828.64	1
303.15	0.5997	819.5	0.99
303.15	0.7011	811.56	0.98
303.15	0.7967	804.8	0.98
303.15	0.9026	798.52	0.97
303.15	1	794.34	0.96
308.15	0	900.74	1.08
308.15	0.0996	879.43	1.06
308.15	0.1991	861.89	1.04
308.15	0.2995	847.23	1.02
308.15	0.3996	834.96	1.01
308.15	0.4993	824.49	1
308.15	0.5997	815.37	0.99
308.15	0.7011	807.46	0.98
308.15	0.7967	800.75	0.97
308.15	0.9026	794.49	0.96
308.15	1	790.43	0.96
313.15	0	896.59	1.08
313.15	0.0996	875.25	1.06
313.15	0.1991	857.7	1.04
313.15	0.2995	843.04	1.02
313.15	0.3996	830.77	1
313.15	0.4993	820.31	0.99
313.15	0.5997	811.21	0.98
313.15	0.7011	803.33	0.97
313.15	0.7967	796.66	0.97
313.15	0.9026	790.46	0.96
313.15	1	786.51	0.95
318.15	0	892.38	1.07
318.15	0.0996	871.02	1.05
318.15	0.1991	853.46	1.03
318.15	0.2995	838.79	1.01
318.15	0.3996	826.54	1
318.15	0.4993	816.09	0.99
318.15	0.5997	807.02	0.98
318.15	0.7011	799.17	0.97
318.15	0.7967	792.54	0.96
318.15	0.9026	786.41	0.95
318.15	1	782.59	0.95
323.15	0	888.17	1.07
323.15	0.0996	866.78	1.05
323.15	0.1991	849.2	1.03
323.15	0.2995	834.53	1.01
323.15	0.3996	822.28	1
323.15	0.4993	811.84	0.98
323.15	0.5997	802.8	0.97
323.15	0.7011	794.99	0.96
323.15	0.7967	788.4	0.96
323.15	0.9026	782.33	0.95
323.15	1	778.66	0.95
328.15	0	883.86	1.06
328.15	0.0996	862.47	1.04
328.15	0.1991	844.88	1.02
328.15	0.2995	830.2	1
328.15	0.3996	817.96	0.99
328.15	0.4993	807.55	0.98
328.15	0.5997	798.54	0.97
328.15	0.7011	790.77	0.96
328.15	0.7967	784.24	0.95
328.15	0.9026	778.25	0.95
328.15	1	774.72	0.94
333.15	0	879.52	1.06
333.15	0.0996	858.1	1.04
333.15	0.1991	840.5	1.02
333.15	0.2995	825.83	1
333.15	0.3996	813.6	0.99
333.15	0.4993	803.22	0.97
333.15	0.5997	794.24	0.96
333.15	0.7011	786.52	0.95
333.15	0.7967	780.04	0.95
333.15	0.9026	774.14	0.94
333.15	1	770.77	0.94
338.15	0	875.1	1.05
338.15	0.0996	853.67	1.03
338.15	0.1991	836.06	1.01
338.15	0.2995	821.41	0.99
338.15	0.3996	809.2	0.98
338.15	0.4993	798.85	0.97
338.15	0.5997	789.91	0.96
338.15	0.7011	782.24	0.95
338.15	0.7967	775.82	0.94
338.15	0.9026	770.01	0.94
338.15	1	766.81	0.93
343.15	0	870.62	1.05
343.15	0.0996	849.17	1.03
343.15	0.1991	831.57	1.01
343.15	0.2995	816.93	0.99
343.15	0.3996	804.75	0.97
343.15	0.4993	794.44	0.96
343.15	0.5997	785.54	0.95
343.15	0.7011	777.93	0.94
343.15	0.7967	771.58	0.94
343.15	0.9026	765.88	0.93
343.15	1	762.84	0.93

System: (1-methylethyl)cyclohexane + cyclopropylmethanol; phases: Liquid
Fixed: Pressure, kPa = 100
Property: Viscosity, Pa*s (Liquid); method: Falling or rolling sphere viscometry
Temperature, K	Mole fraction of (1-methylethyl)cyclohexane	Viscosity, Pa*s	uncertainty
293.15	0	0.003988	8.5e-05
293.15	0.1003	0.003277	7e-05
293.15	0.1991	0.002592	5.5e-05
293.15	0.2995	0.00218	4.7e-05
293.15	0.3996	0.001862	4e-05
293.15	0.4993	0.001621	3.5e-05
293.15	0.619	0.001406	3e-05
293.15	0.7011	0.001288	2.8e-05
293.15	0.7967	0.001192	2.6e-05
293.15	0.9026	0.001115	2.4e-05
293.15	1	0.001093	2.3e-05
298.15	0	0.003455	7.4e-05
298.15	0.1003	0.002876	6.1e-05
298.15	0.1991	0.002286	4.9e-05
298.15	0.2995	0.001937	4.1e-05
298.15	0.3996	0.001668	3.6e-05
298.15	0.4993	0.001463	3.1e-05
298.15	0.619	0.001281	2.7e-05
298.15	0.7011	0.00118	2.5e-05
298.15	0.7967	0.001099	2.4e-05
298.15	0.9026	0.001033	2.2e-05
298.15	1	0.001016	2.2e-05
303.15	0	0.003008	6.4e-05
303.15	0.1003	0.002523	5.4e-05
303.15	0.1991	0.002028	4.3e-05
303.15	0.2995	0.001729	3.7e-05
303.15	0.3996	0.001499	3.2e-05
303.15	0.4993	0.001325	2.8e-05
303.15	0.619	0.00117	2.5e-05
303.15	0.7011	0.001085	2.3e-05
303.15	0.7967	0.001015	2.2e-05
303.15	0.9026	0.000958	2.1e-05
303.15	1	0.000947	2e-05
308.15	0	0.002635	5.6e-05
308.15	0.1003	0.002227	4.8e-05
308.15	0.1991	0.001807	3.9e-05
308.15	0.2995	0.001551	3.3e-05
308.15	0.3996	0.001356	2.9e-05
308.15	0.4993	0.001207	2.6e-05
308.15	0.619	0.001075	2.3e-05
308.15	0.7011	0.001001	2.1e-05
308.15	0.7967	0.000941	2e-05
308.15	0.9026	0.000893	1.9e-05
308.15	1	0.000886	1.9e-05
313.15	0	0.002321	4.9e-05
313.15	0.1003	0.001912	4.1e-05
313.15	0.1991	0.001617	3.5e-05
313.15	0.2995	0.001399	3e-05
313.15	0.3996	0.001231	2.6e-05
313.15	0.4993	0.001103	2.4e-05
313.15	0.619	0.00099	2.1e-05
313.15	0.7011	0.000927	2e-05
313.15	0.7967	0.000876	1.9e-05
313.15	0.9026	0.000834	1.8e-05
313.15	1	0.000831	1.8e-05
318.15	0	0.002054	4.4e-05
318.15	0.1003	0.001706	3.6e-05
318.15	0.1991	0.001454	3.1e-05
318.15	0.2995	0.001266	2.7e-05
318.15	0.3996	0.001121	2.4e-05
318.15	0.4993	0.001012	2.2e-05
318.15	0.619	0.000916	2e-05
318.15	0.7011	0.000861	1.8e-05
318.15	0.7967	0.000817	1.8e-05
318.15	0.9026	0.000782	1.7e-05
318.15	1	0.000782	1.7e-05
323.15	0	0.001825	3.9e-05
323.15	0.1003	0.001525	3.3e-05
323.15	0.1991	0.001312	2.8e-05
323.15	0.2995	0.001151	2.5e-05
323.15	0.3996	0.001027	2.2e-05
323.15	0.4993	0.000932	2e-05
323.15	0.619	0.000849	1.8e-05
323.15	0.7011	0.000802	1.7e-05
323.15	0.7967	0.000764	1.6e-05
323.15	0.9026	0.000735	1.6e-05
323.15	1	0.000738	1.6e-05
328.15	0	0.001629	3.5e-05
328.15	0.1003	0.001372	2.9e-05
328.15	0.1991	0.001189	2.5e-05
328.15	0.2995	0.00105	2.2e-05
328.15	0.3996	0.000943	2e-05
328.15	0.4993	0.000861	1.8e-05
328.15	0.619	0.000791	1.7e-05
328.15	0.7011	0.00075	1.6e-05
328.15	0.7967	0.000717	1.5e-05
328.15	0.9026	0.000692	1.5e-05
328.15	1	0.000698	1.5e-05
333.15	0	0.00146	3.1e-05
333.15	0.1003	0.001239	2.6e-05
333.15	0.1991	0.001082	2.3e-05
333.15	0.2995	0.000961	2.1e-05
333.15	0.3996	0.000869	1.9e-05
333.15	0.4993	0.000799	1.7e-05
333.15	0.619	0.000738	1.6e-05
333.15	0.7011	0.000702	1.5e-05
333.15	0.7967	0.000674	1.4e-05
333.15	0.9026	0.000654	1.4e-05
333.15	1	0.000661	1.4e-05
338.15	0	0.001317	2.8e-05
338.15	0.1003	0.001124	2.4e-05
338.15	0.1991	0.000988	2.1e-05
338.15	0.2995	0.000883	1.9e-05
338.15	0.3996	0.000804	1.7e-05
338.15	0.4993	0.000743	1.6e-05
338.15	0.619	0.00069	1.5e-05
338.15	0.7011	0.00066	1.4e-05
338.15	0.7967	0.000636	1.4e-05
338.15	0.9026	0.000619	1.3e-05
338.15	1	0.000628	1.3e-05
343.15	0	0.00119	2.5e-05
343.15	0.1003	0.001023	2.2e-05
343.15	0.1991	0.000905	1.9e-05
343.15	0.2995	0.000815	1.7e-05
343.15	0.3996	0.000746	1.6e-05
343.15	0.4993	0.000693	1.5e-05
343.15	0.619	0.000648	1.4e-05
343.15	0.7011	0.000622	1.3e-05
343.15	0.7967	0.000601	1.3e-05
343.15	0.9026	0.000587	1.3e-05
343.15	1	0.000598	1.3e-05

System: 1,2,3,4-tetrahydronaphthalene + (1-methylethyl)cyclohexane + cyclopropylmethanol; phases: Liquid
Fixed: Pressure, kPa = 100
Property: Mass density, kg/m3 (Liquid); method: Vibrating tube method
Temperature, K	Mole fraction of 1,2,3,4-tetrahydronaphthalene	Mole fraction of (1-methylethyl)cyclohexane	Mass density, kg/m3	uncertainty
293.15	0.0992	0.099	901.2	1.09
293.15	0.1	0.2004	883.86	1.07
293.15	0.1002	0.3008	869.4	1.05
293.15	0.1015	0.4002	857.43	1.04
293.15	0.1021	0.5006	846.75	1.02
293.15	0.0999	0.599	836.41	1.01
293.15	0.099	0.6991	829.36	1
293.15	0.0983	0.7822	823.47	1
293.15	0.2005	0.1024	909.06	1.1
293.15	0.1997	0.1988	892.97	1.08
293.15	0.1999	0.297	878.91	1.06
293.15	0.1982	0.3961	866.5	1.05
293.15	0.1927	0.4864	856.4	1.03
293.15	0.1996	0.6043	846.05	1.02
293.15	0.2	0.7001	838.42	1.01
293.15	0.2999	0.0989	916.98	1.11
293.15	0.3008	0.2014	900.77	1.09
293.15	0.2899	0.293	886.7	1.07
293.15	0.2967	0.3986	874.4	1.06
293.15	0.3007	0.4995	864.16	1.04
293.15	0.2978	0.5967	855.02	1.03
293.15	0.389	0.0981	923.13	1.11
293.15	0.3996	0.1988	907.8	1.09
293.15	0.3954	0.3046	893.13	1.08
293.15	0.3997	0.3991	882.23	1.06
293.15	0.3972	0.4936	872.28	1.05
293.15	0.5008	0.0989	929.71	1.12
293.15	0.493	0.1948	914.48	1.1
293.15	0.5016	0.2981	901.22	1.09
293.15	0.499	0.399	889.42	1.07
293.15	0.5994	0.1012	934.8	1.13
293.15	0.599	0.2	920.17	1.11
293.15	0.5962	0.2994	907.21	1.09
293.15	0.6959	0.0998	939.98	1.13
293.15	0.6963	0.1973	926.07	1.12
293.15	0.8023	0.0985	945.31	1.14
298.15	0.0992	0.099	897.08	1.08
298.15	0.1	0.2004	879.75	1.06
298.15	0.1002	0.3008	865.29	1.05
298.15	0.1015	0.4002	853.32	1.03
298.15	0.1021	0.5006	842.67	1.02
298.15	0.0999	0.599	832.34	1.01
298.15	0.099	0.6991	825.33	1
298.15	0.0983	0.7822	819.47	0.99
298.15	0.2005	0.1024	904.92	1.09
298.15	0.1997	0.1988	888.84	1.07
298.15	0.1999	0.297	874.79	1.06
298.15	0.1982	0.3961	862.4	1.04
298.15	0.1927	0.4864	852.32	1.03
298.15	0.1996	0.6043	842	1.02
298.15	0.2	0.7001	834.42	1.01
298.15	0.2999	0.0989	912.84	1.1
298.15	0.3008	0.2014	896.63	1.08
298.15	0.2899	0.293	882.59	1.07
298.15	0.2967	0.3986	870.32	1.05
298.15	0.3007	0.4995	860.11	1.04
298.15	0.2978	0.5967	851.01	1.03
298.15	0.389	0.0981	918.97	1.11
298.15	0.3996	0.1988	903.68	1.09
298.15	0.3954	0.3046	889.04	1.07
298.15	0.3997	0.3991	878.17	1.06
298.15	0.3972	0.4936	868.25	1.05
298.15	0.5008	0.0989	925.55	1.11
298.15	0.493	0.1948	910.36	1.1
298.15	0.5016	0.2981	897.15	1.08
298.15	0.499	0.399	885.39	1.07
298.15	0.5994	0.1012	930.68	1.12
298.15	0.599	0.2	916.11	1.1
298.15	0.5962	0.2994	903.17	1.09
298.15	0.6959	0.0998	935.89	1.13
298.15	0.6963	0.1973	922.03	1.11
298.15	0.8023	0.0985	941.27	1.13
303.15	0.0992	0.099	892.93	1.08
303.15	0.1	0.2004	875.6	1.06
303.15	0.1002	0.3008	861.14	1.04
303.15	0.1015	0.4002	849.19	1.03
303.15	0.1021	0.5006	838.55	1.01
303.15	0.0999	0.599	828.26	1
303.15	0.099	0.6991	821.27	0.99
303.15	0.0983	0.7822	815.44	0.99
303.15	0.2005	0.1024	900.75	1.09
303.15	0.1997	0.1988	884.68	1.07
303.15	0.1999	0.297	870.64	1.05
303.15	0.1982	0.3961	858.28	1.04
303.15	0.1927	0.4864	848.21	1.03
303.15	0.1996	0.6043	837.93	1.01
303.15	0.2	0.7001	830.4	1
303.15	0.2999	0.0989	908.66	1.1
303.15	0.3008	0.2014	892.47	1.08
303.15	0.2899	0.293	878.45	1.06
303.15	0.2967	0.3986	866.21	1.05
303.15	0.3007	0.4995	856.04	1.03
303.15	0.2978	0.5967	846.98	1.02
303.15	0.389	0.0981	914.79	1.1
303.15	0.3996	0.1988	899.53	1.08
303.15	0.3954	0.3046	884.92	1.07
303.15	0.3997	0.3991	874.09	1.05
303.15	0.3972	0.4936	864.21	1.04
303.15	0.5008	0.0989	921.39	1.11
303.15	0.493	0.1948	906.23	1.09
303.15	0.5016	0.2981	893.06	1.08
303.15	0.499	0.399	881.35	1.06
303.15	0.5994	0.1012	926.54	1.12
303.15	0.599	0.2	911.98	1.1
303.15	0.5962	0.2994	899.13	1.08
303.15	0.6959	0.0998	931.79	1.12
303.15	0.6963	0.1973	917.97	1.11
303.15	0.8023	0.0985	937.21	1.13
308.15	0.0992	0.099	888.75	1.07
308.15	0.1	0.2004	871.42	1.05
308.15	0.1002	0.3008	856.96	1.04
308.15	0.1015	0.4002	845.02	1.02
308.15	0.1021	0.5006	834.41	1.01
308.15	0.0999	0.599	824.15	1
308.15	0.099	0.6991	817.19	0.99
308.15	0.0983	0.7822	811.4	0.98
308.15	0.2005	0.1024	896.55	1.08
308.15	0.1997	0.1988	880.48	1.06
308.15	0.1999	0.297	866.47	1.05
308.15	0.1982	0.3961	854.12	1.03
308.15	0.1927	0.4864	844.09	1.02
308.15	0.1996	0.6043	833.85	1.01
308.15	0.2	0.7001	826.37	1
308.15	0.2999	0.0989	904.45	1.09
308.15	0.3008	0.2014	888.28	1.07
308.15	0.2899	0.293	874.28	1.06
308.15	0.2967	0.3986	862.08	1.04
308.15	0.3007	0.4995	851.95	1.03
308.15	0.2978	0.5967	842.94	1.02
308.15	0.389	0.0981	910.58	1.1
308.15	0.3996	0.1988	895.36	1.08
308.15	0.3954	0.3046	880.79	1.06
308.15	0.3997	0.3991	869.99	1.05
308.15	0.3972	0.4936	860.16	1.04
308.15	0.5008	0.0989	917.2	1.11
308.15	0.493	0.1948	902.07	1.09
308.15	0.5016	0.2981	888.96	1.07
308.15	0.499	0.399	877.3	1.06
308.15	0.5994	0.1012	922.38	1.11
308.15	0.599	0.2	907.87	1.09
308.15	0.5962	0.2994	895.07	1.08
308.15	0.6959	0.0998	927.66	1.12
308.15	0.6963	0.1973	913.9	1.1
308.15	0.8023	0.0985	933.14	1.12
313.15	0.0992	0.099	884.54	1.07
313.15	0.1	0.2004	867.21	1.05
313.15	0.1002	0.3008	852.76	1.03
313.15	0.1015	0.4002	840.84	1.02
313.15	0.1021	0.5006	830.25	1
313.15	0.0999	0.599	820.03	0.99
313.15	0.099	0.6991	813.1	0.99
313.15	0.0983	0.7822	807.35	0.98
313.15	0.2005	0.1024	892.32	1.08
313.15	0.1997	0.1988	876.27	1.06
313.15	0.1999	0.297	862.27	1.04
313.15	0.1982	0.3961	849.95	1.03
313.15	0.1927	0.4864	839.94	1.02
313.15	0.1996	0.6043	829.76	1
313.15	0.2	0.7001	822.32	1
313.15	0.2999	0.0989	900.22	1.09
313.15	0.3008	0.2014	884.08	1.07
313.15	0.2899	0.293	870.1	1.05
313.15	0.2967	0.3986	857.94	1.04
313.15	0.3007	0.4995	847.85	1.02
313.15	0.2978	0.5967	838.89	1.01
313.15	0.389	0.0981	906.36	1.09
313.15	0.3996	0.1988	891.17	1.07
313.15	0.3954	0.3046	876.64	1.06
313.15	0.3997	0.3991	865.89	1.05
313.15	0.3972	0.4936	856.1	1.03
313.15	0.5008	0.0989	913	1.1
313.15	0.493	0.1948	897.91	1.08
313.15	0.5016	0.2981	884.84	1.07
313.15	0.499	0.399	873.25	1.05
313.15	0.5994	0.1012	918.22	1.11
313.15	0.599	0.2	903.75	1.09
313.15	0.5962	0.2994	891	1.07
313.15	0.6959	0.0998	923.53	1.11
313.15	0.6963	0.1973	909.84	1.1
313.15	0.8023	0.0985	929.08	1.12
318.15	0.0992	0.099	880.27	1.06
318.15	0.1	0.2004	862.95	1.04
318.15	0.1002	0.3008	848.51	1.03
318.15	0.1015	0.4002	836.61	1.01
318.15	0.1021	0.5006	826.05	1
318.15	0.0999	0.599	815.87	0.99
318.15	0.099	0.6991	808.98	0.98
318.15	0.0983	0.7822	803.27	0.97
318.15	0.2005	0.1024	888.05	1.07
318.15	0.1997	0.1988	872.01	1.05
318.15	0.1999	0.297	858.03	1.04
318.15	0.1982	0.3961	845.74	1.02
318.15	0.1927	0.4864	835.77	1.01
318.15	0.1996	0.6043	825.63	1
318.15	0.2	0.7001	818.25	0.99
318.15	0.2999	0.0989	895.94	1.08
318.15	0.3008	0.2014	879.83	1.06
318.15	0.2899	0.293	865.88	1.05
318.15	0.2967	0.3986	853.76	1.03
318.15	0.3007	0.4995	843.72	1.02
318.15	0.2978	0.5967	834.82	1.01
318.15	0.389	0.0981	902.09	1.09
318.15	0.3996	0.1988	886.95	1.07
318.15	0.3954	0.3046	872.45	1.05
318.15	0.3997	0.3991	861.75	1.04
318.15	0.3972	0.4936	852.03	1.03
318.15	0.5008	0.0989	908.77	1.1
318.15	0.493	0.1948	893.71	1.08
318.15	0.5016	0.2981	880.71	1.06
318.15	0.499	0.399	869.17	1.05
318.15	0.5994	0.1012	914.02	1.1
318.15	0.599	0.2	899.6	1.08
318.15	0.5962	0.2994	886.92	1.07
318.15	0.6959	0.0998	919.38	1.11
318.15	0.6963	0.1973	905.75	1.09
318.15	0.8023	0.0985	925	1.11
323.15	0.0992	0.099	876	1.06
323.15	0.1	0.2004	858.68	1.04
323.15	0.1002	0.3008	844.24	1.02
323.15	0.1015	0.4002	832.36	1.01
323.15	0.1021	0.5006	821.83	1
323.15	0.0999	0.599	811.7	0.98
323.15	0.099	0.6991	804.84	0.98
323.15	0.0983	0.7822	799.18	0.97
323.15	0.2005	0.1024	883.76	1.07
323.15	0.1997	0.1988	867.73	1.05
323.15	0.1999	0.297	853.78	1.03
323.15	0.1982	0.3961	841.52	1.02
323.15	0.1927	0.4864	831.57	1.01
323.15	0.1996	0.6043	821.49	0.99
323.15	0.2	0.7001	814.18	0.99
323.15	0.2999	0.0989	891.66	1.08
323.15	0.3008	0.2014	875.57	1.06
323.15	0.2899	0.293	861.65	1.04
323.15	0.2967	0.3986	849.57	1.03
323.15	0.3007	0.4995	839.58	1.01
323.15	0.2978	0.5967	830.74	1
323.15	0.389	0.0981	897.82	1.08
323.15	0.3996	0.1988	882.72	1.06
323.15	0.3954	0.3046	868.26	1.05
323.15	0.3997	0.3991	857.61	1.04
323.15	0.3972	0.4936	847.94	1.02
323.15	0.5008	0.0989	904.53	1.09
323.15	0.493	0.1948	889.51	1.07
323.15	0.5016	0.2981	876.56	1.06
323.15	0.499	0.399	865.09	1.04
323.15	0.5994	0.1012	909.83	1.1
323.15	0.599	0.2	895.46	1.08
323.15	0.5962	0.2994	882.84	1.06
323.15	0.6959	0.0998	915.23	1.1
323.15	0.6963	0.1973	901.67	1.09
323.15	0.8023	0.0985	920.93	1.11
328.15	0.0992	0.099	871.65	1.05
328.15	0.1	0.2004	854.34	1.03
328.15	0.1002	0.3008	839.92	1.02
328.15	0.1015	0.4002	828.07	1
328.15	0.1021	0.5006	817.57	0.99
328.15	0.0999	0.599	807.49	0.98
328.15	0.099	0.6991	800.68	0.97
328.15	0.0983	0.7822	795.06	0.96
328.15	0.2005	0.1024	879.41	1.06
328.15	0.1997	0.1988	863.4	1.04
328.15	0.1999	0.297	849.47	1.03
328.15	0.1982	0.3961	837.25	1.01
328.15	0.1927	0.4864	827.35	1
328.15	0.1996	0.6043	817.33	0.99
328.15	0.2	0.7001	810.09	0.98
328.15	0.2999	0.0989	887.32	1.07
328.15	0.3008	0.2014	871.26	1.05
328.15	0.2899	0.293	857.37	1.04
328.15	0.2967	0.3986	845.35	1.02
328.15	0.3007	0.4995	835.41	1.01
328.15	0.2978	0.5967	826.64	1
328.15	0.389	0.0981	893.51	1.08
328.15	0.3996	0.1988	878.45	1.06
328.15	0.3954	0.3046	864.04	1.04
328.15	0.3997	0.3991	853.44	1.03
328.15	0.3972	0.4936	843.84	1.02
328.15	0.5008	0.0989	900.25	1.09
328.15	0.493	0.1948	885.28	1.07
328.15	0.5016	0.2981	872.39	1.05
328.15	0.499	0.399	860.99	1.04
328.15	0.5994	0.1012	905.59	1.09
328.15	0.599	0.2	891.28	1.07
328.15	0.5962	0.2994	878.74	1.06
328.15	0.6959	0.0998	911.04	1.1
328.15	0.6963	0.1973	897.57	1.08
328.15	0.8023	0.0985	916.84	1.1
333.15	0.0992	0.099	867.26	1.05
333.15	0.1	0.2004	849.96	1.03
333.15	0.1002	0.3008	835.56	1.01
333.15	0.1015	0.4002	823.74	1
333.15	0.1021	0.5006	813.28	0.99
333.15	0.0999	0.599	803.26	0.97
333.15	0.099	0.6991	796.48	0.97
333.15	0.0983	0.7822	790.93	0.96
333.15	0.2005	0.1024	875.02	1.06
333.15	0.1997	0.1988	859.03	1.04
333.15	0.1999	0.297	845.14	1.02
333.15	0.1982	0.3961	832.96	1.01
333.15	0.1927	0.4864	823.09	1
333.15	0.1996	0.6043	813.14	0.98
333.15	0.2	0.7001	805.97	0.98
333.15	0.2999	0.0989	882.95	1.07
333.15	0.3008	0.2014	866.92	1.05
333.15	0.2899	0.293	853.07	1.03
333.15	0.2967	0.3986	841.1	1.02
333.15	0.3007	0.4995	831.22	1.01
333.15	0.2978	0.5967	822.52	1
333.15	0.389	0.0981	889.16	1.07
333.15	0.3996	0.1988	874.15	1.05
333.15	0.3954	0.3046	859.8	1.04
333.15	0.3997	0.3991	849.25	1.03
333.15	0.3972	0.4936	839.73	1.01
333.15	0.5008	0.0989	895.95	1.08
333.15	0.493	0.1948	881.03	1.06
333.15	0.5016	0.2981	868.2	1.05
333.15	0.499	0.399	856.89	1.03
333.15	0.5994	0.1012	901.35	1.09
333.15	0.599	0.2	887.1	1.07
333.15	0.5962	0.2994	874.64	1.05
333.15	0.6959	0.0998	906.85	1.09
333.15	0.6963	0.1973	893.46	1.08
333.15	0.8023	0.0985	912.75	1.1
338.15	0.0992	0.099	862.81	1.04
338.15	0.1	0.2004	845.53	1.02
338.15	0.1002	0.3008	831.15	1.01
338.15	0.1015	0.4002	819.37	0.99
338.15	0.1021	0.5006	808.95	0.98
338.15	0.0999	0.599	798.99	0.97
338.15	0.099	0.6991	792.27	0.96
338.15	0.0983	0.7822	786.78	0.96
338.15	0.2005	0.1024	870.58	1.05
338.15	0.1997	0.1988	854.62	1.03
338.15	0.1999	0.297	840.76	1.02
338.15	0.1982	0.3961	828.62	1
338.15	0.1927	0.4864	818.8	0.99
338.15	0.1996	0.6043	808.93	0.98
338.15	0.2	0.7001	801.85	0.97
338.15	0.2999	0.0989	878.53	1.06
338.15	0.3008	0.2014	862.54	1.04
338.15	0.2899	0.293	848.73	1.03
338.15	0.2967	0.3986	836.82	1.01
338.15	0.3007	0.4995	827	1
338.15	0.2978	0.5967	818.39	0.99
338.15	0.389	0.0981	884.77	1.07
338.15	0.3996	0.1988	869.81	1.05
338.15	0.3954	0.3046	855.52	1.03
338.15	0.3997	0.3991	845.04	1.02
338.15	0.3972	0.4936	835.59	1.01
338.15	0.5008	0.0989	891.62	1.08
338.15	0.493	0.1948	876.74	1.06
338.15	0.5016	0.2981	863.99	1.04
338.15	0.499	0.399	852.77	1.03
338.15	0.5994	0.1012	897.07	1.08
338.15	0.599	0.2	882.88	1.06
338.15	0.5962	0.2994	870.52	1.05
338.15	0.6959	0.0998	902.64	1.09
338.15	0.6963	0.1973	889.34	1.07
338.15	0.8023	0.0985	908.65	1.09
343.15	0.0992	0.099	858.31	1.04
343.15	0.1	0.2004	841.04	1.02
343.15	0.1002	0.3008	826.7	1
343.15	0.1015	0.4002	814.97	0.99
343.15	0.1021	0.5006	804.6	0.98
343.15	0.0999	0.599	794.7	0.96
343.15	0.099	0.6991	788.03	0.96
343.15	0.0983	0.7822	782.63	0.95
343.15	0.2005	0.1024	866.09	1.05
343.15	0.1997	0.1988	850.17	1.03
343.15	0.1999	0.297	836.35	1.01
343.15	0.1982	0.3961	824.26	1
343.15	0.1927	0.4864	814.48	0.99
343.15	0.1996	0.6043	804.7	0.98
343.15	0.2	0.7001	797.71	0.97
343.15	0.2999	0.0989	874.07	1.06
343.15	0.3008	0.2014	858.13	1.04
343.15	0.2899	0.293	844.36	1.02
343.15	0.2967	0.3986	832.51	1.01
343.15	0.3007	0.4995	822.77	1
343.15	0.2978	0.5967	814.26	0.99
343.15	0.389	0.0981	880.35	1.06
343.15	0.3996	0.1988	865.45	1.04
343.15	0.3954	0.3046	851.22	1.03
343.15	0.3997	0.3991	840.81	1.02
343.15	0.3972	0.4936	831.46	1.01
343.15	0.5008	0.0989	887.26	1.07
343.15	0.493	0.1948	872.44	1.05
343.15	0.5016	0.2981	859.77	1.04
343.15	0.499	0.399	848.65	1.02
343.15	0.5994	0.1012	892.78	1.08
343.15	0.599	0.2	878.66	1.06
343.15	0.5962	0.2994	866.39	1.05
343.15	0.6959	0.0998	898.42	1.08
343.15	0.6963	0.1973	885.22	1.07
343.15	0.8023	0.0985	904.55	1.09

System: 1,2,3,4-tetrahydronaphthalene + (1-methylethyl)cyclohexane + cyclopropylmethanol; phases: Liquid
Fixed: Pressure, kPa = 100
Property: Viscosity, Pa*s (Liquid); method: Falling or rolling sphere viscometry
Temperature, K	Mole fraction of 1,2,3,4-tetrahydronaphthalene	Mole fraction of (1-methylethyl)cyclohexane	Viscosity, Pa*s	uncertainty
293.15	0.0983	0.7822	0.001182	2.5e-05
298.15	0.0983	0.7822	0.001093	2.3e-05
303.15	0.0983	0.7822	0.001013	2.2e-05
308.15	0.0983	0.7822	0.000943	2e-05
313.15	0.0983	0.7822	0.00088	1.9e-05
318.15	0.0983	0.7822	0.000823	1.8e-05
323.15	0.0983	0.7822	0.000772	1.7e-05
328.15	0.0983	0.7822	0.000726	1.6e-05
333.15	0.0983	0.7822	0.000685	1.5e-05
338.15	0.0983	0.7822	0.000647	1.4e-05
343.15	0.0983	0.7822	0.000613	1.3e-05
298.15	0.099	0.6991	0.001147	2.5e-05
303.15	0.099	0.6991	0.001058	2.3e-05
308.15	0.099	0.6991	0.000981	2.1e-05
313.15	0.099	0.6991	0.000912	2e-05
318.15	0.099	0.6991	0.000851	1.8e-05
323.15	0.099	0.6991	0.000796	1.7e-05
293.15	0.099	0.6991	0.001247	2.7e-05
328.15	0.099	0.6991	0.000747	1.6e-05
333.15	0.099	0.6991	0.000702	1.5e-05
338.15	0.099	0.6991	0.000662	1.4e-05
343.15	0.099	0.6991	0.000626	1.3e-05
298.15	0.0992	0.099	0.002476	5.3e-05
303.15	0.0992	0.099	0.002185	4.7e-05
308.15	0.0992	0.099	0.001944	4.1e-05
313.15	0.0992	0.099	0.001736	3.7e-05
318.15	0.0992	0.099	0.001555	3.3e-05
323.15	0.0992	0.099	0.0014	3e-05
328.15	0.0992	0.099	0.001266	2.7e-05
293.15	0.0992	0.099	0.00282	6e-05
333.15	0.0992	0.099	0.00115	2.5e-05
338.15	0.0992	0.099	0.001049	2.2e-05
343.15	0.0992	0.099	0.00096	2e-05
298.15	0.0999	0.599	0.001227	2.6e-05
303.15	0.0999	0.599	0.001127	2.4e-05
308.15	0.0999	0.599	0.001039	2.2e-05
313.15	0.0999	0.599	0.000963	2.1e-05
318.15	0.0999	0.599	0.000894	1.9e-05
293.15	0.0999	0.599	0.001338	2.9e-05
323.15	0.0999	0.599	0.000833	1.8e-05
328.15	0.0999	0.599	0.000778	1.7e-05
333.15	0.0999	0.599	0.000729	1.6e-05
338.15	0.0999	0.599	0.000685	1.5e-05
343.15	0.0999	0.599	0.000646	1.4e-05
303.15	0.1	0.2004	0.001838	3.9e-05
308.15	0.1	0.2004	0.001649	3.5e-05
313.15	0.1	0.2004	0.001486	3.2e-05
318.15	0.1	0.2004	0.001341	2.9e-05
298.15	0.1	0.2004	0.002062	4.4e-05
323.15	0.1	0.2004	0.001217	2.6e-05
328.15	0.1	0.2004	0.001109	2.4e-05
333.15	0.1	0.2004	0.001014	2.2e-05
338.15	0.1	0.2004	0.000932	2e-05
343.15	0.1	0.2004	0.000859	1.8e-05
293.15	0.1	0.2004	0.00236	5e-05
303.15	0.1002	0.3008	0.001585	3.4e-05
293.15	0.1002	0.3008	0.001975	4.2e-05
308.15	0.1002	0.3008	0.00143	3.1e-05
313.15	0.1002	0.3008	0.001297	2.8e-05
318.15	0.1002	0.3008	0.001181	2.5e-05
298.15	0.1002	0.3008	0.001765	3.8e-05
323.15	0.1002	0.3008	0.00108	2.3e-05
328.15	0.1002	0.3008	0.000991	2.1e-05
333.15	0.1002	0.3008	0.000912	1.9e-05
338.15	0.1002	0.3008	0.000843	1.8e-05
343.15	0.1002	0.3008	0.000782	1.7e-05
303.15	0.1015	0.4002	0.001395	3e-05
308.15	0.1015	0.4002	0.00127	2.7e-05
293.15	0.1015	0.4002	0.001713	3.7e-05
313.15	0.1015	0.4002	0.00116	2.5e-05
318.15	0.1015	0.4002	0.001064	2.3e-05
323.15	0.1015	0.4002	0.00098	2.1e-05
298.15	0.1015	0.4002	0.001544	3.3e-05
328.15	0.1015	0.4002	0.000905	1.9e-05
333.15	0.1015	0.4002	0.000839	1.8e-05
338.15	0.1015	0.4002	0.00078	1.7e-05
343.15	0.1015	0.4002	0.000727	1.6e-05
308.15	0.1021	0.5006	0.001143	2.4e-05
313.15	0.1021	0.5006	0.001038	2.2e-05
293.15	0.1021	0.5006	0.001508	3.2e-05
318.15	0.1021	0.5006	0.000943	2e-05
323.15	0.1021	0.5006	0.000868	1.9e-05
328.15	0.1021	0.5006	0.000807	1.7e-05
298.15	0.1021	0.5006	0.001381	3e-05
333.15	0.1021	0.5006	0.000754	1.6e-05
338.15	0.1021	0.5006	0.00071	1.5e-05
303.15	0.1021	0.5006	0.001256	2.7e-05
343.15	0.1021	0.5006	0.000675	1.4e-05
308.15	0.1927	0.4864	0.001124	2.4e-05
293.15	0.1927	0.4864	0.001464	3.1e-05
313.15	0.1927	0.4864	0.001038	2.2e-05
298.15	0.1927	0.4864	0.001336	2.9e-05
318.15	0.1927	0.4864	0.000961	2.1e-05
323.15	0.1927	0.4864	0.000893	1.9e-05
328.15	0.1927	0.4864	0.000832	1.8e-05
303.15	0.1927	0.4864	0.001223	2.6e-05
333.15	0.1927	0.4864	0.000778	1.7e-05
338.15	0.1927	0.4864	0.000729	1.6e-05
343.15	0.1927	0.4864	0.000686	1.5e-05
308.15	0.1982	0.3961	0.001219	2.6e-05
313.15	0.1982	0.3961	0.001119	2.4e-05
298.15	0.1982	0.3961	0.001467	3.1e-05
318.15	0.1982	0.3961	0.001031	2.2e-05
323.15	0.1982	0.3961	0.000953	2e-05
303.15	0.1982	0.3961	0.001334	2.8e-05
328.15	0.1982	0.3961	0.000884	1.9e-05
333.15	0.1982	0.3961	0.000823	1.8e-05
293.15	0.1982	0.3961	0.001619	3.5e-05
338.15	0.1982	0.3961	0.000768	1.6e-05
343.15	0.1982	0.3961	0.00072	1.5e-05
293.15	0.1996	0.6043	0.001313	2.8e-05
308.15	0.1996	0.6043	0.001028	2.2e-05
313.15	0.1996	0.6043	0.000955	2e-05
318.15	0.1996	0.6043	0.000889	1.9e-05
298.15	0.1996	0.6043	0.001207	2.6e-05
323.15	0.1996	0.6043	0.000831	1.8e-05
328.15	0.1996	0.6043	0.000779	1.7e-05
333.15	0.1996	0.6043	0.000732	1.6e-05
303.15	0.1996	0.6043	0.001112	2.4e-05
338.15	0.1996	0.6043	0.00069	1.5e-05
343.15	0.1996	0.6043	0.000651	1.4e-05
313.15	0.1997	0.1988	0.001353	2.9e-05
318.15	0.1997	0.1988	0.00123	2.6e-05
303.15	0.1997	0.1988	0.001729	3.7e-05
323.15	0.1997	0.1988	0.001119	2.4e-05
328.15	0.1997	0.1988	0.001025	2.2e-05
333.15	0.1997	0.1988	0.000943	2e-05
308.15	0.1997	0.1988	0.001549	3.3e-05
293.15	0.1997	0.1988	0.002163	4.6e-05
338.15	0.1997	0.1988	0.000871	1.9e-05
343.15	0.1997	0.1988	0.000807	1.7e-05
298.15	0.1997	0.1988	0.001933	4.1e-05
298.15	0.1999	0.297	0.001652	3.5e-05
313.15	0.1999	0.297	0.001235	2.6e-05
318.15	0.1999	0.297	0.001131	2.4e-05
323.15	0.1999	0.297	0.00104	2.2e-05
303.15	0.1999	0.297	0.001493	3.2e-05
328.15	0.1999	0.297	0.000959	2e-05
333.15	0.1999	0.297	0.000888	1.9e-05
308.15	0.1999	0.297	0.001355	2.9e-05
338.15	0.1999	0.297	0.000825	1.8e-05
293.15	0.1999	0.297	0.001836	3.9e-05
343.15	0.1999	0.297	0.000768	1.6e-05
293.15	0.2	0.7001	0.001258	2.7e-05
313.15	0.2	0.7001	0.00094	2e-05
308.15	0.2	0.7001	0.001009	2.2e-05
318.15	0.2	0.7001	0.000878	1.9e-05
323.15	0.2	0.7001	0.000824	1.8e-05
298.15	0.2	0.7001	0.00117	2.5e-05
328.15	0.2	0.7001	0.000776	1.7e-05
333.15	0.2	0.7001	0.000735	1.6e-05
338.15	0.2	0.7001	0.00067	1.4e-05
303.15	0.2	0.7001	0.001085	2.3e-05
343.15	0.2	0.7001	0.000635	1.4e-05
303.15	0.2005	0.1024	0.001986	4.2e-05
318.15	0.2005	0.1024	0.00144	3.1e-05
323.15	0.2005	0.1024	0.001302	2.8e-05
298.15	0.2005	0.1024	0.002237	4.8e-05
328.15	0.2005	0.1024	0.001184	2.5e-05
308.15	0.2005	0.1024	0.001777	3.8e-05
293.15	0.2005	0.1024	0.002531	5.4e-05
333.15	0.2005	0.1024	0.001082	2.3e-05
338.15	0.2005	0.1024	0.000992	2.1e-05
313.15	0.2005	0.1024	0.001596	3.4e-05
343.15	0.2005	0.1024	0.000914	2e-05
318.15	0.2899	0.293	0.001102	2.4e-05
293.15	0.2899	0.293	0.001784	3.8e-05
323.15	0.2899	0.293	0.00101	2.2e-05
303.15	0.2899	0.293	0.001462	3.1e-05
308.15	0.2899	0.293	0.001325	2.8e-05
328.15	0.2899	0.293	0.000931	2e-05
313.15	0.2899	0.293	0.001206	2.6e-05
333.15	0.2899	0.293	0.000862	1.8e-05
338.15	0.2899	0.293	0.000801	1.7e-05
298.15	0.2899	0.293	0.001617	3.4e-05
343.15	0.2899	0.293	0.000749	1.6e-05
318.15	0.2967	0.3986	0.001006	2.1e-05
303.15	0.2967	0.3986	0.001283	2.7e-05
323.15	0.2967	0.3986	0.000934	2e-05
293.15	0.2967	0.3986	0.001538	3.3e-05
328.15	0.2967	0.3986	0.00087	1.9e-05
308.15	0.2967	0.3986	0.001179	2.5e-05
333.15	0.2967	0.3986	0.000813	1.7e-05
313.15	0.2967	0.3986	0.001087	2.3e-05
338.15	0.2967	0.3986	0.000762	1.6e-05
298.15	0.2967	0.3986	0.001403	3e-05
343.15	0.2967	0.3986	0.000716	1.5e-05
303.15	0.2978	0.5967	0.001113	2.4e-05
318.15	0.2978	0.5967	0.000897	1.9e-05
323.15	0.2978	0.5967	0.00084	1.8e-05
328.15	0.2978	0.5967	0.000789	1.7e-05
333.15	0.2978	0.5967	0.000743	1.6e-05
293.15	0.2978	0.5967	0.001309	2.8e-05
308.15	0.2978	0.5967	0.001032	2.2e-05
298.15	0.2978	0.5967	0.001205	2.6e-05
338.15	0.2978	0.5967	0.000702	1.5e-05
313.15	0.2978	0.5967	0.000961	2.1e-05
343.15	0.2978	0.5967	0.000665	1.4e-05
308.15	0.2999	0.0989	0.001673	3.6e-05
323.15	0.2999	0.0989	0.001244	2.7e-05
313.15	0.2999	0.0989	0.00151	3.2e-05
328.15	0.2999	0.0989	0.001137	2.4e-05
298.15	0.2999	0.0989	0.002086	4.4e-05
333.15	0.2999	0.0989	0.001044	2.2e-05
338.15	0.2999	0.0989	0.000962	2.1e-05
318.15	0.2999	0.0989	0.001369	2.9e-05
303.15	0.2999	0.0989	0.001862	4e-05
343.15	0.2999	0.0989	0.00089	1.9e-05
293.15	0.2999	0.0989	0.002351	5e-05
318.15	0.3007	0.4995	0.000925	2e-05
323.15	0.3007	0.4995	0.00086	1.8e-05
328.15	0.3007	0.4995	0.000804	1.7e-05
298.15	0.3007	0.4995	0.001287	2.7e-05
293.15	0.3007	0.4995	0.001388	3e-05
308.15	0.3007	0.4995	0.001082	2.3e-05
333.15	0.3007	0.4995	0.000755	1.6e-05
338.15	0.3007	0.4995	0.000715	1.5e-05
313.15	0.3007	0.4995	0.000998	2.1e-05
303.15	0.3007	0.4995	0.001179	2.5e-05
343.15	0.3007	0.4995	0.000683	1.5e-05
293.15	0.3008	0.2014	0.001991	4.2e-05
308.15	0.3008	0.2014	0.001454	3.1e-05
323.15	0.3008	0.2014	0.001111	2.4e-05
328.15	0.3008	0.2014	0.001021	2.2e-05
313.15	0.3008	0.2014	0.001325	2.8e-05
333.15	0.3008	0.2014	0.000943	2e-05
298.15	0.3008	0.2014	0.001785	3.8e-05
338.15	0.3008	0.2014	0.000875	1.9e-05
318.15	0.3008	0.2014	0.001211	2.6e-05
303.15	0.3008	0.2014	0.001606	3.4e-05
343.15	0.3008	0.2014	0.000814	1.7e-05
323.15	0.389	0.0981	0.001204	2.6e-05
318.15	0.389	0.0981	0.001316	2.8e-05
328.15	0.389	0.0981	0.001106	2.4e-05
333.15	0.389	0.0981	0.001019	2.2e-05
308.15	0.389	0.0981	0.001621	3.5e-05
338.15	0.389	0.0981	0.000943	2e-05
298.15	0.389	0.0981	0.002044	4.4e-05
293.15	0.389	0.0981	0.002288	4.9e-05
303.15	0.389	0.0981	0.00183	3.9e-05
313.15	0.389	0.0981	0.001447	3.1e-05
343.15	0.389	0.0981	0.000876	1.9e-05
313.15	0.3954	0.3046	0.001162	2.5e-05
328.15	0.3954	0.3046	0.000911	1.9e-05
303.15	0.3954	0.3046	0.001399	3e-05
318.15	0.3954	0.3046	0.001067	2.3e-05
293.15	0.3954	0.3046	0.00171	3.6e-05
298.15	0.3954	0.3046	0.001545	3.3e-05
333.15	0.3954	0.3046	0.000847	1.8e-05
338.15	0.3954	0.3046	0.000791	1.7e-05
323.15	0.3954	0.3046	0.000984	2.1e-05
308.15	0.3954	0.3046	0.001273	2.7e-05
343.15	0.3954	0.3046	0.000742	1.6e-05
293.15	0.3972	0.4936	0.001399	3e-05
313.15	0.3972	0.4936	0.001018	2.2e-05
328.15	0.3972	0.4936	0.000832	1.8e-05
333.15	0.3972	0.4936	0.000782	1.7e-05
303.15	0.3972	0.4936	0.001184	2.5e-05
308.15	0.3972	0.4936	0.001096	2.3e-05
318.15	0.3972	0.4936	0.000949	2e-05
338.15	0.3972	0.4936	0.000739	1.6e-05
298.15	0.3972	0.4936	0.001285	2.7e-05
323.15	0.3972	0.4936	0.000887	1.9e-05
343.15	0.3972	0.4936	0.000698	1.5e-05
303.15	0.3996	0.1988	0.001559	3.3e-05
293.15	0.3996	0.1988	0.001947	4.2e-05
313.15	0.3996	0.1988	0.001279	2.7e-05
328.15	0.3996	0.1988	0.000998	2.1e-05
318.15	0.3996	0.1988	0.001174	2.5e-05
333.15	0.3996	0.1988	0.000926	2e-05
298.15	0.3996	0.1988	0.001754	3.7e-05
338.15	0.3996	0.1988	0.000863	1.8e-05
323.15	0.3996	0.1988	0.001082	2.3e-05
308.15	0.3996	0.1988	0.001396	3e-05
343.15	0.3996	0.1988	0.000806	1.7e-05
328.15	0.3997	0.3991	0.00087	1.9e-05
303.15	0.3997	0.3991	0.001266	2.7e-05
333.15	0.3997	0.3991	0.000816	1.7e-05
298.15	0.3997	0.3991	0.001381	2.9e-05
293.15	0.3997	0.3991	0.001511	3.2e-05
318.15	0.3997	0.3991	0.001	2.1e-05
308.15	0.3997	0.3991	0.001165	2.5e-05
338.15	0.3997	0.3991	0.000766	1.6e-05
313.15	0.3997	0.3991	0.001077	2.3e-05
323.15	0.3997	0.3991	0.000931	2e-05
343.15	0.3997	0.3991	0.000722	1.5e-05
298.15	0.493	0.1948	0.001658	3.5e-05
313.15	0.493	0.1948	0.00126	2.7e-05
323.15	0.493	0.1948	0.001073	2.3e-05
333.15	0.493	0.1948	0.000927	2e-05
308.15	0.493	0.1948	0.001374	2.9e-05
328.15	0.493	0.1948	0.000995	2.1e-05
303.15	0.493	0.1948	0.001505	3.2e-05
293.15	0.493	0.1948	0.001834	3.9e-05
338.15	0.493	0.1948	0.000865	1.8e-05
318.15	0.493	0.1948	0.00116	2.5e-05
343.15	0.493	0.1948	0.00081	1.7e-05
303.15	0.499	0.399	0.001264	2.7e-05
323.15	0.499	0.399	0.000941	2e-05
333.15	0.499	0.399	0.000828	1.8e-05
313.15	0.499	0.399	0.001083	2.3e-05
293.15	0.499	0.399	0.001501	3.2e-05
328.15	0.499	0.399	0.000881	1.9e-05
338.15	0.499	0.399	0.00078	1.7e-05
298.15	0.499	0.399	0.001374	2.9e-05
318.15	0.499	0.399	0.001007	2.1e-05
308.15	0.499	0.399	0.001167	2.5e-05
343.15	0.499	0.399	0.000737	1.6e-05
313.15	0.5008	0.0989	0.001392	3e-05
333.15	0.5008	0.0989	0.000998	2.1e-05
328.15	0.5008	0.0989	0.001078	2.3e-05
293.15	0.5008	0.0989	0.00208	4.4e-05
338.15	0.5008	0.0989	0.000927	2e-05
318.15	0.5008	0.0989	0.001272	2.7e-05
298.15	0.5008	0.0989	0.001867	4e-05
308.15	0.5008	0.0989	0.001528	3.3e-05
323.15	0.5008	0.0989	0.001168	2.5e-05
303.15	0.5008	0.0989	0.001682	3.6e-05
343.15	0.5008	0.0989	0.000864	1.8e-05
298.15	0.5016	0.2981	0.001484	3.2e-05
323.15	0.5016	0.2981	0.000992	2.1e-05
328.15	0.5016	0.2981	0.000925	2e-05
338.15	0.5016	0.2981	0.000812	1.7e-05
313.15	0.5016	0.2981	0.001155	2.5e-05
308.15	0.5016	0.2981	0.001251	2.7e-05
303.15	0.5016	0.2981	0.001359	2.9e-05
333.15	0.5016	0.2981	0.000866	1.8e-05
318.15	0.5016	0.2981	0.00107	2.3e-05
293.15	0.5016	0.2981	0.001632	3.5e-05
343.15	0.5016	0.2981	0.000764	1.6e-05
308.15	0.5962	0.2994	0.001253	2.7e-05
318.15	0.5962	0.2994	0.001077	2.3e-05
303.15	0.5962	0.2994	0.00136	2.9e-05
333.15	0.5962	0.2994	0.00088	1.9e-05
323.15	0.5962	0.2994	0.001004	2.1e-05
338.15	0.5962	0.2994	0.000829	1.8e-05
293.15	0.5962	0.2994	0.001622	3.5e-05
298.15	0.5962	0.2994	0.001481	3.2e-05
328.15	0.5962	0.2994	0.000938	2e-05
313.15	0.5962	0.2994	0.00116	2.5e-05
343.15	0.5962	0.2994	0.000781	1.7e-05
318.15	0.599	0.2	0.001145	2.4e-05
328.15	0.599	0.2	0.000989	2.1e-05
338.15	0.599	0.2	0.000865	1.8e-05
293.15	0.599	0.2	0.001779	3.8e-05
333.15	0.599	0.2	0.000923	2e-05
298.15	0.599	0.2	0.001614	3.4e-05
313.15	0.599	0.2	0.00124	2.6e-05
323.15	0.599	0.2	0.001064	2.3e-05
308.15	0.599	0.2	0.001348	2.9e-05
343.15	0.599	0.2	0.000813	1.7e-05
303.15	0.599	0.2	0.001471	3.1e-05
308.15	0.5994	0.1012	0.001484	3.2e-05
338.15	0.5994	0.1012	0.000922	2e-05
313.15	0.5994	0.1012	0.001357	2.9e-05
323.15	0.5994	0.1012	0.00115	2.4e-05
318.15	0.5994	0.1012	0.001246	2.7e-05
293.15	0.5994	0.1012	0.001999	4.3e-05
298.15	0.5994	0.1012	0.001801	3.8e-05
303.15	0.5994	0.1012	0.001631	3.5e-05
328.15	0.5994	0.1012	0.001064	2.3e-05
333.15	0.5994	0.1012	0.000989	2.1e-05
343.15	0.5994	0.1012	0.000863	1.8e-05
308.15	0.6959	0.0998	0.001487	3.2e-05
338.15	0.6959	0.0998	0.000928	2e-05
313.15	0.6959	0.0998	0.001353	2.9e-05
298.15	0.6959	0.0998	0.001771	3.8e-05
323.15	0.6959	0.0998	0.001147	2.4e-05
333.15	0.6959	0.0998	0.000992	2.1e-05
328.15	0.6959	0.0998	0.001065	2.3e-05
303.15	0.6959	0.0998	0.001619	3.4e-05
293.15	0.6959	0.0998	0.00196	4.2e-05
318.15	0.6959	0.0998	0.00124	2.6e-05
343.15	0.6959	0.0998	0.00087	1.9e-05
318.15	0.6963	0.1973	0.001188	2.5e-05
313.15	0.6963	0.1973	0.001286	2.7e-05
328.15	0.6963	0.1973	0.001024	2.2e-05
338.15	0.6963	0.1973	0.000888	1.9e-05
298.15	0.6963	0.1973	0.001615	3.4e-05
323.15	0.6963	0.1973	0.0011	2.3e-05
308.15	0.6963	0.1973	0.001398	3e-05
333.15	0.6963	0.1973	0.000954	2e-05
293.15	0.6963	0.1973	0.001799	3.8e-05
303.15	0.6963	0.1973	0.001475	3.1e-05
343.15	0.6963	0.1973	0.000832	1.8e-05
338.15	0.8023	0.0985	0.000949	2e-05
333.15	0.8023	0.0985	0.001013	2.2e-05
328.15	0.8023	0.0985	0.001084	2.3e-05
303.15	0.8023	0.0985	0.001611	3.4e-05
318.15	0.8023	0.0985	0.001255	2.7e-05
323.15	0.8023	0.0985	0.001164	2.5e-05
298.15	0.8023	0.0985	0.001768	3.8e-05
313.15	0.8023	0.0985	0.001358	2.9e-05
293.15	0.8023	0.0985	0.001951	4.2e-05
308.15	0.8023	0.0985	0.001475	3.1e-05
343.15	0.8023	0.0985	0.000893	1.9e-05
