Measured thermophysical data. Solubility Modeling and Solvent Effects of Allopurinol in 15 Neat Solvents
Source: J. Chem. Eng. Data, 2018, 10.1021/acs.jced.8b00430
Compound 1: allopurinol, C5H4N4O, InChI=1S/C5H4N4O/c10-5-3-1-8-9-4(3)6-2-7-5/h1-2H,(H2,6,7,8,9,10), purity 99.2%
Compound 2: methanol, CH4O, InChI=1S/CH4O/c1-2/h2H,1H3, purity 99.7%
Compound 3: ethanol, C2H6O, InChI=1S/C2H6O/c1-2-3/h3H,2H2,1H3, purity 99.4%
Compound 4: propan-2-ol, C3H8O, InChI=1S/C3H8O/c1-3(2)4/h3-4H,1-2H3, purity 99.5%
Compound 5: propan-1-ol, C3H8O, InChI=1S/C3H8O/c1-2-3-4/h4H,2-3H2,1H3, purity 99.5%
Compound 6: butan-1-ol, C4H10O, InChI=1S/C4H10O/c1-2-3-4-5/h5H,2-4H2,1H3, purity 99.4%
Compound 7: acetone, C3H6O, InChI=1S/C3H6O/c1-3(2)4/h1-2H3, purity 99.5%
Compound 8: acetonitrile, C2H3N, InChI=1S/C2H3N/c1-2-3/h1H3, purity 99.6%
Compound 9: dimethylformamide, C3H7NO, InChI=1S/C3H7NO/c1-4(2)3-5/h3H,1-2H3, purity 99.5%
Compound 10: butanone, C4H8O, InChI=1S/C4H8O/c1-3-4(2)5/h3H2,1-2H3, purity 99.4%
Compound 11: 1,4-dioxane, C4H8O2, InChI=1S/C4H8O2/c1-2-6-4-3-5-1/h1-4H2, purity 99.5%
Compound 12: N-methylpyrrolidone, C5H9NO, InChI=1S/C5H9NO/c1-6-4-2-3-5(6)7/h2-4H2,1H3, purity 99.4%
Compound 13: heptan-1-ol, C7H16O, InChI=1S/C7H16O/c1-2-3-4-5-6-7-8/h8H,2-7H2,1H3, purity 99.4%
Compound 14: hexan-1-ol, C6H14O, InChI=1S/C6H14O/c1-2-3-4-5-6-7/h7H,2-6H2,1H3, purity 99.6%
Compound 15: cyclohexane, C6H12, InChI=1S/C6H12/c1-2-4-6-5-3-1/h1-6H2, purity 99.5%
Compound 16: water, H2O, InChI=1S/H2O/h1H2, purity 99.9%

System: allopurinol + methanol; phases: Liquid, Crystal
Fixed: Pressure, kPa = 101.2
Property: Mole fraction of allopurinol (Liquid); method: Chromatography
Temperature, K	Mole fraction of allopurinol	uncertainty
278.15	2.05e-05	9.2e-07
283.15	2.696e-05	1.21e-06
288.15	3.615e-05	1.62e-06
293.15	4.654e-05	2.09e-06
298.15	5.974e-05	2.68e-06
303.15	7.596e-05	3.41e-06
308.15	9.618e-05	4.32e-06
313.15	0.0001202	5.4e-06
318.15	0.0001519	6.8e-06
323.15	0.0001895	8.5e-06
328.15	0.0002345	1.05e-05
333.15	0.0002832	1.27e-05

System: allopurinol + ethanol; phases: Liquid, Crystal
Fixed: Pressure, kPa = 101.2
Property: Mole fraction of allopurinol (Liquid); method: Chromatography
Temperature, K	Mole fraction of allopurinol	uncertainty
278.15	2.464e-05	1.11e-06
283.15	3.276e-05	1.47e-06
288.15	4.272e-05	1.92e-06
293.15	5.496e-05	2.47e-06
298.15	6.993e-05	3.14e-06
303.15	8.966e-05	4.02e-06
308.15	0.0001086	4.9e-06
313.15	0.0001394	6.3e-06
318.15	0.0001725	7.7e-06
323.15	0.0002115	9.5e-06
328.15	0.000258	1.16e-05
333.15	0.0003097	1.39e-05

System: allopurinol + propan-2-ol; phases: Liquid, Crystal
Fixed: Pressure, kPa = 101.2
Property: Mole fraction of allopurinol (Liquid); method: Chromatography
Temperature, K	Mole fraction of allopurinol	uncertainty
278.15	3.639e-05	1.63e-06
283.15	4.677e-05	2.1e-06
288.15	5.838e-05	2.62e-06
293.15	7.354e-05	3.3e-06
298.15	9.2e-05	4.13e-06
303.15	0.0001122	5e-06
308.15	0.0001376	6.2e-06
313.15	0.0001713	7.7e-06
318.15	0.0002043	9.2e-06
323.15	0.0002447	1.1e-05
328.15	0.0002964	1.33e-05
333.15	0.0003459	1.55e-05

System: allopurinol + propan-1-ol; phases: Liquid, Crystal
Fixed: Pressure, kPa = 101.2
Property: Mole fraction of allopurinol (Liquid); method: Chromatography
Temperature, K	Mole fraction of allopurinol	uncertainty
278.15	4.853e-05	2.18e-06
283.15	6.16e-05	2.77e-06
288.15	7.658e-05	3.44e-06
293.15	9.516e-05	4.27e-06
298.15	0.0001141	5.1e-06
303.15	0.0001397	6.3e-06
308.15	0.0001645	7.4e-06
313.15	0.0002011	9e-06
318.15	0.0002472	1.11e-05
323.15	0.0002931	1.32e-05
328.15	0.0003494	1.57e-05
333.15	0.0004028	1.81e-05

System: allopurinol + butan-1-ol; phases: Liquid, Crystal
Fixed: Pressure, kPa = 101.2
Property: Mole fraction of allopurinol (Liquid); method: Chromatography
Temperature, K	Mole fraction of allopurinol	uncertainty
278.15	6.633e-05	2.98e-06
283.15	8.127e-05	3.65e-06
288.15	0.0001004	4.5e-06
293.15	0.0001239	5.6e-06
298.15	0.000151	6.8e-06
303.15	0.0001837	8.2e-06
308.15	0.0002187	9.8e-06
313.15	0.00026	1.17e-05
318.15	0.000312	1.4e-05
323.15	0.0003661	1.64e-05
328.15	0.0004286	1.92e-05
333.15	0.0004963	2.23e-05

System: allopurinol + acetone; phases: Liquid, Crystal
Fixed: Pressure, kPa = 101.2
Property: Mole fraction of allopurinol (Liquid); method: Chromatography
Temperature, K	Mole fraction of allopurinol	uncertainty
278.15	0.0006534	2.93e-05
283.15	0.0007971	3.58e-05
288.15	0.0009663	4.34e-05
293.15	0.001164	5.2e-05
298.15	0.001392	6.2e-05
303.15	0.001656	7.4e-05
308.15	0.001959	8.8e-05
313.15	0.002305	0.000103
318.15	0.002699	0.000121
323.15	0.003145	0.000141
328.15	0.003648	0.000164
333.15	0.004214	0.000189

System: allopurinol + acetonitrile; phases: Liquid, Crystal
Fixed: Pressure, kPa = 101.2
Property: Mole fraction of allopurinol (Liquid); method: Chromatography
Temperature, K	Mole fraction of allopurinol	uncertainty
278.15	9.595e-05	4.31e-06
283.15	0.0001169	5.2e-06
288.15	0.0001412	6.3e-06
293.15	0.0001704	7.6e-06
298.15	0.0002035	9.1e-06
303.15	0.0002386	1.07e-05
308.15	0.0002856	1.28e-05
313.15	0.000331	1.49e-05
318.15	0.0003836	1.72e-05
323.15	0.0004479	2.01e-05
328.15	0.0005224	2.34e-05
333.15	0.0005899	2.65e-05

System: allopurinol + dimethylformamide; phases: Liquid, Crystal
Fixed: Pressure, kPa = 101.2
Property: Mole fraction of allopurinol (Liquid); method: Chromatography
Temperature, K	Mole fraction of allopurinol	uncertainty
278.15	0.002233	0.0001
283.15	0.002665	0.00012
288.15	0.003161	0.000142
293.15	0.003727	0.000167
298.15	0.004369	0.000196
303.15	0.005095	0.000229
308.15	0.005912	0.000265
313.15	0.006827	0.000306
318.15	0.007848	0.000352
323.15	0.008983	0.000403
328.15	0.01003	0.00045
333.15	0.01208	0.00054

System: allopurinol + water; phases: Liquid, Crystal
Fixed: Pressure, kPa = 101.2
Property: Mole fraction of allopurinol (Liquid); method: Chromatography
Temperature, K	Mole fraction of allopurinol	uncertainty
278.15	8.705e-06	3.91e-07
283.15	1.179e-05	5.3e-07
288.15	1.57e-05	7.1e-07
293.15	2.12e-05	9.5e-07
298.15	2.938e-05	1.32e-06
303.15	3.831e-05	1.72e-06
308.15	5.006e-05	2.25e-06
313.15	6.439e-05	2.89e-06
318.15	8.316e-05	3.73e-06
323.15	0.0001071	4.8e-06
328.15	0.000134	6e-06
333.15	0.0001668	7.5e-06

System: allopurinol + hexan-1-ol; phases: Liquid, Crystal
Fixed: Pressure, kPa = 101.2
Property: Mole fraction of allopurinol (Liquid); method: Chromatography
Temperature, K	Mole fraction of allopurinol	uncertainty
278.15	8.046e-05	3.61e-06
283.15	9.843e-05	4.42e-06
288.15	0.0001189	5.3e-06
293.15	0.0001452	6.5e-06
298.15	0.0001772	8e-06
303.15	0.0002138	9.6e-06
308.15	0.0002589	1.16e-05
313.15	0.0003015	1.35e-05
318.15	0.0003602	1.62e-05
323.15	0.0004199	1.88e-05
328.15	0.0004992	2.24e-05
333.15	0.0005657	2.54e-05

System: allopurinol + heptan-1-ol; phases: Liquid, Crystal
Fixed: Pressure, kPa = 101.2
Property: Mole fraction of allopurinol (Liquid); method: Chromatography
Temperature, K	Mole fraction of allopurinol	uncertainty
278.15	0.0001265	5.7e-06
283.15	0.0001486	6.7e-06
288.15	0.0001753	7.9e-06
293.15	0.0002051	9.2e-06
298.15	0.0002395	1.07e-05
303.15	0.0002761	1.24e-05
308.15	0.0003185	1.43e-05
313.15	0.0003646	1.64e-05
318.15	0.0004184	1.88e-05
323.15	0.0004726	2.12e-05
328.15	0.0005442	2.44e-05
333.15	0.000614	2.75e-05

System: allopurinol + butanone; phases: Liquid, Crystal
Fixed: Pressure, kPa = 101.2
Property: Mole fraction of allopurinol (Liquid); method: Chromatography
Temperature, K	Mole fraction of allopurinol	uncertainty
278.15	0.0007834	3.52e-05
283.15	0.0009536	4.28e-05
288.15	0.001152	5.2e-05
293.15	0.001382	6.2e-05
298.15	0.001649	7.4e-05
303.15	0.001956	8.8e-05
308.15	0.002308	0.000104
313.15	0.002711	0.000122
318.15	0.003162	0.000142
323.15	0.003675	0.000165
328.15	0.004253	0.000191
333.15	0.004906	0.00022

System: allopurinol + N-methylpyrrolidone; phases: Liquid, Crystal
Fixed: Pressure, kPa = 101.2
Property: Mole fraction of allopurinol (Liquid); method: Chromatography
Temperature, K	Mole fraction of allopurinol	uncertainty
278.15	0.01506	0.00068
283.15	0.01703	0.00076
288.15	0.02	0.0009
293.15	0.02202	0.00099
298.15	0.02507	0.00112
303.15	0.02808	0.00126
308.15	0.03204	0.00144
313.15	0.03503	0.00157
318.15	0.03906	0.00175
323.15	0.04309	0.00193
328.15	0.04805	0.00216
333.15	0.05308	0.00238

System: allopurinol + 1,4-dioxane; phases: Liquid, Crystal
Fixed: Pressure, kPa = 101.2
Property: Mole fraction of allopurinol (Liquid); method: Chromatography
Temperature, K	Mole fraction of allopurinol	uncertainty
283.15	2.909e-05	1.31e-06
288.15	3.708e-05	1.66e-06
293.15	4.635e-05	2.08e-06
298.15	5.736e-05	2.57e-06
303.15	7.028e-05	3.15e-06
308.15	8.425e-05	3.78e-06
313.15	0.000102	4.6e-06
318.15	0.0001234	5.5e-06
323.15	0.0001477	6.6e-06
328.15	0.0001775	8e-06
333.15	0.0002037	9.1e-06

System: allopurinol + cyclohexane; phases: Liquid, Crystal
Fixed: Pressure, kPa = 101.2
Property: Mole fraction of allopurinol (Liquid); method: Chromatography
Temperature, K	Mole fraction of allopurinol	uncertainty
283.15	4.741e-07	2.13e-08
288.15	6.382e-07	2.86e-08
293.15	7.676e-07	3.45e-08
298.15	1.018e-06	4.6e-08
303.15	1.241e-06	5.6e-08
308.15	1.61e-06	7.2e-08
313.15	1.967e-06	8.8e-08
318.15	2.478e-06	1.11e-07
323.15	3.055e-06	1.37e-07
328.15	3.771e-06	1.69e-07
333.15	4.37e-06	1.96e-07
