Measured thermophysical data. Measurement and Prediction of Vapor-Liquid Equilibria in Ternary Systems Containing an Organic Component, Cyclohexylamine, and Cyclohexanol
Source: J. Chem. Eng. Data, 2018, 10.1021/acs.jced.7b00721
Compound 1: octane, C8H18, InChI=1S/C8H18/c1-3-5-7-8-6-4-2/h3-8H2,1-2H3, purity 99.5%
Compound 2: cyclohexane, C6H12, InChI=1S/C6H12/c1-2-4-6-5-3-1/h1-6H2, purity 99.5%
Compound 3: toluene, C7H8, InChI=1S/C7H8/c1-7-5-3-2-4-6-7/h2-6H,1H3, purity 99.8%
Compound 4: cyclohexylamine, C6H13N, InChI=1S/C6H13N/c7-6-4-2-1-3-5-6/h6H,1-5,7H2, purity 99.5%
Compound 5: cyclohexanol, C6H12O, InChI=1S/C6H12O/c7-6-4-2-1-3-5-6/h6-7H,1-5H2, purity 98%

System: octane + cyclohexylamine + cyclohexanol; phases: Liquid, Gas
Property: Mole fraction of cyclohexylamine (Liquid); method: Chromatography
Property: Mole fraction of cyclohexylamine (Gas); method: Chromatography
Property: Mole fraction of octane (Gas); method: Chromatography
Temperature, K	Pressure, kPa	Mole fraction of octane	Mole fraction of cyclohexylamine	uncertainty	Mole fraction of cyclohexylamine	uncertainty	Mole fraction of octane	uncertainty
343.15	7.41	0.063	0.285	0.02	0.298	0.02	0.595	
343.15	8.93	0.092	0.536	0.02	0.554	0.02	0.406	
343.15	10.54	0.164	0.323	0.02	0.248	0.02	0.677	
343.15	11.41	0.177	0.471	0.02	0.401	0.02	0.557	
343.15	11.42	0.217	0.187	0.02	0.104	0.02	0.803	
343.15	12.57	0.138	0.738	0.02	0.658	0.02	0.334	
343.15	13.12	0.235	0.589	0.02	0.491	0.02	0.497	
343.15	13.56	0.39	0.143	0.02	0.069	0.02	0.852	
343.15	13.84	0.399	0.269	0.02	0.167	0.02	0.784	
343.15	15.77	0.558	0.326	0.02	0.253	0.02	0.727	
343.15	15.98	0.848	0.103	0.02	0.096	0.02	0.878	
343.15	16.04	0.884	0.062	0.02	0.055	0.02	0.912	
343.15	16.05	0.703	0.146	0.02	0.103	0.02	0.853	
343.15	16.13	0.933	0.054	0.02	0.058	0.02	0.931	
343.15	16.14	0.97	0.016	0.016	0.017	0.017	0.967	
373.15	23.03	0.063	0.285	0.02	0.328	0.02	0.458	
373.15	29.33	0.09	0.527	0.02	0.576	0.02	0.352	
373.15	31.87	0.158	0.353	0.02	0.314	0.02	0.573	
373.15	33.75	0.215	0.189	0.02	0.127	0.02	0.709	
373.15	35.05	0.187	0.478	0.02	0.431	0.02	0.499	
373.15	37.02	0.139	0.721	0.02	0.676	0.02	0.307	
373.15	38.82	0.228	0.585	0.02	0.508	0.02	0.461	
373.15	40.67	0.405	0.139	0.02	0.079	0.02	0.798	
373.15	41.22	0.412	0.264	0.02	0.182	0.02	0.735	
373.15	45.99	0.547	0.344	0.02	0.278	0.02	0.693	
373.15	47.26	0.722	0.137	0.02	0.103	0.02	0.835	
373.15	47.45	0.885	0.061	0.02	0.056	0.02	0.903	
373.15	47.46	0.935	0.053	0.02	0.057	0.02	0.931	
373.15	47.5	0.853	0.099	0.02	0.091	0.02	0.879	
373.15	47.63	0.97	0.016	0.016	0.017	0.017	0.966	

System: cyclohexane + cyclohexylamine + cyclohexanol; phases: Liquid, Gas
Property: Mole fraction of cyclohexylamine (Liquid); method: Chromatography
Property: Mole fraction of cyclohexylamine (Gas); method: Chromatography
Property: Mole fraction of cyclohexane (Gas); method: Chromatography
Temperature, K	Pressure, kPa	Mole fraction of cyclohexane	Mole fraction of cyclohexylamine	uncertainty	Mole fraction of cyclohexylamine	uncertainty	Mole fraction of cyclohexane	uncertainty
333.15	6.54	0.019	0.63	0.02	0.682	0.02	0.278	
333.15	8.98	0.033	0.795	0.02	0.653	0.02	0.337	
333.15	10.05	0.06	0.486	0.02	0.337	0.02	0.602	
333.15	12.85	0.084	0.804	0.02	0.48	0.02	0.516	
333.15	15.66	0.112	0.351	0.02	0.125	0.02	0.844	
333.15	20.67	0.189	0.653	0.02	0.234	0.02	0.762	
333.15	23.8	0.201	0.249	0.02	0.049	0.02	0.93	
333.15	24.79	0.2	0.125	0.02	0.018	0.018	0.957	
333.15	25.83	0.27	0.502	0.02	0.135	0.02	0.854	
333.15	28.72	0.3	0.361	0.02	0.075	0.02	0.915	
333.15	32.52	0.304	0.133	0.02	0.014	0.014	0.969	
333.15	40.7	0.544	0.182	0.02	0.023	0.02	0.969	
333.15	43.22	0.69	0.194	0.02	0.032	0.02	0.963	
333.15	46.81	0.787	0.104	0.02	0.014	0.014	0.977	
333.15	48.77	0.875	0.064	0.02	0.007	0.007	0.991	
353.15	17.26	0.034	0.616	0.02	0.588	0.02	0.356	
353.15	19.03	0.068	0.497	0.02	0.408	0.02	0.524	
353.15	19.32	0.032	0.8	0.02	0.713	0.02	0.272	
353.15	25.09	0.071	0.82	0.02	0.56	0.02	0.432	
353.15	26.79	0.094	0.375	0.02	0.196	0.02	0.742	
353.15	36.14	0.158	0.689	0.02	0.321	0.02	0.67	
353.15	47.65	0.254	0.528	0.02	0.176	0.02	0.813	
353.15	47.69	0.23	0.24	0.02	0.057	0.02	0.909	
353.15	48.15	0.209	0.123	0.02	0.021	0.02	0.935	
353.15	50.36	0.26	0.395	0.02	0.112	0.02	0.868	
353.15	61.41	0.32	0.145	0.02	0.022	0.02	0.95	
353.15	75.01	0.506	0.172	0.02	0.031	0.02	0.956	
353.15	81.76	0.689	0.205	0.02	0.041	0.02	0.953	
353.15	88.15	0.818	0.092	0.02	0.018	0.018	0.973	
353.15	92.8	0.874	0.065	0.02	0.008	0.008	0.989	

System: toluene + cyclohexylamine + cyclohexanol; phases: Liquid, Gas
Property: Mole fraction of cyclohexylamine (Liquid); method: Chromatography
Property: Mole fraction of cyclohexylamine (Gas); method: Chromatography
Property: Mole fraction of toluene (Gas); method: Chromatography
Temperature, K	Pressure, kPa	Mole fraction of toluene	Mole fraction of cyclohexylamine	uncertainty	Mole fraction of cyclohexylamine	uncertainty	Mole fraction of toluene	uncertainty
343.15	9.66	0.122	0.331	0.02	0.283	0.02	0.61	
343.15	9.81	0.054	0.574	0.02	0.673	0.02	0.272	
343.15	11.07	0.061	0.769	0.02	0.783	0.02	0.201	
343.15	11.66	0.178	0.107	0.02	0.047	0.02	0.832	
343.15	12.7	0.153	0.62	0.02	0.527	0.02	0.453	
343.15	13	0.214	0.346	0.02	0.223	0.02	0.719	
343.15	15	0.271	0.44	0.02	0.278	0.02	0.701	
343.15	16.29	0.329	0.127	0.02	0.043	0.02	0.886	
343.15	19.14	0.457	0.163	0.02	0.055	0.02	0.906	
343.15	20.77	0.553	0.21	0.02	0.078	0.02	0.902	
343.15	22.94	0.691	0.219	0.02	0.091	0.02	0.901	
343.15	24.65	0.809	0.093	0.02	0.032	0.02	0.955	
373.15	67.23	0.802	0.104	0.02	0.045	0.02	0.934	
373.15	61.78	0.661	0.256	0.02	0.133	0.02	0.853	
373.15	56.88	0.639	0.181	0.02	0.098	0.02	0.86	
373.15	51.7	0.557	0.142	0.02	0.074	0.02	0.848	
373.15	43.53	0.315	0.158	0.02	0.076	0.02	0.809	
373.15	36.78	0.204	0.371	0.02	0.286	0.02	0.631	
373.15	43.88	0.297	0.418	0.02	0.285	0.02	0.671	
373.15	37.08	0.146	0.634	0.02	0.574	0.02	0.392	
373.15	33.69	0.058	0.775	0.02	0.809	0.02	0.168	
373.15	29.67	0.074	0.563	0.02	0.638	0.02	0.289	
373.15	25.67	0.082	0.351	0.02	0.393	0.02	0.426	
373.15	32.2	0.17	0.108	0.02	0.064	0.02	0.735	
