Measured thermophysical data. Density Measurements for Ethane, Carbon Dioxide, and Methane + Nitrogen Mixtures from 300 to 470 K up to 137 MPa Using a Vibrating Tube Densimeter
Source: J. Chem. Eng. Data, 2016, 10.1021/acs.jced.6b00138
Compound 1: nitrogen, N2, InChI=1S/N2/c1-2, purity 99.9995%
Compound 2: methane, CH4, InChI=1S/CH4/h1H4, purity 99.995%
Compound 3: carbon dioxide, CO2, InChI=1S/CO2/c2-1-3, purity 99.999%
Compound 4: ethane, C2H6, InChI=1S/C2H6/c1-2/h1-2H3, purity 99.95%

System: carbon dioxide; phases: Fluid (supercritical or subcritical phases)
Property: Mass density, kg/m3 (Fluid (supercritical or subcritical phases)); method: Vibrating tube method
Temperature, K	Pressure, kPa	Mass density, kg/m3	uncertainty
304.294	10390	768.95	3.73
398.602	20324	391.9	1.28
469.775	20740	272.48	0.81
304.294	21349	895.09	4.91
304.285	31385	950.66	5.47
469.777	36325	466.7	1.78
398.616	36685	645.59	2.82
398.616	36789	646.63	2.82
304.287	42233	992.73	5.92
398.609	52521	764.26	3.73
469.729	54964	621.41	2.72
304.29	56603	1034.73	6.39
304.293	69065	1063.89	6.73
469.74	69479	702.01	3.29
398.613	70281	846.15	4.45
304.297	86449	1097.67	7.13
398.61	86718	900.46	4.97
469.748	86961	773.96	3.86
469.738	103717	827.38	4.31
398.614	103727	944.72	5.41
469.735	103847	827.75	4.32
304.3	104549	1127.06	7.5
469.763	116457	861.27	4.62
398.61	118142	975.99	5.74
304.303	119826	1148.82	7.78
398.619	119829	979.32	5.78
304.304	136467	1169.87	8.06
469.759	137604	908.75	5.07
398.617	137833	1012.46	6.14

System: ethane; phases: Fluid (supercritical or subcritical phases)
Property: Mass density, kg/m3 (Fluid (supercritical or subcritical phases)); method: Vibrating tube method
Temperature, K	Pressure, kPa	Mass density, kg/m3	uncertainty
469.938	10882	98.22	0.19
399.004	10202	130.49	0.25
469.948	21121	194.69	0.51
469.961	31179	260.81	0.75
399	20736	270.05	0.76
469.982	41149	303.71	0.97
399.006	30973	330.57	1.02
469.969	55719	346.04	1.27
399.004	42071	368.25	1.27
304.299	10173	372.8	1.11
469.968	70405	376.04	1.55
399.001	55861	399.66	1.54
469.967	86507	401.16	1.86
304.299	20724	417.38	1.38
399.002	69356	422.4	1.79
469.956	105448	424.56	2.22
469.996	120161	439.65	2.5
304.299	30964	441.74	1.57
469.992	125610	444.69	2.61
399.002	86735	444.78	2.11
469.966	137417	454.98	2.84
304.3	41974	460.6	1.76
399.005	103351	462.05	2.43
399.025	120965	477.5	2.76
399.011	123093	479.22	2.81
304.294	56004	479.29	1.99
399.014	136122	489.14	3.06
304.295	69715	494	2.23
304.297	86990	509.02	2.49
304.299	103841	521.63	2.71
304.3	113927	528.42	2.84
304.306	120907	532.8	2.93
304.303	137643	542.63	3.15

System: nitrogen + methane; phases: Fluid (supercritical or subcritical phases)
Property: Mass density, kg/m3 (Fluid (supercritical or subcritical phases)); method: Vibrating tube method
Temperature, K	Pressure, kPa	Mole fraction of methane	Mass density, kg/m3	uncertainty
469.851	10026	0.74889	48.26	0.1
469.973	9992	0.49954	54.93	0.11
399.862	9992	0.74889	57.76	0.1
469.909	10004	0.24989	61.8	0.12
399.924	9987	0.49954	65.54	0.12
399.913	9988	0.49954	65.56	0.12
349.888	10027	0.74889	68.31	0.12
399.867	10013	0.24989	73.52	0.13
349.831	9961	0.49954	76.43	0.14
304.097	9981	0.74889	82.59	0.15
350.034	10009	0.24989	85.31	0.15
304.289	9997	0.49954	91.69	0.17
469.838	20016	0.74889	93.29	0.23
304.154	10026	0.24989	101.09	0.18
469.973	19923	0.49954	105.29	0.26
399.859	20006	0.74889	112.82	0.27
469.916	20020	0.24989	118.12	0.29
399.915	19922	0.49954	126.11	0.31
469.874	29908	0.74889	133.12	0.34
349.891	20006	0.74889	134.29	0.33
399.861	19996	0.24989	140.32	0.35
349.833	20028	0.49954	149	0.37
469.977	29966	0.49954	150.62	0.39
399.868	30067	0.74889	160.9	0.41
350.034	20016	0.24989	163.38	0.41
304.089	19971	0.74889	165.17	0.42
469.9	30012	0.24989	168.09	0.44
469.835	39994	0.74889	168.4	0.47
304.293	20007	0.49954	179.37	0.46
399.912	29983	0.49954	179.5	0.47
349.896	30048	0.74889	189.7	0.49
469.982	40008	0.49954	190.16	0.54
304.156	20038	0.24989	194.3	0.51
469.843	50010	0.74889	198.54	0.62
399.857	30038	0.24989	198.74	0.53
399.886	40061	0.74889	200.52	0.57
349.837	29954	0.49954	209.28	0.56
469.89	40040	0.24989	212	0.62
399.917	39952	0.49954	224.03	0.65
469.987	49973	0.49954	224.25	0.71
469.854	59945	0.74889	224.29	0.77
304.092	29972	0.74889	228.08	0.62
350.026	29993	0.24989	229.32	0.63
349.898	39935	0.74889	232.26	0.68
399.881	50075	0.74889	233.16	0.73
469.863	69975	0.74889	246.91	0.93
399.873	39948	0.24989	247.77	0.74
304.296	30001	0.49954	248.55	0.7
469.883	49999	0.24989	250.17	0.81
469.994	60016	0.49954	254.2	0.89
349.841	40010	0.49954	258.28	0.78
399.881	59988	0.74889	260	0.9
399.92	49865	0.49954	261.11	0.85
304.16	29009	0.24989	262.61	0.75
349.899	50031	0.74889	266.14	0.86
469.862	80021	0.74889	266.76	1.09
304.094	39907	0.74889	272.08	0.83
469.998	69917	0.49954	280.09	1.08
399.882	70064	0.74889	283.02	1.08
350.028	39994	0.24989	283.49	0.88
469.885	59957	0.24989	283.71	1.02
399.885	49831	0.24989	289.34	0.96
349.901	59941	0.74889	292.83	1.05
399.914	59961	0.49954	292.96	1.05
349.839	50006	0.49954	297.37	1
469.877	99995	0.74889	299.96	1.42
304.291	40009	0.49954	300.09	0.95
399.872	79995	0.74889	302.54	1.25
470.01	80022	0.49954	303.46	1.27
304.096	49895	0.74889	304.63	1.03
469.892	69961	0.24989	313.52	1.23
349.899	69727	0.74889	314.65	1.22
399.913	69931	0.49954	319.87	1.25
399.882	60031	0.24989	325.98	1.2
469.886	119899	0.74889	326.99	1.77
469.876	120092	0.74889	327.26	1.77
304.154	40008	0.24989	327.46	1.07
350.023	49997	0.24989	327.9	1.13
349.84	59961	0.49954	329.19	1.22
304.096	59950	0.74889	330.09	1.22
349.897	79983	0.74889	334.02	1.41
399.877	100029	0.74889	335.02	1.61
304.293	49950	0.49954	339.04	1.19
469.879	80110	0.24989	340.44	1.46
470.063	100025	0.49954	342.7	1.66
399.904	79818	0.49954	343.04	1.46
469.883	137448	0.74889	347.3	2.08
304.096	69976	0.74889	350.71	1.41
349.841	70033	0.49954	356.12	1.44
399.883	69977	0.24989	356.85	1.44
399.862	118835	0.74889	359.57	1.95
399.878	119993	0.74889	361.01	1.97
349.913	99975	0.74889	364.75	1.78
350.022	60017	0.24989	364.9	1.39
304.097	80054	0.74889	368.16	1.59
304.294	59992	0.49954	370.21	1.42
304.154	49960	0.24989	372.83	1.35
470.004	119844	0.49954	374.9	2.07
470.021	119963	0.49954	375.09	2.07
349.845	79968	0.49954	378.82	1.65
399.878	137873	0.74889	380.53	2.3
399.9	100082	0.49954	382.51	1.89
399.885	80004	0.24989	384.1	1.68
469.886	99985	0.24989	385.63	1.91
349.917	119772	0.74889	388.99	2.15
349.915	119963	0.74889	389.22	2.16
304.295	69979	0.49954	395.67	1.65
350.02	69941	0.24989	395.97	1.65
304.1	100110	0.74889	396.33	1.97
470.019	137925	0.49954	399.92	2.45
349.918	137872	0.74889	407.63	2.49
304.156	60032	0.24989	409.84	1.63
399.905	120026	0.49954	413.98	2.32
399.904	120559	0.49954	414.7	2.33
349.844	99951	0.49954	416.45	2.09
304.297	80027	0.49954	417.33	1.87
304.103	119811	0.74889	418.39	2.34
304.114	120278	0.74889	418.82	2.35
469.903	119671	0.24989	422.86	2.38
350.021	80012	0.24989	423.2	1.91
469.864	120802	0.24989	424.87	2.41
399.891	100077	0.24989	429.9	2.18
304.115	137680	0.74889	435.25	2.69
399.909	137807	0.49954	437.67	2.71
304.157	69944	0.24989	440.11	1.9
349.847	120005	0.49954	446.62	2.54
349.847	120023	0.49954	446.64	2.54
469.865	137596	0.24989	452.08	2.82
304.301	99969	0.49954	452.36	2.32
304.155	80085	0.24989	466.5	2.17
399.898	120086	0.24989	467.18	2.71
399.916	120219	0.24989	467.4	2.71
350.022	99993	0.24989	467.88	2.42
349.849	137830	0.49954	469.21	2.94
304.32	119878	0.49954	480.29	2.77
304.308	120092	0.49954	480.6	2.78
399.912	137620	0.24989	494.98	3.13
304.317	137784	0.49954	501.45	3.17
350.052	119603	0.24989	503.31	2.91
350.005	120082	0.24989	504.14	2.92
304.16	100150	0.24989	509.22	2.65
349.911	137330	0.24989	530.55	3.14
304.162	119475	0.24989	542.25	2.93
304.17	119970	0.24989	543.01	2.93
304.17	137644	0.24989	568.44	3.16
