Measured thermophysical data. Solid-Liquid Equilibrium of Binary Systems Containing Fatty Acids and Fatty Alcohols Using Differential Scanning Calorimetry
Source: J. Chem. Eng. Data, 2019, 10.1021/acs.jced.8b01006
Compound 1: decanoic acid, C10H20O2, InChI=1S/C10H20O2/c1-2-3-4-5-6-7-8-9-10(11)12/h2-9H2,1H3,(H,11,12)
Compound 2: dodecanoic acid, C12H24O2, InChI=1S/C12H24O2/c1-2-3-4-5-6-7-8-9-10-11-12(13)14/h2-11H2,1H3,(H,13,14)
Compound 3: tetradecanoic acid, C14H28O2, InChI=1S/C14H28O2/c1-2-3-4-5-6-7-8-9-10-11-12-13-14(15)16/h2-13H2,1H3,(H,15,16)
Compound 4: hexadecanoic acid, C16H32O2, InChI=1S/C16H32O2/c1-2-3-4-5-6-7-8-9-10-11-12-13-14-15-16(17)18/h2-15H2,1H3,(H,17,18)
Compound 5: octadecanoic acid, C18H36O2, InChI=1S/C18H36O2/c1-2-3-4-5-6-7-8-9-10-11-12-13-14-15-16-17-18(19)20/h2-17H2,1H3,(H,19,20)
Compound 6: 1-tetradecanol, C14H30O, InChI=1S/C14H30O/c1-2-3-4-5-6-7-8-9-10-11-12-13-14-15/h15H,2-14H2,1H3
Compound 7: 1-hexadecanol, C16H34O, InChI=1S/C16H34O/c1-2-3-4-5-6-7-8-9-10-11-12-13-14-15-16-17/h17H,2-16H2,1H3
Compound 8: dodecan-1-ol, C12H26O, InChI=1S/C12H26O/c1-2-3-4-5-6-7-8-9-10-11-12-13/h13H,2-12H2,1H3

System: decanoic acid; phases: Crystal, Liquid, Air at 1 atmosphere
Property: Molar enthalpy of transition or fusion, kJ/mol (Crystal); method: DSC
Molar enthalpy of transition or fusion, kJ/mol	uncertainty
28	0.8

System: decanoic acid; phases: Crystal, Liquid, Air at 1 atmosphere
Property: Normal melting temperature, K (Crystal); method: DTA
Normal melting temperature, K	uncertainty
305.28	2.03

System: dodecanoic acid; phases: Crystal, Liquid, Air at 1 atmosphere
Property: Molar enthalpy of transition or fusion, kJ/mol (Crystal); method: DSC
Molar enthalpy of transition or fusion, kJ/mol	uncertainty
35.6	1

System: dodecanoic acid; phases: Crystal, Liquid, Air at 1 atmosphere
Property: Normal melting temperature, K (Crystal); method: DTA
Normal melting temperature, K	uncertainty
318.07	2.03

System: tetradecanoic acid; phases: Crystal, Liquid, Air at 1 atmosphere
Property: Molar enthalpy of transition or fusion, kJ/mol (Crystal); method: DSC
Molar enthalpy of transition or fusion, kJ/mol	uncertainty
43.7	1.2

System: tetradecanoic acid; phases: Crystal, Liquid, Air at 1 atmosphere
Property: Normal melting temperature, K (Crystal); method: DTA
Normal melting temperature, K	uncertainty
328.73	2.03

System: hexadecanoic acid; phases: Crystal, Liquid, Air at 1 atmosphere
Property: Molar enthalpy of transition or fusion, kJ/mol (Crystal); method: DSC
Molar enthalpy of transition or fusion, kJ/mol	uncertainty
53.5	1.4

System: hexadecanoic acid; phases: Crystal, Liquid, Air at 1 atmosphere
Property: Normal melting temperature, K (Crystal); method: DTA
Normal melting temperature, K	uncertainty
336.47	2.03

System: octadecanoic acid; phases: Crystal, Liquid, Air at 1 atmosphere
Property: Molar enthalpy of transition or fusion, kJ/mol (Crystal); method: DSC
Molar enthalpy of transition or fusion, kJ/mol	uncertainty
61.2	1.6

System: octadecanoic acid; phases: Crystal, Liquid, Air at 1 atmosphere
Property: Normal melting temperature, K (Crystal); method: DTA
Normal melting temperature, K	uncertainty
343.96	2.03

System: 1-tetradecanol; phases: Crystal, Liquid, Air at 1 atmosphere
Property: Molar enthalpy of transition or fusion, kJ/mol (Crystal); method: DSC
Molar enthalpy of transition or fusion, kJ/mol	uncertainty
47.6	1.3

System: 1-tetradecanol; phases: Crystal, Liquid, Air at 1 atmosphere
Property: Normal melting temperature, K (Crystal); method: DTA
Normal melting temperature, K	uncertainty
311.29	2.03

System: 1-hexadecanol; phases: Crystal 2, Liquid, Air at 1 atmosphere
Property: Molar enthalpy of transition or fusion, kJ/mol (Crystal 2); method: DSC
Molar enthalpy of transition or fusion, kJ/mol	uncertainty
56.4	1.5

System: 1-hexadecanol; phases: Crystal, Liquid, Air at 1 atmosphere
Property: Normal melting temperature, K (Crystal); method: DTA
Normal melting temperature, K	uncertainty
323.51	2.03

System: dodecan-1-ol; phases: Crystal, Liquid, Air at 1 atmosphere
Property: Molar enthalpy of transition or fusion, kJ/mol (Crystal); method: DSC
Molar enthalpy of transition or fusion, kJ/mol	uncertainty
40.2	1.1

System: dodecan-1-ol; phases: Crystal, Liquid, Air at 1 atmosphere
Property: Normal melting temperature, K (Crystal); method: DTA
Normal melting temperature, K	uncertainty
297.58	2.03

System: dodecan-1-ol + dodecanoic acid; phases: Liquid, Crystal
Fixed: Pressure, kPa = 94.6
Property: Solid-liquid equilibrium temperature, K (Liquid); method: DTA
Mole fraction of dodecan-1-ol	Solid-liquid equilibrium temperature, K	uncertainty
0	318.07	2.03
0.1019	315.08	2.03
0.2001	313.52	2.03
0.2946	310.73	2.03
0.402	307.86	2.03
0.4994	303.57	2.03

System: dodecan-1-ol + dodecanoic acid; phases: Liquid, Crystal of intercomponent compound 1
Fixed: Pressure, kPa = 94.6
Property: Solid-liquid equilibrium temperature, K (Liquid); method: DTA
Mole fraction of dodecan-1-ol	Solid-liquid equilibrium temperature, K	uncertainty
0.6018	297.89	2.03
0.7009	297.32	2.03
0.7975	294.22	2.03

System: dodecan-1-ol + dodecanoic acid; phases: Liquid, Crystal
Fixed: Pressure, kPa = 94.6
Property: Solid-liquid equilibrium temperature, K (Liquid); method: DTA
Mole fraction of dodecan-1-ol	Solid-liquid equilibrium temperature, K	uncertainty
0.8979	294.71	2.03
1	297.58	2.03

System: dodecan-1-ol + dodecanoic acid; phases: Liquid, Crystal of intercomponent compound 1, Crystal
Property: Eutectic temperature, K (Liquid); method: DTA
Pressure, kPa	Eutectic temperature, K	uncertainty
94.6	293.1	2

System: dodecan-1-ol + dodecanoic acid; phases: Liquid, Crystal of intercomponent compound 1, Crystal
Property: Peritectic temperature, K (Liquid); method: DTA
Pressure, kPa	Peritectic temperature, K	uncertainty
94.6	297.2	2

System: 1-tetradecanol + tetradecanoic acid; phases: Liquid, Crystal
Fixed: Pressure, kPa = 94.6
Property: Solid-liquid equilibrium temperature, K (Liquid); method: DTA
Mole fraction of 1-tetradecanol	Solid-liquid equilibrium temperature, K	uncertainty
0	328.73	2.03
0.1037	325.63	2.03
0.2032	323.87	2.03
0.2973	323.15	2.03
0.399	320.87	2.03
0.4962	315.91	2.03
0.5966	310.3	2.03

System: 1-tetradecanol + tetradecanoic acid; phases: Liquid, Crystal of intercomponent compound 1
Property: Solid-liquid equilibrium temperature, K (Liquid); method: DTA
Mole fraction of 1-tetradecanol	Pressure, kPa	Solid-liquid equilibrium temperature, K	uncertainty
0.6972	94.6	308.62	2.03

System: 1-tetradecanol + tetradecanoic acid; phases: Liquid, Crystal
Fixed: Pressure, kPa = 94.6
Property: Solid-liquid equilibrium temperature, K (Liquid); method: DTA
Mole fraction of 1-tetradecanol	Solid-liquid equilibrium temperature, K	uncertainty
0.7987	308.55	2.03
0.904	310.24	2.03
1	311.29	2.03

System: 1-tetradecanol + tetradecanoic acid; phases: Liquid, Crystal of intercomponent compound 1, Crystal
Property: Eutectic temperature, K (Liquid); method: DTA
Pressure, kPa	Eutectic temperature, K	uncertainty
94.6	307.3	2

System: 1-tetradecanol + tetradecanoic acid; phases: Liquid, Crystal of intercomponent compound 1, Crystal
Property: Peritectic temperature, K (Liquid); method: DTA
Pressure, kPa	Peritectic temperature, K	uncertainty
94.6	309.9	2

System: dodecan-1-ol + decanoic acid; phases: Liquid, Crystal
Fixed: Pressure, kPa = 94.6
Property: Solid-liquid equilibrium temperature, K (Liquid); method: DTA
Mole fraction of dodecan-1-ol	Solid-liquid equilibrium temperature, K	uncertainty
0	305.28	2.03
0.1032	302.04	2.03
0.2002	300.3	2.03
0.3008	296.47	2.03
0.3989	293.6	2.03

System: dodecan-1-ol + decanoic acid; phases: Liquid, Crystal of intercomponent compound 1
Fixed: Pressure, kPa = 94.6
Property: Solid-liquid equilibrium temperature, K (Liquid); method: DTA
Mole fraction of dodecan-1-ol	Solid-liquid equilibrium temperature, K	uncertainty
0.4955	292.1	2.03
0.5856	291.57	2.03

System: dodecan-1-ol + decanoic acid; phases: Liquid, Crystal
Fixed: Pressure, kPa = 94.6
Property: Solid-liquid equilibrium temperature, K (Liquid); method: DTA
Mole fraction of dodecan-1-ol	Solid-liquid equilibrium temperature, K	uncertainty
0.6929	288.72	2.03
0.7975	292.71	2.03
0.8966	294.59	2.03
1	297.58	2.03

System: dodecan-1-ol + decanoic acid; phases: Liquid, Crystal of intercomponent compound 1, Crystal
Property: Eutectic temperature, K (Liquid); method: DTA
Pressure, kPa	Eutectic temperature, K	uncertainty
94.6	288.2	2

System: dodecan-1-ol + decanoic acid; phases: Liquid, Crystal of intercomponent compound 1, Crystal
Property: Eutectic temperature, K (Liquid); method: DTA
Pressure, kPa	Eutectic temperature, K	uncertainty
94.6	291.1	2

System: 1-hexadecanol + octadecanoic acid; phases: Liquid, Crystal
Fixed: Pressure, kPa = 94.6
Property: Solid-liquid equilibrium temperature, K (Liquid); method: DTA
Mole fraction of 1-hexadecanol	Solid-liquid equilibrium temperature, K	uncertainty
0	343.96	2.03
0.1	341.08	2.03
0.1979	339.09	2.03
0.4019	334.75	2.03
0.6029	329.72	2.03
0.7004	325.11	2.03

System: 1-hexadecanol + octadecanoic acid; phases: Liquid, Crystal
Fixed: Pressure, kPa = 94.6
Property: Solid-liquid equilibrium temperature, K (Liquid); method: DTA
Mole fraction of 1-hexadecanol	Solid-liquid equilibrium temperature, K	uncertainty
0.7997	319.97	2.03
0.9024	321.29	2.03
1	323.51	2.03

System: 1-hexadecanol + octadecanoic acid; phases: Liquid, Crystal, Crystal
Property: Eutectic temperature, K (Liquid); method: DTA
Pressure, kPa	Eutectic temperature, K	uncertainty
94.6	318.7	2

System: dodecan-1-ol + hexadecanoic acid; phases: Liquid, Crystal
Fixed: Pressure, kPa = 94.6
Property: Solid-liquid equilibrium temperature, K (Liquid); method: DTA
Mole fraction of dodecan-1-ol	Solid-liquid equilibrium temperature, K	uncertainty
0	336.47	2.03
0.1146	333.18	2.03
0.2174	331.38	2.03
0.3272	329.15	2.03
0.434	326.84	2.03
0.5335	323.14	2.03
0.627	320.12	2.03
0.7224	315.19	2.03
0.8172	310.36	2.03
0.9106	299.89	2.03

System: dodecan-1-ol + hexadecanoic acid; phases: Liquid, Crystal
Property: Solid-liquid equilibrium temperature, K (Liquid); method: DTA
Mole fraction of dodecan-1-ol	Pressure, kPa	Solid-liquid equilibrium temperature, K	uncertainty
1	94.6	297.58	2.03

System: dodecan-1-ol + hexadecanoic acid; phases: Liquid, Crystal, Crystal
Property: Eutectic temperature, K (Liquid); method: DTA
Pressure, kPa	Eutectic temperature, K	uncertainty
94.6	295.7	2
