Measured thermophysical data. High Pressure Volumetric Properties of the Binary Mixtures Di-isopropyl Ether + 2,2,4-Trimethylpentane
Source: J. Chem. Eng. Data, 2017, 10.1021/acs.jced.7b00580
Compound 1: diisopropyl ether, C6H14O, InChI=1S/C6H14O/c1-5(2)7-6(3)4/h5-6H,1-4H3, purity 99.5%
Compound 2: 2,2,4-trimethylpentane, C8H18, InChI=1S/C8H18/c1-7(2)6-8(3,4)5/h7H,6H2,1-5H3, purity 99.9%

System: diisopropyl ether + 2,2,4-trimethylpentane; phases: Liquid
Property: Mass density, kg/m3 (Liquid); method: Vibrating tube method
Mole fraction of diisopropyl ether	Pressure, kPa	Temperature, K	Mass density, kg/m3	uncertainty
0.1441	100	293.15	695.3	0.7
0.1441	500	293.15	695.7	0.7
0.1441	1000	293.15	696.2	0.7
0.1441	2000	293.15	697.2	0.7
0.1441	5000	293.15	700.1	0.7
0.1441	10000	293.15	704.8	0.7
0.1441	15000	293.15	709.2	0.8
0.1441	20000	293.15	713.3	0.8
0.1441	30000	293.15	721	0.8
0.1441	40000	293.15	727.8	0.9
0.1441	50000	293.15	734.2	0.9
0.1441	60000	293.15	740.1	1
0.1441	70000	293.15	745.7	1
0.1441	80000	293.15	750.8	1.1
0.1441	90000	293.15	755.7	1.1
0.1441	100000	293.15	760.4	1.2
0.1441	110000	293.15	764.8	1.2
0.1441	120000	293.15	768.9	1.3
0.1441	130000	293.15	773.1	1.4
0.1441	140000	293.15	776.8	1.4
0.1441	100	313.15	678.2	0.7
0.1441	500	313.15	678.6	0.7
0.1441	1000	313.15	679.2	0.7
0.1441	2000	313.15	680.4	0.7
0.1441	5000	313.15	683.9	0.7
0.1441	10000	313.15	689.2	0.7
0.1441	15000	313.15	694.1	0.8
0.1441	20000	313.15	698.7	0.8
0.1441	30000	313.15	707.1	0.8
0.1441	40000	313.15	714.8	0.9
0.1441	50000	313.15	721.6	0.9
0.1441	60000	313.15	728.1	1
0.1441	70000	313.15	734.1	1.1
0.1441	80000	313.15	739.5	1.1
0.1441	90000	313.15	744.7	1.2
0.1441	100000	313.15	749.7	1.2
0.1441	110000	313.15	754.4	1.3
0.1441	120000	313.15	758.8	1.3
0.1441	130000	313.15	763.1	1.4
0.1441	140000	313.15	767.2	1.4
0.1441	100	333.15	660.5	0.7
0.1441	500	333.15	661	0.7
0.1441	1000	333.15	661.7	0.7
0.1441	2000	333.15	663.1	0.7
0.1441	5000	333.15	667.2	0.7
0.1441	10000	333.15	673.3	0.7
0.1441	15000	333.15	678.9	0.8
0.1441	20000	333.15	684.1	0.8
0.1441	30000	333.15	693.5	0.8
0.1441	40000	333.15	702	0.9
0.1441	50000	333.15	709.4	1
0.1441	60000	333.15	716.3	1
0.1441	70000	333.15	722.7	1.1
0.1441	80000	333.15	728.5	1.1
0.1441	90000	333.15	734.1	1.2
0.1441	100000	333.15	739.4	1.3
0.1441	110000	333.15	744.2	1.3
0.1441	120000	333.15	749.1	1.4
0.1441	130000	333.15	753.5	1.4
0.1441	140000	333.15	757.8	1.5
0.1441	100	353.15	642.3	0.7
0.1441	500	353.15	642.9	0.7
0.1441	1000	353.15	643.7	0.7
0.1441	2000	353.15	645.4	0.7
0.1441	5000	353.15	650.1	0.7
0.1441	10000	353.15	657.2	0.8
0.1441	15000	353.15	663.6	0.8
0.1441	20000	353.15	669.5	0.8
0.1441	30000	353.15	679.9	0.9
0.1441	40000	353.15	689	0.9
0.1441	50000	353.15	697.2	1
0.1441	60000	353.15	704.7	1
0.1441	70000	353.15	711.5	1.1
0.1441	80000	353.15	717.8	1.2
0.1441	90000	353.15	723.7	1.2
0.1441	100000	353.15	729.2	1.3
0.1441	110000	353.15	734.5	1.4
0.1441	120000	353.15	739.5	1.4
0.1441	130000	353.15	744.1	1.5
0.1441	140000	353.15	748.6	1.5
0.1441	500	373.15	623.9	0.7
0.1441	1000	373.15	625	0.7
0.1441	2000	373.15	627	0.7
0.1441	5000	373.15	632.6	0.7
0.1441	10000	373.15	640.9	0.8
0.1441	15000	373.15	648.2	0.8
0.1441	20000	373.15	654.8	0.8
0.1441	30000	373.15	666.4	0.9
0.1441	40000	373.15	676.5	0.9
0.1441	50000	373.15	685.2	1
0.1441	60000	373.15	693.2	1.1
0.1441	70000	373.15	700.5	1.1
0.1441	80000	373.15	707.3	1.2
0.1441	90000	373.15	713.5	1.3
0.1441	100000	373.15	719.4	1.3
0.1441	110000	373.15	724.9	1.4
0.1441	120000	373.15	730.1	1.5
0.1441	130000	373.15	735	1.5
0.1441	140000	373.15	739.7	1.6
0.1441	500	393.15	605.9	0.7
0.1441	1000	393.15	607.1	0.7
0.1441	2000	393.15	609.5	0.7
0.1441	5000	393.15	616.2	0.7
0.1441	10000	393.15	625.9	0.8
0.1441	15000	393.15	634.2	0.8
0.1441	20000	393.15	641.8	0.8
0.1441	30000	393.15	654.5	0.9
0.1441	40000	393.15	665.6	0.9
0.1441	50000	393.15	675	1
0.1441	60000	393.15	683.6	1.1
0.1441	70000	393.15	691.5	1.1
0.1441	80000	393.15	698.5	1.2
0.1441	90000	393.15	705.2	1.3
0.1441	100000	393.15	711.3	1.4
0.1441	110000	393.15	717.1	1.4
0.1441	120000	393.15	722.5	1.5
0.1441	130000	393.15	727.7	1.5
0.1441	140000	393.15	732.5	1.6
0.3078	100	293.15	699.6	0.7
0.3078	500	293.15	699.9	0.7
0.3078	1000	293.15	700.5	0.7
0.3078	2000	293.15	701.5	0.7
0.3078	5000	293.15	704.6	0.7
0.3078	10000	293.15	709.5	0.7
0.3078	15000	293.15	713.9	0.8
0.3078	20000	293.15	718.2	0.8
0.3078	30000	293.15	726.1	0.8
0.3078	40000	293.15	733.2	0.9
0.3078	50000	293.15	739.6	0.9
0.3078	60000	293.15	745.8	1
0.3078	70000	293.15	751.5	1
0.3078	80000	293.15	756.7	1.1
0.3078	90000	293.15	761.8	1.1
0.3078	100000	293.15	766.6	1.2
0.3078	110000	293.15	771	1.2
0.3078	120000	293.15	775.4	1.3
0.3078	130000	293.15	779.6	1.3
0.3078	140000	293.15	783.4	1.4
0.3078	100	313.15	681.7	0.7
0.3078	500	313.15	682.2	0.7
0.3078	1000	313.15	682.9	0.7
0.3078	2000	313.15	684.1	0.7
0.3078	5000	313.15	687.7	0.7
0.3078	10000	313.15	693.2	0.7
0.3078	15000	313.15	698.3	0.8
0.3078	20000	313.15	703.1	0.8
0.3078	30000	313.15	711.8	0.8
0.3078	40000	313.15	719.7	0.9
0.3078	50000	313.15	726.7	0.9
0.3078	60000	313.15	733.3	1
0.3078	70000	313.15	739.4	1
0.3078	80000	313.15	745	1.1
0.3078	90000	313.15	750.4	1.2
0.3078	100000	313.15	755.5	1.2
0.3078	110000	313.15	760.3	1.3
0.3078	120000	313.15	764.8	1.3
0.3078	130000	313.15	769.2	1.4
0.3078	140000	313.15	773.4	1.4
0.3078	100	333.15	663.3	0.7
0.3078	500	333.15	663.9	0.7
0.3078	1000	333.15	664.6	0.7
0.3078	2000	333.15	666.1	0.7
0.3078	5000	333.15	670.3	0.7
0.3078	10000	333.15	676.7	0.7
0.3078	15000	333.15	682.5	0.8
0.3078	20000	333.15	687.8	0.8
0.3078	30000	333.15	697.6	0.8
0.3078	40000	333.15	706.3	0.9
0.3078	50000	333.15	714.1	1
0.3078	60000	333.15	721.1	1
0.3078	70000	333.15	727.6	1.1
0.3078	80000	333.15	733.7	1.1
0.3078	90000	333.15	739.4	1.2
0.3078	100000	333.15	744.8	1.2
0.3078	110000	333.15	749.8	1.3
0.3078	120000	333.15	754.7	1.4
0.3078	130000	333.15	759.3	1.4
0.3078	140000	333.15	763.7	1.5
0.3078	100	353.15	644.4	0.7
0.3078	500	353.15	645	0.7
0.3078	1000	353.15	645.9	0.7
0.3078	2000	353.15	647.6	0.7
0.3078	5000	353.15	652.5	0.7
0.3078	10000	353.15	660	0.8
0.3078	15000	353.15	666.7	0.8
0.3078	20000	353.15	672.8	0.8
0.3078	30000	353.15	683.5	0.9
0.3078	40000	353.15	693	0.9
0.3078	50000	353.15	701.4	1
0.3078	60000	353.15	709.1	1
0.3078	70000	353.15	716.2	1.1
0.3078	80000	353.15	722.5	1.2
0.3078	90000	353.15	728.6	1.2
0.3078	100000	353.15	734.4	1.3
0.3078	110000	353.15	739.7	1.3
0.3078	120000	353.15	744.8	1.4
0.3078	130000	353.15	749.6	1.5
0.3078	140000	353.15	754.1	1.5
0.3078	500	373.15	625.3	0.7
0.3078	1000	373.15	626.3	0.7
0.3078	2000	373.15	628.4	0.7
0.3078	5000	373.15	634.2	0.7
0.3078	10000	373.15	642.9	0.8
0.3078	15000	373.15	650.6	0.8
0.3078	20000	373.15	657.5	0.8
0.3078	30000	373.15	669.5	0.9
0.3078	40000	373.15	680	0.9
0.3078	50000	373.15	689	1
0.3078	60000	373.15	697.3	1.1
0.3078	70000	373.15	704.8	1.1
0.3078	80000	373.15	711.8	1.2
0.3078	90000	373.15	718.1	1.2
0.3078	100000	373.15	724.1	1.3
0.3078	110000	373.15	729.8	1.4
0.3078	120000	373.15	735.2	1.4
0.3078	130000	373.15	740.2	1.5
0.3078	140000	373.15	745	1.6
0.3078	500	393.15	606.2	0.7
0.3078	1000	393.15	607.5	0.7
0.3078	2000	393.15	610.1	0.7
0.3078	5000	393.15	617.1	0.7
0.3078	10000	393.15	627.4	0.8
0.3078	15000	393.15	636.2	0.8
0.3078	20000	393.15	644	0.8
0.3078	30000	393.15	657.3	0.9
0.3078	40000	393.15	668.7	0.9
0.3078	50000	393.15	678.4	1
0.3078	60000	393.15	687.3	1.1
0.3078	70000	393.15	695.5	1.1
0.3078	80000	393.15	702.7	1.2
0.3078	90000	393.15	709.5	1.3
0.3078	100000	393.15	715.8	1.3
0.3078	110000	393.15	721.8	1.4
0.3078	120000	393.15	727.4	1.5
0.3078	130000	393.15	732.6	1.5
0.3078	140000	393.15	737.5	1.6
0.4928	100	293.15	704.9	0.7
0.4928	500	293.15	705.4	0.7
0.4928	1000	293.15	705.9	0.7
0.4928	2000	293.15	707	0.7
0.4928	5000	293.15	710.2	0.7
0.4928	10000	293.15	715.2	0.7
0.4928	15000	293.15	719.9	0.8
0.4928	20000	293.15	724.3	0.8
0.4928	30000	293.15	732.4	0.8
0.4928	40000	293.15	739.7	0.9
0.4928	50000	293.15	746.4	0.9
0.4928	60000	293.15	752.7	1
0.4928	70000	293.15	758.6	1
0.4928	80000	293.15	764	1.1
0.4928	90000	293.15	769.2	1.1
0.4928	100000	293.15	774.1	1.2
0.4928	110000	293.15	778.7	1.2
0.4928	120000	293.15	783.1	1.3
0.4928	130000	293.15	787.5	1.3
0.4928	140000	293.15	791.4	1.3
0.4928	100	313.15	686.4	0.7
0.4928	500	313.15	686.9	0.7
0.4928	1000	313.15	687.6	0.7
0.4928	2000	313.15	688.8	0.7
0.4928	5000	313.15	692.6	0.7
0.4928	10000	313.15	698.3	0.7
0.4928	15000	313.15	703.6	0.8
0.4928	20000	313.15	708.6	0.8
0.4928	30000	313.15	717.6	0.8
0.4928	40000	313.15	725.8	0.9
0.4928	50000	313.15	733	0.9
0.4928	60000	313.15	739.8	1
0.4928	70000	313.15	746.2	1
0.4928	80000	313.15	752	1.1
0.4928	90000	313.15	757.4	1.1
0.4928	100000	313.15	762.7	1.2
0.4928	110000	313.15	767.7	1.2
0.4928	120000	313.15	772.4	1.3
0.4928	130000	313.15	776.9	1.3
0.4928	140000	313.15	781.2	1.4
0.4928	100	333.15	667.2	0.7
0.4928	500	333.15	667.8	0.7
0.4928	1000	333.15	668.6	0.7
0.4928	2000	333.15	670.1	0.7
0.4928	5000	333.15	674.5	0.7
0.4928	10000	333.15	681.2	0.7
0.4928	15000	333.15	687.3	0.8
0.4928	20000	333.15	692.8	0.8
0.4928	30000	333.15	702.9	0.8
0.4928	40000	333.15	712	0.9
0.4928	50000	333.15	719.9	0.9
0.4928	60000	333.15	727.2	1
0.4928	70000	333.15	734	1.1
0.4928	80000	333.15	740.2	1.1
0.4928	90000	333.15	746	1.2
0.4928	100000	333.15	751.7	1.2
0.4928	110000	333.15	756.8	1.3
0.4928	120000	333.15	761.9	1.3
0.4928	130000	333.15	766.5	1.4
0.4928	140000	333.15	771.1	1.4
0.4928	100	353.15	647.3	0.7
0.4928	500	353.15	647.9	0.7
0.4928	1000	353.15	648.9	0.7
0.4928	2000	353.15	650.7	0.7
0.4928	5000	353.15	655.9	0.7
0.4928	10000	353.15	663.7	0.8
0.4928	15000	353.15	670.7	0.8
0.4928	20000	353.15	677	0.8
0.4928	30000	353.15	688.3	0.8
0.4928	40000	353.15	698	0.9
0.4928	50000	353.15	706.8	1
0.4928	60000	353.15	714.8	1
0.4928	70000	353.15	722.1	1.1
0.4928	80000	353.15	728.7	1.1
0.4928	90000	353.15	735	1.2
0.4928	100000	353.15	740.8	1.3
0.4928	110000	353.15	746.4	1.3
0.4928	120000	353.15	751.6	1.4
0.4928	130000	353.15	756.5	1.4
0.4928	140000	353.15	761.3	1.5
0.4928	500	373.15	627.1	0.7
0.4928	1000	373.15	628.2	0.7
0.4928	2000	373.15	630.4	0.7
0.4928	5000	373.15	636.7	0.7
0.4928	10000	373.15	645.8	0.8
0.4928	15000	373.15	653.9	0.8
0.4928	20000	373.15	661.1	0.8
0.4928	30000	373.15	673.6	0.9
0.4928	40000	373.15	684.5	0.9
0.4928	50000	373.15	693.9	1
0.4928	60000	373.15	702.4	1
0.4928	70000	373.15	710.2	1.1
0.4928	80000	373.15	717.4	1.2
0.4928	90000	373.15	724	1.2
0.4928	100000	373.15	730.1	1.3
0.4928	110000	373.15	736	1.4
0.4928	120000	373.15	741.5	1.4
0.4928	130000	373.15	746.7	1.5
0.4928	140000	373.15	751.6	1.5
0.4928	500	393.15	606.9	0.7
0.4928	1000	393.15	608.3	0.7
0.4928	2000	393.15	611	0.7
0.4928	5000	393.15	618.6	0.7
0.4928	10000	393.15	629.5	0.8
0.4928	15000	393.15	638.6	0.8
0.4928	20000	393.15	646.8	0.8
0.4928	30000	393.15	660.8	0.9
0.4928	40000	393.15	672.6	0.9
0.4928	50000	393.15	682.7	1
0.4928	60000	393.15	692	1.1
0.4928	70000	393.15	700.4	1.1
0.4928	80000	393.15	707.9	1.2
0.4928	90000	393.15	715	1.3
0.4928	100000	393.15	721.4	1.3
0.4928	110000	393.15	727.6	1.4
0.4928	120000	393.15	733.4	1.4
0.4928	130000	393.15	738.8	1.5
0.4928	140000	393.15	743.9	1.6
0.6919	100	293.15	711.7	0.7
0.6919	500	293.15	712.1	0.7
0.6919	1000	293.15	712.6	0.7
0.6919	2000	293.15	713.8	0.7
0.6919	5000	293.15	717.1	0.7
0.6919	10000	293.15	722.3	0.7
0.6919	15000	293.15	727.1	0.8
0.6919	20000	293.15	731.7	0.8
0.6919	30000	293.15	740.1	0.8
0.6919	40000	293.15	747.7	0.9
0.6919	50000	293.15	754.6	0.9
0.6919	60000	293.15	761.1	0.9
0.6919	70000	293.15	767.2	1
0.6919	80000	293.15	772.7	1
0.6919	90000	293.15	778.1	1.1
0.6919	100000	293.15	783.2	1.1
0.6919	110000	293.15	787.9	1.2
0.6919	120000	293.15	792.5	1.2
0.6919	130000	293.15	796.9	1.3
0.6919	140000	293.15	801	1.3
0.6919	100	313.15	692.1	0.7
0.6919	500	313.15	692.6	0.7
0.6919	1000	313.15	693.3	0.7
0.6919	2000	313.15	694.7	0.7
0.6919	5000	313.15	698.5	0.7
0.6919	10000	313.15	704.6	0.7
0.6919	15000	313.15	710.1	0.8
0.6919	20000	313.15	715.2	0.8
0.6919	30000	313.15	724.5	0.8
0.6919	40000	313.15	733.1	0.9
0.6919	50000	313.15	740.5	0.9
0.6919	60000	313.15	747.6	1
0.6919	70000	313.15	754.1	1
0.6919	80000	313.15	760.1	1.1
0.6919	90000	313.15	765.8	1.1
0.6919	100000	313.15	771.2	1.2
0.6919	110000	313.15	776.3	1.2
0.6919	120000	313.15	781.2	1.3
0.6919	130000	313.15	785.8	1.3
0.6919	140000	313.15	790.3	1.4
0.6919	100	333.15	671.8	0.7
0.6919	500	333.15	672.5	0.7
0.6919	1000	333.15	673.3	0.7
0.6919	2000	333.15	675	0.7
0.6919	5000	333.15	679.6	0.7
0.6919	10000	333.15	686.5	0.8
0.6919	15000	333.15	692.9	0.8
0.6919	20000	333.15	698.7	0.8
0.6919	30000	333.15	709.2	0.8
0.6919	40000	333.15	718.6	0.9
0.6919	50000	333.15	726.8	0.9
0.6919	60000	333.15	734.4	1
0.6919	70000	333.15	741.5	1
0.6919	80000	333.15	747.9	1.1
0.6919	90000	333.15	754	1.2
0.6919	100000	333.15	759.7	1.2
0.6919	110000	333.15	765	1.3
0.6919	120000	333.15	770.3	1.3
0.6919	130000	333.15	775.1	1.4
0.6919	140000	333.15	779.7	1.4
0.6919	100	353.15	650.9	0.7
0.6919	500	353.15	651.6	0.7
0.6919	1000	353.15	652.6	0.7
0.6919	2000	353.15	654.5	0.7
0.6919	5000	353.15	660	0.7
0.6919	10000	353.15	668.2	0.8
0.6919	15000	353.15	675.5	0.8
0.6919	20000	353.15	682.2	0.8
0.6919	30000	353.15	693.9	0.8
0.6919	40000	353.15	704.1	0.9
0.6919	50000	353.15	713.2	1
0.6919	60000	353.15	721.5	1
0.6919	70000	353.15	729	1.1
0.6919	80000	353.15	735.8	1.1
0.6919	90000	353.15	742.4	1.2
0.6919	100000	353.15	748.4	1.2
0.6919	110000	353.15	754.2	1.3
0.6919	120000	353.15	759.6	1.3
0.6919	130000	353.15	764.7	1.4
0.6919	140000	353.15	769.5	1.4
0.6919	500	373.15	629.5	0.7
0.6919	1000	373.15	630.7	0.7
0.6919	2000	373.15	633.1	0.7
0.6919	5000	373.15	639.7	0.7
0.6919	10000	373.15	649.4	0.8
0.6919	15000	373.15	657.9	0.8
0.6919	20000	373.15	665.5	0.8
0.6919	30000	373.15	678.6	0.9
0.6919	40000	373.15	690	0.9
0.6919	50000	373.15	699.7	1
0.6919	60000	373.15	708.7	1
0.6919	70000	373.15	716.6	1.1
0.6919	80000	373.15	724.1	1.2
0.6919	90000	373.15	730.9	1.2
0.6919	100000	373.15	737.3	1.3
0.6919	110000	373.15	743.3	1.3
0.6919	120000	373.15	749.1	1.4
0.6919	130000	373.15	754.4	1.4
0.6919	140000	373.15	759.5	1.5
0.6919	500	393.15	607.8	0.7
0.6919	1000	393.15	609.3	0.7
0.6919	2000	393.15	612.2	0.7
0.6919	5000	393.15	620.4	0.7
0.6919	10000	393.15	632	0.8
0.6919	15000	393.15	641.8	0.8
0.6919	20000	393.15	650.4	0.8
0.6919	30000	393.15	665	0.9
0.6919	40000	393.15	677.5	0.9
0.6919	50000	393.15	688	1
0.6919	60000	393.15	697.8	1.1
0.6919	70000	393.15	706.3	1.1
0.6919	80000	393.15	714.1	1.2
0.6919	90000	393.15	721.4	1.2
0.6919	100000	393.15	728.1	1.3
0.6919	110000	393.15	734.6	1.4
0.6919	120000	393.15	740.4	1.4
0.6919	130000	393.15	746.1	1.5
0.6919	140000	393.15	751.4	1.5
0.8511	100	293.15	717.4	0.7
0.8511	500	293.15	717.9	0.7
0.8511	1000	293.15	718.5	0.7
0.8511	2000	293.15	719.7	0.7
0.8511	5000	293.15	723	0.7
0.8511	10000	293.15	728.4	0.7
0.8511	15000	293.15	733.4	0.8
0.8511	20000	293.15	738.1	0.8
0.8511	30000	293.15	746.8	0.8
0.8511	40000	293.15	754.6	0.9
0.8511	50000	293.15	761.6	0.9
0.8511	60000	293.15	768.3	0.9
0.8511	70000	293.15	774.5	1
0.8511	80000	293.15	780.2	1
0.8511	90000	293.15	785.7	1.1
0.8511	100000	293.15	791	1.1
0.8511	110000	293.15	795.9	1.2
0.8511	120000	293.15	800.5	1.2
0.8511	130000	293.15	805.1	1.2
0.8511	140000	293.15	809.4	1.3
0.8511	100	313.15	697.2	0.7
0.8511	500	313.15	697.7	0.7
0.8511	1000	313.15	698.4	0.7
0.8511	2000	313.15	699.8	0.7
0.8511	5000	313.15	703.8	0.7
0.8511	10000	313.15	710.1	0.7
0.8511	15000	313.15	715.8	0.8
0.8511	20000	313.15	721.1	0.8
0.8511	30000	313.15	730.7	0.8
0.8511	40000	313.15	739.5	0.9
0.8511	50000	313.15	747.2	0.9
0.8511	60000	313.15	754.6	1
0.8511	70000	313.15	761.3	1
0.8511	80000	313.15	767.6	1.1
0.8511	90000	313.15	773.4	1.1
0.8511	100000	313.15	779.1	1.1
0.8511	110000	313.15	784.3	1.2
0.8511	120000	313.15	789.3	1.2
0.8511	130000	313.15	794.2	1.3
0.8511	140000	313.15	798.8	1.3
0.8511	100	333.15	676.1	0.7
0.8511	500	333.15	676.8	0.7
0.8511	1000	333.15	677.6	0.7
0.8511	2000	333.15	679.3	0.7
0.8511	5000	333.15	684.1	0.7
0.8511	10000	333.15	691.5	0.8
0.8511	15000	333.15	698.1	0.8
0.8511	20000	333.15	704.2	0.8
0.8511	30000	333.15	715.3	0.8
0.8511	40000	333.15	725.1	0.9
0.8511	50000	333.15	733.8	0.9
0.8511	60000	333.15	741.7	1
0.8511	70000	333.15	749.1	1
0.8511	80000	333.15	755.8	1.1
0.8511	90000	333.15	762.1	1.1
0.8511	100000	333.15	768.1	1.2
0.8511	110000	333.15	773.6	1.2
0.8511	120000	333.15	779.1	1.3
0.8511	130000	333.15	784	1.3
0.8511	140000	333.15	788.9	1.4
0.8511	100	353.15	654.3	0.7
0.8511	500	353.15	655.2	0.7
0.8511	1000	353.15	656.5	0.7
0.8511	2000	353.15	658.6	0.7
0.8511	5000	353.15	664.5	0.7
0.8511	10000	353.15	673.3	0.8
0.8511	15000	353.15	681.1	0.8
0.8511	20000	353.15	688.1	0.8
0.8511	30000	353.15	700.5	0.8
0.8511	40000	353.15	711.2	0.9
0.8511	50000	353.15	720.7	1
0.8511	60000	353.15	729.3	1
0.8511	70000	353.15	737.1	1.1
0.8511	80000	353.15	744.2	1.1
0.8511	90000	353.15	750.9	1.2
0.8511	100000	353.15	757.2	1.2
0.8511	110000	353.15	763.1	1.3
0.8511	120000	353.15	768.8	1.3
0.8511	130000	353.15	774	1.4
0.8511	140000	353.15	779	1.4
0.8511	500	373.15	633.2	0.7
0.8511	1000	373.15	634.5	0.7
0.8511	2000	373.15	637.2	0.7
0.8511	5000	373.15	644.3	0.7
0.8511	10000	373.15	654.7	0.8
0.8511	15000	373.15	663.7	0.8
0.8511	20000	373.15	671.7	0.8
0.8511	30000	373.15	685.5	0.9
0.8511	40000	373.15	697.4	0.9
0.8511	50000	373.15	707.5	1
0.8511	60000	373.15	716.8	1
0.8511	70000	373.15	725.1	1.1
0.8511	80000	373.15	732.9	1.1
0.8511	90000	373.15	739.9	1.2
0.8511	100000	373.15	746.5	1.3
0.8511	110000	373.15	752.8	1.3
0.8511	120000	373.15	758.7	1.4
0.8511	130000	373.15	764.2	1.4
0.8511	140000	373.15	769.4	1.5
0.8511	500	393.15	611	0.7
0.8511	1000	393.15	612.9	0.7
0.8511	2000	393.15	616.3	0.7
0.8511	5000	393.15	625.1	0.7
0.8511	10000	393.15	637.5	0.8
0.8511	15000	393.15	647.8	0.8
0.8511	20000	393.15	657	0.8
0.8511	30000	393.15	672.3	0.9
0.8511	40000	393.15	685.2	0.9
0.8511	50000	393.15	696.1	1
0.8511	60000	393.15	706	1
0.8511	70000	393.15	715.1	1.1
0.8511	80000	393.15	723.1	1.2
0.8511	90000	393.15	730.6	1.2
0.8511	100000	393.15	737.5	1.3
0.8511	110000	393.15	744.1	1.3
0.8511	120000	393.15	750.1	1.4
0.8511	130000	393.15	755.9	1.4
0.8511	140000	393.15	761.4	1.5
