Measured thermophysical data. Solid-Liquid Equilibria and Characterization of the Reaction Mixture To Produce Sucrose Palmitate in Solvent-Free Media
Source: J. Chem. Eng. Data, 2019, 10.1021/acs.jced.8b01026
Compound 1: methyl hexadecanoate, C17H34O2, InChI=1S/C17H34O2/c1-3-4-5-6-7-8-9-10-11-12-13-14-15-16-17(18)19-2/h3-16H2,1-2H3, purity 99.5%
Compound 2: D-sucrose, C12H22O11, InChI=1S/C12H22O11/c13-1-4-6(16)8(18)9(19)11(21-4)23-12(3-15)10(20)7(17)5(2-14)22-12/h4-11,13-20H,1-3H2/t4-,5-,6-,7-,8+,9-,10+,11-,12+/m1/s1, purity 99.9%

System: D-sucrose + methyl hexadecanoate; phases: Liquid, Crystal
Fixed: Pressure, kPa = 100
Property: Mass ratio of solute to solvent of D-sucrose (Liquid); method: HPLC
Temperature, K	Mass ratio of solute to solvent of D-sucrose	uncertainty
363.15	0.00015	0.00015
383.15	0.00027	0.00027
403.15	0.00036	0.00036
