Measured thermophysical data. Investigation of Surface and Solubility Properties of N-Vinylimidazolium Tetrahalogenidoferrate(III) Magnetic Ionic Liquids Using Density Functional Theory
Source: J. Chem. Eng. Data, 2016, 10.1021/acs.jced.5b00395
Compound 1: 1-butyl-3-ethenyl-1H-imidazolium tetrachloroferrate(III), C9H15Cl4FeN2, InChI=1S/C9H15N2.4ClH.Fe/c1-3-5-6-11-8-7-10(4-2)9-11;;;;;/h4,7-9H,2-3,5-6H2,1H3;4*1H;/q+1;;;;;+3/p-4, purity 98%
Compound 2: 3-octyl-1-vinyl-1H-imidazolium tetrachloroferrate(III), C13H23Cl4FeN2, InChI=1S/C13H23N2.4ClH.Fe/c1-3-5-6-7-8-9-10-15-12-11-14(4-2)13-15;;;;;/h4,11-13H,2-3,5-10H2,1H3;4*1H;/q+1;;;;;+3/p-4, purity 98%
Compound 3: 3-(2-ethoxy-2-oxoethyl)-1-vinylimidazolium tetrachloroferrate(III), C9H13Cl4FeN2O2, InChI=1S/C9H13N2O2.4ClH.Fe/c1-3-10-5-6-11(8-10)7-9(12)13-4-2;;;;;/h3,5-6,8H,1,4,7H2,2H3;4*1H;/q+1;;;;;+3/p-4, purity 98%
Compound 4: 3-(1-ethoxy-1-oxopropan-2-yl)-1-vinylimidazolium tetrachloroferrate(III), C10H15Cl4FeN2O2, InChI=1S/C10H15N2O2.4ClH.Fe/c1-4-11-6-7-12(8-11)9(3)10(13)14-5-2;;;;;/h4,6-9H,1,5H2,2-3H3;4*1H;/q+1;;;;;+3/p-4, purity 98%
Compound 5: water, H2O, InChI=1S/H2O/h1H2, purity 99.5%
Compound 6: methanol, CH4O, InChI=1S/CH4O/c1-2/h2H,1H3, purity 99.5%
Compound 7: ethanol, C2H6O, InChI=1S/C2H6O/c1-2-3/h3H,2H2,1H3, purity 99.5%
Compound 8: acetone, C3H6O, InChI=1S/C3H6O/c1-3(2)4/h1-2H3, purity 99.5%
Compound 9: ethyl acetate, C4H8O2, InChI=1S/C4H8O2/c1-3-6-4(2)5/h3H2,1-2H3, purity 99.5%
Compound 10: trichloromethane, CHCl3, InChI=1S/CHCl3/c2-1(3)4/h1H, purity 99.5%
Compound 11: benzene, C6H6, InChI=1S/C6H6/c1-2-4-6-5-3-1/h1-6H, purity 99.5%
Compound 12: tetrachloromethane, CCl4, InChI=1S/CCl4/c2-1(3,4)5, purity 99.5%
Compound 13: 3-butyl-1-vinylimidazolium bromotrichloroferrate(III), C9H15BrCl3FeN2, InChI=1S/C9H15N2.BrH.3ClH.Fe/c1-3-5-6-11-8-7-10(4-2)9-11;;;;;/h4,7-9H,2-3,5-6H2,1H3;4*1H;/q+1;;;;;+3/p-4, purity 98%
Compound 14: 3-pentyl-1-vinylimidazolium bromotrichloroferrate(III), C10H17BrCl3FeN2, InChI=1S/C10H17N2.BrH.3ClH.Fe/c1-3-5-6-7-12-9-8-11(4-2)10-12;;;;;/h4,8-10H,2-3,5-7H2,1H3;4*1H;/q+1;;;;;+3/p-4, purity 98%
Compound 15: 1-hexyl-3-vinylimidazolium bromotrichloroferrate(III), C11H19BrCl3FeN2, InChI=1S/C11H19N2.BrH.3ClH.Fe/c1-3-5-6-7-8-13-10-9-12(4-2)11-13;;;;;/h4,9-11H,2-3,5-8H2,1H3;4*1H;/q+1;;;;;+3/p-4, purity 98%
Compound 16: 1-octyl-3-vinylimidazolium bromotrichloroferrate(III), C13H23BrCl3FeN2, InChI=1S/C13H23N2.BrH.3ClH.Fe/c1-3-5-6-7-8-9-10-15-12-11-14(4-2)13-15;;;;;/h4,11-13H,2-3,5-10H2,1H3;4*1H;/q+1;;;;;+3/p-4, purity 98%
Compound 17: 1-decyl-3-vinylimidazolium bromotrichloroferrate(III), C15H27BrCl3FeN2, InChI=1S/C15H27N2.BrH.3ClH.Fe/c1-3-5-6-7-8-9-10-11-12-17-14-13-16(4-2)15-17;;;;;/h4,13-15H,2-3,5-12H2,1H3;4*1H;/q+1;;;;;+3/p-4, purity 98%

System: 1-butyl-3-ethenyl-1H-imidazolium tetrachloroferrate(III); phases: Crystal, Liquid, Air at 1 atmosphere
Property: Triple point temperature, K (Crystal); method: DSC
Triple point temperature, K	uncertainty
272.85	2.1

System: 1-butyl-3-ethenyl-1H-imidazolium tetrachloroferrate(III); phases: Liquid, Air at 1 atmosphere
Property: Surface tension liquid-gas, N/m (Liquid); method: Maximal bubble pressure
Temperature, K	Surface tension liquid-gas, N/m	uncertainty
293.15	0.05008	0.00504
298.15	0.0493	0.00496
303.15	0.04843	0.00487
308.15	0.04782	0.00481
313.15	0.04682	0.00471
318.15	0.04597	0.00463
323.15	0.04512	0.00454
328.15	0.04431	0.00446
333.15	0.0435	0.00438

System: 3-octyl-1-vinyl-1H-imidazolium tetrachloroferrate(III); phases: Crystal, Liquid, Air at 1 atmosphere
Property: Triple point temperature, K (Crystal); method: DSC
Triple point temperature, K	uncertainty
273.95	2.1

System: 3-octyl-1-vinyl-1H-imidazolium tetrachloroferrate(III); phases: Glass, Liquid, Air at 1 atmosphere
Property: Triple point temperature, K (Glass); method: DSC
Triple point temperature, K	uncertainty
199.55	2.1

System: 3-octyl-1-vinyl-1H-imidazolium tetrachloroferrate(III); phases: Liquid, Air at 1 atmosphere
Property: Surface tension liquid-gas, N/m (Liquid); method: Maximal bubble pressure
Temperature, K	Surface tension liquid-gas, N/m	uncertainty
293.15	0.04701	0.00473
298.15	0.04621	0.00465
303.15	0.04543	0.00457
308.15	0.04465	0.00449
313.15	0.04389	0.00442
318.15	0.04309	0.00434
323.15	0.04228	0.00426
328.15	0.04149	0.00418
333.15	0.04072	0.0041

System: 3-(2-ethoxy-2-oxoethyl)-1-vinylimidazolium tetrachloroferrate(III); phases: Glass, Liquid, Air at 1 atmosphere
Property: Triple point temperature, K (Glass); method: DSC
Triple point temperature, K	uncertainty
229.55	2.1

System: 3-(1-ethoxy-1-oxopropan-2-yl)-1-vinylimidazolium tetrachloroferrate(III); phases: Glass, Liquid, Air at 1 atmosphere
Property: Triple point temperature, K (Glass); method: DSC
Triple point temperature, K	uncertainty
227.25	2.1

System: 3-butyl-1-vinylimidazolium bromotrichloroferrate(III); phases: Crystal, Liquid, Air at 1 atmosphere
Property: Triple point temperature, K (Crystal); method: DSC
Triple point temperature, K	uncertainty
277.15	2.1

System: 3-butyl-1-vinylimidazolium bromotrichloroferrate(III); phases: Liquid, Air at 1 atmosphere
Property: Surface tension liquid-gas, N/m (Liquid); method: Maximal bubble pressure
Temperature, K	Surface tension liquid-gas, N/m	uncertainty
293.15	0.05154	0.00519
298.15	0.05089	0.00512
303.15	0.05015	0.00505
308.15	0.04936	0.00497
313.15	0.04858	0.00489
318.15	0.04774	0.00481
323.15	0.04695	0.00473
328.15	0.04601	0.00463
333.15	0.04514	0.00454

System: 3-pentyl-1-vinylimidazolium bromotrichloroferrate(III); phases: Crystal, Liquid, Air at 1 atmosphere
Property: Triple point temperature, K (Crystal); method: DSC
Triple point temperature, K	uncertainty
276.55	2.1

System: 3-pentyl-1-vinylimidazolium bromotrichloroferrate(III); phases: Liquid, Air at 1 atmosphere
Property: Surface tension liquid-gas, N/m (Liquid); method: Maximal bubble pressure
Temperature, K	Surface tension liquid-gas, N/m	uncertainty
293.15	0.05045	0.00508
298.15	0.04981	0.00501
303.15	0.04907	0.00494
308.15	0.04828	0.00486
313.15	0.04731	0.00476
318.15	0.04655	0.00469
323.15	0.04572	0.0046
328.15	0.04495	0.00452
333.15	0.04414	0.00444

System: 1-hexyl-3-vinylimidazolium bromotrichloroferrate(III); phases: Crystal, Liquid, Air at 1 atmosphere
Property: Triple point temperature, K (Crystal); method: DSC
Triple point temperature, K	uncertainty
266.25	2.1

System: 1-hexyl-3-vinylimidazolium bromotrichloroferrate(III); phases: Liquid, Air at 1 atmosphere
Property: Surface tension liquid-gas, N/m (Liquid); method: Maximal bubble pressure
Temperature, K	Surface tension liquid-gas, N/m	uncertainty
293.15	0.04952	0.00498
298.15	0.04878	0.00491
303.15	0.04796	0.00483
308.15	0.0471	0.00474
313.15	0.04623	0.00465
318.15	0.0455	0.00458
323.15	0.04477	0.00451
328.15	0.04391	0.00442
333.15	0.04316	0.00434

System: 1-octyl-3-vinylimidazolium bromotrichloroferrate(III); phases: Crystal, Liquid, Air at 1 atmosphere
Property: Triple point temperature, K (Crystal); method: DSC
Triple point temperature, K	uncertainty
271.65	2.1

System: 1-octyl-3-vinylimidazolium bromotrichloroferrate(III); phases: Liquid, Air at 1 atmosphere
Property: Surface tension liquid-gas, N/m (Liquid); method: Maximal bubble pressure
Temperature, K	Surface tension liquid-gas, N/m	uncertainty
293.15	0.04821	0.00485
298.15	0.04753	0.00478
303.15	0.04684	0.00472
308.15	0.04611	0.00464
313.15	0.04542	0.00457
318.15	0.0447	0.0045
323.15	0.044	0.00443
328.15	0.04324	0.00435
333.15	0.04239	0.00427

System: 1-decyl-3-vinylimidazolium bromotrichloroferrate(III); phases: Crystal, Liquid, Air at 1 atmosphere
Property: Triple point temperature, K (Crystal); method: DSC
Triple point temperature, K	uncertainty
289.85	2.1

System: 1-decyl-3-vinylimidazolium bromotrichloroferrate(III); phases: Liquid, Air at 1 atmosphere
Property: Surface tension liquid-gas, N/m (Liquid); method: Maximal bubble pressure
Temperature, K	Surface tension liquid-gas, N/m	uncertainty
293.15	0.04723	0.00475
298.15	0.04652	0.00468
303.15	0.04582	0.00461
308.15	0.04512	0.00454
313.15	0.04444	0.00447
318.15	0.04375	0.0044
323.15	0.043	0.00433
328.15	0.04228	0.00426
333.15	0.04158	0.00419

System: water + 1-butyl-3-ethenyl-1H-imidazolium tetrachloroferrate(III); phases: Liquid mixture 1, Liquid mixture 2
Property: Mass ratio of solute to solvent of 1-butyl-3-ethenyl-1H-imidazolium tetrachloroferrate(III) (Liquid mixture 1); method: conductometric
Temperature, K	Pressure, kPa	Mass ratio of solute to solvent of 1-butyl-3-ethenyl-1H-imidazolium tetrachloroferrate(III)	uncertainty
293.15	100	0.37198	0.01684

System: methanol + 1-butyl-3-ethenyl-1H-imidazolium tetrachloroferrate(III); phases: Liquid mixture 1, Liquid mixture 2
Property: Mass ratio of solute to solvent of 1-butyl-3-ethenyl-1H-imidazolium tetrachloroferrate(III) (Liquid mixture 1); method: conductometric
Temperature, K	Pressure, kPa	Mass ratio of solute to solvent of 1-butyl-3-ethenyl-1H-imidazolium tetrachloroferrate(III)	uncertainty
293.15	100	0.64712	0.02695

System: ethanol + 1-butyl-3-ethenyl-1H-imidazolium tetrachloroferrate(III); phases: Liquid mixture 1, Liquid mixture 2
Property: Mass ratio of solute to solvent of 1-butyl-3-ethenyl-1H-imidazolium tetrachloroferrate(III) (Liquid mixture 1); method: conductometric
Temperature, K	Pressure, kPa	Mass ratio of solute to solvent of 1-butyl-3-ethenyl-1H-imidazolium tetrachloroferrate(III)	uncertainty
293.15	100	0.49466	0.0224

System: acetone + 1-butyl-3-ethenyl-1H-imidazolium tetrachloroferrate(III); phases: Liquid mixture 1, Liquid mixture 2
Property: Mass ratio of solute to solvent of 1-butyl-3-ethenyl-1H-imidazolium tetrachloroferrate(III) (Liquid mixture 1); method: conductometric
Temperature, K	Pressure, kPa	Mass ratio of solute to solvent of 1-butyl-3-ethenyl-1H-imidazolium tetrachloroferrate(III)	uncertainty
293.15	100	1.01204	0.04048

System: ethyl acetate + 1-butyl-3-ethenyl-1H-imidazolium tetrachloroferrate(III); phases: Liquid mixture 1, Liquid mixture 2
Property: Mass ratio of solute to solvent of 1-butyl-3-ethenyl-1H-imidazolium tetrachloroferrate(III) (Liquid mixture 1); method: conductometric
Temperature, K	Pressure, kPa	Mass ratio of solute to solvent of 1-butyl-3-ethenyl-1H-imidazolium tetrachloroferrate(III)	uncertainty
293.15	100	1.0809	0.0433

System: trichloromethane + 1-butyl-3-ethenyl-1H-imidazolium tetrachloroferrate(III); phases: Liquid mixture 1, Liquid mixture 2
Property: Mass ratio of solute to solvent of 1-butyl-3-ethenyl-1H-imidazolium tetrachloroferrate(III) (Liquid mixture 1); method: conductometric
Temperature, K	Pressure, kPa	Mass ratio of solute to solvent of 1-butyl-3-ethenyl-1H-imidazolium tetrachloroferrate(III)	uncertainty
293.15	100	0.03497	0.00495

System: benzene + 1-butyl-3-ethenyl-1H-imidazolium tetrachloroferrate(III); phases: Liquid mixture 1, Liquid mixture 2
Property: Mass ratio of solute to solvent of 1-butyl-3-ethenyl-1H-imidazolium tetrachloroferrate(III) (Liquid mixture 1); method: conductometric
Temperature, K	Pressure, kPa	Mass ratio of solute to solvent of 1-butyl-3-ethenyl-1H-imidazolium tetrachloroferrate(III)	uncertainty
293.15	100	0.01778	0.00252

System: tetrachloromethane + 1-butyl-3-ethenyl-1H-imidazolium tetrachloroferrate(III); phases: Liquid mixture 1, Liquid mixture 2
Property: Mass ratio of solute to solvent of 1-butyl-3-ethenyl-1H-imidazolium tetrachloroferrate(III) (Liquid mixture 1); method: conductometric
Temperature, K	Pressure, kPa	Mass ratio of solute to solvent of 1-butyl-3-ethenyl-1H-imidazolium tetrachloroferrate(III)	uncertainty
293.15	100	0.00583	0.00083

System: water + 3-octyl-1-vinyl-1H-imidazolium tetrachloroferrate(III); phases: Liquid mixture 1, Liquid mixture 2
Property: Mass ratio of solute to solvent of 3-octyl-1-vinyl-1H-imidazolium tetrachloroferrate(III) (Liquid mixture 1); method: conductometric
Temperature, K	Pressure, kPa	Mass ratio of solute to solvent of 3-octyl-1-vinyl-1H-imidazolium tetrachloroferrate(III)	uncertainty
293.15	100	0.31071	0.01407

System: methanol + 3-octyl-1-vinyl-1H-imidazolium tetrachloroferrate(III); phases: Liquid mixture 1, Liquid mixture 2
Property: Mass ratio of solute to solvent of 3-octyl-1-vinyl-1H-imidazolium tetrachloroferrate(III) (Liquid mixture 1); method: conductometric
Temperature, K	Pressure, kPa	Mass ratio of solute to solvent of 3-octyl-1-vinyl-1H-imidazolium tetrachloroferrate(III)	uncertainty
293.15	100	0.57824	0.0248

System: ethanol + 3-octyl-1-vinyl-1H-imidazolium tetrachloroferrate(III); phases: Liquid mixture 1, Liquid mixture 2
Property: Mass ratio of solute to solvent of 3-octyl-1-vinyl-1H-imidazolium tetrachloroferrate(III) (Liquid mixture 1); method: conductometric
Temperature, K	Pressure, kPa	Mass ratio of solute to solvent of 3-octyl-1-vinyl-1H-imidazolium tetrachloroferrate(III)	uncertainty
293.15	100	0.44728	0.02025

System: acetone + 3-octyl-1-vinyl-1H-imidazolium tetrachloroferrate(III); phases: Liquid mixture 1, Liquid mixture 2
Property: Mass ratio of solute to solvent of 3-octyl-1-vinyl-1H-imidazolium tetrachloroferrate(III) (Liquid mixture 1); method: conductometric
Temperature, K	Pressure, kPa	Mass ratio of solute to solvent of 3-octyl-1-vinyl-1H-imidazolium tetrachloroferrate(III)	uncertainty
293.15	100	0.87056	0.03493

System: ethyl acetate + 3-octyl-1-vinyl-1H-imidazolium tetrachloroferrate(III); phases: Liquid mixture 1, Liquid mixture 2
Property: Mass ratio of solute to solvent of 3-octyl-1-vinyl-1H-imidazolium tetrachloroferrate(III) (Liquid mixture 1); method: conductometric
Temperature, K	Pressure, kPa	Mass ratio of solute to solvent of 3-octyl-1-vinyl-1H-imidazolium tetrachloroferrate(III)	uncertainty
293.15	100	1.4213	0.05755

System: trichloromethane + 3-octyl-1-vinyl-1H-imidazolium tetrachloroferrate(III); phases: Liquid mixture 1, Liquid mixture 2
Property: Mass ratio of solute to solvent of 3-octyl-1-vinyl-1H-imidazolium tetrachloroferrate(III) (Liquid mixture 1); method: conductometric
Temperature, K	Pressure, kPa	Mass ratio of solute to solvent of 3-octyl-1-vinyl-1H-imidazolium tetrachloroferrate(III)	uncertainty
293.15	100	0.06008	0.00851

System: benzene + 3-octyl-1-vinyl-1H-imidazolium tetrachloroferrate(III); phases: Liquid mixture 1, Liquid mixture 2
Property: Mass ratio of solute to solvent of 3-octyl-1-vinyl-1H-imidazolium tetrachloroferrate(III) (Liquid mixture 1); method: conductometric
Temperature, K	Pressure, kPa	Mass ratio of solute to solvent of 3-octyl-1-vinyl-1H-imidazolium tetrachloroferrate(III)	uncertainty
293.15	100	0.04039	0.00572

System: tetrachloromethane + 3-octyl-1-vinyl-1H-imidazolium tetrachloroferrate(III); phases: Liquid mixture 1, Liquid mixture 2
Property: Mass ratio of solute to solvent of 3-octyl-1-vinyl-1H-imidazolium tetrachloroferrate(III) (Liquid mixture 1); method: conductometric
Temperature, K	Pressure, kPa	Mass ratio of solute to solvent of 3-octyl-1-vinyl-1H-imidazolium tetrachloroferrate(III)	uncertainty
293.15	100	0.01138	0.00161

System: water + 3-(2-ethoxy-2-oxoethyl)-1-vinylimidazolium tetrachloroferrate(III); phases: Liquid mixture 1, Liquid mixture 2
Property: Mass ratio of solute to solvent of 3-(2-ethoxy-2-oxoethyl)-1-vinylimidazolium tetrachloroferrate(III) (Liquid mixture 1); method: conductometric
Temperature, K	Pressure, kPa	Mass ratio of solute to solvent of 3-(2-ethoxy-2-oxoethyl)-1-vinylimidazolium tetrachloroferrate(III)	uncertainty
293.15	100	0.44263	0.02004

System: methanol + 3-(2-ethoxy-2-oxoethyl)-1-vinylimidazolium tetrachloroferrate(III); phases: Liquid mixture 1, Liquid mixture 2
Property: Mass ratio of solute to solvent of 3-(2-ethoxy-2-oxoethyl)-1-vinylimidazolium tetrachloroferrate(III) (Liquid mixture 1); method: conductometric
Temperature, K	Pressure, kPa	Mass ratio of solute to solvent of 3-(2-ethoxy-2-oxoethyl)-1-vinylimidazolium tetrachloroferrate(III)	uncertainty
293.15	100	0.76719	0.03108

System: ethanol + 3-(2-ethoxy-2-oxoethyl)-1-vinylimidazolium tetrachloroferrate(III); phases: Liquid mixture 1, Liquid mixture 2
Property: Mass ratio of solute to solvent of 3-(2-ethoxy-2-oxoethyl)-1-vinylimidazolium tetrachloroferrate(III) (Liquid mixture 1); method: conductometric
Temperature, K	Pressure, kPa	Mass ratio of solute to solvent of 3-(2-ethoxy-2-oxoethyl)-1-vinylimidazolium tetrachloroferrate(III)	uncertainty
293.5	100	0.56853	0.02451

System: acetone + 3-(2-ethoxy-2-oxoethyl)-1-vinylimidazolium tetrachloroferrate(III); phases: Liquid mixture 1, Liquid mixture 2
Property: Mass ratio of solute to solvent of 3-(2-ethoxy-2-oxoethyl)-1-vinylimidazolium tetrachloroferrate(III) (Liquid mixture 1); method: conductometric
Temperature, K	Pressure, kPa	Mass ratio of solute to solvent of 3-(2-ethoxy-2-oxoethyl)-1-vinylimidazolium tetrachloroferrate(III)	uncertainty
293.15	100	1.20235	0.04829

System: ethyl acetate + 3-(2-ethoxy-2-oxoethyl)-1-vinylimidazolium tetrachloroferrate(III); phases: Liquid mixture 1, Liquid mixture 2
Property: Mass ratio of solute to solvent of 3-(2-ethoxy-2-oxoethyl)-1-vinylimidazolium tetrachloroferrate(III) (Liquid mixture 1); method: conductometric
Temperature, K	Pressure, kPa	Mass ratio of solute to solvent of 3-(2-ethoxy-2-oxoethyl)-1-vinylimidazolium tetrachloroferrate(III)	uncertainty
293.15	100	0.85359	0.03428

System: trichloromethane + 3-(2-ethoxy-2-oxoethyl)-1-vinylimidazolium tetrachloroferrate(III); phases: Liquid mixture 1, Liquid mixture 2
Property: Mass ratio of solute to solvent of 3-(2-ethoxy-2-oxoethyl)-1-vinylimidazolium tetrachloroferrate(III) (Liquid mixture 1); method: conductometric
Temperature, K	Pressure, kPa	Mass ratio of solute to solvent of 3-(2-ethoxy-2-oxoethyl)-1-vinylimidazolium tetrachloroferrate(III)	uncertainty
293.15	100	0.02546	0.00361

System: benzene + 3-(2-ethoxy-2-oxoethyl)-1-vinylimidazolium tetrachloroferrate(III); phases: Liquid mixture 1, Liquid mixture 2
Property: Mass ratio of solute to solvent of 3-(2-ethoxy-2-oxoethyl)-1-vinylimidazolium tetrachloroferrate(III) (Liquid mixture 1); method: conductometric
Temperature, K	Pressure, kPa	Mass ratio of solute to solvent of 3-(2-ethoxy-2-oxoethyl)-1-vinylimidazolium tetrachloroferrate(III)	uncertainty
293.15	100	0.01388	0.00197

System: water + 3-(1-ethoxy-1-oxopropan-2-yl)-1-vinylimidazolium tetrachloroferrate(III); phases: Liquid mixture 1, Liquid mixture 2
Property: Mass ratio of solute to solvent of 3-(1-ethoxy-1-oxopropan-2-yl)-1-vinylimidazolium tetrachloroferrate(III) (Liquid mixture 1); method: conductometric
Temperature, K	Pressure, kPa	Mass ratio of solute to solvent of 3-(1-ethoxy-1-oxopropan-2-yl)-1-vinylimidazolium tetrachloroferrate(III)	uncertainty
293.15	100	0.43766	0.01982

System: methanol + 3-(1-ethoxy-1-oxopropan-2-yl)-1-vinylimidazolium tetrachloroferrate(III); phases: Liquid mixture 1, Liquid mixture 2
Property: Mass ratio of solute to solvent of 3-(1-ethoxy-1-oxopropan-2-yl)-1-vinylimidazolium tetrachloroferrate(III) (Liquid mixture 1); method: conductometric
Temperature, K	Pressure, kPa	Mass ratio of solute to solvent of 3-(1-ethoxy-1-oxopropan-2-yl)-1-vinylimidazolium tetrachloroferrate(III)	uncertainty
293.15	100	0.7328	0.02986

System: ethanol + 3-(1-ethoxy-1-oxopropan-2-yl)-1-vinylimidazolium tetrachloroferrate(III); phases: Liquid mixture 1, Liquid mixture 2
Property: Mass ratio of solute to solvent of 3-(1-ethoxy-1-oxopropan-2-yl)-1-vinylimidazolium tetrachloroferrate(III) (Liquid mixture 1); method: conductometric
Temperature, K	Pressure, kPa	Mass ratio of solute to solvent of 3-(1-ethoxy-1-oxopropan-2-yl)-1-vinylimidazolium tetrachloroferrate(III)	uncertainty
293.15	100	0.5336	0.02353

System: acetone + 3-(1-ethoxy-1-oxopropan-2-yl)-1-vinylimidazolium tetrachloroferrate(III); phases: Liquid mixture 1, Liquid mixture 2
Property: Mass ratio of solute to solvent of 3-(1-ethoxy-1-oxopropan-2-yl)-1-vinylimidazolium tetrachloroferrate(III) (Liquid mixture 1); method: conductometric
Temperature, K	Pressure, kPa	Mass ratio of solute to solvent of 3-(1-ethoxy-1-oxopropan-2-yl)-1-vinylimidazolium tetrachloroferrate(III)	uncertainty
293.15	100	1.17395	0.0471

System: ethyl acetate + 3-(1-ethoxy-1-oxopropan-2-yl)-1-vinylimidazolium tetrachloroferrate(III); phases: Liquid mixture 1, Liquid mixture 2
Property: Mass ratio of solute to solvent of 3-(1-ethoxy-1-oxopropan-2-yl)-1-vinylimidazolium tetrachloroferrate(III) (Liquid mixture 1); method: conductometric
Temperature, K	Pressure, kPa	Mass ratio of solute to solvent of 3-(1-ethoxy-1-oxopropan-2-yl)-1-vinylimidazolium tetrachloroferrate(III)	uncertainty
293.15	100	0.92813	0.03716

System: trichloromethane + 3-(1-ethoxy-1-oxopropan-2-yl)-1-vinylimidazolium tetrachloroferrate(III); phases: Liquid mixture 1, Liquid mixture 2
Property: Mass ratio of solute to solvent of 3-(1-ethoxy-1-oxopropan-2-yl)-1-vinylimidazolium tetrachloroferrate(III) (Liquid mixture 1); method: conductometric
Temperature, K	Pressure, kPa	Mass ratio of solute to solvent of 3-(1-ethoxy-1-oxopropan-2-yl)-1-vinylimidazolium tetrachloroferrate(III)	uncertainty
293.15	100	0.03127	0.00443

System: benzene + 3-(1-ethoxy-1-oxopropan-2-yl)-1-vinylimidazolium tetrachloroferrate(III); phases: Liquid mixture 1, Liquid mixture 2
Property: Mass ratio of solute to solvent of 3-(1-ethoxy-1-oxopropan-2-yl)-1-vinylimidazolium tetrachloroferrate(III) (Liquid mixture 1); method: conductometric
Temperature, K	Pressure, kPa	Mass ratio of solute to solvent of 3-(1-ethoxy-1-oxopropan-2-yl)-1-vinylimidazolium tetrachloroferrate(III)	uncertainty
293.15	100	0.01492	0.00211

System: tetrachloromethane + 3-(1-ethoxy-1-oxopropan-2-yl)-1-vinylimidazolium tetrachloroferrate(III); phases: Liquid mixture 1, Liquid mixture 2
Property: Mass ratio of solute to solvent of 3-(1-ethoxy-1-oxopropan-2-yl)-1-vinylimidazolium tetrachloroferrate(III) (Liquid mixture 1); method: conductometric
Temperature, K	Pressure, kPa	Mass ratio of solute to solvent of 3-(1-ethoxy-1-oxopropan-2-yl)-1-vinylimidazolium tetrachloroferrate(III)	uncertainty
293.15	100	0.00059	8e-05

System: water + 3-butyl-1-vinylimidazolium bromotrichloroferrate(III); phases: Liquid mixture 1, Liquid mixture 2
Property: Mass ratio of solute to solvent of 3-butyl-1-vinylimidazolium bromotrichloroferrate(III) (Liquid mixture 1); method: conductometric
Temperature, K	Pressure, kPa	Mass ratio of solute to solvent of 3-butyl-1-vinylimidazolium bromotrichloroferrate(III)	uncertainty
293.15	100	0.42707	0.01934

System: methanol + 3-butyl-1-vinylimidazolium bromotrichloroferrate(III); phases: Liquid mixture 1, Liquid mixture 2
Property: Mass ratio of solute to solvent of 3-butyl-1-vinylimidazolium bromotrichloroferrate(III) (Liquid mixture 1); method: conductometric
Temperature, K	Pressure, kPa	Mass ratio of solute to solvent of 3-butyl-1-vinylimidazolium bromotrichloroferrate(III)	uncertainty
293.15	100	0.71869	0.02936

System: ethanol + 3-butyl-1-vinylimidazolium bromotrichloroferrate(III); phases: Liquid mixture 1, Liquid mixture 2
Property: Mass ratio of solute to solvent of 3-butyl-1-vinylimidazolium bromotrichloroferrate(III) (Liquid mixture 1); method: conductometric
Temperature, K	Pressure, kPa	Mass ratio of solute to solvent of 3-butyl-1-vinylimidazolium bromotrichloroferrate(III)	uncertainty
293.15	100	0.50593	0.02279

System: acetone + 3-butyl-1-vinylimidazolium bromotrichloroferrate(III); phases: Liquid mixture 1, Liquid mixture 2
Property: Mass ratio of solute to solvent of 3-butyl-1-vinylimidazolium bromotrichloroferrate(III) (Liquid mixture 1); method: conductometric
Temperature, K	Pressure, kPa	Mass ratio of solute to solvent of 3-butyl-1-vinylimidazolium bromotrichloroferrate(III)	uncertainty
293.15	100	1.11841	0.04481

System: ethyl acetate + 3-butyl-1-vinylimidazolium bromotrichloroferrate(III); phases: Liquid mixture 1, Liquid mixture 2
Property: Mass ratio of solute to solvent of 3-butyl-1-vinylimidazolium bromotrichloroferrate(III) (Liquid mixture 1); method: conductometric
Temperature, K	Pressure, kPa	Mass ratio of solute to solvent of 3-butyl-1-vinylimidazolium bromotrichloroferrate(III)	uncertainty
293.15	100	0.94091	0.03766

System: trichloromethane + 3-butyl-1-vinylimidazolium bromotrichloroferrate(III); phases: Liquid mixture 1, Liquid mixture 2
Property: Mass ratio of solute to solvent of 3-butyl-1-vinylimidazolium bromotrichloroferrate(III) (Liquid mixture 1); method: conductometric
Temperature, K	Pressure, kPa	Mass ratio of solute to solvent of 3-butyl-1-vinylimidazolium bromotrichloroferrate(III)	uncertainty
293.15	100	0.03276	0.00464

System: benzene + 3-butyl-1-vinylimidazolium bromotrichloroferrate(III); phases: Liquid mixture 1, Liquid mixture 2
Property: Mass ratio of solute to solvent of 3-butyl-1-vinylimidazolium bromotrichloroferrate(III) (Liquid mixture 1); method: conductometric
Temperature, K	Pressure, kPa	Mass ratio of solute to solvent of 3-butyl-1-vinylimidazolium bromotrichloroferrate(III)	uncertainty
293.15	100	0.01533	0.00217

System: tetrachloromethane + 3-butyl-1-vinylimidazolium bromotrichloroferrate(III); phases: Liquid mixture 1, Liquid mixture 2
Property: Mass ratio of solute to solvent of 3-butyl-1-vinylimidazolium bromotrichloroferrate(III) (Liquid mixture 1); method: conductometric
Temperature, K	Pressure, kPa	Mass ratio of solute to solvent of 3-butyl-1-vinylimidazolium bromotrichloroferrate(III)	uncertainty
293.15	100	0.00372	0.00053

System: water + 3-pentyl-1-vinylimidazolium bromotrichloroferrate(III); phases: Liquid mixture 1, Liquid mixture 2
Property: Mass ratio of solute to solvent of 3-pentyl-1-vinylimidazolium bromotrichloroferrate(III) (Liquid mixture 1); method: conductometric
Temperature, K	Pressure, kPa	Mass ratio of solute to solvent of 3-pentyl-1-vinylimidazolium bromotrichloroferrate(III)	uncertainty
293.15	100	0.41359	0.01873

System: methanol + 3-pentyl-1-vinylimidazolium bromotrichloroferrate(III); phases: Liquid mixture 1, Liquid mixture 2
Property: Mass ratio of solute to solvent of 3-pentyl-1-vinylimidazolium bromotrichloroferrate(III) (Liquid mixture 1); method: conductometric
Temperature, K	Pressure, kPa	Mass ratio of solute to solvent of 3-pentyl-1-vinylimidazolium bromotrichloroferrate(III)	uncertainty
293.15	100	0.69542	0.02856

System: ethanol + 3-pentyl-1-vinylimidazolium bromotrichloroferrate(III); phases: Liquid mixture 1, Liquid mixture 2
Property: Mass ratio of solute to solvent of 3-pentyl-1-vinylimidazolium bromotrichloroferrate(III) (Liquid mixture 1); method: conductometric
Temperature, K	Pressure, kPa	Mass ratio of solute to solvent of 3-pentyl-1-vinylimidazolium bromotrichloroferrate(III)	uncertainty
293.15	100	0.5009	0.02266

System: acetone + 3-pentyl-1-vinylimidazolium bromotrichloroferrate(III); phases: Liquid mixture 1, Liquid mixture 2
Property: Mass ratio of solute to solvent of 3-pentyl-1-vinylimidazolium bromotrichloroferrate(III) (Liquid mixture 1); method: conductometric
Temperature, K	Pressure, kPa	Mass ratio of solute to solvent of 3-pentyl-1-vinylimidazolium bromotrichloroferrate(III)	uncertainty
293.15	100	1.07851	0.04317

System: ethyl acetate + 3-pentyl-1-vinylimidazolium bromotrichloroferrate(III); phases: Liquid mixture 1, Liquid mixture 2
Property: Mass ratio of solute to solvent of 3-pentyl-1-vinylimidazolium bromotrichloroferrate(III) (Liquid mixture 1); method: conductometric
Temperature, K	Pressure, kPa	Mass ratio of solute to solvent of 3-pentyl-1-vinylimidazolium bromotrichloroferrate(III)	uncertainty
293.15	100	1.01123	0.04045

System: trichloromethane + 3-pentyl-1-vinylimidazolium bromotrichloroferrate(III); phases: Liquid mixture 1, Liquid mixture 2
Property: Mass ratio of solute to solvent of 3-pentyl-1-vinylimidazolium bromotrichloroferrate(III) (Liquid mixture 1); method: conductometric
Temperature, K	Pressure, kPa	Mass ratio of solute to solvent of 3-pentyl-1-vinylimidazolium bromotrichloroferrate(III)	uncertainty
293.15	100	0.03489	0.00494

System: benzene + 3-pentyl-1-vinylimidazolium bromotrichloroferrate(III); phases: Liquid mixture 1, Liquid mixture 2
Property: Mass ratio of solute to solvent of 3-pentyl-1-vinylimidazolium bromotrichloroferrate(III) (Liquid mixture 1); method: conductometric
Temperature, K	Pressure, kPa	Mass ratio of solute to solvent of 3-pentyl-1-vinylimidazolium bromotrichloroferrate(III)	uncertainty
293.15	100	0.01647	0.00233

System: tetrachloromethane + 3-pentyl-1-vinylimidazolium bromotrichloroferrate(III); phases: Liquid mixture 1, Liquid mixture 2
Property: Mass ratio of solute to solvent of 3-pentyl-1-vinylimidazolium bromotrichloroferrate(III) (Liquid mixture 1); method: conductometric
Temperature, K	Pressure, kPa	Mass ratio of solute to solvent of 3-pentyl-1-vinylimidazolium bromotrichloroferrate(III)	uncertainty
293.15	100	0.00558	0.00017

System: water + 1-hexyl-3-vinylimidazolium bromotrichloroferrate(III); phases: Liquid mixture 1, Liquid mixture 2
Property: Mass ratio of solute to solvent of 1-hexyl-3-vinylimidazolium bromotrichloroferrate(III) (Liquid mixture 1); method: conductometric
Temperature, K	Pressure, kPa	Mass ratio of solute to solvent of 1-hexyl-3-vinylimidazolium bromotrichloroferrate(III)	uncertainty
293.15	100	0.37285	0.01688

System: methanol + 1-hexyl-3-vinylimidazolium bromotrichloroferrate(III); phases: Liquid mixture 1, Liquid mixture 2
Property: Mass ratio of solute to solvent of 1-hexyl-3-vinylimidazolium bromotrichloroferrate(III) (Liquid mixture 1); method: conductometric
Temperature, K	Pressure, kPa	Mass ratio of solute to solvent of 1-hexyl-3-vinylimidazolium bromotrichloroferrate(III)	uncertainty
293.15	100	0.63214	0.02646

System: ethanol + 1-hexyl-3-vinylimidazolium bromotrichloroferrate(III); phases: Liquid mixture 1, Liquid mixture 2
Property: Mass ratio of solute to solvent of 1-hexyl-3-vinylimidazolium bromotrichloroferrate(III) (Liquid mixture 1); method: conductometric
Temperature, K	Pressure, kPa	Mass ratio of solute to solvent of 1-hexyl-3-vinylimidazolium bromotrichloroferrate(III)	uncertainty
293.15	100	0.46198	0.02092

System: acetone + 1-hexyl-3-vinylimidazolium bromotrichloroferrate(III); phases: Liquid mixture 1, Liquid mixture 2
Property: Mass ratio of solute to solvent of 1-hexyl-3-vinylimidazolium bromotrichloroferrate(III) (Liquid mixture 1); method: conductometric
Temperature, K	Pressure, kPa	Mass ratio of solute to solvent of 1-hexyl-3-vinylimidazolium bromotrichloroferrate(III)	uncertainty
293.15	100	0.93286	0.03734

System: ethyl acetate + 1-hexyl-3-vinylimidazolium bromotrichloroferrate(III); phases: Liquid mixture 1, Liquid mixture 2
Property: Mass ratio of solute to solvent of 1-hexyl-3-vinylimidazolium bromotrichloroferrate(III) (Liquid mixture 1); method: conductometric
Temperature, K	Pressure, kPa	Mass ratio of solute to solvent of 1-hexyl-3-vinylimidazolium bromotrichloroferrate(III)	uncertainty
293.15	100	1.12374	0.04503

System: trichloromethane + 1-hexyl-3-vinylimidazolium bromotrichloroferrate(III); phases: Liquid mixture 1, Liquid mixture 2
Property: Mass ratio of solute to solvent of 1-hexyl-3-vinylimidazolium bromotrichloroferrate(III) (Liquid mixture 1); method: conductometric
Temperature, K	Pressure, kPa	Mass ratio of solute to solvent of 1-hexyl-3-vinylimidazolium bromotrichloroferrate(III)	uncertainty
293.15	100	0.0472	0.00668

System: benzene + 1-hexyl-3-vinylimidazolium bromotrichloroferrate(III); phases: Liquid mixture 1, Liquid mixture 2
Property: Mass ratio of solute to solvent of 1-hexyl-3-vinylimidazolium bromotrichloroferrate(III) (Liquid mixture 1); method: conductometric
Temperature, K	Pressure, kPa	Mass ratio of solute to solvent of 1-hexyl-3-vinylimidazolium bromotrichloroferrate(III)	uncertainty
293.15	100	0.02011	0.00285

System: tetrachloromethane + 1-hexyl-3-vinylimidazolium bromotrichloroferrate(III); phases: Liquid mixture 1, Liquid mixture 2
Property: Mass ratio of solute to solvent of 1-hexyl-3-vinylimidazolium bromotrichloroferrate(III) (Liquid mixture 1); method: conductometric
Temperature, K	Pressure, kPa	Mass ratio of solute to solvent of 1-hexyl-3-vinylimidazolium bromotrichloroferrate(III)	uncertainty
293.15	100	0.00723	0.00102

System: water + 1-octyl-3-vinylimidazolium bromotrichloroferrate(III); phases: Liquid mixture 1, Liquid mixture 2
Property: Mass ratio of solute to solvent of 1-octyl-3-vinylimidazolium bromotrichloroferrate(III) (Liquid mixture 1); method: conductometric
Temperature, K	Pressure, kPa	Mass ratio of solute to solvent of 1-octyl-3-vinylimidazolium bromotrichloroferrate(III)	uncertainty
293.15	100	0.3211	0.01454

System: methanol + 1-octyl-3-vinylimidazolium bromotrichloroferrate(III); phases: Liquid mixture 1, Liquid mixture 2
Property: Mass ratio of solute to solvent of 1-octyl-3-vinylimidazolium bromotrichloroferrate(III) (Liquid mixture 1); method: conductometric
Temperature, K	Pressure, kPa	Mass ratio of solute to solvent of 1-octyl-3-vinylimidazolium bromotrichloroferrate(III)	uncertainty
293.15	100	0.59327	0.02525

System: ethanol + 1-octyl-3-vinylimidazolium bromotrichloroferrate(III); phases: Liquid mixture 1, Liquid mixture 2
Property: Mass ratio of solute to solvent of 1-octyl-3-vinylimidazolium bromotrichloroferrate(III) (Liquid mixture 1); method: conductometric
Temperature, K	Pressure, kPa	Mass ratio of solute to solvent of 1-octyl-3-vinylimidazolium bromotrichloroferrate(III)	uncertainty
293.15	100	0.45342	0.02053

System: acetone + 1-octyl-3-vinylimidazolium bromotrichloroferrate(III); phases: Liquid mixture 1, Liquid mixture 2
Property: Mass ratio of solute to solvent of 1-octyl-3-vinylimidazolium bromotrichloroferrate(III) (Liquid mixture 1); method: conductometric
Temperature, K	Pressure, kPa	Mass ratio of solute to solvent of 1-octyl-3-vinylimidazolium bromotrichloroferrate(III)	uncertainty
293.15	100	0.8815	0.03535

System: ethyl acetate + 1-octyl-3-vinylimidazolium bromotrichloroferrate(III); phases: Liquid mixture 1, Liquid mixture 2
Property: Mass ratio of solute to solvent of 1-octyl-3-vinylimidazolium bromotrichloroferrate(III) (Liquid mixture 1); method: conductometric
Temperature, K	Pressure, kPa	Mass ratio of solute to solvent of 1-octyl-3-vinylimidazolium bromotrichloroferrate(III)	uncertainty
293.15	100	1.34659	0.05436

System: trichloromethane + 1-octyl-3-vinylimidazolium bromotrichloroferrate(III); phases: Liquid mixture 1, Liquid mixture 2
Property: Mass ratio of solute to solvent of 1-octyl-3-vinylimidazolium bromotrichloroferrate(III) (Liquid mixture 1); method: conductometric
Temperature, K	Pressure, kPa	Mass ratio of solute to solvent of 1-octyl-3-vinylimidazolium bromotrichloroferrate(III)	uncertainty
293.15	100	0.05814	0.00823

System: benzene + 1-octyl-3-vinylimidazolium bromotrichloroferrate(III); phases: Liquid mixture 1, Liquid mixture 2
Property: Mass ratio of solute to solvent of 1-octyl-3-vinylimidazolium bromotrichloroferrate(III) (Liquid mixture 1); method: conductometric
Temperature, K	Pressure, kPa	Mass ratio of solute to solvent of 1-octyl-3-vinylimidazolium bromotrichloroferrate(III)	uncertainty
293.15	100	0.0318	0.0045

System: tetrachloromethane + 1-octyl-3-vinylimidazolium bromotrichloroferrate(III); phases: Liquid mixture 1, Liquid mixture 2
Property: Mass ratio of solute to solvent of 1-octyl-3-vinylimidazolium bromotrichloroferrate(III) (Liquid mixture 1); method: conductometric
Temperature, K	Pressure, kPa	Mass ratio of solute to solvent of 1-octyl-3-vinylimidazolium bromotrichloroferrate(III)	uncertainty
293.15	100	0.01029	0.00146

System: water + 1-decyl-3-vinylimidazolium bromotrichloroferrate(III); phases: Liquid mixture 1, Liquid mixture 2
Property: Mass ratio of solute to solvent of 1-decyl-3-vinylimidazolium bromotrichloroferrate(III) (Liquid mixture 1); method: conductometric
Temperature, K	Pressure, kPa	Mass ratio of solute to solvent of 1-decyl-3-vinylimidazolium bromotrichloroferrate(III)	uncertainty
293.15	100	0.30096	0.01363

System: methanol + 1-decyl-3-vinylimidazolium bromotrichloroferrate(III); phases: Liquid mixture 1, Liquid mixture 2
Property: Mass ratio of solute to solvent of 1-decyl-3-vinylimidazolium bromotrichloroferrate(III) (Liquid mixture 1); method: conductometric
Temperature, K	Pressure, kPa	Mass ratio of solute to solvent of 1-decyl-3-vinylimidazolium bromotrichloroferrate(III)	uncertainty
293.15	100	0.56721	0.02448

System: ethanol + 1-decyl-3-vinylimidazolium bromotrichloroferrate(III); phases: Liquid mixture 1, Liquid mixture 2
Property: Mass ratio of solute to solvent of 1-decyl-3-vinylimidazolium bromotrichloroferrate(III) (Liquid mixture 1); method: conductometric
Temperature, K	Pressure, kPa	Mass ratio of solute to solvent of 1-decyl-3-vinylimidazolium bromotrichloroferrate(III)	uncertainty
293.15	100	0.4421	0.02002

System: acetone + 1-decyl-3-vinylimidazolium bromotrichloroferrate(III); phases: Liquid mixture 1, Liquid mixture 2
Property: Mass ratio of solute to solvent of 1-decyl-3-vinylimidazolium bromotrichloroferrate(III) (Liquid mixture 1); method: conductometric
Temperature, K	Pressure, kPa	Mass ratio of solute to solvent of 1-decyl-3-vinylimidazolium bromotrichloroferrate(III)	uncertainty
293.15	100	0.86032	0.03454

System: ethyl acetate + 1-decyl-3-vinylimidazolium bromotrichloroferrate(III); phases: Liquid mixture 1, Liquid mixture 2
Property: Mass ratio of solute to solvent of 1-decyl-3-vinylimidazolium bromotrichloroferrate(III) (Liquid mixture 1); method: conductometric
Temperature, K	Pressure, kPa	Mass ratio of solute to solvent of 1-decyl-3-vinylimidazolium bromotrichloroferrate(III)	uncertainty
293.15	100	1.47238	0.05974

System: trichloromethane + 1-decyl-3-vinylimidazolium bromotrichloroferrate(III); phases: Liquid mixture 1, Liquid mixture 2
Property: Mass ratio of solute to solvent of 1-decyl-3-vinylimidazolium bromotrichloroferrate(III) (Liquid mixture 1); method: conductometric
Temperature, K	Pressure, kPa	Mass ratio of solute to solvent of 1-decyl-3-vinylimidazolium bromotrichloroferrate(III)	uncertainty
293.15	100	0.06235	0.00883

System: benzene + 1-decyl-3-vinylimidazolium bromotrichloroferrate(III); phases: Liquid mixture 1, Liquid mixture 2
Property: Mass ratio of solute to solvent of 1-decyl-3-vinylimidazolium bromotrichloroferrate(III) (Liquid mixture 1); method: conductometric
Temperature, K	Pressure, kPa	Mass ratio of solute to solvent of 1-decyl-3-vinylimidazolium bromotrichloroferrate(III)	uncertainty
293.15	100	0.04527	0.00641

System: tetrachloromethane + 1-decyl-3-vinylimidazolium bromotrichloroferrate(III); phases: Liquid mixture 1, Liquid mixture 2
Property: Mass ratio of solute to solvent of 1-decyl-3-vinylimidazolium bromotrichloroferrate(III) (Liquid mixture 1); method: conductometric
Temperature, K	Pressure, kPa	Mass ratio of solute to solvent of 1-decyl-3-vinylimidazolium bromotrichloroferrate(III)	uncertainty
293.15	100	0.01157	0.00164
