Measured thermophysical data. Melting Point, Enthalpy of Fusion, and Heat Capacity Measurements of Several Polyfunctional, Industrially Important Compounds by Differential Scanning Calorimetry
Source: J. Chem. Eng. Data, 2018, 10.1021/acs.jced.7b01026
Compound 1: 2-methylbenzaldehyde, C8H8O, InChI=1S/C8H8O/c1-7-4-2-3-5-8(7)6-9/h2-6H,1H3
Compound 2: 3-methylbenzaldehyde, C8H8O, InChI=1S/C8H8O/c1-7-3-2-4-8(5-7)6-9/h2-6H,1H3
Compound 3: 4-methylbenzaldehyde, C8H8O, InChI=1S/C8H8O/c1-7-2-4-8(6-9)5-3-7/h2-6H,1H3
Compound 4: 3-methylbenzyl alcohol, C8H10O, InChI=1S/C8H10O/c1-7-3-2-4-8(5-7)6-9/h2-5,9H,6H2,1H3
Compound 5: 4-methylbenzoic acid, C8H8O2, InChI=1S/C8H8O2/c1-6-2-4-7(5-3-6)8(9)10/h2-5H,1H3,(H,9,10)
Compound 6: 1-phenyl-1-propanol, C9H12O, InChI=1S/C9H12O/c1-2-9(10)8-6-4-3-5-7-8/h3-7,9-10H,2H2,1H3
Compound 7: 1-phenyl-2-propanol, C9H12O, InChI=1S/C9H12O/c1-8(10)7-9-5-3-2-4-6-9/h2-6,8,10H,7H2,1H3
Compound 8: 2-phenyl-1-propanol, C9H12O, InChI=1S/C9H12O/c1-8(7-10)9-5-3-2-4-6-9/h2-6,8,10H,7H2,1H3
Compound 9: 2-(1-methylethyl)phenol, C9H12O, InChI=1S/C9H12O/c1-7(2)8-5-3-4-6-9(8)10/h3-7,10H,1-2H3
Compound 10: 2,5-dimethylfuran, C6H8O, InChI=1S/C6H8O/c1-5-3-4-6(2)7-5/h3-4H,1-2H3
Compound 11: 5-methylfurfural, C6H6O2, InChI=1S/C6H6O2/c1-5-2-3-6(4-7)8-5/h2-4H,1H3
Compound 12: phenyl ethanoate, C8H8O2, InChI=1S/C8H8O2/c1-7(9)10-8-5-3-2-4-6-8/h2-6H,1H3
Compound 13: ethyl phenylacetate, C10H12O2, InChI=1S/C10H12O2/c1-2-12-10(11)8-9-6-4-3-5-7-9/h3-7H,2,8H2,1H3
Compound 14: hexylcyclohexane, C12H24, InChI=1S/C12H24/c1-2-3-4-6-9-12-10-7-5-8-11-12/h12H,2-11H2,1H3
Compound 15: undecan-6-one, C11H22O, InChI=1S/C11H22O/c1-3-5-7-9-11(12)10-8-6-4-2/h3-10H2,1-2H3
Compound 16: 1H-perfluorooctane, C8HF17, InChI=1S/C8HF17/c9-1(10)2(11,12)3(13,14)4(15,16)5(17,18)6(19,20)7(21,22)8(23,24)25/h1H
Compound 17: 1,3-dimethoxy-2-hydroxybenzene, C8H10O3, InChI=1S/C8H10O3/c1-10-6-4-3-5-7(11-2)8(6)9/h3-5,9H,1-2H3
Compound 18: 2-methoxy-4-(1E)-1-propen-1-yl-phenol, C10H12O2, InChI=1S/C10H12O2/c1-3-4-8-5-6-9(11)10(7-8)12-2/h3-7,11H,1-2H3/b4-3+
Compound 19: 1-propoxy-2-propanol, C6H14O2, InChI=1S/C6H14O2/c1-3-4-8-5-6(2)7/h6-7H,3-5H2,1-2H3

System: 2-methylbenzaldehyde; phases: Crystal, Liquid, Air at 1 atmosphere
Property: Normal melting temperature, K (Crystal); method: DTA
Normal melting temperature, K	uncertainty
233.4	2

System: 2-methylbenzaldehyde; phases: Crystal, Liquid, Air at 1 atmosphere
Property: Molar enthalpy of transition or fusion, kJ/mol (Crystal); method: DSC
Molar enthalpy of transition or fusion, kJ/mol	uncertainty
10.188594496	1.225514904

System: 2-methylbenzaldehyde; phases: Liquid
Fixed: Pressure, kPa = 101.325
Property: Molar heat capacity at constant pressure, J/K/mol (Liquid); method: DSC
Temperature, K	Molar heat capacity at constant pressure, J/K/mol	uncertainty
238.16	184.4279782	7.44920824
293.16	199.56669172	8.17009936
348.15	217.82926676	8.89099048
403.13	230.6851584	9.37158456
458.11	261.08273396	10.57306976

System: 3-methylbenzaldehyde; phases: Crystal, Liquid, Air at 1 atmosphere
Property: Normal melting temperature, K (Crystal); method: DTA
Normal melting temperature, K	uncertainty
224.7	2

System: 3-methylbenzaldehyde; phases: Liquid
Fixed: Pressure, kPa = 101.325
Property: Molar heat capacity at constant pressure, J/K/mol (Liquid); method: DSC
Temperature, K	Molar heat capacity at constant pressure, J/K/mol	uncertainty
273.17	189.47421604	7.68950528
313.16	205.93456328	8.4103964
353.15	219.75164308	8.89099048
393.14	235.61124772	9.6118816
453.11	258.07902096	10.45292124

System: 4-methylbenzaldehyde; phases: Crystal, Liquid, Air at 1 atmosphere
Property: Normal melting temperature, K (Crystal); method: DTA
Normal melting temperature, K	uncertainty
263.1	2

System: 4-methylbenzaldehyde; phases: Crystal, Liquid, Air at 1 atmosphere
Property: Molar enthalpy of transition or fusion, kJ/mol (Crystal); method: DSC
Molar enthalpy of transition or fusion, kJ/mol	uncertainty
11.041648988	1.237529756

System: 4-methylbenzaldehyde; phases: Metastable liquid
Fixed: Pressure, kPa = 101.325
Property: Molar heat capacity at constant pressure, J/K/mol (Metastable liquid); method: DSC
Temperature, K	Molar heat capacity at constant pressure, J/K/mol	uncertainty
273.17	191.39659236	7.8096538
313.16	204.252484	8.29024788
353.15	216.267336	8.77084196
393.14	232.36723768	9.49173308
453.11	250.99025828	10.2126242

System: 3-methylbenzyl alcohol; phases: Crystal, Liquid, Air at 1 atmosphere
Property: Normal melting temperature, K (Crystal); method: DTA
Normal melting temperature, K	uncertainty
264.3	2

System: 3-methylbenzyl alcohol; phases: Crystal, Liquid, Air at 1 atmosphere
Property: Molar enthalpy of transition or fusion, kJ/mol (Crystal); method: DSC
Molar enthalpy of transition or fusion, kJ/mol	uncertainty
13.5602484	1.221644

System: 3-methylbenzyl alcohol; phases: Metastable liquid
Fixed: Pressure, kPa = 101.325
Property: Molar heat capacity at constant pressure, J/K/mol (Metastable liquid); method: DSC
Temperature, K	Molar heat capacity at constant pressure, J/K/mol	uncertainty
266.15	222.2170436	9.0401656
306.15	250.8035132	10.2618096
356.15	281.1002844	11.4834536
406.15	295.2713548	11.9721112
456.15	308.0986168	12.4607688

System: 4-methylbenzoic acid; phases: Crystal, Liquid, Air at 1 atmosphere
Property: Normal melting temperature, K (Crystal); method: DTA
Normal melting temperature, K	uncertainty
452.1	2

System: 4-methylbenzoic acid; phases: Crystal, Liquid, Air at 1 atmosphere
Property: Molar enthalpy of transition or fusion, kJ/mol (Crystal); method: DSC
Molar enthalpy of transition or fusion, kJ/mol	uncertainty
21.51137136	1.49762712

System: 4-methylbenzoic acid; phases: Liquid
Fixed: Pressure, kPa = 101.325
Property: Molar heat capacity at constant pressure, J/K/mol (Liquid); method: DSC
Temperature, K	Molar heat capacity at constant pressure, J/K/mol	uncertainty
458.15	331.24788936	13.47864408
473.15	338.3275812	13.75093992
488.15	347.58563976	14.15938368
503.15	353.984592	14.43167952
523.15	362.01731928	14.70397536

System: 1-phenyl-1-propanol; phases: Crystal, Liquid, Air at 1 atmosphere
Property: Normal melting temperature, K (Crystal); method: DTA
Normal melting temperature, K	uncertainty
262.5	2

System: 1-phenyl-1-propanol; phases: Liquid
Fixed: Pressure, kPa = 101.325
Property: Molar heat capacity at constant pressure, J/K/mol (Liquid); method: DSC
Temperature, K	Molar heat capacity at constant pressure, J/K/mol	uncertainty
273.15	279.60008194	11.44004232
323.15	319.91261202	13.07433408
373.15	338.02601236	13.75528898
423.15	352.59844722	14.3000529
473.15	368.94136482	14.9810078

System: 1-phenyl-1-propanol; phases: Glass, Liquid
Property: Boiling temperature at pressure P, K (Glass); method: DTA
Pressure, kPa	Boiling temperature at pressure P, K	uncertainty
100	198.8	2

System: 1-phenyl-2-propanol; phases: Liquid
Fixed: Pressure, kPa = 101.325
Property: Molar heat capacity at constant pressure, J/K/mol (Liquid); method: DSC
Temperature, K	Molar heat capacity at constant pressure, J/K/mol	uncertainty
273.15	282.05151958	11.44004232
323.15	311.06019832	12.66576114
373.15	329.30978964	13.34671604
423.15	345.51651626	14.02767094
473.15	354.7775029	14.43624388

System: 1-phenyl-2-propanol; phases: Glass, Liquid
Property: Boiling temperature at pressure P, K (Glass); method: DTA
Pressure, kPa	Boiling temperature at pressure P, K	uncertainty
100	200.6	2

System: 2-phenyl-1-propanol; phases: Liquid
Fixed: Pressure, kPa = 101.325
Property: Molar heat capacity at constant pressure, J/K/mol (Liquid); method: DSC
Temperature, K	Molar heat capacity at constant pressure, J/K/mol	uncertainty
273.15	273.33529686	11.16766036
323.15	300.9820658	12.2571882
373.15	325.90501514	13.21052506
423.15	341.97555078	13.89147996
473.15	351.78130134	14.3000529

System: 2-phenyl-1-propanol; phases: Glass, Liquid
Property: Boiling temperature at pressure P, K (Glass); method: DTA
Pressure, kPa	Boiling temperature at pressure P, K	uncertainty
100	197.6	2

System: 2-(1-methylethyl)phenol; phases: Crystal, Liquid, Air at 1 atmosphere
Property: Normal melting temperature, K (Crystal); method: DTA
Normal melting temperature, K	uncertainty
285	4

System: 2-(1-methylethyl)phenol; phases: Crystal, Liquid, Air at 1 atmosphere
Property: Molar enthalpy of transition or fusion, kJ/mol (Crystal); method: DSC
Molar enthalpy of transition or fusion, kJ/mol	uncertainty
10.976992988	1.389147996

System: 2-(1-methylethyl)phenol; phases: Metastable liquid
Fixed: Pressure, kPa = 101.325
Property: Molar heat capacity at constant pressure, J/K/mol (Metastable liquid); method: DSC
Temperature, K	Molar heat capacity at constant pressure, J/K/mol	uncertainty
273.15	281.9153286	11.44004232
323.15	307.38304186	12.52957016
373.15	321.54690378	13.07433408
423.15	337.88982138	13.75528898
473.15	354.36892996	14.43624388

System: 2,5-dimethylfuran; phases: Liquid
Fixed: Pressure, kPa = 101.325
Property: Molar heat capacity at constant pressure, J/K/mol (Liquid); method: DSC
Temperature, K	Molar heat capacity at constant pressure, J/K/mol	uncertainty
213.15	159.28263784	6.44051704
253.15	163.99286672	6.63277128
293.15	170.625638	6.92115264
333.15	184.94857888	7.49791536

System: 5-methylfurfural; phases: Crystal, Liquid, Air at 1 atmosphere
Property: Normal melting temperature, K (Crystal); method: DTA
Normal melting temperature, K	uncertainty
240.5	2

System: 5-methylfurfural; phases: Crystal, Liquid, Air at 1 atmosphere
Property: Molar enthalpy of transition or fusion, kJ/mol (Crystal); method: DSC
Molar enthalpy of transition or fusion, kJ/mol	uncertainty
11.5616172	1.1011064

System: 5-methylfurfural; phases: Liquid
Fixed: Pressure, kPa = 101.325
Property: Molar heat capacity at constant pressure, J/K/mol (Liquid); method: DSC
Temperature, K	Molar heat capacity at constant pressure, J/K/mol	uncertainty
250.15	180.47133896	7.37741288
300.15	192.47339872	7.81785544
350.14	202.49346696	8.258298
400.13	219.34039488	8.91896184
450.1	233.54466744	9.46951504

System: phenyl ethanoate; phases: Crystal, Liquid, Air at 1 atmosphere
Property: Normal melting temperature, K (Crystal); method: DTA
Normal melting temperature, K	uncertainty
266	2

System: phenyl ethanoate; phases: Crystal, Liquid, Air at 1 atmosphere
Property: Molar enthalpy of transition or fusion, kJ/mol (Crystal); method: DSC
Molar enthalpy of transition or fusion, kJ/mol	uncertainty
12.811519272	1.388708784

System: phenyl ethanoate; phases: Liquid
Fixed: Pressure, kPa = 101.325
Property: Molar heat capacity at constant pressure, J/K/mol (Liquid); method: DSC
Temperature, K	Molar heat capacity at constant pressure, J/K/mol	uncertainty
253.15	220.42348248	8.98576272
293.15	224.78021592	9.12191064
333.15	240.02878296	9.80265024
373.15	255.41349792	10.34724192
413.15	269.43673368	10.8918336

System: ethyl phenylacetate; phases: Crystal, Liquid, Air at 1 atmosphere
Property: Normal melting temperature, K (Crystal); method: DTA
Normal melting temperature, K	uncertainty
244	2

System: ethyl phenylacetate; phases: Crystal, Liquid, Air at 1 atmosphere
Property: Molar enthalpy of transition or fusion, kJ/mol (Crystal); method: DSC
Molar enthalpy of transition or fusion, kJ/mol	uncertainty
18.0621188	1.6420108

System: ethyl phenylacetate; phases: Liquid
Fixed: Pressure, kPa = 101.325
Property: Molar heat capacity at constant pressure, J/K/mol (Liquid); method: DSC
Temperature, K	Molar heat capacity at constant pressure, J/K/mol	uncertainty
253.15	271.7527874	11.00147236
293.15	288.82969972	11.65827668
333.15	292.77052564	11.82247776
373.15	306.89181852	12.47928208
413.15	326.26754596	13.30028748

System: hexylcyclohexane; phases: Crystal, Liquid, Air at 1 atmosphere
Property: Normal melting temperature, K (Crystal); method: DTA
Normal melting temperature, K	uncertainty
224.9	2

System: hexylcyclohexane; phases: Crystal, Liquid, Air at 1 atmosphere
Property: Molar enthalpy of transition or fusion, kJ/mol (Crystal); method: DSC
Molar enthalpy of transition or fusion, kJ/mol	uncertainty
20.53491312	1.6831896

System: hexylcyclohexane; phases: Liquid
Fixed: Pressure, kPa = 101.325
Property: Molar heat capacity at constant pressure, J/K/mol (Liquid); method: DSC
Temperature, K	Molar heat capacity at constant pressure, J/K/mol	uncertainty
228.16	292.0333956	11.95064616
288.16	330.24179952	13.4655168
348.14	361.21248816	14.64374952
408.13	408.84675384	16.66357704
468.09	463.7187348	18.85172352

System: undecan-6-one; phases: Crystal, Liquid, Air at 1 atmosphere
Property: Normal melting temperature, K (Crystal); method: DTA
Normal melting temperature, K	uncertainty
286	2

System: undecan-6-one; phases: Crystal, Liquid, Air at 1 atmosphere
Property: Molar enthalpy of transition or fusion, kJ/mol (Crystal); method: DSC
Molar enthalpy of transition or fusion, kJ/mol	uncertainty
31.33368752	1.87320958

System: undecan-6-one; phases: Liquid
Fixed: Pressure, kPa = 101.325
Property: Molar heat capacity at constant pressure, J/K/mol (Liquid); method: DSC
Temperature, K	Molar heat capacity at constant pressure, J/K/mol	uncertainty
293.16	363.74324208	14.81538486
343.16	381.62387898	15.49655198
373.15	402.39947614	16.34801088
423.13	422.49390618	17.19946978
473.1	463.02334982	18.90238758

System: 1H-perfluorooctane; phases: Crystal, Liquid, Air at 1 atmosphere
Property: Normal melting temperature, K (Crystal); method: DTA
Normal melting temperature, K	uncertainty
254.3	2

System: 1H-perfluorooctane; phases: Crystal, Liquid, Air at 1 atmosphere
Property: Molar enthalpy of transition or fusion, kJ/mol (Crystal); method: DSC
Molar enthalpy of transition or fusion, kJ/mol	uncertainty
9.8715602684	4.200663944

System: 1H-perfluorooctane; phases: Liquid
Fixed: Pressure, kPa = 101.325
Property: Molar heat capacity at constant pressure, J/K/mol (Liquid); method: DSC
Temperature, K	Molar heat capacity at constant pressure, J/K/mol	uncertainty
258.16	446.1105108528	18.0628549592
273.16	458.7125026848	18.4829213536
298.16	480.1358887992	19.3230541424
323.16	494.8382126032	20.1631869312
373.14	526.7632585776	21.4233861144

System: 1,3-dimethoxy-2-hydroxybenzene; phases: Crystal, Liquid, Air at 1 atmosphere
Property: Normal melting temperature, K (Crystal); method: DTA
Normal melting temperature, K	uncertainty
326.4	2

System: 1,3-dimethoxy-2-hydroxybenzene; phases: Crystal, Liquid, Air at 1 atmosphere
Property: Molar enthalpy of transition or fusion, kJ/mol (Crystal); method: DSC
Molar enthalpy of transition or fusion, kJ/mol	uncertainty
50.2572032	1.8499584

System: 1,3-dimethoxy-2-hydroxybenzene; phases: Liquid
Fixed: Pressure, kPa = 101.325
Property: Molar heat capacity at constant pressure, J/K/mol (Liquid); method: DSC
Temperature, K	Molar heat capacity at constant pressure, J/K/mol	uncertainty
333.16	317.2678656	12.9497088
373.15	328.2134528	13.2580352
413.14	333.4550016	13.5663616
453.12	347.1755264	14.0288512
493.1	357.3502976	14.4913408

System: 2-methoxy-4-(1E)-1-propen-1-yl-phenol; phases: Crystal, Liquid, Air at 1 atmosphere
Property: Normal melting temperature, K (Crystal); method: DTA
Normal melting temperature, K	uncertainty
294.7	2

System: 2-methoxy-4-(1E)-1-propen-1-yl-phenol; phases: Crystal, Liquid, Air at 1 atmosphere
Property: Molar enthalpy of transition or fusion, kJ/mol (Crystal); method: DSC
Molar enthalpy of transition or fusion, kJ/mol	uncertainty
11.707537004	1.674851016

System: 2-methoxy-4-(1E)-1-propen-1-yl-phenol; phases: Liquid
Fixed: Pressure, kPa = 101.325
Property: Molar heat capacity at constant pressure, J/K/mol (Liquid); method: DSC
Temperature, K	Molar heat capacity at constant pressure, J/K/mol	uncertainty
298.15	326.92435028	13.30028748
323.15	336.44801292	13.62868964
373.15	348.43469176	14.12129288
423.15	381.60330992	15.43490152
473.15	387.18614664	15.76330368

System: 1-propoxy-2-propanol; phases: Liquid
Fixed: Pressure, kPa = 101.325
Property: Molar heat capacity at constant pressure, J/K/mol (Liquid); method: DSC
Temperature, K	Molar heat capacity at constant pressure, J/K/mol	uncertainty
193.19	237.41188744	9.69028112
223.15	247.92938768	10.0448036
273.16	271.09152304	10.99019688
323.16	290.1175628	11.817416
373.15	314.69778808	12.76280928
