Measured thermophysical data. Water Activity and Solubility Measurements and Model Simulation of the CsCl-MgCl2-H2O Ternary System at 323.15 K
Source: J. Chem. Eng. Data, 2018, 10.1021/acs.jced.7b00459
Compound 1: magnesium chloride, Cl2Mg, InChI=1S/2ClH.Mg/h2*1H;/q;;+2/p-2
Compound 2: cesium chloride, ClCs, InChI=1S/ClH.Cs/h1H;/q;+1/p-1, purity 99.95%
Compound 3: water, H2O, InChI=1S/H2O/h1H2, purity 99.8%

System: cesium chloride + magnesium chloride + water; phases: Liquid, Gas
Fixed: Temperature, K = 323.15
Property: (Relative) activity of water (Liquid); method: ISOPIE
Molality, mol/kg of cesium chloride	Molality, mol/kg of magnesium chloride	(Relative) activity of water	uncertainty
1.0318	0.1829	0.9591	0.0387
0.8596	0.2875	0.9591	0.0387
0.6218	0.4288	0.9591	0.0387
0.4114	0.5465	0.9591	0.0387
0	0.7647	0.9591	0.0387
2.8579	0	0.9068	0.0387
2.2104	0.3918	0.9068	0.0387
1.824	0.6101	0.9068	0.0387
1.2659	0.8729	0.9068	0.0387
0.8114	1.0779	0.9068	0.0387
0	1.4115	0.9068	0.0387
1.7517	0	0.9452	0.0387
3.1885	0	0.9015	0.0387
4.8704	0	0.843	0.0387
5.7239	0	0.8152	0.0387
4.322	0.7661	0.8152	0.0387
3.4667	1.1595	0.8152	0.0387
2.3227	1.6016	0.8152	0.0387
1.4342	1.9052	0.8152	0.0387
0	2.3341	0.8152	0.0388

System: cesium chloride + magnesium chloride + water; phases: Liquid, Crystal of intercomponent compound 1
Fixed: Temperature, K = 323.15
Fixed: Pressure, kPa = 77
Property: Molality, mol/kg of magnesium chloride (Liquid); method: flow-cloud-point method
Molality, mol/kg of cesium chloride	Molality, mol/kg of magnesium chloride	uncertainty
1.0364	5.0814	0.0422
2.1758	4.6078	0.0386
3.1756	4.3442	0.0363
4.6774	4.1011	0.0345
6.1793	3.8273	0.0319
8.6048	3.7728	0.0313

System: cesium chloride + magnesium chloride + water; phases: Liquid, Crystal
Fixed: Temperature, K = 323.15
Fixed: Pressure, kPa = 77
Property: Molality, mol/kg of magnesium chloride (Liquid); method: flow-cloud-point method
Molality, mol/kg of cesium chloride	Molality, mol/kg of magnesium chloride	uncertainty
8.6048	3.7728	0.0708
9.7612	2.7063	0.0794
10.5779	1.8396	0.0752
11.8232	0.8921	0.0723

System: magnesium chloride + water; phases: Liquid, Gas
Fixed: Temperature, K = 323.15
Property: (Relative) activity of water (Liquid); method: ISOPIE
Molality, mol/kg of magnesium chloride	(Relative) activity of water	uncertainty
0.7647	0.9591	0.0387
1.4115	0.9068	0.0387
2.3341	0.8152	0.0388

System: cesium chloride + water; phases: Liquid, Gas
Fixed: Temperature, K = 323.15
Property: (Relative) activity of water (Liquid); method: ISOPIE
Molality, mol/kg of cesium chloride	(Relative) activity of water	uncertainty
2.8579	0.9068	0.0387
1.7517	0.9452	0.0387
3.1885	0.9015	0.0387
4.8704	0.843	0.0387
5.7239	0.8152	0.0387
