Measured thermophysical data. Thermodynamic Properties from Calorimetry and Density Functional Theory and the Thermogravimetric Analysis of the Fullerene Derivative C60(OH)40
Source: J. Chem. Eng. Data, 2019, 10.1021/acs.jced.8b01075
Compound 1: benzoic acid, C7H6O2, InChI=1S/C7H6O2/c8-7(9)6-4-2-1-3-5-6/h1-5H,(H,8,9), purity 99.998%
Compound 2: aluminum oxide (Al2O3), Al2O3, InChI=1S/2Al.3O/q2*+3;3*-2, purity 99.999%

System: benzoic acid; phases: Crystal, Gas
Property: Molar heat capacity at saturation pressure, J/K/mol (Crystal); method: Small (less than 1 g) adiabatic calorimetry
Temperature, K	Molar heat capacity at saturation pressure, J/K/mol	uncertainty
4.54	0.238	0.019
4.75	0.256	0.019
4.88	0.271	0.019
5.02	0.296	0.02
5.16	0.31	0.02
5.29	0.316	0.02
5.42	0.327	0.02
5.53	0.343	0.02
5.64	0.358	0.021
5.75	0.372	0.021
5.85	0.388	0.021
5.95	0.419	0.022
6.07	0.438	0.022
6.22	0.468	0.022
6.38	0.502	0.023
6.53	0.521	0.024
6.7	0.571	0.025
6.84	0.618	0.026
6.99	0.662	0.026
7.14	0.7	0.027
7.29	0.731	0.028
7.43	0.778	0.029
7.57	0.823	0.03
7.72	0.893	0.031
7.86	0.954	0.033
8.01	0.978	0.033
8.16	1.053	0.035
8.31	1.116	0.036
8.46	1.163	0.037
8.6	1.263	0.039
8.76	1.329	0.041
8.91	1.384	0.042
9.07	1.472	0.044
9.22	1.512	0.045
9.38	1.58	0.046
9.53	1.649	0.048
9.69	1.725	0.049
9.84	1.858	0.052
10	1.902	0.053
10.21	2.036	0.056
10.49	2.207	0.06
10.76	2.354	0.063
11.04	2.56	0.068
11.32	2.751	0.072
11.6	2.956	0.076
11.88	3.123	0.08
12.17	3.346	0.085
12.45	3.529	0.089
12.75	3.819	0.095
13.03	4.037	0.1
13.33	4.28	0.105
13.62	4.532	0.111
13.91	4.755	0.115
14.01	4.933	0.119
14.31	5.137	0.124
14.6	5.519	0.132
14.9	5.794	0.138
15.19	6.073	0.143
15.49	6.356	0.149
15.79	6.616	0.155
16.09	6.911	0.161
16.39	7.207	0.167
16.7	7.541	0.174
17	7.836	0.181
17.3	8.091	0.186
17.6	8.409	0.192
17.91	8.786	0.2
18.21	9.095	0.207
18.52	9.471	0.215
18.83	9.71	0.219
19.13	10.14	0.23
19.44	10.4	0.23
19.58	10.55	0.24
19.75	10.7	0.24
19.89	10.86	0.24
20.52	11.49	0.26
21.41	12.5	0.28
22.31	13.49	0.3
23.22	14.56	0.32
24.13	15.56	0.34
25.05	16.55	0.36
25.98	17.58	0.38
26.92	18.63	0.4
27.86	19.67	0.42
28.81	20.7	0.44
29.76	21.73	0.46
30.71	22.75	0.19
31.67	23.72	0.2
32.64	24.69	0.2
33.6	25.68	0.21
34.57	26.57	0.21
35.56	27.57	0.22
36.53	28.47	0.22
37.51	29.44	0.23
38.5	30.44	0.24
39.89	31.71	0.24
40.89	32.53	0.25
41.89	33.31	0.25
42.89	33.99	0.26
43.89	34.84	0.26
44.89	35.7	0.27
45.89	36.42	0.27
46.89	37.22	0.28
47.9	38.04	0.28
48.9	38.77	0.28
49.91	39.47	0.29
50.92	40.13	0.29
51.94	40.84	0.3
52.95	41.56	0.3
53.97	42.16	0.3
54.98	42.68	0.31
56.02	43.44	0.31
57.03	44.09	0.32
58.06	44.66	0.32
59.17	45.31	0.32
60.19	45.98	0.33
61.22	46.55	0.33
62.24	47.19	0.34
63.27	47.79	0.34
64.3	48.32	0.34
65.32	48.9	0.35
66.35	49.45	0.35
67.38	49.97	0.35
68.41	50.43	0.35
69.43	50.89	0.36
71.27	51.74	0.36
73.3	52.71	0.37
75.33	53.69	0.37
77.36	54.68	0.38
78.78	55.18	0.38
79.56	55.66	0.39
81.07	56.41	0.39
83.09	57.46	0.4
85.1	58.18	0.4
87.11	58.97	0.41
89.11	59.73	0.41
91.11	60.5	0.44
93.12	61.27	0.44
95.11	62.07	0.44
97.11	62.81	0.45
99.11	63.57	0.45
101.6	64.59	0.36
104.58	65.66	0.36
107.58	66.69	0.36
110.58	67.85	0.37
113.59	69.03	0.37
116.61	70.18	0.37
119.62	71.3	0.38
122.63	72.54	0.38
125.65	73.61	0.38
128.67	74.78	0.39
131.69	75.96	0.39
134.72	77.09	0.39
137.76	78.23	0.4
140.79	79.41	0.4
143.83	80.49	0.4
146.87	81.68	0.41
149.91	82.93	0.41
152.95	84.03	0.42
156	85.17	0.42
159.05	86.37	0.42
162.09	87.59	0.43
165.18	88.85	0.43
168.23	90.02	0.44
171.28	91.22	0.44
174.33	92.46	0.44
177.38	93.64	0.45
180.44	94.8	0.45
183.49	96.08	0.46
186.54	97.26	0.46
189.6	98.55	0.46
192.66	99.83	0.47
195.71	101	0.5
198.77	102.3	0.5
201.83	103.6	0.5
204.89	104.9	0.5
208.45	106.6	0.5
212.52	108.2	0.5
216.67	110.1	0.5
220.76	111.7	0.5
224.85	113.5	0.5
228.95	115.3	0.5
237.16	119	0.5
241.28	120.8	0.5
245.39	122.6	0.5
249.52	124.4	0.6
253.64	126.3	0.6
257.77	128.1	0.6
261.9	130	0.6
266.04	132	0.6
270.19	133.8	0.6
274.34	135.7	0.6
278.49	137.6	0.6
282.77	139.8	0.6
286.93	141.6	0.6
291.09	143.5	0.6
295.26	145.5	0.6
299.42	147.4	0.6
304.38	149.7	0.6
310.53	152.6	0.7
317.37	155.7	0.7
324.19	158.8	0.7
330.99	162	0.7

System: aluminum oxide (Al2O3); phases: Crystal, Gas
Property: Molar heat capacity at saturation pressure, J/K/mol (Crystal); method: Small (less than 1 g) adiabatic calorimetry
Temperature, K	Molar heat capacity at saturation pressure, J/K/mol	uncertainty
81.94	7.415	0.106
84.02	7.956	0.108
87.02	8.82	0.112
90.02	9.678	0.185
93.01	10.58	0.19
96	11.53	0.19
98.99	12.53	0.19
101.97	13.54	0.2
104.94	14.57	0.2
107.93	15.61	0.2
110.92	16.7	0.21
113.92	17.8	0.21
116.92	18.91	0.21
119.93	20.06	0.22
122.94	21.18	0.22
125.95	22.36	0.22
128.99	23.51	0.23
132.02	24.71	0.23
135.04	25.91	0.24
138.07	27.14	0.24
141.09	28.39	0.24
144.13	29.63	0.25
147.16	30.83	0.25
150.2	32.05	0.25
153.23	33.28	0.26
156.27	34.49	0.26
159.31	35.7	0.27
162.35	36.9	0.27
165.39	38.13	0.27
168.44	39.32	0.28
171.48	40.52	0.28
174.52	41.67	0.28
177.6	42.88	0.29
180.64	44.01	0.29
183.68	45.17	0.3
186.72	46.24	0.3
189.76	47.4	0.3
192.8	48.56	0.31
195.84	49.61	0.31
198.88	50.65	0.31
201.91	51.8	0.32
204.95	52.77	0.32
207.97	53.81	0.32
211	54.84	0.32
214.02	55.88	0.33
217.04	56.95	0.33
220.05	57.85	0.33
223.06	58.88	0.34
226.07	59.93	0.34
229.07	60.93	0.34
232.07	61.8	0.35
235.06	62.67	0.35
238.05	63.55	0.35
241.03	64.4	0.35
244.01	65.33	0.36
246.98	66.26	0.36
249.94	67.1	0.36
252.9	67.9	0.37
255.85	68.71	0.37
258.78	69.49	0.37
261.71	70.19	0.37
264.63	71.03	0.38
267.53	71.84	0.38
270.43	72.53	0.38
