Measured thermophysical data. Binary Solid-Liquid Solubility Determination and Model Correlation of Quizalofop-p-ethyl in Different Pure Solvents
Source: J. Chem. Eng. Data, 2019, 10.1021/acs.jced.8b01181
Compound 1: quizalofop-p-ethyl, C19H17ClN2O4, InChI=1S/C19H17ClN2O4/c1-3-24-19(23)12(2)25-14-5-7-15(8-6-14)26-18-11-21-17-10-13(20)4-9-16(17)22-18/h4-12H,3H2,1-2H3/t12-/m1/s1, purity 99.4%
Compound 2: methanol, CH4O, InChI=1S/CH4O/c1-2/h2H,1H3, purity 99.7%
Compound 3: ethanol, C2H6O, InChI=1S/C2H6O/c1-2-3/h3H,2H2,1H3, purity 99.5%
Compound 4: propan-1-ol, C3H8O, InChI=1S/C3H8O/c1-2-3-4/h4H,2-3H2,1H3, purity 99.4%
Compound 5: propan-2-ol, C3H8O, InChI=1S/C3H8O/c1-3(2)4/h3-4H,1-2H3, purity 99.4%
Compound 6: butan-1-ol, C4H10O, InChI=1S/C4H10O/c1-2-3-4-5/h5H,2-4H2,1H3, purity 99.5%
Compound 7: toluene, C7H8, InChI=1S/C7H8/c1-7-5-3-2-4-6-7/h2-6H,1H3, purity 99.6%
Compound 8: hexane, C6H14, InChI=1S/C6H14/c1-3-5-6-4-2/h3-6H2,1-2H3, purity 99.4%
Compound 9: dimethylformamide, C3H7NO, InChI=1S/C3H7NO/c1-4(2)3-5/h3H,1-2H3, purity 99.6%
Compound 10: ethyl acetate, C4H8O2, InChI=1S/C4H8O2/c1-3-6-4(2)5/h3H2,1-2H3, purity 99.5%
Compound 11: acetonitrile, C2H3N, InChI=1S/C2H3N/c1-2-3/h1H3, purity 99.4%
Compound 12: 1,4-dioxane, C4H8O2, InChI=1S/C4H8O2/c1-2-6-4-3-5-1/h1-4H2, purity 99.6%
Compound 13: acetone, C3H6O, InChI=1S/C3H6O/c1-3(2)4/h1-2H3, purity 99.5%
Compound 14: benzoic acid, C7H6O2, InChI=1S/C7H6O2/c8-7(9)6-4-2-1-3-5-6/h1-5H,(H,8,9), purity 99.5%
Compound 15: water, H2O, InChI=1S/H2O/h1H2, purity 99.9%

System: quizalofop-p-ethyl; phases: Crystal, Liquid, Air at 1 atmosphere
Property: Triple point temperature, K (Crystal); method: DSC
Triple point temperature, K	uncertainty
348.76	1.24

System: quizalofop-p-ethyl; phases: Crystal, Liquid, Air at 1 atmosphere
Property: Molar enthalpy of transition or fusion, kJ/mol (Crystal); method: DSC
Molar enthalpy of transition or fusion, kJ/mol	uncertainty
28.97	1.07

System: quizalofop-p-ethyl + methanol; phases: Liquid, Crystal
Fixed: Pressure, kPa = 101.2
Property: Mole fraction of quizalofop-p-ethyl (Liquid); method: Chromatography
Temperature, K	Mole fraction of quizalofop-p-ethyl	uncertainty
273.15	0.0002653	1.38e-05
278.15	0.0004007	2.09e-05
283.15	0.0006157	3.21e-05
288.15	0.0009327	4.86e-05
293.15	0.001404	7.3e-05
298.15	0.002079	0.000108
303.15	0.003066	0.00016
308.15	0.004502	0.000235
313.15	0.006577	0.000343

System: quizalofop-p-ethyl + ethanol; phases: Liquid, Crystal
Fixed: Pressure, kPa = 101.2
Property: Mole fraction of quizalofop-p-ethyl (Liquid); method: Chromatography
Temperature, K	Mole fraction of quizalofop-p-ethyl	uncertainty
273.15	0.0005841	3.05e-05
278.15	0.0008525	4.44e-05
283.15	0.001163	6.1e-05
288.15	0.001541	8e-05
293.15	0.002101	0.000109
298.15	0.00285	0.000148
303.15	0.003901	0.000203
308.15	0.005347	0.000279
313.15	0.00724	0.000377

System: quizalofop-p-ethyl + propan-1-ol; phases: Liquid, Crystal
Fixed: Pressure, kPa = 101.2
Property: Mole fraction of quizalofop-p-ethyl (Liquid); method: Chromatography
Temperature, K	Mole fraction of quizalofop-p-ethyl	uncertainty
273.15	0.001899	9.9e-05
278.15	0.002422	0.000126
283.15	0.003094	0.000161
288.15	0.003961	0.000206
293.15	0.005066	0.000264
298.15	0.006487	0.000338
303.15	0.008318	0.000433
308.15	0.01066	0.00056
313.15	0.01377	0.00072

System: quizalofop-p-ethyl + propan-2-ol; phases: Liquid, Crystal
Fixed: Pressure, kPa = 101.2
Property: Mole fraction of quizalofop-p-ethyl (Liquid); method: Chromatography
Temperature, K	Mole fraction of quizalofop-p-ethyl	uncertainty
273.15	0.001279	6.7e-05
278.15	0.00156	8.1e-05
283.15	0.00193	0.000101
288.15	0.002469	0.000129
293.15	0.003114	0.000162
298.15	0.003979	0.000207
303.15	0.005043	0.000263
308.15	0.006508	0.000339
313.15	0.008527	0.000444

System: quizalofop-p-ethyl + butan-1-ol; phases: Liquid, Crystal
Fixed: Pressure, kPa = 101.2
Property: Mole fraction of quizalofop-p-ethyl (Liquid); method: Chromatography
Temperature, K	Mole fraction of quizalofop-p-ethyl	uncertainty
273.15	0.002512	0.000131
278.15	0.003165	0.000165
283.15	0.003896	0.000203
288.15	0.004909	0.000256
293.15	0.006177	0.000322
298.15	0.007774	0.000405
303.15	0.009896	0.000515
308.15	0.01262	0.00066
313.15	0.01618	0.00084

System: quizalofop-p-ethyl + 1,4-dioxane; phases: Liquid, Crystal
Fixed: Pressure, kPa = 101.2
Property: Mole fraction of quizalofop-p-ethyl (Liquid); method: Chromatography
Temperature, K	Mole fraction of quizalofop-p-ethyl	uncertainty
288.15	0.04043	0.00211
293.15	0.04862	0.00253
298.15	0.06006	0.00313
303.15	0.07254	0.00378
308.15	0.08943	0.00466
313.15	0.1093	0.0057

System: quizalofop-p-ethyl + dimethylformamide; phases: Liquid, Crystal
Fixed: Pressure, kPa = 101.2
Property: Mole fraction of quizalofop-p-ethyl (Liquid); method: Chromatography
Temperature, K	Mole fraction of quizalofop-p-ethyl	uncertainty
273.15	0.008031	0.000418
278.15	0.009469	0.000493
283.15	0.0114	0.00059
288.15	0.01375	0.00072
293.15	0.01656	0.00086
298.15	0.01959	0.00102
303.15	0.02383	0.00124
308.15	0.02886	0.0015
313.15	0.03529	0.00184

System: quizalofop-p-ethyl + ethyl acetate; phases: Liquid, Crystal
Fixed: Pressure, kPa = 101.2
Property: Mole fraction of quizalofop-p-ethyl (Liquid); method: Chromatography
Temperature, K	Mole fraction of quizalofop-p-ethyl	uncertainty
273.15	0.003472	0.000181
278.15	0.004145	0.000216
283.15	0.004988	0.00026
288.15	0.006047	0.000315
293.15	0.007387	0.000385
298.15	0.009064	0.000472
303.15	0.01135	0.00059
308.15	0.0139	0.00072
313.15	0.01734	0.0009

System: quizalofop-p-ethyl + toluene; phases: Liquid, Crystal
Fixed: Pressure, kPa = 101.2
Property: Mole fraction of quizalofop-p-ethyl (Liquid); method: Chromatography
Temperature, K	Mole fraction of quizalofop-p-ethyl	uncertainty
273.15	0.005136	0.000267
278.15	0.006147	0.00032
283.15	0.007276	0.000379
288.15	0.008653	0.000451
293.15	0.01056	0.00055
298.15	0.01256	0.00065
303.15	0.01545	0.0008
308.15	0.0186	0.00097
313.15	0.02318	0.00121

System: quizalofop-p-ethyl + hexane; phases: Liquid, Crystal
Fixed: Pressure, kPa = 101.2
Property: Mole fraction of quizalofop-p-ethyl (Liquid); method: Chromatography
Temperature, K	Mole fraction of quizalofop-p-ethyl	uncertainty
273.15	0.001552	8.1e-05
278.15	0.001974	0.000103
283.15	0.002458	0.000128
288.15	0.003171	0.000165
293.15	0.004005	0.000209
298.15	0.005062	0.000264
303.15	0.006463	0.000337
308.15	0.008214	0.000428
313.15	0.01049	0.00055

System: quizalofop-p-ethyl + acetonitrile; phases: Liquid, Crystal
Fixed: Pressure, kPa = 101.2
Property: Mole fraction of quizalofop-p-ethyl (Liquid); method: Chromatography
Temperature, K	Mole fraction of quizalofop-p-ethyl	uncertainty
273.15	0.01363	0.00071
278.15	0.01817	0.00095
283.15	0.02268	0.00118
288.15	0.02951	0.00154
293.15	0.03801	0.00198
298.15	0.04805	0.0025
303.15	0.06073	0.00316
308.15	0.07634	0.00398
313.15	0.09768	0.00509

System: quizalofop-p-ethyl + acetone; phases: Liquid, Crystal
Fixed: Pressure, kPa = 101.2
Property: Mole fraction of quizalofop-p-ethyl (Liquid); method: Chromatography
Temperature, K	Mole fraction of quizalofop-p-ethyl	uncertainty
273.15	0.004209	0.000219
278.15	0.00509	0.000265
283.15	0.006254	0.000326
288.15	0.007465	0.000389
293.15	0.009217	0.00048
298.15	0.01112	0.00058
303.15	0.01363	0.00071
308.15	0.01648	0.00086
313.15	0.02013	0.00105

System: benzoic acid + water; phases: Liquid, Crystal
Fixed: Pressure, kPa = 101.2
Property: Mole fraction of benzoic acid (Liquid); method: Chromatography
Temperature, K	Mole fraction of benzoic acid	uncertainty
281.15	0.0003106	1.62e-05
295.65	0.0005356	2.79e-05
300.15	0.0006186	3.22e-05
305.15	0.0007126	3.71e-05
318.15	0.001058	5.5e-05
