Measured thermophysical data. Solubility of 1,3,5-Benzenetricarboxylic Acid in Different Solvents
Source: J. Chem. Eng. Data, 2016, 10.1021/acs.jced.5b00870
Compound 1: 1,3,5-benzenetricarboxylic acid, C9H6O6, InChI=1S/C9H6O6/c10-7(11)4-1-5(8(12)13)3-6(2-4)9(14)15/h1-3H,(H,10,11)(H,12,13)(H,14,15), purity 99.5%
Compound 2: methanol, CH4O, InChI=1S/CH4O/c1-2/h2H,1H3, purity 98%
Compound 3: propan-2-ol, C3H8O, InChI=1S/C3H8O/c1-3(2)4/h3-4H,1-2H3, purity 98%
Compound 4: 2-methyl-1-propanol, C4H10O, InChI=1S/C4H10O/c1-4(2)3-5/h4-5H,3H2,1-2H3, purity 98%
Compound 5: ethanol, C2H6O, InChI=1S/C2H6O/c1-2-3/h3H,2H2,1H3, purity 98%
Compound 6: 1,2-ethanediol, C2H6O2, InChI=1S/C2H6O2/c3-1-2-4/h3-4H,1-2H2, purity 98%
Compound 7: water, H2O, InChI=1S/H2O/h1H2, purity 99.8%

System: 1,3,5-benzenetricarboxylic acid + water; phases: Liquid, Crystal
Fixed: Pressure, kPa = 101.325
Property: Mole fraction of 1,3,5-benzenetricarboxylic acid (Liquid); method: visual
Temperature, K	Mole fraction of 1,3,5-benzenetricarboxylic acid	uncertainty
301.05	0.00015	8e-05
305.47	0.00019	0.0001
309.8	0.00025	0.00013
315.22	0.00033	0.00017
320.56	0.00044	0.00022
325.11	0.00055	0.00028
329.42	0.00069	0.00035
333.45	0.00085	0.00043
337.32	0.00103	0.00052
342.37	0.00133	0.00067
346.86	0.00165	0.00083
350.93	0.00205	0.00103
354.7	0.00248	0.00124

System: propan-2-ol + 1,3,5-benzenetricarboxylic acid; phases: Liquid, Crystal
Fixed: Pressure, kPa = 101.325
Property: Mole fraction of 1,3,5-benzenetricarboxylic acid (Liquid); method: visual
Temperature, K	Mole fraction of 1,3,5-benzenetricarboxylic acid	uncertainty
305.77	0.00706	0.00353
311.02	0.00798	0.00399
315.67	0.00869	0.00435
320.61	0.00949	0.00475
324.58	0.01042	0.00521
330.39	0.01167	0.00584
336.05	0.01322	0.00661
339.51	0.01421	0.00711
342.69	0.01549	0.00775
348.82	0.01768	0.00884
353.47	0.02004	0.01002

System: 2-methyl-1-propanol + 1,3,5-benzenetricarboxylic acid; phases: Liquid, Crystal
Fixed: Pressure, kPa = 101.325
Property: Mole fraction of 1,3,5-benzenetricarboxylic acid (Liquid); method: visual
Temperature, K	Mole fraction of 1,3,5-benzenetricarboxylic acid	uncertainty
306	0.0078	0.0039
310.65	0.0086	0.0043
314.94	0.00926	0.00463
319.87	0.01045	0.00523
324.75	0.01167	0.00584
330.58	0.01324	0.00662
336.27	0.01496	0.00748
340.92	0.01641	0.00821
345.49	0.01807	0.00904
350.32	0.01996	0.00998
354.87	0.02162	0.01081

System: methanol + 1,3,5-benzenetricarboxylic acid; phases: Liquid, Crystal
Fixed: Pressure, kPa = 101.325
Property: Mole fraction of 1,3,5-benzenetricarboxylic acid (Liquid); method: visual
Temperature, K	Mole fraction of 1,3,5-benzenetricarboxylic acid	uncertainty
298.21	0.01203	0.00602
304.67	0.01384	0.00692
308.78	0.01512	0.00756
313.97	0.01685	0.00843
319.01	0.01865	0.00933
323.32	0.0202	0.0101
328.2	0.02236	0.01118

System: ethanol + 1,3,5-benzenetricarboxylic acid; phases: Liquid, Crystal
Fixed: Pressure, kPa = 101.325
Property: Mole fraction of 1,3,5-benzenetricarboxylic acid (Liquid); method: visual
Temperature, K	Mole fraction of 1,3,5-benzenetricarboxylic acid	uncertainty
302.89	0.0207	0.01035
309.85	0.02283	0.01142
312.83	0.02368	0.01184
319.06	0.0257	0.01285
324.5	0.02767	0.01384
328.86	0.0296	0.0148
334.4	0.03155	0.01578
338.61	0.03329	0.01665
343.3	0.03546	0.01773
348.03	0.03787	0.01894

System: 1,2-ethanediol + 1,3,5-benzenetricarboxylic acid; phases: Liquid, Crystal
Fixed: Pressure, kPa = 101.325
Property: Mole fraction of 1,3,5-benzenetricarboxylic acid (Liquid); method: visual
Temperature, K	Mole fraction of 1,3,5-benzenetricarboxylic acid	uncertainty
305.44	0.00826	0.00413
310.56	0.00951	0.00476
315.85	0.01124	0.00562
321.33	0.01305	0.00653
326.03	0.01475	0.00738
331.84	0.01778	0.00889
336.56	0.02021	0.01011
341.48	0.02289	0.01145
345.8	0.02616	0.01308
350.33	0.02932	0.01466
355.22	0.0336	0.0168
359.89	0.03807	0.01904

System: ethanol + 1,3,5-benzenetricarboxylic acid + water; phases: Liquid, Crystal
Fixed: Pressure, kPa = 101.325
Property: Mole fraction of 1,3,5-benzenetricarboxylic acid (Liquid); method: visual
Solvent: Mass fraction of water	Temperature, K	Mole fraction of 1,3,5-benzenetricarboxylic acid	uncertainty
0.9	302.03	0.00029	0.00015
0.9	306.75	0.00041	0.00021
0.9	311.61	0.00058	0.00029
0.9	316.1	0.00082	0.00041
0.9	320.67	0.00115	0.00058
0.9	325.26	0.00159	0.0008
0.9	329.5	0.00208	0.00104
0.9	336.22	0.00336	0.00168
0.9	340.56	0.00447	0.00224
0.9	345.35	0.0061	0.00305
0.8	302.26	0.00148	0.00074
0.8	306.93	0.00188	0.00094
0.8	311.87	0.0023	0.00115
0.8	316.7	0.00284	0.00142
0.8	321.57	0.00351	0.00176
0.8	326.35	0.00429	0.00215
0.8	331.26	0.00503	0.00252
0.8	336.16	0.00598	0.00299
0.8	341.04	0.00703	0.00352
0.8	345.78	0.00814	0.00407
0.7	302.31	0.00495	0.00248
0.7	306.86	0.00562	0.00281
0.7	311.78	0.0066	0.0033
0.7	316.47	0.00757	0.00379
0.7	321.46	0.00878	0.00439
0.7	326.05	0.00998	0.00499
0.7	331.21	0.0114	0.0057
0.7	335.77	0.01254	0.00627
0.7	340.47	0.01405	0.00703
0.7	345.21	0.01565	0.00783
0.6	302.35	0.0056	0.0028
0.6	306.84	0.00641	0.00321
0.6	311.72	0.00736	0.00368
0.6	316.61	0.00845	0.00423
0.6	321.46	0.00937	0.00469
0.6	326.23	0.01075	0.00538
0.6	330.78	0.01205	0.00603
0.6	335.62	0.01331	0.00666
0.6	339.85	0.01472	0.00736
0.6	344.82	0.01634	0.00817
0.5	302.1	0.01325	0.00663
0.5	326.37	0.02182	0.01091
0.5	306.93	0.01467	0.00734
0.5	311.82	0.01641	0.00821
0.5	316.72	0.01807	0.00904
0.5	321.62	0.02003	0.01002
0.5	331.08	0.02301	0.01151
0.5	335.91	0.02526	0.01263
0.5	340.58	0.02671	0.01336
0.5	345.3	0.02925	0.01463
0.4	302.07	0.0165	0.00825
0.4	306.87	0.01811	0.00906
0.4	311.77	0.01988	0.00994
0.4	316.62	0.02186	0.01093
0.4	321.5	0.02367	0.01184
0.4	326.27	0.02532	0.01266
0.4	330.97	0.02736	0.01368
0.4	335.88	0.02979	0.0149
0.4	340.52	0.03159	0.0158
0.4	345.23	0.03383	0.01692
0.2	302.24	0.01912	0.00956
0.2	306.85	0.02043	0.01022
0.2	311.77	0.02202	0.01101
0.2	316.63	0.02393	0.01197
0.2	321.53	0.02551	0.01276
0.2	326.32	0.02779	0.0139
0.2	331.21	0.02948	0.01474
0.2	336.13	0.03165	0.01583
0.2	340.96	0.03403	0.01702
0.2	345.7	0.03599	0.018
0	302.89	0.0207	0.01035
0	309.85	0.02283	0.01142
0	312.83	0.02368	0.01184
0	319.06	0.0257	0.01285
0	324.5	0.02767	0.01384
0	328.86	0.0296	0.0148
0	334.4	0.03155	0.01578
0	338.61	0.03329	0.01665
0	343.3	0.03546	0.01773
0	348.03	0.03787	0.01894
1	301.05	0.00015	8e-05
1	305.47	0.00019	0.0001
1	309.8	0.00025	0.00013
1	315.22	0.00033	0.00017
1	320.56	0.00044	0.00022
1	325.11	0.00055	0.00028
1	329.42	0.00069	0.00035
1	333.45	0.00085	0.00043
1	337.32	0.00103	0.00052
1	342.37	0.00133	0.00067
1	346.86	0.00165	0.00083
1	350.93	0.00205	0.00103
1	354.7	0.00248	0.00124
