Measured thermophysical data. Influence of pH Value and Ionic Liquids on the Solubility of l-Alanine and l-Glutamic Acid in Aqueous Solutions at 30 deg C
Source: J. Chem. Eng. Data, 2017, 10.1021/acs.jced.6b00367
Compound 1: water, H2O, InChI=1S/H2O/h1H2, purity 99.9%
Compound 2: cholinium dihydrogen citrate, C11H21NO8, InChI=1S/C6H8O7.C5H14NO/c7-3(8)1-6(13,5(11)12)2-4(9)10;1-6(2,3)4-5-7/h13H,1-2H2,(H,7,8)(H,9,10)(H,11,12);7H,4-5H2,1-3H3/q;+1/p-1, purity 98%
Compound 3: (S)-2-aminopropanoic acid, C3H7NO2, InChI=1S/C3H7NO2/c1-2(4)3(5)6/h2H,4H2,1H3,(H,5,6)/t2-/m0/s1, purity 99%
Compound 4: L-glutamic acid, C5H9NO4, InChI=1S/C5H9NO4/c6-3(5(9)10)1-2-4(7)8/h3H,1-2,6H2,(H,7,8)(H,9,10)/t3-/m0/s1, purity 99%
Compound 5: sodium (S)-2-amino-4-carboxybutanoate monohydrate, C5H10NNaO5, InChI=1S/C5H9NO4.Na.H2O/c6-3(5(9)10)1-2-4(7)8;;/h3H,1-2,6H2,(H,7,8)(H,9,10);;1H2/q;+1;/p-1/t3-;;/m0../s1, purity 99%

System: cholinium dihydrogen citrate + water; phases: Liquid
Fixed: Pressure, kPa = 101.3
Property: Mass density, kg/m3 (Liquid); method: Vibrating tube method
Temperature, K	Mole fraction of cholinium dihydrogen citrate	Mass density, kg/m3	uncertainty
288.15	0.0239	1090.1	1
288.15	0.0105	1046	1
288.15	0.0056	1023.1	1
288.15	0.0023	1011.6	1
288.15	0.0011	1004.3	1
293.15	0.0239	1086.4	1
293.15	0.0105	1044.3	1
293.15	0.0056	1021.7	1
293.15	0.0023	1010.4	1
293.15	0.0011	1003.1	1
298.15	0.0239	1084	1
298.15	0.0105	1042.4	1
298.15	0.0056	1020.2	1
298.15	0.0023	1009	1
298.15	0.0011	1001.7	1
303.15	0.0239	1081.5	1
303.15	0.0105	1040.4	1
303.15	0.0056	1018.4	1
303.15	0.0023	1007.3	1
303.15	0.0011	1000.1	1
308.15	0.0239	1078.8	1
308.15	0.0105	1038.3	1
308.15	0.0056	1016.5	1
313.15	0.0239	1075.9	1
313.15	0.0105	1035.1	1
313.15	0.0056	1014.3	1
318.15	0.0239	1072.4	1
318.15	0.0105	1031.5	1
318.15	0.0056	1011.5	1

System: (S)-2-aminopropanoic acid + water; phases: Liquid, Crystal
Property: Mole fraction of (S)-2-aminopropanoic acid (Liquid); method: spectroscopic
Temperature, K	Pressure, kPa	Mole fraction of (S)-2-aminopropanoic acid	uncertainty
303.15	101.3	0.03382	0.00847

System: L-glutamic acid + water; phases: Liquid, Crystal
Property: Mole fraction of L-glutamic acid (Liquid); method: Gravimetric
Temperature, K	Pressure, kPa	Mole fraction of L-glutamic acid	uncertainty
303.15	101.3	0.0013	0.00105

System: sodium (S)-2-amino-4-carboxybutanoate monohydrate + water; phases: Liquid, Crystal
Property: Mole fraction of sodium (S)-2-amino-4-carboxybutanoate monohydrate (Liquid); method: gravimetric
Temperature, K	Pressure, kPa	Mole fraction of sodium (S)-2-amino-4-carboxybutanoate monohydrate	uncertainty
303.15	101.3	0.06942	0.00106
