Measured thermophysical data. Measurement and Prediction of Excess Properties of Binary Mixtures Methyl Decanoate + an Even-Numbered n-Alkane (C6-C16) at 298.15 K
Source: J. Chem. Eng. Data, 2019, 10.1021/acs.jced.9b00185
Compound 1: methyl decanoate, C11H22O2, InChI=1S/C11H22O2/c1-3-4-5-6-7-8-9-10-11(12)13-2/h3-10H2,1-2H3
Compound 2: hexane, C6H14, InChI=1S/C6H14/c1-3-5-6-4-2/h3-6H2,1-2H3
Compound 3: octane, C8H18, InChI=1S/C8H18/c1-3-5-7-8-6-4-2/h3-8H2,1-2H3
Compound 4: decane, C10H22, InChI=1S/C10H22/c1-3-5-7-9-10-8-6-4-2/h3-10H2,1-2H3
Compound 5: dodecane, C12H26, InChI=1S/C12H26/c1-3-5-7-9-11-12-10-8-6-4-2/h3-12H2,1-2H3
Compound 6: tetradecane, C14H30, InChI=1S/C14H30/c1-3-5-7-9-11-13-14-12-10-8-6-4-2/h3-14H2,1-2H3
Compound 7: hexadecane, C16H34, InChI=1S/C16H34/c1-3-5-7-9-11-13-15-16-14-12-10-8-6-4-2/h3-16H2,1-2H3

System: methyl decanoate; phases: Liquid
Property: Refractive index (Na D-line) (Liquid); method: Standard Abbe refractometry
Temperature, K	Pressure, kPa	Refractive index (Na D-line)	uncertainty
298.15	101.325	1.4235	0.0005

System: methyl decanoate; phases: Liquid
Property: Mass density, kg/m3 (Liquid); method: Vibrating tube method
Temperature, K	Pressure, kPa	Mass density, kg/m3	uncertainty
298.15	101.325	868.02	1.01

System: hexane; phases: Liquid
Property: Refractive index (Na D-line) (Liquid); method: Standard Abbe refractometry
Temperature, K	Pressure, kPa	Refractive index (Na D-line)	uncertainty
298.15	101.325	1.3725	0.0005

System: hexane; phases: Liquid
Property: Mass density, kg/m3 (Liquid); method: Vibrating tube method
Temperature, K	Pressure, kPa	Mass density, kg/m3	uncertainty
298.15	101.325	654.81	1.03

System: octane; phases: Liquid
Property: Refractive index (Na D-line) (Liquid); method: Standard Abbe refractometry
Temperature, K	Pressure, kPa	Refractive index (Na D-line)	uncertainty
298.15	101.325	1.3955	0.0005

System: octane; phases: Liquid
Property: Mass density, kg/m3 (Liquid); method: Vibrating tube method
Temperature, K	Pressure, kPa	Mass density, kg/m3	uncertainty
298.15	101.325	698.45	1.01

System: decane; phases: Liquid
Property: Refractive index (Na D-line) (Liquid); method: Standard Abbe refractometry
Temperature, K	Pressure, kPa	Refractive index (Na D-line)	uncertainty
298.15	101.325	1.41	0.0005

System: decane; phases: Liquid
Property: Mass density, kg/m3 (Liquid); method: Vibrating tube method
Temperature, K	Pressure, kPa	Mass density, kg/m3	uncertainty
298.15	101.325	726.61	1.02

System: dodecane; phases: Liquid
Property: Refractive index (Na D-line) (Liquid); method: Standard Abbe refractometry
Temperature, K	Pressure, kPa	Refractive index (Na D-line)	uncertainty
298.15	101.325	1.4197	0.0005

System: dodecane; phases: Liquid
Property: Mass density, kg/m3 (Liquid); method: Vibrating tube method
Temperature, K	Pressure, kPa	Mass density, kg/m3	uncertainty
298.15	101.325	745.2	1.02

System: tetradecane; phases: Liquid
Property: Refractive index (Na D-line) (Liquid); method: Standard Abbe refractometry
Temperature, K	Pressure, kPa	Refractive index (Na D-line)	uncertainty
298.15	101.325	1.4273	0.0005

System: tetradecane; phases: Liquid
Property: Mass density, kg/m3 (Liquid); method: Vibrating tube method
Temperature, K	Pressure, kPa	Mass density, kg/m3	uncertainty
298.15	101.325	759.17	1.01

System: hexadecane; phases: Liquid
Property: Refractive index (Na D-line) (Liquid); method: Standard Abbe refractometry
Temperature, K	Pressure, kPa	Refractive index (Na D-line)	uncertainty
298.15	101.325	1.4323	0.0005

System: hexadecane; phases: Liquid
Property: Mass density, kg/m3 (Liquid); method: Vibrating tube method
Temperature, K	Pressure, kPa	Mass density, kg/m3	uncertainty
298.15	101.325	769.8	1.02

System: methyl decanoate + dodecane; phases: Liquid
Fixed: Temperature, K = 298.15
Fixed: Pressure, kPa = 98.8
Property: Mass density, kg/m3 (Liquid); method: Vibrating tube method
Mole fraction of methyl decanoate	Mass density, kg/m3	uncertainty
0	745.2	1.02
0.05	750.68	1.02
0.1	756.24	1.02
0.1503	761.93	1.02
0.1998	767.59	1.02
0.25	773.38	1.02
0.3001	779.28	1.02
0.3506	785.27	1.02
0.3996	791.16	1.02
0.4497	797.22	1.02
0.5002	803.37	1.02
0.55	809.54	1.02
0.5998	815.74	1.02
0.6499	822.04	1.02
0.6994	828.35	1.02
0.7495	834.79	1.01
0.7996	841.3	1.01
0.8493	847.78	1.01
0.8997	854.45	1.01
0.9496	861.18	1.01
1	868.02	1.01

System: methyl decanoate + dodecane; phases: Liquid
Fixed: Temperature, K = 298.15
Fixed: Pressure, kPa = 98.8
Property: Excess molar enthalpy (molar enthalpy of mixing), kJ/mol (Liquid); method: Calvet calorimetry
Mole fraction of methyl decanoate	Excess molar enthalpy (molar enthalpy of mixing), kJ/mol	uncertainty
0	0	0.001
0.0512	0.165	0.007
0.1129	0.318	0.013
0.1513	0.422	0.017
0.2021	0.496	0.02
0.2513	0.591	0.024
0.299	0.638	0.026
0.3572	0.682	0.028
0.4051	0.709	0.029
0.4473	0.72	0.029
0.5033	0.719	0.029
0.5502	0.708	0.029
0.5952	0.682	0.028
0.652	0.629	0.026
0.7089	0.553	0.023
0.7524	0.488	0.02
0.8098	0.399	0.016
0.8525	0.306	0.013
0.9019	0.203	0.008
0.9586	0.082	0.004
1	0	0.001

System: methyl decanoate + tetradecane; phases: Liquid
Fixed: Temperature, K = 298.15
Fixed: Pressure, kPa = 98.8
Property: Mass density, kg/m3 (Liquid); method: Vibrating tube method
Mole fraction of methyl decanoate	Mass density, kg/m3	uncertainty
0	759.17	1.01
0.0498	763.35	1.01
0.1001	767.69	1.01
0.1502	772.18	1.01
0.1998	776.73	1.01
0.2496	781.41	1.01
0.2999	786.24	1.01
0.3501	791.21	1.01
0.4001	796.26	1.01
0.4498	801.43	1.01
0.5001	806.77	1.01
0.5498	812.19	1.01
0.5997	817.76	1.01
0.6499	823.51	1.01
0.6999	829.37	1.01
0.7501	835.45	1.01
0.799	841.48	1.01
0.849	847.78	1.01
0.8992	854.34	1.01
0.95	861.12	1.01
1	868.02	1.01

System: methyl decanoate + tetradecane; phases: Liquid
Fixed: Temperature, K = 298.15
Fixed: Pressure, kPa = 98.8
Property: Excess molar enthalpy (molar enthalpy of mixing), kJ/mol (Liquid); method: Calvet calorimetry
Mole fraction of methyl decanoate	Excess molar enthalpy (molar enthalpy of mixing), kJ/mol	uncertainty
0	0	0.001
0.0633	0.208	0.009
0.0922	0.298	0.012
0.1577	0.451	0.018
0.1964	0.529	0.022
0.258	0.634	0.026
0.3045	0.682	0.028
0.3597	0.736	0.03
0.3944	0.769	0.031
0.4492	0.793	0.032
0.5076	0.794	0.032
0.5535	0.775	0.032
0.607	0.722	0.029
0.6586	0.675	0.028
0.7089	0.609	0.025
0.7542	0.55	0.022
0.8009	0.48	0.02
0.8477	0.396	0.016
0.8974	0.283	0.012
0.9455	0.177	0.007
1	0	0.001

System: methyl decanoate + hexadecane; phases: Liquid
Fixed: Temperature, K = 298.15
Fixed: Pressure, kPa = 98.8
Property: Mass density, kg/m3 (Liquid); method: Vibrating tube method
Mole fraction of methyl decanoate	Mass density, kg/m3	uncertainty
0	769.8	1.02
0.0499	773.1	1.02
0.0998	776.6	1.02
0.1501	780.26	1.02
0.2	783.98	1.02
0.2497	787.88	1.02
0.3006	791.99	1.02
0.3497	796.11	1.02
0.4001	800.47	1.02
0.45	804.97	1.02
0.4997	809.64	1.02
0.5502	814.55	1.02
0.5995	819.57	1.02
0.6501	824.85	1.02
0.6996	830.28	1.01
0.7497	835.95	1.01
0.7997	841.91	1.01
0.8489	847.93	1.01
0.8992	854.43	1.01
0.9494	861.11	1.01
1	868.02	1.01

System: methyl decanoate + hexadecane; phases: Liquid
Fixed: Temperature, K = 298.15
Fixed: Pressure, kPa = 98.8
Property: Excess molar enthalpy (molar enthalpy of mixing), kJ/mol (Liquid); method: Calvet calorimetry
Mole fraction of methyl decanoate	Excess molar enthalpy (molar enthalpy of mixing), kJ/mol	uncertainty
0	0	0.001
0.0636	0.197	0.008
0.1131	0.339	0.014
0.1619	0.449	0.018
0.201	0.539	0.022
0.2575	0.641	0.026
0.3056	0.71	0.029
0.3584	0.771	0.031
0.398	0.814	0.033
0.4494	0.827	0.034
0.4955	0.828	0.034
0.5479	0.816	0.033
0.5983	0.786	0.032
0.6494	0.739	0.03
0.7034	0.681	0.028
0.7512	0.608	0.025
0.8015	0.528	0.022
0.8493	0.428	0.018
0.8995	0.296	0.012
0.9495	0.153	0.007
1	0	0.001

System: methyl decanoate + hexane; phases: Liquid
Fixed: Temperature, K = 298.15
Fixed: Pressure, kPa = 98.8
Property: Excess molar enthalpy (molar enthalpy of mixing), kJ/mol (Liquid); method: Calvet calorimetry
Mole fraction of methyl decanoate	Excess molar enthalpy (molar enthalpy of mixing), kJ/mol	uncertainty
0	0	0.001
0.0479	0.16	0.007
0.0943	0.266	0.011
0.1448	0.339	0.014
0.1927	0.44	0.018
0.2477	0.478	0.02
0.3077	0.513	0.021
0.3542	0.526	0.022
0.4059	0.523	0.021
0.4574	0.504	0.021
0.5055	0.473	0.019
0.5557	0.448	0.018
0.6037	0.412	0.017
0.6531	0.368	0.015
0.7032	0.322	0.013
0.752	0.284	0.012
0.8028	0.227	0.009
0.8496	0.167	0.007
0.9014	0.116	0.005
0.9328	0.073	0.003
1	0	0.001

System: methyl decanoate + octane; phases: Liquid
Fixed: Temperature, K = 298.15
Fixed: Pressure, kPa = 98.8
Property: Excess molar enthalpy (molar enthalpy of mixing), kJ/mol (Liquid); method: Calvet calorimetry
Mole fraction of methyl decanoate	Excess molar enthalpy (molar enthalpy of mixing), kJ/mol	uncertainty
0	0	0.001
0.0551	0.165	0.007
0.1035	0.289	0.012
0.154	0.397	0.016
0.2078	0.474	0.019
0.2514	0.53	0.022
0.3088	0.573	0.023
0.3584	0.598	0.024
0.399	0.616	0.025
0.4514	0.61	0.025
0.5051	0.6	0.025
0.5555	0.573	0.023
0.599	0.549	0.022
0.657	0.483	0.02
0.7066	0.433	0.018
0.7511	0.382	0.016
0.8069	0.298	0.012
0.8577	0.223	0.009
0.9098	0.147	0.006
0.9561	0.07	0.003
1	0	0.001

System: methyl decanoate + decane; phases: Liquid
Fixed: Temperature, K = 298.15
Fixed: Pressure, kPa = 98.8
Property: Excess molar enthalpy (molar enthalpy of mixing), kJ/mol (Liquid); method: Calvet calorimetry
Mole fraction of methyl decanoate	Excess molar enthalpy (molar enthalpy of mixing), kJ/mol	uncertainty
0	0	0.001
0.0469	0.138	0.006
0.0985	0.277	0.011
0.1523	0.383	0.016
0.2018	0.48	0.02
0.2537	0.557	0.023
0.3062	0.628	0.026
0.3563	0.652	0.027
0.4008	0.67	0.027
0.4543	0.678	0.028
0.5058	0.665	0.027
0.5498	0.652	0.027
0.6017	0.609	0.025
0.6524	0.558	0.023
0.7078	0.475	0.019
0.7597	0.416	0.017
0.8086	0.34	0.014
0.8592	0.254	0.011
0.9058	0.17	0.007
0.9566	0.063	0.003
1	0	0.001
