Measured thermophysical data. Viscosity, Density, Heat Capacity, Speed of Sound and Other Derived Properties of 1-Butyl-3-Methylimidazolium tris(Pentafluoroethyl) Trifluorophosphate over a Wide Range of Temperature and at Atmospheric Pressure
Source: J. Chem. Eng. Data, 2017, 10.1021/acs.jced.7b00618
Compound 1: 1-butyl-3-methylimidazolium tris(pentafluoroethyl)trifluorophosphate, C14H15F18N2P, InChI=1S/C8H15N2.C6F18P/c1-3-4-5-10-7-6-9(2)8-10;7-1(8,9)4(16,17)25(22,23,24,5(18,19)2(10,11)12)6(20,21)3(13,14)15/h6-8H,3-5H2,1-2H3;/q+1;-1, purity 99%

System: 1-butyl-3-methylimidazolium tris(pentafluoroethyl)trifluorophosphate; phases: Liquid
Fixed: Pressure, kPa = 101
Property: Mass density, kg/m3 (Liquid); method: Vibrating tube method
Temperature, K	Mass density, kg/m3	uncertainty
273.15	1652.1	4.69
283.15	1642.74	4.66
293.15	1630.39	4.62
298.15	1623.73	4.6
313.15	1607.76	4.56
333.15	1584.24	4.49
353.15	1562.08	4.43
273.16	1652.07	4.69
283.15	1642.71	4.66
293.15	1629.96	4.62
298.15	1623.7	4.6
313.16	1606.73	4.55
333.15	1584.22	4.49
353.15	1561.78	4.42
373.15	1539.47	4.36
393.15	1517.22	4.29
413.15	1495.07	4.23
278.15	1649.6	4.68
283.15	1643.4	4.66
293.15	1631.2	4.63
303.15	1619.3	4.59
313.15	1607.9	4.56
323.15	1596.6	4.53
333.15	1585.05	4.49
343.15	1574.06	4.46
353.15	1562.1	4.43
363.15	1553.5	4.4
373.15	1542.7	4.37
283.15	1643.16	4.66
293.15	1631.68	4.63
303.15	1620.3	4.59
313.16	1607.99	4.56
323.16	1597.06	4.53
333.15	1585.06	4.49
343.16	1575.53	4.46
343.15	1574.07	4.46
333.15	1586.15	4.5
323.15	1597.29	4.53
313.15	1607.81	4.56
303.15	1619.8	4.59
293.15	1631.19	4.63
283.15	1642.69	4.66
278.15	1648.46	4.68
278.15	1648.6	4.68
283.15	1642.84	4.66
293.15	1631.37	4.63
303.15	1619.97	4.59
313.16	1607.98	4.56

System: 1-butyl-3-methylimidazolium tris(pentafluoroethyl)trifluorophosphate; phases: Liquid
Fixed: Pressure, kPa = 101.325
Property: Molar heat capacity at constant pressure, J/K/mol (Liquid); method: DSC
Temperature, K	Molar heat capacity at constant pressure, J/K/mol	uncertainty
273.15	664.2665522082	40.895917902
283.15	677.703782376	41.4801453006
293.15	690.5567851452	42.0643726992
298.15	696.9832865298	42.6486000978
313.15	715.0943358864	43.817054895
333.15	737.2949770332	44.9855096922
353.15	757.7429359842	46.1539644894
373.15	776.4382127394	47.3224192866
393.15	792.7965799002	48.4908740838
413.15	806.8180374666	49.659328881

System: 1-butyl-3-methylimidazolium tris(pentafluoroethyl)trifluorophosphate; phases: Liquid
Fixed: Pressure, kPa = 101.325
Property: Speed of sound, m/s (Liquid); method: Sing-around technique in a fixed-path interferometer
Temperature, K	Speed of sound, m/s	uncertainty
278.15	1156.05	1.52
278.15	1156.1	1.52
283.15	1143.69	1.52
283.15	1143.42	1.52
283.15	1143.69	1.52
293.15	1119.61	1.52
293.15	1119.69	1.52
293.15	1119.07	1.52
303.15	1096.45	1.51
303.15	1096.05	1.51
303.15	1095.76	1.51
313.16	1073.59	1.51
313.15	1073.26	1.51
323.16	1051.73	1.51
333.15	1030.29	1.51
333.15	1030.26	1.51
343.16	1009.68	1.5
343.15	1009.71	1.5

System: 1-butyl-3-methylimidazolium tris(pentafluoroethyl)trifluorophosphate; phases: Liquid
Fixed: Pressure, kPa = 100
Property: Viscosity, Pa*s (Liquid); method: Cone and plate viscometry
Temperature, K	Viscosity, Pa*s	uncertainty
262.57	0.7966	0.04484
263.41	0.74485	0.04093
264.26	0.69289	0.03708
265.11	0.64478	0.03359
265.95	0.60119	0.03047
266.78	0.56421	0.02788
267.62	0.5278	0.0255
268.47	0.49234	0.02322
269.33	0.46031	0.0212
270.18	0.43055	0.01936
271	0.40412	0.01775
271.8	0.3799	0.01631
272.59	0.3574	0.01499
273.38	0.33685	0.01381
274.17	0.31836	0.01276
274.96	0.30138	0.01182
275.75	0.2843	0.01089
276.54	0.27037	0.01015
277.34	0.25586	0.00938
278.14	0.24338	0.00874
278.94	0.22981	0.00806
279.73	0.21803	0.00748
280.53	0.20725	0.00695
281.34	0.19667	0.00645
282.14	0.18715	0.006
282.94	0.17839	0.0056
283.74	0.17006	0.00523
284.54	0.16201	0.00488
285.35	0.1549	0.00457
286.16	0.14779	0.00427
286.95	0.14122	0.004
287.75	0.13465	0.00374
288.56	0.12853	0.00349
289.36	0.12243	0.00326
290.17	0.11698	0.00305
339.17	0.018728	0.000396
339.98	0.01812	0.000384
340.78	0.017559	0.000372
341.58	0.016949	0.000358
342.38	0.016762	0.000354
343.18	0.016629	0.000351
343.99	0.01618	0.000342
344.79	0.015806	0.000334
345.58	0.015388	0.000325
346.39	0.015292	0.000324
347.2	0.014723	0.000311
348	0.014786	0.000313
348.8	0.014198	0.0003
349.6	0.014303	0.000302
350.4	0.014137	0.000298
351.2	0.013886	0.000293
352.01	0.013432	0.000284
352.81	0.013242	0.000279
353.61	0.013173	0.000279
354.41	0.012651	0.000269
355.22	0.012346	0.000262
356.02	0.01202	0.000254
356.82	0.012084	0.000255
357.63	0.011891	0.000251
358.43	0.011673	0.000247
359.24	0.011476	0.000243
360.04	0.011177	0.000236
360.84	0.010985	0.000232
361.65	0.011017	0.000233
362.45	0.010562	0.000224
363.26	0.010354	0.000219
364.06	0.010346	0.000219
364.86	0.010124	0.000214
365.67	0.009994	0.000211
366.47	0.009906	0.00021
290.97	0.11221	0.00288
291.78	0.10752	0.0027
292.58	0.10336	0.00256
293.4	0.099541	0.002432
294.23	0.095658	0.002302
295.05	0.091747	0.002173
295.85	0.087899	0.002049
296.65	0.084298	0.001936
297.45	0.080985	0.001834
298.24	0.078291	0.001753
299.03	0.075109	0.001662
299.83	0.072516	0.001588
300.63	0.069807	0.001514
301.43	0.067059	0.00144
302.23	0.064808	0.00138
303.03	0.062425	0.001321
303.84	0.060493	0.001272
304.63	0.05829	0.001221
305.44	0.056805	0.001183
306.23	0.055218	0.001151
307.04	0.053634	0.001111
307.83	0.051676	0.001072
308.64	0.049938	0.001057
309.44	0.048344	0.001023
310.24	0.046899	0.000992
311.05	0.045514	0.000961
311.85	0.044149	0.000933
312.66	0.043012	0.000909
313.46	0.041709	0.000882
314.26	0.040493	0.000859
315.07	0.03929	0.000829
315.87	0.038185	0.000807
316.67	0.037102	0.000787
317.48	0.036301	0.000767
318.28	0.03533	0.00075
319.09	0.034314	0.000728
319.9	0.033147	0.000701
320.68	0.032352	0.000685
321.5	0.03135	0.000662
322.3	0.030452	0.000644
323.1	0.029589	0.000626
323.92	0.028861	0.00061
324.74	0.028591	0.000605
325.58	0.028143	0.000596
326.41	0.026936	0.000572
327.23	0.025762	0.000545
328.03	0.025054	0.000529
328.83	0.024469	0.000518
329.62	0.023894	0.000506
330.4	0.023331	0.000494
331.19	0.022843	0.000483
331.98	0.022456	0.000475
332.77	0.022113	0.000468
333.57	0.021274	0.000451
334.38	0.020714	0.000438
367.27	0.009516	0.000202
368.07	0.009374	0.000198
368.88	0.009336	0.000197
369.69	0.009374	0.000198
370.49	0.009228	0.000196
371.29	0.008873	0.000188
372.09	0.008729	0.000185
372.89	0.008624	0.000182
373.69	0.008544	0.000181
374.5	0.008569	0.000181
375.3	0.008319	0.000176
376.09	0.008204	0.000173
376.91	0.008214	0.000174
377.71	0.007887	0.000167
378.51	0.008021	0.00017
379.31	0.007915	0.000168
380.12	0.007477	0.000158
380.92	0.007419	0.000157
381.72	0.007449	0.000158
382.53	0.007306	0.000155
383.33	0.007411	0.000157
384.13	0.007317	0.000155
384.94	0.006962	0.000148
385.74	0.006946	0.000147
386.54	0.006889	0.000146
387.35	0.006958	0.000147
388.15	0.006771	0.000143
388.96	0.006787	0.000144
389.76	0.006706	0.000142
390.56	0.006626	0.00014
391.36	0.006547	0.000139
392.17	0.006469	0.000137
392.96	0.006394	0.000136
393.76	0.00624	0.000132
394.56	0.006188	0.000131
395.37	0.005949	0.000126
396.17	0.00592	0.000125
396.98	0.005965	0.000126
397.78	0.005959	0.000126
398.59	0.005899	0.000125
399.38	0.005686	0.000121
400.19	0.005536	0.000118
400.99	0.005509	0.000117
401.8	0.005352	0.000113
402.6	0.005399	0.000114
403.4	0.005241	0.000111
404.21	0.005232	0.000111
405.01	0.005284	0.000112
405.82	0.005347	0.000114
406.62	0.004986	0.000106
407.42	0.004933	0.000105
408.22	0.00501	0.000106
409.03	0.005009	0.000106
409.83	0.00499	0.000106
410.63	0.004843	0.000103
335.18	0.020368	0.000431
335.98	0.019873	0.00042
336.77	0.019412	0.00041
337.57	0.019087	0.000403
338.37	0.018712	0.000396
411.44	0.004669	9.9e-05
412.25	0.004686	9.9e-05
413.03	0.004675	9.9e-05
413.85	0.004603	9.9e-05
262.61	0.78448	0.04388
263.42	0.73648	0.04031
264.25	0.6879	0.03672
265.1	0.64035	0.03328
265.94	0.59792	0.03024
266.77	0.56044	0.02763
267.59	0.52487	0.02531
268.41	0.4912	0.02315
269.23	0.46116	0.02125
270.04	0.43239	0.01947
270.86	0.4065	0.01789
271.67	0.38259	0.01647
272.49	0.35971	0.01512
273.33	0.338	0.01387
274.17	0.31809	0.01275
275.02	0.29966	0.01173
275.83	0.28281	0.01081
276.63	0.26723	0.00998
277.43	0.25248	0.00921
278.21	0.23923	0.00853
279	0.22718	0.00793
279.79	0.21562	0.00736
280.58	0.20496	0.00684
281.37	0.1948	0.00636
282.17	0.18541	0.00593
282.96	0.17646	0.00552
283.76	0.1682	0.00515
284.56	0.16022	0.0048
285.35	0.15283	0.00449
286.15	0.14583	0.00419
286.95	0.13948	0.00393
287.76	0.13333	0.00369
288.56	0.12722	0.00344
289.37	0.12175	0.00324
290.17	0.11645	0.00303
339.16	0.017896	0.000379
339.96	0.01762	0.000374
340.77	0.017488	0.000371
341.58	0.017217	0.000364
342.4	0.016726	0.000353
343.23	0.016334	0.000345
344.05	0.015946	0.000337
344.88	0.015754	0.000333
345.7	0.015602	0.000329
346.52	0.015112	0.00032
347.33	0.014754	0.000311
348.14	0.01442	0.000305
348.94	0.014333	0.000302
349.73	0.014182	0.000299
350.5	0.013731	0.00029
351.28	0.013426	0.000283
352.07	0.013186	0.000278
352.86	0.013169	0.000278
353.65	0.01328	0.000281
354.45	0.012779	0.000271
355.24	0.01265	0.000268
356.03	0.012097	0.000256
356.84	0.011869	0.000251
357.64	0.011753	0.000248
358.44	0.011655	0.000246
359.24	0.011368	0.00024
360.04	0.011082	0.000234
360.85	0.010925	0.000231
361.65	0.010782	0.000228
362.46	0.010775	0.000228
363.26	0.010423	0.000221
364.06	0.010205	0.000216
364.86	0.010117	0.000214
365.67	0.009945	0.00021
366.47	0.009832	0.000208
290.98	0.11161	0.00285
291.78	0.10702	0.00269
292.58	0.10257	0.00254
293.38	0.098343	0.002391
294.19	0.094251	0.002256
294.99	0.090586	0.002136
295.8	0.087093	0.002024
296.6	0.083806	0.001921
297.4	0.080551	0.001821
298.2	0.077626	0.001734
299	0.074623	0.001649
299.81	0.07188	0.00157
300.61	0.069334	0.001501
301.41	0.066814	0.001434
302.22	0.064496	0.001373
303.02	0.062324	0.001318
303.82	0.060186	0.001265
304.63	0.058079	0.001216
305.43	0.05623	0.00117
306.24	0.054359	0.001132
307.03	0.052509	0.001087
307.83	0.050847	0.001055
308.64	0.049218	0.001042
309.44	0.04773	0.00101
310.25	0.046227	0.000978
311.05	0.044751	0.000945
311.85	0.043358	0.000917
312.66	0.042169	0.000892
313.46	0.040943	0.000866
314.27	0.03973	0.000843
315.06	0.038504	0.000813
315.87	0.0373	0.000789
316.67	0.036476	0.000773
317.47	0.035384	0.000747
318.28	0.034401	0.00073
319.08	0.033419	0.00071
319.88	0.032478	0.000687
320.69	0.031653	0.000671
321.49	0.030879	0.000652
322.29	0.03044	0.000644
323.1	0.02944	0.000623
323.9	0.028721	0.000607
324.7	0.027939	0.000591
325.51	0.027195	0.000576
326.31	0.026724	0.000567
327.12	0.02611	0.000553
327.92	0.025435	0.000537
328.71	0.02475	0.000523
329.52	0.023775	0.000503
330.32	0.023158	0.00049
331.12	0.022622	0.000478
331.93	0.0222	0.000469
332.73	0.021764	0.000461
333.54	0.02117	0.000449
334.34	0.020617	0.000436
367.27	0.009629	0.000204
368.07	0.009445	0.0002
368.88	0.009367	0.000198
369.68	0.009261	0.000196
370.48	0.009187	0.000195
371.29	0.008973	0.00019
372.08	0.008787	0.000186
372.88	0.008767	0.000185
373.68	0.008715	0.000184
374.49	0.008555	0.000181
375.28	0.008362	0.000177
376.09	0.008241	0.000174
376.91	0.008155	0.000172
377.7	0.008116	0.000172
378.51	0.008083	0.000171
379.31	0.00785	0.000167
380.12	0.007772	0.000165
380.91	0.007645	0.000162
381.72	0.007474	0.000158
382.53	0.00738	0.000156
383.33	0.007188	0.000152
384.13	0.007113	0.000151
384.94	0.007037	0.000149
385.74	0.006914	0.000146
386.55	0.006907	0.000146
387.35	0.006737	0.000143
388.15	0.006697	0.000142
388.96	0.006708	0.000142
389.76	0.006603	0.00014
390.56	0.006455	0.000137
391.36	0.006361	0.000135
392.17	0.006348	0.000134
392.96	0.006292	0.000133
393.76	0.006204	0.000131
394.56	0.006082	0.000129
395.37	0.006007	0.000127
396.17	0.005981	0.000127
396.97	0.005929	0.000126
397.78	0.005833	0.000124
398.58	0.005753	0.000122
399.39	0.005771	0.000123
400.19	0.005745	0.000122
400.99	0.00564	0.00012
401.8	0.005539	0.000117
402.61	0.005475	0.000116
403.4	0.005471	0.000116
404.21	0.005444	0.000115
405.01	0.005396	0.000114
405.82	0.005258	0.000112
406.62	0.005177	0.00011
407.41	0.005128	0.000109
408.22	0.005149	0.000109
409.03	0.005072	0.000108
409.83	0.00498	0.000106
410.63	0.004926	0.000105
335.14	0.020154	0.000426
335.95	0.01963	0.000415
336.75	0.019425	0.000411
337.55	0.018999	0.000402
338.36	0.018494	0.000392
411.44	0.004847	0.000103
412.24	0.004853	0.000103
413.06	0.00481	0.000102
413.84	0.004737	0.000101

System: 1-butyl-3-methylimidazolium tris(pentafluoroethyl)trifluorophosphate; phases: Liquid
Fixed: Pressure, kPa = 101
Property: Viscosity, Pa*s (Liquid); method: Concentric cylinders viscometry
Temperature, K	Viscosity, Pa*s	uncertainty
273.15	0.341535	0.00954
278.149	0.23874	0.005823
283.149	0.17476	0.003733
293.15	0.099999	0.001718
298.15	0.078002	0.001225
303.152	0.062135	0.000924
313.15	0.041386	0.000617
323.15	0.028827	0.000429
333.152	0.021361	0.000318
343.151	0.016371	0.000243
353.151	0.01296	0.000193
363.151	0.010559	0.000157
373.15	0.0086802	0.0001292
