Measured thermophysical data. Liquid-Liquid Equilibria for the Ternary and Quaternary Systems of Water + Trimethylolpropane + (2-Ethylhexan-1-ol/Octan-1-ol) + Formaldehyde at 298.15 K
Source: J. Chem. Eng. Data, 2019, 10.1021/acs.jced.9b00519
Compound 1: 2-ethyl-1-hexanol, C8H18O, InChI=1S/C8H18O/c1-3-5-6-8(4-2)7-9/h8-9H,3-7H2,1-2H3, purity 99%
Compound 2: 2-ethyl-2-(hydroxymethyl)-1,3-propanediol, C6H14O3, InChI=1S/C6H14O3/c1-2-6(3-7,4-8)5-9/h7-9H,2-5H2,1H3, purity 98%
Compound 3: octan-1-ol, C8H18O, InChI=1S/C8H18O/c1-2-3-4-5-6-7-8-9/h9H,2-8H2,1H3, purity 99%
Compound 4: water, H2O, InChI=1S/H2O/h1H2, purity 99.9%

System: water + 2-ethyl-2-(hydroxymethyl)-1,3-propanediol + octan-1-ol; phases: Liquid mixture 2, Liquid mixture 1
Fixed: Temperature, K = 298.15
Fixed: Pressure, kPa = 100
Property: Mass fraction of octan-1-ol (Liquid mixture 2); method: Chromatography
Property: Mass fraction of octan-1-ol (Liquid mixture 1); method: Chromatography
Property: Mass fraction of 2-ethyl-2-(hydroxymethyl)-1,3-propanediol (Liquid mixture 1); method: Chromatography
Mass fraction of 2-ethyl-2-(hydroxymethyl)-1,3-propanediol	Mass fraction of octan-1-ol	uncertainty	Mass fraction of octan-1-ol	uncertainty	Mass fraction of 2-ethyl-2-(hydroxymethyl)-1,3-propanediol	uncertainty
0.0124	0.9325	0.0061	0.0012	0.0012	0.074	
0.0299	0.9122	0.0061	0.0007	0.0007	0.1397	
0.0559	0.8829	0.0062	0.0017	0.0017	0.2217	
0.0832	0.8494	0.0064	0.0014	0.0014	0.269	
0.114	0.8111	0.0066	0.0023	0.0023	0.3476	
0.1512	0.7634	0.0067	0.0032	0.0032	0.4126	

System: water + 2-ethyl-2-(hydroxymethyl)-1,3-propanediol + 2-ethyl-1-hexanol; phases: Liquid mixture 1, Liquid mixture 2
Fixed: Temperature, K = 298.15
Fixed: Pressure, kPa = 100
Property: Mass fraction of 2-ethyl-1-hexanol (Liquid mixture 1); method: Chromatography
Property: Mass fraction of 2-ethyl-1-hexanol (Liquid mixture 2); method: Chromatography
Property: Mass fraction of 2-ethyl-2-(hydroxymethyl)-1,3-propanediol (Liquid mixture 2); method: Chromatography
Mass fraction of 2-ethyl-2-(hydroxymethyl)-1,3-propanediol	Mass fraction of 2-ethyl-1-hexanol	uncertainty	Mass fraction of 2-ethyl-1-hexanol	uncertainty	Mass fraction of 2-ethyl-2-(hydroxymethyl)-1,3-propanediol	uncertainty
0.0081	0.9703	0.0064	0.0011	0.0011	0.0725	
0.0199	0.9557	0.0065	0.0025	0.0025	0.1514	
0.0308	0.9412	0.006	0.0017	0.0017	0.2147	
0.0438	0.9291	0.0061	0.003	0.003	0.2776	
0.0728	0.8934	0.0062	0.0043	0.004	0.366	
0.0899	0.8759	0.0058	0.0063	0.004	0.4385	
