Measured thermophysical data. Measurement and Correlation of the Solubility of 2-Cyanoacetamide in 14 Pure Solvents and the Mixing Properties of Solutions
Source: J. Chem. Eng. Data, 2019, 10.1021/acs.jced.8b01205
Compound 1: 2-cyanoethanamide, C3H4N2O, InChI=1S/C3H4N2O/c4-2-1-3(5)6/h1H2,(H2,5,6), purity 99.8%
Compound 2: dimethylformamide, C3H7NO, InChI=1S/C3H7NO/c1-4(2)3-5/h3H,1-2H3, purity 99%
Compound 3: acetone, C3H6O, InChI=1S/C3H6O/c1-3(2)4/h1-2H3, purity 99.5%
Compound 4: acetonitrile, C2H3N, InChI=1S/C2H3N/c1-2-3/h1H3, purity 99.5%
Compound 5: methanol, CH4O, InChI=1S/CH4O/c1-2/h2H,1H3, purity 99.5%
Compound 6: methyl ethanoate, C3H6O2, InChI=1S/C3H6O2/c1-3(4)5-2/h1-2H3, purity 99%
Compound 7: tetrahydrofuran, C4H8O, InChI=1S/C4H8O/c1-2-4-5-3-1/h1-4H2, purity 99.5%
Compound 8: ethanol, C2H6O, InChI=1S/C2H6O/c1-2-3/h3H,2H2,1H3, purity 99.5%
Compound 9: ethyl acetate, C4H8O2, InChI=1S/C4H8O2/c1-3-6-4(2)5/h3H2,1-2H3, purity 99.5%
Compound 10: propan-1-ol, C3H8O, InChI=1S/C3H8O/c1-2-3-4/h4H,2-3H2,1H3, purity 99.5%
Compound 11: butan-1-ol, C4H10O, InChI=1S/C4H10O/c1-2-3-4-5/h5H,2-4H2,1H3, purity 99.5%
Compound 12: trichloromethane, CHCl3, InChI=1S/CHCl3/c2-1(3)4/h1H, purity 99%
Compound 13: dichloromethane, CH2Cl2, InChI=1S/CH2Cl2/c2-1-3/h1H2, purity 99%
Compound 14: 1,4-dioxane, C4H8O2, InChI=1S/C4H8O2/c1-2-6-4-3-5-1/h1-4H2, purity 99.5%
Compound 15: water, H2O, InChI=1S/H2O/h1H2, purity 99.9%
Compound 16: sodium chloride, ClNa, InChI=1S/ClH.Na/h1H;/q;+1/p-1, purity 99.5%

System: 2-cyanoethanamide; phases: Crystal, Liquid, Air at 1 atmosphere
Property: Triple point temperature, K (Crystal); method: DSC
Triple point temperature, K	uncertainty
392.84	1.22

System: 2-cyanoethanamide; phases: Crystal, Liquid, Air at 1 atmosphere
Property: Molar enthalpy of transition or fusion, kJ/mol (Crystal); method: DSC
Molar enthalpy of transition or fusion, kJ/mol	uncertainty
22.65	1.76

System: 2-cyanoethanamide + dimethylformamide; phases: Liquid, Crystal
Fixed: Pressure, kPa = 101.3
Property: Mole fraction of 2-cyanoethanamide (Liquid); method: Titration method
Temperature, K	Mole fraction of 2-cyanoethanamide	uncertainty
273.15	0.2535	0.0304
278.15	0.2624	0.0315
283.15	0.2712	0.0325
288.15	0.2827	0.0339
293.15	0.2948	0.0354
298.15	0.3095	0.0371
303.15	0.325	0.039
308.15	0.3425	0.0411
313.15	0.3601	0.0432
318.15	0.3815	0.0458

System: 2-cyanoethanamide + acetone; phases: Liquid, Crystal
Fixed: Pressure, kPa = 101.3
Property: Mole fraction of 2-cyanoethanamide (Liquid); method: Titration method
Temperature, K	Mole fraction of 2-cyanoethanamide	uncertainty
273.15	0.02482	0.00298
278.15	0.02857	0.00343
283.15	0.03348	0.00402
288.15	0.03898	0.00468
293.15	0.04533	0.00544
298.15	0.0527	0.00633
303.15	0.06125	0.00735
308.15	0.07124	0.00855
313.15	0.08332	0.01
318.15	0.09563	0.01148

System: 2-cyanoethanamide + acetonitrile; phases: Liquid, Crystal
Fixed: Pressure, kPa = 101.3
Property: Mole fraction of 2-cyanoethanamide (Liquid); method: Titration method
Temperature, K	Mole fraction of 2-cyanoethanamide	uncertainty
273.15	0.01536	0.00184
278.15	0.01872	0.00225
283.15	0.02315	0.00278
288.15	0.02723	0.00327
293.15	0.03287	0.00395
298.15	0.03892	0.00467
303.15	0.04688	0.00563
308.15	0.05532	0.00664
313.15	0.06712	0.00806
318.15	0.07946	0.00954

System: 2-cyanoethanamide + methanol; phases: Liquid, Crystal
Fixed: Pressure, kPa = 101.3
Property: Mole fraction of 2-cyanoethanamide (Liquid); method: Titration method
Temperature, K	Mole fraction of 2-cyanoethanamide	uncertainty
273.15	0.01265	0.00152
278.15	0.01562	0.00187
283.15	0.01857	0.00223
288.15	0.02266	0.00272
293.15	0.02726	0.00327
298.15	0.03323	0.00399
303.15	0.03997	0.0048
308.15	0.04822	0.00579
313.15	0.05585	0.0067
318.15	0.06744	0.00809

System: 2-cyanoethanamide + methyl ethanoate; phases: Liquid, Crystal
Fixed: Pressure, kPa = 101.3
Property: Mole fraction of 2-cyanoethanamide (Liquid); method: Titration method
Temperature, K	Mole fraction of 2-cyanoethanamide	uncertainty
273.15	0.01155	0.00139
278.15	0.01365	0.00164
283.15	0.01635	0.00196
288.15	0.01953	0.00234
293.15	0.02282	0.00274
298.15	0.02632	0.00316
303.15	0.03074	0.00369
308.15	0.03551	0.00426
313.15	0.04084	0.0049
318.15	0.04675	0.00561

System: 2-cyanoethanamide + tetrahydrofuran; phases: Liquid, Crystal
Fixed: Pressure, kPa = 101.3
Property: Mole fraction of 2-cyanoethanamide (Liquid); method: Titration method
Temperature, K	Mole fraction of 2-cyanoethanamide	uncertainty
273.15	0.009877	0.001185
278.15	0.01118	0.00134
283.15	0.01277	0.00153
288.15	0.0145	0.00174
293.15	0.0164	0.00197
298.15	0.01874	0.00225
303.15	0.02085	0.0025
308.15	0.02357	0.00283
313.15	0.02677	0.00321
318.15	0.03005	0.00361

System: 2-cyanoethanamide + ethanol; phases: Liquid, Crystal
Fixed: Pressure, kPa = 101.3
Property: Mole fraction of 2-cyanoethanamide (Liquid); method: Titration method
Temperature, K	Mole fraction of 2-cyanoethanamide	uncertainty
273.15	0.004551	0.000546
278.15	0.005581	0.00067
283.15	0.006807	0.000817
288.15	0.008702	0.001045
293.15	0.01051	0.00126
298.15	0.01295	0.00155
303.15	0.01572	0.00189
308.15	0.01884	0.00226
313.15	0.02287	0.00275
318.15	0.02768	0.00332

System: 2-cyanoethanamide + ethyl acetate; phases: Liquid, Crystal
Fixed: Pressure, kPa = 101.3
Property: Mole fraction of 2-cyanoethanamide (Liquid); method: Titration method
Temperature, K	Mole fraction of 2-cyanoethanamide	uncertainty
273.15	0.004297	0.000516
278.15	0.005088	0.000611
283.15	0.006021	0.000723
288.15	0.006938	0.000833
293.15	0.008294	0.000995
298.15	0.009507	0.001141
303.15	0.01104	0.00133
308.15	0.01276	0.00153
313.15	0.01493	0.00179
318.15	0.01702	0.00204

System: 2-cyanoethanamide + propan-1-ol; phases: Liquid, Crystal
Fixed: Pressure, kPa = 101.3
Property: Mole fraction of 2-cyanoethanamide (Liquid); method: Titration method
Temperature, K	Mole fraction of 2-cyanoethanamide	uncertainty
273.15	0.002196	0.000264
278.15	0.002742	0.000329
283.15	0.00355	0.000426
288.15	0.00461	0.000553
293.15	0.00591	0.000709
298.15	0.007551	0.000906
303.15	0.009353	0.001123
308.15	0.01169	0.0014
313.15	0.01474	0.00177
318.15	0.01817	0.00218

System: 2-cyanoethanamide + butan-1-ol; phases: Liquid, Crystal
Fixed: Pressure, kPa = 101.3
Property: Mole fraction of 2-cyanoethanamide (Liquid); method: Titration method
Temperature, K	Mole fraction of 2-cyanoethanamide	uncertainty
273.15	0.002011	0.000241
278.15	0.002464	0.000296
283.15	0.002983	0.000358
288.15	0.003773	0.000453
293.15	0.004559	0.000547
298.15	0.005502	0.00066
303.15	0.006669	0.0008
308.15	0.007974	0.000957
313.15	0.00982	0.001179
318.15	0.01192	0.00143

System: 2-cyanoethanamide + trichloromethane; phases: Liquid, Crystal
Fixed: Pressure, kPa = 101.3
Property: Mole fraction of 2-cyanoethanamide (Liquid); method: Titration method
Temperature, K	Mole fraction of 2-cyanoethanamide	uncertainty
273.15	0.0003887	4.67e-05
278.15	0.0004651	5.58e-05
283.15	0.0005619	6.74e-05
288.15	0.0006782	8.14e-05
293.15	0.0008206	9.85e-05
298.15	0.0009853	0.0001183
303.15	0.001188	0.000143
308.15	0.001433	0.000172
313.15	0.001728	0.000207
318.15	0.002084	0.00025

System: 2-cyanoethanamide + dichloromethane; phases: Liquid, Crystal
Fixed: Pressure, kPa = 101.3
Property: Mole fraction of 2-cyanoethanamide (Liquid); method: Titration method
Temperature, K	Mole fraction of 2-cyanoethanamide	uncertainty
273.15	0.0003213	3.86e-05
278.15	0.0003881	4.66e-05
283.15	0.0004712	5.66e-05
288.15	0.0005589	6.71e-05
293.15	0.0006678	8.02e-05
298.15	0.0007917	9.5e-05
303.15	0.0009313	0.0001118
308.15	0.001115	0.000134
313.15	0.001301	0.000156
318.15	0.001525	0.000183

System: 2-cyanoethanamide + 1,4-dioxane; phases: Liquid, Crystal
Fixed: Pressure, kPa = 101.3
Property: Mole fraction of 2-cyanoethanamide (Liquid); method: Titration method
Temperature, K	Mole fraction of 2-cyanoethanamide	uncertainty
288.15	0.01269	0.00152
293.15	0.01545	0.00185
298.15	0.01858	0.00223
303.15	0.02265	0.00272
308.15	0.02775	0.00333
313.15	0.03418	0.0041
318.15	0.04068	0.00488

System: 2-cyanoethanamide + water; phases: Liquid, Crystal
Fixed: Pressure, kPa = 101.3
Property: Mole fraction of 2-cyanoethanamide (Liquid); method: Titration method
Temperature, K	Mole fraction of 2-cyanoethanamide	uncertainty
278.15	0.01356	0.00163
283.15	0.01785	0.00214
288.15	0.02326	0.00279
293.15	0.0313	0.00376
298.15	0.04047	0.00486
303.15	0.05191	0.00623
308.15	0.06739	0.00809
313.15	0.08875	0.01065
318.15	0.1137	0.0136

System: sodium chloride + water; phases: Liquid, Crystal
Fixed: Pressure, kPa = 101.3
Property: Mass fraction of sodium chloride (Liquid); method: Titration method
Temperature, K	Mass fraction of sodium chloride	uncertainty
298.15	0.26478	0.03178
303.15	0.26558	0.03187
313.15	0.2671	0.03206
323.15	0.26875	0.03226
333.15	0.271	0.03253
343.15	0.27341	0.03281
348.15	0.27488	0.03299
353.15	0.27618	0.03315
298.15	0.26478	0.03178
