Measured thermophysical data. Density, Speed of Sound, and Other Derived Properties of Ethanol at Pressures up to 65 MPa
Source: J. Chem. Eng. Data, 2018, 10.1021/acs.jced.7b01018
Compound 1: ethanol, C2H6O, InChI=1S/C2H6O/c1-2-3/h3H,2H2,1H3, purity 99.8%

System: ethanol; phases: Liquid
Fixed: Frequency, MHz = 2
Property: Speed of sound, m/s (Liquid); method: Single path-length method
Pressure, kPa	Temperature, K	Speed of sound, m/s	uncertainty
1410	323.31	1070.65	1.19
5245	323.31	1096.75	1.23
11101	323.31	1135.02	1.29
17687	323.31	1174.47	1.34
23114	323.31	1204.23	1.39
30237	323.31	1241.91	1.46
36831	323.31	1274.55	1.51
43809	323.31	1306.05	1.57
50864	323.31	1337.26	1.63
58500	323.31	1369.4	1.69
62862	323.31	1386.24	1.72
1446	347.1	991.29	1.1
4092	347.1	1011.79	1.13
7163	347.1	1035.01	1.15
14616	347.1	1085.64	1.21
21177	347.1	1126.37	1.27
28408	347.1	1168.14	1.33
35022	347.1	1203.39	1.39
42067	347.1	1238.63	1.45
48843	347.1	1270.33	1.5
54137	347.1	1294.14	1.54
58348	347.1	1312.64	1.58
62859	347.1	1331.57	1.61
1432	369.38	914.53	1.04
3923	369.38	936.5	1.04
7109	369.38	963.26	1.06
11382	369.38	996.24	1.09
19601	369.38	1053.82	1.16
27704	369.38	1104.72	1.24
33060	369.38	1135.35	1.27
41165	369.38	1179.11	1.35
49420	369.38	1220.33	1.42
54796	369.38	1246.14	1.45
58367	369.38	1261.46	1.48
65148	369.38	1291.23	1.53
1546	397.28	811.26	0.98
4302	397.28	840.39	0.97
7333	397.28	870.18	0.99
12482	397.28	915.79	1.01
18105	397.28	960.62	1.05
24432	397.28	1006.22	1.1
29996	397.28	1043.31	1.14
36074	397.28	1080.66	1.2
44752	397.28	1129.46	1.26
49805	397.28	1156.02	1.3
58415	397.28	1198.58	1.38
63790	397.28	1223.51	1.41
1514	422.9	701.53	0.95
5675	422.9	755.36	0.94
9530	422.9	798.44	0.93
15206	422.9	853.77	0.95
23492	422.9	923.37	1
31793	422.9	984.06	1.07
38446	422.9	1027.65	1.12
47571	422.9	1081.97	1.2
53132	422.9	1112.23	1.23
58734	422.9	1141.24	1.28
63754	422.9	1166.21	1.32

System: ethanol; phases: Liquid
Property: Amount density, mol/m3 (Liquid); method: Vibrating tube method
Pressure, kPa	Temperature, K	Amount density, mol/m3	uncertainty
1410	323.31	16594	8
5245	323.31	16680	8
11101	323.31	16800	8
17687	323.31	16927	9
23114	323.31	17029	9
30237	323.31	17152	10
36831	323.31	17261	11
43809	323.31	17370	11
50864	323.31	17473	12
58500	323.31	17579	13
62862	323.31	17641	13
1446	347.1	16116	9
4092	347.1	16185	9
7163	347.1	16261	9
14616	347.1	16432	10
21177	347.1	16570	10
28408	347.1	16711	11
35022	347.1	16833	12
42067	347.1	16954	12
48843	347.1	17065	13
54137	347.1	17148	14
58348	347.1	17213	14
62859	347.1	17285	14
1432	369.38	15614	9
3923	369.38	15691	9
7109	369.38	15784	9
11382	369.38	15901	10
19601	369.38	16107	10
27704	369.38	16289	11
33060	369.38	16399	11
41165	369.38	16556	12
49420	369.38	16705	13
54796	369.38	16795	14
58367	369.38	16852	14
65148	369.38	16953	15
1546	397.28	14904	9
4302	397.28	15012	9
7333	397.28	15126	9
12482	397.28	15301	10
18105	397.28	15473	11
24432	397.28	15648	11
29996	397.28	15790	12
36074	397.28	15933	12
44752	397.28	16122	14
49805	397.28	16224	14
58415	397.28	16387	15
63790	397.28	16485	16
1514	422.9	14119	9
5675	422.9	14342	10
9530	422.9	14521	10
15206	422.9	14754	11
23492	422.9	15043	12
31793	422.9	15291	13
38446	422.9	15469	14
47571	422.9	15690	15
53132	422.9	15816	16
58734	422.9	15933	16
63754	422.9	16029	17
