Measured thermophysical data. Thermophysical and Molar Volume Aberration of Amphiphilic Eutectic Mix of Bivalent Diols and Ammonium-Ionic Liquid
Source: J. Chem. Eng. Data, 2019, 10.1021/acs.jced.9b00134
Compound 1: trimethylbenzylammonium chloride, C10H16ClN, InChI=1S/C10H16N.ClH/c1-11(2,3)9-10-7-5-4-6-8-10;/h4-8H,9H2,1-3H3;1H/q+1;/p-1, purity 99%
Compound 2: sodium carbonate, CNa2O3, InChI=1S/CH2O3.2Na/c2-1(3)4;;/h(H2,2,3,4);;/q;2*+1/p-2, purity 97%
Compound 3: 1,2-butanediol, C4H10O2, InChI=1S/C4H10O2/c1-2-4(6)3-5/h4-6H,2-3H2,1H3, purity 99%
Compound 4: 1,6-hexanediol, C6H14O2, InChI=1S/C6H14O2/c7-5-3-1-2-4-6-8/h7-8H,1-6H2, purity 99%
Compound 5: glycerol, C3H8O3, InChI=1S/C3H8O3/c4-1-3(6)2-5/h3-6H,1-2H2, purity 98%
Compound 6: 1,2-ethanediol, C2H6O2, InChI=1S/C2H6O2/c3-1-2-4/h3-4H,1-2H2, purity 98%

System: trimethylbenzylammonium chloride; phases: Crystal
Property: Mass density, kg/m3 (Crystal); method: Vibrating tube method
Temperature, K	Pressure, kPa	Mass density, kg/m3	uncertainty
293.15	101.13	1061	20

System: sodium carbonate; phases: Crystal
Property: Mass density, kg/m3 (Crystal); method: Vibrating tube method
Temperature, K	Pressure, kPa	Mass density, kg/m3	uncertainty
293.15	101.13	2516	23

System: 1,2-butanediol; phases: Liquid
Property: Mass density, kg/m3 (Liquid); method: Vibrating tube method
Temperature, K	Pressure, kPa	Mass density, kg/m3	uncertainty
293.15	101.13	1000	20

System: 1,6-hexanediol; phases: Liquid
Property: Mass density, kg/m3 (Liquid); method: Vibrating tube method
Temperature, K	Pressure, kPa	Mass density, kg/m3	uncertainty
293.15	101.13	947	20

System: glycerol; phases: Liquid
Property: Mass density, kg/m3 (Liquid); method: Vibrating tube method
Temperature, K	Pressure, kPa	Mass density, kg/m3	uncertainty
293.15	101.13	1238	20

System: 1,2-ethanediol; phases: Liquid
Property: Mass density, kg/m3 (Liquid); method: Vibrating tube method
Temperature, K	Pressure, kPa	Mass density, kg/m3	uncertainty
293.15	101.13	1105	20

System: trimethylbenzylammonium chloride + 1,2-ethanediol; phases: Liquid
Fixed: Pressure, kPa = 101.13
Fixed: Mole fraction of trimethylbenzylammonium chloride = 0.5
Property: Mass density, kg/m3 (Liquid); method: Vibrating tube method
Temperature, K	Mass density, kg/m3	uncertainty
293	1123.7	20
298	1118	20
303	1111.2	20
308	1105.1	20
313	1098	20
318	1091	20
323	1085	20

System: trimethylbenzylammonium chloride + 1,2-ethanediol; phases: Liquid
Fixed: Pressure, kPa = 101.13
Fixed: Mole fraction of trimethylbenzylammonium chloride = 0.5
Property: Viscosity, Pa*s (Liquid); method: Concentric cylinders viscometry
Temperature, K	Viscosity, Pa*s	uncertainty
298	0.1373	0.0108
303	0.0965	0.0108
308	0.0546	0.0088
313	0.0289	0.0044
318	0.0207	0.002
323	0.0142	0.0018

System: trimethylbenzylammonium chloride + 1,2-ethanediol; phases: Liquid
Fixed: Pressure, kPa = 101.13
Fixed: Mole fraction of trimethylbenzylammonium chloride = 0.5
Property: Electrical conductivity, S/m (Liquid); method: Alternating current cell with electrodes
Temperature, K	Electrical conductivity, S/m	uncertainty
298	0.5395	0.1084
303	0.7064	0.1416
308	0.8432	0.1687
313	0.9023	0.1805
318	0.9654	0.1931
323	1.0206	0.2041

System: trimethylbenzylammonium chloride + 1,2-ethanediol; phases: Liquid
Fixed: Pressure, kPa = 101.13
Fixed: Mole fraction of trimethylbenzylammonium chloride = 0.5
Property: Refractive index (Na D-line) (Liquid); method: Standard Abbe refractometry
Temperature, K	Refractive index (Na D-line)	uncertainty
293	1.4806	0.0009
298	1.4763	0.0008
303	1.4731	0.0007
308	1.4695	0.0008
313	1.4652	0.0008
318	1.4611	0.0007
323	1.4587	0.0006

System: trimethylbenzylammonium chloride + glycerol; phases: Liquid
Fixed: Pressure, kPa = 101.13
Fixed: Mole fraction of trimethylbenzylammonium chloride = 0.5
Property: Mass density, kg/m3 (Liquid); method: Vibrating tube method
Temperature, K	Mass density, kg/m3	uncertainty
293	1170.3	20
298	1167.2	20
303	1164.3	20
308	1161.4	20
313	1158.4	20
318	1155	20
323	1152.4	20

System: trimethylbenzylammonium chloride + glycerol; phases: Liquid
Fixed: Pressure, kPa = 101.13
Fixed: Mole fraction of trimethylbenzylammonium chloride = 0.5
Property: Viscosity, Pa*s (Liquid); method: Concentric cylinders viscometry
Temperature, K	Viscosity, Pa*s	uncertainty
298	0.3839	0.0593
303	0.1596	0.0396
308	0.0798	0.0145
313	0.0485	0.0065
318	0.0297	0.004
323	0.0183	0.003

System: trimethylbenzylammonium chloride + glycerol; phases: Liquid
Fixed: Pressure, kPa = 101.13
Fixed: Mole fraction of trimethylbenzylammonium chloride = 0.5
Property: Electrical conductivity, S/m (Liquid); method: Alternating current cell with electrodes
Temperature, K	Electrical conductivity, S/m	uncertainty
298	0.06885	0.01405
303	0.11506	0.02307
308	0.12326	0.02465
313	0.12594	0.02519
318	0.123	0.0247
323	0.1784	0.0358

System: trimethylbenzylammonium chloride + glycerol; phases: Liquid
Fixed: Pressure, kPa = 101.13
Fixed: Mole fraction of trimethylbenzylammonium chloride = 0.5
Property: Refractive index (Na D-line) (Liquid); method: Standard Abbe refractometry
Temperature, K	Refractive index (Na D-line)	uncertainty
293	1.5653	0.0008
298	1.5612	0.0007
303	1.5587	0.0007
308	1.556	0.0007
313	1.5532	0.0007
318	1.5503	0.0006
323	1.5493	0.0005

System: trimethylbenzylammonium chloride + 1,6-hexanediol; phases: Liquid
Fixed: Pressure, kPa = 101.13
Fixed: Mole fraction of trimethylbenzylammonium chloride = 0.5
Property: Mass density, kg/m3 (Liquid); method: Vibrating tube method
Temperature, K	Mass density, kg/m3	uncertainty
293	1142.3	20
298	1132.6	20
303	1126.2	20
308	1119.7	20
313	1113.4	20
318	1107.1	20
323	1100	20

System: trimethylbenzylammonium chloride + 1,6-hexanediol; phases: Liquid
Fixed: Pressure, kPa = 101.13
Fixed: Mole fraction of trimethylbenzylammonium chloride = 0.5
Property: Viscosity, Pa*s (Liquid); method: Concentric cylinders viscometry
Temperature, K	Viscosity, Pa*s	uncertainty
298	0.2983	0.0409
303	0.1436	0.0294
308	0.0729	0.0137
313	0.0387	0.0064
318	0.0235	0.0029
323	0.0168	0.0018

System: trimethylbenzylammonium chloride + 1,6-hexanediol; phases: Liquid
Fixed: Pressure, kPa = 101.13
Fixed: Mole fraction of trimethylbenzylammonium chloride = 0.5
Property: Electrical conductivity, S/m (Liquid); method: Alternating current cell with electrodes
Temperature, K	Electrical conductivity, S/m	uncertainty
298	0.08423	0.01724
303	0.14527	0.02917
308	0.16965	0.03395
313	0.18397	0.0368
318	0.19473	0.039
323	0.25328	0.05078

System: trimethylbenzylammonium chloride + 1,6-hexanediol; phases: Liquid
Fixed: Pressure, kPa = 101.13
Fixed: Mole fraction of trimethylbenzylammonium chloride = 0.5
Property: Refractive index (Na D-line) (Liquid); method: Standard Abbe refractometry
Temperature, K	Refractive index (Na D-line)	uncertainty
293	1.5143	0.0007
298	1.5107	0.0007
303	1.5083	0.0006
308	1.5052	0.0007
313	1.5016	0.0007
318	1.4987	0.0006
323	1.4963	0.0006

System: trimethylbenzylammonium chloride + 1,2-butanediol; phases: Liquid
Fixed: Pressure, kPa = 101.13
Fixed: Mole fraction of trimethylbenzylammonium chloride = 0.5
Property: Mass density, kg/m3 (Liquid); method: Vibrating tube method
Temperature, K	Mass density, kg/m3	uncertainty
293	1104	20
298	1093	20
303	1083	20
308	1073	20
313	1064	20
318	1057	20
323	1049	20

System: trimethylbenzylammonium chloride + 1,2-butanediol; phases: Liquid
Fixed: Pressure, kPa = 101.13
Fixed: Mole fraction of trimethylbenzylammonium chloride = 0.5
Property: Viscosity, Pa*s (Liquid); method: Concentric cylinders viscometry
Temperature, K	Viscosity, Pa*s	uncertainty
298	0.2317	0.0273
303	0.1285	0.0218
308	0.0642	0.0122
313	0.0345	0.0055
318	0.0221	0.0022
323	0.0179	0.0012

System: trimethylbenzylammonium chloride + 1,2-butanediol; phases: Liquid
Fixed: Pressure, kPa = 101.13
Fixed: Mole fraction of trimethylbenzylammonium chloride = 0.5
Property: Electrical conductivity, S/m (Liquid); method: Alternating current cell with electrodes
Temperature, K	Electrical conductivity, S/m	uncertainty
298	0.1937	0.0394
303	0.3125	0.0628
308	0.3819	0.0765
313	0.4368	0.0874
318	0.4652	0.0931
323	0.5321	0.1065

System: trimethylbenzylammonium chloride + 1,2-butanediol; phases: Liquid
Fixed: Pressure, kPa = 101.13
Fixed: Mole fraction of trimethylbenzylammonium chloride = 0.5
Property: Refractive index (Na D-line) (Liquid); method: Standard Abbe refractometry
Temperature, K	Refractive index (Na D-line)	uncertainty
293	1.4982	0.0006
298	1.4956	0.0007
303	1.4921	0.0007
308	1.4892	0.0007
313	1.4851	0.0007
318	1.4823	0.0007
323	1.4781	0.0008
