Measured thermophysical data. Experimental Measurement and Modeling of the Solubility of Methane in Methanol and Ethanol
Source: J. Chem. Eng. Data, 2016, 10.1021/acs.jced.5b00793
Compound 1: methane, CH4, InChI=1S/CH4/h1H4, purity 99.995%
Compound 2: methanol, CH4O, InChI=1S/CH4O/c1-2/h2H,1H3, purity 99.9%
Compound 3: ethanol, C2H6O, InChI=1S/C2H6O/c1-2-3/h3H,2H2,1H3, purity 99.9%

System: methanol + methane; phases: Liquid, Gas
Fixed: Temperature, K = 273.15
Property: Mole fraction of methane (Liquid); method: volumetric
Pressure, kPa	Mole fraction of methane	uncertainty
1710	0.0172	0.0012
3830	0.035	0.0021
6680	0.0536	0.0032
8920	0.0772	0.0045
10960	0.0925	0.0054
14020	0.1175	0.0068
17530	0.1324	0.0077
22470	0.1569	0.0091
38330	0.2193	0.0127
46990	0.2578	0.015

System: ethanol + methane; phases: Liquid, Gas
Property: Mole fraction of methane (Liquid); method: volumetric
Pressure, kPa	Temperature, K	Mole fraction of methane	uncertainty
786	238.15	0.0183	0.0018
793	238.15	0.0172	0.0019
1365	238.15	0.0284	0.0023
1365	238.15	0.028	0.0022
2944	238.15	0.0588	0.0037
2951	238.15	0.0561	0.0035
5254	238.15	0.096	0.0057
5254	238.15	0.0974	0.0058
8246	238.15	0.1408	0.0082
8267	238.15	0.1407	0.0082
16175	238.15	0.2131	0.0124
16175	238.15	0.2103	0.0122
24159	238.15	0.2684	0.0156
24214	238.15	0.2716	0.0158
31488	238.15	0.3067	0.0178
372	253.15	0.0092	0.0013
372	253.15	0.0088	0.0013
1379	253.15	0.0243	0.0019
1379	253.15	0.0261	0.002
8446	253.15	0.129	0.0076
8460	253.15	0.125	0.0073
13245	253.15	0.179	0.011
13334	253.15	0.1748	0.0108
19802	253.15	0.2293	0.0133
19850	253.15	0.2289	0.0133
27386	253.15	0.2732	0.0159
27414	253.15	0.2698	0.0157
34295	253.15	0.3077	0.0179
34329	253.15	0.3148	0.0183
39817	253.15	0.3293	0.0191
331	263.15	0.0083	0.0012
683	263.15	0.0132	0.0014
689	263.15	0.012	0.0011
2751	263.15	0.0432	0.0028
2758	263.15	0.0442	0.0028
6812	263.15	0.0997	0.0059
6819	263.15	0.0972	0.0057
11445	263.15	0.15	0.0088
11445	263.15	0.1526	0.0089
13300	263.15	0.1796	0.0105
13838	263.15	0.177	0.0104
19071	263.15	0.2143	0.0124
19078	263.15	0.2137	0.0124
25455	263.15	0.2589	0.015
25511	263.15	0.2549	0.0148
32985	263.15	0.3015	0.0175
33060	263.15	0.304	0.0176
39424	263.15	0.3363	0.0195
2296	273.15	0.0332	0.0022
5164	273.15	0.0714	0.0042
10563	273.15	0.1244	0.0073
13072	273.15	0.1501	0.0087
17202	273.15	0.1944	0.0113
21712	273.15	0.2352	0.0137
28406	273.15	0.2715	0.0158
32081	273.15	0.2958	0.0172
36639	273.15	0.3256	0.0189
41189	273.15	0.349	0.0202
641	298.15	0.0116	0.0008
2537	298.15	0.0234	0.0016
4316	298.15	0.053	0.0032
8094	298.15	0.0927	0.0054
11356	298.15	0.1268	0.0074
15582	298.15	0.1674	0.0097
21029	298.15	0.2191	0.0127
28992	298.15	0.2707	0.0157
35170	298.15	0.3229	0.0187
41693	298.15	0.3535	0.0205
