Measured thermophysical data. Biomass Valorization: Thermodynamics of the Guerbet Condensation Reaction
Source: J. Chem. Eng. Data, 2019, 10.1021/acs.jced.9b00419
Compound 1: carbon dioxide, CO2, InChI=1S/CO2/c2-1-3
Compound 2: water, H2O, InChI=1S/H2O/h1H2
Compound 3: oxygen, O2, InChI=1S/O2/c1-2
Compound 4: 2-butyl-1-octanol, C12H26O, InChI=1S/C12H26O/c1-3-5-7-8-10-12(11-13)9-6-4-2/h12-13H,3-11H2,1-2H3
Compound 5: hexanoic acid, hexyl ester, C12H24O2, InChI=1S/C12H24O2/c1-3-5-7-9-11-14-12(13)10-8-6-4-2/h3-11H2,1-2H3

System: 2-butyl-1-octanol; phases: Liquid, Gas
Property: Vapor or sublimation pressure, kPa (Liquid); method: Transpiration method
Temperature, K	Vapor or sublimation pressure, kPa	uncertainty
308.1	0.00112	8e-05
312.9	0.00195	0.00013
317.8	0.00325	0.00022
322.7	0.00526	0.00038
327.6	0.00824	0.00057
332.5	0.01315	0.00087
337.5	0.02027	0.00132
342.6	0.03024	0.00195
347.6	0.0452	0.0029
352.6	0.06767	0.00429

System: hexanoic acid, hexyl ester; phases: Liquid, Gas
Property: Vapor or sublimation pressure, kPa (Liquid); method: Transpiration method
Temperature, K	Vapor or sublimation pressure, kPa	uncertainty
298.4	0.00313	0.00021
303.2	0.0049	0.00032
308	0.00732	0.00051
312.8	0.01166	0.00079
312.8	0.01116	0.00074
317.7	0.01667	0.0011
322.6	0.0257	0.00167
327.5	0.03605	0.00232
332.4	0.05276	0.00336
337.3	0.07541	0.00478
342.3	0.1055	0.00663
347.3	0.14258	0.0089
347.3	0.14533	0.00908

Reaction: -1 2-butyl-1-octanol + 12 carbon dioxide + 13 water + -18 oxygen
Property: Specific internal energy of reaction at constant volume, J/g
-42369.2

Reaction: -1 hexanoic acid, hexyl ester + 12 carbon dioxide + 12 water + -17 oxygen
Property: Specific internal energy of reaction at constant volume, J/g
-37242.7
