Measured thermophysical data. Salts Effect on Isobaric Vapor-Liquid Equilibrium for the Azeotropic Mixture 2-Propanol + Water
Source: J. Chem. Eng. Data, 2019, 10.1021/acs.jced.8b01116
Compound 1: propan-2-ol, C3H8O, InChI=1S/C3H8O/c1-3(2)4/h3-4H,1-2H3, purity 99%
Compound 2: calcium chloride, CaCl2, InChI=1S/Ca.2ClH/h;2*1H/q+2;;/p-2, purity 98%
Compound 3: magnesium chloride, Cl2Mg, InChI=1S/2ClH.Mg/h2*1H;/q;;+2/p-2, purity 98%
Compound 4: calcium nitrate, CaN2O6, InChI=1S/Ca.2NO3/c;2*2-1(3)4/q+2;2*-1, purity 98%
Compound 5: magnesium nitrate, MgN2O6, InChI=1S/Mg.2NO3/c;2*2-1(3)4/q+2;2*-1, purity 98%
Compound 6: water, H2O, InChI=1S/H2O/h1H2, purity 99.9%

System: propan-2-ol + water + calcium chloride; phases: Liquid, Gas
Fixed: Pressure, kPa = 101.3
Property: Boiling temperature at pressure P, K (Liquid); method: Ebulliometric method (Recirculating still)
Solvent: Mole fraction of propan-2-ol	Molality, mol/kg of calcium chloride	Boiling temperature at pressure P, K	uncertainty
0.026	0.1005	363.15	1.29
0.056	0.1002	359.85	1.3
0.091	0.1008	356.45	1.29
0.2006	0.1007	354.95	1.29
0.3002	0.1	354.3	1.28
0.4004	0.1	354.05	1.28
0.5013	0.1003	353.65	1.28
0.6001	0.1	353.55	1.28
0.7006	0.1004	353.35	1.28
0.8009	0.1003	353.35	1.28
0.9007	0.1	354.35	1.28
0.026	0.2001	363.15	1.29
0.056	0.2003	358.15	1.3
0.091	0.2013	356.15	1.28
0.2006	0.2008	354.65	1.28
0.3002	0.2	354.2	1.28
0.4004	0.2001	353.95	1.28
0.5013	0.2002	353.65	1.28
0.6001	0.2003	353.55	1.28
0.7006	0.2001	354.15	1.28
0.8009	0.2004	354.35	1.29
0.9007	0.2	354.55	1.28
0.026	0.3001	363.65	1.29
0.056	0.3007	358.85	1.3
0.091	0.3013	356.85	1.29
0.2006	0.3009	354.45	1.29
0.3002	0.3002	354.05	1.28
0.4004	0.3004	354.85	1.28
0.5013	0.2998	354.65	1.28
0.6001	0.3005	354.55	1.28
0.7006	0.3002	354.65	1.28
0.8009	0.3004	355.55	1.28
0.9007	0.3001	355.65	1.28
0.026	0.4001	362.75	1.29
0.056	0.4004	358.75	1.3
0.091	0.4021	355.75	1.29
0.2006	0.4012	354.35	1.28
0.3002	0.4003	353.95	1.28
0.4004	0.4006	354.65	1.28
0.5013	0.3997	354.75	1.28
0.6001	0.4005	354.85	1.28
0.7006	0.4002	354.95	1.28
0.8009	0.4001	355.05	1.28
0.9007	0.4005	355.65	1.28
0.026	0.5004	362.55	1.29
0.056	0.5003	357.25	1.31
0.091	0.5022	355.55	1.29
0.2006	0.5012	354.25	1.28
0.3002	0.5003	353.95	1.28
0.4004	0.5008	354.55	1.28
0.5013	0.5179	354.65	1.29
0.6001	0.5008	355.25	1.28
0.7006	0.5007	355.35	1.28
0.8009	0.5001	355.65	1.29
0.9007	0.5004	356.45	1.29
0.026	0.6004	362.55	1.29
0.056	0.6003	357.15	1.32
0.091	0.6014	354.55	1.28
0.2006	0.6012	353.95	1.28
0.3002	0.6006	354.25	1.29
0.4004	0.6001	354.85	1.29
0.5013	0.6083	355.15	1.29
0.6001	0.6008	355.35	1.28
0.7006	0.6007	355.65	1.29
0.8009	0.6005	356.25	1.29
0.9007	0.6006	356.95	1.29

System: propan-2-ol + water + calcium chloride; phases: Gas, Liquid
Fixed: Pressure, kPa = 101.3
Property: Mole fraction of propan-2-ol (Gas); method: Chromatography
Solvent: Mole fraction of propan-2-ol	Molality, mol/kg of calcium chloride	Mole fraction of propan-2-ol	uncertainty
0.026	0.1005	0.3155	0.0117
0.056	0.1002	0.4375	0.0165
0.091	0.1008	0.4975	0.018
0.2006	0.1007	0.548	0.0164
0.3002	0.1	0.555	0.0161
0.4004	0.1	0.578	0.0155
0.5013	0.1003	0.5955	0.0158
0.6001	0.1	0.6481	0.0146
0.7006	0.1004	0.6981	0.0128
0.8009	0.1003	0.7781	0.0102
0.9007	0.1	0.8781	0.0057
0.026	0.2001	0.315	0.0117
0.056	0.2003	0.445	0.0169
0.091	0.2013	0.515	0.0175
0.2006	0.2008	0.5455	0.0164
0.3002	0.2	0.558	0.016
0.4004	0.2001	0.5711	0.0158
0.5013	0.2002	0.6081	0.0156
0.6001	0.2003	0.6465	0.0142
0.7006	0.2001	0.6965	0.0124
0.8009	0.2004	0.7565	0.0106
0.9007	0.2	0.8665	0.0064
0.026	0.3001	0.325	0.0123
0.056	0.3007	0.465	0.0176
0.091	0.3013	0.525	0.0172
0.2006	0.3009	0.5681	0.0157
0.3002	0.3002	0.5711	0.0155
0.4004	0.3004	0.5855	0.0155
0.5013	0.2998	0.6265	0.0146
0.6001	0.3005	0.6464	0.0143
0.7006	0.3002	0.7164	0.0126
0.8009	0.3004	0.7864	0.0096
0.9007	0.3001	0.8764	0.0054
0.026	0.4001	0.336	0.0128
0.056	0.4004	0.476	0.018
0.091	0.4021	0.536	0.0168
0.2006	0.4012	0.5681	0.0157
0.3002	0.4003	0.5755	0.0155
0.4004	0.4006	0.5911	0.0157
0.5013	0.3997	0.6464	0.0145
0.6001	0.4005	0.6679	0.0131
0.7006	0.4002	0.7076	0.0119
0.8009	0.4001	0.7697	0.0101
0.9007	0.4005	0.8689	0.0061
0.026	0.5004	0.3648	0.0138
0.056	0.5003	0.478	0.018
0.091	0.5022	0.548	0.0164
0.2006	0.5012	0.5881	0.0153
0.3002	0.5003	0.6001	0.0149
0.4004	0.5008	0.6181	0.0146
0.5013	0.5179	0.6464	0.015
0.6001	0.5008	0.6912	0.0125
0.7006	0.5007	0.7211	0.0116
0.8009	0.5001	0.7919	0.0096
0.9007	0.5004	0.8821	0.0056
0.026	0.6004	0.3748	0.0139
0.056	0.6003	0.498	0.0186
0.091	0.6014	0.548	0.0167
0.2006	0.6012	0.6081	0.0144
0.3002	0.6006	0.6165	0.014
0.4004	0.6001	0.6081	0.0144
0.5013	0.6083	0.6464	0.0146
0.6001	0.6008	0.6911	0.0127
0.7006	0.6007	0.7311	0.0116
0.8009	0.6005	0.7914	0.0097
0.9007	0.6006	0.8901	0.0055

System: propan-2-ol + water + magnesium chloride; phases: Liquid, Gas
Fixed: Pressure, kPa = 101.3
Property: Boiling temperature at pressure P, K (Liquid); method: Ebulliometric method (Recirculating still)
Solvent: Mole fraction of propan-2-ol	Molality, mol/kg of magnesium chloride	Boiling temperature at pressure P, K	uncertainty
0.026	0.1001	363.55	1.29
0.056	0.1003	359.35	1.3
0.091	0.0997	357.15	1.29
0.2006	0.1007	355.05	1.29
0.3002	0.0998	354.75	1.28
0.4004	0.1015	354.45	1.28
0.5013	0.1001	354.15	1.28
0.6001	0.1004	354.05	1.28
0.7006	0.1002	353.95	1.28
0.8009	0.1003	354.15	1.28
0.9007	0.1002	354.85	1.28
0.026	0.1998	363.45	1.29
0.056	0.2001	359.35	1.3
0.091	0.1991	356.45	1.28
0.2006	0.1996	355.75	1.28
0.3002	0.2003	355.55	1.28
0.4004	0.2002	354.45	1.29
0.5013	0.2001	354.35	1.28
0.6001	0.2005	354.25	1.28
0.7006	0.2004	354.15	1.29
0.8009	0.2003	355.45	1.28
0.9007	0.2001	355.15	1.28
0.026	0.3002	363.25	1.29
0.056	0.3003	358.75	1.3
0.091	0.3011	356.25	1.28
0.2006	0.2998	355.15	1.29
0.3002	0.2998	355.15	1.28
0.4004	0.3001	355.15	1.28
0.5013	0.3003	355.15	1.28
0.6001	0.3006	355.15	1.29
0.7006	0.3001	355.25	1.29
0.8009	0.3005	355.75	1.29
0.9007	0.3004	356.25	1.29
0.026	0.3999	363.05	1.29
0.056	0.3996	358.05	1.3
0.091	0.3995	356.05	1.28
0.2006	0.4003	354.55	1.28
0.3002	0.4004	355.45	1.28
0.4004	0.4001	355.55	1.28
0.5013	0.4003	355.65	1.28
0.6001	0.4005	355.75	1.29
0.7006	0.4002	355.85	1.29
0.8009	0.4001	356.65	1.29
0.9007	0.4004	357.55	1.29
0.026	0.4997	362.95	1.29
0.056	0.4999	357.85	1.3
0.091	0.4991	355.95	1.28
0.2006	0.5004	354.45	1.28
0.3002	0.4999	355.25	1.28
0.4004	0.5003	355.65	1.28
0.5013	0.4999	355.85	1.28
0.6001	0.5005	356.15	1.29
0.7006	0.5001	356.75	1.29
0.8009	0.5001	357.15	1.28
0.9007	0.5002	358.15	1.28
0.026	0.6001	362.85	1.29
0.056	0.6002	357.85	1.32
0.091	0.5999	355.85	1.29
0.2006	0.6004	354.45	1.29
0.3002	0.6001	355.15	1.29
0.4004	0.6005	355.65	1.28
0.5013	0.5999	355.95	1.29
0.6001	0.6	356.75	1.29
0.7006	0.6001	356.75	1.28
0.8009	0.6003	357.15	1.28
0.9007	0.6002	357.75	1.29

System: propan-2-ol + water + magnesium chloride; phases: Gas, Liquid
Fixed: Pressure, kPa = 101.3
Property: Mole fraction of propan-2-ol (Gas); method: Chromatography
Solvent: Mole fraction of propan-2-ol	Molality, mol/kg of magnesium chloride	Mole fraction of propan-2-ol	uncertainty
0.026	0.1001	0.3061	0.0114
0.056	0.1003	0.4267	0.0161
0.091	0.0997	0.4877	0.0176
0.2006	0.1007	0.545	0.0165
0.3002	0.0998	0.556	0.0161
0.4004	0.1015	0.576	0.0156
0.5013	0.1001	0.6055	0.0155
0.6001	0.1004	0.6481	0.0144
0.7006	0.1002	0.7021	0.0127
0.8009	0.1003	0.7782	0.0101
0.9007	0.1002	0.8781	0.0057
0.026	0.1998	0.3199	0.012
0.056	0.2001	0.4471	0.0168
0.091	0.1991	0.4999	0.018
0.2006	0.1996	0.548	0.0164
0.3002	0.2003	0.5611	0.0159
0.4004	0.2002	0.588	0.0151
0.5013	0.2001	0.5991	0.0156
0.6001	0.2005	0.6565	0.0145
0.7006	0.2004	0.7065	0.0122
0.8009	0.2003	0.7725	0.0102
0.9007	0.2001	0.8766	0.0058
0.026	0.3002	0.3308	0.0123
0.056	0.3003	0.4532	0.017
0.091	0.3011	0.5058	0.0179
0.2006	0.2998	0.5755	0.0155
0.3002	0.2998	0.5781	0.0153
0.4004	0.3001	0.5855	0.0153
0.5013	0.3003	0.6265	0.0145
0.6001	0.3006	0.6464	0.014
0.7006	0.3001	0.7061	0.0125
0.8009	0.3005	0.7714	0.0102
0.9007	0.3004	0.8734	0.0059
0.026	0.3999	0.345	0.013
0.056	0.3996	0.4751	0.0179
0.091	0.3995	0.5252	0.0173
0.2006	0.4003	0.5711	0.0156
0.3002	0.4004	0.5881	0.015
0.4004	0.4001	0.5911	0.0151
0.5013	0.4003	0.6264	0.015
0.6001	0.4005	0.6679	0.0136
0.7006	0.4002	0.7172	0.0119
0.8009	0.4001	0.7819	0.0097
0.9007	0.4004	0.8779	0.0055
0.026	0.4997	0.3651	0.0137
0.056	0.4999	0.4852	0.0183
0.091	0.4991	0.545	0.0166
0.2006	0.5004	0.5781	0.0155
0.3002	0.4999	0.6011	0.0146
0.4004	0.5003	0.6081	0.0145
0.5013	0.4999	0.6264	0.0143
0.6001	0.5005	0.6611	0.0136
0.7006	0.5001	0.7111	0.0122
0.8009	0.5001	0.7817	0.0098
0.9007	0.5002	0.8728	0.0057
0.026	0.6001	0.375	0.014
0.056	0.6002	0.5052	0.0186
0.091	0.5999	0.5556	0.0161
0.2006	0.6004	0.6011	0.0147
0.3002	0.6001	0.6081	0.0143
0.4004	0.6005	0.6181	0.0142
0.5013	0.5999	0.6364	0.0143
0.6001	0.6	0.6711	0.0136
0.7006	0.6001	0.7213	0.0124
0.8009	0.6003	0.7911	0.0099
0.9007	0.6002	0.8802	0.0056

System: propan-2-ol + water + calcium nitrate; phases: Liquid, Gas
Fixed: Pressure, kPa = 101.3
Property: Boiling temperature at pressure P, K (Liquid); method: Ebulliometric method (Recirculating still)
Solvent: Mole fraction of propan-2-ol	Molality, mol/kg of calcium nitrate	Boiling temperature at pressure P, K	uncertainty
0.026	0.1001	363.75	1.29
0.056	0.1002	359.65	1.3
0.091	0.1012	356.75	1.29
0.2006	0.1	354.85	1.29
0.3002	0.1	354.55	1.28
0.4004	0.1001	354.25	1.28
0.5013	0.1	353.85	1.28
0.6001	0.1001	353.65	1.28
0.7006	0.1001	353.35	1.28
0.8009	0.1002	353.75	1.28
0.9007	0.1001	354.25	1.28
0.026	0.201	363.65	1.29
0.056	0.201	359.35	1.3
0.091	0.201	356.75	1.29
0.2006	0.2003	354.75	1.29
0.3002	0.2002	354.55	1.28
0.4004	0.1997	353.95	1.28
0.5013	0.2	353.75	1.28
0.6001	0.2	353.45	1.28
0.7006	0.2003	353.35	1.28
0.8009	0.2001	353.65	1.28
0.9007	0.2001	354.45	1.28
0.026	0.3002	363.65	1.29
0.056	0.3004	359.25	1.3
0.091	0.301	356.65	1.29
0.2006	0.3001	354.55	1.29
0.3002	0.3003	354.25	1.28
0.4004	0.2999	353.95	1.28
0.5013	0.2999	353.85	1.28
0.6001	0.2997	353.45	1.28
0.7006	0.3001	353.65	1.28
0.8009	0.3002	353.85	1.28
0.9007	0.3001	354.45	1.28
0.026	0.4001	364.55	1.29
0.056	0.4002	359.55	1.3
0.091	0.4011	356.75	1.29
0.2006	0.3995	354.65	1.29
0.3002	0.4002	354.45	1.28
0.4004	0.3999	353.85	1.28
0.5013	0.4001	353.75	1.28
0.6001	0.3998	353.55	1.28
0.7006	0.4003	353.75	1.28
0.8009	0.4004	354.15	1.28
0.9007	0.4001	354.55	1.28
0.026	0.5001	364.55	1.29
0.056	0.5002	359.55	1.3
0.091	0.5011	356.55	1.29
0.2006	0.499	355.05	1.29
0.3002	0.5001	354.45	1.28
0.4004	0.4994	353.85	1.28
0.5013	0.5	353.75	1.28
0.6001	0.4999	353.65	1.28
0.7006	0.5003	353.85	1.28
0.8009	0.5001	354.15	1.28
0.9007	0.5002	354.65	1.28
0.026	0.6002	364.25	1.29
0.056	0.6003	359.55	1.31
0.091	0.6012	356.55	1.31
0.2006	0.599	354.65	1.29
0.3002	0.6001	354.45	1.28
0.4004	0.5992	354.15	1.29
0.5013	0.6002	353.85	1.28
0.6001	0.6005	353.75	1.28
0.7006	0.6001	353.85	1.28
0.8009	0.6003	354.25	1.28
0.9007	0.6004	354.75	1.28

System: propan-2-ol + water + calcium nitrate; phases: Gas, Liquid
Fixed: Pressure, kPa = 101.3
Property: Mole fraction of propan-2-ol (Gas); method: Chromatography
Solvent: Mole fraction of propan-2-ol	Molality, mol/kg of calcium nitrate	Mole fraction of propan-2-ol	uncertainty
0.026	0.1001	0.3075	0.0114
0.056	0.1002	0.4285	0.0162
0.091	0.1012	0.4915	0.0178
0.2006	0.1	0.5381	0.0168
0.3002	0.1	0.5603	0.016
0.4004	0.1001	0.5789	0.0156
0.5013	0.1	0.6115	0.0154
0.6001	0.1001	0.6521	0.014
0.7006	0.1001	0.6982	0.0128
0.8009	0.1002	0.7791	0.01
0.9007	0.1001	0.8681	0.0058
0.026	0.201	0.315	0.0117
0.056	0.201	0.4351	0.0164
0.091	0.201	0.5052	0.0178
0.2006	0.2003	0.5511	0.0163
0.3002	0.2002	0.5619	0.0159
0.4004	0.1997	0.5881	0.0152
0.5013	0.2	0.6081	0.0153
0.6001	0.2	0.6565	0.0145
0.7006	0.2003	0.7167	0.0123
0.8009	0.2001	0.7865	0.0096
0.9007	0.2001	0.8768	0.0056
0.026	0.3002	0.3118	0.0116
0.056	0.3004	0.4348	0.0164
0.091	0.301	0.5008	0.018
0.2006	0.3001	0.5581	0.0161
0.3002	0.3003	0.5711	0.0156
0.4004	0.2999	0.5955	0.0151
0.5013	0.2999	0.6281	0.0148
0.6001	0.2997	0.6665	0.0139
0.7006	0.3001	0.7261	0.0119
0.8009	0.3002	0.7935	0.0094
0.9007	0.3001	0.8865	0.0052
0.026	0.4001	0.318	0.0118
0.056	0.4002	0.4418	0.0167
0.091	0.4011	0.5082	0.0178
0.2006	0.3995	0.5681	0.0158
0.3002	0.4002	0.5831	0.0152
0.4004	0.3999	0.5978	0.0148
0.5013	0.4001	0.6265	0.0151
0.6001	0.3998	0.6764	0.0137
0.7006	0.4003	0.7284	0.0118
0.8009	0.4004	0.7994	0.0092
0.9007	0.4001	0.8865	0.0052
0.026	0.5001	0.3148	0.0118
0.056	0.5002	0.4481	0.0169
0.091	0.5011	0.5068	0.0178
0.2006	0.499	0.5681	0.0158
0.3002	0.5001	0.5871	0.0151
0.4004	0.4994	0.6081	0.0148
0.5013	0.5	0.6465	0.0142
0.6001	0.4999	0.6779	0.0133
0.7006	0.5003	0.7379	0.0117
0.8009	0.5001	0.8071	0.0089
0.9007	0.5002	0.8939	0.005
0.026	0.6002	0.3188	0.0119
0.056	0.6003	0.4481	0.0179
0.091	0.6012	0.5054	0.0183
0.2006	0.599	0.5681	0.016
0.3002	0.6001	0.6011	0.0146
0.4004	0.5992	0.6081	0.0147
0.5013	0.6002	0.6465	0.0145
0.6001	0.6005	0.6879	0.0134
0.7006	0.6001	0.7419	0.0111
0.8009	0.6003	0.8012	0.0091
0.9007	0.6004	0.8979	0.0051

System: propan-2-ol + water + magnesium nitrate; phases: Liquid, Gas
Fixed: Pressure, kPa = 101.3
Property: Boiling temperature at pressure P, K (Liquid); method: Ebulliometric method (Recirculating still)
Solvent: Mole fraction of propan-2-ol	Molality, mol/kg of magnesium nitrate	Boiling temperature at pressure P, K	uncertainty
0.026	0.1001	364.15	1.29
0.056	0.1003	359.75	1.3
0.091	0.1002	357.75	1.29
0.2006	0.1002	355.35	1.29
0.3002	0.1001	354.95	1.28
0.4004	0.1	354.55	1.29
0.5013	0.1001	353.95	1.28
0.6001	0.0998	353.85	1.28
0.7006	0.1001	353.75	1.28
0.8009	0.1003	354.15	1.28
0.9007	0.1002	354.45	1.28
0.026	0.2001	364.15	1.29
0.056	0.2002	359.75	1.3
0.091	0.2001	357.25	1.29
0.2006	0.2001	355.2	1.29
0.3002	0.1999	354.85	1.28
0.4004	0.1999	354.95	1.28
0.5013	0.1999	354.25	1.29
0.6001	0.1998	354.15	1.28
0.7006	0.2003	354.25	1.28
0.8009	0.2001	354.45	1.28
0.9007	0.2002	355.15	1.28
0.026	0.3002	364.25	1.29
0.056	0.3001	359.85	1.3
0.091	0.3003	356.85	1.29
0.2006	0.3001	355.15	1.29
0.3002	0.2999	354.75	1.28
0.4004	0.2998	354.65	1.28
0.5013	0.2997	354.55	1.28
0.6001	0.2997	354.35	1.28
0.7006	0.3001	354.45	1.28
0.8009	0.3002	354.75	1.28
0.9007	0.3001	355.45	1.28
0.026	0.4001	364.35	1.29
0.056	0.4002	359.85	1.3
0.091	0.4005	357.35	1.29
0.2006	0.4001	355.15	1.29
0.3002	0.3998	354.65	1.28
0.4004	0.4	354.85	1.28
0.5013	0.3998	354.65	1.28
0.6001	0.3997	354.55	1.28
0.7006	0.4001	354.65	1.28
0.8009	0.4002	355.15	1.29
0.9007	0.4002	355.55	1.28
0.026	0.5001	364.85	1.29
0.056	0.5003	359.85	1.3
0.091	0.5006	356.85	1.29
0.2006	0.5001	355.25	1.28
0.3002	0.4998	355.15	1.28
0.4004	0.4994	354.85	1.28
0.5013	0.4998	354.75	1.28
0.6001	0.4997	354.65	1.28
0.7006	0.5002	355.15	1.29
0.8009	0.5001	355.65	1.28
0.9007	0.5003	356.25	1.29
0.026	0.6002	364.55	1.29
0.056	0.6003	359.75	1.31
0.091	0.6005	357.45	1.31
0.2006	0.6001	355.1	1.29
0.3002	0.6	355.15	1.28
0.4004	0.5999	355.05	1.28
0.5013	0.5998	355.05	1.29
0.6001	0.5998	355.15	1.29
0.7006	0.6001	355.45	1.29
0.8009	0.6002	355.75	1.29
0.9007	0.6001	356.65	1.29

System: propan-2-ol + water + magnesium nitrate; phases: Gas, Liquid
Fixed: Pressure, kPa = 101.3
Property: Mole fraction of propan-2-ol (Gas); method: Chromatography
Solvent: Mole fraction of propan-2-ol	Molality, mol/kg of magnesium nitrate	Mole fraction of propan-2-ol	uncertainty
0.026	0.1001	0.3067	0.0114
0.056	0.1003	0.4261	0.016
0.091	0.1002	0.4767	0.0172
0.2006	0.1002	0.535	0.0169
0.3002	0.1001	0.556	0.0161
0.4004	0.1	0.576	0.0156
0.5013	0.1001	0.6011	0.0157
0.6001	0.0998	0.6481	0.0145
0.7006	0.1001	0.7021	0.0127
0.8009	0.1003	0.7782	0.0101
0.9007	0.1002	0.8781	0.0057
0.026	0.2001	0.303	0.0113
0.056	0.2002	0.4283	0.0161
0.091	0.2001	0.483	0.0174
0.2006	0.2001	0.5411	0.0167
0.3002	0.1999	0.568	0.0157
0.4004	0.1999	0.5811	0.0154
0.5013	0.1999	0.6155	0.0153
0.6001	0.1998	0.6565	0.014
0.7006	0.2003	0.7085	0.0125
0.8009	0.2001	0.7861	0.0097
0.9007	0.2002	0.8766	0.0056
0.026	0.3002	0.305	0.0114
0.056	0.3001	0.4325	0.0163
0.091	0.3003	0.4915	0.0177
0.2006	0.3001	0.5481	0.0164
0.3002	0.2999	0.5611	0.0159
0.4004	0.2998	0.5855	0.0155
0.5013	0.2997	0.6181	0.0154
0.6001	0.2997	0.6664	0.0139
0.7006	0.3001	0.7164	0.0121
0.8009	0.3002	0.7864	0.0096
0.9007	0.3001	0.8788	0.0055
0.026	0.4001	0.3082	0.0115
0.056	0.4002	0.4348	0.0164
0.091	0.4005	0.4938	0.0178
0.2006	0.4001	0.5565	0.0162
0.3002	0.3998	0.5711	0.0156
0.4004	0.4	0.5911	0.0153
0.5013	0.3998	0.6265	0.015
0.6001	0.3997	0.6679	0.0139
0.7006	0.4001	0.7279	0.012
0.8009	0.4002	0.7979	0.0091
0.9007	0.4002	0.8826	0.0052
0.026	0.5001	0.3108	0.0116
0.056	0.5003	0.4348	0.0164
0.091	0.5006	0.4948	0.0179
0.2006	0.5001	0.5564	0.0162
0.3002	0.4998	0.5781	0.0155
0.4004	0.4994	0.6081	0.0146
0.5013	0.4998	0.6265	0.0144
0.6001	0.4997	0.6679	0.0139
0.7006	0.5002	0.7279	0.0119
0.8009	0.5001	0.7966	0.0091
0.9007	0.5003	0.8802	0.0054
0.026	0.6002	0.3181	0.0119
0.056	0.6003	0.4387	0.017
0.091	0.6005	0.5014	0.0182
0.2006	0.6001	0.5604	0.0161
0.3002	0.6	0.5881	0.0151
0.4004	0.5999	0.6081	0.0144
0.5013	0.5998	0.6265	0.0145
0.6001	0.5998	0.6679	0.0142
0.7006	0.6001	0.7329	0.0122
0.8009	0.6002	0.8071	0.0092
0.9007	0.6001	0.8879	0.0052

System: propan-2-ol + water; phases: Liquid, Gas
Fixed: Pressure, kPa = 101.3
Property: Boiling temperature at pressure P, K (Liquid); method: Ebulliometric method (Recirculating still)
Mole fraction of propan-2-ol	Boiling temperature at pressure P, K	uncertainty
0.026	364.05	1.29
0.056	359.65	1.3
0.091	357.25	1.29
0.2006	355.45	1.29
0.3002	354.75	1.28
0.4004	354.35	1.28
0.5013	353.85	1.28
0.6001	353.65	1.28
0.7006	353.55	1.28
0.8009	353.75	1.28
0.9007	354.05	1.28

System: propan-2-ol + water; phases: Gas, Liquid
Fixed: Pressure, kPa = 101.3
Property: Mole fraction of propan-2-ol (Gas); method: Chromatography
Mole fraction of propan-2-ol	Mole fraction of propan-2-ol	uncertainty
0.026	0.2992	0.0111
0.056	0.4213	0.016
0.091	0.5035	0.0176
0.2006	0.5234	0.0169
0.3002	0.542	0.016
0.4004	0.5685	0.0157
0.5013	0.5962	0.0153
0.6001	0.6325	0.0147
0.7006	0.6952	0.0123
0.8009	0.7467	0.0104
0.9007	0.8456	0.0066
