Measured thermophysical data. Liquid Liquid Equilibria of Binary, Ternary, and Quaternary Systems Involving Monoethylene Glycol, Water, Toluene, p-Xylene, Hexane, and Octane
Source: J. Chem. Eng. Data, 2017, 10.1021/acs.jced.6b01048
Compound 1: 1,2-ethanediol, C2H6O2, InChI=1S/C2H6O2/c3-1-2-4/h3-4H,1-2H2, purity 99.8%
Compound 2: hexane, C6H14, InChI=1S/C6H14/c1-3-5-6-4-2/h3-6H2,1-2H3, purity 99%
Compound 3: octane, C8H18, InChI=1S/C8H18/c1-3-5-7-8-6-4-2/h3-8H2,1-2H3, purity 98%
Compound 4: toluene, C7H8, InChI=1S/C7H8/c1-7-5-3-2-4-6-7/h2-6H,1H3, purity 99.7%
Compound 5: 1,4-dimethylbenzene, C8H10, InChI=1S/C8H10/c1-7-3-5-8(2)6-4-7/h3-6H,1-2H3, purity 99%
Compound 6: water, H2O, InChI=1S/H2O/h1H2, purity 99.9%

System: 1,2-ethanediol + toluene; phases: Liquid mixture 1, Liquid mixture 2
Property: Mole fraction of 1,2-ethanediol (Liquid mixture 1); method: Chromatography
Pressure, kPa	Temperature, K	Mole fraction of 1,2-ethanediol	uncertainty
101.3	303.15	0.00229	5e-05

System: 1,2-ethanediol + toluene; phases: Liquid mixture 2, Liquid mixture 1
Property: Mole fraction of toluene (Liquid mixture 2); method: Chromatography
Pressure, kPa	Temperature, K	Mole fraction of toluene	uncertainty
101.3	303.15	0.0213	0.0005

System: 1,4-dimethylbenzene + 1,2-ethanediol; phases: Liquid mixture 1, Liquid mixture 2
Property: Mole fraction of 1,2-ethanediol (Liquid mixture 1); method: Chromatography
Pressure, kPa	Temperature, K	Mole fraction of 1,2-ethanediol	uncertainty
101.3	303.15	0.00184	4e-05

System: 1,4-dimethylbenzene + 1,2-ethanediol; phases: Liquid mixture 2, Liquid mixture 1
Property: Mole fraction of 1,4-dimethylbenzene (Liquid mixture 2); method: Chromatography
Pressure, kPa	Temperature, K	Mole fraction of 1,4-dimethylbenzene	uncertainty
101.3	303.15	0.0106	0.0002

System: toluene + water; phases: Liquid mixture 1, Liquid mixture 2
Property: Mole fraction of water (Liquid mixture 1); method: Chromatography
Pressure, kPa	Temperature, K	Mole fraction of water	uncertainty
101.3	303.15	0.00348	7e-05

System: toluene + water; phases: Liquid mixture 2, Liquid mixture 1
Property: Mole fraction of toluene (Liquid mixture 2); method: Chromatography
Pressure, kPa	Temperature, K	Mole fraction of toluene	uncertainty
101.3	303.15	0.000104	2.1e-05

System: 1,4-dimethylbenzene + water; phases: Liquid mixture 1, Liquid mixture 2
Property: Mole fraction of water (Liquid mixture 1); method: Chromatography
Pressure, kPa	Temperature, K	Mole fraction of water	uncertainty
101.3	303.15	0.00325	7e-05

System: 1,4-dimethylbenzene + water; phases: Liquid mixture 2, Liquid mixture 1
Property: Mole fraction of 1,4-dimethylbenzene (Liquid mixture 2); method: Chromatography
Pressure, kPa	Temperature, K	Mole fraction of 1,4-dimethylbenzene	uncertainty
101.3	303.15	3.51e-05	7e-06

System: 1,2-ethanediol + toluene + hexane; phases: Liquid mixture 1, Liquid mixture 2
Fixed: Pressure, kPa = 101.3
Property: Mole fraction of hexane (Liquid mixture 1); method: Chromatography
Property: Mole fraction of 1,2-ethanediol (Liquid mixture 2); method: Chromatography
Property: Mole fraction of toluene (Liquid mixture 2); method: Chromatography
Temperature, K	Mole fraction of toluene	Mole fraction of hexane	uncertainty	Mole fraction of 1,2-ethanediol	uncertainty	Mole fraction of toluene	uncertainty
278.15	0.0102	0.000888	0.000179	0.00023	4.6e-05	0.4831	
303.15	0.00562	0.00149	0.0003	0.000345	6.9e-05	0.2376	
303.15	0.0108	0.00118	0.00024	0.000665	0.000133	0.4829	
303.15	0.0156	0.000768	0.000156	0.00129	0.00026	0.7363	
333.15	0.0127	0.00171	0.00034	0.00181	0.00036	0.4823	

System: 1,4-dimethylbenzene + 1,2-ethanediol + octane; phases: Liquid mixture 2, Liquid mixture 1
Fixed: Pressure, kPa = 101.3
Property: Mole fraction of 1,2-ethanediol (Liquid mixture 2); method: Chromatography
Property: Mole fraction of octane (Liquid mixture 1); method: Chromatography
Property: Mole fraction of 1,4-dimethylbenzene (Liquid mixture 1); method: Chromatography
Temperature, K	Mole fraction of 1,4-dimethylbenzene	Mole fraction of 1,2-ethanediol	uncertainty	Mole fraction of octane	uncertainty	Mole fraction of 1,4-dimethylbenzene	uncertainty
288.15	0.5181	0.000343	6.9e-05	0.000225	4.6e-05	0.00522	
303.15	0.2639	0.000354	7.1e-05	0.000399	8e-05	0.00286	
303.15	0.5179	0.000656	0.000131	0.00032	6.4e-05	0.00579	
303.15	0.7626	0.0011	0.00022	0.000175	3.7e-05	0.00785	
333.15	0.5173	0.0019	0.00038	0.000509	0.000102	0.00713	

System: toluene + hexane + water; phases: Liquid mixture 2, Liquid mixture 1
Fixed: Temperature, K = 303.15
Fixed: Pressure, kPa = 101.3
Property: Mole fraction of water (Liquid mixture 2); method: Chromatography
Property: Mole fraction of hexane (Liquid mixture 1); method: Chromatography
Property: Mole fraction of toluene (Liquid mixture 1); method: Chromatography
Mole fraction of toluene	Mole fraction of water	uncertainty	Mole fraction of hexane	uncertainty	Mole fraction of toluene	uncertainty
0.2374	0.00099	2.1e-05	1.43e-06	3e-07	3.11e-05	
0.4825	0.00152	3e-05	9.88e-07	2.76e-07	5.74e-05	

System: 1,2-ethanediol + toluene + water; phases: Liquid mixture 2, Liquid mixture 1
Fixed: Temperature, K = 303.15
Fixed: Pressure, kPa = 101.3
Property: Mole fraction of 1,2-ethanediol (Liquid mixture 2); method: Chromatography
Property: Mole fraction of toluene (Liquid mixture 1); method: Chromatography
Property: Mole fraction of water (Liquid mixture 1); method: Chromatography
Mole fraction of water	Mole fraction of 1,2-ethanediol	uncertainty	Mole fraction of toluene	uncertainty	Mole fraction of water	uncertainty
0.00158	0.00117	0.00024	0.00388	0.00078	0.4609	
0.0024	0.000583	0.00012	0.000966	0.000194	0.696	
0.00327	0.000127	4.3e-05	0.000169	3.4e-05	0.9322	

System: 1,4-dimethylbenzene + 1,2-ethanediol + water; phases: Liquid mixture 2, Liquid mixture 1
Fixed: Temperature, K = 303.15
Fixed: Pressure, kPa = 101.3
Property: Mole fraction of 1,2-ethanediol (Liquid mixture 2); method: Chromatography
Property: Mole fraction of 1,4-dimethylbenzene (Liquid mixture 1); method: Chromatography
Property: Mole fraction of water (Liquid mixture 1); method: Chromatography
Mole fraction of water	Mole fraction of 1,2-ethanediol	uncertainty	Mole fraction of 1,4-dimethylbenzene	uncertainty	Mole fraction of water	uncertainty
0.00145	0.000876	0.000176	0.00168	0.00034	0.4619	
0.00223	0.000436	9.1e-05	0.000408	8.2e-05	0.6963	
0.00289	9.24e-05	3.53e-05	7.87e-05	1.6e-05	0.9323	
