Measured thermophysical data. Solubility Determination and Correlation of Gatifloxacin, Enrofloxacin, and Ciprofloxacin in Supercritical CO2
Source: J. Chem. Eng. Data, 2017, 10.1021/acs.jced.7b00601
Compound 1: gatifloxacin, C19H22FN3O4, InChI=1S/C19H22FN3O4/c1-10-8-22(6-5-21-10)16-14(20)7-12-15(18(16)27-2)23(11-3-4-11)9-13(17(12)24)19(25)26/h7,9-11,21H,3-6,8H2,1-2H3,(H,25,26), purity 99%
Compound 2: Enrofloxacin, C19H22FN3O3, InChI=1S/C19H22FN3O3/c1-2-21-5-7-22(8-6-21)17-10-16-13(9-15(17)20)18(24)14(19(25)26)11-23(16)12-3-4-12/h9-12H,2-8H2,1H3,(H,25,26), purity 98%
Compound 3: ciprofloxacin, C17H18FN3O3, InChI=1S/C17H18FN3O3/c18-13-7-11-14(8-15(13)20-5-3-19-4-6-20)21(10-1-2-10)9-12(16(11)22)17(23)24/h7-10,19H,1-6H2,(H,23,24), purity 98%
Compound 4: carbon dioxide, CO2, InChI=1S/CO2/c2-1-3, purity 99.9%

System: gatifloxacin; phases: Crystal, Liquid, Air at 1 atmosphere
Property: Normal melting temperature, K (Crystal); method: DTA
Normal melting temperature, K	uncertainty
435.15	2.86

System: gatifloxacin; phases: Crystal, Liquid, Air at 1 atmosphere
Property: Molar enthalpy of transition or fusion, kJ/mol (Crystal); method: DSC
Molar enthalpy of transition or fusion, kJ/mol	uncertainty
34.945	0.975

System: gatifloxacin + carbon dioxide; phases: Fluid (supercritical or subcritical phases), Crystal
Property: Mole fraction of gatifloxacin (Fluid (supercritical or subcritical phases)); method: UV spectroscopy
Temperature, K	Pressure, kPa	Mole fraction of gatifloxacin	uncertainty
313	12000	1.32e-07	1.3e-08
313	14000	1.81e-07	3.4e-08
313	17000	2.56e-07	1.7e-08
313	20000	3.35e-07	4.3e-08
313	24000	4.41e-07	1.15e-07
313	28000	5.14e-07	1.44e-07
313	32000	5.92e-07	6.8e-08
313	36000	6.27e-07	7.3e-08
323	12000	1.25e-07	3.1e-08
323	14000	1.9e-07	1.64e-07
323	17000	3.19e-07	1.43e-07
323	20000	3.82e-07	7.2e-08
323	24000	5.64e-07	6.6e-08
323	28000	6.79e-07	1.02e-07
323	32000	8.57e-07	1.52e-07
323	36000	9.74e-07	1.36e-07
333	12000	1.06e-07	3.1e-08
333	14000	1.93e-07	1.5e-08
333	17000	3.89e-07	2e-08
333	20000	5.53e-07	6.3e-08
333	24000	8.88e-07	1.41e-07
333	28000	1.235e-06	1.95e-07
333	32000	1.524e-06	1.33e-07
333	36000	1.605e-06	2.15e-07

System: Enrofloxacin + carbon dioxide; phases: Fluid (supercritical or subcritical phases), Crystal
Property: Mole fraction of Enrofloxacin (Fluid (supercritical or subcritical phases)); method: UV spectroscopy
Temperature, K	Pressure, kPa	Mole fraction of Enrofloxacin	uncertainty
313	12000	6.1e-08	6.1e-08
313	14000	1.9e-07	2.2e-08
313	17000	4.35e-07	7.1e-08
313	20000	5.9e-07	4.2e-08
313	24000	1.02e-06	4.4e-08
313	28000	1.57e-06	2.07e-07
313	32000	2.03e-06	2.11e-07
313	36000	2.585e-06	2.11e-07
323	12000	2.2e-08	1.4e-08
323	14000	1.27e-07	9.9e-08
323	17000	4.15e-07	8.7e-08
323	20000	8.3e-07	4.2e-08
323	24000	1.19e-06	6.1e-08
323	28000	2.31e-06	1.22e-07
323	32000	2.98e-06	1.89e-07
323	36000	3.53e-06	3.14e-07
333	17000	4.14e-07	7.6e-08
333	20000	9.3e-07	3.5e-08
333	24000	1.49e-06	2.31e-07
333	28000	2.7e-06	1.77e-07
333	32000	3.575e-06	2.83e-07
333	36000	5.605e-06	4.47e-07

System: ciprofloxacin + carbon dioxide; phases: Fluid (supercritical or subcritical phases), Crystal
Property: Mole fraction of ciprofloxacin (Fluid (supercritical or subcritical phases)); method: UV spectroscopy
Temperature, K	Pressure, kPa	Mole fraction of ciprofloxacin	uncertainty
313	24000	0.0265	0.0055
313	28000	0.0389	0.0062
313	32000	0.0434	0.0075
313	36000	0.0685	0.0088
323	24000	0.0464	0.0079
323	28000	0.0635	0.0092
323	32000	0.0858	0.0102
323	36000	0.1069	0.015
333	17000	0.0297	0.0111
333	20000	0.0555	0.0105
333	24000	0.0962	0.009
333	28000	0.1159	0.0113
333	32000	0.1449	0.0132
333	36000	0.1887	0.0233
