Measured thermophysical data. Physicochemical Properties of the System N,N-Dimethyl-dipropylene-diamino-triacetonediamine (EvA34), Water, and Carbon Dioxide for Reactive Absorption
Source: J. Chem. Eng. Data, 2019, 10.1021/acs.jced.8b01174
Compound 1: N,N-dimethyl-dipropylene-diamino-triacetonediamine [EvA34], C17H38N4, InChI=1S/C17H38N4/c1-16(2)13-15(14-17(3,4)20-16)19-11-7-9-18-10-8-12-21(5)6/h15,18-20H,7-14H2,1-6H3, purity 97%
Compound 2: water, H2O, InChI=1S/H2O/h1H2, purity 99.999%
Compound 3: carbon dioxide, CO2, InChI=1S/CO2/c2-1-3, purity 99.995%
Compound 4: N-methyldiethanolamine, C5H13NO2, InChI=1S/C5H13NO2/c1-6(2-4-7)3-5-8/h7-8H,2-5H2,1H3, purity 97%
Compound 5: piperazine, C4H10N2, InChI=1S/C4H10N2/c1-2-6-4-3-5-1/h5-6H,1-4H2, purity 97%

System: N,N-dimethyl-dipropylene-diamino-triacetonediamine [EvA34]; phases: Liquid
Fixed: Pressure, kPa = 97.7
Property: Molar heat capacity at constant pressure, J/K/mol (Liquid); method: DSC
Temperature, K	Molar heat capacity at constant pressure, J/K/mol	uncertainty
298.15	611.64817842	34.03020612
308.15	623.8871122	34.62722728
318.15	633.43945076	34.62722728
328.15	643.2902999	35.52275902
338.15	654.63370194	36.41829076
348.15	668.06667804	36.11978018

System: N,N-dimethyl-dipropylene-diamino-triacetonediamine [EvA34]; phases: Liquid
Fixed: Pressure, kPa = 97.7
Property: Mass density, kg/m3 (Liquid); method: Vibrating tube method
Temperature, K	Mass density, kg/m3	uncertainty
293.15	907	2
303.15	899	2
313.15	892	2
323.15	885	2
333.15	878	2
343.15	870	2
353.15	863	2
363.15	856	2

System: N,N-dimethyl-dipropylene-diamino-triacetonediamine [EvA34]; phases: Liquid
Fixed: Pressure, kPa = 97.7
Property: Viscosity, Pa*s (Liquid); method: Concentric cylinders viscometry
Temperature, K	Viscosity, Pa*s	uncertainty
293.15	0.06267	0.00163
303.15	0.03261	0.00087
313.15	0.01893	0.00049
323.15	0.01202	0.00032
333.15	0.00818	0.00022
343.15	0.00589	0.00015
353.15	0.00443	0.00011
363.15	0.00346	0.0001

System: N,N-dimethyl-dipropylene-diamino-triacetonediamine [EvA34]; phases: Liquid, Gas
Property: Vapor or sublimation pressure, kPa (Liquid); method: Ebulliometric method (Recirculating still)
Temperature, K	Vapor or sublimation pressure, kPa	uncertainty
486.31	4.994	0.471
482.38	4.033	0.455
479.55	2.982	0.414
474.01	2.011	0.379

System: water; phases: Liquid
Fixed: Pressure, kPa = 100
Property: Molar heat capacity at constant pressure, J/K/mol (Liquid); method: DSC
Temperature, K	Molar heat capacity at constant pressure, J/K/mol	uncertainty
298.15	74.79944256	3.45893376
308.15	74.78142728	3.5129796
318.15	74.92554952	3.5129796
328.15	75.01562592	3.53099488
338.15	75.06967176	3.49496432
348.15	75.213794	3.56702544

System: water; phases: Liquid
Fixed: Pressure, kPa = 97.7
Property: Mass density, kg/m3 (Liquid); method: Vibrating tube method
Temperature, K	Mass density, kg/m3	uncertainty
293.15	998	2
303.15	996	2
313.15	992	2
323.15	988	2
333.15	983	2
343.15	978	2
353.15	972	2
363.15	965	2

System: water; phases: Liquid
Fixed: Pressure, kPa = 97.7
Property: Viscosity, Pa*s (Liquid); method: Concentric cylinders viscometry
Temperature, K	Viscosity, Pa*s	uncertainty
293.15	0.001	2e-05
303.15	0.0008	2e-05
313.15	0.00065	2e-05
323.15	0.00055	2e-05
333.15	0.00047	2e-05
343.15	0.0004	2e-05
353.15	0.00035	2e-05
363.15	0.00031	2e-05

System: N,N-dimethyl-dipropylene-diamino-triacetonediamine [EvA34] + water + carbon dioxide; phases: Gas, Liquid
Property: Partial pressure, kPa of carbon dioxide (Gas); method: headspace gas chromatography
Temperature, K	Molality, mol/kg of N,N-dimethyl-dipropylene-diamino-triacetonediamine [EvA34]	Molality, mol/kg of carbon dioxide	Partial pressure, kPa of carbon dioxide	uncertainty
313.15	0.38	0.625	1.684	0.233
313.21	0.374	0.749	5.3	0.982
313.18	0.374	0.799	7.831	1.091
313.17	0.38	0.847	11.443	875.02
313.18	0.38	0.905	18.11	1037.267
313.19	0.38	0.952	26.638	324.067
313.14	0.38	1.005	45.633	270.627
313.21	0.374	1.049	73.846	6.686
353.16	0.368	0.374	3.245	0.979
353.15	0.368	0.504	7.644	1.602
353.12	0.365	0.582	14.937	1.666
353.15	0.368	0.685	31.744	3.239
353.09	0.365	0.73	53.721	4.517
353.1	0.365	0.771	74.047	5.271
393.13	0.373	0.095	3.183	0.139
393.13	0.373	0.161	6.732	0.471
393.13	0.373	0.239	13.416	0.906
393.15	0.373	0.324	24.614	1.718
393.13	0.368	0.421	47.102	3.886
393.15	0.373	0.504	72.489	4.67
313.16	2.246	3.45	2.495	0.473
313.15	2.18	3.909	5.57	1.024
313.16	2.18	4.274	9.344	0.913
313.18	2.271	4.785	14.101	2.896
313.16	2.3	4.93	16.292	2.876
313.16	2.3	5.34	28.403	3
313.15	2.246	5.84	59.855	15.902
313.16	2.246	5.974	74.669	15.663
353.11	2.249	0.665	1.781	0.108
353.11	2.249	1.124	3.562	0.272
353.16	2.235	1.635	7.005	0.48
353.17	2.235	1.821	8.26	0.718
353.16	2.257	1.976	10.397	0.816
353.16	2.257	2.296	15.064	1.05
353.16	2.257	2.661	21.375	1.617
353.16	2.257	3.113	34.411	2.892
353.16	2.257	3.432	49.308	4.252
353.16	2.247	3.603	58.871	5.386
353.18	2.235	3.961	81.366	6.576
392.77	2.249	0.162	3.348	0.393
393.18	2.259	0.183	4.914	5.794
393.13	2.259	0.271	6.949	0.48
393.14	2.235	0.34	9.769	0.477
393.14	2.262	0.36	9.915	0.383
393.15	2.224	0.509	16.934	0.961
393.16	2.224	0.621	22.663	1.357
393.14	2.262	0.769	29.02	1.711
393.13	2.262	0.961	41.164	2.584
393.14	2.246	1.136	55.297	3.221
393.13	2.224	1.264	62.128	4
393.15	2.246	1.449	77.074	7.083

System: N,N-dimethyl-dipropylene-diamino-triacetonediamine [EvA34] + water + carbon dioxide; phases: Gas, Liquid
Property: Vapor or sublimation pressure, kPa (Gas); method: Closed cell (Static) method
Temperature, K	Molality, mol/kg of N,N-dimethyl-dipropylene-diamino-triacetonediamine [EvA34]	Molality, mol/kg of carbon dioxide	Vapor or sublimation pressure, kPa	uncertainty
313.23	0.377	1.223	526.4	6.3
313.16	0.377	1.26	616.8	6.8
313.21	0.377	1.354	960.6	22.9
313.23	0.377	1.41	1142.6	15.6
313.2	0.377	1.494	1531.4	16.2
313.16	0.377	1.626	2084.7	19.5
313.2	0.377	1.813	3316	102.3
313.23	0.377	1.978	4451.2	52.8
313.22	0.377	2.175	5697.4	111.6
313.19	0.377	2.348	6902	103.1
353.11	0.377	1.064	714.1	13.6
353.24	0.377	1.09	767.3	11.7
353.17	0.377	1.22	1452.7	12.7
353.27	0.377	1.275	1886.9	18.3
353.27	0.377	1.402	2755.5	26.2
353.32	0.377	1.559	4107.8	30.4
353.28	0.377	1.702	5536.4	95.9
393.13	0.377	0.803	782.2	8.5
393.22	0.377	0.997	1497.6	35.2
393.27	0.377	1.148	3041	35.5
393.23	0.377	1.286	4350.2	43.6
393.19	0.377	1.625	7522.1	74.1
313.24	2.237	6.442	295.6	35
313.21	2.237	6.553	395.9	26.3
313.22	2.237	6.684	538.8	32.4
313.22	2.237	6.931	827.7	38.9
313.19	2.237	7.434	1912.7	42.8
313.19	2.237	7.657	2722.3	56.9
313.2	2.237	7.833	3329	65.1
313.21	2.237	8.277	5842.2	129.7
353.21	2.238	4.418	198.3	13.7
353.28	2.238	4.884	364.7	7.5
353.21	2.238	5.346	581.5	11.9
353.22	2.238	5.606	758.9	18.6
353.24	2.238	5.623	778.8	18.5
353.21	2.238	5.847	1031.7	45.3
353.12	2.238	6.046	1543.7	56.1
353.19	2.238	6.343	2082.7	52.2
353.07	2.238	6.651	3128.6	33.4
353.15	2.238	6.947	4694.3	112
353.22	2.238	7.168	6447.6	118.7
353.19	2.238	7.397	8149.7	116
393.05	2.238	2.735	523.3	4.3
393.14	2.238	3.152	656.2	8.8
392.96	2.238	3.703	915.7	16.1
393.12	2.238	4.225	1380.2	13.4
393.06	2.238	4.515	1880.4	28.2
393	2.238	4.739	2269	28.6
393.04	2.238	5.305	3686.1	36.8
393.12	2.238	5.747	5788.2	61.7
393.06	2.238	6.282	9029.2	108.2

System: N,N-dimethyl-dipropylene-diamino-triacetonediamine [EvA34] + water + carbon dioxide; phases: Liquid
Fixed: Pressure, kPa = 97.7
Property: Mass density, kg/m3 (Liquid); method: Vibrating tube method
Temperature, K	Molality, mol/kg of N,N-dimethyl-dipropylene-diamino-triacetonediamine [EvA34]	Molality, mol/kg of carbon dioxide	Mass density, kg/m3	uncertainty
293.15	0.374	0	1000	2
293.15	0.372	0.338	1016	2
293.15	0.372	0.529	1022	2
293.15	0.365	0.771	1028	2
293.15	0.374	1.049	1036	2
303.15	0.374	0	996	2
303.15	0.372	0.338	1013	2
303.15	0.372	0.529	1019	2
303.15	0.365	0.771	1024	2
303.15	0.374	1.049	1032	2
313.15	0.374	0	992	2
313.15	0.372	0.338	1009	2
313.15	0.372	0.529	1015	2
313.15	0.365	0.771	1020	2
323.15	0.374	0	988	2
323.15	0.372	0.338	1004	2
323.15	0.372	0.529	1010	2
323.15	0.365	0.771	1016	2
333.15	0.374	0	982	2
333.15	0.372	0.338	998	2
333.15	0.372	0.529	1004	2
343.15	0.374	0	976	2
343.15	0.372	0.338	992	2
353.15	0.374	0	967	2
353.15	0.372	0.338	986	2
293.15	2.224	0	1005	2
293.15	2.235	0.34	1015	2
293.15	2.246	1.449	1044	2
293.15	2.257	1.976	1057	2
293.15	2.257	2.296	1066	2
293.15	2.257	2.661	1073	3
293.15	2.257	3.113	1084	3
293.15	2.247	3.603	1093	3
293.15	2.239	4.537	1109	4
303.15	2.224	0	998	2
303.15	2.235	0.34	1008	2
303.15	2.246	1.449	1037	2
303.15	2.257	1.976	1050	2
303.15	2.257	2.296	1059	2
303.15	2.257	2.661	1067	3
303.15	2.257	3.113	1077	3
303.15	2.247	3.603	1086	3
303.15	2.239	4.537	1103	4
313.15	2.224	0	991	2
313.15	2.235	0.34	1001	2
313.15	2.246	1.449	1030	2
313.15	2.257	1.976	1043	2
313.15	2.257	2.296	1052	2
313.15	2.257	2.661	1060	3
313.15	2.257	3.113	1070	3
313.15	2.247	3.603	1080	3
313.15	2.239	4.537	1097	4
323.15	2.224	0	983	2
323.15	2.235	0.34	994	2
323.15	2.246	1.449	1022	2
323.15	2.257	1.976	1036	2
323.15	2.257	2.296	1045	2
323.15	2.257	2.661	1052	3
323.15	2.257	3.113	1063	3
323.15	2.247	3.603	1073	3
323.15	2.239	4.537	1091	4
333.15	2.224	0	976	2
333.15	2.235	0.34	986	2
333.15	2.246	1.449	1015	2
333.15	2.257	1.976	1029	2
333.15	2.257	2.296	1037	2
333.15	2.257	2.661	1045	3
333.15	2.257	3.113	1056	3
333.15	2.247	3.603	1066	3
333.15	2.239	4.537	1084	4
343.15	2.224	0	968	2
343.15	2.235	0.34	978	2
343.15	2.257	1.976	1021	2
343.15	2.257	2.296	1030	2
343.15	2.257	2.661	1037	3
343.15	2.257	3.113	1048	3
343.15	2.247	3.603	1059	3
353.15	2.224	0	959	2
353.15	2.235	0.34	970	2
353.15	2.257	1.976	1013	2
353.15	2.257	2.296	1022	2
353.15	2.257	2.661	1029	3
353.15	2.257	3.113	1041	3
353.15	2.247	3.603	1051	3

System: N,N-dimethyl-dipropylene-diamino-triacetonediamine [EvA34] + water + carbon dioxide; phases: Liquid
Fixed: Pressure, kPa = 97.7
Property: Viscosity, Pa*s (Liquid); method: Concentric cylinders viscometry
Temperature, K	Molality, mol/kg of N,N-dimethyl-dipropylene-diamino-triacetonediamine [EvA34]	Molality, mol/kg of carbon dioxide	Viscosity, Pa*s	uncertainty
293.15	0.374	0	0.00209	4e-05
293.15	0.372	0.338	0.0021	4e-05
293.15	0.372	0.529	0.00206	4e-05
293.15	0.365	0.771	0.00199	4e-05
293.15	0.374	1.049	0.00201	5e-05
303.15	0.374	0	0.00156	6e-05
303.15	0.372	0.338	0.00161	4e-05
303.15	0.372	0.529	0.00159	4e-05
303.15	0.365	0.771	0.00155	4e-05
303.15	0.374	1.049	0.00158	4e-05
313.15	0.374	0	0.00123	6e-05
313.15	0.372	0.338	0.00127	2e-05
313.15	0.372	0.529	0.00127	2e-05
313.15	0.365	0.771	0.00125	2e-05
323.15	0.374	0	0.00101	2e-05
323.15	0.372	0.338	0.00104	2e-05
323.15	0.372	0.529	0.00104	2e-05
323.15	0.365	0.771	0.00103	2e-05
333.15	0.374	0	0.00084	4e-05
333.15	0.372	0.338	0.00087	2e-05
333.15	0.372	0.529	0.00088	2e-05
343.15	0.374	0	0.0007	6e-05
343.15	0.372	0.338	0.00074	2e-05
353.15	0.374	0	0.00061	4e-05
353.15	0.372	0.338	0.00065	4e-05
293.15	2.224	0	0.03243	0.00071
293.15	2.235	0.34	0.03622	0.00084
293.15	2.246	1.449	0.05147	0.00191
293.15	2.257	1.976	0.05685	0.00475
293.15	2.257	2.296	0.06179	0.00152
293.15	2.257	2.661	0.06536	0.00165
293.15	2.257	3.113	0.06834	0.00158
293.15	2.247	3.603	0.06955	0.00155
293.15	2.239	4.537	0.07138	0.00175
303.15	2.224	0	0.01775	0.0004
303.15	2.235	0.34	0.01977	0.00046
303.15	2.246	1.449	0.0276	0.00069
303.15	2.257	1.976	0.03099	0.00078
303.15	2.257	2.296	0.0328	0.00077
303.15	2.257	2.661	0.03479	0.00083
303.15	2.257	3.113	0.0367	0.00084
303.15	2.247	3.603	0.03793	0.00086
303.15	2.239	4.537	0.04007	0.00187
313.15	2.224	0	0.01074	0.00024
313.15	2.235	0.34	0.01191	0.00026
313.15	2.246	1.449	0.01629	0.0004
313.15	2.257	1.976	0.01821	0.00044
313.15	2.257	2.296	0.01926	0.00044
313.15	2.257	2.661	0.02044	0.00048
313.15	2.257	3.113	0.02169	0.00052
313.15	2.247	3.603	0.02265	0.00052
313.15	2.239	4.537	0.02442	0.00108
323.15	2.224	0	0.00702	0.00015
323.15	2.235	0.34	0.00774	0.00017
323.15	2.246	1.449	0.01042	0.00025
323.15	2.257	1.976	0.01159	0.00028
323.15	2.257	2.296	0.01225	0.0003
323.15	2.257	2.661	0.01299	0.00032
323.15	2.257	3.113	0.01383	0.00034
323.15	2.247	3.603	0.01454	0.00036
323.15	2.239	4.537	0.01595	0.00069
333.15	2.224	0	0.00487	0.00011
333.15	2.235	0.34	0.00534	0.00015
333.15	2.246	1.449	0.00709	0.00018
333.15	2.257	1.976	0.00784	0.00018
333.15	2.257	2.296	0.00829	0.0002
333.15	2.257	2.661	0.00879	0.00021
333.15	2.257	3.113	0.00938	0.00023
333.15	2.247	3.603	0.00992	0.00024
333.15	2.239	4.537	0.01103	0.00038
343.15	2.224	0	0.00354	8e-05
343.15	2.235	0.34	0.00387	9e-05
343.15	2.257	1.976	0.00559	0.00013
343.15	2.257	2.296	0.0059	0.00014
343.15	2.257	2.661	0.00626	0.00014
343.15	2.257	3.113	0.00669	0.00016
343.15	2.247	3.603	0.00711	0.00021
353.15	2.224	0	0.00272	0.00018
353.15	2.235	0.34	0.0029	0.0001
353.15	2.257	1.976	0.00415	9e-05
353.15	2.257	2.296	0.00438	0.00011
353.15	2.257	2.661	0.00464	0.00012
353.15	2.257	3.113	0.00503	0.00014
353.15	2.247	3.603	0.00522	0.00025

System: N,N-dimethyl-dipropylene-diamino-triacetonediamine [EvA34] + water; phases: Liquid
Fixed: Pressure, kPa = 100
Property: Molar heat capacity at constant pressure, J/K/mol (Liquid); method: DSC
Temperature, K	Molality, mol/kg of N,N-dimethyl-dipropylene-diamino-triacetonediamine [EvA34]	Molar heat capacity at constant pressure, J/K/mol	uncertainty
298.15	0	74.79944256	3.45893376
298.15	0.335	80.9782616007322	3.82140178801801
298.15	0.837	90.946121043635	4.3476682255006
298.15	2.23	109.711593047524	5.13506798907684
298.15	5.008	141.327850634509	6.96744654528356
298.15	13.403	214.590968739791	10.0147290111908
298.15	30.009	296.932551466995	14.6719613666044
308.15	0	74.78142728	3.5129796
308.15	0.335	82.0419507582218	3.90019357746168
308.15	0.837	91.7224903696172	4.36985020624295
308.15	2.23	111.384817448459	5.25046277534823
308.15	5.008	145.53305505829	7.00867403963435
308.15	13.403	220.541749746441	10.3775815115963
308.15	30.009	304.734308701618	14.9048496422648
318.15	0	74.92554952	3.5129796
318.15	0.335	82.5737953369666	3.88049563010077
318.15	0.837	92.0552200807525	4.32548624475825
318.15	2.23	112.625311400876	5.27931147191607
318.15	5.008	148.954937089405	7.46217647749304
318.15	13.403	226.565101253172	10.5227225117585
318.15	30.009	311.488068695769	15.021293780095
328.15	0	75.01562592	3.53099488
328.15	0.335	83.0071501789068	3.99868331426627
328.15	0.837	92.2548579074336	4.32548624475825
328.15	2.23	113.808107960158	5.30816016848392
328.15	5.008	152.665411580976	7.33849399444067
328.15	13.403	230.991901758118	11.0307160123261
328.15	30.009	318.12538455209	15.3706261935856
338.15	0	75.06967176	3.49496432
338.15	0.335	83.3420152840424	4.01838126162719
338.15	0.837	92.4323137533724	4.32548624475825
338.15	2.23	114.962055822872	5.36585756161962
338.15	5.008	156.087293612092	7.25603900573909
338.15	13.403	236.362118764119	10.958145512245
338.15	30.009	324.879144546241	15.7199586070762
348.15	0	75.213794	3.56702544
348.15	0.335	83.7359742312607	4.1365689457927
348.15	0.837	92.5875876185689	4.32548624475825
348.15	2.23	116.144852382154	5.39470625818746
348.15	5.008	159.0969006997	7.42094898314225
348.15	13.403	241.296912769634	11.4661390128127
348.15	30.009	331.982236953883	16.4186234340574

System: N,N-dimethyl-dipropylene-diamino-triacetonediamine [EvA34] + water; phases: Liquid
Fixed: Pressure, kPa = 97.7
Property: Mass density, kg/m3 (Liquid); method: Vibrating tube method
Temperature, K	Molality, mol/kg of N,N-dimethyl-dipropylene-diamino-triacetonediamine [EvA34]	Mass density, kg/m3	uncertainty
293.15	0	998	2
293.15	0.374	1000	2
293.15	1.114	1004	2
293.15	2.224	1005	2
293.15	3.344	1004	2
293.15	5.008	998	2
293.15	7.823	987	2
293.15	10.607	978	2
293.15	13.403	969	2
293.15	15.261	965	2
293.15	19.206	958	2
293.15	30.009	945	2
293.15	63.476	928	2
293.15	159.133	917	3
303.15	0	996	2
303.15	0.374	996	2
303.15	1.114	999	2
303.15	2.224	998	2
303.15	3.344	997	2
303.15	5.008	991	2
303.15	7.823	979	2
303.15	10.607	969	2
303.15	13.403	961	2
303.15	15.261	957	2
303.15	19.206	950	2
303.15	30.009	937	2
303.15	63.476	921	2
303.15	159.133	909	3
313.15	0	992	2
313.15	0.374	992	2
313.15	1.114	994	2
313.15	2.224	991	2
313.15	3.344	989	2
313.15	5.008	983	2
313.15	7.823	971	2
313.15	10.607	961	2
313.15	13.403	953	2
313.15	15.261	948	2
313.15	19.206	942	2
313.15	30.009	929	2
313.15	63.476	913	2
313.15	159.133	902	2
323.15	0	988	2
323.15	0.374	988	2
323.15	1.114	987	2
323.15	2.224	983	2
323.15	3.344	981	2
323.15	5.008	974	2
323.15	7.823	962	2
323.15	10.607	952	2
323.15	13.403	944	2
323.15	15.261	940	2
323.15	19.206	934	2
323.15	30.009	921	2
323.15	63.476	905	2
323.15	159.133	894	2
333.15	0	983	2
333.15	0.374	982	2
333.15	1.114	981	2
333.15	2.224	976	2
333.15	3.344	973	2
333.15	5.008	966	2
333.15	7.823	953	2
333.15	10.607	944	2
333.15	13.403	936	2
333.15	15.261	931	2
333.15	19.206	925	2
333.15	30.009	913	2
333.15	63.476	897	2
333.15	159.133	887	2
343.15	0	978	2
343.15	0.374	976	2
343.15	1.114	974	2
343.15	2.224	968	2
343.15	3.344	964	2
343.15	5.008	957	2
343.15	7.823	944	2
343.15	10.607	935	2
343.15	13.403	927	2
343.15	15.261	923	2
343.15	19.206	917	2
343.15	30.009	904	2
343.15	63.476	889	2
343.15	159.133	879	2
353.15	0	972	2
353.15	0.374	967	2
353.15	1.114	966	2
353.15	2.224	959	2
353.15	3.344	955	2
353.15	5.008	948	2
353.15	7.823	935	2
353.15	10.607	926	2
353.15	13.403	918	2
353.15	15.261	914	2
353.15	19.206	908	2
353.15	30.009	896	2
353.15	63.476	882	2
353.15	159.133	872	2
363.15	0	965	2
363.15	1.114	959	2
363.15	2.224	951	2
363.15	3.344	946	2
363.15	5.008	938	2
363.15	7.823	926	2
363.15	10.607	916	2
363.15	15.261	905	2
363.15	19.206	899	2
363.15	30.009	888	2
363.15	63.476	874	2
363.15	159.133	864	2

System: N,N-dimethyl-dipropylene-diamino-triacetonediamine [EvA34] + water; phases: Liquid
Fixed: Pressure, kPa = 97.7
Property: Viscosity, Pa*s (Liquid); method: Concentric cylinders viscometry
Temperature, K	Molality, mol/kg of N,N-dimethyl-dipropylene-diamino-triacetonediamine [EvA34]	Viscosity, Pa*s	uncertainty
293.15	0	0.001	2e-05
293.15	0.374	0.00209	4e-05
293.15	1.114	0.00719	0.00016
293.15	2.224	0.03243	0.00075
293.15	3.344	0.09459	0.00232
293.15	5.008	0.29844	0.00983
293.15	7.823	0.92153	0.03954
293.15	10.607	1.5157	0.07386
293.15	13.403	1.81495	0.09192
293.15	15.261	1.82885	0.09342
293.15	19.206	1.72105	0.08621
293.15	30.009	1.09175	0.05025
293.15	63.476	0.38481	0.01459
293.15	159.133	0.14894	0.0044
303.15	0	0.0008	2e-05
303.15	0.374	0.00156	6e-05
303.15	1.114	0.0047	0.00011
303.15	2.224	0.01775	0.0004
303.15	3.344	0.04543	0.00106
303.15	5.008	0.12353	0.00329
303.15	7.823	0.32315	0.01121
303.15	10.607	0.48396	0.01878
303.15	13.403	0.55615	0.0226
303.15	15.261	0.55758	0.0227
303.15	19.206	0.52724	0.0212
303.15	30.009	0.35623	0.01312
303.15	63.476	0.14812	0.00456
303.15	159.133	0.06696	0.00184
313.15	0	0.00065	2e-05
313.15	0.374	0.00123	6e-05
313.15	1.114	0.00331	0.0001
313.15	2.224	0.01074	0.00024
313.15	3.344	0.02452	0.00056
313.15	5.008	0.0585	0.0014
313.15	7.823	0.13242	0.00374
313.15	10.607	0.18436	0.00557
313.15	13.403	0.20464	0.00654
313.15	15.261	0.20439	0.00642
313.15	19.206	0.19394	0.00611
313.15	30.009	0.13874	0.0041
313.15	63.476	0.0663	0.00175
313.15	159.133	0.03422	0.00092
323.15	0	0.00055	2e-05
323.15	0.374	0.00101	2e-05
323.15	1.114	0.00248	8e-05
323.15	2.224	0.00702	0.00015
323.15	3.344	0.01452	0.00033
323.15	5.008	0.03091	0.00073
323.15	7.823	0.06178	0.0015
323.15	10.607	0.081	0.00209
323.15	13.403	0.08754	0.00235
323.15	15.261	0.08733	0.0023
323.15	19.206	0.08327	0.00221
323.15	30.009	0.0626	0.00163
323.15	63.476	0.03373	0.00087
323.15	159.133	0.01952	0.00051
333.15	0	0.00047	2e-05
333.15	0.374	0.00084	4e-05
333.15	1.114	0.0019	4e-05
333.15	2.224	0.00487	0.00011
333.15	3.344	0.00926	0.0002
333.15	5.008	0.01787	0.00043
333.15	7.823	0.03214	0.00078
333.15	10.607	0.04011	0.00099
333.15	13.403	0.04256	0.00107
333.15	15.261	0.04247	0.00106
333.15	19.206	0.04073	0.00103
333.15	30.009	0.03198	0.00081
333.15	63.476	0.01911	0.0005
333.15	159.133	0.01217	0.00031
343.15	0	0.0004	2e-05
343.15	0.374	0.0007	8e-05
343.15	1.114	0.00151	4e-05
343.15	2.224	0.00354	8e-05
343.15	3.344	0.00626	0.00013
343.15	5.008	0.01109	0.00027
343.15	7.823	0.01829	0.00044
343.15	10.607	0.02201	0.00055
343.15	13.403	0.02308	0.00058
343.15	15.261	0.02301	0.00058
343.15	19.206	0.02222	0.00056
343.15	30.009	0.01813	0.00045
343.15	63.476	0.01183	0.0003
343.15	159.133	0.00816	0.00022
353.15	0	0.00035	2e-05
353.15	0.374	0.00061	4e-05
353.15	1.114	0.00124	6e-05
353.15	2.224	0.00272	0.00018
353.15	3.344	0.00445	0.00011
353.15	5.008	0.00732	0.00018
353.15	7.823	0.01122	0.00028
353.15	10.607	0.01314	0.00031
353.15	13.403	0.01367	0.00034
353.15	15.261	0.01363	0.00034
353.15	19.206	0.01325	0.00034
353.15	30.009	0.0112	0.00027
353.15	63.476	0.00787	0.0002
353.15	159.133	0.0058	0.00015
363.15	0	0.00031	2e-05
363.15	1.114	0.001	6e-05
363.15	2.224	0.00209	6e-05
363.15	3.344	0.00327	7e-05
363.15	5.008	0.00505	0.00011
363.15	7.823	0.00734	0.00018
363.15	10.607	0.00841	0.00021
363.15	15.261	0.00867	0.00022
363.15	19.206	0.0085	0.00022
363.15	30.009	0.00742	0.00018
363.15	63.476	0.00555	0.00015
363.15	159.133	0.00431	0.0001

System: N-methyldiethanolamine + piperazine; phases: Liquid
Fixed: Mass fraction of N-methyldiethanolamine = 0.874
Fixed: Pressure, kPa = 97.7
Property: Mass density, kg/m3 (Liquid); method: Vibrating tube method
Temperature, K	Mass density, kg/m3	uncertainty
293.15	1036	3
303.15	1029	3
313.15	1021	3
323.15	1014	3
333.15	1006	3
343.15	999	3
353.15	991	3
363.15	983	3

System: N-methyldiethanolamine + piperazine; phases: Liquid
Fixed: Mass fraction of N-methyldiethanolamine = 0.874
Fixed: Pressure, kPa = 97.7
Property: Viscosity, Pa*s (Liquid); method: Concentric cylinders viscometry
Temperature, K	Viscosity, Pa*s	uncertainty
293.15	0.15046	0.00434
303.15	0.07946	0.00229
313.15	0.04507	0.00134
323.15	0.02724	0.00081
333.15	0.01741	0.00054
343.15	0.01168	0.0004
353.15	0.00818	0.00027
363.15	0.00593	0.0002

System: N-methyldiethanolamine + piperazine + water; phases: Liquid
Fixed: Molality, mol/kg of N-methyldiethanolamine = 4.912
Fixed: Molality, mol/kg of piperazine = 1.022
Fixed: Pressure, kPa = 97.7
Property: Mass density, kg/m3 (Liquid); method: Vibrating tube method
Temperature, K	Mass density, kg/m3	uncertainty
293.15	1037	2
303.15	1032	2
313.15	1026	2
323.15	1019	2
333.15	1013	2
343.15	1006	2
353.15	998	2

System: N-methyldiethanolamine + piperazine + water; phases: Liquid
Fixed: Molality, mol/kg of N-methyldiethanolamine = 4.912
Fixed: Molality, mol/kg of piperazine = 1.022
Fixed: Pressure, kPa = 97.7
Property: Viscosity, Pa*s (Liquid); method: Concentric cylinders viscometry
Temperature, K	Viscosity, Pa*s	uncertainty
293.15	0.00737	0.00015
303.15	0.00492	0.00015
313.15	0.00347	0.0001
323.15	0.00256	8e-05
333.15	0.00196	8e-05
343.15	0.00154	6e-05
353.15	0.00124	4e-05
