Measured thermophysical data. Probe of Interactions of Acetic and Propionic Acids with 2',3'-N-Epoxypropyl-N-methyl-2-oxopyrrolidinium Salicylate Ionic Liquid
Source: J. Chem. Eng. Data, 2019, 10.1021/acs.jced.8b01204
Compound 1: 1-methyl-1-(oxiran-2-ylmethyl)-2-oxopyrrolidinium salicylate, C15H19NO5, InChI=1S/C8H14NO2.C7H6O3/c1-9(5-7-6-11-7)4-2-3-8(9)10;8-6-4-2-1-3-5(6)7(9)10/h7H,2-6H2,1H3;1-4,8H,(H,9,10)/q+1;/p-1, purity 98%
Compound 2: acetic acid, C2H4O2, InChI=1S/C2H4O2/c1-2(3)4/h1H3,(H,3,4), purity 99%
Compound 3: propanoic acid, C3H6O2, InChI=1S/C3H6O2/c1-2-3(4)5/h2H2,1H3,(H,4,5), purity 99%

System: 1-methyl-1-(oxiran-2-ylmethyl)-2-oxopyrrolidinium salicylate; phases: Liquid
Fixed: Pressure, kPa = 101
Property: Mass density, kg/m3 (Liquid); method: Vibrating tube method
Temperature, K	Mass density, kg/m3	uncertainty
293.15	1209.8	3.2
298.15	1205.5	3.2
303.15	1201.3	3.2
308.15	1197.2	3.2
313.15	1193	3.2

System: 1-methyl-1-(oxiran-2-ylmethyl)-2-oxopyrrolidinium salicylate; phases: Liquid
Fixed: Pressure, kPa = 101
Property: Speed of sound, m/s (Liquid); method: Single path-length method
Temperature, K	Speed of sound, m/s	uncertainty
293.15	1634.23	6.34
298.15	1614.45	6.34
303.15	1595.74	6.34
308.15	1577.58	6.33
313.15	1559.52	6.33

System: acetic acid; phases: Liquid
Fixed: Pressure, kPa = 101
Property: Mass density, kg/m3 (Liquid); method: Vibrating tube method
Temperature, K	Mass density, kg/m3	uncertainty
293.15	1052.5	3
298.15	1046.9	3
303.15	1041.4	3
308.15	1035.8	3
313.15	1030	3

System: acetic acid; phases: Liquid
Fixed: Pressure, kPa = 101
Property: Speed of sound, m/s (Liquid); method: Single path-length method
Temperature, K	Speed of sound, m/s	uncertainty
293.15	1159.31	6.09
298.15	1142.78	6.09
303.15	1126.27	6.09
308.15	1109.56	6.09
313.15	1094.85	6.09

System: propanoic acid; phases: Liquid
Fixed: Pressure, kPa = 101
Property: Mass density, kg/m3 (Liquid); method: Vibrating tube method
Temperature, K	Mass density, kg/m3	uncertainty
293.15	993.8	3
298.15	988.4	3
303.15	983	3
308.15	977.6	3
313.15	972.2	3

System: propanoic acid; phases: Liquid
Fixed: Pressure, kPa = 101
Property: Speed of sound, m/s (Liquid); method: Single path-length method
Temperature, K	Speed of sound, m/s	uncertainty
293.15	1166.35	6.09
298.15	1148.13	6.09
303.15	1129.7	6.09
308.15	1111.29	6.09
313.15	1092.8	6.1

System: 1-methyl-1-(oxiran-2-ylmethyl)-2-oxopyrrolidinium salicylate + acetic acid; phases: Liquid
Fixed: Pressure, kPa = 101
Property: Mass density, kg/m3 (Liquid); method: Vibrating tube method
Temperature, K	Mole fraction of 1-methyl-1-(oxiran-2-ylmethyl)-2-oxopyrrolidinium salicylate	Mass density, kg/m3	uncertainty
293.15	0	1052.5	3
293.15	0.0301	1080.9	3
293.15	0.0701	1103.7	3
293.15	0.1001	1117.2	3
293.15	0.2001	1147.6	3
293.15	0.3003	1166.3	3
293.15	0.4013	1178.7	3.1
293.15	0.5017	1187.3	3.1
293.15	0.6002	1193.9	3.1
293.15	0.7019	1199.1	3.1
293.15	0.8024	1203.6	3.2
293.15	0.901	1207	3.2
293.15	1	1209.8	3.2
298.15	0	1046.9	3
298.15	0.0301	1075.6	3
298.15	0.0701	1098.6	3
298.15	0.1001	1112.3	3
298.15	0.2001	1143	3
298.15	0.3003	1161.7	3
298.15	0.4013	1174.2	3.1
298.15	0.5017	1183	3.1
298.15	0.6002	1189.6	3.1
298.15	0.7019	1194.9	3.1
298.15	0.8024	1199.3	3.1
298.15	0.901	1202.7	3.2
298.15	1	1205.5	3.2
303.15	0	1041.4	3
303.15	0.0301	1070.3	3
303.15	0.0701	1093.5	3
303.15	0.1001	1107.3	3
303.15	0.2001	1138.3	3
303.15	0.3003	1157.2	3
303.15	0.4013	1169.7	3.1
303.15	0.5017	1178.7	3.1
303.15	0.6002	1185.4	3.1
303.15	0.7019	1190.7	3.1
303.15	0.8024	1195.1	3.1
303.15	0.901	1198.6	3.2
303.15	1	1201.3	3.2
308.15	0	1035.8	3
308.15	0.0301	1065	3
308.15	0.0701	1088.4	3
308.15	0.1001	1102.4	3
308.15	0.2001	1133.6	3
308.15	0.3003	1152.7	3
308.15	0.4013	1165.5	3.1
308.15	0.5017	1174.5	3.1
308.15	0.6002	1181.3	3.1
308.15	0.7019	1186.7	3.1
308.15	0.8024	1191	3.1
308.15	0.901	1194.5	3.2
308.15	1	1197.2	3.2
313.15	0	1030	3
313.15	0.0301	1059.7	3
313.15	0.0701	1083.3	3
313.15	0.1001	1097.4	3
313.15	0.2001	1128.8	3
313.15	0.3003	1148.9	3
313.15	0.4013	1161	3.1
313.15	0.5017	1170.1	3.1
313.15	0.6002	1177	3.1
313.15	0.7019	1182.5	3.1
313.15	0.8024	1186.7	3.1
313.15	0.901	1190.2	3.2
313.15	1	1193	3.2

System: 1-methyl-1-(oxiran-2-ylmethyl)-2-oxopyrrolidinium salicylate + acetic acid; phases: Liquid
Fixed: Pressure, kPa = 101
Property: Speed of sound, m/s (Liquid); method: Single path-length method
Temperature, K	Mole fraction of 1-methyl-1-(oxiran-2-ylmethyl)-2-oxopyrrolidinium salicylate	Speed of sound, m/s	uncertainty
293.15	0	1159.31	6.09
293.15	0.0301	1249.97	6.09
293.15	0.0701	1310.72	6.1
293.15	0.1001	1349.65	6.1
293.15	0.2001	1441.02	6.12
293.15	0.3003	1496.69	6.14
293.15	0.4013	1535.05	6.17
293.15	0.5017	1561.36	6.2
293.15	0.6002	1582.19	6.22
293.15	0.7019	1599.97	6.25
293.15	0.8024	1617.35	6.27
293.15	0.901	1626.79	6.3
293.15	1	1634.23	6.34
298.15	0	1142.78	6.09
298.15	0.0301	1232.74	6.1
298.15	0.0701	1294.03	6.1
298.15	0.1001	1333.15	6.11
298.15	0.2001	1424.62	6.13
298.15	0.3003	1480.21	6.15
298.15	0.4013	1515.76	6.17
298.15	0.5017	1541.79	6.2
298.15	0.6002	1562.55	6.22
298.15	0.7019	1581.98	6.25
298.15	0.8024	1599.97	6.27
298.15	0.901	1609.25	6.3
298.15	1	1614.45	6.34
303.15	0	1126.27	6.09
303.15	0.0301	1215.52	6.1
303.15	0.0701	1277.27	6.1
303.15	0.1001	1316.54	6.11
303.15	0.2001	1408.13	6.13
303.15	0.3003	1463.7	6.15
303.15	0.4013	1497.41	6.17
303.15	0.5017	1523.2	6.2
303.15	0.6002	1542.92	6.22
303.15	0.7019	1565.21	6.25
303.15	0.8024	1583	6.27
303.15	0.901	1592.25	6.3
303.15	1	1595.74	6.34
308.15	0	1109.56	6.09
308.15	0.0301	1198.57	6.1
308.15	0.0701	1260.74	6.1
308.15	0.1001	1300.11	6.11
308.15	0.2001	1391.81	6.13
308.15	0.3003	1447.47	6.15
308.15	0.4013	1480.22	6.17
308.15	0.5017	1504.89	6.2
308.15	0.6002	1528.53	6.22
308.15	0.7019	1548.76	6.25
308.15	0.8024	1566.53	6.27
308.15	0.901	1575.68	6.3
308.15	1	1577.58	6.33
313.15	0	1094.85	6.09
313.15	0.0301	1181.84	6.12
313.15	0.0701	1244.42	6.11
313.15	0.1001	1283.9	6.12
313.15	0.2001	1375.69	6.15
313.15	0.3003	1431.01	6.16
313.15	0.4013	1463.07	6.17
313.15	0.5017	1488.82	6.19
313.15	0.6002	1515.38	6.22
313.15	0.7019	1532.63	6.25
313.15	0.8024	1550.38	6.28
313.15	0.901	1559.5	6.31
313.15	1	1559.52	6.33

System: 1-methyl-1-(oxiran-2-ylmethyl)-2-oxopyrrolidinium salicylate + propanoic acid; phases: Liquid
Fixed: Pressure, kPa = 101
Property: Mass density, kg/m3 (Liquid); method: Vibrating tube method
Temperature, K	Mole fraction of 1-methyl-1-(oxiran-2-ylmethyl)-2-oxopyrrolidinium salicylate	Mass density, kg/m3	uncertainty
293.15	0	993.8	3
293.15	0.0303	1018.7	3
293.15	0.0701	1046.2	3
293.15	0.1006	1063.4	3
293.15	0.2	1105.7	3
293.15	0.3007	1133.9	3
293.15	0.4009	1153.6	3.1
293.15	0.501	1168.6	3.1
293.15	0.6002	1180.6	3.1
293.15	0.7002	1190.5	3.1
293.15	0.8005	1198.3	3.1
293.15	0.901	1204.6	3.2
293.15	1	1209.8	3.2
298.15	0	988.4	3
298.15	0.0303	1013.6	3
298.15	0.0701	1041.2	3
298.15	0.1006	1058.6	3
298.15	0.2	1101.9	3
298.15	0.3007	1129.4	3
298.15	0.4009	1149.2	3.1
298.15	0.501	1164.2	3.1
298.15	0.6002	1176.3	3.1
298.15	0.7002	1186.2	3.1
298.15	0.8005	1194.1	3.1
298.15	0.901	1200.4	3.2
298.15	1	1205.5	3.2
303.15	0	983	3
303.15	0.0303	1008.2	3
303.15	0.0701	1036.2	3
303.15	0.1006	1053.7	3
303.15	0.2	1096.5	3
303.15	0.3007	1124.9	3
303.15	0.4009	1144.8	3.1
303.15	0.501	1159.8	3.1
303.15	0.6002	1172	3.1
303.15	0.7002	1181.9	3.1
303.15	0.8005	1189.8	3.1
303.15	0.901	1196.1	3.2
303.15	1	1201.3	3.2
308.15	0	977.6	3
308.15	0.0303	1003.2	3
308.15	0.0701	1031.3	3
308.15	0.1006	1048.9	3
308.15	0.2	1091.8	3
308.15	0.3007	1120.4	3
308.15	0.4009	1140.3	3.1
308.15	0.501	1155.4	3.1
308.15	0.6002	1167.6	3.1
308.15	0.7002	1177.6	3.1
308.15	0.8005	1185.5	3.1
308.15	0.901	1191.8	3.2
308.15	1	1197.2	3.2
313.15	0	972.2	3
313.15	0.0303	998	3
313.15	0.0701	1026.3	3
313.15	0.1006	1044	3
313.15	0.2	1087.2	3
313.15	0.3007	1115.9	3
313.15	0.4009	1135.9	3
313.15	0.501	1151	3.1
313.15	0.6002	1163.3	3.1
313.15	0.7002	1173.3	3.1
313.15	0.8005	1181.2	3.1
313.15	0.901	1187.5	3.2
313.15	1	1193	3.2

System: 1-methyl-1-(oxiran-2-ylmethyl)-2-oxopyrrolidinium salicylate + propanoic acid; phases: Liquid
Fixed: Pressure, kPa = 101
Property: Speed of sound, m/s (Liquid); method: Single path-length method
Temperature, K	Mole fraction of 1-methyl-1-(oxiran-2-ylmethyl)-2-oxopyrrolidinium salicylate	Speed of sound, m/s	uncertainty
293.15	0	1166.35	6.09
293.15	0.0303	1211.89	6.1
293.15	0.0701	1266.69	6.1
293.15	0.1006	1303.51	6.11
293.15	0.2	1400.32	6.12
293.15	0.3007	1465.81	6.14
293.15	0.4009	1505.74	6.17
293.15	0.501	1538.85	6.19
293.15	0.6002	1565.39	6.22
293.15	0.7002	1584.49	6.25
293.15	0.8005	1599.72	6.27
293.15	0.901	1615.39	6.31
293.15	1	1634.23	6.34
298.15	0	1148.13	6.09
298.15	0.0303	1193.4	6.1
298.15	0.0701	1248.69	6.11
298.15	0.1006	1286.04	6.11
298.15	0.2	1383.27	6.13
298.15	0.3007	1448.95	6.15
298.15	0.4009	1488.91	6.17
298.15	0.501	1521.86	6.2
298.15	0.6002	1547.77	6.22
298.15	0.7002	1566.76	6.25
298.15	0.8005	1581.66	6.27
298.15	0.901	1596.41	6.3
298.15	1	1614.45	6.34
303.15	0	1129.7	6.09
303.15	0.0303	1175	6.1
303.15	0.0701	1230.82	6.11
303.15	0.1006	1268.48	6.11
303.15	0.2	1366.14	6.13
303.15	0.3007	1432.01	6.15
303.15	0.4009	1472.04	6.17
303.15	0.501	1504.95	6.2
303.15	0.6002	1530.94	6.22
303.15	0.7002	1549.51	6.25
303.15	0.8005	1564.16	6.27
303.15	0.901	1578.57	6.3
303.15	1	1595.74	6.34
308.15	0	1111.29	6.09
308.15	0.0303	1156.83	6.1
308.15	0.0701	1213.19	6.11
308.15	0.1006	1251.11	6.11
308.15	0.2	1349.2	6.13
308.15	0.3007	1415.27	6.15
308.15	0.4009	1455.41	6.17
308.15	0.501	1488.36	6.2
308.15	0.6002	1514.29	6.22
308.15	0.7002	1532.71	6.25
308.15	0.8005	1547.26	6.27
308.15	0.901	1561.46	6.3
308.15	1	1577.58	6.33
313.15	0	1092.8	6.1
313.15	0.0303	1138.91	6.1
313.15	0.0701	1195.81	6.11
313.15	0.1006	1233.65	6.12
313.15	0.2	1332.5	6.15
313.15	0.3007	1398.73	6.16
313.15	0.4009	1438.98	6.17
313.15	0.501	1472	6.2
313.15	0.6002	1497.93	6.22
313.15	0.7002	1516.33	6.25
313.15	0.8005	1530.79	6.27
313.15	0.901	1544.9	6.3
313.15	1	1559.52	6.33
