Measured thermophysical data. Measurement and Correlation of Curcumin Solubility in Supercritical Carbon Dioxide
Source: J. Chem. Eng. Data, 2017, 10.1021/acs.jced.6b00798
Compound 1: carbon dioxide, CO2, InChI=1S/CO2/c2-1-3, purity 99.9%
Compound 2: ethanol, C2H6O, InChI=1S/C2H6O/c1-2-3/h3H,2H2,1H3, purity 99.8%
Compound 3: curcumin, C21H20O6, InChI=1S/C21H20O6/c1-26-20-11-14(5-9-18(20)24)3-7-16(22)13-17(23)8-4-15-6-10-19(25)21(12-15)27-2/h3-12,24-25H,13H2,1-2H3/b7-3+,8-4+, purity 98%

System: carbon dioxide + curcumin; phases: Fluid (supercritical or subcritical phases), Crystal
Property: Mole fraction of curcumin (Fluid (supercritical or subcritical phases)); method: spectroscopy
Temperature, K	Pressure, kPa	Mole fraction of curcumin	uncertainty
308.15	8000	2.07e-08	2.1e-09
308.15	10000	2.51e-08	2.5e-09
308.15	13000	2.68e-08	2.7e-09
308.15	16000	2.85e-08	2.9e-09
308.15	20000	3.11e-08	3.1e-09
318.15	8000	1.82e-08	1.9e-09
318.15	10000	2.31e-08	2.3e-09
318.15	13000	2.69e-08	2.7e-09
318.15	16000	3.12e-08	3.1e-09
318.15	20000	3.52e-08	3.5e-09
328.15	8000	1.86e-08	1.9e-09
328.15	10000	2.03e-08	2.1e-09
328.15	13000	2.62e-08	2.7e-09
328.15	16000	3.25e-08	3.3e-09
328.15	20000	3.7e-08	3.7e-09

System: ethanol + carbon dioxide + curcumin; phases: Fluid (supercritical or subcritical phases), Crystal
Fixed: Temperature, K = 318.15
Property: Mole fraction of curcumin (Fluid (supercritical or subcritical phases)); method: Spectroscopy
Pressure, kPa	Solvent: Mole fraction of ethanol	Mole fraction of curcumin	uncertainty
8000	0.01	4.8e-07	5e-08
10000	0.01	5.3e-07	5e-08
13000	0.01	5.4e-07	5e-08
16000	0.01	5.7e-07	6e-08
8000	0.03	8.7e-07	9e-08
10000	0.03	1.08e-06	1.1e-07
13000	0.03	1.28e-06	1.3e-07
16000	0.03	1.61e-06	1.6e-07
8000	0.05	1.24e-06	1.2e-07
10000	0.05	1.35e-06	1.4e-07
13000	0.05	1.57e-06	1.6e-07
16000	0.05	1.97e-06	2e-07
8000	0	1.82e-08	1.9e-09
10000	0	2.31e-08	2.3e-09
13000	0	2.69e-08	2.7e-09
16000	0	3.12e-08	3.1e-09
20000	0	3.52e-08	3.5e-09
