Measured thermophysical data. Molar Heat Capacity of Selected Type III Deep Eutectic Solvents
Source: J. Chem. Eng. Data, 2016, 10.1021/acs.jced.5b00989
Compound 1: choline chloride, C5H14ClNO, InChI=1S/C5H14NO.ClH/c1-6(2,3)4-5-7;/h7H,4-5H2,1-3H3;1H/q+1;/p-1, purity 98%
Compound 2: tetrabutylammonium chloride, C16H36ClN, InChI=1S/C16H36N.ClH/c1-5-9-13-17(14-10-6-2,15-11-7-3)16-12-8-4;/h5-16H2,1-4H3;1H/q+1;/p-1, purity 98%
Compound 3: methyltriphenylphosphonium bromide, C19H18BrP, InChI=1S/C19H18P.BrH/c1-20(17-11-5-2-6-12-17,18-13-7-3-8-14-18)19-15-9-4-10-16-19;/h2-16H,1H3;1H/q+1;/p-1, purity 98%
Compound 4: triethylene glycol, C6H14O4, InChI=1S/C6H14O4/c7-1-3-9-5-6-10-4-2-8/h7-8H,1-6H2, purity 99%
Compound 5: D-fructose, C6H12O6, InChI=1S/C6H12O6/c7-1-3(9)5(11)6(12)4(10)2-8/h3,5-9,11-12H,1-2H2/t3-,5-,6-/m1/s1, purity 98%
Compound 6: D-glucose, C6H12O6, InChI=1S/C6H12O6/c7-1-3(9)5(11)6(12)4(10)2-8/h1,3-6,8-12H,2H2/t3-,4+,5+,6+/m0/s1, purity 98%
Compound 7: propanedioic acid, C3H4O4, InChI=1S/C3H4O4/c4-2(5)1-3(6)7/h1H2,(H,4,5)(H,6,7), purity 99%
Compound 8: citric acid, C6H8O7, InChI=1S/C6H8O7/c7-3(8)1-6(13,5(11)12)2-4(9)10/h13H,1-2H2,(H,7,8)(H,9,10)(H,11,12), purity 99%
Compound 9: ethanedioic acid, C2H2O4, InChI=1S/C2H2O4/c3-1(4)2(5)6/h(H,3,4)(H,5,6), purity 99%
Compound 10: phenol, C6H6O, InChI=1S/C6H6O/c7-6-4-2-1-3-5-6/h1-5,7H, purity 99%
Compound 11: glycerol, C3H8O3, InChI=1S/C3H8O3/c4-1-3(6)2-5/h3-6H,1-2H2, purity 99%
Compound 12: urea, CH4N2O, InChI=1S/CH4N2O/c2-1(3)4/h(H4,2,3,4), purity 99%
Compound 13: 1,2-ethanediol, C2H6O2, InChI=1S/C2H6O2/c3-1-2-4/h3-4H,1-2H2, purity 99%

System: choline chloride + triethylene glycol; phases: Liquid
Fixed: Pressure, kPa = 100
Fixed: Mole fraction of choline chloride = 0.33
Property: Molar heat capacity at constant pressure, J/K/mol (Liquid); method: Small sample (50 mg) DSC
Temperature, K	Molar heat capacity at constant pressure, J/K/mol	uncertainty
298.15	299	7.3
300.65	300.3	7.4
303.15	301.5	7.4
305.65	302.8	7.4
308.15	303.7	7.4
310.65	304.5	7.5
313.15	304.7	7.5
315.65	304.6	7.5
318.15	304.6	7.5
320.65	304.3	7.5
323.15	304.3	7.5
325.65	304.9	7.5
328.15	305.8	7.5
330.65	306.7	7.5
333.15	307.4	7.5
335.65	308.6	7.6
338.15	309.4	7.6
340.65	309.9	7.6
343.15	310	7.6
345.65	311.8	7.6
348.15	312.2	7.6
350.65	312.4	7.7
353.15	314.6	7.7

System: D-fructose + choline chloride; phases: Liquid
Fixed: Pressure, kPa = 100
Fixed: Mole fraction of choline chloride = 0.67
Property: Molar heat capacity at constant pressure, J/K/mol (Liquid); method: Small sample (50 mg) DSC
Temperature, K	Molar heat capacity at constant pressure, J/K/mol	uncertainty
298.15	311.5	7.6
300.65	313.8	7.7
303.15	316.7	7.8
305.65	319.4	7.8
308.15	322	7.9
310.65	324.2	7.9
313.15	326.2	8
315.65	328.3	8
318.15	330.5	8.1
320.65	332.6	8.2
323.15	334.1	8.2
325.65	334.9	8.2
328.15	335.8	8.2
330.65	336.1	8.2
333.15	335.8	8.2
335.65	335.7	8.2
338.15	335.2	8.2
340.65	334.7	8.2
343.15	335.2	8.2
345.65	335.8	8.2
348.15	336.6	8.2
350.65	337.7	8.3
353.15	340.1	8.3

System: D-glucose + choline chloride; phases: Liquid
Fixed: Pressure, kPa = 100
Fixed: Mole fraction of choline chloride = 0.67
Property: Molar heat capacity at constant pressure, J/K/mol (Liquid); method: Small sample (50 mg) DSC
Temperature, K	Molar heat capacity at constant pressure, J/K/mol	uncertainty
298.15	327.5	8
300.65	329.1	8.1
303.15	330.7	8.1
305.65	332.4	8.1
308.15	334.5	8.2
310.65	336.7	8.3
313.15	338.6	8.3
315.65	340.6	8.3
318.15	342.5	8.4
320.65	344.5	8.4
323.15	346	8.5
325.65	347.2	8.5
328.15	348.4	8.5
330.65	349.5	8.6
333.15	350.6	8.6
335.65	350.9	8.6
338.15	351.4	8.6
340.65	352	8.6
343.15	352.6	8.6
345.65	353.8	8.7
348.15	354.2	8.7
350.65	354.4	8.7
353.15	356.3	8.7

System: choline chloride + propanedioic acid; phases: Liquid
Fixed: Pressure, kPa = 100
Fixed: Mole fraction of choline chloride = 0.5
Property: Molar heat capacity at constant pressure, J/K/mol (Liquid); method: Small sample (50 mg) DSC
Temperature, K	Molar heat capacity at constant pressure, J/K/mol	uncertainty
298.15	226.9	5.6
300.65	227.6	5.6
303.15	228.3	5.6
305.65	228.8	5.6
308.15	229.4	5.6
310.65	230.2	5.6
313.15	230.6	5.6
315.65	231.1	5.7
318.15	231.7	5.7
320.65	232.3	5.7
323.15	232.7	5.7
325.65	233.2	5.7
328.15	233.8	5.7
330.65	234.3	5.7
333.15	234.9	5.8
335.65	235.8	5.8
338.15	237	5.8
340.65	238	5.8
343.15	238.4	5.8
345.65	238.9	5.9
348.15	239.5	5.9
350.65	239.9	5.9
353.15	240.8	5.9

System: choline chloride + citric acid; phases: Liquid
Fixed: Pressure, kPa = 100
Fixed: Mole fraction of choline chloride = 0.33
Property: Molar heat capacity at constant pressure, J/K/mol (Liquid); method: Small sample (50 mg) DSC
Temperature, K	Molar heat capacity at constant pressure, J/K/mol	uncertainty
298.15	422	10.3
300.65	422.9	10.4
303.15	424	10.4
305.65	425.2	10.4
308.15	426.1	10.4
310.65	427.2	10.5
313.15	428.7	10.5
315.65	429.8	10.5
318.15	430.6	10.5
320.65	431.9	10.6
323.15	433	10.6
325.65	433.5	10.6
328.15	435.4	10.7
330.65	436.7	10.7
333.15	437.5	10.7
335.65	438.6	10.7
338.15	439.7	10.8
340.65	440.6	10.8
343.15	442.1	10.8
345.65	446.1	10.9
348.15	447.2	11
350.65	446.8	10.9
353.15	449.4	11

System: choline chloride + ethanedioic acid; phases: Liquid
Fixed: Pressure, kPa = 100
Fixed: Mole fraction of choline chloride = 0.33
Property: Molar heat capacity at constant pressure, J/K/mol (Liquid); method: Small sample (50 mg) DSC
Temperature, K	Molar heat capacity at constant pressure, J/K/mol	uncertainty
298.15	270.8	6.6
300.65	271.8	6.7
303.15	272.1	6.7
305.65	272.7	6.7
308.15	273.6	6.7
310.65	274.6	6.7
313.15	275.4	6.7
315.65	276.3	6.8
318.15	276.8	6.8
320.65	277	6.8
323.15	277.1	6.8
325.65	277.4	6.8
328.15	277.8	6.8
330.65	278.3	6.8
333.15	278.7	6.8
335.65	279.6	6.8
338.15	280	6.9
340.65	280.6	6.9
343.15	281.2	6.9
345.65	281.7	6.9
348.15	281.9	6.9
350.65	282.2	6.9
353.15	282.9	6.9

System: choline chloride + phenol; phases: Liquid
Fixed: Pressure, kPa = 100
Fixed: Mole fraction of choline chloride = 0.25
Property: Molar heat capacity at constant pressure, J/K/mol (Liquid); method: Small sample (50 mg) DSC
Temperature, K	Molar heat capacity at constant pressure, J/K/mol	uncertainty
298.15	219.3	5.4
300.65	220.3	5.4
303.15	221.2	5.4
305.65	222.3	5.4
308.15	223.3	5.5
310.65	224.2	5.5
313.15	225.1	5.5
315.65	225.8	5.5
318.15	226.6	5.6
320.65	227.1	5.6
323.15	227.9	5.6
325.65	228.6	5.6
328.15	229.3	5.6
330.65	230.2	5.6
333.15	231.1	5.7
335.65	231.9	5.7
338.15	232.6	5.7
340.65	233.1	5.7
343.15	233.5	5.7
345.65	234.3	5.7
348.15	234.5	5.7
350.65	235	5.8
353.15	236.8	5.8

System: glycerol + tetrabutylammonium chloride; phases: Liquid
Fixed: Pressure, kPa = 100
Fixed: Mole fraction of tetrabutylammonium chloride = 0.17
Property: Molar heat capacity at constant pressure, J/K/mol (Liquid); method: Small sample (50 mg) DSC
Temperature, K	Molar heat capacity at constant pressure, J/K/mol	uncertainty
298.2	281.2	6.9
300.7	282.5	6.9
303.2	283.9	7
305.7	285.4	7
308.2	286.9	7
310.7	288.1	7.1
313.2	289.4	7.1
315.7	290.7	7.1
318.2	292	7.2
320.7	293.4	7.2
323.2	294.5	7.2
325.7	296.1	7.3
328.2	297.4	7.3
330.7	298.9	7.3
333.2	300.4	7.4
335.7	301.9	7.4
338.2	303.2	7.4
340.7	304.6	7.5
343.2	305.7	7.5
345.7	306.9	7.5
348.2	307.8	7.5
350.7	308.6	7.6
353.2	310.9	7.6

System: urea + tetrabutylammonium chloride; phases: Liquid
Fixed: Pressure, kPa = 100
Fixed: Mole fraction of tetrabutylammonium chloride = 0.8
Property: Molar heat capacity at constant pressure, J/K/mol (Liquid); method: Small sample (50 mg) DSC
Temperature, K	Molar heat capacity at constant pressure, J/K/mol	uncertainty
308.2	590	14.5
310.7	593	14.5
313.2	598	14.7
315.7	601.2	14.7
318.2	602.6	14.8
320.7	600.6	14.7
323.2	601.5	14.7
325.7	602.9	14.8
328.2	601.7	14.7
330.7	603	14.8
333.2	604.9	14.8
335.7	605.1	14.8
338.2	603.2	14.8
340.7	604	14.8
343.2	604.4	14.8
345.7	605.2	14.8
348.2	604.8	14.8
350.7	605.4	14.8
353.2	605.9	14.8

System: 1,2-ethanediol + tetrabutylammonium chloride; phases: Liquid
Fixed: Pressure, kPa = 100
Fixed: Mole fraction of tetrabutylammonium chloride = 0.25
Property: Molar heat capacity at constant pressure, J/K/mol (Liquid); method: Small sample (50 mg) DSC
Temperature, K	Molar heat capacity at constant pressure, J/K/mol	uncertainty
298.2	288.3	7.1
300.7	289.6	7.1
303.2	291	7.1
305.7	292.2	7.2
308.2	293.2	7.2
310.7	294.5	7.2
313.2	295.8	7.2
315.7	296.8	7.3
318.2	297.9	7.3
320.7	299.5	7.3
323.2	300.5	7.4
325.7	301.2	7.4
328.2	302.4	7.4
330.7	303.5	7.4
333.2	304.8	7.5
335.7	305.9	7.5
338.2	306.9	7.5
340.7	307.7	7.5
343.2	308.5	7.6
345.7	309.1	7.6
348.2	309.6	7.6
350.7	310.6	7.6
353.2	312.6	7.7

System: propanedioic acid + tetrabutylammonium chloride; phases: Liquid
Fixed: Pressure, kPa = 100
Fixed: Mole fraction of tetrabutylammonium chloride = 0.25
Property: Molar heat capacity at constant pressure, J/K/mol (Liquid); method: Small sample (50 mg) DSC
Temperature, K	Molar heat capacity at constant pressure, J/K/mol	uncertainty
298.2	299.8	7.4
300.7	302.6	7.4
303.2	305.7	7.5
305.7	309.4	7.6
308.2	313.3	7.7
310.7	316.9	7.8
313.2	320.6	7.9
315.7	323.7	7.9
318.2	324.9	8
320.7	328.8	8.1
323.2	333.3	8.2
325.7	335.9	8.2
328.2	337.5	8.3
330.7	339.2	8.3
333.2	339.5	8.3
335.7	340	8.3
338.2	340.2	8.3
340.7	340.6	8.3
343.2	341.1	8.4
345.7	341.2	8.4
348.2	341.7	8.4
350.7	342	8.4
353.2	342.8	8.4

System: triethylene glycol + tetrabutylammonium chloride; phases: Liquid
Fixed: Pressure, kPa = 100
Fixed: Mole fraction of tetrabutylammonium chloride = 0.5
Property: Molar heat capacity at constant pressure, J/K/mol (Liquid); method: Small sample (50 mg) DSC
Temperature, K	Molar heat capacity at constant pressure, J/K/mol	uncertainty
298.2	445	10.9
300.7	447.8	11
303.2	448.9	11
305.7	450.6	11
308.2	452.3	11.1
310.7	454.2	11.1
313.2	456.1	11.2
315.7	457.4	11.2
318.2	458.7	11.2
320.7	460.2	11.3
323.2	461.9	11.3
325.7	463	11.3
328.2	464.5	11.4
330.7	466.2	11.4
333.2	467.7	11.5
335.7	469.2	11.5
338.2	471.1	11.5
340.7	472.6	11.6
343.2	473.7	11.6
345.7	475.2	11.6
348.2	475.6	11.7
350.7	476	11.7
353.2	479.7	11.8

System: propanedioic acid + methyltriphenylphosphonium bromide; phases: Liquid
Fixed: Pressure, kPa = 100
Fixed: Mole fraction of methyltriphenylphosphonium bromide = 0.4
Property: Molar heat capacity at constant pressure, J/K/mol (Liquid); method: Small sample (50 mg) DSC
Temperature, K	Molar heat capacity at constant pressure, J/K/mol	uncertainty
298.15	336.9	8.3
300.65	338	8.3
303.15	339.2	8.3
305.65	340	8.3
308.15	341	8.4
310.65	342.1	8.4
313.15	343.1	8.4
315.65	343.9	8.4
318.15	345.2	8.5
320.65	346	8.5
323.15	346.6	8.5
325.65	347.4	8.5
328.15	348.4	8.5
330.65	350.1	8.6
333.15	350.3	8.6
335.65	350.7	8.6
338.15	351.3	8.6
340.65	351.5	8.6
343.15	351.9	8.6
345.65	352.1	8.6
348.15	352.5	8.6
350.65	354	8.7
353.15	354.2	8.7

System: glycerol + methyltriphenylphosphonium bromide; phases: Liquid
Fixed: Pressure, kPa = 100
Fixed: Mole fraction of methyltriphenylphosphonium bromide = 0.25
Property: Molar heat capacity at constant pressure, J/K/mol (Liquid); method: Small sample (50 mg) DSC
Temperature, K	Molar heat capacity at constant pressure, J/K/mol	uncertainty
298.15	328.5	8
300.65	329.6	8.1
303.15	330.5	8.1
305.65	331.6	8.1
308.15	332.7	8.2
310.65	333.7	8.2
313.15	334.8	8.2
315.65	335.8	8.2
318.15	336.5	8.2
320.65	338.1	8.3
323.15	339.4	8.3
325.65	339.6	8.3
328.15	340.8	8.3
330.65	341.8	8.4
333.15	342.6	8.4
335.65	343.5	8.4
338.15	344.6	8.4
340.65	345.7	8.5
343.15	346.7	8.5
345.65	347.8	8.5
348.15	347.9	8.5
350.65	348.3	8.5
353.15	350.2	8.6

System: 1,2-ethanediol + methyltriphenylphosphonium bromide; phases: Liquid
Fixed: Pressure, kPa = 100
Fixed: Mole fraction of methyltriphenylphosphonium bromide = 0.2
Property: Molar heat capacity at constant pressure, J/K/mol (Liquid); method: Small sample (50 mg) DSC
Temperature, K	Molar heat capacity at constant pressure, J/K/mol	uncertainty
298.15	237.6	5.8
300.65	238.6	5.8
303.15	239.4	5.9
305.65	240.8	5.9
308.15	241.6	5.9
310.65	242.4	5.9
313.15	243.4	6
315.65	244.5	6
318.15	245.2	6
320.65	246.1	6
323.15	247.2	6.1
325.65	247.9	6.1
328.15	248.9	6.1
330.65	249.8	6.1
333.15	250.8	6.1
335.65	251.8	6.2
338.15	252.7	6.2
340.65	253.5	6.2
343.15	254.3	6.2
345.65	255	6.2
348.15	255.5	6.3
350.65	255	6.2
353.15	256.7	6.3
