Measured thermophysical data. Water Activity and Phase Equilibria Measurements and Model Simulation for the KCl-SrCl2-H2O System at 323.15 K
Source: J. Chem. Eng. Data, 2017, 10.1021/acs.jced.7b00492
Compound 1: water, H2O, InChI=1S/H2O/h1H2
Compound 2: strontium chloride, Cl2Sr, InChI=1S/2ClH.Sr/h2*1H;/q;;+2/p-2, purity 99.8%
Compound 3: potassium chloride, ClK, InChI=1S/ClH.K/h1H;/q;+1/p-1, purity 99.8%

System: potassium chloride + strontium chloride + water; phases: Liquid
Fixed: Pressure, kPa = 100
Fixed: Temperature, K = 323.15
Property: (Relative) activity of water (Liquid); method: ISOPIE
Molality, mol/kg of strontium chloride	Molality, mol/kg of potassium chloride	(Relative) activity of water	uncertainty
0.4652	0	0.9779	0.0387
0.4326	0.0479	0.9779	0.0387
0.3592	0.1552	0.9779	0.0387
0.2785	0.2764	0.9779	0.0387
0.1817	0.4182	0.9779	0.0387
0.0666	0.5951	0.9779	0.0387
0	0.6874	0.9779	0.0387
1.1173	0	0.9407	0.0387
1.0509	0.1164	0.9407	0.0387
0.8964	0.3872	0.9407	0.0387
0.7108	0.7053	0.9407	0.0387
0.4757	1.0947	0.9407	0.0387
0.1762	1.5752	0.9407	0.0387
0	1.8399	0.9407	0.0387
1.9953	0	0.8741	0.0387
1.8976	0.2103	0.8741	0.0387
1.6598	0.717	0.8741	0.0387
1.3558	1.3453	0.8741	0.0387
0.9366	2.155	0.8741	0.0387
0.3596	3.2153	0.8741	0.0387
0	3.8192	0.8741	0.0387
2.6931	0	0.809	0.0388
2.5773	0.2856	0.809	0.0388
2.293	0.9905	0.809	0.0387
1.9095	1.8947	0.809	0.0387
1.3483	3.1025	0.809	0.0387
0.5305	4.7432	0.809	0.0387
0	5.7038	0.809	0.0387
3.4573	0	0.7308	0.0388
3.3324	0.3692	0.7308	0.0388
3.0082	1.2994	0.7308	0.0388
4.2647	0	0.6483	0.0388
4.1312	0.4577	0.6483	0.0388

System: potassium chloride + strontium chloride + water; phases: Liquid, Crystal
Fixed: Pressure, kPa = 100
Fixed: Temperature, K = 323.15
Property: Mass fraction of strontium chloride (Liquid); method: titration and gravimetric
Mass fraction of potassium chloride	Mass fraction of strontium chloride	uncertainty
0.301	0	
0.2757	0.032	0.0015
0.1401	0.2282	0.0014
0.235	0.0879	0.0014
0.1208	0.2669	0.0016
0.1921	0.1497	0.0013
0.0934	0.3253	0.0017
0.0713	0.3925	0.002

System: potassium chloride + strontium chloride + water; phases: Liquid, Crystal of intercomponent compound 1
Fixed: Pressure, kPa = 100
Fixed: Temperature, K = 323.15
Property: Mass fraction of strontium chloride (Liquid); method: titration and gravimetric
Mass fraction of potassium chloride	Mass fraction of strontium chloride	uncertainty
0.0713	0.3925	0.0018
0.0645	0.3967	0.0018
0.0299	0.4074	0.0018
0	0.4206	0.0019

System: strontium chloride + water; phases: Liquid
Fixed: Pressure, kPa = 100
Fixed: Temperature, K = 323.15
Property: (Relative) activity of water (Liquid); method: ISOPIE
Molality, mol/kg of strontium chloride	(Relative) activity of water	uncertainty
0.4652	0.9779	0.0387
1.1173	0.9407	0.0387
1.9953	0.8741	0.0387
2.6931	0.809	0.0388
3.4573	0.7308	0.0388
4.2647	0.6483	0.0387

System: strontium chloride + water; phases: Liquid, Crystal of intercomponent compound 1
Property: Mass fraction of strontium chloride (Liquid); method: titration and gravimetric
Pressure, kPa	Temperature, K	Mass fraction of strontium chloride	uncertainty
100	323.15	0.4206	0.0019

System: potassium chloride + water; phases: Liquid
Fixed: Pressure, kPa = 100
Fixed: Temperature, K = 323.15
Property: (Relative) activity of water (Liquid); method: ISOPIE
Molality, mol/kg of potassium chloride	(Relative) activity of water	uncertainty
0.6874	0.9779	0.0387
1.8399	0.9407	0.0387
3.8192	0.8741	0.0387
5.7038	0.809	0.0387

System: potassium chloride + water; phases: Liquid, Crystal
Property: Mass fraction of potassium chloride (Liquid); method: titration and gravimetric
Pressure, kPa	Temperature, K	Mass fraction of potassium chloride	uncertainty
100	323.15	0.301	0.0014
