Measured thermophysical data. Thermodynamic Properties and Solubility of Sodium and Potassium Chloride in Ethane-1,2-diol/Water Mixed Solvent Systems to High Temperatures
Source: J. Chem. Eng. Data, 2017, 10.1021/acs.jced.6b00842
Compound 1: sodium chloride, ClNa, InChI=1S/ClH.Na/h1H;/q;+1/p-1
Compound 2: 1,2-ethanediol, C2H6O2, InChI=1S/C2H6O2/c3-1-2-4/h3-4H,1-2H2
Compound 3: water, H2O, InChI=1S/H2O/h1H2, purity 99.8%

System: 1,2-ethanediol + sodium chloride + water; phases: Liquid, Crystal
Fixed: Pressure, kPa = 6450
Property: Molality, mol/kg of sodium chloride (Liquid); method: radiotracer analysis, spectroscopy, and titration
Temperature, K	Solvent: Mass fraction of 1,2-ethanediol	Molality, mol/kg of sodium chloride	uncertainty
298.15	0.2498	4.4092	0.2223
298.15	0.2498	4.4889	0.2293
297.15	0.2498	4.4778	0.2245
357.15	0.2498	4.6202	0.2335
404.15	0.2498	5.2209	0.2556
466.15	0.2498	5.8581	0.2951
298.15	0.499	3.0695	0.2735
352.15	0.499	3.3228	0.325
396.15	0.499	3.6206	0.3772
465.15	0.499	4.0633	0.5418
298.15	0.744	1.99	0.1381
297.15	0.744	1.9952	0.1382
355.15	0.7441	2.0677	0.2442
407.15	0.7441	2.1875	0.2667
467.15	0.7441	2.3148	0.2951
