Measured thermophysical data. A Volumetric and Viscosity Study for the Binary Mixtures of Ammonium-Based Asymmetrical Gemini Ionic Liquids with Alcohols at T = 293.15-333.15 K
Source: J. Chem. Eng. Data, 2019, 10.1021/acs.jced.8b00965
Compound 1: methanol, CH4O, InChI=1S/CH4O/c1-2/h2H,1H3, purity 99.5%
Compound 2: ethanol, C2H6O, InChI=1S/C2H6O/c1-2-3/h3H,2H2,1H3, purity 99.5%
Compound 3: 1-butyl-3-methylimidazolium tetrafluoroborate, C8H15BF4N2, InChI=1S/C8H15N2.BF4/c1-3-4-5-10-7-6-9(2)8-10;2-1(3,4)5/h6-8H,3-5H2,1-2H3;/q+1;-1, purity 99%
Compound 4: 1-(3-(trimethylammonio)propyl)pyridinium dicyanamide, C15H20N8, InChI=1S/C11H20N2.2C2N3/c1-13(2,3)11-7-10-12-8-5-4-6-9-12;2*3-1-5-2-4/h4-6,8-9H,7,10-11H2,1-3H3;;/q+2;2*-1, purity 99.5%
Compound 5: 1-methyl-1-(3-(trimethylammonio)propyl)piperidinium dicyanamide, C16H28N8, InChI=1S/C12H28N2.2C2N3/c1-13(2,3)9-8-12-14(4)10-6-5-7-11-14;2*3-1-5-2-4/h5-12H2,1-4H3;;/q+2;2*-1, purity 99.5%

System: methanol; phases: Liquid
Fixed: Pressure, kPa = 100
Property: Mass density, kg/m3 (Liquid); method: Vibrating tube method
Temperature, K	Mass density, kg/m3	uncertainty
293.15	791.34	2
303.15	781.9	2
313.15	772.36	2
323.15	762.7	2
333.15	752.86	2.01

System: methanol; phases: Liquid
Fixed: Pressure, kPa = 100
Property: Viscosity, Pa*s (Liquid); method: Falling or rolling sphere viscometry
Temperature, K	Viscosity, Pa*s	uncertainty
293.15	0.0005843	5.86e-05
303.15	0.0005085	5.1e-05
313.15	0.0004464	4.48e-05
323.15	0.0003949	3.96e-05
333.15	0.0003522	3.53e-05

System: ethanol; phases: Liquid
Fixed: Pressure, kPa = 100
Property: Mass density, kg/m3 (Liquid); method: Vibrating tube method
Temperature, K	Mass density, kg/m3	uncertainty
293.15	789.63	2
303.15	781.02	2
313.15	772.27	2
323.15	763.35	2
333.15	754.2	2.01

System: ethanol; phases: Liquid
Fixed: Pressure, kPa = 100
Property: Viscosity, Pa*s (Liquid); method: Falling or rolling sphere viscometry
Temperature, K	Viscosity, Pa*s	uncertainty
293.15	0.0011949	0.0001198
303.15	0.0009905	9.93e-05
313.15	0.0008282	8.31e-05
323.15	0.0007055	7.08e-05
333.15	0.0005927	5.94e-05

System: 1-butyl-3-methylimidazolium tetrafluoroborate; phases: Liquid
Fixed: Pressure, kPa = 100
Property: Mass density, kg/m3 (Liquid); method: Vibrating tube method
Temperature, K	Mass density, kg/m3	uncertainty
293.15	1204.67	2.03
303.15	1197.51	2.03
313.15	1190.49	2.03
323.15	1183.18	2.03
333.15	1176.82	2.03

System: 1-butyl-3-methylimidazolium tetrafluoroborate; phases: Liquid
Fixed: Pressure, kPa = 100
Property: Viscosity, Pa*s (Liquid); method: Falling or rolling sphere viscometry
Temperature, K	Viscosity, Pa*s	uncertainty
293.15	0.1361864	0.0142656
303.15	0.0812873	0.0082293
313.15	0.0516825	0.0051752
323.15	0.0350856	0.0035218
333.15	0.0248976	0.0024992

System: 1-(3-(trimethylammonio)propyl)pyridinium dicyanamide; phases: Liquid
Fixed: Pressure, kPa = 100
Property: Mass density, kg/m3 (Liquid); method: Vibrating tube method
Temperature, K	Mass density, kg/m3	uncertainty
293.15	1158.01	2.01
303.15	1152.11	2.01
313.15	1146.34	2
323.15	1140.68	2
333.15	1135.08	2

System: 1-(3-(trimethylammonio)propyl)pyridinium dicyanamide; phases: Liquid
Fixed: Pressure, kPa = 100
Property: Viscosity, Pa*s (Liquid); method: Falling or rolling sphere viscometry
Temperature, K	Viscosity, Pa*s	uncertainty
293.15	2.1910021	0.3357556
303.15	0.8308034	0.1097781
313.15	0.3859631	0.0455829
323.15	0.2102033	0.0229813
333.15	0.1266806	0.0131792

System: 1-methyl-1-(3-(trimethylammonio)propyl)piperidinium dicyanamide; phases: Liquid
Fixed: Pressure, kPa = 100
Property: Mass density, kg/m3 (Liquid); method: Vibrating tube method
Temperature, K	Mass density, kg/m3	uncertainty
293.15	1113.18	2
303.15	1107.58	2
313.15	1102.08	2
323.15	1096.67	2
333.15	1091.37	2

System: 1-methyl-1-(3-(trimethylammonio)propyl)piperidinium dicyanamide; phases: Liquid
Fixed: Pressure, kPa = 100
Property: Viscosity, Pa*s (Liquid); method: Falling or rolling sphere viscometry
Temperature, K	Viscosity, Pa*s	uncertainty
293.15	4.5028071	0.7682321
303.15	1.8366025	0.2739999
313.15	0.8561032	0.1136309
323.15	0.4601203	0.0556986
333.15	0.26951	0.030354

System: 1-(3-(trimethylammonio)propyl)pyridinium dicyanamide + methanol; phases: Liquid
Fixed: Pressure, kPa = 100
Property: Mass density, kg/m3 (Liquid); method: Vibrating tube method
Temperature, K	Mole fraction of 1-(3-(trimethylammonio)propyl)pyridinium dicyanamide	Mass density, kg/m3	uncertainty
293.15	0	791.34	2
293.15	0.0999	967.96	2.36
293.15	0.2001	1040.92	2.08
293.15	0.3002	1080.36	2.03
293.15	0.3999	1104.35	2.01
293.15	0.5002	1120.51	2.01
293.15	0.6001	1131.82	2.01
293.15	0.7003	1140.32	2.01
293.15	0.7998	1147.05	2.01
293.15	0.8995	1152.87	2.01
293.15	1	1158.01	2.01
303.15	0	781.9	2
303.15	0.0999	960.59	2.37
303.15	0.2001	1034.27	2.08
303.15	0.3002	1074.07	2.03
303.15	0.3999	1098.18	2.01
303.15	0.5002	1114.57	2.01
303.15	0.6001	1125.79	2.01
303.15	0.7003	1134.37	2.01
303.15	0.7998	1141.17	2.01
303.15	0.8995	1147.16	2.01
303.15	1	1152.11	2.01
313.15	0	772.36	2
313.15	0.0999	953.76	2.37
313.15	0.2001	1027.87	2.08
313.15	0.3002	1067.85	2.03
313.15	0.3999	1092.11	2.01
313.15	0.5002	1108.61	2.01
313.15	0.6001	1119.84	2.01
313.15	0.7003	1128.48	2.01
313.15	0.7998	1135.37	2.01
313.15	0.8995	1141.45	2.01
313.15	1	1146.34	2
323.15	0	762.7	2
323.15	0.0999	946.75	2.38
323.15	0.2001	1021.43	2.08
323.15	0.3002	1061.7	2.03
323.15	0.3999	1086.12	2.01
323.15	0.5002	1102.51	2.01
323.15	0.6001	1114	2.01
323.15	0.7003	1122.67	2.01
323.15	0.7998	1129.72	2.01
323.15	0.8995	1135.82	2.01
323.15	1	1140.68	2
333.15	0	752.86	2.01
333.15	0.0999	939.46	2.39
333.15	0.2001	1015.04	2.08
333.15	0.3002	1055.62	2.03
333.15	0.3999	1080.21	2.01
333.15	0.5002	1096.51	2.01
333.15	0.6001	1108.26	2.01
333.15	0.7003	1116.96	2.01
333.15	0.7998	1124.06	2.01
333.15	0.8995	1130.25	2.01
333.15	1	1135.08	2

System: 1-(3-(trimethylammonio)propyl)pyridinium dicyanamide + methanol; phases: Liquid
Fixed: Pressure, kPa = 100
Property: Viscosity, Pa*s (Liquid); method: Falling or rolling sphere viscometry
Temperature, K	Mole fraction of 1-(3-(trimethylammonio)propyl)pyridinium dicyanamide	Viscosity, Pa*s	uncertainty
293.15	0	0.0005843	5.86e-05
293.15	0.0999	0.004366	0.0004437
293.15	0.2001	0.014926	0.0015034
293.15	0.3002	0.032461	0.003267
293.15	0.3999	0.069859	0.0070379
293.15	0.5002	0.1174602	0.0121747
293.15	0.6001	0.2325201	0.025744
293.15	0.7003	0.3426702	0.0398404
293.15	0.7998	0.5078605	0.0624332
293.15	0.8995	0.952761	0.1288151
293.15	1	2.1910021	0.3357556
303.15	0	0.0005085	5.1e-05
303.15	0.0999	0.0036568	0.0003708
303.15	0.2001	0.011449	0.0011522
303.15	0.3002	0.023137	0.0023266
303.15	0.3999	0.045882	0.0046096
303.15	0.5002	0.078584	0.0079479
303.15	0.6001	0.1309103	0.0136658
303.15	0.7003	0.1835605	0.0197825
303.15	0.7998	0.2549403	0.0285358
303.15	0.8995	0.3962302	0.0470558
303.15	1	0.8308034	0.1097781
313.15	0	0.0004464	4.48e-05
313.15	0.0999	0.0031809	0.0003219
313.15	0.2001	0.0090129	0.0009066
313.15	0.3002	0.017415	0.0017502
313.15	0.3999	0.031916	0.0032057
313.15	0.5002	0.053345	0.005343
313.15	0.6001	0.0810732	0.0082039
313.15	0.7003	0.1097203	0.0112956
313.15	0.7998	0.1448912	0.0152547
313.15	0.8995	0.1984705	0.0215938
313.15	1	0.3859631	0.0455829
323.15	0	0.0003949	3.96e-05
323.15	0.0999	0.002818	0.0002847
323.15	0.2001	0.0073637	0.0007404
323.15	0.3002	0.01362	0.0013683
323.15	0.3999	0.023637	0.0023736
323.15	0.5002	0.0382692	0.0038408
323.15	0.6001	0.0540815	0.005414
323.15	0.7003	0.0705921	0.0071035
323.15	0.7998	0.0905107	0.0092062
323.15	0.8995	0.1158322	0.0119817
323.15	1	0.2102033	0.0229813
333.15	0	0.0003522	3.53e-05
333.15	0.0999	0.0025415	0.0002565
333.15	0.2001	0.0061214	0.0006155
333.15	0.3002	0.0113804	0.0011429
333.15	0.3999	0.018538	0.0018609
333.15	0.5002	0.0279772	0.0028074
333.15	0.6001	0.038451	0.0038575
333.15	0.7003	0.0493417	0.0049495
333.15	0.7998	0.0606021	0.0060744
333.15	0.8995	0.0759553	0.0076676
333.15	1	0.1266806	0.0131792

System: 1-(3-(trimethylammonio)propyl)pyridinium dicyanamide + ethanol; phases: Liquid
Fixed: Pressure, kPa = 100
Property: Mass density, kg/m3 (Liquid); method: Vibrating tube method
Temperature, K	Mole fraction of 1-(3-(trimethylammonio)propyl)pyridinium dicyanamide	Mass density, kg/m3	uncertainty
293.15	0	789.63	2
293.15	0.0998	930.04	2.27
293.15	0.1999	1004.83	2.09
293.15	0.2997	1051.29	2.04
293.15	0.4	1083.12	2.02
293.15	0.5001	1104.52	2.01
293.15	0.6002	1120.28	2.01
293.15	0.6999	1132.63	2.01
293.15	0.8001	1142.17	2.01
293.15	0.8999	1150.53	2.01
293.15	1	1158.01	2.01
303.15	0	781.02	2
303.15	0.0998	923.19	2.28
303.15	0.1999	998.21	2.09
303.15	0.2997	1045.03	2.04
303.15	0.4	1077.04	2.02
303.15	0.5001	1098.64	2.01
303.15	0.6002	1114.31	2.01
303.15	0.6999	1126.71	2.01
303.15	0.8001	1136.3	2.01
303.15	0.8999	1144.68	2.01
303.15	1	1152.11	2.01
313.15	0	772.27	2
313.15	0.0998	915.94	2.28
313.15	0.1999	991.66	2.09
313.15	0.2997	1038.64	2.04
313.15	0.4	1071.04	2.02
313.15	0.5001	1092.75	2.01
313.15	0.6002	1108.41	2.01
313.15	0.6999	1120.88	2.01
313.15	0.8001	1130.53	2.01
313.15	0.8999	1138.95	2.01
313.15	1	1146.34	2
323.15	0	763.35	2
323.15	0.0998	910.2	2.29
323.15	0.1999	985.36	2.09
323.15	0.2997	1032.56	2.04
323.15	0.4	1065.12	2.02
323.15	0.5001	1086.89	2.01
323.15	0.6002	1102.61	2.01
323.15	0.6999	1115.13	2.01
323.15	0.8001	1124.81	2.01
323.15	0.8999	1133.35	2.01
323.15	1	1140.68	2
333.15	0	754.2	2.01
333.15	0.0998	903.02	2.3
333.15	0.1999	979.06	2.1
333.15	0.2997	1026.54	2.04
333.15	0.4	1059.27	2.02
333.15	0.5001	1081.13	2.01
333.15	0.6002	1096.91	2.01
333.15	0.6999	1109.47	2.01
333.15	0.8001	1119.17	2.01
333.15	0.8999	1127.81	2.01
333.15	1	1135.08	2

System: 1-(3-(trimethylammonio)propyl)pyridinium dicyanamide + ethanol; phases: Liquid
Fixed: Pressure, kPa = 100
Property: Viscosity, Pa*s (Liquid); method: Falling or rolling sphere viscometry
Temperature, K	Mole fraction of 1-(3-(trimethylammonio)propyl)pyridinium dicyanamide	Viscosity, Pa*s	uncertainty
293.15	0	0.0011949	0.0001198
293.15	0.0999	0.0065535	0.0006612
293.15	0.2001	0.015616	0.001574
293.15	0.3002	0.0380419	0.0038269
293.15	0.3999	0.0758421	0.0076648
293.15	0.5002	0.1371103	0.0143829
293.15	0.6001	0.2432105	0.0270769
293.15	0.7003	0.3910914	0.046308
293.15	0.7998	0.6144722	0.0776558
293.15	0.8995	1.0380118	0.1421062
293.15	1	2.1910021	0.3357556
303.15	0	0.0009905	9.93e-05
303.15	0.0999	0.0050927	0.0005136
303.15	0.2001	0.011836	0.0011914
303.15	0.3002	0.025592	0.0025733
303.15	0.3999	0.049207	0.0049447
303.15	0.5002	0.0883322	0.0089811
303.15	0.6001	0.1376903	0.0144368
303.15	0.7003	0.2052506	0.0223931
303.15	0.7998	0.2914417	0.0331721
303.15	0.8995	0.4348923	0.0522971
303.15	1	0.8308034	0.1097781
313.15	0	0.0008282	8.31e-05
313.15	0.0999	0.0042284	0.0004261
313.15	0.2001	0.0092826	0.0009345
313.15	0.3002	0.0207262	0.0020823
313.15	0.3999	0.0344253	0.0034574
313.15	0.5002	0.0581971	0.0058334
313.15	0.6001	0.0843152	0.0085478
313.15	0.7003	0.1191503	0.0123418
313.15	0.7998	0.1614811	0.0171776
313.15	0.8995	0.2292923	0.0253464
313.15	1	0.3859631	0.0455829
323.15	0	0.0007055	7.08e-05
323.15	0.0999	0.0035536	0.000358
323.15	0.2001	0.0074738	0.000752
323.15	0.3002	0.0157332	0.0015803
323.15	0.3999	0.025211	0.0025309
323.15	0.5002	0.038925	0.0039066
323.15	0.6001	0.056171	0.0056256
323.15	0.7003	0.075751	0.0076422
323.15	0.7998	0.0992231	0.0101474
323.15	0.8995	0.1339303	0.0140085
323.15	1	0.2102033	0.0229813
333.15	0	0.0005927	5.94e-05
333.15	0.0999	0.0031028	0.0003124
333.15	0.2001	0.0061237	0.0006156
333.15	0.3002	0.011852	0.00119
333.15	0.3999	0.0180181	0.0018087
333.15	0.5002	0.0280405	0.0028141
333.15	0.6001	0.039584	0.0039714
333.15	0.7003	0.0514183	0.0051454
333.15	0.7998	0.065131	0.0065391
333.15	0.8995	0.085274	0.0086498
333.15	1	0.1266806	0.0131792

System: 1-methyl-1-(3-(trimethylammonio)propyl)piperidinium dicyanamide + methanol; phases: Liquid
Fixed: Pressure, kPa = 100
Property: Mass density, kg/m3 (Liquid); method: Vibrating tube method
Temperature, K	Mole fraction of 1-methyl-1-(3-(trimethylammonio)propyl)piperidinium dicyanamide	Mass density, kg/m3	uncertainty
293.15	0	791.34	2
293.15	0.0998	957.98	2.31
293.15	0.2001	1020.03	2.05
293.15	0.2999	1050.52	2.02
293.15	0.4002	1069.84	2.01
293.15	0.5001	1083.28	2.01
293.15	0.6001	1093.21	2.01
293.15	0.7003	1100.88	2
293.15	0.8002	1106.59	2
293.15	0.8991	1110.32	2
293.15	1	1113.18	2
303.15	0	781.9	2
303.15	0.0998	950.97	2.31
303.15	0.2001	1013.98	2.06
303.15	0.2999	1044.65	2.02
303.15	0.4002	1064.1	2.01
303.15	0.5001	1077.59	2.01
303.15	0.6001	1087.56	2.01
303.15	0.7003	1095.33	2
303.15	0.8002	1101.06	2
303.15	0.8991	1105.11	2
303.15	1	1107.58	2
313.15	0	772.36	2
313.15	0.0998	943.99	2.32
313.15	0.2001	1007.7	2.06
313.15	0.2999	1038.45	2.02
313.15	0.4002	1058.16	2.01
313.15	0.5001	1071.92	2.01
313.15	0.6001	1082.06	2.01
313.15	0.7003	1089.75	2
313.15	0.8002	1095.69	2
313.15	0.8991	1099.97	2
313.15	1	1102.08	2
323.15	0	762.7	2
323.15	0.0998	937.06	2.33
323.15	0.2001	1001.28	2.06
323.15	0.2999	1032.02	2.02
323.15	0.4002	1052.09	2.01
323.15	0.5001	1066.12	2.01
323.15	0.6001	1076.42	2
323.15	0.7003	1084.29	2
323.15	0.8002	1090.36	2
323.15	0.8991	1094.74	2
323.15	1	1096.67	2
333.15	0	752.86	2.01
333.15	0.0998	930.14	2.34
333.15	0.2001	994.31	2.06
333.15	0.2999	1025.76	2.02
333.15	0.4002	1046.09	2.01
333.15	0.5001	1060.35	2.01
333.15	0.6001	1070.81	2
333.15	0.7003	1078.85	2
333.15	0.8002	1085.05	2
333.15	0.8991	1089.56	2
333.15	1	1091.37	2

System: 1-methyl-1-(3-(trimethylammonio)propyl)piperidinium dicyanamide + methanol; phases: Liquid
Fixed: Pressure, kPa = 100
Property: Viscosity, Pa*s (Liquid); method: Falling or rolling sphere viscometry
Temperature, K	Mole fraction of 1-methyl-1-(3-(trimethylammonio)propyl)piperidinium dicyanamide	Viscosity, Pa*s	uncertainty
293.15	0	0.0005843	5.86e-05
293.15	0.0999	0.004251	0.0004321
293.15	0.2001	0.0147102	0.0014858
293.15	0.3002	0.0396461	0.0040041
293.15	0.3999	0.1092604	0.0113
293.15	0.5002	0.2707307	0.0306005
293.15	0.6001	0.5853615	0.0735235
293.15	0.7003	1.1807023	0.1647316
293.15	0.7998	1.8840231	0.2822785
293.15	0.8995	2.8550452	0.4555382
293.15	1	4.5028071	0.7682321
303.15	0	0.0005085	5.1e-05
303.15	0.0999	0.0035771	0.0003627
303.15	0.2001	0.0112571	0.0011358
303.15	0.3002	0.0285461	0.0028779
303.15	0.3999	0.0702983	0.0071013
303.15	0.5002	0.1601601	0.0170637
303.15	0.6001	0.3297903	0.0381907
303.15	0.7003	0.6099712	0.076993
303.15	0.7998	0.9189034	0.1233334
303.15	0.8995	1.2810051	0.1809018
303.15	1	1.8366025	0.2739999
313.15	0	0.0004464	4.48e-05
313.15	0.0999	0.0030919	0.0003129
313.15	0.2001	0.0089046	0.0008971
313.15	0.3002	0.020331	0.0020476
313.15	0.3999	0.0466782	0.0046981
313.15	0.5002	0.1001804	0.0102768
313.15	0.6001	0.2027613	0.0221093
313.15	0.7003	0.3370206	0.0390996
313.15	0.7998	0.4885054	0.0596651
313.15	0.8995	0.6455507	0.082134
313.15	1	0.8561032	0.1136309
323.15	0	0.0003949	3.96e-05
323.15	0.0999	0.0027347	0.0002764
323.15	0.2001	0.0072174	0.0007267
323.15	0.3002	0.015708	0.001581
323.15	0.3999	0.033771	0.003397
323.15	0.5002	0.0680452	0.0068542
323.15	0.6001	0.1302261	0.0135956
323.15	0.7003	0.2059044	0.022473
323.15	0.7998	0.2920208	0.0332347
323.15	0.8995	0.3686313	0.0432679
323.15	1	0.4601203	0.0556986
333.15	0	0.0003522	3.53e-05
333.15	0.0999	0.0024598	0.0002483
333.15	0.2001	0.0059998	0.0006037
333.15	0.3002	0.0124521	0.0012523
333.15	0.3999	0.0249303	0.0025065
333.15	0.5002	0.0484412	0.0048681
333.15	0.6001	0.0882155	0.0089679
333.15	0.7003	0.1337909	0.0139904
333.15	0.7998	0.1867716	0.0201619
333.15	0.8995	0.2355028	0.0260928
333.15	1	0.26951	0.030354

System: 1-methyl-1-(3-(trimethylammonio)propyl)piperidinium dicyanamide + ethanol; phases: Liquid
Fixed: Pressure, kPa = 100
Property: Mass density, kg/m3 (Liquid); method: Vibrating tube method
Temperature, K	Mole fraction of 1-methyl-1-(3-(trimethylammonio)propyl)piperidinium dicyanamide	Mass density, kg/m3	uncertainty
293.15	0	789.63	2
293.15	0.0999	922.67	2.23
293.15	0.2002	987.86	2.07
293.15	0.3	1028.03	2.03
293.15	0.4001	1054.78	2.02
293.15	0.4998	1073.81	2.01
293.15	0.6002	1086.01	2.01
293.15	0.7001	1094.94	2
293.15	0.8002	1101.32	2
293.15	0.8992	1107.43	2
293.15	1	1113.18	2
303.15	0	781.02	2
303.15	0.0999	915.7	2.24
303.15	0.2002	981.53	2.07
303.15	0.3	1021.75	2.03
303.15	0.4001	1048.88	2.02
303.15	0.4998	1067.89	2.01
303.15	0.6002	1080.29	2.01
303.15	0.7001	1089.39	2
303.15	0.8002	1095.78	2
303.15	0.8992	1101.87	2
303.15	1	1107.58	2
313.15	0	772.27	2
313.15	0.0999	908.75	2.25
313.15	0.2002	975.71	2.07
313.15	0.3	1015.61	2.03
313.15	0.4001	1042.97	2.02
313.15	0.4998	1062.19	2.01
313.15	0.6002	1074.72	2.01
313.15	0.7001	1083.93	2
313.15	0.8002	1090.55	2
313.15	0.8992	1096.53	2
313.15	1	1102.08	2
323.15	0	763.35	2
323.15	0.0999	901.8	2.25
323.15	0.2002	969.03	2.07
323.15	0.3	1009.48	2.03
323.15	0.4001	1037.05	2.02
323.15	0.4998	1056.56	2.01
323.15	0.6002	1069.36	2.01
323.15	0.7001	1078.52	2
323.15	0.8002	1085.25	2
323.15	0.8992	1091.32	2
323.15	1	1096.67	2
333.15	0	754.2	2.01
333.15	0.0999	894.84	2.26
333.15	0.2002	962.85	2.07
333.15	0.3	1003.49	2.03
333.15	0.4001	1031.2	2.02
333.15	0.4998	1050.93	2.01
333.15	0.6002	1063.91	2.01
333.15	0.7001	1073.27	2
333.15	0.8002	1080.1	2
333.15	0.8992	1086.25	2
333.15	1	1091.37	2

System: 1-methyl-1-(3-(trimethylammonio)propyl)piperidinium dicyanamide + ethanol; phases: Liquid
Fixed: Pressure, kPa = 100
Property: Viscosity, Pa*s (Liquid); method: Falling or rolling sphere viscometry
Temperature, K	Mole fraction of 1-methyl-1-(3-(trimethylammonio)propyl)piperidinium dicyanamide	Viscosity, Pa*s	uncertainty
293.15	0	0.0011949	0.0001198
293.15	0.0999	0.0068202	0.0006902
293.15	0.2001	0.019731	0.001989
293.15	0.3002	0.0476204	0.0047994
293.15	0.3999	0.1148211	0.011912
293.15	0.5002	0.2804607	0.0318363
293.15	0.6001	0.5958241	0.0749981
293.15	0.7003	1.0877102	0.1498488
293.15	0.7998	1.7157036	0.2534339
293.15	0.8995	2.7370342	0.4339949
293.15	1	4.5028071	0.7682321
303.15	0	0.0009905	9.93e-05
303.15	0.0999	0.0053873	0.0005448
303.15	0.2001	0.015013	0.0015118
303.15	0.3002	0.0329891	0.0033211
303.15	0.3999	0.073311	0.0074131
303.15	0.5002	0.1637504	0.0174806
303.15	0.6001	0.329592	0.0381462
303.15	0.7003	0.5454506	0.0677205
303.15	0.7998	0.8284222	0.1094637
303.15	0.8995	1.2398738	0.174235
303.15	1	1.8366025	0.2739999
313.15	0	0.0008282	8.31e-05
313.15	0.0999	0.0043811	0.0004426
313.15	0.2001	0.01157	0.0011644
313.15	0.3002	0.0240592	0.0024202
313.15	0.3999	0.0496094	0.004992
313.15	0.5002	0.1063213	0.0109473
313.15	0.6001	0.211322	0.0231393
313.15	0.7003	0.3101617	0.035588
313.15	0.7998	0.4613609	0.0558922
313.15	0.8995	0.6243304	0.0790447
313.15	1	0.8561032	0.1136309
323.15	0	0.0007055	7.08e-05
323.15	0.0999	0.0036805	0.0003715
323.15	0.2001	0.0091851	0.0009239
323.15	0.3002	0.018128	0.0018226
323.15	0.3999	0.0351606	0.0035358
323.15	0.5002	0.0705471	0.0071129
323.15	0.6001	0.1318653	0.0137769
323.15	0.7003	0.1922307	0.0208196
323.15	0.7998	0.2672112	0.0300737
323.15	0.8995	0.3603904	0.0421734
323.15	1	0.4601203	0.0556986
333.15	0	0.0005927	5.94e-05
333.15	0.0999	0.0031797	0.0003208
333.15	0.2001	0.0075512	0.0007592
333.15	0.3002	0.014116	0.0014187
333.15	0.3999	0.0262453	0.0026383
333.15	0.5002	0.050654	0.0050759
333.15	0.6001	0.0859312	0.0087224
333.15	0.7003	0.125983	0.0131072
333.15	0.7998	0.1707506	0.0182613
333.15	0.8995	0.2185922	0.0240108
333.15	1	0.26951	0.030354
