Measured thermophysical data. Chemical Modeling of the TMA-CO2-H2O System: A Draw Solution in Forward Osmosis for Process Water Recovery
Source: J. Chem. Eng. Data, 2017, 10.1021/acs.jced.6b00780
Compound 1: trimethylamine, C3H9N, InChI=1S/C3H9N/c1-4(2)3/h1-3H3, purity 98%
Compound 2: water, H2O, InChI=1S/H2O/h1H2, purity 99.8%
Compound 3: carbon dioxide, CO2, InChI=1S/CO2/c2-1-3

System: trimethylamine + water; phases: Liquid, Gas
Property: Vapor or sublimation pressure, kPa (Liquid); method: Closed cell (Static) method
Mole fraction of water	Temperature, K	Vapor or sublimation pressure, kPa	uncertainty
0.94	293.18	24.9	4.1
0.94	293.16	26.8	4.1
0.95	293.15	18.8	4.1
0.92	293.16	34.6	4
0.92	293.16	34.7	4
0.9	293.16	39.2	4
0.9	293.15	39.3	4
0.87	293.16	47.2	4

System: trimethylamine + water; phases: Gas, Liquid
Property: Mole fraction of water (Gas); method: Gravimetric
Mole fraction of water	Temperature, K	Mole fraction of water	uncertainty
0.94	293.18	0.08	0.01
0.94	293.16	0.07	0.01
0.95	293.15	0.07	0.01
0.92	293.16	0.03	0.01
0.92	293.16	0.05	0.01
0.9	293.16	0.04	0.01
0.9	293.15	0.04	0.01
0.87	293.16	0.03	0.01

System: trimethylamine + carbon dioxide + water; phases: Liquid, Gas
Property: Mole fraction of carbon dioxide (Liquid); method: Chromatography
Property: Mole fraction of carbon dioxide (Gas); method: Chromatography
Property: Mole fraction of trimethylamine (Gas); method: Chromatography
Temperature, K	Pressure, kPa	Mole fraction of trimethylamine	Mole fraction of carbon dioxide	uncertainty	Mole fraction of carbon dioxide	uncertainty	Mole fraction of trimethylamine	uncertainty
323.21	21.9	0.014	0.01	0.002	0.239	0.006	0.25	
333.19	39.3	0.015	0.011	0.002	0.33	0.007	0.325	
323.15	22.1	0.014	0.01	0.002	0.236	0.006	0.245	
323.16	25	0.017	0.013	0.002	0.358	0.007	0.308	
323.16	25.1	0.017	0.013	0.002	0.328	0.007	0.276	
323.15	26.4	0.019	0.015	0.002	0.364	0.007	0.318	
323.2	26.7	0.019	0.015	0.002	0.321	0.007	0.26	
333.14	32.6	0.01	0.008	0.002	0.262	0.006	0.293	
333.15	33	0.01	0.008	0.002	0.245	0.006	0.279	
333.15	42.6	0.017	0.013	0.002	0.361	0.007	0.339	
333.16	42.7	0.017	0.013	0.002	0.344	0.007	0.313	
333.16	39.4	0.015	0.011	0.002	0.333	0.007	0.34	
