Measured thermophysical data. Solubility Measurement and Modeling of Methane in Methanol and Ethanol Aqueous Solutions
Source: J. Chem. Eng. Data, 2016, 10.1021/acs.jced.6b00296
Compound 1: methanol, CH4O, InChI=1S/CH4O/c1-2/h2H,1H3, purity 99.8%
Compound 2: ethanol, C2H6O, InChI=1S/C2H6O/c1-2-3/h3H,2H2,1H3, purity 99.9%
Compound 3: methane, CH4, InChI=1S/CH4/h1H4, purity 99.99%
Compound 4: water, H2O, InChI=1S/H2O/h1H2, purity 99.9%

System: methanol + methane + water; phases: Liquid, Gas
Fixed: Temperature, K = 293.15
Fixed: Solvent: Mass fraction of methanol = 0.7
Property: Mole fraction of methane (Liquid); method: Phase equilibration
Pressure, kPa	Mole fraction of methane	uncertainty
540	0.00227	0.00034
540	0.00205	0.00028
600	0.00283	0.00027
610	0.0027	0.00028
1510	0.00487	0.00036
1520	0.00463	0.00035
2490	0.00671	0.00045
2490	0.00705	0.00046
4320	0.00996	0.00059
4340	0.0099	0.00059
6540	0.01343	0.00079
10330	0.01876	0.00106
10330	0.01924	0.00108
18880	0.02652	0.00146
26430	0.03204	0.00177
26520	0.03222	0.00177
35350	0.03633	0.00198

System: ethanol + methane + water; phases: Liquid, Gas
Property: Mole fraction of methane (Liquid); method: Phase equilibration
Solvent: Mass fraction of ethanol	Temperature, K	Pressure, kPa	Mole fraction of methane	uncertainty
0.7	273.15	970	0.00554	0.00044
0.7	273.15	1000	0.00447	0.00037
0.7	273.15	4560	0.01388	0.00079
0.7	273.15	4610	0.01452	0.00084
0.7	273.15	9340	0.02502	0.00135
0.7	273.15	9360	0.02557	0.00139
0.7	273.15	16430	0.03648	0.00192
0.7	273.15	16440	0.03696	0.00196
0.7	273.15	23650	0.04374	0.0023
0.7	273.15	23670	0.0443	0.00232
0.7	273.15	30730	0.05073	0.00264
0.7	273.15	30760	0.05012	0.0026
0.7	273.15	37310	0.05645	0.00294
0.7	273.15	37340	0.05462	0.00284
0.7	273.15	43950	0.05865	0.00304
0.7	273.15	43970	0.06074	0.00316
0.7	298.15	460	0.00254	0.00029
0.7	298.15	490	0.003	0.00032
0.7	298.15	2850	0.00937	0.00058
0.7	298.15	2880	0.00917	0.00056
0.7	298.15	7150	0.01999	0.0011
0.7	298.15	7160	0.02028	0.00113
0.7	298.15	13020	0.03174	0.00173
0.7	298.15	13040	0.03259	0.00175
0.7	298.15	19080	0.04139	0.00216
0.7	298.15	19090	0.04286	0.00228
0.7	298.15	26710	0.05107	0.00266
0.7	298.15	26730	0.04999	0.0026
0.7	298.15	34530	0.05978	0.00312
0.7	298.15	34540	0.05677	0.00294
0.7	298.15	41850	0.06357	0.0033
0.7	298.15	41880	0.06477	0.00338
0.5	273.15	520	0.001	0.001
0.5	273.15	530	0.002	0.001
0.5	273.15	1680	0.003	0.001
0.5	273.15	1680	0.003	0.001
0.5	273.15	2630	0.004	0.001
0.5	273.15	2650	0.004	0.001
0.5	273.15	4490	0.005	0.001
0.5	273.15	4520	0.006	0.001
0.5	273.15	8010	0.009	0.001
0.5	273.15	8020	0.008	0.001
0.5	273.15	13960	0.012	0.001
0.5	273.15	13980	0.012	0.001
0.5	273.15	20990	0.014	0.001
0.5	273.15	21010	0.015	0.001
0.5	298.15	660	0.002	0.001
0.5	298.15	680	0.002	0.001
0.5	298.15	1480	0.003	0.001
0.5	298.15	1480	0.003	0.001
0.5	298.15	3960	0.005	0.001
0.5	298.15	3960	0.005	0.001
0.5	298.15	6920	0.008	0.001
0.5	298.15	13040	0.012	0.001
0.5	298.15	13060	0.012	0.001
0.5	298.15	19510	0.015	0.001
0.5	298.15	19530	0.015	0.001
0.5	298.15	28040	0.018	0.001
0.5	298.15	34370	0.02	0.001
