Measured thermophysical data. Solubility in Different Solvents, Crystal Polymorph and Morphology, and Optimization of Crystallization Process of AIBN
Source: J. Chem. Eng. Data, 2018, 10.1021/acs.jced.7b00538
Compound 1: 2,2'-dimethyl-2,2'-azodipropionitrile, C8H12N4, InChI=1S/C8H12N4/c1-7(2,5-9)11-12-8(3,4)6-10/h1-4H3, purity 99.5%
Compound 2: methanol, CH4O, InChI=1S/CH4O/c1-2/h2H,1H3, purity 99.5%
Compound 3: ethanol, C2H6O, InChI=1S/C2H6O/c1-2-3/h3H,2H2,1H3, purity 99.7%
Compound 4: acetone, C3H6O, InChI=1S/C3H6O/c1-3(2)4/h1-2H3, purity 99.5%
Compound 5: benzene, C6H6, InChI=1S/C6H6/c1-2-4-6-5-3-1/h1-6H, purity 99.5%
Compound 6: ethyl acetate, C4H8O2, InChI=1S/C4H8O2/c1-3-6-4(2)5/h3H2,1-2H3, purity 99.5%
Compound 7: water, H2O, InChI=1S/H2O/h1H2, purity 99.5%
Compound 8: 3-cyanopyridine, C6H4N2, InChI=1S/C6H4N2/c7-4-6-2-1-3-8-5-6/h1-3,5H, purity 99%

System: 2,2'-dimethyl-2,2'-azodipropionitrile + methanol; phases: Liquid, Crystal 1
Fixed: Pressure, kPa = 100
Property: Mole fraction of 2,2'-dimethyl-2,2'-azodipropionitrile (Liquid); method: gravimetric
Temperature, K	Mole fraction of 2,2'-dimethyl-2,2'-azodipropionitrile	uncertainty
268.15	0.0034	0.000205
273.15	0.004408	0.000266
278.15	0.005669	0.000342
283.15	0.007384	0.000445
288.15	0.009421	0.000568
293.15	0.012365	0.000745
298.15	0.016231	0.000978
303.15	0.0212	0.001278
308.15	0.027664	0.001668
313.15	0.036402	0.002195
318.15	0.047926	0.00289
323.15	0.063689	0.003837

System: 2,2'-dimethyl-2,2'-azodipropionitrile + ethanol; phases: Liquid, Crystal 1
Fixed: Pressure, kPa = 100
Property: Mole fraction of 2,2'-dimethyl-2,2'-azodipropionitrile (Liquid); method: gravimetric
Temperature, K	Mole fraction of 2,2'-dimethyl-2,2'-azodipropionitrile	uncertainty
278.55	0.002625	0.00016
284.35	0.004081	0.000246
288.95	0.005114	0.000308
293.15	0.006666	0.000403
297.85	0.009378	0.000567
302.95	0.01283	0.000774
307.65	0.016451	0.000992
312.55	0.022099	0.001335
317.65	0.031401	0.001896
322.55	0.042654	0.002571

System: 2,2'-dimethyl-2,2'-azodipropionitrile + acetone; phases: Liquid, Crystal 1
Fixed: Pressure, kPa = 100
Property: Mole fraction of 2,2'-dimethyl-2,2'-azodipropionitrile (Liquid); method: gravimetric
Temperature, K	Mole fraction of 2,2'-dimethyl-2,2'-azodipropionitrile	uncertainty
278.15	0.051762	0.003114
283.45	0.062013	0.003729
288.75	0.074096	0.004457
293.05	0.088106	0.005301
297.85	0.105811	0.006365
302.95	0.127114	0.007642
307.95	0.145288	0.008737
312.75	0.176061	0.010589
318.05	0.208791	0.01255
322.75	0.236422	0.014206

System: 2,2'-dimethyl-2,2'-azodipropionitrile + benzene; phases: Liquid, Crystal 1
Fixed: Pressure, kPa = 100
Property: Mole fraction of 2,2'-dimethyl-2,2'-azodipropionitrile (Liquid); method: gravimetric
Temperature, K	Mole fraction of 2,2'-dimethyl-2,2'-azodipropionitrile	uncertainty
279.25	0.025367	0.001528
283.75	0.031129	0.001875
290.05	0.04108	0.002473
293.65	0.04901	0.002952
298.05	0.060325	0.003634
303.25	0.077012	0.004636
307.95	0.09382	0.00565
312.65	0.118682	0.00715
317.65	0.1513	0.009107
322.25	0.18131	0.010905

System: 2,2'-dimethyl-2,2'-azodipropionitrile + ethyl acetate; phases: Liquid, Crystal 1
Fixed: Pressure, kPa = 100
Property: Mole fraction of 2,2'-dimethyl-2,2'-azodipropionitrile (Liquid); method: gravimetric
Temperature, K	Mole fraction of 2,2'-dimethyl-2,2'-azodipropionitrile	uncertainty
278.15	0.034926	0.002103
282.85	0.042407	0.002553
287.75	0.052973	0.003188
293.65	0.06695	0.004029
298.35	0.082071	0.004937
303.15	0.095948	0.005773
307.85	0.118661	0.007141
312.95	0.144477	0.008692
317.95	0.174608	0.010501
322.95	0.206436	0.01241

System: 2,2'-dimethyl-2,2'-azodipropionitrile + methanol + water; phases: Liquid, Crystal 1
Fixed: Pressure, kPa = 100
Property: Mole fraction of 2,2'-dimethyl-2,2'-azodipropionitrile (Liquid); method: gravimetric
Solvent: Mass fraction of methanol	Temperature, K	Mole fraction of 2,2'-dimethyl-2,2'-azodipropionitrile	uncertainty
0.95	279.05	0.004438	0.000445
0.95	283.65	0.005779	0.00058
0.95	288.25	0.007628	0.000765
0.95	292.95	0.010118	0.001015
0.95	298.25	0.013634	0.001367
0.95	303.55	0.019153	0.00192
0.95	308.15	0.024171	0.002422
0.95	312.75	0.031206	0.003129
0.95	318.45	0.044554	0.004465
0.95	323.25	0.060687	0.006079
0.9	278.75	0.003545	0.000357
0.9	285.65	0.005317	0.000534
0.9	288.05	0.005993	0.000603
0.9	292.15	0.007787	0.000784
0.9	298.05	0.010893	0.001096
0.9	302.9	0.014646	0.001474
0.9	306.75	0.018589	0.001873
0.9	313.4	0.027532	0.002767
0.9	317.45	0.0358	0.003595
0.9	322.65	0.048596	0.004885
0.85	278.85	0.002812	0.000285
0.85	284.85	0.004071	0.000412
0.85	287.85	0.004874	0.000494
0.85	292.45	0.006202	0.000629
0.85	298.15	0.008614	0.000874
0.85	303.15	0.011906	0.001203
0.85	307.65	0.01547	0.001567
0.85	313.65	0.021877	0.002218
0.85	317.75	0.029254	0.002955
0.85	323.85	0.041695	0.004203
0.8	278.15	0.001882	0.000201
0.8	282.95	0.002494	0.000266
0.8	287.75	0.003393	0.000351
0.8	292.25	0.004477	0.00046
0.8	298.15	0.006452	0.00066
0.8	302.45	0.008586	0.000872
0.8	307.85	0.011943	0.001211
0.8	314.05	0.017215	0.001751
0.8	318.75	0.023658	0.002397
0.8	324.95	0.03432	0.003453
0.75	278.15	0.001469	0.000151
0.75	282.85	0.001948	0.000201
0.75	287.65	0.002674	0.000276
0.75	292.35	0.00363	0.000374
0.75	298.15	0.00525	0.00054
0.75	303.65	0.007575	0.000776
0.75	307.05	0.009656	0.000991
0.75	313.75	0.014429	0.001474
0.75	318.75	0.019964	0.002042
0.75	325.15	0.030502	0.003083
0.6	278.05	0.000438	5.7e-05
0.6	283.75	0.000693	8.5e-05
0.6	288.55	0.000955	0.000117
0.6	293.65	0.001438	0.00017
0.6	298.45	0.001877	0.000227
0.6	303.45	0.002837	0.000336
0.6	307.9	0.00371	0.00044
0.6	313.15	0.005538	0.000648
0.6	318.7	0.008075	0.00093
0.6	321.55	0.009508	0.001307
0.45	277.9	0.000114	1.7e-05
0.45	283.65	0.000173	2.6e-05
0.45	288.45	0.000241	3.6e-05
0.45	293.65	0.000379	5.5e-05
0.45	298.35	0.000522	7.4e-05
0.45	303.45	0.000807	0.000113
0.45	308.2	0.001116	0.000152
0.45	313.15	0.001667	0.000227
0.45	318.15	0.002436	0.000333
0.45	321.65	0.003156	0.00042
0.3	277.8	3.1e-05	5e-06
0.3	283.65	4.6e-05	7e-06
0.3	288.35	6.7e-05	1e-05
0.3	293.65	0.000104	1.5e-05
0.3	298.35	0.000139	2e-05
0.3	303.55	0.000218	3.2e-05
0.3	308.35	0.000299	4.4e-05
0.3	313.45	0.00047	6.7e-05
0.3	319.05	0.000657	9.7e-05
0.3	322.2	0.000901	0.000129
1	268.15	0.0034	0.000341
1	273.15	0.004408	0.000441
1	278.15	0.005669	0.000568
1	283.15	0.007384	0.00074
1	288.15	0.009421	0.000944
1	293.15	0.012365	0.001239
1	298.15	0.016231	0.001626
1	303.15	0.0212	0.002124
1	308.15	0.027664	0.002771
1	313.15	0.036402	0.003647
1	318.15	0.047926	0.004801
1	323.15	0.063689	0.006378

System: 3-cyanopyridine + acetone; phases: Liquid, Crystal
Fixed: Pressure, kPa = 100
Property: Mole fraction of 3-cyanopyridine (Liquid); method: gravimetric
Temperature, K	Mole fraction of 3-cyanopyridine	uncertainty
273.15	0.2973	0.0119
278.15	0.3341	0.0134
288.15	0.4366	0.0175
298.15	0.5298	0.0189
308.15	0.6717	0.0133
318.15	0.8554	0.0063
