Measured thermophysical data. Capillary Viscometer and Vibrating Tube Densimeter for Simultaneous Measurements up to 70 MPa and 423 K
Source: J. Chem. Eng. Data, 2016, 10.1021/acs.jced.5b00152
Compound 1: hexane, C6H14, InChI=1S/C6H14/c1-3-5-6-4-2/h3-6H2,1-2H3
Compound 2: heptane, C7H16, InChI=1S/C7H16/c1-3-5-7-6-4-2/h3-7H2,1-2H3
Compound 3: pentan-1-ol, C5H12O, InChI=1S/C5H12O/c1-2-3-4-5-6/h6H,2-5H2,1H3
Compound 4: heptan-1-ol, C7H16O, InChI=1S/C7H16O/c1-2-3-4-5-6-7-8/h8H,2-7H2,1H3
Compound 5: ethanol, C2H6O, InChI=1S/C2H6O/c1-2-3/h3H,2H2,1H3, purity 99.9%
Compound 6: water, H2O, InChI=1S/H2O/h1H2, purity 99.8%

System: hexane; phases: Liquid
Property: Mass density, kg/m3 (Liquid); method: Vibrating tube method
Temperature, K	Pressure, kPa	Mass density, kg/m3	uncertainty
293.224	1999	661.4	5.18
293.224	3994	663.53	5.21
293.222	5999	665.43	5.23
293.224	8007	667.57	5.26
293.225	10003	669.41	5.29
293.225	13000	672.26	5.33
293.225	16006	675.2	5.37
293.226	19000	677.83	5.41
293.224	22004	680.38	5.45
293.226	25002	682.87	5.49
293.223	28004	685.01	5.53
293.226	30001	686.72	5.55
313.101	2005	643.6	5.02
313.1	3997	645.97	5.05
313.101	5999	648.24	5.08
313.101	8000	650.44	5.11
313.101	9999	652.57	5.14
313.101	12997	655.73	5.19
313.101	15999	659	5.23
313.1	18003	661.04	5.26
313.1	21999	664.77	5.32
313.1	24998	667.58	5.36
313.102	28001	670.32	5.4
313.103	30004	672.03	5.43
333.001	2004	624.85	4.85
333.002	4002	627.59	4.89
333.002	6003	630.29	4.92
333.002	8005	632.82	4.96
333.001	10008	635.78	4.99
333.002	12998	639.36	5.04
333.001	16002	642.74	5.09
333	19000	646.04	5.14
333.004	21993	649.32	5.18
333	25001	652.41	5.23
333.001	28000	655.31	5.27
333.003	30005	657.29	5.3
353.147	2003	605.15	4.68
353.145	4001	608.43	4.72
353.146	5997	611.57	4.76
353.144	8003	614.97	4.8
353.147	10009	618	4.84
353.146	13000	622.08	4.89
353.144	15997	625.92	4.94
353.146	19000	629.87	5
353.145	21998	633.46	5.05

System: hexane; phases: Liquid
Property: Viscosity, Pa*s (Liquid); method: Capillary tube (Ostwald; Ubbelohde) method
Temperature, K	Pressure, kPa	Viscosity, Pa*s	uncertainty
293.224	1999	0.00031961	1.525e-05
293.224	3994	0.00032866	1.568e-05
293.222	5999	0.00033904	1.617e-05
293.224	8007	0.00034832	1.661e-05
293.225	10003	0.00035763	1.705e-05
293.225	13000	0.00037133	1.77e-05
293.225	16006	0.00038507	1.835e-05
293.226	19000	0.00039903	1.901e-05
293.224	22004	0.00041352	1.97e-05
293.226	25002	0.00042804	2.039e-05
293.223	28004	0.00044275	2.108e-05
293.226	30001	0.0004521	2.153e-05
313.101	2005	0.00026144	1.249e-05
313.1	3997	0.00027016	1.291e-05
313.101	5999	0.00027742	1.325e-05
313.101	8000	0.00028532	1.362e-05
313.101	9999	0.00029341	1.401e-05
313.101	12997	0.00030501	1.456e-05
313.101	15999	0.0003165	1.51e-05
313.1	18003	0.00032433	1.547e-05
313.1	21999	0.00033989	1.621e-05
313.1	24998	0.00035043	1.671e-05
313.102	28001	0.00036305	1.731e-05
313.103	30004	0.00037003	1.764e-05
333.001	2004	0.00021919	1.049e-05
333.002	4002	0.00022599	1.081e-05
333.002	6003	0.00023278	1.114e-05
333.002	8005	0.00023958	1.146e-05
333.001	10008	0.0002467	1.18e-05
333.002	12998	0.00025648	1.226e-05
333.001	16002	0.00026669	1.274e-05
333	19000	0.00027663	1.321e-05
333.004	21993	0.00028635	1.367e-05
333	25001	0.00029601	1.413e-05
333.001	28000	0.0003058	1.459e-05
333.003	30005	0.0003128	1.493e-05
353.147	2003	0.00018485	8.87e-06
353.145	4001	0.00019109	9.16e-06
353.146	5997	0.00019701	9.44e-06
353.144	8003	0.00020303	9.73e-06
353.147	10009	0.00020912	1.002e-05
353.146	13000	0.00021787	1.043e-05
353.144	15997	0.00022644	1.084e-05
353.146	19000	0.00023522	1.125e-05
353.145	21998	0.0002438	1.166e-05

System: heptane; phases: Liquid
Property: Mass density, kg/m3 (Liquid); method: Vibrating tube method
Temperature, K	Pressure, kPa	Mass density, kg/m3	uncertainty
293.249	2103	685.58	1.39
293.25	3666	687.27	1.4
293.249	6195	689.52	1.41
293.25	10385	693.22	1.43
293.248	14421	696.48	1.44
293.249	17447	698.88	1.46
293.249	20472	701.01	1.47
293.249	23543	703.3	1.48
293.253	26611	705.5	1.5
313.08	2050	669.15	1.36
313.08	4083	671.15	1.37
313.077	6733	673.77	1.38
313.075	11204	678.28	1.4
313.078	14195	681.03	1.42
313.075	17225	683.61	1.43
313.075	20247	686.13	1.44
313.078	23266	688.54	1.46
313.076	26286	691.26	1.47
313.074	29805	693.98	1.49
332.78	2084	652.25	1.33
332.774	4091	654.57	1.34
332.778	7031	658.26	1.35
332.776	11151	662.67	1.37
332.777	14177	665.56	1.39
332.779	17172	668.79	1.4
332.777	20193	671.47	1.42
332.778	23214	674.57	1.44
332.778	26231	677.28	1.45
352.391	2184	635.33	1.3
352.394	4102	637.96	1.31
352.397	7146	641.83	1.32
352.391	11159	646.85	1.35
352.391	14169	650.4	1.36
352.394	17199	653.84	1.38
352.397	20204	657.05	1.4
352.397	23212	660.04	1.41
352.396	26228	663.06	1.43
352.392	29758	666.6	1.45

System: heptane; phases: Liquid
Property: Viscosity, Pa*s (Liquid); method: Capillary tube (Ostwald; Ubbelohde) method
Temperature, K	Pressure, kPa	Viscosity, Pa*s	uncertainty
293.249	2103	0.00042289	5.82e-06
293.25	3666	0.00043166	5.94e-06
293.249	6195	0.00044485	6.11e-06
293.25	10385	0.00046806	6.41e-06
293.248	14421	0.0004907	6.7e-06
293.249	17447	0.0005062	6.91e-06
293.249	20472	0.00052371	7.13e-06
293.249	23543	0.0005407	7.35e-06
293.253	26611	0.00055674	7.56e-06
313.08	2050	0.00033879	4.74e-06
313.08	4083	0.00034721	4.84e-06
313.077	6733	0.00035895	5e-06
313.075	11204	0.00037824	5.25e-06
313.078	14195	0.00039122	5.41e-06
313.075	17225	0.00040491	5.59e-06
313.075	20247	0.00041854	5.77e-06
313.078	23266	0.00043139	5.94e-06
313.076	26286	0.00044492	6.11e-06
313.074	29805	0.00045962	6.3e-06
332.78	2084	0.00028049	3.98e-06
332.774	4091	0.00028858	4.09e-06
332.778	7031	0.00029944	4.23e-06
332.776	11151	0.00031425	4.42e-06
332.777	14177	0.00032605	4.57e-06
332.779	17172	0.0003367	4.71e-06
332.777	20193	0.00034719	4.84e-06
332.778	23214	0.00035809	4.99e-06
332.778	26231	0.00036886	5.12e-06
352.391	2184	0.00023458	3.39e-06
352.394	4102	0.00024126	3.48e-06
352.397	7146	0.00025137	3.61e-06
352.391	11159	0.00026353	3.77e-06
352.391	14169	0.0002732	3.89e-06
352.394	17199	0.00028298	4.02e-06
352.397	20204	0.00029216	4.13e-06
352.397	23212	0.00030151	4.25e-06
352.396	26228	0.00031059	4.37e-06
352.392	29758	0.00032066	4.5e-06

System: pentan-1-ol; phases: Liquid
Property: Mass density, kg/m3 (Liquid); method: Vibrating tube method
Temperature, K	Pressure, kPa	Mass density, kg/m3	uncertainty
298.151	2003	811.93	1.4
298.152	3999	813.3	1.4
298.153	6003	814.64	1.41
298.15	8005	815.96	1.41
298.151	10001	817.26	1.42
298.15	13000	819.15	1.42
298.149	16004	821	1.43
298.15	19006	822.8	1.44
298.151	22000	824.56	1.44
298.151	24998	826.27	1.45
323.15	1999	794.19	1.37
323.152	4001	795.77	1.37
323.149	6001	797.32	1.38
323.153	8000	798.83	1.38
323.154	9998	800.31	1.39
323.152	12999	802.47	1.4
323.151	16001	804.56	1.41
323.152	19002	806.59	1.41
323.151	22001	808.56	1.42
323.153	25002	810.48	1.43

System: pentan-1-ol; phases: Liquid
Property: Viscosity, Pa*s (Liquid); method: Capillary tube (Ostwald; Ubbelohde) method
Temperature, K	Pressure, kPa	Viscosity, Pa*s	uncertainty
298.151	2003	0.0035925	8.31e-05
298.152	3999	0.0036612	8.46e-05
298.153	6003	0.0037311	8.63e-05
298.15	8005	0.0037986	8.78e-05
298.151	10001	0.0038668	8.94e-05
298.15	13000	0.0039718	9.18e-05
298.149	16004	0.0040804	9.43e-05
298.15	19006	0.0041899	9.68e-05
298.151	22000	0.0043009	9.94e-05
298.151	24998	0.00441	0.0001019
323.15	1999	0.0018348	4.25e-05
323.152	4001	0.0018683	4.33e-05
323.149	6001	0.0019032	4.41e-05
323.153	8000	0.0019374	4.49e-05
323.154	9998	0.0019721	4.57e-05
323.152	12999	0.0020249	4.69e-05
323.151	16001	0.0020781	4.81e-05
323.152	19002	0.0021339	4.94e-05
323.151	22001	0.00219	5.07e-05
323.153	25002	0.002245	5.2e-05

System: heptan-1-ol; phases: Liquid
Property: Mass density, kg/m3 (Liquid); method: Vibrating tube method
Temperature, K	Pressure, kPa	Mass density, kg/m3	uncertainty
298.151	2002	819.81	1.52
298.153	3999	821.2	1.52
298.152	6006	822.3	1.53
298.151	8000	823.7	1.54
298.151	10002	824.8	1.55
298.15	12997	826.41	1.56
298.153	15999	828.31	1.57
298.152	18995	831.3	1.58
298.152	22001	833.2	1.59
298.149	25000	835.1	1.6
323.149	2006	802.09	1.48
323.153	4003	803.5	1.49
323.152	6000	804.98	1.5
323.151	7993	806.39	1.51
323.15	10000	807.79	1.52
323.152	13006	809.85	1.53
323.151	16007	811.88	1.54
323.151	19004	813.79	1.55
323.151	22008	815.68	1.57
323.15	25007	817.57	1.58

System: heptan-1-ol; phases: Liquid
Property: Viscosity, Pa*s (Liquid); method: Capillary tube (Ostwald; Ubbelohde) method
Temperature, K	Pressure, kPa	Viscosity, Pa*s	uncertainty
298.151	2002	0.0059862	9.34e-05
298.153	3999	0.0061102	9.53e-05
298.152	6006	0.0062332	9.72e-05
298.151	8000	0.0063592	9.91e-05
298.151	10002	0.0064869	0.000101
298.15	12997	0.0066828	0.000104
298.153	15999	0.006883	0.0001071
298.152	18995	0.007086	0.0001102
298.152	22001	0.0072973	0.0001134
298.149	25000	0.0075115	0.0001166
323.149	2006	0.0027785	4.37e-05
323.153	4003	0.0028324	4.46e-05
323.152	6000	0.0028869	4.54e-05
323.151	7993	0.0029421	4.63e-05
323.15	10000	0.003	4.72e-05
323.152	13006	0.003085	4.85e-05
323.151	16007	0.0031728	4.99e-05
323.151	19004	0.0032625	5.13e-05
323.151	22008	0.003354	5.27e-05
323.15	25007	0.003446	5.42e-05

System: ethanol; phases: Liquid
Property: Mass density, kg/m3 (Liquid); method: Vibrating tube method
Temperature, K	Pressure, kPa	Mass density, kg/m3	uncertainty
298.151	1022	785.87	0.56
298.153	3922	788.69	0.57
298.152	8793	792.53	0.58
298.152	12491	795.7	0.59
298.149	17711	799.91	0.6
298.153	21982	802.87	0.62
298.151	24097	804.5	0.62
298.152	26940	806.36	0.63
298.152	29139	807.89	0.64
323.157	626	763.659	0.548
323.154	3237	766.361	0.554
323.153	9248	772.358	0.572
323.155	12839	775.758	0.583
323.156	15104	777.664	0.59
323.153	18790	780.78	0.602
323.152	23256	784.532	0.618
323.152	25042	786.147	0.624
323.154	27936	788.458	0.635
333.279	909	754.25	0.543
333.278	1891	756.361	0.546
333.277	5093	758.805	0.555
333.278	9067	762.841	0.567
333.276	12887	766.568	0.58
333.275	16623	770.196	0.593
333.277	22108	775.145	0.613
333.277	25690	777.944	0.627
333.278	29272	780.933	0.641

System: ethanol; phases: Liquid
Property: Viscosity, Pa*s (Liquid); method: Capillary tube (Ostwald; Ubbelohde) method
Temperature, K	Pressure, kPa	Viscosity, Pa*s	uncertainty
298.151	1022	0.0010861	9.7e-06
298.153	3922	0.0011115	1e-05
298.152	8793	0.0011479	1.03e-05
298.152	12491	0.0011751	1.05e-05
298.149	17711	0.0012133	1.08e-05
298.153	21982	0.0012444	1.11e-05
298.151	24097	0.0012595	1.12e-05
298.152	26940	0.0012803	1.14e-05
298.152	29139	0.0012963	1.15e-05
323.157	626	0.00069783	6.43e-06
323.154	3237	0.00071104	6.54e-06
323.153	9248	0.00074353	6.82e-06
323.155	12839	0.00076157	6.97e-06
323.156	15104	0.00077324	7.07e-06
323.153	18790	0.00079281	7.24e-06
323.152	23256	0.00081532	7.43e-06
323.152	25042	0.00082356	7.5e-06
323.154	27936	0.00083674	7.61e-06
333.279	909	0.00058722	5.48e-06
333.278	1891	0.00059164	5.52e-06
333.277	5093	0.00060653	5.65e-06
333.278	9067	0.0006251	5.8e-06
333.276	12887	0.00064211	5.95e-06
333.275	16623	0.00065924	6.1e-06
333.277	22108	0.00068405	6.31e-06
333.277	25690	0.00069845	6.43e-06
333.278	29272	0.00071333	6.56e-06

System: water; phases: Liquid
Property: Mass density, kg/m3 (Liquid); method: Vibrating tube method
Temperature, K	Pressure, kPa	Mass density, kg/m3	uncertainty
293.361	2061	999.51	0.7
293.364	4085	999.98	0.7
293.373	7118	1001.28	0.7
293.38	11158	1003.59	0.7
293.385	17210	1006.18	0.71
293.384	20234	1006.98	0.71
293.381	23255	1008.25	0.71
293.372	26278	1010.35	0.71
313.087	2053	992.98	0.7
313.082	4076	994.07	0.7
313.083	7109	995.47	0.7
313.082	11150	996.66	0.7
313.082	14177	997.99	0.7
313.081	17203	999.9	0.7
313.079	20228	1000.99	0.7
313.079	23250	1001.91	0.7
313.079	26271	1003.18	0.7
313.079	29788	1004.77	0.7
332.862	4081	984.88	0.69
332.857	7113	985.99	0.69
332.855	11150	988.22	0.69
332.853	14173	989.5	0.7
332.848	17195	990.83	0.7
332.851	20214	991.48	0.7
332.851	26252	994.06	0.7
352.577	2044	972.64	0.68
352.574	4073	973.51	0.68
352.579	7107	975.4	0.68
352.587	11142	977	0.69
352.588	14161	977.85	0.69
352.595	17181	979.13	0.69
352.598	20194	980.96	0.69
352.596	23203	982.36	0.69
352.597	26211	983.69	0.69
352.597	29715	984.92	0.69

System: water; phases: Liquid
Property: Viscosity, Pa*s (Liquid); method: Capillary tube (Ostwald; Ubbelohde) method
Temperature, K	Pressure, kPa	Viscosity, Pa*s	uncertainty
293.361	2061	0.00099174	8.97e-06
293.364	4085	0.00099305	8.98e-06
293.373	7118	0.00099282	8.98e-06
293.38	11158	0.00098976	8.95e-06
293.385	17210	0.00098974	8.95e-06
293.384	20234	0.000988	8.94e-06
293.381	23255	0.00098832	8.94e-06
293.372	26278	0.00098635	8.92e-06
313.087	2053	0.00065383	6.07e-06
313.082	4076	0.00065346	6.07e-06
313.083	7109	0.00065379	6.07e-06
313.082	11150	0.00065461	6.08e-06
313.082	14177	0.00065498	6.08e-06
313.081	17203	0.00065524	6.08e-06
313.079	20228	0.00065567	6.09e-06
313.079	23250	0.00065594	6.09e-06
313.079	26271	0.00065622	6.09e-06
313.079	29788	0.00065864	6.11e-06
332.862	4081	0.00046855	4.48e-06
332.857	7113	0.00046847	4.48e-06
332.855	11150	0.00047004	4.5e-06
332.853	14173	0.00047066	4.5e-06
332.848	17195	0.00047118	4.51e-06
332.851	20214	0.00047253	4.52e-06
332.851	26252	0.00047515	4.54e-06
352.577	2044	0.0003565	3.53e-06
352.574	4073	0.00035741	3.54e-06
352.579	7107	0.00035821	3.54e-06
352.587	11142	0.00035918	3.55e-06
352.588	14161	0.00036004	3.56e-06
352.595	17181	0.00036096	3.57e-06
352.598	20194	0.00036171	3.57e-06
352.596	23203	0.00036272	3.58e-06
352.597	26211	0.00036377	3.59e-06
352.597	29715	0.00036477	3.6e-06
