Measured thermophysical data. Liquid-Liquid Equilibrium Measurements for Model Systems Related to Catalytic Fast Pyrolysis of Biomass
Source: J. Chem. Eng. Data, 2017, 10.1021/acs.jced.6b00625
Compound 1: 2-ethylphenol, C8H10O, InChI=1S/C8H10O/c1-2-7-5-3-4-6-8(7)9/h3-6,9H,2H2,1H3, purity 96%
Compound 2: water, H2O, InChI=1S/H2O/h1H2, purity 99.9%
Compound 3: 3-ethylphenol, C8H10O, InChI=1S/C8H10O/c1-2-7-4-3-5-8(9)6-7/h3-6,9H,2H2,1H3, purity 96.1%
Compound 4: 4-ethylphenol, C8H10O, InChI=1S/C8H10O/c1-2-7-3-5-8(9)6-4-7/h3-6,9H,2H2,1H3, purity 98.7%
Compound 5: 2,3-benzofuran, C8H6O, InChI=1S/C8H6O/c1-2-4-8-7(3-1)5-6-9-8/h1-6H, purity 99.3%
Compound 6: 2-methoxyphenol, C7H8O2, InChI=1S/C7H8O2/c1-9-7-5-3-2-4-6(7)8/h2-5,8H,1H3, purity 99.8%
Compound 7: 3-methoxyphenol, C7H8O2, InChI=1S/C7H8O2/c1-9-7-4-2-3-6(8)5-7/h2-5,8H,1H3, purity 98.3%
Compound 8: 4-methoxyphenol, C7H8O2, InChI=1S/C7H8O2/c1-9-7-4-2-6(8)3-5-7/h2-5,8H,1H3, purity 99.4%
Compound 9: 1H-indene, C9H8, InChI=1S/C9H8/c1-2-5-9-7-3-6-8(9)4-1/h1-6H,7H2, purity 96.3%
Compound 10: toluene, C7H8, InChI=1S/C7H8/c1-7-5-3-2-4-6-7/h2-6H,1H3, purity 99.9%
Compound 11: phenol, C6H6O, InChI=1S/C6H6O/c7-6-4-2-1-3-5-6/h1-5,7H, purity 99.9%
Compound 12: 2,4-dimethylphenol, C8H10O, InChI=1S/C8H10O/c1-6-3-4-8(9)7(2)5-6/h3-5,9H,1-2H3, purity 99%

System: 2-ethylphenol + water; phases: Liquid mixture 1, Liquid mixture 2
Fixed: Pressure, kPa = 85
Property: Mole fraction of 2-ethylphenol (Liquid mixture 1); method: OTHER
Temperature, K	Mole fraction of 2-ethylphenol	uncertainty
300	0.0018	0.0002
320	0.0019	0.0002
340	0.0022	0.0002
360	0.0029	0.0002

System: 2-ethylphenol + water; phases: Liquid mixture 2, Liquid mixture 1
Fixed: Pressure, kPa = 85
Property: Mole fraction of 2-ethylphenol (Liquid mixture 2); method: Chromatography + Titration
Temperature, K	Mole fraction of 2-ethylphenol	uncertainty
300	0.642	0.02
320	0.622	0.014
340	0.593	0.015
360	0.57	0.037
380	0.54	0.024
400	0.513	0.013
420	0.477	0.013
440	0.413	0.015

System: 3-ethylphenol + water; phases: Liquid mixture 1, Liquid mixture 2
Fixed: Pressure, kPa = 85
Property: Mole fraction of 3-ethylphenol (Liquid mixture 1); method: OTHER
Temperature, K	Mole fraction of 3-ethylphenol	uncertainty
300	0.0034	0.0002
320	0.0021	0.0002
340	0.0026	0.0002
360	0.003	0.0002

System: 3-ethylphenol + water; phases: Liquid mixture 2, Liquid mixture 1
Fixed: Pressure, kPa = 85
Property: Mole fraction of 3-ethylphenol (Liquid mixture 2); method: Chromatography + Titration
Temperature, K	Mole fraction of 3-ethylphenol	uncertainty
300	0.6	0.009
320	0.58	0.01
340	0.535	0.014
360	0.502	0.024

System: 4-ethylphenol + water; phases: Liquid mixture 1, Liquid mixture 2
Fixed: Pressure, kPa = 85
Property: Mole fraction of 4-ethylphenol (Liquid mixture 1); method: OTHER
Temperature, K	Mole fraction of 4-ethylphenol	uncertainty
300	0.0025	0.0002
320	0.0017	0.0002
340	0.0019	0.0002
360	0.0031	0.0004

System: 4-ethylphenol + water; phases: Liquid mixture 2, Liquid mixture 1
Fixed: Pressure, kPa = 85
Property: Mole fraction of 4-ethylphenol (Liquid mixture 2); method: Chromatography + Titration
Temperature, K	Mole fraction of 4-ethylphenol	uncertainty
300	0.515	0.045
320	0.49	0.045
340	0.474	0.03
360	0.448	0.01
380	0.416	0.013

System: 2,3-benzofuran + water; phases: Liquid mixture 1, Liquid mixture 2
Fixed: Pressure, kPa = 85
Property: Mole fraction of 2,3-benzofuran (Liquid mixture 1); method: OTHER
Temperature, K	Mole fraction of 2,3-benzofuran	uncertainty
300	0.00023	4e-05
320	0.00021	4e-05
340	0.00026	4e-05
360	0.00035	4e-05

System: 2,3-benzofuran + water; phases: Liquid mixture 2, Liquid mixture 1
Fixed: Pressure, kPa = 85
Property: Mole fraction of 2,3-benzofuran (Liquid mixture 2); method: Chromatography + Titration
Temperature, K	Mole fraction of 2,3-benzofuran	uncertainty
300	0.9905	0.0006
320	0.9855	0.0005
340	0.9772	0.0019
360	0.9663	0.0008

System: 2-methoxyphenol + water; phases: Liquid mixture 1, Liquid mixture 2
Fixed: Pressure, kPa = 85
Property: Mole fraction of 2-methoxyphenol (Liquid mixture 1); method: OTHER
Temperature, K	Mole fraction of 2-methoxyphenol	uncertainty
300	0.006	0.0004
320	0.0056	0.0006
340	0.0062	0.0006
360	0.008	0.001

System: 2-methoxyphenol + water; phases: Liquid mixture 2, Liquid mixture 1
Fixed: Pressure, kPa = 85
Property: Mole fraction of 2-methoxyphenol (Liquid mixture 2); method: Chromatography + Titration
Temperature, K	Mole fraction of 2-methoxyphenol	uncertainty
300	0.764	0.013
320	0.741	0.011
340	0.703	0.014
360	0.688	0.019

System: 3-methoxyphenol + water; phases: Liquid mixture 1, Liquid mixture 2
Fixed: Pressure, kPa = 85
Property: Mole fraction of 3-methoxyphenol (Liquid mixture 1); method: OTHER
Temperature, K	Mole fraction of 3-methoxyphenol	uncertainty
300	0.0097	0.0003
320	0.01	0.0008
340	0.0129	0.0007
360	0.0226	0.0019

System: 3-methoxyphenol + water; phases: Liquid mixture 2, Liquid mixture 1
Fixed: Pressure, kPa = 85
Property: Mole fraction of 3-methoxyphenol (Liquid mixture 2); method: Chromatography + Titration
Temperature, K	Mole fraction of 3-methoxyphenol	uncertainty
300	0.4	0.039
320	0.371	0.01
340	0.319	0.027
360	0.274	0.017

System: 4-methoxyphenol + water; phases: Liquid mixture 1, Liquid mixture 2
Fixed: Pressure, kPa = 85
Property: Mole fraction of 4-methoxyphenol (Liquid mixture 1); method: OTHER
Temperature, K	Mole fraction of 4-methoxyphenol	uncertainty
300	0.0127	0.0007
320	0.0158	0.0022
340	0.0216	0.0028
360	0.0329	0.0017

System: 4-methoxyphenol + water; phases: Liquid mixture 2, Liquid mixture 1
Fixed: Pressure, kPa = 85
Property: Mole fraction of 4-methoxyphenol (Liquid mixture 2); method: Chromatography + titration
Temperature, K	Mole fraction of 4-methoxyphenol	uncertainty
300	0.4171	0.0097
320	0.384	0.0089
340	0.3238	0.0259
360	0.2575	0.0077

System: 1H-indene + water; phases: Liquid mixture 1, Liquid mixture 2
Fixed: Pressure, kPa = 85
Property: Mole fraction of 1H-indene (Liquid mixture 1); method: OTHER
Temperature, K	Mole fraction of 1H-indene	uncertainty
300	4e-05	2e-05
320	9e-05	2e-05
340	0.0001	2e-05
360	0.00014	2e-05

System: 1H-indene + water; phases: Liquid mixture 2, Liquid mixture 1
Fixed: Pressure, kPa = 85
Property: Mole fraction of 1H-indene (Liquid mixture 2); method: Chromatography + titration
Temperature, K	Mole fraction of 1H-indene	uncertainty
300	0.9942	0.0002
320	0.9905	0.0006
340	0.9851	0.0004
360	0.9766	0.0008

System: toluene + 4-methoxyphenol + water; phases: Liquid mixture 1, Liquid mixture 2
Fixed: Pressure, kPa = 85
Property: Mole fraction of toluene (Liquid mixture 1); method: Chromatography + Titration
Property: Mole fraction of 4-methoxyphenol (Liquid mixture 2); method: Chromatography + Titration
Property: Mole fraction of toluene (Liquid mixture 2); method: Chromatography + Titration
Temperature, K	Mole fraction of 4-methoxyphenol	Mole fraction of toluene	uncertainty	Mole fraction of 4-methoxyphenol	uncertainty	Mole fraction of toluene	uncertainty
300	0.0069	7e-05	1e-05	0.454	0.014	0.061	
340	0.0105	0.00014	1e-05	0.408	0.012	0.226	
340	0.0097	0.00011	1e-05	0.286	0.009	0.58	
340	0.0057	0.00017	1e-05	0.158	0.005	0.789	
360	0.0195	0.00025	1e-05	0.344	0.01	0.043	
360	0.013	0.00022	1e-05	0.382	0.011	0.226	
360	0.0138	0.00023	1e-05	0.288	0.009	0.556	
360	0.0091	0.00019	1e-05	0.149	0.005	0.788	
300	0.007	0.00016	1e-05	0.393	0.012	0.304	
300	0.0055	0.0001	1e-05	0.264	0.008	0.627	
300	0.006	5e-05	1e-05	0.145	0.004	0.816	
320	0.0096	0.00013	1e-05	0.42	0.013	0.058	
320	0.0083	9e-05	1e-05	0.404	0.012	0.266	
320	0.007	9e-05	1e-05	0.26	0.008	0.623	
320	0.005	5e-05	1e-05	0.174	0.005	0.781	
340	0.0133	0.00014	1e-05	0.388	0.012	0.05	

System: toluene + 3-ethylphenol + water; phases: Liquid mixture 1, Liquid mixture 2
Fixed: Pressure, kPa = 85
Property: Mole fraction of toluene (Liquid mixture 1); method: Chromatography + Titration
Property: Mole fraction of 3-ethylphenol (Liquid mixture 2); method: Chromatography + Titration
Property: Mole fraction of toluene (Liquid mixture 2); method: Chromatography + Titration
Temperature, K	Mole fraction of 3-ethylphenol	Mole fraction of toluene	uncertainty	Mole fraction of 3-ethylphenol	uncertainty	Mole fraction of toluene	uncertainty
300	0.0014	0.00011	1e-05	0.579	0.013	0.078	
340	0.002	0.00015	1e-05	0.51	0.015	0.198	
340	0.0015	0.00012	1e-05	0.398	0.012	0.473	
340	0.0011	9e-05	1e-05	0.279	0.008	0.648	
360	0.0031	0.00019	1e-05	0.505	0.015	0.063	
360	0.0023	0.00017	1e-05	0.51	0.015	0.176	
360	0.0016	0.00012	1e-05	0.405	0.012	0.448	
360	0.0014	7e-05	1e-05	0.275	0.008	0.636	
300	0.0015	0.00012	1e-05	0.541	0.014	0.213	
300	0.0012	0.0001	1e-05	0.384	0.012	0.514	
300	0.0008	5e-05	1e-05	0.258	0.008	0.701	
320	0.0015	0.00011	1e-05	0.557	0.013	0.072	
320	0.0016	0.00013	1e-05	0.532	0.014	0.202	
320	0.0013	0.00011	1e-05	0.396	0.012	0.488	
320	0.0009	8e-05	1e-05	0.26	0.008	0.694	
340	0.0029	0.00018	1e-05	0.536	0.014	0.065	

System: toluene + phenol + water; phases: Liquid mixture 1, Liquid mixture 2
Fixed: Pressure, kPa = 85
Property: Mole fraction of toluene (Liquid mixture 1); method: Chromatography + Titration
Property: Mole fraction of phenol (Liquid mixture 2); method: Chromatography + Titration
Property: Mole fraction of toluene (Liquid mixture 2); method: Chromatography + Titration
Temperature, K	Mole fraction of phenol	Mole fraction of toluene	uncertainty	Mole fraction of phenol	uncertainty	Mole fraction of toluene	uncertainty
300	0.0182	5e-05	1e-05	0.404	0.012	0.033	
340	0.02	0.00015	1e-05	0.402	0.012	0.114	
340	0.0134	9e-05	1e-05	0.357	0.011	0.452	
340	0.0092	0.00016	1e-05	0.215	0.006	0.704	
360	0.0322	0.00032	1e-05	0.298	0.009	0.046	
360	0.0252	0.00023	1e-05	0.367	0.011	0.103	
360	0.0159	0.00017	1e-05	0.362	0.011	0.421	
360	0.0104	0.0001	1e-05	0.208	0.006	0.698	
300	0.0152	7e-05	1e-05	0.441	0.013	0.14	
300	0.0104	5e-05	1e-05	0.371	0.011	0.466	
300	0.0081	5e-05	1e-05	0.23	0.007	0.706	
320	0.0208	6e-05	1e-05	0.368	0.011	0.03	
320	0.0156	0.00019	1e-05	0.426	0.013	0.127	
320	0.0113	5e-05	1e-05	0.349	0.01	0.476	
320	0.0088	0.0001	1e-05	0.224	0.007	0.706	
340	0.0234	0.00012	1e-05	0.366	0.011	0.046	

System: 2,4-dimethylphenol + toluene + water; phases: Liquid mixture 1, Liquid mixture 2
Fixed: Pressure, kPa = 85
Property: Mole fraction of toluene (Liquid mixture 1); method: Chromatography + titration
Property: Mole fraction of 2,4-dimethylphenol (Liquid mixture 2); method: Chromatography + titration
Property: Mole fraction of toluene (Liquid mixture 2); method: Chromatography + titration
Temperature, K	Mole fraction of 2,4-dimethylphenol	Mole fraction of toluene	uncertainty	Mole fraction of 2,4-dimethylphenol	uncertainty	Mole fraction of toluene	uncertainty
300	0.0021	0.00015	1e-05	0.591	0.012	0.068	
340	0.0013	6e-05	1e-05	0.558	0.013	0.193	
340	0.001	7e-05	1e-05	0.344	0.01	0.553	
340	0.0006	0.0001	1e-05	0.228	0.007	0.724	
360	0.0027	6e-05	1e-05	0.545	0.014	0.068	
360	0.0018	7e-05	1e-05	0.541	0.014	0.196	
360	0.001	0.0001	1e-05	0.348	0.01	0.534	
360	0.0007	8e-05	1e-05	0.244	0.007	0.697	
300	0.0011	7e-05	1e-05	0.549	0.014	0.228	
300	0.0007	7e-05	1e-05	0.351	0.011	0.564	
300	0.0005	0.00013	1e-05	0.212	0.006	0.751	
320	0.0015	0.00016	1e-05	0.567	0.013	0.075	
320	0.0016	7e-05	1e-05	0.543	0.014	0.219	
320	0.0007	0.00017	1e-05	0.361	0.011	0.545	
320	0.0005	0.00019	1e-05	0.207	0.006	0.751	
340	0.0025	5e-05	1e-05	0.561	0.013	0.072	
