Measured thermophysical data. Isobaric Vapor Liquid Equilibria for Binary Mixtures of Isoamyl Acetate + Ethyl Acetate at 50 and 100 kPa
Source: J. Chem. Eng. Data, 2019, 10.1021/acs.jced.8b01053
Compound 1: ethyl acetate, C4H8O2, InChI=1S/C4H8O2/c1-3-6-4(2)5/h3H2,1-2H3, purity 99%
Compound 2: 3-methylbutyl ethanoate, C7H14O2, InChI=1S/C7H14O2/c1-6(2)4-5-9-7(3)8/h6H,4-5H2,1-3H3, purity 99%

System: ethyl acetate; phases: Liquid, Gas
Property: Vapor or sublimation pressure, kPa (Liquid); method: Ebulliometric method (Recirculating still)
Temperature, K	Vapor or sublimation pressure, kPa	uncertainty
349.53	100	1
330.01	50	1

System: 3-methylbutyl ethanoate; phases: Liquid, Gas
Property: Vapor or sublimation pressure, kPa (Liquid); method: Ebulliometric method (Recirculating still)
Temperature, K	Vapor or sublimation pressure, kPa	uncertainty
413.46	100	1
391.07	50	1

System: ethyl acetate + 3-methylbutyl ethanoate; phases: Gas, Liquid
Property: Mole fraction of ethyl acetate (Gas); method: Chromatography
Pressure, kPa	Mole fraction of ethyl acetate	Mole fraction of ethyl acetate	uncertainty
100	1	1	
100	0.936	0.994	0.006
100	0.881	0.988	0.012
100	0.835	0.982	0.018
100	0.798	0.977	0.02
100	0.753	0.97	0.02
100	0.726	0.965	0.02
100	0.693	0.959	0.02
100	0.667	0.955	0.021
100	0.63	0.943	0.021
100	0.597	0.933	0.021
100	0.578	0.928	0.021
100	0.553	0.923	0.021
100	0.519	0.911	0.022
100	0.446	0.876	0.024
100	0.341	0.801	0.024
100	0.306	0.78	0.025
100	0.292	0.77	0.025
100	0.263	0.743	0.034
100	0.245	0.705	0.034
100	0.208	0.658	0.039
100	0.158	0.562	0.046
100	0.146	0.525	0.046
100	0.135	0.504	0.053
100	0.122	0.485	0.051
100	0.083	0.379	0.08
100	0.012	0.069	0.056
100	0	0	
50	1	1	
50	0.954	0.997	0.003
50	0.929	0.995	0.005
50	0.894	0.992	0.008
50	0.823	0.986	0.014
50	0.775	0.978	0.02
50	0.737	0.974	0.02
50	0.632	0.959	0.021
50	0.516	0.922	0.022
50	0.47	0.891	0.022
50	0.418	0.873	0.022
50	0.37	0.852	0.023
50	0.322	0.819	0.025
50	0.299	0.797	0.028
50	0.263	0.762	0.028
50	0.239	0.741	0.03
50	0.206	0.699	0.038
50	0.181	0.647	0.045
50	0.139	0.564	0.058
50	0.101	0.43	0.078
50	0.016	0.104	0.065
50	0	0	

System: ethyl acetate + 3-methylbutyl ethanoate; phases: Liquid, Gas
Property: Boiling temperature at pressure P, K (Liquid); method: Ebulliometric method (Recirculating still)
Pressure, kPa	Mole fraction of ethyl acetate	Boiling temperature at pressure P, K	uncertainty
100	1	349.53	0.31
100	0.936	350.12	0.44
100	0.881	351.42	0.62
100	0.835	352.84	0.7
100	0.798	354.05	0.61
100	0.753	355.01	0.66
100	0.726	356.2	0.86
100	0.693	357.43	0.79
100	0.667	358.33	0.84
100	0.63	359.89	0.89
100	0.597	361.24	0.92
100	0.578	362.3	0.93
100	0.553	363.21	0.86
100	0.519	364.65	1.08
100	0.446	368.66	1.32
100	0.341	375.95	1.4
100	0.306	378.12	1.47
100	0.292	379.19	1.45
100	0.263	381.52	1.72
100	0.245	383.76	1.72
100	0.208	386.24	1.97
100	0.158	392.08	2.48
100	0.146	393.44	2.39
100	0.135	395.29	2.42
100	0.122	396.46	2.47
100	0.083	401.17	2.93
100	0.012	412.3	1.91
100	0	413.46	0.33
50	1	330.01	0.27
50	0.954	330.69	0.39
50	0.929	330.99	0.48
50	0.894	331.85	0.55
50	0.823	333.55	0.57
50	0.775	334.85	0.65
50	0.737	336.13	0.72
50	0.632	339.59	0.79
50	0.516	344.37	0.91
50	0.47	346.68	1.07
50	0.418	349.41	0.98
50	0.37	351.38	1.09
50	0.322	354.46	1.51
50	0.299	356.77	1.69
50	0.263	359.43	1.62
50	0.239	361.57	1.72
50	0.206	364.26	1.84
50	0.181	366.87	1.98
50	0.139	370.84	2.29
50	0.101	375.99	2.89
50	0.016	388.47	2.37
50	0	391.07	0.29
