Measured thermophysical data. Densities, Speeds of Sound, and Excess and Partial Excess Properties of Room Temperature Ionic Liquids of Type [Cnpy][X] or [Cn4mpy][X] (Where n = 6 or 8, [X] = Cl  or Br ) + Water Binary Mixtures at T = (308.15 and 318.15) K
Source: J. Chem. Eng. Data, 2016, 10.1021/acs.jced.6b00460
Compound 1: 1-hexylpyridinium chloride, C11H18ClN, InChI=1S/C11H18N.ClH/c1-2-3-4-6-9-12-10-7-5-8-11-12;/h5,7-8,10-11H,2-4,6,9H2,1H3;1H/q+1;/p-1, purity 98%
Compound 2: N-octylpyridinium chloride, C13H22ClN, InChI=1S/C13H22N.ClH/c1-2-3-4-5-6-8-11-14-12-9-7-10-13-14;/h7,9-10,12-13H,2-6,8,11H2,1H3;1H/q+1;/p-1, purity 98%
Compound 3: 1-hexylpyridinium bromide, C11H18BrN, InChI=1S/C11H18N.BrH/c1-2-3-4-6-9-12-10-7-5-8-11-12;/h5,7-8,10-11H,2-4,6,9H2,1H3;1H/q+1;/p-1, purity 98%
Compound 4: 1-octylpyridinium bromide, C13H22BrN, InChI=1S/C13H22N.BrH/c1-2-3-4-5-6-8-11-14-12-9-7-10-13-14;/h7,9-10,12-13H,2-6,8,11H2,1H3;1H/q+1;/p-1, purity 98%
Compound 5: 1-hexyl-4-methylpyridinium bromide, C12H20BrN, InChI=1S/C12H20N.BrH/c1-3-4-5-6-9-13-10-7-12(2)8-11-13;/h7-8,10-11H,3-6,9H2,1-2H3;1H/q+1;/p-1, purity 98%
Compound 6: water, H2O, InChI=1S/H2O/h1H2, purity 99.8%
Compound 7: 4-methyl-1-octylpyridinium chloride, C14H24ClN, InChI=1S/C14H24N.ClH/c1-3-4-5-6-7-8-11-15-12-9-14(2)10-13-15;/h9-10,12-13H,3-8,11H2,1-2H3;1H/q+1;/p-1, purity 98%

System: 1-hexylpyridinium chloride; phases: Liquid
Fixed: Pressure, kPa = 101.325
Property: Mass density, kg/m3 (Liquid); method: Vibrating tube method
Temperature, K	Mass density, kg/m3	uncertainty
308.15	1146.648	2.259
318.15	1142.773	2.255

System: 1-hexylpyridinium chloride; phases: Liquid
Fixed: Pressure, kPa = 101.325
Property: Speed of sound, m/s (Liquid); method: Sing-around technique in a fixed-path interferometer
Temperature, K	Speed of sound, m/s	uncertainty
308.15	1570.7	2.7
318.15	1549.2	2.7

System: N-octylpyridinium chloride; phases: Liquid
Fixed: Pressure, kPa = 101.325
Property: Mass density, kg/m3 (Liquid); method: Vibrating tube method
Temperature, K	Mass density, kg/m3	uncertainty
308.15	1128.779	2.242
318.15	1123.059	2.237

System: N-octylpyridinium chloride; phases: Liquid
Fixed: Pressure, kPa = 101.325
Property: Speed of sound, m/s (Liquid); method: Sing-around technique in a fixed-path interferometer
Temperature, K	Speed of sound, m/s	uncertainty
308.15	1482.6	2.6
318.15	1448.6	2.6

System: 1-hexylpyridinium bromide; phases: Liquid
Fixed: Pressure, kPa = 101.325
Property: Mass density, kg/m3 (Liquid); method: Vibrating tube method
Temperature, K	Mass density, kg/m3	uncertainty
308.15	1235.719	2.352
318.15	1229.228	2.345

System: 1-hexylpyridinium bromide; phases: Liquid
Fixed: Pressure, kPa = 101.325
Property: Speed of sound, m/s (Liquid); method: Sing-around technique in a fixed-path interferometer
Temperature, K	Speed of sound, m/s	uncertainty
308.15	1592.5	2.7
318.15	1557.2	2.7

System: 1-octylpyridinium bromide; phases: Liquid
Fixed: Pressure, kPa = 101.325
Property: Mass density, kg/m3 (Liquid); method: Vibrating tube method
Temperature, K	Mass density, kg/m3	uncertainty
308.15	1168.145	2.28
318.15	1161.808	2.274

System: 1-octylpyridinium bromide; phases: Liquid
Fixed: Pressure, kPa = 101.325
Property: Speed of sound, m/s (Liquid); method: Sing-around technique in a fixed-path interferometer
Temperature, K	Speed of sound, m/s	uncertainty
308.15	1507.1	2.6
318.15	1478.3	2.6

System: 1-hexyl-4-methylpyridinium bromide; phases: Liquid
Fixed: Pressure, kPa = 101.325
Property: Mass density, kg/m3 (Liquid); method: Vibrating tube method
Temperature, K	Mass density, kg/m3	uncertainty
308.15	1214.465	2.329
318.15	1207.881	2.321

System: 1-hexyl-4-methylpyridinium bromide; phases: Liquid
Fixed: Pressure, kPa = 101.325
Property: Speed of sound, m/s (Liquid); method: Sing-around technique in a fixed-path interferometer
Temperature, K	Speed of sound, m/s	uncertainty
308.15	1589.8	2.7
318.15	1558.7	2.7

System: water; phases: Liquid
Fixed: Pressure, kPa = 101.325
Property: Mass density, kg/m3 (Liquid); method: Vibrating tube method
Temperature, K	Mass density, kg/m3	uncertainty
308.15	994.028	2
318.15	990.203	2

System: water; phases: Liquid
Fixed: Pressure, kPa = 101.325
Property: Speed of sound, m/s (Liquid); method: Sing-around technique in a fixed-path interferometer
Temperature, K	Speed of sound, m/s	uncertainty
308.15	1519.6	1.8
318.15	1536.4	1.8

System: 4-methyl-1-octylpyridinium chloride; phases: Liquid
Fixed: Pressure, kPa = 101.325
Property: Mass density, kg/m3 (Liquid); method: Vibrating tube method
Temperature, K	Mass density, kg/m3	uncertainty
308.15	1107.792	2.223
318.15	1102.007	2.218

System: 4-methyl-1-octylpyridinium chloride; phases: Liquid
Fixed: Pressure, kPa = 101.325
Property: Speed of sound, m/s (Liquid); method: Sing-around technique in a fixed-path interferometer
Temperature, K	Speed of sound, m/s	uncertainty
308.15	1445.5	2.6
318.15	1411.7	2.6

System: 1-hexylpyridinium chloride + water; phases: Liquid
Fixed: Pressure, kPa = 101
Property: Mass density, kg/m3 (Liquid); method: Vibrating tube method
Temperature, K	Mole fraction of water	Mass density, kg/m3	uncertainty
308.15	0.0598	1146.465	2.212
308.15	0.1085	1146.263	2.179
308.15	0.2068	1145.596	2.124
308.15	0.2492	1145.159	2.105
308.15	0.3024	1144.441	2.084
308.15	0.4166	1142.045	2.05
308.15	0.4568	1140.821	2.041
308.15	0.5065	1138.925	2.031
308.15	0.6137	1132.917	2.017
308.15	0.6533	1129.748	2.013
308.15	0.709	1124.026	2.009
308.15	0.7521	1118.198	2.007
308.15	0.7936	1110.938	2.005
308.15	0.8561	1095.34	2.004
308.15	0.8966	1080.314	2.004
308.15	0.9528	1046.951	2.004
318.15	0.0598	1142.37	2.209
318.15	0.1085	1142.037	2.176
318.15	0.2068	1141.226	2.122
318.15	0.2492	1140.761	2.103
318.15	0.3024	1140.033	2.082
318.15	0.4166	1137.606	2.049
318.15	0.4568	1136.358	2.04
318.15	0.5065	1134.427	2.031
318.15	0.6137	1128.249	2.017
318.15	0.6533	1124.986	2.013
318.15	0.709	1119.084	2.009
318.15	0.7521	1113.124	2.007
318.15	0.7936	1105.729	2.005
318.15	0.8561	1090.016	2.004
318.15	0.8966	1074.987	2.004
318.15	0.9528	1042.004	2.004

System: 1-hexylpyridinium chloride + water; phases: Liquid
Fixed: Pressure, kPa = 101
Property: Speed of sound, m/s (Liquid); method: Sing-around technique in a fixed-path interferometer
Temperature, K	Mole fraction of water	Speed of sound, m/s	uncertainty
308.15	0.0598	1569.2	2.6
308.15	0.1085	1567.4	2.5
308.15	0.2068	1564.8	2.4
308.15	0.2492	1563.9	2.3
308.15	0.3024	1562.9	2.3
308.15	0.4166	1560.3	2.1
308.15	0.4568	1559.6	2.1
308.15	0.5065	1557.6	2.1
308.15	0.6137	1553.2	2
308.15	0.6533	1550.8	1.9
308.15	0.709	1547.4	1.9
308.15	0.7521	1542.8	1.9
308.15	0.7936	1539.5	1.8
308.15	0.8561	1534	1.8
308.15	0.8966	1529.9	1.8
308.15	0.9528	1524.5	1.8
318.15	0.0598	1548.7	2.6
318.15	0.1085	1548.1	2.5
318.15	0.2068	1547.2	2.4
318.15	0.2492	1546.6	2.3
318.15	0.3024	1546	2.3
318.15	0.4166	1544.8	2.1
318.15	0.4568	1544.1	2.1
318.15	0.5065	1543.4	2.1
318.15	0.6137	1542	2
318.15	0.6533	1541.4	1.9
318.15	0.709	1540.6	1.9
318.15	0.7521	1540	1.9
318.15	0.7936	1539.4	1.8
318.15	0.8561	1538.6	1.8
318.15	0.8966	1538.2	1.8
318.15	0.9528	1537.2	1.8

System: N-octylpyridinium chloride + water; phases: Liquid
Fixed: Pressure, kPa = 101
Property: Mass density, kg/m3 (Liquid); method: Vibrating tube method
Temperature, K	Mole fraction of water	Mass density, kg/m3	uncertainty
308.15	0.0625	1128.683	2.196
308.15	0.1156	1128.572	2.163
308.15	0.2085	1128.287	2.115
308.15	0.2545	1128.081	2.096
308.15	0.306	1127.759	2.077
308.15	0.4127	1126.708	2.047
308.15	0.4534	1126.087	2.039
308.15	0.4995	1125.189	2.03
308.15	0.6103	1121.679	2.016
308.15	0.6508	1119.68	2.013
308.15	0.6962	1116.701	2.01
308.15	0.7542	1111.295	2.007
308.15	0.8086	1103.646	2.005
308.15	0.8512	1094.75	2.004
308.15	0.9009	1078.753	2.004
308.15	0.9485	1052.468	2.004
318.15	0.0625	1122.768	2.192
318.15	0.1156	1122.558	2.159
318.15	0.2085	1122.177	2.112
318.15	0.2545	1121.955	2.093
318.15	0.306	1121.63	2.075
318.15	0.4127	1120.544	2.046
318.15	0.4534	1119.904	2.038
318.15	0.4995	1118.951	2.03
318.15	0.6103	1115.243	2.016
318.15	0.6508	1113.119	2.012
318.15	0.6962	1110.013	2.009
318.15	0.7542	1104.408	2.006
318.15	0.8086	1096.627	2.004
318.15	0.8512	1087.699	2.004
318.15	0.9009	1071.931	2.004
318.15	0.9485	1046.379	2.004

System: N-octylpyridinium chloride + water; phases: Liquid
Fixed: Pressure, kPa = 101
Property: Speed of sound, m/s (Liquid); method: Sing-around technique in a fixed-path interferometer
Temperature, K	Mole fraction of water	Speed of sound, m/s	uncertainty
308.15	0.0625	1483.2	2.6
308.15	0.1156	1484.1	2.5
308.15	0.2085	1485.3	2.4
308.15	0.2545	1486.2	2.3
308.15	0.306	1488	2.3
308.15	0.4127	1491.7	2.1
308.15	0.4534	1493.7	2.1
308.15	0.4995	1495	2.1
308.15	0.6103	1499.8	2
308.15	0.6508	1501.8	1.9
308.15	0.6962	1504.9	1.9
308.15	0.7542	1507.1	1.9
308.15	0.8086	1509.4	1.8
308.15	0.8512	1511.3	1.8
308.15	0.9009	1513.2	1.8
308.15	0.9485	1515.5	1.8
318.15	0.0625	1452.1	2.6
318.15	0.1156	1453.2	2.5
318.15	0.2085	1456.7	2.4
318.15	0.2545	1458.4	2.3
318.15	0.306	1461.8	2.3
318.15	0.4127	1464.8	2.1
318.15	0.4534	1466.1	2.1
318.15	0.4995	1469.4	2.1
318.15	0.6103	1473.8	2
318.15	0.6508	1477.2	1.9
318.15	0.6962	1481.8	1.9
318.15	0.7542	1487.1	1.9
318.15	0.8086	1493.7	1.8
318.15	0.8512	1497.9	1.8
318.15	0.9009	1505.5	1.8
318.15	0.9485	1515.2	1.8

System: water + 1-hexylpyridinium bromide; phases: Liquid
Fixed: Pressure, kPa = 101
Property: Mass density, kg/m3 (Liquid); method: Vibrating tube method
Temperature, K	Mole fraction of water	Mass density, kg/m3	uncertainty
308.15	0.0609	1234.998	2.289
308.15	0.1184	1234.108	2.238
308.15	0.2091	1232.191	2.17
308.15	0.2544	1230.929	2.142
308.15	0.3097	1229.049	2.113
308.15	0.414	1224.198	2.071
308.15	0.4533	1221.812	2.058
308.15	0.5028	1218.257	2.045
308.15	0.5928	1209.729	2.028
308.15	0.6486	1202.637	2.02
308.15	0.7138	1191.787	2.013
308.15	0.7554	1182.789	2.01
308.15	0.7995	1170.693	2.008
308.15	0.8534	1150.453	2.007
308.15	0.9011	1124.031	2.008
308.15	0.9511	1079.199	2.009
318.15	0.0609	1228.393	2.283
318.15	0.1184	1227.431	2.232
318.15	0.2091	1225.435	2.166
318.15	0.2544	1224.149	2.139
318.15	0.3097	1222.251	2.11
318.15	0.414	1217.393	2.069
318.15	0.4533	1215.009	2.057
318.15	0.5028	1211.458	2.044
318.15	0.5928	1202.97	2.027
318.15	0.6486	1195.909	2.019
318.15	0.7138	1185.103	2.013
318.15	0.7554	1176.186	2.01
318.15	0.7995	1164.193	2.008
318.15	0.8534	1144.158	2.006
318.15	0.9011	1118.078	2.008
318.15	0.9511	1073.953	2.009

System: water + 1-hexylpyridinium bromide; phases: Liquid
Fixed: Pressure, kPa = 101
Property: Speed of sound, m/s (Liquid); method: Sing-around technique in a fixed-path interferometer
Temperature, K	Mole fraction of water	Speed of sound, m/s	uncertainty
308.15	0.0609	1589.8	2.6
308.15	0.1184	1587.3	2.5
308.15	0.2091	1583.4	2.4
308.15	0.2544	1580.7	2.3
308.15	0.3097	1578.7	2.3
308.15	0.414	1574.6	2.2
308.15	0.4533	1572.9	2.1
308.15	0.5028	1571.8	2.1
308.15	0.5928	1570.1	2
308.15	0.6486	1565.9	1.9
308.15	0.7138	1561.6	1.9
308.15	0.7554	1557.1	1.9
308.15	0.7995	1551.1	1.8
308.15	0.8534	1543.3	1.8
308.15	0.9011	1535.9	1.8
308.15	0.9511	1528.1	1.8
318.15	0.0609	1556.2	2.6
318.15	0.1184	1555.1	2.5
318.15	0.2091	1553.2	2.4
318.15	0.2544	1552.2	2.3
318.15	0.3097	1551.4	2.3
318.15	0.414	1550	2.1
318.15	0.4533	1549.3	2.1
318.15	0.5028	1548.7	2.1
318.15	0.5928	1547.5	2
318.15	0.6486	1547.1	1.9
318.15	0.7138	1546.5	1.9
318.15	0.7554	1545.7	1.9
318.15	0.7995	1545	1.8
318.15	0.8534	1543.3	1.8
318.15	0.9011	1541.3	1.8
318.15	0.9511	1539.1	1.8

System: 1-octylpyridinium bromide + water; phases: Liquid
Fixed: Pressure, kPa = 101
Property: Mass density, kg/m3 (Liquid); method: Vibrating tube method
Temperature, K	Mole fraction of water	Mass density, kg/m3	uncertainty
308.15	0.0524	1167.921	2.235
308.15	0.1125	1167.754	2.192
308.15	0.2085	1167.441	2.134
308.15	0.2612	1167.108	2.109
308.15	0.3065	1166.665	2.09
308.15	0.4098	1164.793	2.057
308.15	0.4611	1163.239	2.044
308.15	0.5075	1161.354	2.035
308.15	0.6091	1155.071	2.02
308.15	0.6541	1151.025	2.015
308.15	0.7031	1145.399	2.011
308.15	0.7485	1138.701	2.008
308.15	0.8065	1127.146	2.006
308.15	0.8545	1113.645	2.005
308.15	0.9065	1091.898	2.005
308.15	0.9503	1062.048	2.006
318.15	0.0524	1161.501	2.23
318.15	0.1125	1161.258	2.187
318.15	0.2085	1160.865	2.131
318.15	0.2612	1160.512	2.106
318.15	0.3065	1160.042	2.088
318.15	0.4098	1158.107	2.055
318.15	0.4611	1156.52	2.043
318.15	0.5075	1154.588	2.034
318.15	0.6091	1148.196	2.019
318.15	0.6541	1144.096	2.014
318.15	0.7031	1138.431	2.011
318.15	0.7485	1131.687	2.008
318.15	0.8065	1120.149	2.005
318.15	0.8545	1106.77	2.004
318.15	0.9065	1085.365	2.005
318.15	0.9503	1056.239	2.006

System: 1-octylpyridinium bromide + water; phases: Liquid
Fixed: Pressure, kPa = 101
Property: Speed of sound, m/s (Liquid); method: Sing-around technique in a fixed-path interferometer
Temperature, K	Mole fraction of water	Speed of sound, m/s	uncertainty
308.15	0.0524	1507.5	2.6
308.15	0.1125	1508.2	2.5
308.15	0.2085	1509.1	2.4
308.15	0.2612	1509.6	2.3
308.15	0.3065	1510.1	2.3
308.15	0.4098	1511.2	2.1
308.15	0.4611	1511.8	2.1
308.15	0.5075	1512.2	2.1
308.15	0.6091	1513.8	2
308.15	0.6541	1514.5	1.9
308.15	0.7031	1515.1	1.9
308.15	0.7485	1516	1.9
308.15	0.8065	1516.8	1.8
308.15	0.8545	1517.5	1.8
308.15	0.9065	1518.2	1.8
308.15	0.9503	1518.8	1.8
318.15	0.0524	1479.5	2.6
318.15	0.1125	1481.4	2.5
318.15	0.2085	1483.4	2.4
318.15	0.2612	1485	2.3
318.15	0.3065	1486.3	2.3
318.15	0.4098	1489.1	2.1
318.15	0.4611	1490.4	2.1
318.15	0.5075	1492	2
318.15	0.6091	1494.8	2
318.15	0.6541	1497.2	1.9
318.15	0.7031	1502.2	1.9
318.15	0.7485	1506.7	1.9
318.15	0.8065	1512.5	1.8
318.15	0.8545	1518	1.8
318.15	0.9065	1523.5	1.8
318.15	0.9503	1529.3	1.8

System: water + 1-hexyl-4-methylpyridinium bromide; phases: Liquid
Fixed: Pressure, kPa = 101
Property: Mass density, kg/m3 (Liquid); method: Vibrating tube method
Temperature, K	Mole fraction of water	Mass density, kg/m3	uncertainty
308.15	0.0528	1214.115	2.277
308.15	0.1126	1213.445	2.226
308.15	0.2082	1211.694	2.159
308.15	0.2609	1210.335	2.129
308.15	0.3062	1208.903	2.107
308.15	0.4101	1204.557	2.067
308.15	0.4609	1201.709	2.052
308.15	0.5077	1198.654	2.041
308.15	0.6089	1189.793	2.023
308.15	0.6539	1184.571	2.018
308.15	0.7029	1177.579	2.013
308.15	0.7484	1169.438	2.01
308.15	0.8066	1155.557	2.007
308.15	0.8545	1139.329	2.006
308.15	0.9066	1112.818	2.007
308.15	0.9502	1076.22	2.008
318.15	0.0528	1207.389	2.27
318.15	0.1126	1206.615	2.22
318.15	0.2082	1204.8	2.155
318.15	0.2609	1203.431	2.125
318.15	0.3062	1202.014	2.104
318.15	0.4101	1197.716	2.065
318.15	0.4609	1194.913	2.05
318.15	0.5077	1191.88	2.04
318.15	0.6089	1183.068	2.022
318.15	0.6539	1177.868	2.017
318.15	0.7029	1170.891	2.013
318.15	0.7484	1162.782	2.009
318.15	0.8066	1148.975	2.007
318.15	0.8545	1132.884	2.006
318.15	0.9066	1106.738	2.007
318.15	0.9502	1070.752	2.008

System: water + 1-hexyl-4-methylpyridinium bromide; phases: Liquid
Fixed: Pressure, kPa = 101
Property: Speed of sound, m/s (Liquid); method: Sing-around technique in a fixed-path interferometer
Temperature, K	Mole fraction of water	Speed of sound, m/s	uncertainty
308.15	0.0528	1586.8	2.6
308.15	0.1126	1583.6	2.5
308.15	0.2082	1579.1	2.4
308.15	0.2609	1575.7	2.3
308.15	0.3062	1573.2	2.3
308.15	0.4101	1568.4	2.2
308.15	0.4609	1565.3	2.1
308.15	0.5077	1563	2.1
308.15	0.6089	1557.2	2
308.15	0.6539	1553.3	1.9
308.15	0.7029	1547.7	1.9
308.15	0.7484	1542.9	1.9
308.15	0.8066	1537.6	1.8
308.15	0.8545	1533.7	1.8
308.15	0.9066	1529.4	1.8
308.15	0.9502	1524.9	1.8
318.15	0.0528	1557.9	2.6
318.15	0.1126	1557	2.5
318.15	0.2082	1555.2	2.4
318.15	0.2609	1554.2	2.3
318.15	0.3062	1553.2	2.3
318.15	0.4101	1551.7	2.2
318.15	0.4609	1550.7	2.1
318.15	0.5077	1549.8	2.1
318.15	0.6089	1547.7	2
318.15	0.6539	1546	1.9
318.15	0.7029	1544.7	1.9
318.15	0.7484	1543.5	1.9
318.15	0.8066	1542	1.8
318.15	0.8545	1540.5	1.8
318.15	0.9066	1539.1	1.8
318.15	0.9502	1537.8	1.8

System: water + 4-methyl-1-octylpyridinium chloride; phases: Liquid
Fixed: Pressure, kPa = 101
Property: Mass density, kg/m3 (Liquid); method: Vibrating tube method
Temperature, K	Mole fraction of water	Mass density, kg/m3	uncertainty
308.15	0.0612	1107.62	2.182
308.15	0.1098	1107.564	2.153
308.15	0.2054	1107.515	2.107
308.15	0.2476	1107.464	2.09
308.15	0.3088	1107.297	2.07
308.15	0.4187	1106.441	2.042
308.15	0.4521	1105.967	2.035
308.15	0.5065	1104.889	2.027
308.15	0.6021	1101.754	2.015
308.15	0.6532	1099.162	2.011
308.15	0.7042	1095.661	2.008
308.15	0.7565	1090.744	2.006
308.15	0.8029	1084.748	2.004
308.15	0.8577	1074.574	2.003
308.15	0.9035	1061.607	2.003
308.15	0.9511	1039.582	2.003
318.15	0.0612	1101.693	2.177
318.15	0.1098	1101.551	2.149
318.15	0.2054	1101.393	2.104
318.15	0.2476	1101.31	2.088
318.15	0.3088	1101.101	2.068
318.15	0.4187	1100.183	2.041
318.15	0.4521	1099.685	2.034
318.15	0.5065	1098.568	2.026
318.15	0.6021	1095.317	2.015
318.15	0.6532	1092.655	2.011
318.15	0.7042	1089.069	2.008
318.15	0.7565	1084.091	2.005
318.15	0.8029	1078.064	2.004
318.15	0.8577	1067.966	2.003
318.15	0.9035	1055.249	2.003
318.15	0.9511	1033.917	2.003

System: water + 4-methyl-1-octylpyridinium chloride; phases: Liquid
Fixed: Pressure, kPa = 101
Property: Speed of sound, m/s (Liquid); method: Sing-around technique in a fixed-path interferometer
Temperature, K	Mole fraction of water	Speed of sound, m/s	uncertainty
308.15	0.0612	1448.6	2.6
308.15	0.1098	1452	2.5
308.15	0.2054	1457.5	2.4
308.15	0.2476	1459.9	2.3
308.15	0.3088	1463.2	2.3
308.15	0.4187	1468.7	2.1
308.15	0.4521	1472.2	2.1
308.15	0.5065	1475.1	2
308.15	0.6021	1483.4	2
308.15	0.6532	1487.9	1.9
308.15	0.7042	1492.5	1.9
308.15	0.7565	1497.2	1.9
308.15	0.8029	1501.7	1.8
308.15	0.8577	1505.2	1.8
308.15	0.9035	1510.4	1.8
308.15	0.9511	1514.3	1.8
318.15	0.0612	1417.4	2.6
318.15	0.1098	1421.5	2.5
318.15	0.2054	1430.4	2.4
318.15	0.2476	1435.3	2.3
318.15	0.3088	1439.9	2.3
318.15	0.4187	1451.7	2.1
318.15	0.4521	1454.6	2.1
318.15	0.5065	1461.8	2
318.15	0.6021	1475	2
318.15	0.6532	1482.3	1.9
318.15	0.7042	1490.3	1.9
318.15	0.7565	1498.6	1.9
318.15	0.8029	1506.7	1.8
318.15	0.8577	1513.6	1.8
318.15	0.9035	1521.1	1.8
318.15	0.9511	1528.4	1.8
