Measured thermophysical data. Speeds of Sound and Densities of Ternary and Quaternary Mixtures of Tetralin, Decalin, n-Decane, and n-Hexadecane: Experiments and Thermodynamic Modeling with PC-SAFT Equation of State
Source: J. Chem. Eng. Data, 2016, 10.1021/acs.jced.6b00246
Compound 1: 1,2,3,4-tetrahydronaphthalene, C10H12, InChI=1S/C10H12/c1-2-6-10-8-4-3-7-9(10)5-1/h1-2,5-6H,3-4,7-8H2, purity 98%
Compound 2: cis-decahydronaphthalene, C10H18, InChI=1S/C10H18/c1-2-6-10-8-4-3-7-9(10)5-1/h9-10H,1-8H2/t9-,10+, purity 99%
Compound 3: trans-decahydronaphthalene, C10H18, InChI=1S/C10H18/c1-2-6-10-8-4-3-7-9(10)5-1/h9-10H,1-8H2/t9-,10-, purity 99%

System: 1,2,3,4-tetrahydronaphthalene + cis-decahydronaphthalene + trans-decahydronaphthalene; phases: Liquid
Fixed: Pressure, kPa = 100
Property: Mass density, kg/m3 (Liquid); method: Vibrating tube method
Temperature, K	Mole fraction of 1,2,3,4-tetrahydronaphthalene	Mole fraction of cis-decahydronaphthalene	Mass density, kg/m3	uncertainty
313.15	0.2505	0.3077	884.73	1.77
323.15	0.2505	0.3077	877.09	1.76
333.15	0.2505	0.3077	869.44	1.76
313.15	0.5005	0.2051	905.69	1.9
323.15	0.5005	0.2051	897.95	1.9
333.15	0.5005	0.2051	890.19	1.9
313.15	0.7504	0.1025	928.39	2.18
323.15	0.7504	0.1025	920.54	2.17
333.15	0.7504	0.1025	912.68	2.17

System: 1,2,3,4-tetrahydronaphthalene + cis-decahydronaphthalene + trans-decahydronaphthalene; phases: Liquid
Fixed: Pressure, kPa = 100
Fixed: Frequency, MHz = 4
Property: Speed of sound, m/s (Liquid); method: Single path-length method
Temperature, K	Mole fraction of 1,2,3,4-tetrahydronaphthalene	Mole fraction of cis-decahydronaphthalene	Speed of sound, m/s	uncertainty
313.15	0.2505	0.3077	1355	3
323.15	0.2505	0.3077	1315	3
333.15	0.2505	0.3077	1275	3
313.15	0.5005	0.2051	1370	3
323.15	0.5005	0.2051	1333	3
333.15	0.5005	0.2051	1294	3
313.15	0.7504	0.1025	1389	3
323.15	0.7504	0.1025	1351	3
333.15	0.7504	0.1025	1312	3

System: 1,2,3,4-tetrahydronaphthalene + cis-decahydronaphthalene + trans-decahydronaphthalene; phases: Liquid
Fixed: Frequency, MHz = 4
Property: Speed of sound, m/s (Liquid); method: Single path-length method
Temperature, K	Mole fraction of 1,2,3,4-tetrahydronaphthalene	Mole fraction of cis-decahydronaphthalene	Pressure, kPa	Speed of sound, m/s	uncertainty
313.15	0.2505	0.3077	5000	1380	3
313.15	0.2505	0.3077	10000	1404	3
313.15	0.2505	0.3077	15000	1426	3
313.15	0.2505	0.3077	20000	1448	3
313.15	0.2505	0.3077	25000	1470	3
323.15	0.2505	0.3077	5000	1339	3
323.15	0.2505	0.3077	10000	1364	3
323.15	0.2505	0.3077	15000	1388	3
323.15	0.2505	0.3077	20000	1412	3
323.15	0.2505	0.3077	25000	1434	3
333.15	0.2505	0.3077	5000	1302	3
333.15	0.2505	0.3077	10000	1327	3
333.15	0.2505	0.3077	15000	1352	3
333.15	0.2505	0.3077	20000	1376	3
333.15	0.2505	0.3077	25000	1399	3
313.15	0.5005	0.2051	5000	1394	3
313.15	0.5005	0.2051	10000	1418	3
313.15	0.5005	0.2051	15000	1439	3
313.15	0.5005	0.2051	20000	1460	3
313.15	0.5005	0.2051	25000	1482	3
323.15	0.5005	0.2051	5000	1357	3
323.15	0.5005	0.2051	10000	1380	3
323.15	0.5005	0.2051	15000	1403	3
323.15	0.5005	0.2051	20000	1425	3
323.15	0.5005	0.2051	25000	1447	3
333.15	0.5005	0.2051	5000	1319	3
333.15	0.5005	0.2051	10000	1342	3
333.15	0.5005	0.2051	15000	1366	3
333.15	0.5005	0.2051	20000	1391	3
333.15	0.5005	0.2051	25000	1413	3
313.15	0.7504	0.1025	5000	1412	3
313.15	0.7504	0.1025	10000	1433	3
313.15	0.7504	0.1025	15000	1454	3
313.15	0.7504	0.1025	20000	1477	3
313.15	0.7504	0.1025	25000	1495	3
323.15	0.7504	0.1025	5000	1374	3
323.15	0.7504	0.1025	10000	1397	3
323.15	0.7504	0.1025	15000	1420	3
323.15	0.7504	0.1025	20000	1440	3
323.15	0.7504	0.1025	25000	1462	3
333.15	0.7504	0.1025	5000	1336	3
333.15	0.7504	0.1025	10000	1360	3
333.15	0.7504	0.1025	15000	1383	3
333.15	0.7504	0.1025	20000	1405	3
333.15	0.7504	0.1025	25000	1425	3
