Measured thermophysical data. Density, Viscosity, Refractive Index, and Excess Properties of Binary and Ternary Solutions of Poly(ethylene glycol), Water, and Dipotassium Tartrate at 298.15 K and Atmospheric Pressure
Source: J. Chem. Eng. Data, 2018, 10.1021/acs.jced.7b00722
Compound 1: dipotassium L-tartrate, C4H4K2O6, InChI=1S/C4H6O6.2K/c5-1(3(7)8)2(6)4(9)10;;/h1-2,5-6H,(H,7,8)(H,9,10);;/q;2*+1/p-2/t1-,2-;;/m1../s1, purity 99.5%
Compound 2: water, H2O, InChI=1S/H2O/h1H2, purity 99.9%

System: water; phases: Liquid
Property: Refractive index (Na D-line) (Liquid); method: Standard Abbe refractometry
Temperature, K	Pressure, kPa	Refractive index (Na D-line)	uncertainty
298.15	100	1.3327	0.0004

System: water; phases: Liquid
Property: Mass density, kg/m3 (Liquid); method: Vibrating tube method
Temperature, K	Pressure, kPa	Mass density, kg/m3	uncertainty
298.15	100	997	0.4

System: water; phases: Liquid
Property: Viscosity, Pa*s (Liquid); method: Falling or rolling sphere viscometry
Temperature, K	Pressure, kPa	Viscosity, Pa*s	uncertainty
298.15	100	0.000894	1.11e-05

System: dipotassium L-tartrate + water; phases: Liquid
Fixed: Temperature, K = 298.15
Fixed: Pressure, kPa = 100
Property: Refractive index (Na D-line) (Liquid); method: Standard Abbe refractometry
Mass fraction of dipotassium L-tartrate	Refractive index (Na D-line)	uncertainty
0	1.3327	0.0004
0.02	1.3345	0.0024
0.04	1.3374	0.0029
0.06	1.3403	0.0029
0.08	1.3432	0.0029
0.1	1.3461	0.0029
0.15	1.3533	0.0029
0.2	1.3606	0.0029
0.25	1.3678	0.0029
0.3	1.375	0.0029
0.4	1.3895	0.0029

System: dipotassium L-tartrate + water; phases: Liquid
Fixed: Temperature, K = 298.15
Fixed: Pressure, kPa = 100
Property: Mass density, kg/m3 (Liquid); method: Vibrating tube method
Mass fraction of dipotassium L-tartrate	Mass density, kg/m3	uncertainty
0	997	0.4
0.02	1006	11.3
0.04	1019.6	13.7
0.06	1033.3	13.7
0.08	1046.9	13.7
0.1	1060.6	13.7
0.15	1094.7	13.7
0.2	1128.9	13.7
0.25	1163	13.6
0.3	1197.1	13.7
0.4	1265.4	13.7

System: dipotassium L-tartrate + water; phases: Liquid
Fixed: Temperature, K = 298.15
Fixed: Pressure, kPa = 100
Property: Viscosity, Pa*s (Liquid); method: Falling or rolling sphere viscometry
Mass fraction of dipotassium L-tartrate	Viscosity, Pa*s	uncertainty
0	0.000894	1.1e-05
0.02	0.000929	3.7e-05
0.04	0.000965	3.7e-05
0.06	0.000998	3.9e-05
0.08	0.00104	4.8e-05
0.1	0.00109	4.5e-05
0.15	0.001191	4.7e-05
0.2	0.001313	5.6e-05
0.25	0.00146	5.8e-05
0.3	0.00159	6.4e-05
0.4	0.00191	6.8e-05
