Measured thermophysical data. Thermophysical Properties of 1-Butyl-1-Methyl-Pyrrilidinium Dicyanamide + H2O Mixtures
Source: J. Chem. Eng. Data, 2015, 10.1021/acs.jced.5b00944
Compound 1: 1-butyl-1-methylpyrrolidinium dicyanamide, C11H20N4, InChI=1S/C9H20N.C2N3/c1-3-4-7-10(2)8-5-6-9-10;3-1-5-2-4/h3-9H2,1-2H3;/q+1;-1
Compound 2: water, H2O, InChI=1S/H2O/h1H2, purity 99.9%

System: 1-butyl-1-methylpyrrolidinium dicyanamide; phases: Liquid
Fixed: Pressure, kPa = 100
Property: Mass density, kg/m3 (Liquid); method: Vibrating tube method
Temperature, K	Mass density, kg/m3	uncertainty
288.15	1019.11	0.88
298.15	1013.48	0.86
308.15	1007.82	0.85
318.15	1002.33	0.84
333.15	994.14	0.83

System: 1-butyl-1-methylpyrrolidinium dicyanamide; phases: Liquid
Fixed: Pressure, kPa = 100
Property: Speed of sound, m/s (Liquid); method: Sing-around technique in a fixed-path interferometer
Temperature, K	Speed of sound, m/s	uncertainty
288.15	1834.4	2.2
298.15	1809.6	2.2
308.15	1785.2	2.2
318.15	1761	2.2
333.15	1724.7	2.2

System: water; phases: Liquid
Fixed: Pressure, kPa = 100
Property: Mass density, kg/m3 (Liquid); method: Vibrating tube method
Temperature, K	Mass density, kg/m3	uncertainty
288.15	999.1	0.14
298.15	997.04	0.14
308.15	994.03	0.14
318.15	990.21	0.14
333.15	983.19	0.14

System: water; phases: Liquid
Fixed: Pressure, kPa = 100
Property: Speed of sound, m/s (Liquid); method: Sing-around technique in a fixed-path interferometer
Temperature, K	Speed of sound, m/s	uncertainty
288.15	1466.2	0.9
298.15	1497	0.9
308.15	1520.1	0.9
318.15	1536.7	0.9
333.15	1551.3	0.9

System: water; phases: Liquid, Gas
Property: Surface tension liquid-gas, N/m (Liquid); method: Capillary rise
Temperature, K	Surface tension liquid-gas, N/m	uncertainty
297.7	0.0719	0.0012
304.8	0.0706	0.0012
313.2	0.0695	0.0012
324.1	0.0676	0.0012

System: water + 1-butyl-1-methylpyrrolidinium dicyanamide; phases: Liquid
Fixed: Pressure, kPa = 100
Property: Mass density, kg/m3 (Liquid); method: Vibrating tube method
Temperature, K	Mole fraction of water	Mass density, kg/m3	uncertainty
288.15	0	1019.11	4.08
288.15	0.0329	1019.02	4.07
288.15	0.0993	1018.74	4.05
288.15	0.2615	1018.26	4.03
288.15	0.4463	1017.61	4.01
288.15	0.6509	1016.78	4
288.15	0.751	1016.44	4
288.15	0.9	1012.13	4
288.15	1	999.1	4
298.15	0.0993	1013.07	4.05
298.15	0.2615	1012.53	4.03
298.15	0.4463	1011.78	4.01
298.15	0	1013.48	4.08
298.15	0.6509	1010.69	4
298.15	0.0329	1013.44	4.07
298.15	0.751	1010.21	4
298.15	0.9	1006.14	4
298.15	1	997.04	4
308.15	0.4463	1005.97	4.01
308.15	0	1007.82	4.08
308.15	0.6509	1004.63	4
308.15	0.0993	1007.45	4.05
308.15	0.751	1003.96	4
308.15	0.0329	1007.7	4.07
308.15	0.9	999.99	4
308.15	0.2615	1006.85	4.03
308.15	1	994.03	4
318.15	0.0993	1001.88	4.05
318.15	0.751	997.71	4
318.15	0.4463	1000.21	4.01
318.15	0.6509	998.57	4
318.15	0.9	993.7	4
318.15	0.2615	1001.22	4.02
318.15	0	1002.33	4.07
318.15	0.0329	1002.21	4.06
318.15	1	990.21	4
333.15	0.4463	991.65	4.01
333.15	0.0993	993.64	4.05
333.15	0.0329	993.99	4.06
333.15	0.9	983.98	4
333.15	0.2615	992.88	4.02
333.15	0.6509	989.51	4
333.15	0.751	988.31	4
333.15	0	994.14	4.07
333.15	1	983.19	4

System: water + 1-butyl-1-methylpyrrolidinium dicyanamide; phases: Liquid
Fixed: Pressure, kPa = 100
Property: Speed of sound, m/s (Liquid); method: Sing-around technique in a fixed-path interferometer
Temperature, K	Mole fraction of water	Speed of sound, m/s	uncertainty
288.15	0	1834.4	2.2
288.15	0.0329	1834.2	2.2
288.15	0.0993	1833.5	2.1
288.15	0.2615	1832.2	1.8
288.15	0.4463	1832.1	1.5
288.15	0.6509	1831.3	1.3
288.15	0.751	1825	1.1
288.15	0.9	1752.9	1.1
288.15	1	1466.2	0.9
298.15	0	1809.6	2.2
298.15	0.0329	1809.6	2.2
298.15	0.0993	1808.5	2.1
298.15	0.2615	1807.6	1.8
298.15	0.4463	1808.1	1.5
298.15	0.6509	1808.3	1.2
298.15	0.751	1803.2	1.1
298.15	0.9	1740.1	1
298.15	1	1497	0.9
308.15	0	1785.2	2.2
308.15	0.0329	1785.2	2.2
308.15	0.0993	1784.4	2.1
308.15	0.2615	1783.8	1.8
308.15	0.4463	1784.8	1.5
308.15	0.6509	1785.9	1.2
308.15	0.751	1781.8	1.1
308.15	0.9	1726.6	1
308.15	1	1520.1	0.9
318.15	0	1761	2.2
318.15	0.0329	1760.7	2.2
318.15	0.0993	1760	2.1
318.15	0.2615	1759.7	1.8
318.15	0.4463	1761.1	1.5
318.15	0.6509	1762.5	1.2
318.15	0.751	1759.7	1.1
318.15	0.9	1711.2	1
318.15	1	1536.7	0.9
333.15	0	1724.7	2.2
333.15	0.0329	1724.4	2.2
333.15	0.0993	1723.9	2.1
333.15	0.2615	1724	1.8
333.15	0.4463	1725.6	1.5
333.15	0.6509	1727	1.2
333.15	0.751	1724.7	1.1
333.15	0.9	1684.9	1
333.15	1	1551.3	0.9

System: water + 1-butyl-1-methylpyrrolidinium dicyanamide; phases: Liquid, Gas
Property: Surface tension liquid-gas, N/m (Liquid); method: Capillary rise
Temperature, K	Mole fraction of water	Surface tension liquid-gas, N/m	uncertainty
288.3	0.0329	0.0519	0.0013
297.5	0.0329	0.0514	0.0013
306	0.0329	0.0508	0.0013
313.9	0.0329	0.0503	0.0013
324.9	0.0329	0.0495	0.0013
288.8	0.0994	0.0524	0.0013
297.8	0.0994	0.052	0.0013
305.5	0.0994	0.0517	0.0013
313.8	0.0994	0.0511	0.0013
323.9	0.0994	0.0503	0.0013
289.1	0.2615	0.052	0.0013
297.9	0.2615	0.0516	0.0013
305.2	0.2615	0.051	0.0013
312.9	0.2615	0.0506	0.0013
324.1	0.2615	0.0496	0.0013
289	0.4463	0.0518	0.0012
297.7	0.4463	0.0515	0.0012
305.6	0.4463	0.051	0.0012
313.5	0.4463	0.0504	0.0012
324.5	0.4463	0.0496	0.0012
288.9	0.6509	0.0506	0.0012
297.9	0.6509	0.0501	0.0012
306	0.6509	0.0498	0.0012
313.8	0.6509	0.0493	0.0012
324.6	0.6509	0.0489	0.0012
288.8	0.751	0.0543	0.0012
297.8	0.751	0.0533	0.0012
305.5	0.751	0.0526	0.0012
313.2	0.751	0.052	0.0012
324.2	0.751	0.0511	0.0012
288.8	0.9	0.0543	0.0012
297.6	0.9	0.0537	0.0012
305.6	0.9	0.0529	0.0012
316.2	0.9	0.0522	0.0012
324.4	0.9	0.0517	0.0012
297.7	1	0.0719	0.0012
304.8	1	0.0706	0.0012
313.2	1	0.0695	0.0012
324.1	1	0.0676	0.0012

System: water + 1-butyl-1-methylpyrrolidinium dicyanamide; phases: Liquid
Fixed: Pressure, kPa = 100
Property: Viscosity, Pa*s (Liquid); method: Capillary tube (Ostwald; Ubbelohde) method
Temperature, K	Mole fraction of water	Viscosity, Pa*s	uncertainty
287.92	0.0329	0.0463	0.0007
297.93	0.0329	0.0319	0.0005
308	0.0329	0.0231	0.0004
318.02	0.0329	0.0174	0.0003
333.04	0.0329	0.0121	0.0002
287.92	0.0994	0.0447	0.0007
297.95	0.0994	0.0311	0.0005
308.01	0.0994	0.0225	0.0004
318.06	0.0994	0.0169	0.0003
333.1	0.0994	0.0117	0.0002
287.94	0.2615	0.0371	0.0005
297.94	0.2615	0.0261	0.0004
308.03	0.2615	0.019	0.0003
318.05	0.2615	0.0144	0.0002
333.08	0.2615	0.0101	0.0002
287.94	0.4463	0.0289	0.0004
297.93	0.4463	0.02	0.0003
307.99	0.4463	0.0146	0.0002
318.03	0.4463	0.011	0.0002
333.07	0.4463	0.00772	0.00011
287.95	0.6509	0.0196	0.0003
297.96	0.6509	0.0134	0.0002
308.03	0.6509	0.00974	0.00013
318.06	0.6509	0.00737	9e-05
333.09	0.6509	0.00514	7e-05
287.95	0.751	0.0144	0.0002
297.95	0.751	0.01	0.0001
308.02	0.751	0.00724	9e-05
318.04	0.751	0.00547	7e-05
333.07	0.751	0.00381	5e-05
287.97	0.9	0.00551	7e-05
297.96	0.9	0.00393	5e-05
308.02	0.9	0.00298	4e-05
318.05	0.9	0.00233	3e-05
333.07	0.9	0.00168	2e-05
