Measured thermophysical data. Extractions of Alkaloids Codeine and Caffeine with [Bmim][BF4]/Carbohydrate Aqueous Biphasic Systems as a Novel Class of Liquid-Liquid Extraction Systems
Source: J. Chem. Eng. Data, 2019, 10.1021/acs.jced.8b00678
Compound 1: water, H2O, InChI=1S/H2O/h1H2, purity 99.9%
Compound 2: 1-butyl-3-methylimidazolium tetrafluoroborate, C8H15BF4N2, InChI=1S/C8H15N2.BF4/c1-3-4-5-10-7-6-9(2)8-10;2-1(3,4)5/h6-8H,3-5H2,1-2H3;/q+1;-1, purity 98%
Compound 3: L-arabinose, C5H10O5, InChI=1S/C5H10O5/c6-1-3(8)5(10)4(9)2-7/h1,3-5,7-10H,2H2/t3-,4-,5+/m0/s1, purity 99%
Compound 4: D-fructose, C6H12O6, InChI=1S/C6H12O6/c7-1-3(9)5(11)6(12)4(10)2-8/h3,5-9,11-12H,1-2H2/t3-,5-,6-/m1/s1, purity 99%
Compound 5: D-glucose, C6H12O6, InChI=1S/C6H12O6/c7-1-3(9)5(11)6(12)4(10)2-8/h1,3-6,8-12H,2H2/t3-,4+,5+,6+/m0/s1, purity 99%
Compound 6: D-sucrose, C12H22O11, InChI=1S/C12H22O11/c13-1-4-6(16)8(18)9(19)11(21-4)23-12(3-15)10(20)7(17)5(2-14)22-12/h4-11,13-20H,1-3H2/t4-,5-,6-,7-,8+,9-,10+,11-,12+/m1/s1, purity 98%
Compound 7: D-maltose, C12H22O11, InChI=1S/C12H22O11/c13-1-3-5(15)6(16)9(19)12(22-3)23-10-4(2-14)21-11(20)8(18)7(10)17/h3-20H,1-2H2/t3-,4-,5-,6+,7-,8-,9-,10-,11?,12-/m1/s1, purity 99%

System: 1-butyl-3-methylimidazolium tetrafluoroborate + D-maltose + water; phases: Liquid mixture 1, Liquid mixture 2
Fixed: Pressure, kPa = 100
Property: Mass fraction of D-maltose (Liquid mixture 1); method: OTHER
Property: Mass fraction of D-maltose (Liquid mixture 2); method: OTHER
Property: Mass fraction of 1-butyl-3-methylimidazolium tetrafluoroborate (Liquid mixture 2); method: OTHER
Temperature, K	Mass fraction of 1-butyl-3-methylimidazolium tetrafluoroborate	Mass fraction of D-maltose	uncertainty	Mass fraction of D-maltose	uncertainty	Mass fraction of 1-butyl-3-methylimidazolium tetrafluoroborate	uncertainty
298.15	0.1676	0.1975	0.011	0.0172	0.008	0.7048	
308.15	0.1514	0.2638	0.011	0.0259	0.008	0.691	
298.15	0.1179	0.2698	0.0119	0.0143	0.008	0.7487	
298.15	0.0913	0.3211	0.0134	0.0126	0.008	0.7835	
303.15	0.1934	0.188	0.0097	0.0246	0.008	0.6701	
303.15	0.1546	0.2463	0.0114	0.0196	0.008	0.7088	
303.15	0.1306	0.2824	0.0119	0.0162	0.008	0.7343	
303.15	0.2647	0.1386	0.0091	0.035	0.0081	0.6001	
308.15	0.2739	0.1534	0.0092	0.0357	0.0081	0.6127	
308.15	0.1993	0.2044	0.0101	0.0278	0.008	0.661	

System: 1-butyl-3-methylimidazolium tetrafluoroborate + D-maltose + water; phases: Liquid
Fixed: Temperature, K = 298.15
Fixed: Pressure, kPa = 84.5
Fixed: Solvent: Mass fraction of D-maltose = 0.02
Property: Refractive index (Na D-line) (Liquid); method: Standard Abbe refractometry
Mass fraction of 1-butyl-3-methylimidazolium tetrafluoroborate	Refractive index (Na D-line)	uncertainty
0	1.335208	0.000583
0.0019	1.335357	0.000599
0.0048	1.335582	0.000674
0.0143	1.33625	0.000809
0.0236	1.3369	0.000806
0.0379	1.337893	0.00081
0.0605	1.33949	0.000811
0.0767	1.340623	0.00081
0.1001	1.342274	0.000812
0.1368	1.34487	0.000813

System: 1-butyl-3-methylimidazolium tetrafluoroborate + D-maltose + water; phases: Liquid
Fixed: Temperature, K = 298.15
Fixed: Pressure, kPa = 84.5
Fixed: Solvent: Mass fraction of 1-butyl-3-methylimidazolium tetrafluoroborate = 0.02
Property: Refractive index (Na D-line) (Liquid); method: Standard Abbe refractometry
Mass fraction of D-maltose	Refractive index (Na D-line)	uncertainty
0	1.333902	0.000583
0.0028	1.334277	0.000701
0.0095	1.335207	0.000805
0.0153	1.336011	0.000805
0.0388	1.339333	0.000814
0.0555	1.341712	0.000816
0.0719	1.344055	0.000823
0.0974	1.347783	0.000829
0.1193	1.351038	0.000837
0.1366	1.353666	0.000842

System: 1-butyl-3-methylimidazolium tetrafluoroborate + D-sucrose + water; phases: Liquid mixture 2, Liquid mixture 1
Fixed: Pressure, kPa = 100
Property: Mass fraction of 1-butyl-3-methylimidazolium tetrafluoroborate (Liquid mixture 2); method: OTHER
Property: Mass fraction of D-sucrose (Liquid mixture 1); method: OTHER
Property: Mass fraction of 1-butyl-3-methylimidazolium tetrafluoroborate (Liquid mixture 1); method: OTHER
Temperature, K	Mass fraction of D-sucrose	Mass fraction of 1-butyl-3-methylimidazolium tetrafluoroborate	uncertainty	Mass fraction of D-sucrose	uncertainty	Mass fraction of 1-butyl-3-methylimidazolium tetrafluoroborate	uncertainty
298.15	0.1781	0.1978	0.0088	0.0372	0.0081	0.6618	
308.15	0.4194	0.0808	0.0051	0.0161	0.008	0.7954	
313.15	0.2154	0.2115	0.0088	0.0477	0.0081	0.6121	
313.15	0.3342	0.1166	0.0069	0.0216	0.008	0.7352	
313.15	0.4103	0.0932	0.0051	0.0161	0.008	0.7871	
318.15	0.2523	0.2178	0.0108	0.0349	0.0081	0.6691	
318.15	0.3285	0.1403	0.0079	0.028	0.008	0.7119	
318.15	0.4049	0.1181	0.0056	0.0199	0.008	0.7698	
298.15	0.2435	0.1439	0.0079	0.0262	0.0081	0.7169	
298.15	0.2896	0.1141	0.007	0.0148	0.0081	0.7604	
303.15	0.2102	0.1837	0.0091	0.0263	0.0081	0.6844	
303.15	0.2732	0.1292	0.0072	0.0201	0.008	0.7333	
303.15	0.3363	0.1028	0.0057	0.0146	0.008	0.7794	
308.15	0.1964	0.2219	0.0093	0.0425	0.0081	0.6314	
308.15	0.31	0.1277	0.0078	0.024	0.0081	0.7272	
308.15	0.3613	0.0992	0.0057	0.0188	0.008	0.7617	

System: 1-butyl-3-methylimidazolium tetrafluoroborate + D-sucrose + water; phases: Liquid
Fixed: Temperature, K = 298.15
Fixed: Pressure, kPa = 84.5
Fixed: Solvent: Mass fraction of D-sucrose = 0.02
Property: Refractive index (Na D-line) (Liquid); method: Standard Abbe refractometry
Mass fraction of 1-butyl-3-methylimidazolium tetrafluoroborate	Refractive index (Na D-line)	uncertainty
0	1.335183	0.00061
0.0014	1.335288	0.000618
0.003	1.335414	0.000646
0.0041	1.335503	0.000673
0.0145	1.336223	0.000827
0.0237	1.336872	0.000829
0.038	1.337873	0.00083
0.0598	1.339413	0.000831
0.0783	1.340714	0.000832
0.1004	1.342283	0.000832
0.132	1.344515	0.000832

System: 1-butyl-3-methylimidazolium tetrafluoroborate + D-sucrose + water; phases: Liquid
Fixed: Temperature, K = 298.15
Fixed: Pressure, kPa = 84.5
Fixed: Solvent: Mass fraction of 1-butyl-3-methylimidazolium tetrafluoroborate = 0.02
Property: Refractive index (Na D-line) (Liquid); method: Standard Abbe refractometry
Mass fraction of D-sucrose	Refractive index (Na D-line)	uncertainty
0	1.333932	0.00061
0.0031	1.334362	0.000761
0.0077	1.335038	0.000839
0.0167	1.336321	0.000838
0.0393	1.339573	0.000848
0.0807	1.345731	0.000856
0.1043	1.349331	0.000865
0.1189	1.351594	0.000875
0.1484	1.356243	0.00083
0.1681	1.358442	0.000887
0.1837	1.361998	0.001097

System: 1-butyl-3-methylimidazolium tetrafluoroborate + D-glucose + water; phases: Liquid mixture 2, Liquid mixture 1
Fixed: Pressure, kPa = 100
Property: Mass fraction of D-glucose (Liquid mixture 2); method: OTHER
Property: Mass fraction of D-glucose (Liquid mixture 1); method: OTHER
Property: Mass fraction of 1-butyl-3-methylimidazolium tetrafluoroborate (Liquid mixture 1); method: OTHER
Temperature, K	Mass fraction of 1-butyl-3-methylimidazolium tetrafluoroborate	Mass fraction of D-glucose	uncertainty	Mass fraction of D-glucose	uncertainty	Mass fraction of 1-butyl-3-methylimidazolium tetrafluoroborate	uncertainty
298.15	0.7204	0.018	0.008	0.1656	0.0099	0.1861	
298.15	0.7882	0.0202	0.008	0.2242	0.0108	0.1341	
298.15	0.8079	0.0174	0.008	0.2783	0.0131	0.1023	
298.15	0.8376	0.0202	0.008	0.3481	0.0152	0.0756	
303.15	0.6859	0.034	0.0081	0.1828	0.0104	0.1864	
303.15	0.7314	0.0264	0.008	0.2262	0.0113	0.1504	
303.15	0.7727	0.0234	0.008	0.3138	0.013	0.0968	
303.15	0.8255	0.0179	0.008	0.4146	0.0152	0.052	
308.15	0.6747	0.0326	0.008	0.1804	0.0103	0.2224	
308.15	0.7658	0.0243	0.008	0.3187	0.0124	0.1038	
308.15	0.8252	0.0182	0.008	0.4174	0.0163	0.0665	
313.15	0.6752	0.0377	0.0081	0.1879	0.0107	0.1937	
313.15	0.7047	0.0327	0.008	0.2287	0.0119	0.1654	
313.15	0.7408	0.0322	0.008	0.3186	0.0216	0.0858	
313.15	0.7784	0.0276	0.008	0.3633	0.0152	0.0953	
318.15	0.6802	0.0426	0.0081	0.2697	0.0113	0.1336	
318.15	0.7293	0.0336	0.0081	0.3264	0.0173	0.0928	
318.15	0.7507	0.0305	0.008	0.3488	0.0173	0.086	

System: 1-butyl-3-methylimidazolium tetrafluoroborate + D-glucose + water; phases: Liquid
Fixed: Temperature, K = 298.15
Fixed: Pressure, kPa = 84.5
Fixed: Solvent: Mass fraction of D-glucose = 0.02
Property: Refractive index (Na D-line) (Liquid); method: Standard Abbe refractometry
Mass fraction of 1-butyl-3-methylimidazolium tetrafluoroborate	Refractive index (Na D-line)	uncertainty
0	1.335289	0.000583
0.0006	1.335326	0.000583
0.0009	1.335347	0.000583
0.0022	1.335445	0.000583
0.0027	1.335493	0.000583
0.0034	1.335543	0.000583
0.0044	1.335616	0.000583
0.0098	1.335977	0.000583
0.013	1.336207	0.000583
0.0155	1.336395	0.000583

System: 1-butyl-3-methylimidazolium tetrafluoroborate + D-glucose + water; phases: Liquid
Fixed: Temperature, K = 298.15
Fixed: Pressure, kPa = 84.5
Fixed: Solvent: Mass fraction of 1-butyl-3-methylimidazolium tetrafluoroborate = 0.02
Property: Refractive index (Na D-line) (Liquid); method: Standard Abbe refractometry
Mass fraction of D-glucose	Refractive index (Na D-line)	uncertainty
0	1.333909	0.000583
0.0033	1.334353	0.000751
0.0072	1.33491	0.000813
0.0155	1.336103	0.000819
0.0395	1.339557	0.000825
0.0776	1.34516	0.00083
0.0944	1.34767	0.000835
0.1186	1.351285	0.000844
0.1302	1.353156	0.00086
0.1448	1.355428	0.000861
0.1851	1.361839	0.000863

System: 1-butyl-3-methylimidazolium tetrafluoroborate + D-fructose + water; phases: Liquid mixture 2, Liquid mixture 1
Fixed: Pressure, kPa = 100
Property: Mass fraction of 1-butyl-3-methylimidazolium tetrafluoroborate (Liquid mixture 2); method: OTHER
Property: Mass fraction of D-fructose (Liquid mixture 1); method: OTHER
Property: Mass fraction of 1-butyl-3-methylimidazolium tetrafluoroborate (Liquid mixture 1); method: OTHER
Temperature, K	Mass fraction of D-fructose	Mass fraction of 1-butyl-3-methylimidazolium tetrafluoroborate	uncertainty	Mass fraction of D-fructose	uncertainty	Mass fraction of 1-butyl-3-methylimidazolium tetrafluoroborate	uncertainty
298.15	0.3196	0.0963	0.0051	0.0313	0.0081	0.7773	
298.15	0.3814	0.0784	0.0048	0.0255	0.0081	0.8106	
298.15	0.4235	0.0686	0.0048	0.0306	0.0081	0.8234	
298.15	0.4445	0.0609	0.0051	0.0217	0.0082	0.8468	
303.15	0.3207	0.108	0.0057	0.0239	0.008	0.7855	
303.15	0.3975	0.0771	0.0053	0.0181	0.008	0.8311	
303.15	0.4797	0.0458	0.0052	0.0135	0.008	0.8681	
308.15	0.224	0.1661	0.0081	0.0277	0.0081	0.7205	
308.15	0.2975	0.1181	0.0064	0.0279	0.0081	0.7571	
308.15	0.3896	0.0772	0.0056	0.0199	0.008	0.8249	
308.15	0.4722	0.0406	0.0049	0.0147	0.008	0.8647	
313.15	0.252	0.1855	0.0083	0.0639	0.0082	0.642	
313.15	0.3246	0.1298	0.0072	0.0445	0.0082	0.7307	
313.15	0.4015	0.0862	0.0059	0.0346	0.0081	0.7848	
313.15	0.4636	0.0674	0.0053	0.0306	0.0081	0.8201	
318.15	0.2789	0.1583	0.0066	0.0537	0.0081	0.6765	
318.15	0.3495	0.1248	0.0064	0.0455	0.0081	0.7441	
318.15	0.4244	0.083	0.006	0.0332	0.0081	0.7973	
318.15	0.4764	0.0618	0.0053	0.0316	0.008	0.8267	

System: 1-butyl-3-methylimidazolium tetrafluoroborate + D-fructose + water; phases: Liquid
Fixed: Temperature, K = 298.15
Fixed: Pressure, kPa = 84.5
Fixed: Solvent: Mass fraction of D-fructose = 0.02
Property: Refractive index (Na D-line) (Liquid); method: Standard Abbe refractometry
Mass fraction of 1-butyl-3-methylimidazolium tetrafluoroborate	Refractive index (Na D-line)	uncertainty
0	1.335254	0.000583
0.0019	1.335406	0.000599
0.0031	1.335499	0.000623
0.004	1.335563	0.000648
0.014	1.33627	0.000807
0.0237	1.336935	0.000805
0.0372	1.337879	0.000811
0.0607	1.339541	0.000811
0.077	1.340681	0.000811
0.1001	1.342316	0.000812
0.1373	1.344938	0.000811

System: 1-butyl-3-methylimidazolium tetrafluoroborate + D-fructose + water; phases: Liquid
Fixed: Temperature, K = 298.15
Fixed: Pressure, kPa = 84.5
Fixed: Solvent: Mass fraction of 1-butyl-3-methylimidazolium tetrafluoroborate = 0.02
Property: Refractive index (Na D-line) (Liquid); method: Standard Abbe refractometry
Mass fraction of D-fructose	Refractive index (Na D-line)	uncertainty
0	1.333929	0.000583
0.0045	1.334562	0.000806
0.0092	1.335207	0.000808
0.0169	1.336292	0.000813
0.0391	1.339438	0.000823
0.0734	1.344482	0.00083
0.0991	1.348306	0.000833
0.1209	1.351542	0.000842
0.1373	1.354118	0.000856
0.1635	1.358212	0.000857
0.1862	1.361797	0.00086

System: 1-butyl-3-methylimidazolium tetrafluoroborate + L-arabinose + water; phases: Liquid mixture 2, Liquid mixture 1
Fixed: Pressure, kPa = 100
Property: Mass fraction of L-arabinose (Liquid mixture 2); method: OTHER
Property: Mass fraction of 1-butyl-3-methylimidazolium tetrafluoroborate (Liquid mixture 1); method: OTHER
Property: Mass fraction of L-arabinose (Liquid mixture 1); method: OTHER
Temperature, K	Mass fraction of 1-butyl-3-methylimidazolium tetrafluoroborate	Mass fraction of L-arabinose	uncertainty	Mass fraction of 1-butyl-3-methylimidazolium tetrafluoroborate	uncertainty	Mass fraction of L-arabinose	uncertainty
298.15	0.6701	0.0359	0.0081	0.2382	0.0108	0.1393	
298.15	0.7062	0.0353	0.008	0.203	0.0103	0.1742	
298.15	0.7444	0.0342	0.008	0.171	0.0084	0.2079	
298.15	0.7853	0.0286	0.0081	0.1324	0.0077	0.2736	
303.15	0.6566	0.046	0.0081	0.2554	0.0103	0.1627	
303.15	0.7047	0.0383	0.0081	0.2166	0.0092	0.2066	
303.15	0.7465	0.0353	0.008	0.1866	0.0081	0.2586	
308.15	0.6892	0.0537	0.0081	0.2234	0.0105	0.2354	
308.15	0.7171	0.0526	0.0081	0.1546	0.009	0.3008	
308.15	0.7378	0.0489	0.0082	0.1452	0.0062	0.3253	
313.15	0.6874	0.0509	0.0121	0.2206	0.0077	0.231	
313.15	0.679	0.0699	0.0122	0.1778	0.0068	0.3048	
313.15	0.7955	0.0431	0.0081	0.1122	0.006	0.4429	
318.15	0.6639	0.0741	0.0082	0.1738	0.007	0.301	
318.15	0.7224	0.058	0.0082	0.149	0.0067	0.3471	

System: 1-butyl-3-methylimidazolium tetrafluoroborate + L-arabinose + water; phases: Liquid
Fixed: Temperature, K = 298.15
Fixed: Pressure, kPa = 84.5
Fixed: Solvent: Mass fraction of L-arabinose = 0.02
Property: Refractive index (Na D-line) (Liquid); method: Standard Abbe refractometry
Mass fraction of 1-butyl-3-methylimidazolium tetrafluoroborate	Refractive index (Na D-line)	uncertainty
0	1.335233	0.000583
0.0005	1.335264	0.000583
0.001	1.335308	0.000583
0.0019	1.335379	0.000583
0.0024	1.335418	0.000583
0.0031	1.335469	0.000583
0.0039	1.33553	0.000583
0.0081	1.335821	0.000583
0.0103	1.335969	0.000583
0.014	1.33623	0.000583

System: 1-butyl-3-methylimidazolium tetrafluoroborate + L-arabinose + water; phases: Liquid
Fixed: Temperature, K = 298.15
Fixed: Pressure, kPa = 84.5
Fixed: Solvent: Mass fraction of 1-butyl-3-methylimidazolium tetrafluoroborate = 0.02
Property: Refractive index (Na D-line) (Liquid); method: Standard Abbe refractometry
Mass fraction of L-arabinose	Refractive index (Na D-line)	uncertainty
0	1.333907	0.000583
0.0032	1.334341	0.000734
0.0048	1.334567	0.0008
0.0076	1.334954	0.000809
0.0083	1.335041	0.000809
0.0099	1.335263	0.000809
0.0185	1.336484	0.000812
0.0393	1.339416	0.000813
0.0545	1.341576	0.000819
0.0806	1.345353	0.000822

System: D-maltose + water; phases: Liquid
Property: Refractive index (Na D-line) (Liquid); method: Standard Abbe refractometry
Temperature, K	Pressure, kPa	Mass fraction of D-maltose	Refractive index (Na D-line)	uncertainty
298.15	84.5	0.02	1.335208	0.000546

System: 1-butyl-3-methylimidazolium tetrafluoroborate + water; phases: Liquid
Fixed: Temperature, K = 298.15
Fixed: Pressure, kPa = 84.5
Fixed: Mass fraction of 1-butyl-3-methylimidazolium tetrafluoroborate = 0.02
Property: Refractive index (Na D-line) (Liquid); method: Standard Abbe refractometry
Refractive index (Na D-line)	uncertainty
1.333902	0.000546
1.333932	0.000546
1.333909	0.000546
1.333929	0.000546
1.333907	0.000546

System: D-sucrose + water; phases: Liquid
Property: Refractive index (Na D-line) (Liquid); method: Standard Abbe refractometry
Temperature, K	Pressure, kPa	Mass fraction of D-sucrose	Refractive index (Na D-line)	uncertainty
298.15	84.5	0.02	1.335183	0.000546

System: D-glucose + water; phases: Liquid
Property: Refractive index (Na D-line) (Liquid); method: Standard Abbe refractometry
Temperature, K	Pressure, kPa	Mass fraction of D-glucose	Refractive index (Na D-line)	uncertainty
298.15	84.5	0.02	1.335289	0.000546

System: D-fructose + water; phases: Liquid
Property: Refractive index (Na D-line) (Liquid); method: Standard Abbe refractometry
Temperature, K	Pressure, kPa	Mass fraction of D-fructose	Refractive index (Na D-line)	uncertainty
298.15	84.5	0.02	1.335254	0.000546

System: L-arabinose + water; phases: Liquid
Property: Refractive index (Na D-line) (Liquid); method: Standard Abbe refractometry
Temperature, K	Pressure, kPa	Mass fraction of L-arabinose	Refractive index (Na D-line)	uncertainty
298.15	84.5	0.02	1.335233	0.000546
