Measured thermophysical data. (r, VE, T) Measurements of the Ternary Mixture (Dibutyl Ether + 1-Heptanol + Heptane) at Temperatures up to 393.15 K and Pressures up to 140 MPa and Modeling Using the Peng-Robinson and PC-SAFT Equations of State
Source: J. Chem. Eng. Data, 2019, 10.1021/acs.jced.9b00273
Compound 1: dibutyl ether, C8H18O, InChI=1S/C8H18O/c1-3-5-7-9-8-6-4-2/h3-8H2,1-2H3, purity 99.3%
Compound 2: heptan-1-ol, C7H16O, InChI=1S/C7H16O/c1-2-3-4-5-6-7-8/h8H,2-7H2,1H3, purity 98%
Compound 3: heptane, C7H16, InChI=1S/C7H16/c1-3-5-7-6-4-2/h3-7H2,1-2H3, purity 99.5%

System: dibutyl ether + heptan-1-ol + heptane; phases: Liquid
Property: Mass density, kg/m3 (Liquid); method: Vibrating tube method
Pressure, kPa	Temperature, K	Mole fraction of dibutyl ether	Mole fraction of heptan-1-ol	Mass density, kg/m3	uncertainty
100	298.15	0.1511	0.1489	714.4	0.7
1000	298.15	0.1511	0.1489	715.2	0.7
5000	298.15	0.1511	0.1489	718.7	0.7
10000	298.15	0.1511	0.1489	723	0.8
15000	298.15	0.1511	0.1489	727	0.8
20000	298.15	0.1511	0.1489	730.7	0.8
25000	298.15	0.1511	0.1489	734.3	0.8
30000	298.15	0.1511	0.1489	737.7	0.8
35000	298.15	0.1511	0.1489	740.9	0.9
40000	298.15	0.1511	0.1489	744.1	0.9
45000	298.15	0.1511	0.1489	747.2	0.9
50000	298.15	0.1511	0.1489	750.1	0.9
55000	298.15	0.1511	0.1489	752.9	1
60000	298.15	0.1511	0.1489	755.6	1
65000	298.15	0.1511	0.1489	758.3	1
70000	298.15	0.1511	0.1489	760.9	1
80000	298.15	0.1511	0.1489	765.8	1.1
90000	298.15	0.1511	0.1489	770.6	1.1
100000	298.15	0.1511	0.1489	775	1.2
110000	298.15	0.1511	0.1489	779.3	1.2
120000	298.15	0.1511	0.1489	783.4	1.3
130000	298.15	0.1511	0.1489	787.3	1.3
140000	298.15	0.1511	0.1489	791.1	1.4
100	313.15	0.1511	0.1489	701.6	0.7
1000	313.15	0.1511	0.1489	702.5	0.7
5000	313.15	0.1511	0.1489	706.5	0.7
10000	313.15	0.1511	0.1489	711.1	0.8
15000	313.15	0.1511	0.1489	715.4	0.8
20000	313.15	0.1511	0.1489	719.5	0.8
25000	313.15	0.1511	0.1489	723.2	0.8
30000	313.15	0.1511	0.1489	727	0.8
35000	313.15	0.1511	0.1489	730.6	0.9
40000	313.15	0.1511	0.1489	733.9	0.9
45000	313.15	0.1511	0.1489	737.1	0.9
50000	313.15	0.1511	0.1489	740.3	1
55000	313.15	0.1511	0.1489	743.3	1
60000	313.15	0.1511	0.1489	746.3	1
65000	313.15	0.1511	0.1489	749.1	1
70000	313.15	0.1511	0.1489	751.8	1.1
80000	313.15	0.1511	0.1489	756.9	1.1
90000	313.15	0.1511	0.1489	762	1.2
100000	313.15	0.1511	0.1489	766.6	1.2
110000	313.15	0.1511	0.1489	771.2	1.3
120000	313.15	0.1511	0.1489	775.4	1.3
130000	313.15	0.1511	0.1489	779.5	1.4
140000	313.15	0.1511	0.1489	783.5	1.4
100	333.15	0.1511	0.1489	684	0.7
1000	333.15	0.1511	0.1489	685.1	0.7
5000	333.15	0.1511	0.1489	689.7	0.8
10000	333.15	0.1511	0.1489	694.9	0.8
15000	333.15	0.1511	0.1489	699.8	0.8
20000	333.15	0.1511	0.1489	704.4	0.8
25000	333.15	0.1511	0.1489	708.7	0.8
30000	333.15	0.1511	0.1489	712.8	0.9
35000	333.15	0.1511	0.1489	716.6	0.9
40000	333.15	0.1511	0.1489	720.3	0.9
45000	333.15	0.1511	0.1489	723.8	0.9
50000	333.15	0.1511	0.1489	727.3	1
55000	333.15	0.1511	0.1489	730.5	1
60000	333.15	0.1511	0.1489	733.7	1
65000	333.15	0.1511	0.1489	736.7	1.1
70000	333.15	0.1511	0.1489	739.6	1.1
80000	333.15	0.1511	0.1489	745.2	1.1
90000	333.15	0.1511	0.1489	750.5	1.2
100000	333.15	0.1511	0.1489	755.5	1.3
110000	333.15	0.1511	0.1489	760.3	1.3
120000	333.15	0.1511	0.1489	764.7	1.4
130000	333.15	0.1511	0.1489	769.1	1.4
140000	333.15	0.1511	0.1489	773.2	1.5
100	353.15	0.1511	0.1489	665.9	0.7
1000	353.15	0.1511	0.1489	667.1	0.7
5000	353.15	0.1511	0.1489	672.4	0.8
10000	353.15	0.1511	0.1489	678.4	0.8
15000	353.15	0.1511	0.1489	684.1	0.8
20000	353.15	0.1511	0.1489	689.2	0.8
25000	353.15	0.1511	0.1489	694	0.8
30000	353.15	0.1511	0.1489	698.5	0.9
35000	353.15	0.1511	0.1489	702.8	0.9
40000	353.15	0.1511	0.1489	706.7	0.9
45000	353.15	0.1511	0.1489	710.6	1
50000	353.15	0.1511	0.1489	714.4	1
55000	353.15	0.1511	0.1489	717.9	1
60000	353.15	0.1511	0.1489	721.2	1
65000	353.15	0.1511	0.1489	724.5	1.1
70000	353.15	0.1511	0.1489	727.7	1.1
80000	353.15	0.1511	0.1489	733.6	1.2
90000	353.15	0.1511	0.1489	739.3	1.2
100000	353.15	0.1511	0.1489	744.6	1.3
110000	353.15	0.1511	0.1489	749.7	1.3
120000	353.15	0.1511	0.1489	754.4	1.4
130000	353.15	0.1511	0.1489	758.9	1.5
140000	353.15	0.1511	0.1489	763.3	1.5
1000	373.15	0.1511	0.1489	648.4	0.7
5000	373.15	0.1511	0.1489	654.6	0.8
10000	373.15	0.1511	0.1489	661.6	0.8
15000	373.15	0.1511	0.1489	668	0.8
20000	373.15	0.1511	0.1489	673.7	0.8
25000	373.15	0.1511	0.1489	679.1	0.9
30000	373.15	0.1511	0.1489	684.1	0.9
35000	373.15	0.1511	0.1489	688.8	0.9
40000	373.15	0.1511	0.1489	693.3	0.9
45000	373.15	0.1511	0.1489	697.5	1
50000	373.15	0.1511	0.1489	701.5	1
55000	373.15	0.1511	0.1489	705.3	1
60000	373.15	0.1511	0.1489	709	1.1
65000	373.15	0.1511	0.1489	712.4	1.1
70000	373.15	0.1511	0.1489	715.8	1.1
80000	373.15	0.1511	0.1489	722.3	1.2
90000	373.15	0.1511	0.1489	728.2	1.3
100000	373.15	0.1511	0.1489	733.9	1.3
110000	373.15	0.1511	0.1489	739.2	1.4
120000	373.15	0.1511	0.1489	744.2	1.4
130000	373.15	0.1511	0.1489	749.1	1.5
140000	373.15	0.1511	0.1489	753.6	1.6
1000	393.15	0.1511	0.1489	628.8	0.8
5000	393.15	0.1511	0.1489	636.2	0.8
10000	393.15	0.1511	0.1489	644.3	0.8
15000	393.15	0.1511	0.1489	651.6	0.8
20000	393.15	0.1511	0.1489	658.1	0.8
25000	393.15	0.1511	0.1489	664.1	0.9
30000	393.15	0.1511	0.1489	669.6	0.9
35000	393.15	0.1511	0.1489	674.9	0.9
40000	393.15	0.1511	0.1489	679.8	1
45000	393.15	0.1511	0.1489	684.3	1
50000	393.15	0.1511	0.1489	688.6	1
55000	393.15	0.1511	0.1489	692.8	1.1
60000	393.15	0.1511	0.1489	696.7	1.1
65000	393.15	0.1511	0.1489	700.5	1.1
70000	393.15	0.1511	0.1489	704.1	1.2
80000	393.15	0.1511	0.1489	711	1.2
90000	393.15	0.1511	0.1489	717.4	1.3
100000	393.15	0.1511	0.1489	723.3	1.4
110000	393.15	0.1511	0.1489	729	1.4
120000	393.15	0.1511	0.1489	734.2	1.5
130000	393.15	0.1511	0.1489	739.2	1.5
140000	393.15	0.1511	0.1489	744.1	1.6
100	298.15	0.1531	0.6689	781.8	0.8
1000	298.15	0.1531	0.6689	782.5	0.8
5000	298.15	0.1531	0.6689	785.5	0.8
10000	298.15	0.1531	0.6689	789	0.8
15000	298.15	0.1531	0.6689	792.4	0.9
20000	298.15	0.1531	0.6689	795.6	0.9
25000	298.15	0.1531	0.6689	798.7	0.9
30000	298.15	0.1531	0.6689	801.7	0.9
35000	298.15	0.1531	0.6689	804.6	0.9
40000	298.15	0.1531	0.6689	807.3	1
45000	298.15	0.1531	0.6689	810.1	1
50000	298.15	0.1531	0.6689	812.6	1
55000	298.15	0.1531	0.6689	815.2	1
60000	298.15	0.1531	0.6689	817.7	1
65000	298.15	0.1531	0.6689	820	1.1
70000	298.15	0.1531	0.6689	822.4	1.1
80000	298.15	0.1531	0.6689	826.9	1.1
90000	298.15	0.1531	0.6689	831.3	1.2
100000	298.15	0.1531	0.6689	835.5	1.2
110000	298.15	0.1531	0.6689	839.4	1.2
120000	298.15	0.1531	0.6689	843.2	1.3
130000	298.15	0.1531	0.6689	846.9	1.3
140000	298.15	0.1531	0.6689	850.5	1.3
100	313.15	0.1531	0.6689	770.2	0.8
1000	313.15	0.1531	0.6689	770.9	0.8
5000	313.15	0.1531	0.6689	774.2	0.8
10000	313.15	0.1531	0.6689	777.9	0.8
15000	313.15	0.1531	0.6689	781.6	0.9
20000	313.15	0.1531	0.6689	785.1	0.9
25000	313.15	0.1531	0.6689	788.2	0.9
30000	313.15	0.1531	0.6689	791.6	0.9
35000	313.15	0.1531	0.6689	794.7	0.9
40000	313.15	0.1531	0.6689	797.5	1
45000	313.15	0.1531	0.6689	800.5	1
50000	313.15	0.1531	0.6689	803.2	1
55000	313.15	0.1531	0.6689	805.9	1
60000	313.15	0.1531	0.6689	808.5	1.1
65000	313.15	0.1531	0.6689	811.1	1.1
70000	313.15	0.1531	0.6689	813.5	1.1
80000	313.15	0.1531	0.6689	818.3	1.1
90000	313.15	0.1531	0.6689	822.9	1.2
100000	313.15	0.1531	0.6689	827.2	1.2
110000	313.15	0.1531	0.6689	831.3	1.3
120000	313.15	0.1531	0.6689	835.3	1.3
130000	313.15	0.1531	0.6689	839.2	1.3
140000	313.15	0.1531	0.6689	842.9	1.4
100	333.15	0.1531	0.6689	754.1	0.8
1000	333.15	0.1531	0.6689	755	0.8
5000	333.15	0.1531	0.6689	758.6	0.8
10000	333.15	0.1531	0.6689	762.9	0.8
15000	333.15	0.1531	0.6689	767	0.9
20000	333.15	0.1531	0.6689	770.8	0.9
25000	333.15	0.1531	0.6689	774.4	0.9
30000	333.15	0.1531	0.6689	777.9	0.9
35000	333.15	0.1531	0.6689	781.3	1
40000	333.15	0.1531	0.6689	784.5	1
45000	333.15	0.1531	0.6689	787.6	1
50000	333.15	0.1531	0.6689	790.6	1
55000	333.15	0.1531	0.6689	793.4	1
60000	333.15	0.1531	0.6689	796.2	1.1
65000	333.15	0.1531	0.6689	799	1.1
70000	333.15	0.1531	0.6689	801.6	1.1
80000	333.15	0.1531	0.6689	806.7	1.2
90000	333.15	0.1531	0.6689	811.6	1.2
100000	333.15	0.1531	0.6689	816.1	1.2
110000	333.15	0.1531	0.6689	820.5	1.3
120000	333.15	0.1531	0.6689	824.7	1.3
130000	333.15	0.1531	0.6689	828.8	1.4
140000	333.15	0.1531	0.6689	832.7	1.4
100	353.15	0.1531	0.6689	737.6	0.8
1000	353.15	0.1531	0.6689	738.5	0.8
5000	353.15	0.1531	0.6689	742.6	0.8
10000	353.15	0.1531	0.6689	747.4	0.8
15000	353.15	0.1531	0.6689	752	0.9
20000	353.15	0.1531	0.6689	756.2	0.9
25000	353.15	0.1531	0.6689	760.2	0.9
30000	353.15	0.1531	0.6689	764.1	0.9
35000	353.15	0.1531	0.6689	767.7	1
40000	353.15	0.1531	0.6689	771.1	1
45000	353.15	0.1531	0.6689	774.5	1
50000	353.15	0.1531	0.6689	777.9	1
55000	353.15	0.1531	0.6689	780.9	1.1
60000	353.15	0.1531	0.6689	784	1.1
65000	353.15	0.1531	0.6689	786.9	1.1
70000	353.15	0.1531	0.6689	789.8	1.1
80000	353.15	0.1531	0.6689	795.1	1.2
90000	353.15	0.1531	0.6689	800.3	1.2
100000	353.15	0.1531	0.6689	805.1	1.3
110000	353.15	0.1531	0.6689	809.8	1.3
120000	353.15	0.1531	0.6689	814.2	1.4
130000	353.15	0.1531	0.6689	818.4	1.4
140000	353.15	0.1531	0.6689	822.6	1.4
1000	373.15	0.1531	0.6689	721.3	0.8
5000	373.15	0.1531	0.6689	726	0.8
10000	373.15	0.1531	0.6689	731.4	0.8
15000	373.15	0.1531	0.6689	736.5	0.9
20000	373.15	0.1531	0.6689	741.3	0.9
25000	373.15	0.1531	0.6689	745.7	0.9
30000	373.15	0.1531	0.6689	750	0.9
35000	373.15	0.1531	0.6689	754	1
40000	373.15	0.1531	0.6689	757.8	1
45000	373.15	0.1531	0.6689	761.6	1
50000	373.15	0.1531	0.6689	765	1.1
55000	373.15	0.1531	0.6689	768.4	1.1
60000	373.15	0.1531	0.6689	771.6	1.1
65000	373.15	0.1531	0.6689	774.8	1.1
70000	373.15	0.1531	0.6689	777.8	1.2
80000	373.15	0.1531	0.6689	783.6	1.2
90000	373.15	0.1531	0.6689	789.1	1.3
100000	373.15	0.1531	0.6689	794.3	1.3
110000	373.15	0.1531	0.6689	799.2	1.4
120000	373.15	0.1531	0.6689	803.9	1.4
130000	373.15	0.1531	0.6689	808.5	1.4
140000	373.15	0.1531	0.6689	812.7	1.5
1000	393.15	0.1531	0.6689	703	0.8
5000	393.15	0.1531	0.6689	708.4	0.8
10000	393.15	0.1531	0.6689	714.7	0.8
15000	393.15	0.1531	0.6689	720.4	0.9
20000	393.15	0.1531	0.6689	725.7	0.9
25000	393.15	0.1531	0.6689	730.6	0.9
30000	393.15	0.1531	0.6689	735.3	1
35000	393.15	0.1531	0.6689	739.8	1
40000	393.15	0.1531	0.6689	743.9	1
45000	393.15	0.1531	0.6689	747.9	1
50000	393.15	0.1531	0.6689	751.7	1.1
55000	393.15	0.1531	0.6689	755.4	1.1
60000	393.15	0.1531	0.6689	758.9	1.1
65000	393.15	0.1531	0.6689	762.3	1.2
70000	393.15	0.1531	0.6689	765.6	1.2
80000	393.15	0.1531	0.6689	771.8	1.2
90000	393.15	0.1531	0.6689	777.7	1.3
100000	393.15	0.1531	0.6689	783.1	1.3
110000	393.15	0.1531	0.6689	788.4	1.4
120000	393.15	0.1531	0.6689	793.3	1.4
130000	393.15	0.1531	0.6689	798.1	1.5
140000	393.15	0.1531	0.6689	802.7	1.5
100	298.15	0.1513	0.319	737.5	0.7
1000	298.15	0.1513	0.319	738.3	0.7
5000	298.15	0.1513	0.319	741.6	0.8
10000	298.15	0.1513	0.319	745.6	0.8
15000	298.15	0.1513	0.319	749.4	0.8
20000	298.15	0.1513	0.319	752.9	0.8
25000	298.15	0.1513	0.319	756.4	0.8
30000	298.15	0.1513	0.319	759.7	0.9
35000	298.15	0.1513	0.319	762.8	0.9
40000	298.15	0.1513	0.319	765.8	0.9
45000	298.15	0.1513	0.319	768.7	0.9
50000	298.15	0.1513	0.319	771.5	0.9
55000	298.15	0.1513	0.319	774.3	1
60000	298.15	0.1513	0.319	776.9	1
65000	298.15	0.1513	0.319	779.5	1
70000	298.15	0.1513	0.319	782	1
80000	298.15	0.1513	0.319	786.9	1.1
90000	298.15	0.1513	0.319	791.5	1.1
100000	298.15	0.1513	0.319	795.8	1.2
110000	298.15	0.1513	0.319	800	1.2
120000	298.15	0.1513	0.319	804	1.3
130000	298.15	0.1513	0.319	807.9	1.3
140000	298.15	0.1513	0.319	811.6	1.3
100	313.15	0.1513	0.319	725.1	0.7
1000	313.15	0.1513	0.319	726	0.7
5000	313.15	0.1513	0.319	729.6	0.8
10000	313.15	0.1513	0.319	734	0.8
15000	313.15	0.1513	0.319	738.1	0.8
20000	313.15	0.1513	0.319	742	0.8
25000	313.15	0.1513	0.319	745.5	0.8
30000	313.15	0.1513	0.319	749.2	0.9
35000	313.15	0.1513	0.319	752.5	0.9
40000	313.15	0.1513	0.319	755.7	0.9
45000	313.15	0.1513	0.319	758.9	0.9
50000	313.15	0.1513	0.319	761.9	1
55000	313.15	0.1513	0.319	764.8	1
60000	313.15	0.1513	0.319	767.6	1
65000	313.15	0.1513	0.319	770.3	1
70000	313.15	0.1513	0.319	773	1.1
80000	313.15	0.1513	0.319	778	1.1
90000	313.15	0.1513	0.319	782.9	1.2
100000	313.15	0.1513	0.319	787.4	1.2
110000	313.15	0.1513	0.319	791.8	1.2
120000	313.15	0.1513	0.319	796	1.3
130000	313.15	0.1513	0.319	800	1.3
140000	313.15	0.1513	0.319	804	1.4
100	333.15	0.1513	0.319	708.1	0.7
1000	333.15	0.1513	0.319	709.1	0.7
5000	333.15	0.1513	0.319	713.3	0.8
10000	333.15	0.1513	0.319	718.2	0.8
15000	333.15	0.1513	0.319	722.8	0.8
20000	333.15	0.1513	0.319	727.1	0.8
25000	333.15	0.1513	0.319	731.2	0.8
30000	333.15	0.1513	0.319	735.1	0.9
35000	333.15	0.1513	0.319	738.8	0.9
40000	333.15	0.1513	0.319	742.4	0.9
45000	333.15	0.1513	0.319	745.7	0.9
50000	333.15	0.1513	0.319	749	1
55000	333.15	0.1513	0.319	752.1	1
60000	333.15	0.1513	0.319	755.2	1
65000	333.15	0.1513	0.319	758.1	1
70000	333.15	0.1513	0.319	760.9	1.1
80000	333.15	0.1513	0.319	766.4	1.1
90000	333.15	0.1513	0.319	771.6	1.2
100000	333.15	0.1513	0.319	776.3	1.2
110000	333.15	0.1513	0.319	781	1.3
120000	333.15	0.1513	0.319	785.4	1.3
130000	333.15	0.1513	0.319	789.7	1.4
140000	333.15	0.1513	0.319	793.8	1.4
100	353.15	0.1513	0.319	690.5	0.7
1000	353.15	0.1513	0.319	691.6	0.8
5000	353.15	0.1513	0.319	696.4	0.8
10000	353.15	0.1513	0.319	702	0.8
15000	353.15	0.1513	0.319	707.2	0.8
20000	353.15	0.1513	0.319	712	0.8
25000	353.15	0.1513	0.319	716.6	0.9
30000	353.15	0.1513	0.319	720.9	0.9
35000	353.15	0.1513	0.319	725	0.9
40000	353.15	0.1513	0.319	728.7	0.9
45000	353.15	0.1513	0.319	732.4	1
50000	353.15	0.1513	0.319	736.1	1
55000	353.15	0.1513	0.319	739.4	1
60000	353.15	0.1513	0.319	742.7	1
65000	353.15	0.1513	0.319	745.8	1.1
70000	353.15	0.1513	0.319	748.9	1.1
80000	353.15	0.1513	0.319	754.7	1.2
90000	353.15	0.1513	0.319	760.2	1.2
100000	353.15	0.1513	0.319	765.3	1.3
110000	353.15	0.1513	0.319	770.3	1.3
120000	353.15	0.1513	0.319	774.9	1.4
130000	353.15	0.1513	0.319	779.3	1.4
140000	353.15	0.1513	0.319	783.7	1.5
1000	373.15	0.1513	0.319	673.3	0.8
5000	373.15	0.1513	0.319	679	0.8
10000	373.15	0.1513	0.319	685.3	0.8
15000	373.15	0.1513	0.319	691.3	0.8
20000	373.15	0.1513	0.319	696.7	0.8
25000	373.15	0.1513	0.319	701.7	0.9
30000	373.15	0.1513	0.319	706.5	0.9
35000	373.15	0.1513	0.319	711	0.9
40000	373.15	0.1513	0.319	715.2	0.9
45000	373.15	0.1513	0.319	719.3	1
50000	373.15	0.1513	0.319	723	1
55000	373.15	0.1513	0.319	726.7	1
60000	373.15	0.1513	0.319	730.2	1.1
65000	373.15	0.1513	0.319	733.6	1.1
70000	373.15	0.1513	0.319	736.9	1.1
80000	373.15	0.1513	0.319	743.1	1.2
90000	373.15	0.1513	0.319	748.9	1.2
100000	373.15	0.1513	0.319	754.4	1.3
110000	373.15	0.1513	0.319	759.6	1.4
120000	373.15	0.1513	0.319	764.5	1.4
130000	373.15	0.1513	0.319	769.2	1.5
140000	373.15	0.1513	0.319	773.7	1.5
1000	393.15	0.1513	0.319	653.9	0.8
5000	393.15	0.1513	0.319	660.6	0.8
10000	393.15	0.1513	0.319	668	0.8
15000	393.15	0.1513	0.319	674.7	0.8
20000	393.15	0.1513	0.319	680.8	0.8
25000	393.15	0.1513	0.319	686.4	0.9
30000	393.15	0.1513	0.319	691.8	0.9
35000	393.15	0.1513	0.319	696.7	0.9
40000	393.15	0.1513	0.319	701.3	1
45000	393.15	0.1513	0.319	705.7	1
50000	393.15	0.1513	0.319	709.8	1
55000	393.15	0.1513	0.319	713.9	1.1
60000	393.15	0.1513	0.319	717.6	1.1
65000	393.15	0.1513	0.319	721.3	1.1
70000	393.15	0.1513	0.319	724.8	1.1
80000	393.15	0.1513	0.319	731.4	1.2
90000	393.15	0.1513	0.319	737.7	1.3
100000	393.15	0.1513	0.319	743.5	1.3
110000	393.15	0.1513	0.319	749.1	1.4
120000	393.15	0.1513	0.319	754.1	1.4
130000	393.15	0.1513	0.319	759.1	1.5
140000	393.15	0.1513	0.319	763.9	1.6
100	298.15	0.1522	0.4967	761.9	0.8
1000	298.15	0.1522	0.4967	762.6	0.8
5000	298.15	0.1522	0.4967	765.7	0.8
10000	298.15	0.1522	0.4967	769.4	0.8
15000	298.15	0.1522	0.4967	773	0.8
20000	298.15	0.1522	0.4967	776.4	0.8
25000	298.15	0.1522	0.4967	779.6	0.9
30000	298.15	0.1522	0.4967	782.8	0.9
35000	298.15	0.1522	0.4967	785.7	0.9
40000	298.15	0.1522	0.4967	788.6	0.9
45000	298.15	0.1522	0.4967	791.4	0.9
50000	298.15	0.1522	0.4967	794.1	1
55000	298.15	0.1522	0.4967	796.8	1
60000	298.15	0.1522	0.4967	799.3	1
65000	298.15	0.1522	0.4967	801.8	1
70000	298.15	0.1522	0.4967	804.2	1
80000	298.15	0.1522	0.4967	808.9	1.1
90000	298.15	0.1522	0.4967	813.4	1.1
100000	298.15	0.1522	0.4967	817.6	1.2
110000	298.15	0.1522	0.4967	821.7	1.2
120000	298.15	0.1522	0.4967	825.5	1.2
130000	298.15	0.1522	0.4967	829.3	1.3
140000	298.15	0.1522	0.4967	832.9	1.3
100	313.15	0.1522	0.4967	749.9	0.8
1000	313.15	0.1522	0.4967	750.6	0.8
5000	313.15	0.1522	0.4967	754	0.8
10000	313.15	0.1522	0.4967	758.1	0.8
15000	313.15	0.1522	0.4967	762	0.8
20000	313.15	0.1522	0.4967	765.6	0.8
25000	313.15	0.1522	0.4967	768.9	0.9
30000	313.15	0.1522	0.4967	772.5	0.9
35000	313.15	0.1522	0.4967	775.6	0.9
40000	313.15	0.1522	0.4967	778.7	0.9
45000	313.15	0.1522	0.4967	781.7	0.9
50000	313.15	0.1522	0.4967	784.6	1
55000	313.15	0.1522	0.4967	787.4	1
60000	313.15	0.1522	0.4967	790.1	1
65000	313.15	0.1522	0.4967	792.7	1
70000	313.15	0.1522	0.4967	795.2	1.1
80000	313.15	0.1522	0.4967	800.1	1.1
90000	313.15	0.1522	0.4967	804.8	1.2
100000	313.15	0.1522	0.4967	809.3	1.2
110000	313.15	0.1522	0.4967	813.6	1.2
120000	313.15	0.1522	0.4967	817.6	1.3
130000	313.15	0.1522	0.4967	821.6	1.3
140000	313.15	0.1522	0.4967	825.4	1.4
100	333.15	0.1522	0.4967	733.3	0.8
1000	333.15	0.1522	0.4967	734.3	0.8
5000	333.15	0.1522	0.4967	738.1	0.8
10000	333.15	0.1522	0.4967	742.7	0.8
15000	333.15	0.1522	0.4967	747	0.8
20000	333.15	0.1522	0.4967	751.1	0.8
25000	333.15	0.1522	0.4967	754.9	0.9
30000	333.15	0.1522	0.4967	758.5	0.9
35000	333.15	0.1522	0.4967	762.1	0.9
40000	333.15	0.1522	0.4967	765.4	0.9
45000	333.15	0.1522	0.4967	768.6	1
50000	333.15	0.1522	0.4967	771.8	1
55000	333.15	0.1522	0.4967	774.7	1
60000	333.15	0.1522	0.4967	777.7	1
65000	333.15	0.1522	0.4967	780.5	1.1
70000	333.15	0.1522	0.4967	783.2	1.1
80000	333.15	0.1522	0.4967	788.5	1.1
90000	333.15	0.1522	0.4967	793.5	1.2
100000	333.15	0.1522	0.4967	798.2	1.2
110000	333.15	0.1522	0.4967	802.7	1.3
120000	333.15	0.1522	0.4967	807	1.3
130000	333.15	0.1522	0.4967	811.1	1.4
140000	333.15	0.1522	0.4967	815.1	1.4
100	353.15	0.1522	0.4967	716.3	0.8
1000	353.15	0.1522	0.4967	717.3	0.8
5000	353.15	0.1522	0.4967	721.7	0.8
10000	353.15	0.1522	0.4967	726.9	0.8
15000	353.15	0.1522	0.4967	731.7	0.8
20000	353.15	0.1522	0.4967	736.2	0.9
25000	353.15	0.1522	0.4967	740.5	0.9
30000	353.15	0.1522	0.4967	744.5	0.9
35000	353.15	0.1522	0.4967	748.3	0.9
40000	353.15	0.1522	0.4967	752	1
45000	353.15	0.1522	0.4967	755.5	1
50000	353.15	0.1522	0.4967	759	1
55000	353.15	0.1522	0.4967	762.2	1
60000	353.15	0.1522	0.4967	765.3	1.1
65000	353.15	0.1522	0.4967	768.3	1.1
70000	353.15	0.1522	0.4967	771.3	1.1
80000	353.15	0.1522	0.4967	776.8	1.2
90000	353.15	0.1522	0.4967	782.2	1.2
100000	353.15	0.1522	0.4967	787.1	1.3
110000	353.15	0.1522	0.4967	792	1.3
120000	353.15	0.1522	0.4967	796.5	1.4
130000	353.15	0.1522	0.4967	800.9	1.4
140000	353.15	0.1522	0.4967	805.1	1.4
1000	373.15	0.1522	0.4967	699.6	0.8
5000	373.15	0.1522	0.4967	704.7	0.8
10000	373.15	0.1522	0.4967	710.5	0.8
15000	373.15	0.1522	0.4967	716.1	0.8
20000	373.15	0.1522	0.4967	721	0.9
25000	373.15	0.1522	0.4967	725.8	0.9
30000	373.15	0.1522	0.4967	730.2	0.9
35000	373.15	0.1522	0.4967	734.5	0.9
40000	373.15	0.1522	0.4967	738.5	1
45000	373.15	0.1522	0.4967	742.4	1
50000	373.15	0.1522	0.4967	746	1
55000	373.15	0.1522	0.4967	749.5	1
60000	373.15	0.1522	0.4967	752.9	1.1
65000	373.15	0.1522	0.4967	756.1	1.1
70000	373.15	0.1522	0.4967	759.2	1.1
80000	373.15	0.1522	0.4967	765.3	1.2
90000	373.15	0.1522	0.4967	770.9	1.2
100000	373.15	0.1522	0.4967	776.2	1.3
110000	373.15	0.1522	0.4967	781.3	1.3
120000	373.15	0.1522	0.4967	786.1	1.4
130000	373.15	0.1522	0.4967	790.7	1.4
140000	373.15	0.1522	0.4967	795.1	1.5
1000	393.15	0.1522	0.4967	680.8	0.8
5000	393.15	0.1522	0.4967	686.8	0.8
10000	393.15	0.1522	0.4967	693.5	0.8
15000	393.15	0.1522	0.4967	699.7	0.8
20000	393.15	0.1522	0.4967	705.4	0.9
25000	393.15	0.1522	0.4967	710.6	0.9
30000	393.15	0.1522	0.4967	715.6	0.9
35000	393.15	0.1522	0.4967	720.3	0.9
40000	393.15	0.1522	0.4967	724.6	1
45000	393.15	0.1522	0.4967	728.8	1
50000	393.15	0.1522	0.4967	732.7	1
55000	393.15	0.1522	0.4967	736.6	1.1
60000	393.15	0.1522	0.4967	740.3	1.1
65000	393.15	0.1522	0.4967	743.7	1.1
70000	393.15	0.1522	0.4967	747.1	1.2
80000	393.15	0.1522	0.4967	753.6	1.2
90000	393.15	0.1522	0.4967	759.6	1.3
100000	393.15	0.1522	0.4967	765.2	1.3
110000	393.15	0.1522	0.4967	770.6	1.4
120000	393.15	0.1522	0.4967	775.6	1.4
130000	393.15	0.1522	0.4967	780.5	1.5
140000	393.15	0.1522	0.4967	785.2	1.5
100	298.15	0.3243	0.1483	729.5	0.7
1000	298.15	0.3243	0.1483	730.3	0.7
5000	298.15	0.3243	0.1483	733.9	0.7
10000	298.15	0.3243	0.1483	738	0.8
15000	298.15	0.3243	0.1483	742	0.8
20000	298.15	0.3243	0.1483	745.6	0.8
25000	298.15	0.3243	0.1483	749.2	0.8
30000	298.15	0.3243	0.1483	752.7	0.8
35000	298.15	0.3243	0.1483	755.9	0.9
40000	298.15	0.3243	0.1483	759	0.9
45000	298.15	0.3243	0.1483	762.1	0.9
50000	298.15	0.3243	0.1483	764.9	0.9
55000	298.15	0.3243	0.1483	767.8	0.9
60000	298.15	0.3243	0.1483	770.5	1
65000	298.15	0.3243	0.1483	773.2	1
70000	298.15	0.3243	0.1483	775.8	1
80000	298.15	0.3243	0.1483	780.7	1.1
90000	298.15	0.3243	0.1483	785.5	1.1
100000	298.15	0.3243	0.1483	790	1.2
110000	298.15	0.3243	0.1483	794.3	1.2
120000	298.15	0.3243	0.1483	798.4	1.2
130000	298.15	0.3243	0.1483	802.3	1.3
140000	298.15	0.3243	0.1483	806.1	1.3
100	313.15	0.3243	0.1483	716.7	0.7
1000	313.15	0.3243	0.1483	717.7	0.7
5000	313.15	0.3243	0.1483	721.5	0.7
10000	313.15	0.3243	0.1483	726	0.8
15000	313.15	0.3243	0.1483	730.4	0.8
20000	313.15	0.3243	0.1483	734.4	0.8
25000	313.15	0.3243	0.1483	738.1	0.8
30000	313.15	0.3243	0.1483	742	0.8
35000	313.15	0.3243	0.1483	745.4	0.9
40000	313.15	0.3243	0.1483	748.7	0.9
45000	313.15	0.3243	0.1483	752	0.9
50000	313.15	0.3243	0.1483	755.1	0.9
55000	313.15	0.3243	0.1483	758.1	1
60000	313.15	0.3243	0.1483	761.1	1
65000	313.15	0.3243	0.1483	763.9	1
70000	313.15	0.3243	0.1483	766.6	1
80000	313.15	0.3243	0.1483	771.8	1.1
90000	313.15	0.3243	0.1483	776.8	1.1
100000	313.15	0.3243	0.1483	781.5	1.2
110000	313.15	0.3243	0.1483	786	1.2
120000	313.15	0.3243	0.1483	790.3	1.3
130000	313.15	0.3243	0.1483	794.4	1.3
140000	313.15	0.3243	0.1483	798.4	1.4
100	333.15	0.3243	0.1483	699.2	0.7
1000	333.15	0.3243	0.1483	700.2	0.7
5000	333.15	0.3243	0.1483	704.7	0.8
10000	333.15	0.3243	0.1483	709.8	0.8
15000	333.15	0.3243	0.1483	714.7	0.8
20000	333.15	0.3243	0.1483	719.2	0.8
25000	333.15	0.3243	0.1483	723.5	0.8
30000	333.15	0.3243	0.1483	727.5	0.9
35000	333.15	0.3243	0.1483	731.4	0.9
40000	333.15	0.3243	0.1483	735.1	0.9
45000	333.15	0.3243	0.1483	738.5	0.9
50000	333.15	0.3243	0.1483	741.9	1
55000	333.15	0.3243	0.1483	745.2	1
60000	333.15	0.3243	0.1483	748.3	1
65000	333.15	0.3243	0.1483	751.4	1
70000	333.15	0.3243	0.1483	754.3	1.1
80000	333.15	0.3243	0.1483	759.9	1.1
90000	333.15	0.3243	0.1483	765.3	1.2
100000	333.15	0.3243	0.1483	770.2	1.2
110000	333.15	0.3243	0.1483	775.1	1.3
120000	333.15	0.3243	0.1483	779.5	1.3
130000	333.15	0.3243	0.1483	784	1.4
140000	333.15	0.3243	0.1483	788.1	1.4
100	353.15	0.3243	0.1483	681.1	0.7
1000	353.15	0.3243	0.1483	682.3	0.7
5000	353.15	0.3243	0.1483	687.5	0.8
10000	353.15	0.3243	0.1483	693.4	0.8
15000	353.15	0.3243	0.1483	698.9	0.8
20000	353.15	0.3243	0.1483	704	0.8
25000	353.15	0.3243	0.1483	708.7	0.8
30000	353.15	0.3243	0.1483	713.2	0.9
35000	353.15	0.3243	0.1483	717.4	0.9
40000	353.15	0.3243	0.1483	721.4	0.9
45000	353.15	0.3243	0.1483	725.2	0.9
50000	353.15	0.3243	0.1483	729	1
55000	353.15	0.3243	0.1483	732.5	1
60000	353.15	0.3243	0.1483	735.9	1
65000	353.15	0.3243	0.1483	739.1	1.1
70000	353.15	0.3243	0.1483	742.3	1.1
80000	353.15	0.3243	0.1483	748.3	1.1
90000	353.15	0.3243	0.1483	754	1.2
100000	353.15	0.3243	0.1483	759.2	1.2
110000	353.15	0.3243	0.1483	764.3	1.3
120000	353.15	0.3243	0.1483	769.1	1.4
130000	353.15	0.3243	0.1483	773.7	1.4
140000	353.15	0.3243	0.1483	778.1	1.5
1000	373.15	0.3243	0.1483	663.9	0.7
5000	373.15	0.3243	0.1483	669.9	0.8
10000	373.15	0.3243	0.1483	676.7	0.8
15000	373.15	0.3243	0.1483	683	0.8
20000	373.15	0.3243	0.1483	688.7	0.8
25000	373.15	0.3243	0.1483	694	0.8
30000	373.15	0.3243	0.1483	699	0.9
35000	373.15	0.3243	0.1483	703.7	0.9
40000	373.15	0.3243	0.1483	708.1	0.9
45000	373.15	0.3243	0.1483	712.4	1
50000	373.15	0.3243	0.1483	716.3	1
55000	373.15	0.3243	0.1483	720.2	1
60000	373.15	0.3243	0.1483	723.8	1
65000	373.15	0.3243	0.1483	727.3	1.1
70000	373.15	0.3243	0.1483	730.6	1.1
80000	373.15	0.3243	0.1483	737.1	1.2
90000	373.15	0.3243	0.1483	743.1	1.2
100000	373.15	0.3243	0.1483	748.8	1.3
110000	373.15	0.3243	0.1483	754.2	1.3
120000	373.15	0.3243	0.1483	759.2	1.4
130000	373.15	0.3243	0.1483	764.1	1.4
140000	373.15	0.3243	0.1483	768.6	1.5
1000	393.15	0.3243	0.1483	644.4	0.8
5000	393.15	0.3243	0.1483	651.6	0.8
10000	393.15	0.3243	0.1483	659.5	0.8
15000	393.15	0.3243	0.1483	666.5	0.8
20000	393.15	0.3243	0.1483	673	0.8
25000	393.15	0.3243	0.1483	678.9	0.9
30000	393.15	0.3243	0.1483	684.4	0.9
35000	393.15	0.3243	0.1483	689.7	0.9
40000	393.15	0.3243	0.1483	694.4	0.9
45000	393.15	0.3243	0.1483	699	1
50000	393.15	0.3243	0.1483	703.4	1
55000	393.15	0.3243	0.1483	707.5	1
60000	393.15	0.3243	0.1483	711.4	1.1
65000	393.15	0.3243	0.1483	715.2	1.1
70000	393.15	0.3243	0.1483	718.8	1.1
80000	393.15	0.3243	0.1483	725.7	1.2
90000	393.15	0.3243	0.1483	732.2	1.3
100000	393.15	0.3243	0.1483	738	1.3
110000	393.15	0.3243	0.1483	743.8	1.4
120000	393.15	0.3243	0.1483	749	1.4
130000	393.15	0.3243	0.1483	754.1	1.5
140000	393.15	0.3243	0.1483	759	1.5
100	298.15	0.324	0.3247	750.7	0.8
1000	298.15	0.324	0.3247	751.4	0.8
5000	298.15	0.324	0.3247	754.8	0.8
10000	298.15	0.324	0.3247	758.7	0.8
15000	298.15	0.324	0.3247	762.4	0.8
20000	298.15	0.324	0.3247	766	0.8
25000	298.15	0.324	0.3247	769.4	0.8
30000	298.15	0.324	0.3247	772.7	0.8
35000	298.15	0.324	0.3247	775.8	0.9
40000	298.15	0.324	0.3247	778.9	0.9
45000	298.15	0.324	0.3247	781.8	0.9
50000	298.15	0.324	0.3247	784.6	0.9
55000	298.15	0.324	0.3247	787.3	1
60000	298.15	0.324	0.3247	790	1
65000	298.15	0.324	0.3247	792.6	1
70000	298.15	0.324	0.3247	795.1	1
80000	298.15	0.324	0.3247	799.9	1.1
90000	298.15	0.324	0.3247	804.6	1.1
100000	298.15	0.324	0.3247	809	1.1
110000	298.15	0.324	0.3247	813.2	1.2
120000	298.15	0.324	0.3247	817.2	1.2
130000	298.15	0.324	0.3247	821	1.3
140000	298.15	0.324	0.3247	824.8	1.3
100	313.15	0.324	0.3247	738.3	0.7
1000	313.15	0.324	0.3247	739.1	0.8
5000	313.15	0.324	0.3247	742.8	0.8
10000	313.15	0.324	0.3247	747	0.8
15000	313.15	0.324	0.3247	751.1	0.8
20000	313.15	0.324	0.3247	755	0.8
25000	313.15	0.324	0.3247	758.4	0.8
30000	313.15	0.324	0.3247	762.2	0.9
35000	313.15	0.324	0.3247	765.5	0.9
40000	313.15	0.324	0.3247	768.7	0.9
45000	313.15	0.324	0.3247	771.8	0.9
50000	313.15	0.324	0.3247	774.8	0.9
55000	313.15	0.324	0.3247	777.8	1
60000	313.15	0.324	0.3247	780.6	1
65000	313.15	0.324	0.3247	783.3	1
70000	313.15	0.324	0.3247	785.9	1
80000	313.15	0.324	0.3247	791	1.1
90000	313.15	0.324	0.3247	795.9	1.1
100000	313.15	0.324	0.3247	800.4	1.2
110000	313.15	0.324	0.3247	804.9	1.2
120000	313.15	0.324	0.3247	809	1.3
130000	313.15	0.324	0.3247	813.1	1.3
140000	313.15	0.324	0.3247	817.1	1.3
100	333.15	0.324	0.3247	721.1	0.7
1000	333.15	0.324	0.3247	722.1	0.8
5000	333.15	0.324	0.3247	726.3	0.8
10000	333.15	0.324	0.3247	731.1	0.8
15000	333.15	0.324	0.3247	735.7	0.8
20000	333.15	0.324	0.3247	740	0.8
25000	333.15	0.324	0.3247	744	0.8
30000	333.15	0.324	0.3247	747.9	0.9
35000	333.15	0.324	0.3247	751.6	0.9
40000	333.15	0.324	0.3247	755.2	0.9
45000	333.15	0.324	0.3247	758.5	0.9
50000	333.15	0.324	0.3247	761.8	1
55000	333.15	0.324	0.3247	764.9	1
60000	333.15	0.324	0.3247	768	1
65000	333.15	0.324	0.3247	770.9	1
70000	333.15	0.324	0.3247	773.7	1.1
80000	333.15	0.324	0.3247	779.2	1.1
90000	333.15	0.324	0.3247	784.4	1.2
100000	333.15	0.324	0.3247	789.3	1.2
110000	333.15	0.324	0.3247	794	1.2
120000	333.15	0.324	0.3247	798.4	1.3
130000	333.15	0.324	0.3247	802.7	1.3
140000	333.15	0.324	0.3247	806.8	1.4
100	353.15	0.324	0.3247	703.5	0.8
1000	353.15	0.324	0.3247	704.6	0.8
5000	353.15	0.324	0.3247	709.4	0.8
10000	353.15	0.324	0.3247	715	0.8
15000	353.15	0.324	0.3247	720.1	0.8
20000	353.15	0.324	0.3247	724.8	0.8
25000	353.15	0.324	0.3247	729.4	0.9
30000	353.15	0.324	0.3247	733.6	0.9
35000	353.15	0.324	0.3247	737.7	0.9
40000	353.15	0.324	0.3247	741.5	0.9
45000	353.15	0.324	0.3247	745.2	1
50000	353.15	0.324	0.3247	748.8	1
55000	353.15	0.324	0.3247	752.2	1
60000	353.15	0.324	0.3247	755.5	1
65000	353.15	0.324	0.3247	758.6	1.1
70000	353.15	0.324	0.3247	761.7	1.1
80000	353.15	0.324	0.3247	767.5	1.1
90000	353.15	0.324	0.3247	773	1.2
100000	353.15	0.324	0.3247	778.2	1.2
110000	353.15	0.324	0.3247	783.2	1.3
120000	353.15	0.324	0.3247	787.8	1.3
130000	353.15	0.324	0.3247	792.3	1.4
140000	353.15	0.324	0.3247	796.7	1.4
1000	373.15	0.324	0.3247	686.6	0.8
5000	373.15	0.324	0.3247	692.2	0.8
10000	373.15	0.324	0.3247	698.5	0.8
15000	373.15	0.324	0.3247	704.4	0.8
20000	373.15	0.324	0.3247	709.8	0.8
25000	373.15	0.324	0.3247	714.8	0.9
30000	373.15	0.324	0.3247	719.6	0.9
35000	373.15	0.324	0.3247	724	0.9
40000	373.15	0.324	0.3247	728.3	0.9
45000	373.15	0.324	0.3247	732.4	1
50000	373.15	0.324	0.3247	736.2	1
55000	373.15	0.324	0.3247	739.9	1
60000	373.15	0.324	0.3247	743.4	1
65000	373.15	0.324	0.3247	746.8	1.1
70000	373.15	0.324	0.3247	750.1	1.1
80000	373.15	0.324	0.3247	756.4	1.2
90000	373.15	0.324	0.3247	762.3	1.2
100000	373.15	0.324	0.3247	767.7	1.3
110000	373.15	0.324	0.3247	773.1	1.3
120000	373.15	0.324	0.3247	778	1.4
130000	373.15	0.324	0.3247	782.7	1.4
140000	373.15	0.324	0.3247	787.3	1.5
1000	393.15	0.324	0.3247	667.5	0.8
5000	393.15	0.324	0.3247	674	0.8
10000	393.15	0.324	0.3247	681.3	0.8
15000	393.15	0.324	0.3247	688	0.8
20000	393.15	0.324	0.3247	694	0.8
25000	393.15	0.324	0.3247	699.6	0.9
30000	393.15	0.324	0.3247	704.9	0.9
35000	393.15	0.324	0.3247	709.9	0.9
40000	393.15	0.324	0.3247	714.5	1
45000	393.15	0.324	0.3247	718.9	1
50000	393.15	0.324	0.3247	723.1	1
55000	393.15	0.324	0.3247	727.1	1
60000	393.15	0.324	0.3247	730.8	1.1
65000	393.15	0.324	0.3247	734.5	1.1
70000	393.15	0.324	0.3247	738.1	1.1
80000	393.15	0.324	0.3247	744.7	1.2
90000	393.15	0.324	0.3247	751.1	1.2
100000	393.15	0.324	0.3247	756.9	1.3
110000	393.15	0.324	0.3247	762.5	1.4
120000	393.15	0.324	0.3247	767.6	1.4
130000	393.15	0.324	0.3247	772.7	1.5
140000	393.15	0.324	0.3247	777.5	1.5
100	298.15	0.325	0.4983	776.6	0.8
1000	298.15	0.325	0.4983	777.3	0.8
5000	298.15	0.325	0.4983	780.3	0.8
10000	298.15	0.325	0.4983	784	0.8
15000	298.15	0.325	0.4983	787.6	0.8
20000	298.15	0.325	0.4983	790.9	0.8
25000	298.15	0.325	0.4983	794.1	0.9
30000	298.15	0.325	0.4983	797.2	0.9
35000	298.15	0.325	0.4983	800.2	0.9
40000	298.15	0.325	0.4983	803	0.9
45000	298.15	0.325	0.4983	805.8	0.9
50000	298.15	0.325	0.4983	808.5	1
55000	298.15	0.325	0.4983	811.2	1
60000	298.15	0.325	0.4983	813.7	1
65000	298.15	0.325	0.4983	816.2	1
70000	298.15	0.325	0.4983	818.6	1
80000	298.15	0.325	0.4983	823.3	1.1
90000	298.15	0.325	0.4983	827.8	1.1
100000	298.15	0.325	0.4983	832	1.1
110000	298.15	0.325	0.4983	836.1	1.2
120000	298.15	0.325	0.4983	840	1.2
130000	298.15	0.325	0.4983	843.8	1.2
140000	298.15	0.325	0.4983	847.4	1.3
100	313.15	0.325	0.4983	764.5	0.8
1000	313.15	0.325	0.4983	765.3	0.8
5000	313.15	0.325	0.4983	768.7	0.8
10000	313.15	0.325	0.4983	772.7	0.8
15000	313.15	0.325	0.4983	776.5	0.8
20000	313.15	0.325	0.4983	780.1	0.8
25000	313.15	0.325	0.4983	783.4	0.9
30000	313.15	0.325	0.4983	786.9	0.9
35000	313.15	0.325	0.4983	790.1	0.9
40000	313.15	0.325	0.4983	793.1	0.9
45000	313.15	0.325	0.4983	796	0.9
50000	313.15	0.325	0.4983	798.9	1
55000	313.15	0.325	0.4983	801.8	1
60000	313.15	0.325	0.4983	804.4	1
65000	313.15	0.325	0.4983	807	1
70000	313.15	0.325	0.4983	809.6	1
80000	313.15	0.325	0.4983	814.4	1.1
90000	313.15	0.325	0.4983	819.2	1.1
100000	313.15	0.325	0.4983	823.6	1.2
110000	313.15	0.325	0.4983	827.9	1.2
120000	313.15	0.325	0.4983	831.9	1.2
130000	313.15	0.325	0.4983	835.9	1.3
140000	313.15	0.325	0.4983	839.8	1.3
100	333.15	0.325	0.4983	748.1	0.8
1000	333.15	0.325	0.4983	749	0.8
5000	333.15	0.325	0.4983	752.8	0.8
10000	333.15	0.325	0.4983	757.3	0.8
15000	333.15	0.325	0.4983	761.5	0.8
20000	333.15	0.325	0.4983	765.5	0.8
25000	333.15	0.325	0.4983	769.3	0.9
30000	333.15	0.325	0.4983	772.9	0.9
35000	333.15	0.325	0.4983	776.5	0.9
40000	333.15	0.325	0.4983	779.8	0.9
45000	333.15	0.325	0.4983	782.9	1
50000	333.15	0.325	0.4983	786	1
55000	333.15	0.325	0.4983	789	1
60000	333.15	0.325	0.4983	791.9	1
65000	333.15	0.325	0.4983	794.8	1
70000	333.15	0.325	0.4983	797.5	1.1
80000	333.15	0.325	0.4983	802.8	1.1
90000	333.15	0.325	0.4983	807.7	1.2
100000	333.15	0.325	0.4983	812.4	1.2
110000	333.15	0.325	0.4983	816.9	1.2
120000	333.15	0.325	0.4983	821.2	1.3
130000	333.15	0.325	0.4983	825.4	1.3
140000	333.15	0.325	0.4983	829.4	1.3
100	353.15	0.325	0.4983	731.2	0.8
1000	353.15	0.325	0.4983	732.2	0.8
5000	353.15	0.325	0.4983	736.5	0.8
10000	353.15	0.325	0.4983	741.5	0.8
15000	353.15	0.325	0.4983	746.3	0.8
20000	353.15	0.325	0.4983	750.7	0.9
25000	353.15	0.325	0.4983	755	0.9
30000	353.15	0.325	0.4983	758.9	0.9
35000	353.15	0.325	0.4983	762.7	0.9
40000	353.15	0.325	0.4983	766.3	0.9
45000	353.15	0.325	0.4983	769.8	1
50000	353.15	0.325	0.4983	773.2	1
55000	353.15	0.325	0.4983	776.4	1
60000	353.15	0.325	0.4983	779.6	1
65000	353.15	0.325	0.4983	782.5	1.1
70000	353.15	0.325	0.4983	785.5	1.1
80000	353.15	0.325	0.4983	791.1	1.1
90000	353.15	0.325	0.4983	796.3	1.2
100000	353.15	0.325	0.4983	801.4	1.2
110000	353.15	0.325	0.4983	806.2	1.3
120000	353.15	0.325	0.4983	810.6	1.3
130000	353.15	0.325	0.4983	815	1.4
140000	353.15	0.325	0.4983	819.2	1.4
1000	373.15	0.325	0.4983	714.5	0.8
5000	373.15	0.325	0.4983	719.5	0.8
10000	373.15	0.325	0.4983	725.2	0.8
15000	373.15	0.325	0.4983	730.5	0.8
20000	373.15	0.325	0.4983	735.4	0.9
25000	373.15	0.325	0.4983	740.2	0.9
30000	373.15	0.325	0.4983	744.6	0.9
35000	373.15	0.325	0.4983	748.8	0.9
40000	373.15	0.325	0.4983	752.7	1
45000	373.15	0.325	0.4983	756.5	1
50000	373.15	0.325	0.4983	760.1	1
55000	373.15	0.325	0.4983	763.7	1
60000	373.15	0.325	0.4983	766.9	1.1
65000	373.15	0.325	0.4983	770.2	1.1
70000	373.15	0.325	0.4983	773.2	1.1
80000	373.15	0.325	0.4983	779.4	1.2
90000	373.15	0.325	0.4983	784.9	1.2
100000	373.15	0.325	0.4983	790.2	1.3
110000	373.15	0.325	0.4983	795.3	1.3
120000	373.15	0.325	0.4983	800.1	1.3
130000	373.15	0.325	0.4983	804.7	1.4
140000	373.15	0.325	0.4983	809	1.4
1000	393.15	0.325	0.4983	696	0.8
5000	393.15	0.325	0.4983	701.7	0.8
10000	393.15	0.325	0.4983	708.3	0.8
15000	393.15	0.325	0.4983	714.4	0.8
20000	393.15	0.325	0.4983	719.8	0.9
25000	393.15	0.325	0.4983	725.1	0.9
30000	393.15	0.325	0.4983	729.9	0.9
35000	393.15	0.325	0.4983	734.5	0.9
40000	393.15	0.325	0.4983	738.9	1
45000	393.15	0.325	0.4983	743	1
50000	393.15	0.325	0.4983	746.9	1
55000	393.15	0.325	0.4983	750.7	1.1
60000	393.15	0.325	0.4983	754.3	1.1
65000	393.15	0.325	0.4983	757.7	1.1
70000	393.15	0.325	0.4983	761.1	1.1
80000	393.15	0.325	0.4983	767.5	1.2
90000	393.15	0.325	0.4983	773.5	1.2
100000	393.15	0.325	0.4983	779.1	1.3
110000	393.15	0.325	0.4983	784.5	1.3
120000	393.15	0.325	0.4983	789.5	1.4
130000	393.15	0.325	0.4983	794.3	1.4
140000	393.15	0.325	0.4983	799	1.5
100	298.15	0.5029	0.1451	744.1	0.7
1000	298.15	0.5029	0.1451	745	0.7
5000	298.15	0.5029	0.1451	748.4	0.7
10000	298.15	0.5029	0.1451	752.6	0.8
15000	298.15	0.5029	0.1451	756.5	0.8
20000	298.15	0.5029	0.1451	760.2	0.8
25000	298.15	0.5029	0.1451	763.7	0.8
30000	298.15	0.5029	0.1451	767.1	0.8
35000	298.15	0.5029	0.1451	770.3	0.8
40000	298.15	0.5029	0.1451	773.4	0.9
45000	298.15	0.5029	0.1451	776.5	0.9
50000	298.15	0.5029	0.1451	779.4	0.9
55000	298.15	0.5029	0.1451	782.3	0.9
60000	298.15	0.5029	0.1451	785	0.9
65000	298.15	0.5029	0.1451	787.6	1
70000	298.15	0.5029	0.1451	790.2	1
80000	298.15	0.5029	0.1451	795.2	1
90000	298.15	0.5029	0.1451	800	1.1
100000	298.15	0.5029	0.1451	804.5	1.1
110000	298.15	0.5029	0.1451	808.8	1.2
120000	298.15	0.5029	0.1451	812.9	1.2
130000	298.15	0.5029	0.1451	816.8	1.2
140000	298.15	0.5029	0.1451	820.6	1.3
100	313.15	0.5029	0.1451	731.3	0.7
1000	313.15	0.5029	0.1451	732.2	0.7
5000	313.15	0.5029	0.1451	736	0.7
10000	313.15	0.5029	0.1451	740.6	0.8
15000	313.15	0.5029	0.1451	744.8	0.8
20000	313.15	0.5029	0.1451	748.8	0.8
25000	313.15	0.5029	0.1451	752.5	0.8
30000	313.15	0.5029	0.1451	756.3	0.8
35000	313.15	0.5029	0.1451	759.8	0.9
40000	313.15	0.5029	0.1451	763.1	0.9
45000	313.15	0.5029	0.1451	766.3	0.9
50000	313.15	0.5029	0.1451	769.4	0.9
55000	313.15	0.5029	0.1451	772.5	0.9
60000	313.15	0.5029	0.1451	775.4	1
65000	313.15	0.5029	0.1451	778.2	1
70000	313.15	0.5029	0.1451	780.9	1
80000	313.15	0.5029	0.1451	786.1	1.1
90000	313.15	0.5029	0.1451	791.1	1.1
100000	313.15	0.5029	0.1451	795.8	1.1
110000	313.15	0.5029	0.1451	800.4	1.2
120000	313.15	0.5029	0.1451	804.6	1.2
130000	313.15	0.5029	0.1451	808.8	1.3
140000	313.15	0.5029	0.1451	812.9	1.3
100	333.15	0.5029	0.1451	713.8	0.7
1000	333.15	0.5029	0.1451	714.9	0.7
5000	333.15	0.5029	0.1451	719.3	0.8
10000	333.15	0.5029	0.1451	724.3	0.8
15000	333.15	0.5029	0.1451	729.2	0.8
20000	333.15	0.5029	0.1451	733.6	0.8
25000	333.15	0.5029	0.1451	737.8	0.8
30000	333.15	0.5029	0.1451	741.9	0.8
35000	333.15	0.5029	0.1451	745.7	0.9
40000	333.15	0.5029	0.1451	749.4	0.9
45000	333.15	0.5029	0.1451	752.8	0.9
50000	333.15	0.5029	0.1451	756.2	0.9
55000	333.15	0.5029	0.1451	759.4	1
60000	333.15	0.5029	0.1451	762.6	1
65000	333.15	0.5029	0.1451	765.6	1
70000	333.15	0.5029	0.1451	768.5	1
80000	333.15	0.5029	0.1451	774.2	1.1
90000	333.15	0.5029	0.1451	779.5	1.1
100000	333.15	0.5029	0.1451	784.5	1.2
110000	333.15	0.5029	0.1451	789.3	1.2
120000	333.15	0.5029	0.1451	793.8	1.3
130000	333.15	0.5029	0.1451	798.2	1.3
140000	333.15	0.5029	0.1451	802.4	1.4
100	353.15	0.5029	0.1451	695.9	0.7
1000	353.15	0.5029	0.1451	697	0.7
5000	353.15	0.5029	0.1451	702.1	0.8
10000	353.15	0.5029	0.1451	707.9	0.8
15000	353.15	0.5029	0.1451	713.3	0.8
20000	353.15	0.5029	0.1451	718.3	0.8
25000	353.15	0.5029	0.1451	723	0.8
30000	353.15	0.5029	0.1451	727.5	0.9
35000	353.15	0.5029	0.1451	731.7	0.9
40000	353.15	0.5029	0.1451	735.7	0.9
45000	353.15	0.5029	0.1451	739.5	0.9
50000	353.15	0.5029	0.1451	743.2	1
55000	353.15	0.5029	0.1451	746.7	1
60000	353.15	0.5029	0.1451	750	1
65000	353.15	0.5029	0.1451	753.3	1
70000	353.15	0.5029	0.1451	756.4	1.1
80000	353.15	0.5029	0.1451	762.4	1.1
90000	353.15	0.5029	0.1451	768.1	1.2
100000	353.15	0.5029	0.1451	773.3	1.2
110000	353.15	0.5029	0.1451	778.5	1.3
120000	353.15	0.5029	0.1451	783.2	1.3
130000	353.15	0.5029	0.1451	787.8	1.4
140000	353.15	0.5029	0.1451	792.3	1.4
1000	373.15	0.5029	0.1451	678.6	0.7
5000	373.15	0.5029	0.1451	684.5	0.8
10000	373.15	0.5029	0.1451	691.2	0.8
15000	373.15	0.5029	0.1451	697.3	0.8
20000	373.15	0.5029	0.1451	702.9	0.8
25000	373.15	0.5029	0.1451	708.2	0.8
30000	373.15	0.5029	0.1451	713.1	0.9
35000	373.15	0.5029	0.1451	717.7	0.9
40000	373.15	0.5029	0.1451	722.1	0.9
45000	373.15	0.5029	0.1451	726.3	0.9
50000	373.15	0.5029	0.1451	730.2	1
55000	373.15	0.5029	0.1451	734	1
60000	373.15	0.5029	0.1451	737.7	1
65000	373.15	0.5029	0.1451	741.1	1.1
70000	373.15	0.5029	0.1451	744.5	1.1
80000	373.15	0.5029	0.1451	750.9	1.1
90000	373.15	0.5029	0.1451	756.9	1.2
100000	373.15	0.5029	0.1451	762.6	1.2
110000	373.15	0.5029	0.1451	767.9	1.3
120000	373.15	0.5029	0.1451	773	1.3
130000	373.15	0.5029	0.1451	777.8	1.4
140000	373.15	0.5029	0.1451	782.4	1.4
1000	393.15	0.5029	0.1451	659.4	0.8
5000	393.15	0.5029	0.1451	666.3	0.8
10000	393.15	0.5029	0.1451	674	0.8
15000	393.15	0.5029	0.1451	681	0.8
20000	393.15	0.5029	0.1451	687.2	0.8
25000	393.15	0.5029	0.1451	693.1	0.9
30000	393.15	0.5029	0.1451	698.6	0.9
35000	393.15	0.5029	0.1451	703.6	0.9
40000	393.15	0.5029	0.1451	708.4	0.9
45000	393.15	0.5029	0.1451	712.9	1
50000	393.15	0.5029	0.1451	717.2	1
55000	393.15	0.5029	0.1451	721.4	1
60000	393.15	0.5029	0.1451	725.2	1
65000	393.15	0.5029	0.1451	728.9	1.1
70000	393.15	0.5029	0.1451	732.6	1.1
80000	393.15	0.5029	0.1451	739.4	1.2
90000	393.15	0.5029	0.1451	745.9	1.2
100000	393.15	0.5029	0.1451	751.8	1.3
110000	393.15	0.5029	0.1451	757.4	1.3
120000	393.15	0.5029	0.1451	762.7	1.4
130000	393.15	0.5029	0.1451	767.8	1.4
140000	393.15	0.5029	0.1451	772.7	1.5
100	298.15	0.5039	0.3188	767.1	0.7
1000	298.15	0.5039	0.3188	767.8	0.7
5000	298.15	0.5039	0.3188	771.1	0.8
10000	298.15	0.5039	0.3188	774.9	0.8
15000	298.15	0.5039	0.3188	778.6	0.8
20000	298.15	0.5039	0.3188	782.2	0.8
25000	298.15	0.5039	0.3188	785.5	0.8
30000	298.15	0.5039	0.3188	788.8	0.8
35000	298.15	0.5039	0.3188	791.9	0.9
40000	298.15	0.5039	0.3188	794.9	0.9
45000	298.15	0.5039	0.3188	797.8	0.9
50000	298.15	0.5039	0.3188	800.6	0.9
55000	298.15	0.5039	0.3188	803.3	0.9
60000	298.15	0.5039	0.3188	805.9	1
65000	298.15	0.5039	0.3188	808.5	1
70000	298.15	0.5039	0.3188	811.1	1
80000	298.15	0.5039	0.3188	815.9	1
90000	298.15	0.5039	0.3188	820.5	1.1
100000	298.15	0.5039	0.3188	824.9	1.1
110000	298.15	0.5039	0.3188	829.1	1.1
120000	298.15	0.5039	0.3188	833.1	1.2
130000	298.15	0.5039	0.3188	837	1.2
140000	298.15	0.5039	0.3188	840.7	1.2
100	313.15	0.5039	0.3188	754.6	0.8
1000	313.15	0.5039	0.3188	755.5	0.8
5000	313.15	0.5039	0.3188	759	0.8
10000	313.15	0.5039	0.3188	763.3	0.8
15000	313.15	0.5039	0.3188	767.3	0.8
20000	313.15	0.5039	0.3188	771.1	0.8
25000	313.15	0.5039	0.3188	774.5	0.8
30000	313.15	0.5039	0.3188	778.2	0.8
35000	313.15	0.5039	0.3188	781.5	0.9
40000	313.15	0.5039	0.3188	784.6	0.9
45000	313.15	0.5039	0.3188	787.7	0.9
50000	313.15	0.5039	0.3188	790.7	0.9
55000	313.15	0.5039	0.3188	793.7	1
60000	313.15	0.5039	0.3188	796.5	1
65000	313.15	0.5039	0.3188	799.2	1
70000	313.15	0.5039	0.3188	801.8	1
80000	313.15	0.5039	0.3188	806.8	1.1
90000	313.15	0.5039	0.3188	811.8	1.1
100000	313.15	0.5039	0.3188	816.3	1.1
110000	313.15	0.5039	0.3188	820.7	1.2
120000	313.15	0.5039	0.3188	824.9	1.2
130000	313.15	0.5039	0.3188	828.9	1.2
140000	313.15	0.5039	0.3188	832.9	1.3
100	333.15	0.5039	0.3188	737.6	0.8
1000	333.15	0.5039	0.3188	738.6	0.8
5000	333.15	0.5039	0.3188	742.6	0.8
10000	333.15	0.5039	0.3188	747.4	0.8
15000	333.15	0.5039	0.3188	751.9	0.8
20000	333.15	0.5039	0.3188	756.1	0.8
25000	333.15	0.5039	0.3188	760.1	0.8
30000	333.15	0.5039	0.3188	763.9	0.9
35000	333.15	0.5039	0.3188	767.6	0.9
40000	333.15	0.5039	0.3188	771.1	0.9
45000	333.15	0.5039	0.3188	774.4	0.9
50000	333.15	0.5039	0.3188	777.6	0.9
55000	333.15	0.5039	0.3188	780.7	1
60000	333.15	0.5039	0.3188	783.7	1
65000	333.15	0.5039	0.3188	786.7	1
70000	333.15	0.5039	0.3188	789.5	1
80000	333.15	0.5039	0.3188	794.9	1.1
90000	333.15	0.5039	0.3188	800.1	1.1
100000	333.15	0.5039	0.3188	804.9	1.2
110000	333.15	0.5039	0.3188	809.6	1.2
120000	333.15	0.5039	0.3188	814.1	1.2
130000	333.15	0.5039	0.3188	818.3	1.3
140000	333.15	0.5039	0.3188	822.4	1.3
100	353.15	0.5039	0.3188	720.1	0.8
1000	353.15	0.5039	0.3188	721.2	0.8
5000	353.15	0.5039	0.3188	725.8	0.8
10000	353.15	0.5039	0.3188	731.2	0.8
15000	353.15	0.5039	0.3188	736.3	0.8
20000	353.15	0.5039	0.3188	741	0.8
25000	353.15	0.5039	0.3188	745.4	0.8
30000	353.15	0.5039	0.3188	749.6	0.9
35000	353.15	0.5039	0.3188	753.6	0.9
40000	353.15	0.5039	0.3188	757.3	0.9
45000	353.15	0.5039	0.3188	761	0.9
50000	353.15	0.5039	0.3188	764.6	1
55000	353.15	0.5039	0.3188	767.9	1
60000	353.15	0.5039	0.3188	771.2	1
65000	353.15	0.5039	0.3188	774.3	1
70000	353.15	0.5039	0.3188	777.4	1.1
80000	353.15	0.5039	0.3188	783.1	1.1
90000	353.15	0.5039	0.3188	788.6	1.1
100000	353.15	0.5039	0.3188	793.8	1.2
110000	353.15	0.5039	0.3188	798.7	1.2
120000	353.15	0.5039	0.3188	803.3	1.3
130000	353.15	0.5039	0.3188	807.8	1.3
140000	353.15	0.5039	0.3188	812.2	1.4
1000	373.15	0.5039	0.3188	703.1	0.8
5000	373.15	0.5039	0.3188	708.5	0.8
10000	373.15	0.5039	0.3188	714.6	0.8
15000	373.15	0.5039	0.3188	720.2	0.8
20000	373.15	0.5039	0.3188	725.5	0.8
25000	373.15	0.5039	0.3188	730.4	0.9
30000	373.15	0.5039	0.3188	735.1	0.9
35000	373.15	0.5039	0.3188	739.5	0.9
40000	373.15	0.5039	0.3188	743.7	0.9
45000	373.15	0.5039	0.3188	747.7	1
50000	373.15	0.5039	0.3188	751.4	1
55000	373.15	0.5039	0.3188	755.1	1
60000	373.15	0.5039	0.3188	758.6	1
65000	373.15	0.5039	0.3188	761.9	1.1
70000	373.15	0.5039	0.3188	765.1	1.1
80000	373.15	0.5039	0.3188	771.4	1.1
90000	373.15	0.5039	0.3188	777.2	1.2
100000	373.15	0.5039	0.3188	782.6	1.2
110000	373.15	0.5039	0.3188	787.9	1.3
120000	373.15	0.5039	0.3188	792.8	1.3
130000	373.15	0.5039	0.3188	797.5	1.4
140000	373.15	0.5039	0.3188	802	1.4
1000	393.15	0.5039	0.3188	684.2	0.8
5000	393.15	0.5039	0.3188	690.4	0.8
10000	393.15	0.5039	0.3188	697.5	0.8
15000	393.15	0.5039	0.3188	703.9	0.8
20000	393.15	0.5039	0.3188	709.8	0.8
25000	393.15	0.5039	0.3188	715.3	0.9
30000	393.15	0.5039	0.3188	720.5	0.9
35000	393.15	0.5039	0.3188	725.3	0.9
40000	393.15	0.5039	0.3188	729.8	0.9
45000	393.15	0.5039	0.3188	734.1	1
50000	393.15	0.5039	0.3188	738.2	1
55000	393.15	0.5039	0.3188	742.2	1
60000	393.15	0.5039	0.3188	745.9	1.1
65000	393.15	0.5039	0.3188	749.5	1.1
70000	393.15	0.5039	0.3188	753	1.1
80000	393.15	0.5039	0.3188	759.6	1.2
90000	393.15	0.5039	0.3188	765.8	1.2
100000	393.15	0.5039	0.3188	771.6	1.3
110000	393.15	0.5039	0.3188	777.1	1.3
120000	393.15	0.5039	0.3188	782.3	1.4
130000	393.15	0.5039	0.3188	787.2	1.4
140000	393.15	0.5039	0.3188	792	1.4
100	298.15	0.6764	0.146	758.2	0.7
1000	298.15	0.6764	0.146	759	0.7
5000	298.15	0.6764	0.146	762.5	0.7
10000	298.15	0.6764	0.146	766.4	0.8
15000	298.15	0.6764	0.146	770.4	0.8
20000	298.15	0.6764	0.146	774	0.8
25000	298.15	0.6764	0.146	777.5	0.8
30000	298.15	0.6764	0.146	780.9	0.8
35000	298.15	0.6764	0.146	784.1	0.8
40000	298.15	0.6764	0.146	787.3	0.9
45000	298.15	0.6764	0.146	790.3	0.9
50000	298.15	0.6764	0.146	793.2	0.9
55000	298.15	0.6764	0.146	796	0.9
60000	298.15	0.6764	0.146	798.7	0.9
65000	298.15	0.6764	0.146	801.4	1
70000	298.15	0.6764	0.146	804	1
80000	298.15	0.6764	0.146	809	1
90000	298.15	0.6764	0.146	813.7	1
100000	298.15	0.6764	0.146	818.2	1.1
110000	298.15	0.6764	0.146	822.5	1.1
120000	298.15	0.6764	0.146	826.6	1.2
130000	298.15	0.6764	0.146	830.7	1.2
140000	298.15	0.6764	0.146	834.5	1.2
100	313.15	0.6764	0.146	745.4	0.7
1000	313.15	0.6764	0.146	746.2	0.7
5000	313.15	0.6764	0.146	750	0.7
10000	313.15	0.6764	0.146	754.4	0.8
15000	313.15	0.6764	0.146	758.7	0.8
20000	313.15	0.6764	0.146	762.7	0.8
25000	313.15	0.6764	0.146	766.2	0.8
30000	313.15	0.6764	0.146	770.1	0.8
35000	313.15	0.6764	0.146	773.5	0.8
40000	313.15	0.6764	0.146	776.8	0.9
45000	313.15	0.6764	0.146	780	0.9
50000	313.15	0.6764	0.146	783.1	0.9
55000	313.15	0.6764	0.146	786.1	0.9
60000	313.15	0.6764	0.146	789	0.9
65000	313.15	0.6764	0.146	791.9	1
70000	313.15	0.6764	0.146	794.6	1
80000	313.15	0.6764	0.146	799.8	1
90000	313.15	0.6764	0.146	804.8	1.1
100000	313.15	0.6764	0.146	809.5	1.1
110000	313.15	0.6764	0.146	814.1	1.1
120000	313.15	0.6764	0.146	818.4	1.2
130000	313.15	0.6764	0.146	822.5	1.2
140000	313.15	0.6764	0.146	826.6	1.3
100	333.15	0.6764	0.146	727.8	0.7
1000	333.15	0.6764	0.146	728.9	0.7
5000	333.15	0.6764	0.146	733.2	0.8
10000	333.15	0.6764	0.146	738.2	0.8
15000	333.15	0.6764	0.146	742.9	0.8
20000	333.15	0.6764	0.146	747.4	0.8
25000	333.15	0.6764	0.146	751.5	0.8
30000	333.15	0.6764	0.146	755.5	0.8
35000	333.15	0.6764	0.146	759.4	0.9
40000	333.15	0.6764	0.146	763	0.9
45000	333.15	0.6764	0.146	766.5	0.9
50000	333.15	0.6764	0.146	769.8	0.9
55000	333.15	0.6764	0.146	773	0.9
60000	333.15	0.6764	0.146	776.2	1
65000	333.15	0.6764	0.146	779.2	1
70000	333.15	0.6764	0.146	782.1	1
80000	333.15	0.6764	0.146	787.8	1.1
90000	333.15	0.6764	0.146	793.1	1.1
100000	333.15	0.6764	0.146	798	1.1
110000	333.15	0.6764	0.146	802.9	1.2
120000	333.15	0.6764	0.146	807.4	1.2
130000	333.15	0.6764	0.146	811.8	1.3
140000	333.15	0.6764	0.146	816	1.3
100	353.15	0.6764	0.146	710	0.7
1000	353.15	0.6764	0.146	711.1	0.7
5000	353.15	0.6764	0.146	716.1	0.8
10000	353.15	0.6764	0.146	721.8	0.8
15000	353.15	0.6764	0.146	727.1	0.8
20000	353.15	0.6764	0.146	732.1	0.8
25000	353.15	0.6764	0.146	736.7	0.8
30000	353.15	0.6764	0.146	741.1	0.8
35000	353.15	0.6764	0.146	745.3	0.9
40000	353.15	0.6764	0.146	749.2	0.9
45000	353.15	0.6764	0.146	753	0.9
50000	353.15	0.6764	0.146	756.7	0.9
55000	353.15	0.6764	0.146	760.2	1
60000	353.15	0.6764	0.146	763.5	1
65000	353.15	0.6764	0.146	766.8	1
70000	353.15	0.6764	0.146	770	1
80000	353.15	0.6764	0.146	775.9	1.1
90000	353.15	0.6764	0.146	781.6	1.1
100000	353.15	0.6764	0.146	786.9	1.2
110000	353.15	0.6764	0.146	791.9	1.2
120000	353.15	0.6764	0.146	796.7	1.3
130000	353.15	0.6764	0.146	801.3	1.3
140000	353.15	0.6764	0.146	805.7	1.3
1000	373.15	0.6764	0.146	692.8	0.7
5000	373.15	0.6764	0.146	698.5	0.8
10000	373.15	0.6764	0.146	705	0.8
15000	373.15	0.6764	0.146	710.9	0.8
20000	373.15	0.6764	0.146	716.5	0.8
25000	373.15	0.6764	0.146	721.8	0.8
30000	373.15	0.6764	0.146	726.7	0.9
35000	373.15	0.6764	0.146	731.3	0.9
40000	373.15	0.6764	0.146	735.6	0.9
45000	373.15	0.6764	0.146	739.7	0.9
50000	373.15	0.6764	0.146	743.6	1
55000	373.15	0.6764	0.146	747.5	1
60000	373.15	0.6764	0.146	751.1	1
65000	373.15	0.6764	0.146	754.5	1
70000	373.15	0.6764	0.146	757.8	1.1
80000	373.15	0.6764	0.146	764.3	1.1
90000	373.15	0.6764	0.146	770.3	1.2
100000	373.15	0.6764	0.146	775.9	1.2
110000	373.15	0.6764	0.146	781.3	1.3
120000	373.15	0.6764	0.146	786.3	1.3
130000	373.15	0.6764	0.146	791.2	1.3
140000	373.15	0.6764	0.146	795.8	1.4
1000	393.15	0.6764	0.146	673.7	0.8
5000	393.15	0.6764	0.146	680.4	0.8
10000	393.15	0.6764	0.146	687.9	0.8
15000	393.15	0.6764	0.146	694.7	0.8
20000	393.15	0.6764	0.146	700.9	0.8
25000	393.15	0.6764	0.146	706.7	0.8
30000	393.15	0.6764	0.146	712.1	0.9
35000	393.15	0.6764	0.146	717.1	0.9
40000	393.15	0.6764	0.146	721.9	0.9
45000	393.15	0.6764	0.146	726.3	0.9
50000	393.15	0.6764	0.146	730.6	1
55000	393.15	0.6764	0.146	734.7	1
60000	393.15	0.6764	0.146	738.5	1
65000	393.15	0.6764	0.146	742.3	1.1
70000	393.15	0.6764	0.146	745.9	1.1
80000	393.15	0.6764	0.146	752.6	1.1
90000	393.15	0.6764	0.146	759.1	1.2
100000	393.15	0.6764	0.146	765	1.2
110000	393.15	0.6764	0.146	770.7	1.3
120000	393.15	0.6764	0.146	775.9	1.3
130000	393.15	0.6764	0.146	781.1	1.4
140000	393.15	0.6764	0.146	786	1.4
