Measured thermophysical data. Influence of Water on the Carbon Dioxide Solubility in [OTf]- and [eFAP]-Based Ionic Liquids
Source: J. Chem. Eng. Data, 2018, 10.1021/acs.jced.7b00521
Compound 1: 1-ethyl-3-methylimidazolium trifluoromethanesulfonate, C7H11F3N2O3S, InChI=1S/C6H11N2.CHF3O3S/c1-3-8-5-4-7(2)6-8;2-1(3,4)8(5,6)7/h4-6H,3H2,1-2H3;(H,5,6,7)/q+1;/p-1, purity 99%
Compound 2: 1-ethyl-3-methylimidazolium tris(pentafluoroethyl)trifluorophosphate, C12H11F18N2P, InChI=1S/C6F18P.C6H11N2/c7-1(8,9)4(16,17)25(22,23,24,5(18,19)2(10,11)12)6(20,21)3(13,14)15;1-3-8-5-4-7(2)6-8/h;4-6H,3H2,1-2H3/q-1;+1, purity 99%
Compound 3: 1-butyl-3-methylimidazolium tris(pentafluoroethyl)trifluorophosphate, C14H15F18N2P, InChI=1S/C8H15N2.C6F18P/c1-3-4-5-10-7-6-9(2)8-10;7-1(8,9)4(16,17)25(22,23,24,5(18,19)2(10,11)12)6(20,21)3(13,14)15/h6-8H,3-5H2,1-2H3;/q+1;-1, purity 99%
Compound 4: 1-hexyl-3-methylimidazolium tris(pentafluoroethyl)trifluorophosphate, C16H19F18N2P, InChI=1S/C10H19N2.C6F18P/c1-3-4-5-6-7-12-9-8-11(2)10-12;7-1(8,9)4(16,17)25(22,23,24,5(18,19)2(10,11)12)6(20,21)3(13,14)15/h8-10H,3-7H2,1-2H3;/q+1;-1, purity 99%
Compound 5: carbon dioxide, CO2, InChI=1S/CO2/c2-1-3, purity 99.98%
Compound 6: water, H2O, InChI=1S/H2O/h1H2, purity 99.9%

System: 1-ethyl-3-methylimidazolium tris(pentafluoroethyl)trifluorophosphate + water + carbon dioxide; phases: Liquid, Gas
Fixed: Temperature, K = 313.15
Fixed: Solvent: Mass fraction of water = 0.001
Property: Mole fraction of carbon dioxide (Liquid); method: volumetric
Pressure, kPa	Mole fraction of carbon dioxide	uncertainty
2000	0.42	0.04
4000	0.58	0.04
6000	0.67	0.04
8000	0.74	0.04
10000	0.76	0.04

System: 1-butyl-3-methylimidazolium tris(pentafluoroethyl)trifluorophosphate + water + carbon dioxide; phases: Liquid, Gas
Fixed: Temperature, K = 313.15
Fixed: Solvent: Mass fraction of water = 0.001
Property: Mole fraction of carbon dioxide (Liquid); method: volumetric
Pressure, kPa	Mole fraction of carbon dioxide	uncertainty
2000	0.41	0.04
4000	0.59	0.04
6000	0.7	0.04
8000	0.78	0.04
10000	0.79	0.04

System: 1-hexyl-3-methylimidazolium tris(pentafluoroethyl)trifluorophosphate + water + carbon dioxide; phases: Liquid, Gas
Fixed: Temperature, K = 313.15
Fixed: Solvent: Mass fraction of water = 0.001
Property: Mole fraction of carbon dioxide (Liquid); method: volumetric
Pressure, kPa	Mole fraction of carbon dioxide	uncertainty
2000	0.41	0.04
4000	0.59	0.04
6000	0.7	0.04
8000	0.78	0.04
10000	0.79	0.04

System: 1-ethyl-3-methylimidazolium trifluoromethanesulfonate + water + carbon dioxide; phases: Liquid, Gas
Property: Mole fraction of carbon dioxide (Liquid); method: volumetric
Temperature, K	Solvent: Mass fraction of water	Pressure, kPa	Mole fraction of carbon dioxide	uncertainty
313.15	0	2000	0.25	0.04
313.15	0	4000	0.39	0.04
313.15	0	6000	0.51	0.04
313.15	0	8000	0.56	0.04
313.15	0	10000	0.65	0.04
313.15	0.001	2000	0.25	0.04
313.15	0.001	4000	0.4	0.04
313.15	0.001	6000	0.52	0.04
313.15	0.001	8000	0.57	0.04
313.15	0.001	10000	0.65	0.04
313.15	0.1	2000	0.11	0.04
313.15	0.1	4000	0.19	0.04
313.15	0.1	6000	0.27	0.04
313.15	0.1	8000	0.34	0.04
313.15	0.1	10000	0.39	0.04
318.15	0	2000	0.25	0.04
318.15	0	4000	0.39	0.04
318.15	0	6000	0.48	0.04
318.15	0	8000	0.53	0.04
318.15	0.1	1000	0.08	0.04
318.15	0.1	2000	0.12	0.04
318.15	0.1	3000	0.15	0.04
318.15	0.1	4000	0.2	0.04
318.15	0.1	6000	0.27	0.04
318.15	0.1	8000	0.33	0.04

System: 1-ethyl-3-methylimidazolium trifluoromethanesulfonate + carbon dioxide; phases: Liquid, Gas
Property: Boiling temperature at pressure P, K (Liquid); method: volumetric
Mole fraction of carbon dioxide	Pressure, kPa	Boiling temperature at pressure P, K	uncertainty
0.25	2000	313.15	
0.39	4000	313.15	
0.51	6000	313.15	
0.56	8000	313.15	
0.65	10000	313.15	
0.25	2000	318.15	
0.39	4000	318.15	
0.48	6000	318.15	
0.53	8000	318.15	
