Measured thermophysical data. Isobaric Vapor Liquid Equilibria for Two Binary Systems {Propylene Glycol Methyl Ether Acetate + Methanol} and {Propylene Glycol Methyl Ether Acetate + N,N-Dimethylformamide} at p = 30.0, 50.0, and 70.0 kPa
Source: J. Chem. Eng. Data, 2017, 10.1021/acs.jced.6b01071
Compound 1: 1-methoxy-2-propyl acetate, C6H12O3, InChI=1S/C6H12O3/c1-5(4-8-3)9-6(2)7/h5H,4H2,1-3H3, purity 99.1%
Compound 2: dimethylformamide, C3H7NO, InChI=1S/C3H7NO/c1-4(2)3-5/h3H,1-2H3, purity 98%
Compound 3: methanol, CH4O, InChI=1S/CH4O/c1-2/h2H,1H3, purity 99.9%

System: 1-methoxy-2-propyl acetate; phases: Liquid
Property: Mass density, kg/m3 (Liquid); method: Vibrating tube method
Temperature, K	Pressure, kPa	Mass density, kg/m3	uncertainty
298.15	101.325	961.52	5

System: 1-methoxy-2-propyl acetate; phases: Liquid
Property: Refractive index (Na D-line) (Liquid); method: Standard Abbe refractometry
Temperature, K	Pressure, kPa	Refractive index (Na D-line)	uncertainty
298.15	101.325	1.3986	0.01

System: 1-methoxy-2-propyl acetate; phases: Liquid, Gas
Property: Boiling temperature at pressure P, K (Liquid); method: Ebulliometric method (Recirculating still)
Pressure, kPa	Boiling temperature at pressure P, K	uncertainty
101.3	418.72	0.2

System: 1-methoxy-2-propyl acetate; phases: Liquid, Gas
Property: Vapor or sublimation pressure, kPa (Liquid); method: Ebulliometric method (Recirculating still)
Temperature, K	Vapor or sublimation pressure, kPa	uncertainty
381.41	30	1
396.04	50	1
406.59	70	1
381.15	30	1
395.9	50	1
406.39	70	1

System: dimethylformamide; phases: Liquid
Property: Mass density, kg/m3 (Liquid); method: Vibrating tube method
Temperature, K	Pressure, kPa	Mass density, kg/m3	uncertainty
298.15	101.325	943.89	5

System: dimethylformamide; phases: Liquid
Property: Refractive index (Na D-line) (Liquid); method: Standard Abbe refractometry
Temperature, K	Pressure, kPa	Refractive index (Na D-line)	uncertainty
298.15	101.325	1.4277	0.01

System: dimethylformamide; phases: Liquid, Gas
Property: Boiling temperature at pressure P, K (Liquid); method: Ebulliometric method (Recirculating still)
Pressure, kPa	Boiling temperature at pressure P, K	uncertainty
101.3	426.65	0.2

System: dimethylformamide; phases: Liquid, Gas
Property: Vapor or sublimation pressure, kPa (Liquid); method: Ebulliometric method (Recirculating still)
Temperature, K	Vapor or sublimation pressure, kPa	uncertainty
384.76	30	1
400.65	50	1
411.56	70	1

System: methanol; phases: Liquid
Property: Mass density, kg/m3 (Liquid); method: Vibrating tube method
Temperature, K	Pressure, kPa	Mass density, kg/m3	uncertainty
298.15	101.325	786.59	5

System: methanol; phases: Liquid
Property: Refractive index (Na D-line) (Liquid); method: Standard Abbe refractometry
Temperature, K	Pressure, kPa	Refractive index (Na D-line)	uncertainty
298.15	101.325	1.3264	0.01

System: methanol; phases: Liquid, Gas
Property: Boiling temperature at pressure P, K (Liquid); method: Ebulliometric method (Recirculating still)
Pressure, kPa	Boiling temperature at pressure P, K	uncertainty
101.3	337.63	0.2

System: methanol; phases: Liquid, Gas
Property: Vapor or sublimation pressure, kPa (Liquid); method: Ebulliometric method (Recirculating still)
Temperature, K	Vapor or sublimation pressure, kPa	uncertainty
309.68	30	1
320.76	50	1
328.55	70	1

System: dimethylformamide + 1-methoxy-2-propyl acetate; phases: Liquid, Gas
Property: Boiling temperature at pressure P, K (Liquid); method: Ebulliometric method (Recirculating still)
Mole fraction of 1-methoxy-2-propyl acetate	Pressure, kPa	Boiling temperature at pressure P, K	uncertainty
0	30	384.76	0.37
0.094	30	383.11	0.37
0.17	30	382.17	0.37
0.262	30	381.22	0.36
0.363	30	380.52	0.36
0.527	30	379.83	0.36
0.61	30	379.75	0.36
0.641	30	379.73	0.36
0.73	30	379.79	0.36
0.752	30	379.84	0.36
0.815	30	379.99	0.36
0.834	30	380.12	0.36
0.902	30	380.42	0.35
0.956	30	380.82	0.35
1	30	381.41	0.35
0	50	400.65	0.35
0.087	50	398.87	0.35
0.17	50	397.65	0.35
0.258	50	396.7	0.34
0.374	50	395.93	0.34
0.542	50	395.16	0.34
0.648	50	394.91	0.34
0.707	50	394.86	0.34
0.729	50	394.89	0.35
0.739	50	394.95	0.43
0.804	50	395.02	0.34
0.828	50	395.13	0.42
0.925	50	395.44	0.34
0.981	50	395.78	0.33
1	50	396.04	0.33
0	70	411.56	0.33
0.073	70	409.94	0.33
0.169	70	408.16	0.33
0.269	70	406.89	0.32
0.381	70	406.04	0.31
0.535	70	405.39	0.31
0.647	70	405.13	0.31
0.706	70	405.06	0.31
0.729	70	405.09	0.31
0.741	70	405.15	0.31
0.804	70	405.28	0.31
0.829	70	405.42	0.31
0.927	70	405.91	0.32
0.983	70	406.27	0.32
1	70	406.59	0.32

System: dimethylformamide + 1-methoxy-2-propyl acetate; phases: Gas, Liquid
Property: Mole fraction of 1-methoxy-2-propyl acetate (Gas); method: Chromatography
Mole fraction of 1-methoxy-2-propyl acetate	Pressure, kPa	Mole fraction of 1-methoxy-2-propyl acetate	uncertainty
0	30	0	
0.094	30	0.141	0.011
0.17	30	0.233	0.011
0.262	30	0.328	0.011
0.363	30	0.417	0.011
0.527	30	0.551	0.011
0.61	30	0.616	0.011
0.641	30	0.642	0.011
0.73	30	0.714	0.011
0.752	30	0.734	0.011
0.815	30	0.791	0.011
0.834	30	0.814	0.011
0.902	30	0.883	0.011
0.956	30	0.944	0.011
1	30	1	
0	50	0	
0.087	50	0.131	0.012
0.17	50	0.238	0.011
0.258	50	0.332	0.011
0.374	50	0.438	0.011
0.542	50	0.569	0.011
0.648	50	0.656	0.011
0.707	50	0.706	0.011
0.729	50	0.722	0.011
0.739	50	0.73	0.011
0.804	50	0.789	0.011
0.828	50	0.813	0.011
0.925	50	0.912	0.011
0.981	50	0.974	0.011
1	50	1	
0	70	0	
0.073	70	0.119	0.012
0.169	70	0.245	0.011
0.269	70	0.344	0.011
0.381	70	0.44	0.011
0.535	70	0.568	0.011
0.647	70	0.659	0.011
0.706	70	0.704	0.011
0.729	70	0.723	0.011
0.741	70	0.734	0.011
0.804	70	0.791	0.011
0.829	70	0.815	0.011
0.927	70	0.917	0.011
0.983	70	0.976	0.011
1	70	1	

System: methanol + 1-methoxy-2-propyl acetate; phases: Liquid, Gas
Property: Boiling temperature at pressure P, K (Liquid); method: Ebulliometric method (Recirculating still)
Mole fraction of methanol	Pressure, kPa	Boiling temperature at pressure P, K	uncertainty
0	30	381.15	0.35
0.012	30	374.14	2.01
0.035	30	363.65	1.5
0.071	30	352.34	0.93
0.144	30	339.28	0.59
0.261	30	327.73	0.45
0.344	30	322.94	0.36
0.482	30	317.67	0.3
0.884	30	311.19	0.31
0.918	30	310.77	0.3
0.987	30	309.94	0.3
1	30	309.68	0.3
0	50	395.9	0.33
0.012	50	388.57	1.98
0.034	50	378.78	1.52
0.062	50	369.56	0.94
0.134	50	354.87	0.61
0.276	50	339.84	0.49
0.347	50	335.49	0.35
0.483	50	329.95	0.31
0.741	50	324.63	0.26
0.875	50	322.89	0.3
0.913	50	322.15	0.29
0.979	50	321.05	0.3
1	50	320.76	0.28
0	70	406.39	0.32
0.016	70	396.78	2.14
0.033	70	388.94	1.6
0.058	70	380.18	1.03
0.132	70	364.04	0.66
0.276	70	348.35	0.49
0.345	70	343.91	0.35
0.483	70	337.94	0.31
0.743	70	332.31	0.29
0.876	70	330.57	0.27
0.912	70	330.06	0.28
0.985	70	328.92	0.29
1	70	328.55	0.27

System: methanol + 1-methoxy-2-propyl acetate; phases: Gas, Liquid
Property: Mole fraction of methanol (Gas); method: Chromatography
Mole fraction of methanol	Pressure, kPa	Mole fraction of methanol	uncertainty
0	30	0	
0.012	30	0.246	0.058
0.035	30	0.513	0.032
0.071	30	0.707	0.016
0.144	30	0.854	0.011
0.261	30	0.929	0.01
0.344	30	0.948	0.01
0.482	30	0.963	0.01
0.884	30	0.985	0.01
0.918	30	0.989	0.01
0.987	30	0.998	0.002
1	30	1	
0	50	0	
0.012	50	0.223	0.054
0.034	50	0.469	0.034
0.062	50	0.637	0.016
0.134	50	0.817	0.011
0.276	50	0.923	0.01
0.347	50	0.941	0.01
0.483	50	0.956	0.01
0.741	50	0.971	0.01
0.875	50	0.985	0.01
0.913	50	0.988	0.01
0.979	50	0.996	0.004
1	50	1	
0	70	0	
0.016	70	0.274	0.056
0.033	70	0.453	0.033
0.058	70	0.61	0.017
0.132	70	0.807	0.011
0.276	70	0.918	0.01
0.345	70	0.939	0.01
0.483	70	0.952	0.01
0.743	70	0.966	0.01
0.876	70	0.981	0.01
0.912	70	0.986	0.01
0.985	70	0.997	0.003
1	70	1	
