Measured thermophysical data. Solubility of d-Aspartic Acid in Several Neat Solvents: Determination, Modeling, and Solvent Effect Analysis
Source: J. Chem. Eng. Data, 2019, 10.1021/acs.jced.9b00320
Compound 1: D-aspartic acid, C4H7NO4, InChI=1S/C4H7NO4/c5-2(4(8)9)1-3(6)7/h2H,1,5H2,(H,6,7)(H,8,9)/t2-/m1/s1, purity 98.2%
Compound 2: methanol, CH4O, InChI=1S/CH4O/c1-2/h2H,1H3, purity 99.7%
Compound 3: ethanol, C2H6O, InChI=1S/C2H6O/c1-2-3/h3H,2H2,1H3, purity 99.4%
Compound 4: propan-2-ol, C3H8O, InChI=1S/C3H8O/c1-3(2)4/h3-4H,1-2H3, purity 99.5%
Compound 5: acetone, C3H6O, InChI=1S/C3H6O/c1-3(2)4/h1-2H3, purity 99.4%
Compound 6: propan-1-ol, C3H8O, InChI=1S/C3H8O/c1-2-3-4/h4H,2-3H2,1H3, purity 99.5%
Compound 7: butan-1-ol, C4H10O, InChI=1S/C4H10O/c1-2-3-4-5/h5H,2-4H2,1H3, purity 99.4%
Compound 8: dimethylformamide, C3H7NO, InChI=1S/C3H7NO/c1-4(2)3-5/h3H,1-2H3, purity 99.5%
Compound 9: N-methylpyrrolidone, C5H9NO, InChI=1S/C5H9NO/c1-6-4-2-3-5(6)7/h2-4H2,1H3, purity 99.4%
Compound 10: 1,4-dioxane, C4H8O2, InChI=1S/C4H8O2/c1-2-6-4-3-5-1/h1-4H2, purity 99.5%
Compound 11: dimethyl sulfoxide, C2H6OS, InChI=1S/C2H6OS/c1-4(2)3/h1-2H3, purity 99.4%
Compound 12: 1,2-ethanediol, C2H6O2, InChI=1S/C2H6O2/c3-1-2-4/h3-4H,1-2H2, purity 99.5%
Compound 13: water, H2O, InChI=1S/H2O/h1H2, purity 99.9%

System: D-aspartic acid + methanol; phases: Liquid, Crystal
Fixed: Pressure, kPa = 101.2
Property: Mole fraction of D-aspartic acid (Liquid); method: Chromatography
Temperature, K	Mole fraction of D-aspartic acid	uncertainty
288.15	0.0003942	2.29e-05
293.15	0.0004308	2.5e-05
298.15	0.0005067	2.94e-05
303.15	0.0005812	3.37e-05
308.15	0.0007177	4.17e-05
313.15	0.0008201	4.76e-05
318.15	0.0009898	5.75e-05
323.15	0.00119	6.9e-05
328.15	0.001312	7.6e-05
333.15	0.001548	9e-05

System: D-aspartic acid + ethanol; phases: Liquid, Crystal
Fixed: Pressure, kPa = 101.2
Property: Mole fraction of D-aspartic acid (Liquid); method: Chromatography
Temperature, K	Mole fraction of D-aspartic acid	uncertainty
288.15	0.0002879	1.67e-05
293.15	0.0003159	1.83e-05
298.15	0.0003985	2.31e-05
303.15	0.0004595	2.67e-05
308.15	0.0005754	3.34e-05
313.15	0.0006537	3.79e-05
318.15	0.0007928	4.6e-05
323.15	0.0008962	5.2e-05
328.15	0.001057	6.1e-05
333.15	0.001286	7.5e-05

System: D-aspartic acid + propan-1-ol; phases: Liquid, Crystal
Fixed: Pressure, kPa = 101.2
Property: Mole fraction of D-aspartic acid (Liquid); method: Chromatography
Temperature, K	Mole fraction of D-aspartic acid	uncertainty
288.15	0.0002355	1.37e-05
293.15	0.0002625	1.52e-05
298.15	0.000326	1.89e-05
303.15	0.0003755	2.18e-05
308.15	0.0004732	2.75e-05
313.15	0.0005479	3.18e-05
318.15	0.0006607	3.84e-05
323.15	0.0007561	4.39e-05
328.15	0.000868	5.04e-05
333.15	0.001085	6.3e-05

System: D-aspartic acid + butan-1-ol; phases: Liquid, Crystal
Fixed: Pressure, kPa = 101.2
Property: Mole fraction of D-aspartic acid (Liquid); method: Chromatography
Temperature, K	Mole fraction of D-aspartic acid	uncertainty
288.15	0.0002019	1.17e-05
293.15	0.0002317	1.35e-05
298.15	0.0002939	1.71e-05
303.15	0.0003407	1.98e-05
308.15	0.0004325	2.51e-05
313.15	0.0004968	2.88e-05
318.15	0.0005962	3.46e-05
323.15	0.0006729	3.91e-05
328.15	0.0008067	4.68e-05
333.15	0.0009725	5.65e-05

System: D-aspartic acid + propan-2-ol; phases: Liquid, Crystal
Fixed: Pressure, kPa = 101.2
Property: Mole fraction of D-aspartic acid (Liquid); method: Chromatography
Temperature, K	Mole fraction of D-aspartic acid	uncertainty
288.15	0.0002096	1.22e-05
293.15	0.0002427	1.41e-05
298.15	0.0003043	1.77e-05
303.15	0.000353	2.05e-05
308.15	0.0004387	2.55e-05
313.15	0.0005102	2.96e-05
318.15	0.0006103	3.54e-05
323.15	0.0006928	4.02e-05
328.15	0.0008265	4.8e-05
333.15	0.001009	5.9e-05

System: D-aspartic acid + water; phases: Liquid, Crystal
Fixed: Pressure, kPa = 101.2
Property: Mole fraction of D-aspartic acid (Liquid); method: Chromatography
Temperature, K	Mole fraction of D-aspartic acid	uncertainty
288.15	0.000555	3.22e-05
293.15	0.0006106	3.54e-05
298.15	0.0007282	4.23e-05
303.15	0.0008355	4.85e-05
308.15	0.00102	5.9e-05
313.15	0.001192	6.9e-05
318.15	0.001348	7.8e-05
323.15	0.001547	9e-05
328.15	0.001762	0.000102
333.15	0.00212	0.000123

System: D-aspartic acid + dimethyl sulfoxide; phases: Liquid, Crystal
Fixed: Pressure, kPa = 101.2
Property: Mole fraction of D-aspartic acid (Liquid); method: Chromatography
Temperature, K	Mole fraction of D-aspartic acid	uncertainty
298.15	0.01153	0.00067
303.15	0.01251	0.00073
308.15	0.01419	0.00082
313.15	0.01532	0.00089
318.15	0.01766	0.00103
323.15	0.01905	0.00111
328.15	0.02189	0.00127
333.15	0.02408	0.0014

System: D-aspartic acid + dimethylformamide; phases: Liquid, Crystal
Fixed: Pressure, kPa = 101.2
Property: Mole fraction of D-aspartic acid (Liquid); method: Chromatography
Temperature, K	Mole fraction of D-aspartic acid	uncertainty
288.15	0.01083	0.00063
293.15	0.01169	0.00068
298.15	0.0133	0.00077
303.15	0.01461	0.00085
308.15	0.01674	0.00097
313.15	0.01818	0.00106
318.15	0.01972	0.00114
323.15	0.02223	0.00129
328.15	0.02459	0.00143
333.15	0.02797	0.00162

System: D-aspartic acid + N-methylpyrrolidone; phases: Liquid, Crystal
Fixed: Pressure, kPa = 101.2
Property: Mole fraction of D-aspartic acid (Liquid); method: Chromatography
Temperature, K	Mole fraction of D-aspartic acid	uncertainty
288.15	0.01067	0.00062
293.15	0.01145	0.00066
298.15	0.01297	0.00075
303.15	0.01514	0.00088
308.15	0.01651	0.00096
313.15	0.01941	0.00113
318.15	0.02152	0.00125
323.15	0.02513	0.00146
328.15	0.02738	0.00159
333.15	0.03124	0.00181

System: D-aspartic acid + 1,2-ethanediol; phases: Liquid, Crystal
Fixed: Pressure, kPa = 101.2
Property: Mole fraction of D-aspartic acid (Liquid); method: Chromatography
Temperature, K	Mole fraction of D-aspartic acid	uncertainty
288.15	0.003146	0.000183
293.15	0.003455	0.000201
298.15	0.004101	0.000238
303.15	0.004628	0.000269
308.15	0.005609	0.000326
313.15	0.006288	0.000365
318.15	0.007521	0.000437
323.15	0.008327	0.000483
328.15	0.00922	0.000535
333.15	0.01088	0.00063

System: D-aspartic acid + 1,4-dioxane; phases: Liquid, Crystal
Fixed: Pressure, kPa = 101.2
Property: Mole fraction of D-aspartic acid (Liquid); method: Chromatography
Temperature, K	Mole fraction of D-aspartic acid	uncertainty
288.15	0.005495	0.000319
293.15	0.005942	0.000345
298.15	0.007032	0.000408
303.15	0.007825	0.000454
308.15	0.009404	0.000546
313.15	0.01033	0.0006
318.15	0.01207	0.0007
323.15	0.01314	0.00076
328.15	0.01451	0.00084
333.15	0.01715	0.001

System: D-aspartic acid + acetone; phases: Liquid, Crystal
Fixed: Pressure, kPa = 101.2
Property: Mole fraction of D-aspartic acid (Liquid); method: Chromatography
Temperature, K	Mole fraction of D-aspartic acid	uncertainty
288.15	0.002616	0.000152
293.15	0.002931	0.00017
298.15	0.00354	0.000206
303.15	0.004024	0.000234
308.15	0.004931	0.000286
313.15	0.005518	0.00032
318.15	0.006612	0.000384
323.15	0.007483	0.000434
328.15	0.008285	0.000481
333.15	0.009815	0.00057
