Measured thermophysical data. Liquid-Liquid Equilibria for Ternary Systems of (Ethyl Methyl Carbonate + Methanol or Ethanol + Water) at 293.15, 303.15, and 308.15 K
Source: J. Chem. Eng. Data, 2018, 10.1021/acs.jced.8b00543
Compound 1: ethyl methyl carbonate, C4H8O3, InChI=1S/C4H8O3/c1-3-7-4(5)6-2/h3H2,1-2H3, purity 99.4%
Compound 2: methanol, CH4O, InChI=1S/CH4O/c1-2/h2H,1H3, purity 99.4%
Compound 3: ethanol, C2H6O, InChI=1S/C2H6O/c1-2-3/h3H,2H2,1H3, purity 99.7%
Compound 4: water, H2O, InChI=1S/H2O/h1H2, purity 99.9%

System: water + methanol + ethyl methyl carbonate; phases: Liquid mixture 2, Liquid mixture 1
Fixed: Pressure, kPa = 101
Property: Mole fraction of methanol (Liquid mixture 2); method: Chromatography
Property: Mole fraction of methanol (Liquid mixture 1); method: Chromatography
Property: Mole fraction of water (Liquid mixture 1); method: Chromatography
Temperature, K	Mole fraction of water	Mole fraction of methanol	uncertainty	Mole fraction of methanol	uncertainty	Mole fraction of water	uncertainty
293.15	0.967	0.023	0.013	0.013	0.011	0.108	
293.15	0.954	0.033	0.013	0.021	0.011	0.125	
293.15	0.943	0.043	0.013	0.029	0.01	0.139	
293.15	0.931	0.051	0.012	0.036	0.01	0.171	
293.15	0.919	0.059	0.012	0.042	0.011	0.183	
293.15	0.904	0.07	0.012	0.052	0.011	0.204	
293.15	0.892	0.078	0.012	0.056	0.01	0.227	
293.15	0.881	0.084	0.011	0.068	0.011	0.258	
303.15	0.962	0.03	0.013	0.016	0.011	0.1	
303.15	0.949	0.04	0.013	0.027	0.011	0.134	
303.15	0.932	0.054	0.013	0.041	0.011	0.173	
303.15	0.916	0.065	0.012	0.049	0.011	0.195	
303.15	0.904	0.073	0.012	0.06	0.011	0.232	
303.15	0.887	0.082	0.012	0.069	0.011	0.254	
303.15	0.865	0.095	0.012	0.077	0.011	0.274	
308.15	0.962	0.031	0.013	0.017	0.011	0.101	
308.15	0.942	0.047	0.013	0.033	0.011	0.137	
308.15	0.925	0.06	0.012	0.041	0.011	0.156	
308.15	0.915	0.066	0.012	0.047	0.011	0.169	
308.15	0.906	0.073	0.012	0.055	0.011	0.197	
308.15	0.896	0.08	0.012	0.063	0.011	0.217	
308.15	0.879	0.089	0.012	0.074	0.01	0.249	
308.15	0.861	0.103	0.013	0.08	0.01	0.278	

System: water + ethanol + ethyl methyl carbonate; phases: Liquid mixture 2, Liquid mixture 1
Fixed: Pressure, kPa = 101
Property: Mole fraction of ethanol (Liquid mixture 2); method: Chromatography
Property: Mole fraction of ethanol (Liquid mixture 1); method: Chromatography
Property: Mole fraction of water (Liquid mixture 1); method: Chromatography
Temperature, K	Mole fraction of water	Mole fraction of ethanol	uncertainty	Mole fraction of ethanol	uncertainty	Mole fraction of water	uncertainty
293.15	0.976	0.016	0.013	0.026	0.011	0.111	
293.15	0.973	0.018	0.013	0.03	0.01	0.118	
293.15	0.963	0.026	0.012	0.044	0.01	0.166	
293.15	0.944	0.038	0.012	0.068	0.01	0.26	
293.15	0.937	0.045	0.012	0.077	0.01	0.301	
293.15	0.93	0.048	0.012	0.086	0.01	0.332	
293.15	0.924	0.053	0.012	0.099	0.01	0.432	
293.15	0.91	0.063	0.012	0.107	0.01	0.48	
303.15	0.977	0.019	0.012	0.038	0.01	0.132	
303.15	0.963	0.028	0.012	0.054	0.01	0.183	
303.15	0.958	0.03	0.013	0.058	0.011	0.2	
303.15	0.949	0.038	0.013	0.072	0.01	0.285	
303.15	0.938	0.049	0.012	0.09	0.01	0.352	
303.15	0.915	0.064	0.011	0.109	0.01	0.479	
303.15	0.897	0.069	0.01	0.113	0.01	0.52	
308.15	0.973	0.021	0.012	0.043	0.011	0.127	
308.15	0.963	0.028	0.014	0.057	0.01	0.165	
308.15	0.956	0.035	0.013	0.068	0.01	0.214	
308.15	0.945	0.046	0.013	0.086	0.01	0.307	
308.15	0.94	0.05	0.013	0.1	0.01	0.399	
308.15	0.931	0.056	0.013	0.106	0.01	0.469	
308.15	0.92	0.066	0.014	0.112	0.01	0.49	
308.15	0.915	0.07	0.013	0.115	0.01	0.516	
