Measured thermophysical data. Densities and Viscosities at 293.15 373.15 K, Speeds of Sound and Bulk Moduli at 293.15 333.15 K, Surface Tensions, and Flash Points of Binary Mixtures of n-Hexadecane and Alkylbenzenes at 0.1 MPa
Source: J. Chem. Eng. Data, 2017, 10.1021/acs.jced.7b00087
Compound 1: hexadecane, C16H34, InChI=1S/C16H34/c1-3-5-7-9-11-13-15-16-14-12-10-8-6-4-2/h3-16H2,1-2H3, purity 99.4%
Compound 2: hexylbenzene, C12H18, InChI=1S/C12H18/c1-2-3-4-6-9-12-10-7-5-8-11-12/h5,7-8,10-11H,2-4,6,9H2,1H3, purity 99.6%
Compound 3: octylbenzene, C14H22, InChI=1S/C14H22/c1-2-3-4-5-6-8-11-14-12-9-7-10-13-14/h7,9-10,12-13H,2-6,8,11H2,1H3, purity 99.9%
Compound 4: dodecylbenzene, C18H30, InChI=1S/C18H30/c1-2-3-4-5-6-7-8-9-10-12-15-18-16-13-11-14-17-18/h11,13-14,16-17H,2-10,12,15H2,1H3, purity 99.8%

System: hexadecane; phases: Liquid, Gas
Property: Surface tension liquid-gas, N/m (Liquid); method: Pendant drop shape
Temperature, K	Surface tension liquid-gas, N/m	uncertainty
294	0.0272	0.0004

System: hexadecane; phases: Liquid
Fixed: Pressure, kPa = 102
Property: Mass density, kg/m3 (Liquid); method: Vibrating tube method
Temperature, K	Mass density, kg/m3	uncertainty
293.15	773.41	0.16
303.15	766.47	0.17
313.15	759.55	0.17
323.15	752.63	0.17
333.15	745.71	0.17
343.15	738.7	0.3
353.15	731.8	0.3
363.15	724.7	0.3
373.15	717.8	0.3
343.15	738.74	0.25

System: hexadecane; phases: Liquid
Fixed: Pressure, kPa = 102
Property: Viscosity, Pa*s (Liquid); method: Concentric cylinders viscometry
Temperature, K	Viscosity, Pa*s	uncertainty
293.15	0.00344	2e-05
303.15	0.00272	2e-05
313.15	0.00221	2e-05
323.15	0.00183	1e-05
333.15	0.00154	1e-05
343.15	0.00131	1e-05
353.15	0.00114	1e-05
363.15	0.000994	1.1e-05
373.15	0.000878	1.1e-05

System: hexadecane; phases: Liquid
Fixed: Pressure, kPa = 102
Fixed: Frequency, MHz = 3
Property: Speed of sound, m/s (Liquid); method: Sing-around technique in a fixed-path interferometer
Temperature, K	Speed of sound, m/s	uncertainty
293.15	1357.2	1.2
303.15	1319.5	1.4
313.15	1283.3	1.2
323.15	1247.3	1.2
333.15	1212	1.2

System: hexylbenzene; phases: Liquid, Gas
Property: Surface tension liquid-gas, N/m (Liquid); method: Pendant drop shape
Temperature, K	Surface tension liquid-gas, N/m	uncertainty
294.4	0.0295	0.0004

System: hexylbenzene; phases: Liquid
Fixed: Pressure, kPa = 102
Property: Mass density, kg/m3 (Liquid); method: Vibrating tube method
Temperature, K	Mass density, kg/m3	uncertainty
293.15	857.68	0.12
303.15	850.1	0.13
313.15	842.5	0.13
323.15	834.88	0.13
333.15	827.24	0.13
343.15	819.5	0.2
353.15	811.7	0.2
363.15	803.8	0.2
373.15	796.3	0.2

System: hexylbenzene; phases: Liquid
Fixed: Pressure, kPa = 102
Property: Viscosity, Pa*s (Liquid); method: Concentric cylinders viscometry
Temperature, K	Viscosity, Pa*s	uncertainty
293.15	0.00168	1e-05
303.15	0.0014	1e-05
313.15	0.00119	1e-05
323.15	0.00103	1e-05
333.15	0.000901	1.1e-05
343.15	0.000795	1.1e-05
353.15	0.000708	1.1e-05
363.15	0.000636	1.1e-05
373.15	0.000575	1e-05

System: hexylbenzene; phases: Liquid
Fixed: Pressure, kPa = 102
Fixed: Frequency, MHz = 3
Property: Speed of sound, m/s (Liquid); method: Sing-around technique in a fixed-path interferometer
Temperature, K	Speed of sound, m/s	uncertainty
293.15	1376.1	1.2
303.15	1338.7	1.1
313.15	1301.7	1.1
323.15	1265.3	1.1
333.15	1229.4	1.1

System: octylbenzene; phases: Liquid, Gas
Property: Surface tension liquid-gas, N/m (Liquid); method: Pendant drop shape
Temperature, K	Surface tension liquid-gas, N/m	uncertainty
293.9	0.0302	0.0004

System: octylbenzene; phases: Liquid
Fixed: Pressure, kPa = 102
Property: Mass density, kg/m3 (Liquid); method: Vibrating tube method
Temperature, K	Mass density, kg/m3	uncertainty
293.15	856.27	0.11
303.15	849.02	0.11
313.15	841.74	0.11
323.15	834.47	0.11
333.15	827.17	0.12
343.15	819.9	0.2
353.15	812.5	0.2
363.15	805.1	0.2
373.15	797.7	0.2

System: octylbenzene; phases: Liquid
Fixed: Pressure, kPa = 102
Property: Viscosity, Pa*s (Liquid); method: Concentric cylinders viscometry
Temperature, K	Viscosity, Pa*s	uncertainty
293.15	0.00257	2e-05
303.15	0.00208	1e-05
313.15	0.00173	1e-05
323.15	0.00146	1e-05
333.15	0.00125	1e-05
343.15	0.00109	1e-05
353.15	0.000954	1.1e-05
363.15	0.000847	1.1e-05
373.15	0.000759	1.1e-05

System: octylbenzene; phases: Liquid
Fixed: Pressure, kPa = 102
Fixed: Frequency, MHz = 3
Property: Speed of sound, m/s (Liquid); method: Sing-around technique in a fixed-path interferometer
Temperature, K	Speed of sound, m/s	uncertainty
293.15	1397.5	1.1
303.15	1361	1.1
313.15	1324.9	1.1
323.15	1289.4	1.1
333.15	1254.3	1.1

System: dodecylbenzene; phases: Liquid, Gas
Property: Surface tension liquid-gas, N/m (Liquid); method: Pendant drop shape
Temperature, K	Surface tension liquid-gas, N/m	uncertainty
294.3	0.0311	0.0004

System: dodecylbenzene; phases: Liquid
Fixed: Pressure, kPa = 102
Property: Mass density, kg/m3 (Liquid); method: Vibrating tube method
Temperature, K	Mass density, kg/m3	uncertainty
293.15	854.89	0.11
303.15	848	0.11
313.15	841.11	0.12
323.15	834.23	0.12
333.15	827.35	0.12
343.15	820.47	0.22
353.15	813.5	0.2
363.15	806.6	0.2
373.15	799.7	0.2

System: dodecylbenzene; phases: Liquid
Fixed: Pressure, kPa = 102
Property: Viscosity, Pa*s (Liquid); method: Concentric cylinders viscometry
Temperature, K	Viscosity, Pa*s	uncertainty
293.15	0.00547	2e-05
303.15	0.00421	2e-05
313.15	0.00333	2e-05
323.15	0.00271	2e-05
333.15	0.00224	1e-05
343.15	0.00189	1e-05
353.15	0.00162	1e-05
363.15	0.00141	1e-05
373.15	0.00123	1e-05

System: dodecylbenzene; phases: Liquid
Fixed: Pressure, kPa = 102
Fixed: Frequency, MHz = 3
Property: Speed of sound, m/s (Liquid); method: Sing-around technique in a fixed-path interferometer
Temperature, K	Speed of sound, m/s	uncertainty
293.15	1429.7	1.4
303.15	1394.1	1.4
313.15	1359	1.4
323.15	1324.4	1.3
333.15	1290.4	1.2

System: hexadecane + hexylbenzene; phases: Liquid
Fixed: Pressure, kPa = 102
Property: Mass density, kg/m3 (Liquid); method: Vibrating tube method
Temperature, K	Mass fraction of hexylbenzene	Mass density, kg/m3	uncertainty
293.15	0	773.41	0.16
293.15	0.1001	780.84	0.16
293.15	0.2003	788.38	0.16
293.15	0.3	796.14	0.15
293.15	0.4	804.16	0.15
293.15	0.4998	812.4	0.14
293.15	0.5978	820.73	0.14
293.15	0.7	829.7	0.14
293.15	0.7999	838.73	0.13
293.15	0.8999	848.05	0.13
293.15	1	857.68	0.12
303.15	0	766.47	0.17
303.15	0.1001	773.86	0.16
303.15	0.2003	781.37	0.16
303.15	0.3	789.07	0.15
303.15	0.4	797.03	0.15
303.15	0.4998	805.2	0.15
303.15	0.5978	813.47	0.14
303.15	0.7	822.35	0.14
303.15	0.7999	831.31	0.13
303.15	0.8999	840.55	0.13
303.15	1	850.1	0.13
313.15	0	759.55	0.17
313.15	0.1001	766.88	0.16
313.15	0.2003	774.35	0.16
313.15	0.3	781.99	0.16
313.15	0.4	789.88	0.15
313.15	0.4998	797.99	0.15
313.15	0.5978	806.19	0.14
313.15	0.7	815	0.14
313.15	0.7999	823.88	0.14
313.15	0.8999	833.04	0.13
313.15	1	842.5	0.13
323.15	0	752.63	0.17
323.15	0.1001	759.91	0.17
323.15	0.2003	767.32	0.16
323.15	0.3	774.9	0.16
323.15	0.4	782.73	0.15
323.15	0.4998	790.77	0.15
323.15	0.5978	798.89	0.15
323.15	0.7	807.63	0.14
323.15	0.7999	816.43	0.14
323.15	0.8999	825.5	0.13
323.15	1	834.88	0.13
333.15	0	745.71	0.17
333.15	0.1001	752.93	0.17
333.15	0.2003	760.28	0.16
333.15	0.3	767.8	0.16
333.15	0.4	775.56	0.16
333.15	0.4998	783.53	0.15
333.15	0.5978	791.58	0.15
333.15	0.7	800.23	0.14
333.15	0.7999	808.96	0.14
333.15	0.8999	817.95	0.14
333.15	1	827.24	0.13
343.15	0	738.7	0.3
343.15	0.1001	745.9	0.3
343.15	0.2003	753.3	0.3
343.15	0.3	760.7	0.3
343.15	0.4	768.4	0.3
343.15	0.4998	776.3	0.2
343.15	0.5978	784.3	0.2
343.15	0.7	792.9	0.2
343.15	0.7999	801.5	0.2
343.15	0.8999	810.4	0.2
343.15	1	819.5	0.2
353.15	0	731.8	0.3
353.15	0.1001	738.8	0.3
353.15	0.2003	746.1	0.3
353.15	0.3	753.5	0.3
353.15	0.4	761.2	0.3
353.15	0.4998	769	0.2
353.15	0.5978	776.9	0.2
353.15	0.7	785.4	0.2
353.15	0.7999	793.9	0.2
353.15	0.8999	802.8	0.2
353.15	1	811.7	0.2
363.15	0	724.7	0.3
363.15	0.1001	731.8	0.3
363.15	0.2003	738.9	0.3
363.15	0.3	746.3	0.3
363.15	0.4	753.9	0.3
363.15	0.4998	761.7	0.3
363.15	0.5978	769.4	0.2
363.15	0.7	777.9	0.2
363.15	0.7999	786.3	0.2
363.15	0.8999	795.1	0.2
363.15	1	803.8	0.2
373.15	0	717.8	0.3
373.15	0.1001	724.7	0.3
373.15	0.2003	731.8	0.3
373.15	0.3	739	0.3
373.15	0.4	746.6	0.3
373.15	0.4998	754.2	0.3
373.15	0.5978	761.9	0.2
373.15	0.7	770.3	0.2
373.15	0.7999	778.6	0.2
373.15	0.8999	787.3	0.2
373.15	1	796.3	0.2

System: hexadecane + hexylbenzene; phases: Liquid
Fixed: Pressure, kPa = 102
Property: Viscosity, Pa*s (Liquid); method: Concentric cylinders viscometry
Temperature, K	Mass fraction of hexylbenzene	Viscosity, Pa*s	uncertainty
293.15	0	0.00344	2e-05
293.15	0.1001	0.00312	2e-05
293.15	0.2003	0.00285	3e-05
293.15	0.3	0.00263	2e-05
293.15	0.4	0.00243	2e-05
293.15	0.4998	0.00225	2e-05
293.15	0.5978	0.00211	2e-05
293.15	0.7	0.00198	1e-05
293.15	0.7999	0.00186	1e-05
293.15	0.8999	0.00177	2e-05
293.15	1	0.00168	1e-05
303.15	0	0.00272	2e-05
303.15	0.1001	0.00249	2e-05
303.15	0.2003	0.0023	2e-05
303.15	0.3	0.00213	2e-05
303.15	0.4	0.00198	1e-05
303.15	0.4998	0.00185	1e-05
303.15	0.5978	0.00174	1e-05
303.15	0.7	0.00164	1e-05
303.15	0.7999	0.00155	1e-05
303.15	0.8999	0.00147	1e-05
303.15	1	0.0014	1e-05
313.15	0	0.00221	2e-05
313.15	0.1001	0.00204	2e-05
313.15	0.2003	0.0019	2e-05
313.15	0.3	0.00176	1e-05
313.15	0.4	0.00165	1e-05
313.15	0.4998	0.00155	1e-05
313.15	0.5978	0.00146	1e-05
313.15	0.7	0.00138	1e-05
313.15	0.7999	0.00131	1e-05
313.15	0.8999	0.00125	1e-05
313.15	1	0.00119	1e-05
323.15	0	0.00183	1e-05
323.15	0.1001	0.0017	1e-05
323.15	0.2003	0.00159	1e-05
323.15	0.3	0.00149	1e-05
323.15	0.4	0.0014	1e-05
323.15	0.4998	0.00132	1e-05
323.15	0.5978	0.00125	1e-05
323.15	0.7	0.00118	1e-05
323.15	0.7999	0.00113	1e-05
323.15	0.8999	0.00108	1e-05
323.15	1	0.00103	1e-05
333.15	0	0.00154	1e-05
333.15	0.1001	0.00144	1e-05
333.15	0.2003	0.00135	1e-05
333.15	0.3	0.00127	1e-05
333.15	0.4	0.0012	1e-05
333.15	0.4998	0.00114	1e-05
333.15	0.5978	0.00108	1e-05
333.15	0.7	0.00103	1e-05
333.15	0.7999	0.000981	1.1e-05
333.15	0.8999	0.000938	1.1e-05
333.15	1	0.000901	1.1e-05
343.15	0	0.00131	1e-05
343.15	0.1001	0.00124	1e-05
343.15	0.2003	0.00117	1e-05
343.15	0.3	0.0011	1e-05
343.15	0.4	0.00104	1e-05
343.15	0.4998	0.000991	1.1e-05
343.15	0.5978	0.000946	1.1e-05
343.15	0.7	0.000901	1.1e-05
343.15	0.7999	0.000863	1.1e-05
343.15	0.8999	0.000827	1.1e-05
343.15	1	0.000795	1.1e-05
353.15	0	0.00114	1e-05
353.15	0.1001	0.00107	1e-05
353.15	0.2003	0.00102	1e-05
353.15	0.3	0.000963	1.1e-05
353.15	0.4	0.000917	1.1e-05
353.15	0.4998	0.000873	1.1e-05
353.15	0.5978	0.000835	1.1e-05
353.15	0.7	0.000798	1.1e-05
353.15	0.7999	0.000765	1.1e-05
353.15	0.8999	0.000735	1.1e-05
353.15	1	0.000708	1.1e-05
363.15	0	0.000994	1.1e-05
363.15	0.1001	0.000944	1.1e-05
363.15	0.2003	0.000896	1.1e-05
363.15	0.3	0.000853	1.1e-05
363.15	0.4	0.000814	1.1e-05
363.15	0.4998	0.000777	1.1e-05
363.15	0.5978	0.000745	1.1e-05
363.15	0.7	0.000713	1.1e-05
363.15	0.7999	0.000685	1.1e-05
363.15	0.8999	0.000659	1.1e-05
363.15	1	0.000636	1.1e-05
373.15	0	0.000878	1.1e-05
373.15	0.1001	0.000838	1.1e-05
373.15	0.2003	0.000798	1.1e-05
373.15	0.3	0.000761	1.1e-05
373.15	0.4	0.000728	1.1e-05
373.15	0.4998	0.000697	1.1e-05
373.15	0.5978	0.00067	1.1e-05
373.15	0.7	0.000643	1.1e-05
373.15	0.7999	0.000618	1.1e-05
373.15	0.8999	0.000596	1e-05
373.15	1	0.000575	1e-05

System: hexadecane + hexylbenzene; phases: Liquid
Fixed: Pressure, kPa = 102
Fixed: Frequency, MHz = 3
Property: Speed of sound, m/s (Liquid); method: Sing-around technique in a fixed-path interferometer
Temperature, K	Mole fraction of hexylbenzene	Speed of sound, m/s	uncertainty
293.15	0	1357.2	1.2
293.15	0.1344	1357.1	1.4
293.15	0.259	1357.3	1.3
293.15	0.3742	1357	1.2
293.15	0.4819	1357.8	1.2
293.15	0.5824	1359.4	1.4
293.15	0.6747	1361.4	1.2
293.15	0.7651	1363.9	1.2
293.15	0.848	1367.1	1.2
293.15	0.9262	1370.9	1.2
293.15	1	1376.1	1.2
303.15	0	1319.5	1.4
303.15	0.1344	1320	1.4
303.15	0.259	1320.4	1.3
303.15	0.3742	1320	1.2
303.15	0.4819	1320.9	1.2
303.15	0.5824	1322.6	1.5
303.15	0.6747	1324.5	1.2
303.15	0.7651	1326.9	1.2
303.15	0.848	1330.1	1.2
303.15	0.9262	1333.7	1.2
303.15	1	1338.7	1.1
313.15	0	1283.3	1.2
313.15	0.1344	1283.5	1.3
313.15	0.259	1283.9	1.2
313.15	0.3742	1283.6	1.2
313.15	0.4819	1284.5	1.2
313.15	0.5824	1286.2	1.4
313.15	0.6747	1288.1	1.2
313.15	0.7651	1290.4	1.2
313.15	0.848	1293.5	1.1
313.15	0.9262	1297	1.1
313.15	1	1301.7	1.1
323.15	0	1247.3	1.2
323.15	0.1344	1247.6	1.3
323.15	0.259	1248	1.2
323.15	0.3742	1247.8	1.2
323.15	0.4819	1248.7	1.2
323.15	0.5824	1250.4	1.3
323.15	0.6747	1252.2	1.2
323.15	0.7651	1254.3	1.1
323.15	0.848	1257.4	1.1
323.15	0.9262	1260.7	1.1
323.15	1	1265.3	1.1
333.15	0	1212	1.2
333.15	0.1344	1212.3	1.3
333.15	0.259	1212.7	1.2
333.15	0.3742	1212.5	1.2
333.15	0.4819	1213.4	1.2
333.15	0.5824	1215	1.3
333.15	0.6747	1216.7	1.1
333.15	0.7651	1218.8	1.1
333.15	0.848	1221.8	1.1
333.15	0.9262	1225	1.1
333.15	1	1229.4	1.1

System: hexadecane + hexylbenzene; phases: Liquid, Gas
Fixed: Temperature, K = 294.4
Property: Surface tension liquid-gas, N/m (Liquid); method: Pendant drop shape
Mole fraction of hexylbenzene	Surface tension liquid-gas, N/m	uncertainty
0.1344	0.0271	0.0005
0.259	0.0275	0.0005
0.3742	0.0277	0.0005
0.4819	0.0278	0.0005
0.5824	0.028	0.0005
0.6747	0.0283	0.0005
0.7651	0.0283	0.0005
0.848	0.0287	0.0005
0.9262	0.0291	0.0005

System: hexadecane + octylbenzene; phases: Liquid
Fixed: Pressure, kPa = 102
Property: Mass density, kg/m3 (Liquid); method: Vibrating tube method
Temperature, K	Mass fraction of octylbenzene	Mass density, kg/m3	uncertainty
293.15	0	773.41	0.16
293.15	0.1008	780.93	0.16
293.15	0.2004	788.43	0.15
293.15	0.3	796.13	0.14
293.15	0.4	804.07	0.14
293.15	0.4998	812.22	0.13
293.15	0.6002	820.57	0.13
293.15	0.6999	829.12	0.12
293.15	0.7999	837.92	0.12
293.15	0.9	846.97	0.11
293.15	1	856.27	0.11
303.15	0	766.47	0.17
303.15	0.1008	773.97	0.16
303.15	0.2004	781.46	0.15
303.15	0.3	789.13	0.15
303.15	0.4	797.03	0.14
303.15	0.4998	805.16	0.13
303.15	0.6002	813.48	0.13
303.15	0.6999	821.99	0.12
303.15	0.7999	830.75	0.12
303.15	0.9	839.76	0.12
303.15	1	849.02	0.11
313.15	0	759.55	0.17
313.15	0.1008	767.02	0.16
313.15	0.2004	774.48	0.15
313.15	0.3	782.13	0.15
313.15	0.4	790	0.14
313.15	0.4998	798.09	0.14
313.15	0.6002	806.37	0.13
313.15	0.6999	814.85	0.13
313.15	0.7999	823.57	0.12
313.15	0.9	832.53	0.12
313.15	1	841.74	0.11
323.15	0	752.63	0.17
323.15	0.1008	760.08	0.16
323.15	0.2004	767.51	0.16
323.15	0.3	775.12	0.15
323.15	0.4	782.96	0.14
323.15	0.4998	791.01	0.14
323.15	0.6002	799.26	0.13
323.15	0.6999	807.7	0.13
323.15	0.7999	816.37	0.12
323.15	0.9	825.3	0.12
323.15	1	834.47	0.11
333.15	0	745.71	0.17
333.15	0.1008	753.13	0.16
333.15	0.2004	760.53	0.16
333.15	0.3	768.11	0.15
333.15	0.4	775.91	0.15
333.15	0.4998	783.92	0.14
333.15	0.6002	792.13	0.13
333.15	0.6999	800.53	0.13
333.15	0.7999	809.17	0.13
333.15	0.9	818.05	0.12
333.15	1	827.17	0.12
343.15	0	738.7	0.3
343.15	0.1008	746.2	0.3
343.15	0.2004	753.5	0.3
343.15	0.3	761	0.2
343.15	0.4	768.8	0.2
343.15	0.4998	776.8	0.2
343.15	0.6002	784.9	0.2
343.15	0.6999	793.3	0.2
343.15	0.7999	801.9	0.2
343.15	0.9	810.7	0.2
343.15	1	819.9	0.2
353.15	0	731.8	0.3
353.15	0.1008	739.1	0.3
353.15	0.2004	746.5	0.3
353.15	0.3	754	0.2
353.15	0.4	761.7	0.2
353.15	0.4998	769.6	0.2
353.15	0.6002	777.8	0.2
353.15	0.6999	786.1	0.2
353.15	0.7999	794.6	0.2
353.15	0.9	803.4	0.2
353.15	1	812.5	0.2
363.15	0	724.7	0.3
363.15	0.1008	732.1	0.3
363.15	0.2004	739.4	0.3
363.15	0.3	746.8	0.3
363.15	0.4	754.6	0.2
363.15	0.4998	762.5	0.2
363.15	0.6002	770.6	0.2
363.15	0.6999	778.8	0.2
363.15	0.7999	787.4	0.2
363.15	0.9	796.1	0.2
363.15	1	805.1	0.2
373.15	0	717.8	0.3
373.15	0.1008	725	0.3
373.15	0.2004	732.4	0.3
373.15	0.3	739.7	0.3
373.15	0.4	747.3	0.2
373.15	0.4998	755.2	0.2
373.15	0.6002	763.3	0.2
373.15	0.6999	771.5	0.2
373.15	0.7999	780	0.2
373.15	0.9	788.7	0.2
373.15	1	797.7	0.2

System: hexadecane + octylbenzene; phases: Liquid
Fixed: Pressure, kPa = 102
Property: Viscosity, Pa*s (Liquid); method: Concentric cylinders viscometry
Temperature, K	Mass fraction of octylbenzene	Viscosity, Pa*s	uncertainty
293.15	0	0.00344	2e-05
293.15	0.1008	0.00328	2e-05
293.15	0.2004	0.00316	2e-05
293.15	0.3	0.00305	2e-05
293.15	0.4	0.00294	2e-05
293.15	0.4998	0.00285	2e-05
293.15	0.6002	0.00278	2e-05
293.15	0.6999	0.00271	2e-05
293.15	0.7999	0.00265	2e-05
293.15	0.9	0.00262	6e-05
293.15	1	0.00257	2e-05
303.15	0	0.00272	2e-05
303.15	0.1008	0.00261	2e-05
303.15	0.2004	0.00252	2e-05
303.15	0.3	0.00244	2e-05
303.15	0.4	0.00236	2e-05
303.15	0.4998	0.0023	2e-05
303.15	0.6002	0.00225	2e-05
303.15	0.6999	0.00219	1e-05
303.15	0.7999	0.00215	1e-05
303.15	0.9	0.00212	3e-05
303.15	1	0.00208	1e-05
313.15	0	0.00221	2e-05
313.15	0.1008	0.00213	2e-05
313.15	0.2004	0.00206	2e-05
313.15	0.3	0.002	1e-05
313.15	0.4	0.00194	1e-05
313.15	0.4998	0.00189	1e-05
313.15	0.6002	0.00186	1e-05
313.15	0.6999	0.00181	1e-05
313.15	0.7999	0.00178	1e-05
313.15	0.9	0.00176	1e-05
313.15	1	0.00173	1e-05
323.15	0	0.00183	1e-05
323.15	0.1008	0.00177	1e-05
323.15	0.2004	0.00172	1e-05
323.15	0.3	0.00167	1e-05
323.15	0.4	0.00163	1e-05
323.15	0.4998	0.00159	1e-05
323.15	0.6002	0.00156	1e-05
323.15	0.6999	0.00152	1e-05
323.15	0.7999	0.0015	1e-05
323.15	0.9	0.00148	1e-05
323.15	1	0.00146	1e-05
333.15	0	0.00154	1e-05
333.15	0.1008	0.0015	1e-05
333.15	0.2004	0.00145	1e-05
333.15	0.3	0.00142	1e-05
333.15	0.4	0.00138	1e-05
333.15	0.4998	0.00136	1e-05
333.15	0.6002	0.00133	1e-05
333.15	0.6999	0.0013	1e-05
333.15	0.7999	0.00128	1e-05
333.15	0.9	0.00127	1e-05
333.15	1	0.00125	1e-05
343.15	0	0.00131	1e-05
343.15	0.1008	0.00128	1e-05
343.15	0.2004	0.00125	1e-05
343.15	0.3	0.00122	1e-05
343.15	0.4	0.00119	1e-05
343.15	0.4998	0.00117	1e-05
343.15	0.6002	0.00115	1e-05
343.15	0.6999	0.00113	1e-05
343.15	0.7999	0.00111	1e-05
343.15	0.9	0.0011	1e-05
343.15	1	0.00109	1e-05
353.15	0	0.00114	1e-05
353.15	0.1008	0.00111	1e-05
353.15	0.2004	0.00109	1e-05
353.15	0.3	0.00106	1e-05
353.15	0.4	0.00104	1e-05
353.15	0.4998	0.00102	1e-05
353.15	0.6002	0.001	1e-05
353.15	0.6999	0.00099	1.1e-05
353.15	0.7999	0.000975	1.1e-05
353.15	0.9	0.000964	1.1e-05
353.15	1	0.000954	1.1e-05
363.15	0	0.000994	1.1e-05
363.15	0.1008	0.000975	1.1e-05
363.15	0.2004	0.000955	1.1e-05
363.15	0.3	0.000936	1.1e-05
363.15	0.4	0.000919	1.1e-05
363.15	0.4998	0.000903	1.1e-05
363.15	0.6002	0.000889	1.1e-05
363.15	0.6999	0.000876	1.1e-05
363.15	0.7999	0.000865	1.1e-05
363.15	0.9	0.000855	1.1e-05
363.15	1	0.000847	1.1e-05
373.15	0	0.000878	1.1e-05
373.15	0.1008	0.000864	1.1e-05
373.15	0.2004	0.000848	1.1e-05
373.15	0.3	0.000832	1.1e-05
373.15	0.4	0.000818	1.1e-05
373.15	0.4998	0.000805	1.1e-05
373.15	0.6002	0.000793	1.1e-05
373.15	0.6999	0.000783	1.1e-05
373.15	0.7999	0.000774	1.1e-05
373.15	0.9	0.000765	1.1e-05
373.15	1	0.000759	1.1e-05

System: hexadecane + octylbenzene; phases: Liquid
Fixed: Pressure, kPa = 102
Fixed: Frequency, MHz = 3
Property: Speed of sound, m/s (Liquid); method: Sing-around technique in a fixed-path interferometer
Temperature, K	Mole fraction of octylbenzene	Speed of sound, m/s	uncertainty
293.15	0.1177	1359.6	1.2
293.15	0.2297	1362.2	1.2
293.15	0.3377	1364.2	1.2
293.15	0.4423	1367.6	1.1
293.15	0.5431	1371.1	1.1
293.15	0.6411	1376.1	1.1
293.15	0.7351	1380.8	1.1
293.15	0.8263	1385.6	1.1
293.15	0.9146	1391.2	1.1
293.15	1	1397.5	1.1
303.15	0.1177	1322.5	1.2
303.15	0.2297	1325.4	1.2
303.15	0.3377	1327.5	1.2
303.15	0.4423	1331	1.1
303.15	0.5431	1334.6	1.1
303.15	0.6411	1339.6	1.1
303.15	0.7351	1344.3	1.1
303.15	0.8263	1349.1	1.1
303.15	0.9146	1354.7	1.1
303.15	1	1361	1.1
313.15	0.1177	1286.1	1.2
313.15	0.2297	1289	1.2
313.15	0.3377	1291.3	1.1
313.15	0.4423	1294.9	1.1
313.15	0.5431	1298.5	1.1
313.15	0.6411	1303.6	1.1
313.15	0.7351	1308.3	1.1
313.15	0.8263	1313.1	1.1
313.15	0.9146	1318.7	1.1
313.15	1	1324.9	1.1
323.15	0.1177	1250.2	1.2
323.15	0.2297	1253.2	1.2
323.15	0.3377	1255.7	1.1
323.15	0.4423	1259.3	1.1
323.15	0.5431	1263	1.1
323.15	0.6411	1268	1.1
323.15	0.7351	1272.7	1.1
323.15	0.8263	1277.6	1.1
323.15	0.9146	1283.2	1.1
323.15	1	1289.4	1.1
333.15	0.1177	1215	1.2
333.15	0.2297	1218	1.2
333.15	0.3377	1220.6	1.1
333.15	0.4423	1224.2	1.1
333.15	0.5431	1228	1.1
333.15	0.6411	1233	1.1
333.15	0.7351	1237.7	1.1
333.15	0.8263	1242.6	1.1
333.15	0.9146	1248.2	1.1
333.15	1	1254.3	1.1

System: hexadecane + octylbenzene; phases: Liquid, Gas
Fixed: Temperature, K = 294.4
Property: Surface tension liquid-gas, N/m (Liquid); method: Pendant drop shape
Mole fraction of octylbenzene	Surface tension liquid-gas, N/m	uncertainty
0.1177	0.0273	0.0005
0.2297	0.0276	0.0005
0.3377	0.0278	0.0005
0.4423	0.0283	0.0005
0.5431	0.0284	0.0005
0.6411	0.0286	0.0005
0.7351	0.0289	0.0005
0.8263	0.0291	0.0005
0.9146	0.0296	0.0005

System: dodecylbenzene + hexadecane; phases: Liquid
Fixed: Pressure, kPa = 102
Property: Mass density, kg/m3 (Liquid); method: Vibrating tube method
Temperature, K	Mass fraction of dodecylbenzene	Mass density, kg/m3	uncertainty
293.15	0	773.41	0.16
293.15	0.1	780.92	0.16
293.15	0.2	788.48	0.15
293.15	0.3001	796.18	0.15
293.15	0.4004	804.08	0.14
293.15	0.5	812.07	0.14
293.15	0.5998	820.27	0.13
293.15	0.7	828.66	0.13
293.15	0.7999	837.19	0.12
293.15	0.8999	845.94	0.12
293.15	1	854.89	0.11
303.15	0	766.47	0.17
303.15	0.1	773.98	0.16
303.15	0.2	781.55	0.15
303.15	0.3001	789.27	0.15
303.15	0.4004	797.16	0.14
303.15	0.5	805.16	0.14
303.15	0.5998	813.36	0.13
303.15	0.7	821.76	0.13
303.15	0.7999	830.3	0.12
303.15	0.8999	839.04	0.12
303.15	1	848	0.11
313.15	0	759.55	0.17
313.15	0.1	767.07	0.16
313.15	0.2	774.63	0.16
313.15	0.3001	782.35	0.15
313.15	0.4004	790.25	0.14
313.15	0.5	798.26	0.14
313.15	0.5998	806.46	0.13
313.15	0.7	814.86	0.13
313.15	0.7999	823.4	0.12
313.15	0.8999	832.15	0.12
313.15	1	841.11	0.12
323.15	0	752.63	0.17
323.15	0.1	760.15	0.16
323.15	0.2	767.72	0.16
323.15	0.3001	775.45	0.15
323.15	0.4004	783.35	0.15
323.15	0.5	791.36	0.14
323.15	0.5998	799.57	0.14
323.15	0.7	807.97	0.13
323.15	0.7999	816.51	0.13
323.15	0.8999	825.27	0.12
323.15	1	834.23	0.12
333.15	0	745.71	0.17
333.15	0.1	753.24	0.17
333.15	0.2	760.81	0.16
333.15	0.3001	768.54	0.15
333.15	0.4004	776.44	0.15
333.15	0.5	784.46	0.14
333.15	0.5998	792.68	0.14
333.15	0.7	801.08	0.13
333.15	0.7999	809.63	0.13
333.15	0.8999	818.39	0.12
333.15	1	827.35	0.12
343.15	0	738.74	0.25
343.15	0.1	746.25	0.25
343.15	0.2	753.85	0.25
343.15	0.3001	761.6	0.24
343.15	0.4004	769.5	0.24
343.15	0.5	777.55	0.24
343.15	0.5998	785.75	0.23
343.15	0.7	794.2	0.23
343.15	0.7999	802.7	0.23
343.15	0.8999	811.5	0.23
343.15	1	820.47	0.22
353.15	0	731.8	0.3
353.15	0.1	739.3	0.3
353.15	0.2	746.9	0.3
353.15	0.3001	754.6	0.3
353.15	0.4004	762.5	0.2
353.15	0.5	770.6	0.2
353.15	0.5998	778.8	0.2
353.15	0.7	787.2	0.2
353.15	0.7999	795.8	0.2
353.15	0.8999	804.5	0.2
353.15	1	813.5	0.2
363.15	0	724.7	0.3
363.15	0.1	732.3	0.3
363.15	0.2	739.9	0.3
363.15	0.3001	747.7	0.3
363.15	0.4004	755.6	0.2
363.15	0.5	763.6	0.2
363.15	0.5998	771.9	0.2
363.15	0.7	780.3	0.2
363.15	0.7999	788.9	0.2
363.15	0.8999	797.7	0.2
363.15	1	806.6	0.2
373.15	0	717.8	0.3
373.15	0.1	725.3	0.3
373.15	0.2	732.9	0.3
373.15	0.3001	740.6	0.3
373.15	0.4004	748.6	0.3
373.15	0.5	756.7	0.2
373.15	0.5998	764.9	0.2
373.15	0.7	773.3	0.2
373.15	0.7999	781.9	0.2
373.15	0.8999	790.7	0.2
373.15	1	799.7	0.2

System: dodecylbenzene + hexadecane; phases: Liquid
Fixed: Pressure, kPa = 102
Property: Viscosity, Pa*s (Liquid); method: Concentric cylinders viscometry
Temperature, K	Mass fraction of dodecylbenzene	Viscosity, Pa*s	uncertainty
293.15	0	0.00344	2e-05
293.15	0.1	0.00355	2e-05
293.15	0.2	0.00367	2e-05
293.15	0.3001	0.00382	2e-05
293.15	0.4004	0.00399	3e-05
293.15	0.5	0.00416	2e-05
293.15	0.5998	0.00436	2e-05
293.15	0.7	0.00459	2e-05
293.15	0.7999	0.00485	3e-05
293.15	0.8999	0.00514	2e-05
293.15	1	0.00547	2e-05
303.15	0	0.00272	2e-05
303.15	0.1	0.00281	2e-05
303.15	0.2	0.0029	2e-05
303.15	0.3001	0.00301	2e-05
303.15	0.4004	0.00313	2e-05
303.15	0.5	0.00326	2e-05
303.15	0.5998	0.00341	2e-05
303.15	0.7	0.00358	2e-05
303.15	0.7999	0.00376	2e-05
303.15	0.8999	0.00397	2e-05
303.15	1	0.00421	2e-05
313.15	0	0.00221	2e-05
313.15	0.1	0.00227	2e-05
313.15	0.2	0.00235	2e-05
313.15	0.3001	0.00243	2e-05
313.15	0.4004	0.00252	2e-05
313.15	0.5	0.00263	2e-05
313.15	0.5998	0.00274	2e-05
313.15	0.7	0.00286	2e-05
313.15	0.7999	0.003	2e-05
313.15	0.8999	0.00316	2e-05
313.15	1	0.00333	2e-05
323.15	0	0.00183	1e-05
323.15	0.1	0.00188	1e-05
323.15	0.2	0.00194	1e-05
323.15	0.3001	0.00201	1e-05
323.15	0.4004	0.00208	1e-05
323.15	0.5	0.00216	1e-05
323.15	0.5998	0.00225	2e-05
323.15	0.7	0.00234	2e-05
323.15	0.7999	0.00245	2e-05
323.15	0.8999	0.00257	2e-05
323.15	1	0.00271	2e-05
333.15	0	0.00154	1e-05
333.15	0.1	0.00158	1e-05
333.15	0.2	0.00163	1e-05
333.15	0.3001	0.00169	1e-05
333.15	0.4004	0.00174	1e-05
333.15	0.5	0.00181	1e-05
333.15	0.5998	0.00188	1e-05
333.15	0.7	0.00196	1e-05
333.15	0.7999	0.00204	1e-05
333.15	0.8999	0.00214	1e-05
333.15	1	0.00224	1e-05
343.15	0	0.00131	1e-05
343.15	0.1	0.00135	1e-05
343.15	0.2	0.00139	1e-05
343.15	0.3001	0.00144	1e-05
343.15	0.4004	0.00149	1e-05
343.15	0.5	0.00154	1e-05
343.15	0.5998	0.0016	1e-05
343.15	0.7	0.00166	1e-05
343.15	0.7999	0.00173	1e-05
343.15	0.8999	0.00181	1e-05
343.15	1	0.00189	1e-05
353.15	0	0.00114	1e-05
353.15	0.1	0.00117	1e-05
353.15	0.2	0.00121	1e-05
353.15	0.3001	0.00124	1e-05
353.15	0.4004	0.00128	1e-05
353.15	0.5	0.00133	1e-05
353.15	0.5998	0.00138	1e-05
353.15	0.7	0.00143	1e-05
353.15	0.7999	0.00149	1e-05
353.15	0.8999	0.00155	1e-05
353.15	1	0.00162	1e-05
363.15	0	0.000994	1.1e-05
363.15	0.1	0.00102	1e-05
363.15	0.2	0.00105	1e-05
363.15	0.3001	0.00109	1e-05
363.15	0.4004	0.00112	1e-05
363.15	0.5	0.00116	1e-05
363.15	0.5998	0.0012	1e-05
363.15	0.7	0.00125	1e-05
363.15	0.7999	0.00129	1e-05
363.15	0.8999	0.00135	1e-05
363.15	1	0.00141	1e-05
373.15	0	0.000878	1.1e-05
373.15	0.1	0.000906	1.1e-05
373.15	0.2	0.000932	1.1e-05
373.15	0.3001	0.000961	1.1e-05
373.15	0.4004	0.000991	1.1e-05
373.15	0.5	0.00102	1e-05
373.15	0.5998	0.00106	1e-05
373.15	0.7	0.0011	1e-05
373.15	0.7999	0.00114	1e-05
373.15	0.8999	0.00118	1e-05
373.15	1	0.00123	1e-05

System: dodecylbenzene + hexadecane; phases: Liquid
Fixed: Pressure, kPa = 102
Fixed: Frequency, MHz = 3
Property: Speed of sound, m/s (Liquid); method: Sing-around technique in a fixed-path interferometer
Temperature, K	Mole fraction of dodecylbenzene	Speed of sound, m/s	uncertainty
293.15	0.0926	1363.8	1.9
293.15	0.1868	1369.6	1.2
293.15	0.2826	1376.3	1.2
293.15	0.3803	1383.2	1.2
293.15	0.4788	1389.6	1.2
293.15	0.5794	1396.1	1.1
293.15	0.682	1404.1	1.1
293.15	0.786	1411.8	1.1
293.15	0.892	1419.8	1.7
293.15	1	1429.7	1.4
303.15	0.0926	1326.8	1.8
303.15	0.1868	1333.1	1.2
303.15	0.2826	1339.7	1.2
303.15	0.3803	1346.8	1.2
303.15	0.4788	1353.3	1.2
303.15	0.5794	1359.9	1.1
303.15	0.682	1368.1	1.1
303.15	0.786	1375.8	1.1
303.15	0.892	1383.8	1.1
303.15	1	1394.1	1.4
313.15	0.0926	1290.3	1.7
313.15	0.1868	1296.8	1.2
313.15	0.2826	1303.6	1.2
313.15	0.3803	1310.8	1.2
313.15	0.4788	1317.6	1.1
313.15	0.5794	1324.3	1.1
313.15	0.682	1332.7	1.1
313.15	0.786	1340.5	1.1
313.15	0.892	1348.7	1.2
313.15	1	1359	1.4
323.15	0.0926	1253.9	2
323.15	0.1868	1261.2	1.2
323.15	0.2826	1268	1.2
323.15	0.3803	1275.4	1.1
323.15	0.4788	1282.4	1.1
323.15	0.5794	1289.3	1.1
323.15	0.682	1298	1.1
323.15	0.786	1305.8	1.1
323.15	0.892	1314.1	1.2
323.15	1	1324.4	1.3
333.15	0.0926	1219.1	1.5
333.15	0.1868	1226.1	1.2
333.15	0.2826	1233.1	1.2
333.15	0.3803	1240.7	1.1
333.15	0.4788	1247.7	1.1
333.15	0.5794	1255.6	1.2
333.15	0.682	1264.3	1.1
333.15	0.786	1272	1.1
333.15	0.892	1280.2	1.7
333.15	1	1290.4	1.2

System: dodecylbenzene + hexadecane; phases: Liquid, Gas
Fixed: Temperature, K = 294.4
Property: Surface tension liquid-gas, N/m (Liquid); method: Pendant drop shape
Mole fraction of dodecylbenzene	Surface tension liquid-gas, N/m	uncertainty
0.0926	0.0274	0.0005
0.1868	0.0277	0.0005
0.2826	0.0279	0.0005
0.3803	0.0282	0.0005
0.4788	0.0287	0.0005
0.5794	0.029	0.0005
0.682	0.0296	0.0005
0.786	0.0299	0.0005
0.892	0.0305	0.0005
