Measured thermophysical data. Measurements and Modeling of Phase Behavior, Density, and Viscosity of Oil + Carbon Dioxide: Squalane + CO2 at Temperatures (313 to 363) K and Pressures up to 77 MPa
Source: J. Chem. Eng. Data, 2019, 10.1021/acs.jced.8b00786
Compound 1: carbon dioxide, CO2, InChI=1S/CO2/c2-1-3, purity 99.99%
Compound 2: 2,6,10,15,19,23-hexamethyltetracosane, C30H62, InChI=1S/C30H62/c1-25(2)15-11-19-29(7)23-13-21-27(5)17-9-10-18-28(6)22-14-24-30(8)20-12-16-26(3)4/h25-30H,9-24H2,1-8H3, purity 99%

System: 2,6,10,15,19,23-hexamethyltetracosane; phases: Liquid
Property: Mass density, kg/m3 (Liquid); method: Vibrating tube method
Temperature, K	Pressure, kPa	Mass density, kg/m3	uncertainty
313.15	5700	798.1	2.4
313.15	13500	804.3	2.4
313.15	23500	811.4	2.5
313.15	45700	822.6	2.5
313.15	68000	832.5	2.6
338.15	7900	783.2	2.4
338.15	11000	785.2	2.4
338.15	22500	793.3	2.4
338.15	45600	807.5	2.5
338.15	60500	814.6	2.5
338.15	76300	820.5	2.6
363.15	10600	769.9	2.3
363.15	21500	777.9	2.4
363.15	42500	791.1	2.4
363.15	63700	802.4	2.5

System: 2,6,10,15,19,23-hexamethyltetracosane; phases: Liquid
Property: Viscosity, Pa*s (Liquid); method: Capillary tube (Ostwald; Ubbelohde) method
Temperature, K	Pressure, kPa	Viscosity, Pa*s	uncertainty
313.15	5700	0.01652	0.00038
313.15	13500	0.01937	0.00044
313.15	23500	0.02338	0.00053
313.15	45700	0.03526	0.00082
313.15	68000	0.05285	0.00118
338.15	7900	0.00782	0.00018
338.15	11000	0.00805	0.00021
338.15	22500	0.01019	0.00026
338.15	45600	0.0144	0.00037
338.15	60500	0.01807	0.00041
338.15	76300	0.02298	0.00071
363.15	10600	0.0045	0.00011
363.15	21500	0.00538	0.00014
363.15	42500	0.00721	0.00019
363.15	63700	0.00947	0.00025

System: carbon dioxide + 2,6,10,15,19,23-hexamethyltetracosane; phases: Liquid
Property: Mass density, kg/m3 (Liquid); method: Vibrating tube method
Mole fraction of carbon dioxide	Temperature, K	Pressure, kPa	Mass density, kg/m3	uncertainty
0.199	313.15	2790	796.7	2.4
0.199	313.15	12560	804.5	2.4
0.199	313.15	23440	812.5	2.5
0.199	313.15	45240	826.3	2.5
0.199	313.15	60140	834.5	2.6
0.199	313.15	74430	841.6	2.6
0.199	338.15	3100	780.2	2.4
0.199	338.15	11690	787.3	2.4
0.199	338.15	21990	795.1	2.4
0.199	338.15	42870	808.7	2.5
0.199	338.15	57570	817.1	2.5
0.199	338.15	69970	823.5	2.6
0.199	363.15	2670	763.2	2.3
0.199	363.15	11090	770.2	2.3
0.199	363.15	21420	778.2	2.4
0.199	363.15	42490	792.2	2.4
0.199	363.15	56730	800.5	2.5
0.199	363.15	70780	807.9	2.5
0.299	313.15	3900	799.1	2.4
0.299	313.15	12320	805.8	2.4
0.299	313.15	23100	813.6	2.5
0.299	313.15	44510	828.1	2.5
0.299	313.15	58570	836.5	2.6
0.299	313.15	73410	844.9	2.6
0.299	338.15	3320	782.1	2.4
0.299	338.15	11180	788.3	2.4
0.299	338.15	21990	796.2	2.4
0.299	338.15	42690	810.4	2.5
0.299	338.15	57330	819.2	2.5
0.299	338.15	71030	826.9	2.6
0.299	363.15	3820	766.2	2.3
0.299	363.15	10840	771.7	2.3
0.299	363.15	21180	779.2	2.4
0.299	363.15	42250	793.2	2.4
0.299	363.15	56390	801.8	2.5
0.299	363.15	70320	809.6	2.5
0.519	313.15	5300	804.5	2.4
0.519	313.15	11290	810.3	2.5
0.519	313.15	21910	819.7	2.5
0.519	313.15	42900	836.1	2.6
0.519	313.15	57150	846	2.6
0.519	313.15	71140	854.8	2.6
0.519	338.15	6440	787.1	2.4
0.519	338.15	10860	791.5	2.4
0.519	338.15	21260	801	2.4
0.519	338.15	42140	817.7	2.5
0.519	338.15	56660	827.7	2.5
0.519	338.15	70400	836.4	2.6
0.519	363.15	7280	769.5	2.3
0.519	363.15	10740	772.7	2.3
0.519	363.15	21340	782.5	2.4
0.519	363.15	42180	799.3	2.5
0.519	363.15	56170	809.2	2.5
0.519	363.15	70120	818	2.5

System: carbon dioxide + 2,6,10,15,19,23-hexamethyltetracosane; phases: Liquid
Property: Viscosity, Pa*s (Liquid); method: Capillary tube (Ostwald; Ubbelohde) method
Mole fraction of carbon dioxide	Temperature, K	Pressure, kPa	Viscosity, Pa*s	uncertainty
0.199	313.15	2790	0.0114	0.00027
0.199	313.15	12560	0.01339	0.00032
0.199	313.15	23440	0.01614	0.00039
0.199	313.15	45240	0.02288	0.00057
0.199	313.15	60140	0.0287	0.0007
0.199	313.15	74430	0.03587	0.00087
0.199	338.15	3100	0.00561	0.00016
0.199	338.15	11690	0.00641	0.00017
0.199	338.15	21990	0.00761	0.00021
0.199	338.15	42870	0.01048	0.0003
0.199	338.15	57570	0.01279	0.00037
0.199	338.15	69970	0.01543	0.00048
0.199	363.15	2670	0.0032	8e-05
0.199	363.15	11090	0.00371	9e-05
0.199	363.15	21420	0.00433	0.00011
0.199	363.15	42490	0.00575	0.00015
0.199	363.15	56730	0.00683	0.00018
0.199	363.15	70780	0.00808	0.00021
0.299	313.15	3900	0.0092	0.00022
0.299	313.15	12320	0.0105	0.00025
0.299	313.15	23100	0.01246	0.0003
0.299	313.15	44510	0.01708	0.00042
0.299	313.15	58570	0.02156	0.00053
0.299	313.15	73410	0.02651	0.00065
0.299	338.15	3320	0.00469	0.00012
0.299	338.15	11180	0.00536	0.00013
0.299	338.15	21990	0.00616	0.00016
0.299	338.15	42690	0.0083	0.00021
0.299	338.15	57330	0.01009	0.00026
0.299	338.15	71030	0.01217	0.00032
0.299	363.15	3820	0.00286	7e-05
0.299	363.15	10840	0.00314	8e-05
0.299	363.15	21180	0.00359	9e-05
0.299	363.15	42250	0.0048	0.00012
0.299	363.15	56390	0.00569	0.00014
0.299	363.15	70320	0.00681	0.00017
0.519	313.15	5300	0.0051	0.00014
0.519	313.15	11290	0.00559	0.00015
0.519	313.15	21910	0.00647	0.00018
0.519	313.15	42900	0.00858	0.00024
0.519	313.15	57150	0.01052	0.0003
0.519	313.15	71140	0.0125	0.00037
0.519	338.15	6440	0.00296	7e-05
0.519	338.15	10860	0.00318	8e-05
0.519	338.15	21260	0.00358	9e-05
0.519	338.15	42140	0.00478	0.00012
0.519	338.15	56660	0.00567	0.00015
0.519	338.15	70400	0.00659	0.00017
0.519	363.15	7280	0.00193	5e-05
0.519	363.15	10740	0.00206	5e-05
0.519	363.15	21340	0.00231	6e-05
0.519	363.15	42180	0.003	8e-05
0.519	363.15	56170	0.00343	9e-05
0.519	363.15	70120	0.00408	0.00011

System: carbon dioxide + 2,6,10,15,19,23-hexamethyltetracosane; phases: Liquid, Gas
Property: Mole fraction of carbon dioxide (Liquid); method: Phase equilibration
Temperature, K	Pressure, kPa	Mole fraction of carbon dioxide	uncertainty
313.15	1320	0.119	0.012
338.15	1650	0.119	0.01
363.15	1920	0.119	0.008
313.15	2100	0.299	0.008
338.15	2650	0.299	0.007
363.15	3140	0.299	0.006
313.15	4290	0.519	0.007
338.15	5560	0.519	0.006
363.15	6780	0.519	0.006
