Measured thermophysical data. Experimental Measurement of CO2 Solubility in Aqueous NaCl Solution at Temperature from 323.15 to 423.15 K and Pressure of up to 20 MPa
Source: J. Chem. Eng. Data, 2016, 10.1021/acs.jced.6b00505
Compound 1: carbon dioxide, CO2, InChI=1S/CO2/c2-1-3, purity 99.7%
Compound 2: water, H2O, InChI=1S/H2O/h1H2, purity 99.9%
Compound 3: sodium chloride, ClNa, InChI=1S/ClH.Na/h1H;/q;+1/p-1, purity 99.5%

System: carbon dioxide + sodium chloride + water; phases: Liquid, Gas
Property: Molality, mol/kg of carbon dioxide (Liquid); method: TITRATION
Molality, mol/kg of sodium chloride	Temperature, K	Pressure, kPa	Molality, mol/kg of carbon dioxide	uncertainty
0	323.15	5010	0.791	0.071
0	323.15	10030	1.164	0.086
0	323.15	15040	1.234	0.087
0	323.15	20000	1.308	0.092
1	323.15	5030	0.65	0.058
1	323.15	10020	0.965	0.042
1	323.15	15060	1.042	0.073
1	323.15	20010	1.081	0.076
1	373.15	5010	0.376	0.037
1	373.15	10080	0.668	0.055
1	373.15	15020	0.85	0.062
1	373.15	19960	0.942	0.061
1	423.15	5030	0.305	0.039
1	423.15	10040	0.577	0.05
1	423.15	15050	0.804	0.061
1	423.15	20010	0.96	0.044
3	323.15	4990	0.452	0.039
3	323.15	10060	0.676	0.05
3	323.15	14970	0.713	0.05
3	323.15	19960	0.779	0.056
3	373.15	5080	0.289	0.029
3	373.15	10070	0.492	0.04
3	373.15	15010	0.609	0.045
3	373.15	20160	0.727	0.053
3	423.15	5060	0.245	0.027
3	423.15	10100	0.425	0.036
3	423.15	14960	0.57	0.043
3	423.15	20230	0.717	0.054
6	323.15	5050	0.291	0.027
6	323.15	10090	0.438	0.033
6	323.15	14990	0.484	0.034
6	323.15	20040	0.509	0.036
6	373.15	5080	0.196	0.019
6	373.15	10070	0.331	0.027
6	373.15	15010	0.408	0.03
6	373.15	20160	0.471	0.034
6	423.15	5040	0.162	0.019
6	423.15	10100	0.285	0.024
6	423.15	14960	0.379	0.029
6	423.15	20210	0.463	0.034

System: carbon dioxide + water; phases: Liquid, Gas
Property: Boiling temperature at pressure P, K (Liquid); method: TITRATION
Molality, mol/kg of carbon dioxide	Pressure, kPa	Boiling temperature at pressure P, K	uncertainty
0.791	5010	323.15	2.78
1.164	10030	323.15	1.86
1.234	15040	323.15	1.63
1.308	20000	323.15	1.55
