Measured thermophysical data. Thermodynamics of the Antiviral and Antiparkinsonian Drug Amantadine Hydrochloride: Condensed State Properties and Decomposition
Source: J. Chem. Eng. Data, 2017, 10.1021/acs.jced.7b00107
Compound 1: tricyclo(3.3.1.1:3,7)decan-1-amine, C10H17N, InChI=1S/C10H17N/c11-10-4-7-1-8(5-10)3-9(2-7)6-10/h7-9H,1-6,11H2
Compound 2: hydrogen chloride, ClH, InChI=1S/ClH/h1H
Compound 3: 1-aminoadamantane hydrochloride, C10H18ClN, InChI=1S/C10H17N.ClH/c11-10-4-7-1-8(5-10)3-9(2-7)6-10;/h7-9H,1-6,11H2;1H, purity 99%

System: 1-aminoadamantane hydrochloride; phases: Crystal 3, Crystal 2, Gas
Property: Triple point temperature, K (Crystal 3); method: Adiabatic calorimetry
Triple point temperature, K	uncertainty
120	0.4

System: 1-aminoadamantane hydrochloride; phases: Crystal 2, Crystal 1, Gas
Property: Triple point temperature, K (Crystal 2); method: Adiabatic calorimetry
Triple point temperature, K	uncertainty
123.1	0.4

System: 1-aminoadamantane hydrochloride; phases: Crystal 3, Crystal 2, Gas
Property: Molar enthalpy of transition or fusion, kJ/mol (Crystal 3); method: Adiabatic calorimetry
Molar enthalpy of transition or fusion, kJ/mol	uncertainty
0.045	0.003

System: 1-aminoadamantane hydrochloride; phases: Crystal 2, Crystal 1, Gas
Property: Molar enthalpy of transition or fusion, kJ/mol (Crystal 2); method: Adiabatic calorimetry
Molar enthalpy of transition or fusion, kJ/mol	uncertainty
0.153	0.003

System: 1-aminoadamantane hydrochloride; phases: Crystal 3
Fixed: Pressure, kPa = 101.325
Property: Molar heat capacity at constant pressure, J/K/mol (Crystal 3); method: Small (less than 1 g) adiabatic calorimetry
Temperature, K	Molar heat capacity at constant pressure, J/K/mol	uncertainty
5.01	0.5801	0.026
5.25	0.6835	0.0281
5.49	0.7946	0.0299
5.75	0.916	0.0326
6	1.051	0.035
6.3	1.22	0.039
6.62	1.42	0.043
6.95	1.642	0.047
7.29	1.891	0.052
7.64	2.153	0.056
7.99	2.437	0.062
8.34	2.747	0.066
8.7	3.078	0.073
9.06	3.426	0.079
9.43	3.794	0.084
9.79	4.174	0.09
10.17	4.569	0.094
10.64	5.116	0.104
11.22	5.781	0.11
11.81	6.479	0.121
12.4	7.208	0.128
13	7.971	0.134
13.6	8.754	0.144
14.21	9.533	0.148
14.82	10.38	0.15
15.54	11.36	0.16
16.37	12.56	0.17
17.21	13.72	0.17
18.05	14.85	0.18
18.89	15.98	0.18
19.74	17.1	0.18
20.86	18.62	0.19
22.27	20.49	0.19
23.7	22.36	0.2
25.12	24.15	0.21
26.55	25.89	0.21
27.96	27.53	0.22
29.45	29.22	0.22
31.06	31	0.22
32.82	32.84	0.23
34.59	34.6	0.24
36.37	36.26	0.25
38.14	37.9	0.26
39.92	39.49	0.26
41.79	41.08	0.27
43.77	42.73	0.28
45.75	44.38	0.29
47.72	45.9	0.3
49.71	47.41	0.3
51.69	48.89	0.31
53.68	50.26	0.32
55.67	51.64	0.33
57.67	52.99	0.33
59.67	54.32	0.34
61.67	55.65	0.35
63.67	56.94	0.36
65.68	58.17	0.36
67.69	59.45	0.37
69.7	60.69	0.37
71.71	62	0.38
73.72	63.24	0.39
75.74	64.48	0.39
77.75	65.74	0.4
79.78	66.97	0.41
81.8	68.23	0.41
83.83	69.44	0.42
78.45	66.2	0.4
80.56	67.47	0.41
82.48	68.62	0.42
84.4	69.79	0.42
86.32	71.01	0.43
88.24	72.23	0.44
90.17	73.44	0.46
92.09	74.67	0.46
94.02	75.9	0.47
95.95	77.18	0.47
97.89	78.44	0.48
99.83	79.74	0.49
101.77	81.04	0.49
103.71	82.35	0.5
105.66	83.7	0.51
107.61	85.07	0.51
109.57	86.53	0.52
111.52	88.04	0.53
113.48	89.74	0.53
115.44	92	0.55
117.39	96.19	0.57
119.31	108.3	0.6
100.61	80.3	0.49
102.13	81.29	0.49
103.66	82.26	0.5
105.19	83.26	0.5
106.71	84.46	0.51
108.24	85.55	0.51
109.77	86.68	0.52
111.3	87.82	0.53
112.83	89.22	0.53
114.36	90.6	0.54
115.89	92.64	0.55
117.4	96.04	0.57
118.9	105.3	0.6
110.61	87.3	0.52
111.99	88.23	0.53
113	89.28	0.53
114.01	90.15	0.54
115.02	91.42	0.54
116.03	92.78	0.55
117.03	94.87	0.56
118.03	98.29	0.58
119.02	105.6	0.6
119.99	111.4	0.6
115.56	91.67	0.54
116.09	92.4	0.55
116.58	93.36	0.55
117.07	94.53	0.56
117.56	95.93	0.57
118.05	97.56	0.58
118.53	100.2	0.6
119.01	104	0.6
119.48	110.1	0.7
119.95	112.9	0.7

System: 1-aminoadamantane hydrochloride; phases: Crystal 2
Fixed: Pressure, kPa = 101.325
Property: Molar heat capacity at constant pressure, J/K/mol (Crystal 2); method: Small (less than 1 g) adiabatic calorimetry
Temperature, K	Molar heat capacity at constant pressure, J/K/mol	uncertainty
121.24	112.4	0.7
120.37	108.5	0.6
121.81	125.5	0.7
120.95	106.2	0.8
121.91	126.5	2
122.76	187.7	5.7
120.42	108.5	0.6
120.89	104.8	0.8
121.37	108.6	0.8
121.84	120	2
122.28	146.1	1.3
122.69	168	5.7

System: 1-aminoadamantane hydrochloride; phases: Crystal 1
Fixed: Pressure, kPa = 101.325
Property: Molar heat capacity at constant pressure, J/K/mol (Crystal 1); method: Small (less than 1 g) adiabatic calorimetry
Temperature, K	Molar heat capacity at constant pressure, J/K/mol	uncertainty
123.07	165.2	1.7
125.12	99.65	0.58
127.3	99.61	0.58
129.28	100.6	0.6
131.26	101.8	0.6
133.24	103.2	0.6
135.22	104.5	0.6
137.2	105.9	0.6
139.19	107.3	0.6
141.18	108.6	0.6
143.17	109.5	0.6
145.16	110.1	0.6
147.16	110.9	0.6
149.15	111.8	0.6
151.15	112.7	0.6
153.15	113.8	0.7
155.14	114.9	0.7
157.14	116.1	0.7
159.14	117.2	0.7
161.14	118.4	0.7
163.14	119.6	0.7
165.15	120.8	0.7
167.15	122	0.7
169.15	123.3	0.7
171.16	124.6	0.7
173.17	125.8	0.7
175.17	127	0.7
177.18	128.3	0.7
179.19	129.6	0.7
181.2	130.9	0.7
183.21	132.2	0.7
185.23	133.5	0.7
187.24	134.8	0.8
189.25	136.2	0.8
191.27	137.4	0.8
193.28	138.8	0.8
195.3	140.1	0.8
197.31	141.5	0.8
199.33	142.9	0.8
201.34	144.3	0.8
203.36	145.7	0.8
205.38	147.1	0.8
207.4	148.4	0.8
209.42	149.8	0.8
211.44	151.2	0.8
213.46	152.6	0.8
215.49	154.1	0.8
217.51	155.5	0.9
219.54	156.9	0.9
221.56	158.4	0.9
223.59	159.8	0.9
225.62	161.3	0.9
227.64	162.8	0.9
229.67	164.3	0.9
231.7	165.8	0.9
233.72	167.3	0.9
235.75	169	0.9
237.78	170.3	0.9
239.81	172.1	0.9
241.84	174.1	0.9
243.87	174.6	0.9
245.91	176.1	1
247.94	177.7	1
249.97	179.2	1
252	180.7	1
254.03	182.2	1
256.06	183.7	1
258.09	185.3	1
260.12	186.8	1
262.15	188.4	1
264.19	189.9	1
266.22	191.4	1
268.25	193.1	1
270.28	194.5	1
272.31	196.1	1.1
274.35	197.7	1.1
276.38	199.3	1.1
278.41	200.9	1.1
280.44	202.5	1.1
282.47	204	1.1
284.51	205.6	1.1
286.53	207.1	1.1
288.56	208.7	1.1
290.6	210.3	1.1
292.63	211.9	1.1
294.66	213.5	1.1
296.69	215	1.1
298.72	216.6	1.2
300.75	218.1	1.2
302.78	219.8	1.2
304.81	221.3	1.2
306.84	222.9	1.2
308.88	224.5	1.2
310.91	226	1.2
312.94	227.6	1.2
314.98	229.1	1.2
317.01	230.8	1.2
319.04	232.3	1.2
321.08	233.9	1.2
323.11	235.4	1.2
325.15	237	1.2
327.19	238.6	1.3
329.23	240.1	1.3
331.26	241.7	1.3
333.3	243.3	1.3
335.34	244.9	1.3
337.38	246.5	1.3
339.42	248.1	1.3
341.46	249.6	1.3
343.5	251.3	1.3
345.54	252.9	1.3
347.58	254.6	1.3
349.62	256.2	1.3
351.66	257.8	1.4
353.7	259.4	1.4
355.74	261.1	1.4
357.78	262.8	1.4
359.82	264.4	1.4
361.86	266	1.4
363.9	267.5	1.4
365.94	269.3	1.4
367.98	270.9	1.4
123.13	176.4	2
124.5	100.8	0.7
126.03	99.11	0.58
127.57	99.64	0.58
129.1	100.5	0.6
130.63	101.5	0.6
132.16	102.5	0.6
133.7	103.5	0.6
135.23	104.6	0.6
136.76	105.6	0.6
138.29	106.7	0.6
139.83	107.7	0.6
141.36	108.7	0.6
142.89	109.4	0.6
144.42	109.9	0.6
145.95	110.4	0.6
147.49	111.1	0.6
149.02	111.7	0.6
150.57	112.4	0.6
152.11	113.3	0.6
153.64	114.2	0.7
155.18	114.9	0.7
156.72	115.7	0.7
158.25	116.7	0.7
159.79	117.6	0.7
161.32	118.5	0.7
162.86	119.5	0.7
164.39	120.4	0.7
165.92	121.2	0.7
167.45	122.3	0.7
168.98	123.2	0.7
170.51	124.1	0.7
172.04	125	0.7
173.57	126	0.7
175.1	127	0.7
176.62	127.9	0.7
178.14	128.9	0.7
179.67	130	0.7
181.19	130.9	0.7
182.7	131.9	0.7
184.22	132.8	0.7
185.74	133.8	0.7
187.25	134.8	0.8
188.76	135.8	0.8
190.27	136.9	0.8
191.79	137.9	0.8
193.3	138.9	0.8
194.8	139.9	0.8
196.3	140.9	0.8
197.81	141.9	0.8
199.31	142.8	0.8
200.81	143.9	0.8
202.3	144.9	0.8
203.8	146.1	0.8
205.3	147	0.8
206.8	148	0.8
208.29	149	0.8
209.79	150	0.8
211.28	151	0.8
212.77	152.1	0.8
214.26	153.1	0.8
215.75	154.2	0.8
217.23	155.3	0.9
218.71	156.2	0.9
220.19	157.2	0.9
221.67	158.4	0.9
223.43	159.7	0.9
225.29	161.1	0.9
227.06	162.3	0.9
228.83	163.7	0.9
230.6	165.1	0.9
232.37	166.3	0.9
234.13	167.6	0.9
235.89	168.9	0.9
237.64	170.4	0.9
239.4	171.9	0.9
241.15	173.6	0.9
242.89	174.2	0.9
244.64	175.3	0.9
246.38	176.6	1
248.13	177.9	1
249.87	179.2	1
251.6	180.5	1
253.34	181.7	1
255.07	183.1	1
256.8	184.4	1
258.52	185.6	1
260.24	186.9	1
123.61	138.3	1.2
124.56	99.57	0.59
125.57	98.89	0.58
126.58	99.15	0.58
123.07	227.7	3.1
123.47	148	1.3
123.92	106.3	1.3
124.41	99.7	0.78
124.9	99.18	0.59
125.39	98.8	0.58
125.88	98.68	0.58

System: 1-aminoadamantane hydrochloride; phases: Crystal 1
Fixed: Pressure, kPa = 101.325
Property: Molar heat capacity at constant pressure, J/K/mol (Crystal 1); method: Small sample (50 mg) DSC
Temperature, K	Molar heat capacity at constant pressure, J/K/mol	uncertainty
310	222.6	9.4
311.7	223.7	9.5
313.3	224.7	9.5
315	226.1	9.6
316.6	227.2	9.6
318.2	228.5	9.7
319.9	229.5	9.7
321.5	230.9	9.8
323.1	231.9	9.8
324.8	233.5	9.9
326.4	234.8	10
328	236	10
329.6	237.3	10.1
331.2	238.4	10.1
332.8	239.6	10.2
334.4	241.2	10.2
336	242.3	10.3
337.6	243.3	10.3
339.3	244.7	10.4
340.9	246.2	10.5
342.5	247.4	10.5
344.1	248.6	10.6
345.7	249.8	10.6
347.2	251.1	10.7
348.8	252.4	10.7
350.4	253.7	10.8
352	254.9	10.8
353.6	256.1	10.9
355.2	257.6	10.9
356.8	259	11
358.4	260.3	11
360	261.8	11.1
361.6	263.1	11.2
363.2	264.7	11.2
364.8	265.8	11.3
366.3	267.1	11.3
367.9	268.2	11.4
369.5	269.4	11.4
371.1	270.6	11.5
372.7	271.9	11.5
374.3	273.2	11.6
375.9	274.4	11.6
377.4	275.5	11.7
379	276.5	11.7
380.6	277.8	11.8
382.2	279	11.8
383.8	280.3	11.9
385.4	281.2	11.9
386.9	282.7	12
388.5	284.1	12.1
390.1	285	12.1
391.7	286.5	12.2
393.3	287.4	12.2
394.9	288.7	12.3
396.4	289.9	12.3
398	291.3	12.4
399.6	292.6	12.4
401.2	293.6	12.5
402.8	294.7	12.5
404.4	296.2	12.6
405.9	297.3	12.6
407.5	298.6	12.7
409.1	299.8	12.7
410.7	301	12.8
412.3	302.3	12.8
413.8	303.9	12.9
415.4	305.3	13
417	306.5	13
418.6	307.7	13.1
420.2	308.7	13.1
421.7	309.9	13.2
423.3	311.5	13.2
424.9	312.6	13.3
426.5	313.6	13.3
428.1	314.7	13.4
429.7	315.8	13.4
431.2	317	13.5
432.8	318.4	13.5
434.4	319.9	13.6
436	321	13.6
437.6	322.3	13.7
439.1	323.5	13.7
440.7	324.8	13.8
442.3	326	13.8
443.9	326.9	13.9
445.5	328	13.9
447	329.5	14
448.6	330.4	14
450.2	331.6	14.1
451.8	332.9	14.1
453.4	334.4	14.2
454.9	335.7	14.2
456.5	336.7	14.3
458.1	337.3	14.3
459.7	338.7	14.4
461.3	339.3	14.4
462.8	340.6	14.5
464.4	341.7	14.5
466	343	14.6
467.6	344.1	14.6
469.2	345	14.6
470.7	346.4	14.7

System: 1-aminoadamantane hydrochloride; phases: Crystal 3
Fixed: Pressure, kPa = 101.325
Property: Molar heat capacity at constant pressure, J/K/mol (Crystal 3); method: Small (less than 1 g) adiabatic calorimetry
Temperature, K	Molar heat capacity at constant pressure, J/K/mol	uncertainty
5	0.585	0.029
10	4.396	0.093
15	10.64	0.16
20	17.48	0.18
25	24	0.21
30	29.84	0.21
35	34.98	0.24
40	39.56	0.27
45	43.74	0.28
50	47.63	0.31
60	54.53	0.34
70	60.92	0.37
80	67.11	0.41
90	73.32	0.45
100	79.81	0.49
110	86.83	0.52
120	94.01	0.56

System: 1-aminoadamantane hydrochloride; phases: Crystal 3
Fixed: Pressure, kPa = 101.325
Property: Molar enthalpy function {Hm(T)-Hm(0)}/T, J/K/mol (Crystal 3); method: Small (less than 1 g) adiabatic calorimetry
Temperature, K	Molar enthalpy function {Hm(T)-Hm(0)}/T, J/K/mol	uncertainty
5	0.1445	0.018
10	1.17	0.034
15	3.244	0.063
20	5.953	0.085
25	8.917	0.098
30	11.93	0.13
35	14.86	0.15
40	17.67	0.16
45	20.34	0.17
50	22.87	0.18
60	27.59	0.21
70	31.9	0.23
80	35.91	0.25
90	39.72	0.31
100	43.4	0.32
110	47.03	0.33
120	50.65	0.35

System: 1-aminoadamantane hydrochloride; phases: Crystal 3
Fixed: Pressure, kPa = 101.325
Property: Molar entropy, J/K/mol (Crystal 3); method: Small (less than 1 g) adiabatic calorimetry
Temperature, K	Molar entropy, J/K/mol	uncertainty
5	0.1924	0.0278
10	1.564	0.063
15	4.477	0.127
20	8.48	0.184
25	13.09	0.23
30	17.99	0.28
35	22.99	0.32
40	27.96	0.36
45	32.87	0.39
50	37.68	0.43
60	46.99	0.51
70	55.88	0.58
80	64.42	0.65
90	72.68	0.73
100	80.74	0.8
110	88.67	0.85
120	96.53	0.91

System: 1-aminoadamantane hydrochloride; phases: Crystal 2
Fixed: Pressure, kPa = 101.325
Property: Molar heat capacity at constant pressure, J/K/mol (Crystal 2); method: Small (less than 1 g) adiabatic calorimetry
Temperature, K	Molar heat capacity at constant pressure, J/K/mol	uncertainty
120	94.01	0.56
123.1	96.21	0.56

System: 1-aminoadamantane hydrochloride; phases: Crystal 2
Fixed: Pressure, kPa = 101.325
Property: Molar enthalpy function {Hm(T)-Hm(0)}/T, J/K/mol (Crystal 2); method: Small (less than 1 g) adiabatic calorimetry
Temperature, K	Molar enthalpy function {Hm(T)-Hm(0)}/T, J/K/mol	uncertainty
120	51.02	0.37
123.1	52.13	0.38

System: 1-aminoadamantane hydrochloride; phases: Crystal 2
Fixed: Pressure, kPa = 101.325
Property: Molar entropy, J/K/mol (Crystal 2); method: Small (less than 1 g) adiabatic calorimetry
Temperature, K	Molar entropy, J/K/mol	uncertainty
120	96.9	0.93
123.1	99.33	0.95

System: 1-aminoadamantane hydrochloride; phases: Crystal 1
Fixed: Pressure, kPa = 101.325
Property: Molar heat capacity at constant pressure, J/K/mol (Crystal 1); method: Small (less than 1 g) adiabatic calorimetry
Temperature, K	Molar heat capacity at constant pressure, J/K/mol	uncertainty
123.1	96.21	0.56
130	101	0.6
140	107.9	0.6
150	112.2	0.6
160	117.7	0.7
170	123.8	0.7
180	130.1	0.7
190	136.6	0.7
200	143.3	0.8
210	150.2	0.8
220	157.3	0.8
230	164.5	0.9
240	171.8	0.9
250	179.3	1
260	186.8	1
270	194.3	1.1
280	202.1	1.1
290	209.9	1.1
298.15	216.2	1.2
300	217.6	1.2
310	225.3	1.2
320	233	1.2
330	240.7	1.3
340	248.6	1.3
350	256.5	1.3
360	264.5	1.4
370	272.5	1.4

System: 1-aminoadamantane hydrochloride; phases: Crystal 1
Fixed: Pressure, kPa = 101.325
Property: Molar enthalpy function {Hm(T)-Hm(0)}/T, J/K/mol (Crystal 1); method: Small (less than 1 g) adiabatic calorimetry
Temperature, K	Molar enthalpy function {Hm(T)-Hm(0)}/T, J/K/mol	uncertainty
123.1	53.37	0.39
130	55.78	0.4
140	59.25	0.42
150	62.64	0.43
160	65.91	0.44
170	69.13	0.46
180	72.35	0.47
190	75.56	0.48
200	78.78	0.5
210	82.02	0.52
220	85.28	0.53
230	88.56	0.55
240	91.88	0.56
250	95.22	0.57
260	98.6	0.59
270	102	0.6
280	105.4	0.6
290	108.9	0.7
298.15	111.8	0.7
300	112.4	0.7
310	115.9	0.7
320	119.5	0.7
330	123	0.7
340	126.6	0.7
350	130.2	0.7
360	133.8	0.8
370	137.5	0.8

System: 1-aminoadamantane hydrochloride; phases: Crystal 1
Fixed: Pressure, kPa = 101.325
Property: Molar entropy, J/K/mol (Crystal 1); method: Small (less than 1 g) adiabatic calorimetry
Temperature, K	Molar entropy, J/K/mol	uncertainty
123.1	100.6	1
130	106	1
140	113.7	1.1
150	121.3	1.2
160	128.7	1.2
170	136	1.2
180	143.3	1.3
190	150.5	1.4
200	157.7	1.4
210	164.8	1.5
220	172	1.5
230	179.1	1.5
240	186.3	1.6
250	193.4	1.7
260	200.6	1.7
270	207.8	1.7
280	215	1.9
290	222.2	1.9
298.15	228.1	1.9
300	229.5	1.9
310	236.7	1.9
320	244	2.1
330	251.3	2.1
340	258.6	2.1
350	265.9	2.2
360	273.3	2.3
370	280.6	2.3

System: 1-aminoadamantane hydrochloride; phases: Crystal 1
Fixed: Pressure, kPa = 101.325
Property: Molar heat capacity at constant pressure, J/K/mol (Crystal 1); method: Small sample (50 mg) DSC
Temperature, K	Molar heat capacity at constant pressure, J/K/mol	uncertainty
380	280	12
390	288	13
400	296	13
410	304	13
420	312	13
430	319	14
440	327	14
450	334	14
460	342	15
470	349	15

System: 1-aminoadamantane hydrochloride; phases: Crystal 1
Fixed: Pressure, kPa = 101.325
Property: Molar enthalpy function {Hm(T)-Hm(0)}/T, J/K/mol (Crystal 1); method: Small sample (50 mg) DSC
Temperature, K	Molar enthalpy function {Hm(T)-Hm(0)}/T, J/K/mol	uncertainty
380	141.1	2.2
390	144.8	2.3
400	148.5	2.5
410	152.2	2.7
420	155.9	2.9
430	159.6	3.1
440	163.3	3.3
450	167	3.5
460	170.7	3.8
470	174.5	4

System: 1-aminoadamantane hydrochloride; phases: Crystal 1
Fixed: Pressure, kPa = 101.325
Property: Molar entropy, J/K/mol (Crystal 1); method: Small sample (50 mg) DSC
Temperature, K	Molar entropy, J/K/mol	uncertainty
380	288	6.7
390	295.4	6.9
400	302.8	7.2
410	310.2	7.5
420	317.6	7.9
430	325	8.2
440	332.5	8.6
450	339.9	9
460	347.3	9.4
470	354.8	9.8

Reaction: -1 1-aminoadamantane hydrochloride + 1 tricyclo(3.3.1.1:3,7)decan-1-amine + 1 hydrogen chloride
Property: Thermodynamic equilibrium constant
1.54e-10
6.41e-10
2.27e-09
3.64e-11
8.82e-09
2.38e-09
2.91e-08
9.19e-08
3.72e-11
7.57e-12
1.4e-12
