Measured thermophysical data. Thermodynamic Study of Four {Methylpiperidine + Water} Systems: New Experimental Data and Challenging Modeling for the Simultaneous Representation of Liquid-Liquid Equilibrium and Energetic Properties
Source: J. Chem. Eng. Data, 2019, 10.1021/acs.jced.8b00974
Compound 1: 3-methylpiperidine, C6H13N, InChI=1S/C6H13N/c1-6-3-2-4-7-5-6/h6-7H,2-5H2,1H3, purity 99.7%
Compound 2: 4-methylpiperidine, C6H13N, InChI=1S/C6H13N/c1-6-2-4-7-5-3-6/h6-7H,2-5H2,1H3, purity 99.2%
Compound 3: water, H2O, InChI=1S/H2O/h1H2, purity 99.9%

System: 3-methylpiperidine + water; phases: Liquid mixture 1, Liquid mixture 2
Fixed: Pressure, kPa = 100
Property: Liquid-liquid equilibrium temperature, K (Liquid mixture 1); method: VISOBS
Mole fraction of 3-methylpiperidine	Liquid-liquid equilibrium temperature, K	uncertainty
0.0135	354.8	4
0.0184	345.5	4
0.0236	341.8	4
0.0317	340.1	4
0.0426	339.9	4
0.0502	340	4
0.061	340.1	4
0.079	340.5	4
0.1424	355.4	4

System: 3-methylpiperidine + water; phases: Liquid
Property: Excess molar enthalpy (molar enthalpy of mixing), kJ/mol (Liquid); method: Calvet calorimetry
Temperature, K	Pressure, kPa	Mole fraction of 3-methylpiperidine	Excess molar enthalpy (molar enthalpy of mixing), kJ/mol	uncertainty
303.15	1120	0.0151	-0.271	0.079
303.15	1120	0.0167	-0.289	0.08
303.15	1120	0.0249	-0.389	0.079
303.15	1120	0.0486	-0.67	0.124
303.15	1120	0.0486	-0.673	0.123
303.15	1120	0.0711	-0.938	0.288
303.15	1120	0.0711	-0.95	0.282
303.15	1120	0.1328	-1.581	0.41
303.15	1120	0.1328	-1.501	0.449
303.15	1120	0.1328	-1.553	0.424
303.15	1120	0.1695	-1.865	0.368
303.15	1120	0.2345	-2.399	0.51
303.15	1120	0.3148	-2.897	0.364
303.15	1120	0.3799	-3.102	0.414
303.15	1120	0.4788	-3.129	0.533
303.15	1120	0.5174	-3.056	0.35
303.15	1120	0.5506	-2.966	0.322
303.15	1120	0.5795	-2.814	0.353
313.15	1040	0.0214	-0.331	0.075
313.15	1040	0.0249	-0.374	0.078
313.15	1040	0.0297	-0.437	0.103
313.15	1040	0.0711	-0.933	0.181
313.15	1040	0.0711	-0.896	0.145
313.15	1040	0.0905	-1.093	0.21
313.15	1040	0.0926	-1.139	0.215
313.15	1040	0.1328	-1.551	0.235
313.15	1040	0.2345	-2.347	0.278
313.15	1040	0.2345	-2.299	0.234
313.15	1040	0.2345	-2.321	0.254
313.15	1040	0.2769	-2.546	0.531
313.15	1040	0.2848	-2.604	0.262
313.15	1040	0.3148	-2.726	0.246
313.15	1040	0.3148	-2.743	0.262
313.15	1040	0.3781	-2.958	0.382
313.15	1040	0.3798	-2.925	0.437
313.15	1040	0.3799	-2.928	0.409
313.15	1040	0.3799	-2.933	0.385
313.15	1040	0.4318	-3.021	0.87
313.15	1040	0.4337	-2.991	0.869
313.15	1040	0.477	-3.005	0.519
313.15	1040	0.4788	-3.02	0.525
313.15	1040	0.5174	-2.896	0.35
323.15	1090	0.0167	-0.219	0.028
323.15	1090	0.0188	-0.241	0.03
323.15	1090	0.0214	-0.273	0.033
323.15	1090	0.0214	-0.268	0.036
323.15	1090	0.0297	-0.363	0.04
323.15	1090	0.0369	-0.437	0.055
323.15	1090	0.0711	-0.765	0.087
323.15	1090	0.0926	-0.976	0.112
323.15	1090	0.1328	-1.313	0.151
323.15	1090	0.1328	-1.326	0.146
323.15	1090	0.1328	-1.317	0.149
323.15	1090	0.1868	-1.745	0.179
323.15	1090	0.2345	-2.027	0.226
323.15	1090	0.2345	-2.041	0.217
323.15	1090	0.3148	-2.423	0.337
323.15	1090	0.3148	-2.405	0.349
323.15	1090	0.3798	-2.6	0.325
323.15	1090	0.4336	-2.659	0.264
323.15	1090	0.4788	-2.643	0.295
323.15	1090	0.5173	-2.587	0.277
323.15	1090	0.5506	-2.507	0.286
323.15	1090	0.5795	-2.42	0.256
333.15	960	0.0167	-0.193	0.027
333.15	960	0.0188	-0.215	0.029
333.15	960	0.0188	-0.215	0.029
333.15	960	0.0214	-0.242	0.027
333.15	960	0.0249	-0.277	0.03
333.15	960	0.0249	-0.277	0.03
333.15	960	0.0297	-0.328	0.04
333.15	960	0.0297	-0.326	0.04
333.15	960	0.0369	-0.401	0.051
333.15	960	0.0486	-0.513	0.064
333.15	960	0.0926	-0.913	0.24
333.15	960	0.1328	-1.225	0.331
333.15	960	0.1328	-1.242	0.323
333.15	960	0.1868	-1.648	0.586
333.15	960	0.1868	-1.647	0.587
333.15	960	0.2345	-1.926	0.824
333.15	960	0.2345	-1.945	0.809
333.15	960	0.2769	-2.141	1.034
333.15	960	0.3148	-2.301	1.51
333.15	960	0.3148	-2.321	1.506
333.15	960	0.3148	-2.3	1.51
333.15	960	0.3799	-2.489	1.963
333.15	960	0.4337	-2.542	2.619
333.15	960	0.4789	-2.525	3.223
333.15	960	0.5173	-2.461	3.664
333.15	960	0.5174	-2.471	3.653
333.15	960	0.5506	-2.392	3.909

System: 4-methylpiperidine + water; phases: Liquid mixture 1, Liquid mixture 2
Fixed: Pressure, kPa = 100
Property: Liquid-liquid equilibrium temperature, K (Liquid mixture 1); method: VISOBS
Mole fraction of 4-methylpiperidine	Liquid-liquid equilibrium temperature, K	uncertainty
0.0199	364.4	4
0.0248	362.9	4
0.0299	361.6	4
0.0331	362.4	4
0.0371	361.4	4
0.0469	362	4
0.061	362	4
0.0799	362	4
0.0943	365	4

System: 4-methylpiperidine + water; phases: Liquid
Property: Excess molar enthalpy (molar enthalpy of mixing), kJ/mol (Liquid); method: Calvet calorimetry
Temperature, K	Pressure, kPa	Mole fraction of 4-methylpiperidine	Excess molar enthalpy (molar enthalpy of mixing), kJ/mol	uncertainty
303.15	1100	0.015	-0.281	0.212
303.15	1100	0.0186	-0.338	0.248
303.15	1100	0.0247	-0.424	0.285
303.15	1100	0.0482	-0.739	0.425
303.15	1100	0.0706	-1.018	0.5
303.15	1100	0.0706	-1.017	0.498
303.15	1100	0.1319	-1.677	0.753
303.15	1100	0.132	-1.679	0.832
303.15	1100	0.132	-1.681	0.836
303.15	1100	0.1857	-2.152	0.772
303.15	1100	0.2331	-2.481	0.841
303.15	1100	0.2331	-2.434	0.738
303.15	1100	0.2331	-2.513	0.901
303.15	1100	0.3132	-2.896	0.548
303.15	1100	0.3132	-2.828	0.417
303.15	1100	0.3781	-3.103	0.638
303.15	1100	0.4318	-3.155	0.576
303.15	1100	0.5155	-3.059	0.563
303.15	1100	0.5488	-2.948	1.211
303.15	1100	0.6032	-2.743	3.714
313.15	1060	0.0116	-0.202	0.028
313.15	1060	0.0125	-0.215	0.023
313.15	1060	0.0136	-0.229	0.025
313.15	1060	0.015	-0.246	0.027
313.15	1060	0.0166	-0.268	0.03
313.15	1060	0.0187	-0.296	0.041
313.15	1060	0.0213	-0.326	0.038
313.15	1060	0.0247	-0.375	0.052
313.15	1060	0.0295	-0.434	0.048
313.15	1060	0.0366	-0.523	0.103
313.15	1060	0.0482	-0.662	0.069
313.15	1060	0.0482	-0.662	0.064
313.15	1060	0.0706	-0.919	0.107
313.15	1060	0.1319	-1.518	0.242
313.15	1060	0.132	-1.506	0.277
313.15	1060	0.1685	-1.799	0.165
313.15	1060	0.1857	-1.997	0.248
313.15	1060	0.2331	-2.31	0.143
313.15	1060	0.2332	-2.31	0.15
313.15	1060	0.3132	-2.762	0.172
313.15	1060	0.3132	-2.718	0.167
313.15	1060	0.3781	-2.958	0.322
313.15	1060	0.4318	-3.021	0.482
313.15	1060	0.477	-3.005	0.989
323.15	1150	0.0166	-0.219	0.056
323.15	1150	0.0186	-0.242	0.047
323.15	1150	0.0213	-0.272	0.045
323.15	1150	0.0247	-0.311	0.047
323.15	1150	0.0295	-0.364	0.041
323.15	1150	0.0366	-0.439	0.046
323.15	1150	0.0482	-0.566	0.07
323.15	1150	0.0821	-0.891	0.163
323.15	1150	0.092	-0.985	0.175
323.15	1150	0.132	-1.326	0.389
323.15	1150	0.132	-1.319	0.369
323.15	1150	0.1685	-1.608	0.45
323.15	1150	0.2054	-1.893	0.824
323.15	1150	0.2331	-2.05	1.299
323.15	1150	0.2754	-2.252	1.599
323.15	1150	0.3132	-2.389	2.004
323.15	1150	0.3132	-2.412	2.033
323.15	1150	0.3472	-2.474	2.135
323.15	1150	0.3781	-2.591	2.649
323.15	1150	0.4318	-2.645	3.633
323.15	1150	0.477	-2.616	4.507
323.15	1150	0.5155	-2.561	5.387
323.15	1150	0.5777	-2.397	5.684
333.15	1080	0.0166	-0.196	0.033
333.15	1080	0.0187	-0.216	0.036
333.15	1080	0.0213	-0.244	0.038
333.15	1080	0.0247	-0.282	0.046
333.15	1080	0.0295	-0.331	0.052
333.15	1080	0.0366	-0.405	0.064
333.15	1080	0.0482	-0.52	0.07
333.15	1080	0.0482	-0.52	0.07
333.15	1080	0.092	-0.923	0.097
333.15	1080	0.092	-0.92	0.097
333.15	1080	0.1685	-1.53	0.134
333.15	1080	0.2331	-1.925	0.153
333.15	1080	0.2331	-1.917	0.152
333.15	1080	0.2331	-1.94	0.157
333.15	1080	0.3132	-2.282	0.259
333.15	1080	0.3132	-2.3	0.264
333.15	1080	0.3781	-2.449	0.239
333.15	1080	0.3781	-2.434	0.234
333.15	1080	0.4318	-2.498	0.254
333.15	1080	0.477	-2.469	0.286
333.15	1080	0.5155	-2.402	0.302
333.15	1080	0.5488	-2.357	0.346
333.15	1080	0.5777	-2.27	0.281
