Measured thermophysical data. Application of Buffer-Based Ionic Liquid in the Separation of 1,4-Dioxane from Its Azeotropic Aqueous Solution
Source: J. Chem. Eng. Data, 2018, 10.1021/acs.jced.7b00905
Compound 1: tetramethylammonium 3-(4-(2-hydroxyethyl)piperazin-1-yl)propane-1-sulfonate, C13H31N3O4S, InChI=1S/C9H20N2O4S.C4H12N/c12-8-7-11-5-3-10(4-6-11)2-1-9-16(13,14)15;1-5(2,3)4/h12H,1-9H2,(H,13,14,15);1-4H3/q;+1/p-1
Compound 2: 1,4-dioxane, C4H8O2, InChI=1S/C4H8O2/c1-2-6-4-3-5-1/h1-4H2, purity 99.5%
Compound 3: water, H2O, InChI=1S/H2O/h1H2, purity 99.9%

System: 1,4-dioxane + water + tetramethylammonium 3-(4-(2-hydroxyethyl)piperazin-1-yl)propane-1-sulfonate; phases: Liquid, Crystal
Property: Mass fraction of water (Liquid); method: chromatography and gravimetric analysis
Mass fraction of 1,4-dioxane	Temperature, K	Pressure, kPa	Mass fraction of water	uncertainty
0.0796	298.15	101	0.3322	0.02

System: 1,4-dioxane + water + tetramethylammonium 3-(4-(2-hydroxyethyl)piperazin-1-yl)propane-1-sulfonate; phases: Liquid mixture 1, Liquid mixture 2
Fixed: Temperature, K = 298.15
Fixed: Pressure, kPa = 101
Property: Mass fraction of water (Liquid mixture 1); method: OTHER
Property: Mass fraction of water (Liquid mixture 2); method: OTHER
Property: Mass fraction of 1,4-dioxane (Liquid mixture 2); method: OTHER
Mass fraction of 1,4-dioxane	Mass fraction of water	uncertainty	Mass fraction of water	uncertainty	Mass fraction of 1,4-dioxane	uncertainty
0.8308	0.1597	0.0265	0.3752	0.0228	0.4409	
0.8612	0.1337	0.0268	0.4036	0.0229	0.3652	
0.8883	0.1092	0.0277	0.4253	0.0219	0.3011	
0.9518	0.048	0.0279	0.4024	0.023	0.1787	
0.9552	0.0441	0.0279	0.3929	0.0219	0.1532	
0.9645	0.0353	0.0279	0.3911	0.0266	0.1105	
0.9776	0.0224	0.0224	0.3322	0.0436	0.0796	
