Measured thermophysical data. Experimental Measurement and Modeling of Vapor Liquid Equilibrium for the Ternary Systems Water + Ethanol + Ethylene Glycol, Water + 2-Propanol + Ethylene Glycol, and Water + 1-Propanol + Ethylene Glycol
Source: J. Chem. Eng. Data, 2016, 10.1021/acs.jced.6b00264
Compound 1: ethanol, C2H6O, InChI=1S/C2H6O/c1-2-3/h3H,2H2,1H3, purity 99.8%
Compound 2: propan-2-ol, C3H8O, InChI=1S/C3H8O/c1-3(2)4/h3-4H,1-2H3, purity 99.8%
Compound 3: propan-1-ol, C3H8O, InChI=1S/C3H8O/c1-2-3-4/h4H,2-3H2,1H3, purity 99.8%
Compound 4: 1,2-ethanediol, C2H6O2, InChI=1S/C2H6O2/c3-1-2-4/h3-4H,1-2H2, purity 99.5%
Compound 5: water, H2O, InChI=1S/H2O/h1H2, purity 99.8%

System: ethanol + 1,2-ethanediol + water; phases: Liquid, Gas
Fixed: Pressure, kPa = 101.3
Property: Boiling temperature at pressure P, K (Liquid); method: Ebulliometric method (Recirculating still)
Solvent: Mole fraction of ethanol	Mass fraction of 1,2-ethanediol	Boiling temperature at pressure P, K	uncertainty
0.1992	0.8035	385.08	32.7
0.2004	0.7012	375.23	0.38
0.2012	0.6032	369.46	0.25
0.2004	0.5051	365.62	0.21
0.2007	0.4003	362.42	0.19
0.2	0.3018	360.35	0.18
0.2005	0.2003	358.66	0.18
0.2	0.101	356.81	0.18
0.9514	0.8026	380.34	0.47
0.9502	0.7038	371.85	0.35
0.9504	0.6007	366.51	0.25
0.9504	0.5015	362.83	0.21
0.9505	0.4021	359.87	0.2
0.95	0.3021	357.22	0.2
0.9506	0.2035	355.24	0.2
0.9503	0.101	353.24	0.2

System: ethanol + 1,2-ethanediol + water; phases: Gas, Liquid
Fixed: Pressure, kPa = 101.3
Property: Mole fraction of water (Gas); method: Chromatography
Solvent: Mole fraction of ethanol	Mass fraction of 1,2-ethanediol	Mole fraction of water	uncertainty
0.1992	0.8035	0.4738	0.0239
0.2004	0.7012	0.4673	0.0105
0.2012	0.6032	0.4582	0.0103
0.2004	0.5051	0.4548	0.0102
0.2007	0.4003	0.4564	0.0102
0.2	0.3018	0.4552	0.0102
0.2005	0.2003	0.4555	0.0102
0.2	0.101	0.4624	0.0103
0.9514	0.8026	0.017	0.0116
0.9502	0.7038	0.0206	0.0113
0.9504	0.6007	0.024	0.011
0.9504	0.5015	0.0274	0.0108
0.9505	0.4021	0.0313	0.0108
0.95	0.3021	0.0362	0.0106
0.9506	0.2035	0.0409	0.0105
0.9503	0.101	0.0467	0.0106

System: ethanol + 1,2-ethanediol + water; phases: Gas, Liquid
Fixed: Pressure, kPa = 101.3
Property: Mole fraction of ethanol (Gas); method: Chromatography
Solvent: Mole fraction of ethanol	Mass fraction of 1,2-ethanediol	Mole fraction of ethanol	uncertainty
0.1992	0.8035	0.5088	0.0539
0.2004	0.7012	0.5247	0.0116
0.2012	0.6032	0.5355	0.0117
0.2004	0.5051	0.5425	0.0118
0.2007	0.4003	0.5417	0.0118
0.2	0.3018	0.5436	0.0118
0.2005	0.2003	0.5438	0.0118
0.2	0.101	0.5373	0.0117
0.9514	0.8026	0.9607	0.0224
0.9502	0.7038	0.9669	0.0223
0.9504	0.6007	0.9663	0.0222
0.9504	0.5015	0.9653	0.0221
0.9505	0.4021	0.9636	0.022
0.95	0.3021	0.9603	0.0219
0.9506	0.2035	0.9568	0.0218
0.9503	0.101	0.9523	0.0218

System: propan-2-ol + 1,2-ethanediol + water; phases: Liquid, Gas
Fixed: Pressure, kPa = 101.3
Property: Boiling temperature at pressure P, K (Liquid); method: Ebulliometric method (Recirculating still)
Solvent: Mole fraction of propan-2-ol	Mass fraction of 1,2-ethanediol	Boiling temperature at pressure P, K	uncertainty
0.1982	0.8003	384.14	0.5
0.2007	0.7016	374.58	0.38
0.2001	0.6039	368.72	0.26
0.1999	0.5021	364.57	0.21
0.1999	0.4056	361.72	0.19
0.2	0.304	359.43	0.18
0.2001	0.2033	357.74	0.18
0.2001	0.1048	356.37	0.18
0.9461	0.8137	386.39	0.44
0.9503	0.6992	377.06	0.35
0.9508	0.6015	372.18	0.26
0.9503	0.5015	368.43	0.23
0.9503	0.4041	365.35	0.22
0.9503	0.3015	362.52	0.2
0.9501	0.2012	359.84	0.19
0.9503	0.1005	357.41	0.18

System: propan-2-ol + 1,2-ethanediol + water; phases: Gas, Liquid
Fixed: Pressure, kPa = 101.3
Property: Mole fraction of water (Gas); method: Chromatography
Solvent: Mole fraction of propan-2-ol	Mass fraction of 1,2-ethanediol	Mole fraction of water	uncertainty
0.1982	0.8003	0.4514	0.0101
0.2007	0.7016	0.4492	0.0101
0.2001	0.6039	0.4492	0.0101
0.1999	0.5021	0.4541	0.0102
0.1999	0.4056	0.4551	0.0102
0.2	0.304	0.457	0.0102
0.2001	0.2033	0.4542	0.0101
0.2001	0.1048	0.4561	0.0102
0.9461	0.8137	0.0179	0.011
0.9503	0.6992	0.0207	0.0109
0.9508	0.6015	0.0255	0.0108
0.9503	0.5015	0.0309	0.0107
0.9503	0.4041	0.0367	0.0106
0.9503	0.3015	0.0431	0.0105
0.9501	0.2012	0.0515	0.0103
0.9503	0.1005	0.06	0.0101

System: propan-2-ol + 1,2-ethanediol + water; phases: Gas, Liquid
Fixed: Pressure, kPa = 101.3
Property: Mole fraction of propan-2-ol (Gas); method: Chromatography
Solvent: Mole fraction of propan-2-ol	Mass fraction of 1,2-ethanediol	Mole fraction of propan-2-ol	uncertainty
0.1982	0.8003	0.5268	0.0116
0.2007	0.7016	0.5409	0.0118
0.2001	0.6039	0.5452	0.0118
0.1999	0.5021	0.5426	0.0118
0.1999	0.4056	0.5428	0.0118
0.2	0.304	0.5417	0.0118
0.2001	0.2033	0.5451	0.0118
0.2001	0.1048	0.5436	0.0118
0.9461	0.8137	0.9497	0.0218
0.9503	0.6992	0.9613	0.022
0.9508	0.6015	0.9624	0.0219
0.9503	0.5015	0.9599	0.0219
0.9503	0.4041	0.9568	0.0218
0.9503	0.3015	0.9524	0.0217
0.9501	0.2012	0.9455	0.0215
0.9503	0.1005	0.9384	0.0213

System: propan-1-ol + 1,2-ethanediol + water; phases: Liquid, Gas
Fixed: Pressure, kPa = 101.3
Property: Boiling temperature at pressure P, K (Liquid); method: Ebulliometric method (Recirculating still)
Solvent: Mole fraction of propan-1-ol	Mass fraction of 1,2-ethanediol	Boiling temperature at pressure P, K	uncertainty
0.2089	0.8009	390.85	0.5
0.2032	0.7017	381.22	0.38
0.1994	0.5986	374.88	0.26
0.2002	0.4995	370.75	0.22
0.2	0.4012	367.76	0.2
0.2002	0.3019	365.48	0.19
0.2004	0.2012	363.68	0.19
0.2006	0.1031	362.28	0.19
0.951	0.8041	399.82	0.49
0.9502	0.722	393	0.44
0.9507	0.6138	387.11	0.39
0.9506	0.5028	382.76	0.37
0.9504	0.4051	379.55	0.36
0.9511	0.304	376.47	0.34
0.9501	0.2043	373.62	0.31
0.9508	0.1012	370.74	0.28

System: propan-1-ol + 1,2-ethanediol + water; phases: Gas, Liquid
Fixed: Pressure, kPa = 101.3
Property: Mole fraction of water (Gas); method: Chromatography
Solvent: Mole fraction of propan-1-ol	Mass fraction of 1,2-ethanediol	Mole fraction of water	uncertainty
0.2089	0.8009	0.5488	0.0121
0.2032	0.7017	0.5661	0.0123
0.1994	0.5986	0.5787	0.0125
0.2002	0.4995	0.5839	0.0126
0.2	0.4012	0.5889	0.0126
0.2002	0.3019	0.5932	0.0127
0.2004	0.2012	0.5979	0.0128
0.2006	0.1031	0.6006	0.0128
0.951	0.8041	0.0267	0.0134
0.9502	0.722	0.0333	0.0135
0.9507	0.6138	0.0416	0.0136
0.9506	0.5028	0.0524	0.0135
0.9504	0.4051	0.0622	0.0134
0.9511	0.304	0.0739	0.0132
0.9501	0.2043	0.0896	0.013
0.9508	0.1012	0.1083	0.0127

System: propan-1-ol + 1,2-ethanediol + water; phases: Gas, Liquid
Fixed: Pressure, kPa = 101.3
Property: Mole fraction of propan-1-ol (Gas); method: Chromatography
Solvent: Mole fraction of propan-1-ol	Mass fraction of 1,2-ethanediol	Mole fraction of propan-1-ol	uncertainty
0.2089	0.8009	0.4231	0.0096
0.2032	0.7017	0.4177	0.0095
0.1994	0.5986	0.4123	0.0094
0.2002	0.4995	0.4111	0.0094
0.2	0.4012	0.4083	0.0093
0.2002	0.3019	0.4052	0.0092
0.2004	0.2012	0.4013	0.0091
0.2006	0.1031	0.399	0.0091
0.951	0.8041	0.9129	0.0222
0.9502	0.722	0.9245	0.0225
0.9507	0.6138	0.9306	0.0227
0.9506	0.5028	0.927	0.0227
0.9504	0.4051	0.9218	0.0226
0.9511	0.304	0.9147	0.0224
0.9501	0.2043	0.9033	0.0221
0.9508	0.1012	0.8884	0.0217

System: 1,2-ethanediol + water; phases: Liquid, Gas
Fixed: Pressure, kPa = 101.3
Property: Boiling temperature at pressure P, K (Liquid); method: Ebulliometric method (Recirculating still)
Mole fraction of water	Boiling temperature at pressure P, K	uncertainty
0.1792	424.82	0.52
0.2468	415.59	0.63
0.3181	407.93	0.66
0.3805	402.37	0.65
0.4451	397.48	0.61
0.5845	388.93	0.74

System: 1,2-ethanediol + water; phases: Gas, Liquid
Fixed: Pressure, kPa = 101.3
Property: Mole fraction of water (Gas); method: Chromatography
Mole fraction of water	Mole fraction of water	uncertainty
0.1792	0.8263	0.017
0.2468	0.8918	0.0182
0.3181	0.9303	0.0188
0.3805	0.9496	0.0191
0.4451	0.9631	0.0193
0.5845	0.9819	0.0181
