Measured thermophysical data. Measurement and Correlation of the Solubilities of Sulfur S8 in 10 Solvents
Source: J. Chem. Eng. Data, 2018, 10.1021/acs.jced.7b00699
Compound 1: cyclooctasulfur, S8, InChI=1S/S8/c1-2-4-6-8-7-5-3-1, purity 99.6%
Compound 2: sodium chloride, ClNa, InChI=1S/ClH.Na/h1H;/q;+1/p-1, purity 99.9%
Compound 3: water, H2O, InChI=1S/H2O/h1H2, purity 99.8%
Compound 4: toluene, C7H8, InChI=1S/C7H8/c1-7-5-3-2-4-6-7/h2-6H,1H3, purity 99.5%
Compound 5: ethylbenzene, C8H10, InChI=1S/C8H10/c1-2-8-6-4-3-5-7-8/h3-7H,2H2,1H3, purity 98.5%
Compound 6: chlorobenzene, C6H5Cl, InChI=1S/C6H5Cl/c7-6-4-2-1-3-5-6/h1-5H, purity 99.5%
Compound 7: 1,2-dichlorobenzene, C6H4Cl2, InChI=1S/C6H4Cl2/c7-5-3-1-2-4-6(5)8/h1-4H, purity 99%
Compound 8: 1,2,3,4-tetrahydronaphthalene, C10H12, InChI=1S/C10H12/c1-2-6-10-8-4-3-7-9(10)5-1/h1-2,5-6H,3-4,7-8H2, purity 95.2%
Compound 9: styrene, C8H8, InChI=1S/C8H8/c1-2-8-6-4-3-5-7-8/h2-7H,1H2, purity 99.5%
Compound 10: benzene, C6H6, InChI=1S/C6H6/c1-2-4-6-5-3-1/h1-6H, purity 99.6%
Compound 11: cyclohexene, C6H10, InChI=1S/C6H10/c1-2-4-6-5-3-1/h1-2H,3-6H2, purity 99.4%
Compound 12: cyclohexane, C6H12, InChI=1S/C6H12/c1-2-4-6-5-3-1/h1-6H2, purity 99.5%
Compound 13: hexane, C6H14, InChI=1S/C6H14/c1-3-5-6-4-2/h3-6H2,1-2H3, purity 98.9%

System: sodium chloride + water; phases: Liquid, Crystal
Fixed: Pressure, kPa = 101.2
Property: Mole fraction of sodium chloride (Liquid); method: Titration method
Temperature, K	Mole fraction of sodium chloride	uncertainty
293.15	0.0998	0.002
303.15	0.1004	0.002
313.15	0.1014	0.002
323.15	0.1024	0.002

System: cyclooctasulfur + toluene; phases: Liquid, Crystal
Fixed: Pressure, kPa = 101.2
Property: Mole fraction of cyclooctasulfur (Liquid); method: Titration method
Temperature, K	Mole fraction of cyclooctasulfur	uncertainty
298.15	0.00782	0.002
303.15	0.00927	0.002
308.15	0.01097	0.002
313.15	0.01298	0.002
318.15	0.01536	0.002
323.15	0.01816	0.002
328.15	0.02146	0.002
333.15	0.02535	0.002
338.15	0.02993	0.002
343.15	0.03529	0.002
348.15	0.04158	0.002
353.15	0.04893	0.002
358.15	0.05751	0.002
363.15	0.06747	0.00201

System: cyclooctasulfur + ethylbenzene; phases: Liquid, Crystal
Fixed: Pressure, kPa = 101.2
Property: Mole fraction of cyclooctasulfur (Liquid); method: Titration method
Temperature, K	Mole fraction of cyclooctasulfur	uncertainty
298.15	0.00405	0.002
303.15	0.00496	0.002
308.15	0.00608	0.002
313.15	0.00745	0.002
318.15	0.00913	0.002
323.15	0.01117	0.002
328.15	0.01367	0.002
333.15	0.01672	0.002
338.15	0.02044	0.002
343.15	0.02497	0.002
348.15	0.03046	0.002
353.15	0.03711	0.002
358.15	0.04515	0.002
363.15	0.05484	0.002

System: cyclooctasulfur + 1,2,3,4-tetrahydronaphthalene; phases: Liquid, Crystal
Fixed: Pressure, kPa = 101.2
Property: Mole fraction of cyclooctasulfur (Liquid); method: Titration method
Temperature, K	Mole fraction of cyclooctasulfur	uncertainty
298.15	0.01175	0.002
303.15	0.01371	0.002
308.15	0.01599	0.002
313.15	0.01864	0.002
318.15	0.02172	0.002
323.15	0.02529	0.002
328.15	0.02943	0.002
333.15	0.03423	0.002
338.15	0.03978	0.002
343.15	0.04619	0.002
348.15	0.05357	0.002
353.15	0.06205	0.002
358.15	0.07178	0.00201
363.15	0.08289	0.00201

System: cyclooctasulfur + styrene; phases: Liquid, Crystal
Fixed: Pressure, kPa = 101.2
Property: Mole fraction of cyclooctasulfur (Liquid); method: Titration method
Temperature, K	Mole fraction of cyclooctasulfur	uncertainty
298.15	0.00772	0.002
303.15	0.01061	0.002
308.15	0.01387	0.002
313.15	0.01749	0.002
318.15	0.02143	0.002
323.15	0.02569	0.002
328.15	0.03025	0.002
333.15	0.03508	0.002
338.15	0.04018	0.002
343.15	0.04553	0.002
348.15	0.05111	0.002
353.15	0.05691	0.002
358.15	0.06293	0.002
363.15	0.06913	0.00201

System: cyclooctasulfur + chlorobenzene; phases: Liquid, Crystal
Fixed: Pressure, kPa = 101.2
Property: Mole fraction of cyclooctasulfur (Liquid); method: Titration method
Temperature, K	Mole fraction of cyclooctasulfur	uncertainty
298.15	0.01369	0.002
303.15	0.01598	0.002
308.15	0.01865	0.002
313.15	0.02175	0.002
318.15	0.02535	0.002
323.15	0.02953	0.002
328.15	0.03438	0.002
333.15	0.03999	0.002
338.15	0.04647	0.002
343.15	0.05395	0.002
348.15	0.06254	0.002
353.15	0.07241	0.00201
358.15	0.08369	0.00201
363.15	0.09654	0.00201

System: cyclooctasulfur + benzene; phases: Liquid, Crystal
Fixed: Pressure, kPa = 101.2
Property: Mole fraction of cyclooctasulfur (Liquid); method: Titration method
Temperature, K	Mole fraction of cyclooctasulfur	uncertainty
298.15	0.00712	0.002
303.15	0.00844	0.002
308.15	0.01001	0.002
313.15	0.01186	0.002
318.15	0.01406	0.002
323.15	0.01665	0.002
328.15	0.01972	0.002
333.15	0.02333	0.002
338.15	0.02759	0.002
343.15	0.0326	0.002

System: cyclooctasulfur + cyclohexene; phases: Liquid, Crystal
Fixed: Pressure, kPa = 101.2
Property: Mole fraction of cyclooctasulfur (Liquid); method: Titration method
Temperature, K	Mole fraction of cyclooctasulfur	uncertainty
298.15	0.00844	0.002
303.15	0.00986	0.002
308.15	0.01152	0.002
313.15	0.01345	0.002
318.15	0.0157	0.002
323.15	0.01833	0.002
328.15	0.02137	0.002
333.15	0.02492	0.002
338.15	0.02903	0.002
343.15	0.0338	0.002

System: cyclooctasulfur + cyclohexane; phases: Liquid, Crystal
Fixed: Pressure, kPa = 101.2
Property: Mole fraction of cyclooctasulfur (Liquid); method: Titration method
Temperature, K	Mole fraction of cyclooctasulfur	uncertainty
298.15	0.00583	0.002
303.15	0.00664	0.002
308.15	0.00756	0.002
313.15	0.00861	0.002
318.15	0.00979	0.002
323.15	0.01114	0.002
328.15	0.01268	0.002
333.15	0.01442	0.002
338.15	0.0164	0.002
343.15	0.01864	0.002
348.15	0.02118	0.002

System: cyclooctasulfur + hexane; phases: Liquid, Crystal
Fixed: Pressure, kPa = 101.2
Property: Mole fraction of cyclooctasulfur (Liquid); method: Titration method
Temperature, K	Mole fraction of cyclooctasulfur	uncertainty
298.15	0.00034	0.00034
303.15	0.0004	0.0004
308.15	0.00067	0.00067
313.15	0.00084	0.00084
318.15	0.00107	0.00107
323.15	0.00128	0.00128
328.15	0.00168	0.00168

System: cyclooctasulfur + chlorobenzene + 1,2-dichlorobenzene; phases: Liquid, Crystal
Fixed: Pressure, kPa = 101.2
Fixed: Solvent: Mole fraction of chlorobenzene = 0.4
Property: Mole fraction of cyclooctasulfur (Liquid); method: Titration method
Temperature, K	Mole fraction of cyclooctasulfur	uncertainty
298.15	0.01916	0.002
303.15	0.02379	0.002
308.15	0.02947	0.002
313.15	0.03651	0.002
318.15	0.04513	0.002
323.15	0.05567	0.002
328.15	0.06849	0.00201
333.15	0.08401	0.00201
338.15	0.10267	0.00201
343.15	0.12488	0.00202
348.15	0.15108	0.00203
353.15	0.18166	0.00204
358.15	0.21686	0.00206
363.15	0.25673	0.00208
