Measured thermophysical data. Isobaric Molar Heat Capacity of Ethyl Octanoate and Ethyl Decanoate at Pressures up to 24 MPa
Source: J. Chem. Eng. Data, 2018, 10.1021/acs.jced.8b00199
Compound 1: ethyl octanoate, C10H20O2, InChI=1S/C10H20O2/c1-3-5-6-7-8-9-10(11)12-4-2/h3-9H2,1-2H3, purity 99%
Compound 2: ethyl decanoate, C12H24O2, InChI=1S/C12H24O2/c1-3-5-6-7-8-9-10-11-12(13)14-4-2/h3-11H2,1-2H3, purity 99%

System: ethyl octanoate; phases: Liquid
Property: Molar heat capacity at constant pressure, J/K/mol (Liquid); method: Flow calorimetry
Temperature, K	Pressure, kPa	Molar heat capacity at constant pressure, J/K/mol	uncertainty
294	160	339.59	3.43
294	3020	339.17	3.43
294.1	5960	338.74	3.42
294.1	9040	338.3	3.42
294.1	12020	337.9	3.41
294.1	14980	337.54	3.41
294.1	17990	337.13	3.41
294.1	21060	336.71	3.4
294.1	23980	336.29	3.4
305.6	160	344.76	3.48
303.7	2940	344.3	3.48
303.7	6070	343.83	3.47
303.8	8950	343.35	3.47
303.8	12020	342.9	3.46
303.9	15040	342.5	3.46
304	18130	342.09	3.46
304	21050	341.67	3.45
304	24030	341.18	3.45
314.3	170	350.6	3.54
314.3	3140	350.17	3.54
314.3	6130	349.71	3.53
314.4	9110	349.29	3.53
314.4	12100	348.89	3.52
314.4	15030	348.53	3.52
314.5	18310	348.11	3.52
314.5	20910	347.72	3.51
314.5	24100	347.25	3.51
323.8	130	355.82	3.59
323.8	3030	355.4	3.59
323.8	6160	354.96	3.59
323.9	9300	354.54	3.58
323.9	12120	354.09	3.58
323.9	15230	353.71	3.57
323.9	18110	353.28	3.57
323.8	21030	352.89	3.57
323.9	24100	352.47	3.56
333.7	110	360.49	3.64
333.7	3060	360.06	3.64
333.7	6010	359.65	3.63
333.8	9110	359.17	3.63
333.8	11920	358.75	3.62
333.8	15070	358.37	3.62
333.8	18080	357.9	3.62
333.9	21120	357.47	3.61
333.9	24000	357.06	3.61
343.5	130	365.32	3.69
343.5	2950	364.93	3.69
343.5	6040	364.48	3.68
343.5	8990	364.02	3.68
343.6	12070	363.6	3.67
343.7	15050	363.15	3.67
343.8	18070	362.7	3.66
343.8	21010	362.3	3.66
343.8	24090	361.84	3.66
353.6	130	370.06	3.74
353.6	3030	369.66	3.73
353.6	6060	369.24	3.73
353.7	8990	368.8	3.73
353.7	11900	368.4	3.72
353.8	15040	367.99	3.72
353.9	18020	367.57	3.71
354	20960	367.14	3.71
354	24110	366.72	3.7

System: ethyl decanoate; phases: Liquid
Property: Molar heat capacity at constant pressure, J/K/mol (Liquid); method: Flow calorimetry
Temperature, K	Pressure, kPa	Molar heat capacity at constant pressure, J/K/mol	uncertainty
294	100	400.39	4.04
294	3080	399.98	4.04
294	6090	399.53	4.04
294	8970	399.07	4.03
294	12120	398.72	4.03
294.1	14870	398.28	4.02
294.1	17910	397.82	4.02
294.1	21090	397.38	4.01
294.1	24040	396.93	4.01
304	130	406.09	4.1
304	3030	405.62	4.1
304	6160	405.12	4.09
304	9030	404.66	4.09
304	11950	404.19	4.08
304	15090	403.69	4.08
304	17870	403.23	4.07
304.1	21100	402.75	4.07
304.1	24050	402.24	4.06
313.9	110	411.45	4.16
313.9	2920	410.92	4.15
313.9	5990	410.45	4.15
313.9	9080	409.95	4.14
314	11910	409.43	4.14
314	15030	408.93	4.13
314	18090	408.41	4.13
314	21080	407.89	4.12
314	24110	407.34	4.11
323.8	150	416.54	4.21
323.9	3040	416.03	4.2
323.9	5930	415.53	4.2
323.9	9070	415.03	4.19
323.9	11980	414.54	4.19
323.9	15050	414.03	4.18
324	18050	413.54	4.18
324	21210	413.06	4.17
324	24030	412.57	4.17
333.8	120	423.19	4.28
333.8	2960	422.7	4.27
333.8	5990	422.28	4.27
333.8	9040	421.77	4.26
333.9	12030	421.17	4.25
333.9	14940	420.66	4.25
333.9	18050	420.15	4.24
333.9	21100	419.65	4.24
334	24050	419.11	4.23
343.7	150	429.52	4.34
343.7	3000	429.02	4.33
343.7	6190	428.5	4.33
343.8	8990	427.96	4.32
343.8	12100	427.46	4.32
343.8	14910	426.93	4.31
343.8	17990	426.4	4.31
343.8	21010	426.07	4.3
343.9	23970	425.54	4.3
353.7	110	435.96	4.4
353.7	2980	435.41	4.4
353.7	6020	434.91	4.39
353.7	8990	434.4	4.39
353.8	11920	433.87	4.38
353.8	14940	433.36	4.38
353.8	17960	432.85	4.37
353.8	21070	432.33	4.37
353.9	23980	431.81	4.36
