Measured thermophysical data. Phase Behavior for the System Carbon Dioxide + p-Nitrobenzaldehyde: Experimental and Modeling
Source: J. Chem. Eng. Data, 2019, 10.1021/acs.jced.8b01067
Compound 1: 4-nitrobenzaldehyde, C7H5NO3, InChI=1S/C7H5NO3/c9-5-6-1-3-7(4-2-6)8(10)11/h1-5H, purity 98%
Compound 2: carbon dioxide, CO2, InChI=1S/CO2/c2-1-3
Compound 3: ethanol, C2H6O, InChI=1S/C2H6O/c1-2-3/h3H,2H2,1H3

System: carbon dioxide + ethanol; phases: Liquid, Gas
Property: Vapor or sublimation pressure, kPa (Liquid); method: Closed cell (Static) method
Temperature, K	Mole fraction of carbon dioxide	Vapor or sublimation pressure, kPa	uncertainty
313.15	0.207	3150	360
313.15	0.411	6110	490
313.15	0.611	7650	440
313.15	0.807	7760	550
333.15	0.207	3960	360
333.15	0.411	8240	470
333.15	0.611	9700	440
333.15	0.807	11100	550
313.15	0.414	6440	450
313.15	0.605	7380	450
333.15	0.414	8010	430
333.15	0.605	9520	440

System: carbon dioxide + 4-nitrobenzaldehyde; phases: Fluid (supercritical or subcritical phases), Crystal
Property: Vapor or sublimation pressure, kPa (Fluid (supercritical or subcritical phases)); method: Closed cell (Static) method
Temperature, K	Mole fraction of 4-nitrobenzaldehyde	Vapor or sublimation pressure, kPa	uncertainty
298.15	0.002638	6730	570
303.15	0.002638	7610	530
308.15	0.002638	8280	530
313.15	0.002638	9160	580
323.15	0.002638	10980	580
333.15	0.002638	12800	580
293.15	0.003525	9700	760
298.15	0.003525	8390	360
303.15	0.003525	9330	550
313.15	0.003525	10850	570
323.15	0.003525	12810	540
333.15	0.003525	14110	550
343.15	0.003525	16140	510
353.15	0.003525	17050	410
298.15	0.004415	12010	730
303.15	0.004415	10780	350
308.15	0.004415	11680	530
313.15	0.004415	12590	500
323.15	0.004415	13970	480
333.15	0.004415	15230	450
313.15	0.005903	17480	590
318.15	0.005903	16550	610
323.15	0.005903	15560	340
333.15	0.005903	16490	440
343.15	0.005903	17650	450

System: carbon dioxide + 4-nitrobenzaldehyde; phases: Fluid (supercritical or subcritical phases), Crystal
Property: Vapor or sublimation pressure, kPa (Fluid (supercritical or subcritical phases)); method: Closed cell (Static) method
Temperature, K	Mole fraction of 4-nitrobenzaldehyde	Vapor or sublimation pressure, kPa	uncertainty
281.05	0.002638	11500	1320
289.25	0.002638	7500	1320
285.75	0.003525	17000	2480
288.15	0.003525	14200	2010
291.05	0.003525	12000	2010
290.65	0.004415	20000	4120
294.45	0.004415	14000	4120
298.05	0.005903	24500	1290
305.45	0.005903	21000	1290
