Measured thermophysical data. Solubility of Benzoin in Six Monosolvents and in Some Binary Solvent Mixtures at Various Temperatures
Source: J. Chem. Eng. Data, 2017, 10.1021/acs.jced.7b00238
Compound 1: .alpha.-hydroxy-.alpha.-phenylacetophenone, C14H12O2, InChI=1S/C14H12O2/c15-13(11-7-3-1-4-8-11)14(16)12-9-5-2-6-10-12/h1-10,13,15H, purity 99%
Compound 2: acetone, C3H6O, InChI=1S/C3H6O/c1-3(2)4/h1-2H3, purity 99.5%
Compound 3: ethyl acetate, C4H8O2, InChI=1S/C4H8O2/c1-3-6-4(2)5/h3H2,1-2H3, purity 99.5%
Compound 4: methanol, CH4O, InChI=1S/CH4O/c1-2/h2H,1H3, purity 99.5%
Compound 5: ethanol, C2H6O, InChI=1S/C2H6O/c1-2-3/h3H,2H2,1H3, purity 99.5%
Compound 6: propan-1-ol, C3H8O, InChI=1S/C3H8O/c1-2-3-4/h4H,2-3H2,1H3, purity 99.5%
Compound 7: butan-1-ol, C4H10O, InChI=1S/C4H10O/c1-2-3-4-5/h5H,2-4H2,1H3, purity 99.5%
Compound 8: 2-hydroxybenzoic acid, C7H6O3, InChI=1S/C7H6O3/c8-6-4-2-1-3-5(6)7(9)10/h1-4,8H,(H,9,10), purity 99.5%
Compound 9: water, H2O, InChI=1S/H2O/h1H2, purity 99.8%

System: .alpha.-hydroxy-.alpha.-phenylacetophenone; phases: Crystal, Liquid, Air at 1 atmosphere
Property: Molar enthalpy of transition or fusion, kJ/mol (Crystal); method: DSC
Molar enthalpy of transition or fusion, kJ/mol	uncertainty
35.849	0.773

System: .alpha.-hydroxy-.alpha.-phenylacetophenone; phases: Crystal, Liquid, Air at 1 atmosphere
Property: Normal melting temperature, K (Crystal); method: DTA
Normal melting temperature, K	uncertainty
406.55	1.06

System: acetone + .alpha.-hydroxy-.alpha.-phenylacetophenone; phases: Liquid, Crystal
Fixed: Pressure, kPa = 100
Property: Mole fraction of .alpha.-hydroxy-.alpha.-phenylacetophenone (Liquid); method: UV spectroscopy
Temperature, K	Mole fraction of .alpha.-hydroxy-.alpha.-phenylacetophenone	uncertainty
283.15	0.00874	0.00105
288.15	0.011	0.00132
293.15	0.01295	0.00156
298.15	0.01592	0.00191
303.15	0.01876	0.00226
308.15	0.02331	0.0028
313.15	0.02841	0.00342
318.15	0.03555	0.00428
323.15	0.04457	0.00536

System: .alpha.-hydroxy-.alpha.-phenylacetophenone + ethyl acetate; phases: Liquid, Crystal
Fixed: Pressure, kPa = 100
Property: Mole fraction of .alpha.-hydroxy-.alpha.-phenylacetophenone (Liquid); method: UV spectroscopy
Temperature, K	Mole fraction of .alpha.-hydroxy-.alpha.-phenylacetophenone	uncertainty
283.15	0.00648	0.00065
288.15	0.00786	0.00079
293.15	0.0102	0.00102
298.15	0.01285	0.00129
303.15	0.0151	0.00151
308.15	0.0186	0.00186
313.15	0.02302	0.0023
318.15	0.02781	0.00278
323.15	0.03496	0.0035

System: methanol + .alpha.-hydroxy-.alpha.-phenylacetophenone; phases: Liquid, Crystal
Fixed: Pressure, kPa = 100
Property: Mole fraction of .alpha.-hydroxy-.alpha.-phenylacetophenone (Liquid); method: UV spectroscopy
Temperature, K	Mole fraction of .alpha.-hydroxy-.alpha.-phenylacetophenone	uncertainty
283.15	0.00114	0.00011
288.15	0.0014	0.00014
293.15	0.00245	0.00025
298.15	0.00315	0.00032
303.15	0.00366	0.00037
308.15	0.00466	0.00047
313.15	0.00567	0.00057
318.15	0.00729	0.00073
323.15	0.00898	0.0009

System: ethanol + .alpha.-hydroxy-.alpha.-phenylacetophenone; phases: Liquid, Crystal
Fixed: Pressure, kPa = 100
Property: Mole fraction of .alpha.-hydroxy-.alpha.-phenylacetophenone (Liquid); method: UV spectroscopy
Temperature, K	Mole fraction of .alpha.-hydroxy-.alpha.-phenylacetophenone	uncertainty
283.15	0.00114	0.00018
288.15	0.00147	0.00024
293.15	0.002	0.00032
298.15	0.0025	0.0004
303.15	0.00322	0.00052
308.15	0.00387	0.00062
313.15	0.00472	0.00076
318.15	0.00617	0.00099
323.15	0.00795	0.00127

System: propan-1-ol + .alpha.-hydroxy-.alpha.-phenylacetophenone; phases: Liquid, Crystal
Fixed: Pressure, kPa = 100
Property: Mole fraction of .alpha.-hydroxy-.alpha.-phenylacetophenone (Liquid); method: UV spectroscopy
Temperature, K	Mole fraction of .alpha.-hydroxy-.alpha.-phenylacetophenone	uncertainty
283.15	0.00075	9e-05
288.15	0.00111	0.00013
293.15	0.0015	0.00018
298.15	0.00202	0.00024
303.15	0.00284	0.00034
308.15	0.00364	0.00044
313.15	0.00479	0.00058
318.15	0.0065	0.00078
323.15	0.00861	0.00104

System: propan-1-ol + .alpha.-hydroxy-.alpha.-phenylacetophenone; phases: Liquid, Crystal
Fixed: Pressure, kPa = 100
Property: Mole fraction of .alpha.-hydroxy-.alpha.-phenylacetophenone (Liquid); method: gravimetric
Temperature, K	Mole fraction of .alpha.-hydroxy-.alpha.-phenylacetophenone	uncertainty
288.15	0.00107	0.00013
293.15	0.0014	0.00017
298.15	0.00211	0.00025
303.15	0.0028	0.00034

System: butan-1-ol + .alpha.-hydroxy-.alpha.-phenylacetophenone; phases: Liquid, Crystal
Fixed: Pressure, kPa = 100
Property: Mole fraction of .alpha.-hydroxy-.alpha.-phenylacetophenone (Liquid); method: UV spectroscopy
Temperature, K	Mole fraction of .alpha.-hydroxy-.alpha.-phenylacetophenone	uncertainty
283.15	0.0007	8e-05
288.15	0.00099	0.00012
293.15	0.00144	0.00017
298.15	0.00198	0.00024
303.15	0.00267	0.00032
308.15	0.00351	0.00042
313.15	0.00462	0.00056
318.15	0.00613	0.00074
323.15	0.00757	0.00091

System: butan-1-ol + .alpha.-hydroxy-.alpha.-phenylacetophenone; phases: Liquid, Crystal
Fixed: Pressure, kPa = 100
Property: Mole fraction of .alpha.-hydroxy-.alpha.-phenylacetophenone (Liquid); method: gravimetric
Temperature, K	Mole fraction of .alpha.-hydroxy-.alpha.-phenylacetophenone	uncertainty
288.15	0.00106	0.00013
293.15	0.0014	0.00017
298.15	0.00196	0.00024
303.15	0.0025	0.0003

System: methanol + .alpha.-hydroxy-.alpha.-phenylacetophenone + ethyl acetate; phases: Liquid, Crystal
Fixed: Pressure, kPa = 100
Property: Mole fraction of .alpha.-hydroxy-.alpha.-phenylacetophenone (Liquid); method: UV spectroscopy
Temperature, K	Solvent: Mole fraction of methanol	Mole fraction of .alpha.-hydroxy-.alpha.-phenylacetophenone	uncertainty
283.15	0	0.00648	0.00065
283.15	0.1	0.00743	0.00074
283.15	0.2	0.00763	0.00076
283.15	0.3	0.00735	0.00074
283.15	0.4	0.00682	0.00068
283.15	0.5	0.0059	0.0006
283.15	0.6	0.00519	0.00052
283.15	0.7	0.00451	0.00045
283.15	0.8	0.00352	0.00035
283.15	0.9	0.00252	0.00025
283.15	1	0.00114	0.00011
288.15	0	0.00786	0.00079
288.15	0.1	0.00841	0.00084
288.15	0.2	0.00859	0.00086
288.15	0.3	0.00812	0.00081
288.15	0.4	0.00756	0.00076
288.15	0.5	0.00682	0.00069
288.15	0.6	0.00609	0.00061
288.15	0.7	0.00518	0.00052
288.15	0.8	0.00414	0.00042
288.15	0.9	0.00297	0.0003
288.15	1	0.0014	0.00014
293.15	0	0.0102	0.00102
293.15	0.1	0.01061	0.00106
293.15	0.2	0.01062	0.00106
293.15	0.3	0.01013	0.00101
293.15	0.4	0.00964	0.00097
293.15	0.5	0.00881	0.00089
293.15	0.6	0.00782	0.00079
293.15	0.7	0.00683	0.00069
293.15	0.8	0.00561	0.00056
293.15	0.9	0.00395	0.0004
293.15	1	0.00245	0.00025
298.15	0	0.01285	0.00129
298.15	0.1	0.01315	0.00132
298.15	0.2	0.01327	0.00133
298.15	0.3	0.01299	0.0013
298.15	0.4	0.0126	0.00126
298.15	0.5	0.01175	0.00118
298.15	0.6	0.01001	0.00101
298.15	0.7	0.00828	0.00083
298.15	0.8	0.00664	0.00067
298.15	0.9	0.00503	0.0005
298.15	1	0.00315	0.00032
303.15	0	0.0151	0.00151
303.15	0.1	0.01573	0.00157
303.15	0.2	0.01599	0.0016
303.15	0.3	0.01566	0.00157
303.15	0.4	0.01493	0.0015
303.15	0.5	0.01366	0.00137
303.15	0.6	0.01213	0.00122
303.15	0.7	0.01029	0.00104
303.15	0.8	0.00815	0.00082
303.15	0.9	0.00588	0.00059
303.15	1	0.00366	0.00037
308.15	0	0.0186	0.00186
308.15	0.1	0.01948	0.00195
308.15	0.2	0.01969	0.00197
308.15	0.3	0.01923	0.00192
308.15	0.4	0.01842	0.00184
308.15	0.5	0.01692	0.0017
308.15	0.6	0.01492	0.0015
308.15	0.7	0.01286	0.00129
308.15	0.8	0.01024	0.00103
308.15	0.9	0.00736	0.00074
308.15	1	0.00466	0.00047
313.15	0	0.02302	0.0023
313.15	0.1	0.02341	0.00234
313.15	0.2	0.0237	0.00237
313.15	0.3	0.02342	0.00234
313.15	0.4	0.02237	0.00224
313.15	0.5	0.02041	0.00205
313.15	0.6	0.01804	0.00181
313.15	0.7	0.01595	0.0016
313.15	0.8	0.01255	0.00126
313.15	0.9	0.00914	0.00092
313.15	1	0.00567	0.00057
318.15	0	0.02781	0.00278
318.15	0.1	0.02828	0.00283
318.15	0.2	0.0288	0.00288
318.15	0.3	0.02862	0.00286
318.15	0.4	0.02749	0.00275
318.15	0.5	0.02533	0.00255
318.15	0.6	0.02208	0.00222
318.15	0.7	0.01938	0.00195
318.15	0.8	0.01578	0.00159
318.15	0.9	0.01148	0.00115
318.15	1	0.00729	0.00073
323.15	0	0.03496	0.0035
323.15	0.1	0.03607	0.00361
323.15	0.2	0.03594	0.00359
323.15	0.3	0.03488	0.00349
323.15	0.4	0.03329	0.00333
323.15	0.5	0.03074	0.00309
323.15	0.6	0.02798	0.00282
323.15	0.7	0.02317	0.00233
323.15	0.8	0.01885	0.00189
323.15	0.9	0.01438	0.00144
323.15	1	0.00898	0.0009

System: ethanol + .alpha.-hydroxy-.alpha.-phenylacetophenone + ethyl acetate; phases: Liquid, Crystal
Fixed: Pressure, kPa = 100
Property: Mole fraction of .alpha.-hydroxy-.alpha.-phenylacetophenone (Liquid); method: UV spectroscopy
Temperature, K	Solvent: Mole fraction of ethanol	Mole fraction of .alpha.-hydroxy-.alpha.-phenylacetophenone	uncertainty
283.15	0	0.00648	0.00104
283.15	0.1	0.00716	0.00115
283.15	0.2	0.00707	0.00113
283.15	0.3	0.00682	0.00109
283.15	0.4	0.00616	0.00099
283.15	0.5	0.00531	0.00085
283.15	0.6	0.00441	0.00071
283.15	0.7	0.00364	0.00058
283.15	0.8	0.00282	0.00045
283.15	0.9	0.00194	0.00031
283.15	1	0.00114	0.00018
288.15	0	0.00786	0.00126
288.15	0.1	0.00873	0.0014
288.15	0.2	0.00843	0.00135
288.15	0.3	0.00794	0.00127
288.15	0.4	0.0072	0.00115
288.15	0.5	0.00624	0.001
288.15	0.6	0.00521	0.00084
288.15	0.7	0.00436	0.0007
288.15	0.8	0.0034	0.00055
288.15	0.9	0.00246	0.00039
288.15	1	0.00147	0.00024
293.15	0	0.0102	0.00163
293.15	0.1	0.01105	0.00177
293.15	0.2	0.01091	0.00175
293.15	0.3	0.01041	0.00167
293.15	0.4	0.00947	0.00152
293.15	0.5	0.00829	0.00133
293.15	0.6	0.00696	0.00112
293.15	0.7	0.00592	0.00095
293.15	0.8	0.00464	0.00074
293.15	0.9	0.00319	0.00051
293.15	1	0.002	0.00032
298.15	0	0.01285	0.00206
298.15	0.1	0.01382	0.00221
298.15	0.2	0.01347	0.00216
298.15	0.3	0.01258	0.00201
298.15	0.4	0.01132	0.00181
298.15	0.5	0.01004	0.00161
298.15	0.6	0.00875	0.0014
298.15	0.7	0.00735	0.00118
298.15	0.8	0.00586	0.00094
298.15	0.9	0.00398	0.00064
298.15	1	0.0025	0.0004
303.15	0	0.0151	0.00242
303.15	0.1	0.01567	0.00251
303.15	0.2	0.01562	0.0025
303.15	0.3	0.01494	0.00239
303.15	0.4	0.01382	0.00221
303.15	0.5	0.01232	0.00198
303.15	0.6	0.0106	0.0017
303.15	0.7	0.00893	0.00143
303.15	0.8	0.00674	0.00108
303.15	0.9	0.00476	0.00076
303.15	1	0.00322	0.00052
308.15	0	0.0186	0.00298
308.15	0.1	0.01921	0.00307
308.15	0.2	0.0192	0.00307
308.15	0.3	0.01843	0.00295
308.15	0.4	0.01706	0.00273
308.15	0.5	0.01504	0.00241
308.15	0.6	0.01311	0.00211
308.15	0.7	0.01069	0.00172
308.15	0.8	0.00813	0.0013
308.15	0.9	0.0061	0.00098
308.15	1	0.00387	0.00062
313.15	0	0.02302	0.00368
313.15	0.1	0.02345	0.00375
313.15	0.2	0.02324	0.00372
313.15	0.3	0.02227	0.00356
313.15	0.4	0.02055	0.00329
313.15	0.5	0.01849	0.00297
313.15	0.6	0.01541	0.00248
313.15	0.7	0.01286	0.00206
313.15	0.8	0.01007	0.00161
313.15	0.9	0.0075	0.0012
313.15	1	0.00472	0.00076
318.15	0	0.02781	0.00445
318.15	0.1	0.02822	0.00452
318.15	0.2	0.02816	0.00451
318.15	0.3	0.0276	0.00442
318.15	0.4	0.02568	0.00411
318.15	0.5	0.02336	0.00375
318.15	0.6	0.0202	0.00324
318.15	0.7	0.01629	0.00262
318.15	0.8	0.01317	0.00211
318.15	0.9	0.00953	0.00153
318.15	1	0.00617	0.00099
323.15	0	0.03496	0.00559
323.15	0.1	0.03569	0.00571
323.15	0.2	0.03573	0.00572
323.15	0.3	0.03417	0.00547
323.15	0.4	0.03193	0.00511
323.15	0.5	0.02943	0.00472
323.15	0.6	0.0259	0.00416
323.15	0.7	0.02059	0.00331
323.15	0.8	0.01654	0.00265
323.15	0.9	0.01162	0.00186
323.15	1	0.00795	0.00127

System: 2-hydroxybenzoic acid + methanol; phases: Liquid, Crystal
Property: Mole fraction of 2-hydroxybenzoic acid (Liquid); method: UV spectroscopy
Temperature, K	Pressure, kPa	Mole fraction of 2-hydroxybenzoic acid	uncertainty
298.15	100	0.119	0.012

System: 2-hydroxybenzoic acid + ethyl acetate; phases: Liquid, Crystal
Property: Mole fraction of 2-hydroxybenzoic acid (Liquid); method: UV spectroscopy
Temperature, K	Pressure, kPa	Mole fraction of 2-hydroxybenzoic acid	uncertainty
298.15	100	0.146	0.015

System: 2-hydroxybenzoic acid + acetone; phases: Liquid, Crystal
Property: Mole fraction of 2-hydroxybenzoic acid (Liquid); method: UV spectroscopy
Temperature, K	Pressure, kPa	Mole fraction of 2-hydroxybenzoic acid	uncertainty
298.15	100	0.178	0.018

System: 2-hydroxybenzoic acid + water; phases: Liquid, Crystal
Property: Mole fraction of 2-hydroxybenzoic acid (Liquid); method: UV spectroscopy
Temperature, K	Pressure, kPa	Mole fraction of 2-hydroxybenzoic acid	uncertainty
298.15	100	0.00024	2e-05
