Measured thermophysical data. Phase Behavior and Densities of Propylene + Hexane Binary Mixtures to 585 K and 70 MPa
Source: J. Chem. Eng. Data, 2016, 10.1021/acs.jced.6b00181
Compound 1: propene, C3H6, InChI=1S/C3H6/c1-3-2/h3H,1H2,2H3, purity 99.99%
Compound 2: hexane, C6H14, InChI=1S/C6H14/c1-3-5-6-4-2/h3-6H2,1-2H3, purity 97.83%

System: propene + hexane; phases: Liquid, Gas
Property: Vapor or sublimation pressure, kPa (Liquid); method: Closed cell (Static) method
Temperature, K	Mole fraction of propene	Vapor or sublimation pressure, kPa	uncertainty
295.6	0.1414	220	140
324.6	0.1414	390	140
350.8	0.1414	630	140
378.4	0.1414	910	140
425	0.1414	1790	140
453.5	0.1414	2370	140
464	0.1414	2660	140
295.3	0.4466	460	140
309.7	0.4466	660	140
324.5	0.4466	920	140
324.5	0.4466	920	140
324.5	0.4466	920	140
349.2	0.4466	1370	140
375.6	0.4466	2040	140
425.1	0.4466	3570	140
448.1	0.4466	4500	140
295.6	0.606	690	140
324.7	0.606	1250	140
372.2	0.606	2710	140
374.2	0.606	2780	140
295.3	0.6127	750	140
323.1	0.6127	1220	140
326.3	0.6127	1290	140
355.2	0.6127	2090	140
394.3	0.6127	3610	140
423.3	0.6127	4960	140
435.1	0.6127	5320	140
295.9	0.8985	1040	140
325.5	0.8985	1940	140
314.9	0.8985	1630	140
305.3	0.8985	1260	140
294.8	0.909	1030	140
295.1	0.909	1010	140
309.8	0.909	1390	140
325.1	0.909	1960	140
350.5	0.909	3070	140
370.9	0.909	4310	150
371.1	0.909	4290	150
376.9	0.909	4610	140
382.1	0.909	4980	150

System: propene + hexane; phases: Gas, Liquid
Property: Vapor or sublimation pressure, kPa (Gas); method: Closed cell (Static) method
Temperature, K	Mole fraction of propene	Vapor or sublimation pressure, kPa	uncertainty
468.4	0.4466	4970	220

System: propene + hexane; phases: Liquid, Gas
Property: Critical temperature, K (Liquid); method: Visual observation in an unstirred cell
Mole fraction of propene	Critical temperature, K	uncertainty
0.4466	466.9	0.7
0.909	387.1	0.6

System: propene + hexane; phases: Liquid, Gas
Property: Critical pressure, kPa (Liquid); method: Direct measurement
Mole fraction of propene	Critical pressure, kPa	uncertainty
0.4466	5180	140
0.909	5200	140

System: propene + hexane; phases: Liquid
Property: Mass density, kg/m3 (Liquid); method: Other PVT measurement
Mole fraction of propene	Temperature, K	Pressure, kPa	Mass density, kg/m3	uncertainty
0.1414	295.6	700	638.3	5.2
0.1414	295.6	1300	639.2	5.2
0.1414	295.6	3500	642	5.2
0.1414	295.6	8200	646.8	5.2
0.1414	295.6	10700	649.7	5.2
0.1414	295.6	14900	653.6	5.3
0.1414	295.6	20700	659.5	5.3
0.1414	295.6	24000	662.5	5.3
0.1414	295.6	27200	665.6	5.4
0.1414	295.6	30800	668.6	5.4
0.1414	295.6	37100	673.8	5.4
0.1414	295.6	42700	678.5	5.5
0.1414	295.6	47800	682.2	5.5
0.1414	295.6	48000	682.8	6.7
0.1414	295.6	48200	682.8	5.5
0.1414	295.6	48300	682.8	5.5
0.1414	295.6	52000	685.5	5.5
0.1414	295.6	55300	688.2	5.5
0.1414	324.6	700	611.8	5
0.1414	324.6	1200	612.7	5
0.1414	324.6	1900	614	5
0.1414	324.6	3600	616.6	5
0.1414	324.6	5000	618.8	5
0.1414	324.6	7100	621.9	5
0.1414	324.6	8900	624.1	5
0.1414	324.6	9600	625.5	5.1
0.1414	324.6	10300	625.9	5.1
0.1414	324.6	12300	628.6	5.1
0.1414	324.6	13600	630	5.1
0.1414	324.6	17100	634.1	5.1
0.1414	324.6	19700	637.3	5.1
0.1414	324.6	24100	642	5.2
0.1414	324.6	27400	644.9	5.2
0.1414	324.6	30700	648.2	5.2
0.1414	324.6	34300	651.6	5.3
0.1414	324.6	37500	654.6	5.3
0.1414	425	1800	494.2	4.1
0.1414	425	3700	504.2	4.2
0.1414	425	5100	510.4	4.2
0.1414	425	7000	517.7	4.2
0.1414	425	10400	528.7	4.3
0.1414	425	17300	546.6	4.5
0.1414	425	17500	547.3	4.4
0.1414	425	20600	553.9	4.5
0.1414	425	24100	561.4	4.5
0.1414	425	27600	567.6	4.6
0.1414	425	30900	573.2	4.6
0.1414	425	34300	578.9	4.7
0.1414	425	37800	584.7	4.7
0.1414	425	41100	589.1	4.8
0.1414	425	44600	594.3	4.8
0.1414	425	51900	603.8	4.9
0.1414	425	54400	607.1	4.9
0.1414	425	58600	612.3	4.9
0.1414	500.9	12400	449.6	3.8
0.1414	500.9	13900	457.6	3.8
0.1414	500.9	20800	486.8	4
0.1414	500.9	24600	500.5	4.1
0.1414	500.9	27500	508.9	4.1
0.1414	500.9	31000	517.7	4.2
0.1414	500.9	37300	531.3	4.3
0.1414	500.9	37900	531.3	4.3
0.1414	500.9	41400	537.5	4.4
0.1414	500.9	44700	543.2	4.4
0.1414	500.9	44800	543.5	4.4
0.1414	500.9	47100	549	4.4
0.1414	500.9	48100	549	4.4
0.1414	500.9	51500	554.6	4.5
0.1414	500.9	54900	559.9	4.5
0.1414	500.9	58400	565.4	4.6
0.1414	500.9	61800	569.8	4.6
0.1414	500.9	64600	574	4.6
0.1414	584.6	29000	449.8	3.7
0.1414	584.6	31100	456.9	3.8
0.1414	584.6	34700	468.2	3.8
0.1414	584.6	37900	478	3.9
0.1414	584.6	41400	487.3	4
0.1414	584.6	44800	495.6	4
0.1414	584.6	45100	496.5	4
0.1414	584.6	48100	503.4	4.1
0.1414	584.6	51700	510.7	4.1
0.1414	584.6	55100	517.4	4.2
0.1414	584.6	58400	523.9	4.2
0.1414	584.6	61800	529	4.3
0.1414	584.6	64200	532.9	4.3
0.1414	584.6	67400	537.5	4.3
0.1414	295.6	55600	688.2	5.5
0.1414	295.6	58000	689.8	5.6
0.1414	295.6	61900	692.5	5.6
0.1414	295.6	66100	695.3	5.6
0.1414	295.6	66200	695.3	5.6
0.1414	324.6	44300	660.5	5.3
0.1414	324.6	47800	663.5	5.3
0.1414	324.6	51300	666.6	5.4
0.1414	324.6	55200	669.7	5.4
0.1414	324.6	58400	672.2	5.4
0.1414	324.6	62700	675.4	5.4
0.1414	324.6	66500	678.5	5.5
0.1414	425	61800	615.7	5
0.1414	425	63600	617.9	5
0.1414	425	66700	621	5
0.1414	500.9	67400	577.4	4.7
0.4466	295.3	500	592.6	4.8
0.4466	295.3	700	594.3	4.8
0.4466	295.3	1400	595.1	4.8
0.4466	295.3	2100	596.8	4.8
0.4466	295.3	2800	597.6	4.8
0.4466	295.3	3700	598.9	4.8
0.4466	295.3	4800	600.6	4.8
0.4466	295.3	6800	603.6	4.9
0.4466	295.3	10200	607.9	4.9
0.4466	295.3	16900	615.3	5
0.4466	295.3	24100	622.5	5
0.4466	295.3	30900	629	5.1
0.4466	295.3	38100	634.6	5.1
0.4466	295.3	44500	640.3	5.1
0.4466	295.3	51600	646.2	5.2
0.4466	295.3	58300	651.1	5.2
0.4466	295.3	63000	654.6	5.3
0.4466	295.3	66500	657.1	5.3
0.4466	324.4	900	560.3	4.5
0.4466	324.4	1400	561.7	4.5
0.4466	324.4	1900	562.5	4.6
0.4466	324.4	2100	563.2	4.6
0.4466	324.4	3400	565.5	4.6
0.4466	324.4	4900	568.9	4.6
0.4466	324.4	6800	571.9	4.6
0.4466	324.4	10200	577.8	4.7
0.4466	324.4	17200	588.5	4.7
0.4466	324.4	23800	597.6	4.8
0.4466	324.4	30700	606.1	4.9
0.4466	324.4	37800	614	4.9
0.4466	324.4	44700	620.3	5
0.4466	324.4	51400	626.2	5
0.4466	324.4	58300	631.8	5.1
0.4466	324.4	63700	636	5.1
0.4466	324.4	67500	638.9	5.1
0.4466	424.7	4800	433.6	3.8
0.4466	424.7	7200	448.4	3.9
0.4466	424.7	10700	467.6	3.9
0.4466	424.7	17400	492.5	4
0.4466	424.7	21000	502.4	4.1
0.4466	424.7	24300	511.5	4.2
0.4466	424.7	31000	525	4.3
0.4466	424.7	37800	537.6	4.3
0.4466	424.7	44700	548.4	4.4
0.4466	424.7	51500	558.4	4.5
0.4466	424.7	58300	567.4	4.6
0.4466	424.7	63900	573.9	4.6
0.4466	424.7	67500	578.1	4.7
0.4466	501	7900	293.3	3
0.4466	501	9700	331	6.7
0.4466	501	10100	330.6	3
0.4466	501	12600	363.8	3.5
0.4466	501	17200	401.7	3.5
0.4466	501	21900	428.7	3.6
0.4466	501	22000	433.3	3.6
0.4466	501	24000	436.5	3.6
0.4466	501	24400	440.8	3.7
0.4466	501	31200	463.6	3.8
0.4466	501	34600	473.3	3.9
0.4466	501	37900	482.2	3.9
0.4466	501	45000	497.7	4
0.4466	501	51600	509.9	4.1
0.4466	501	57900	519.9	4.2
0.4466	501	63200	527.6	4.3
0.4466	501	67200	533.2	4.3
0.606	295	1400	568	4.6
0.606	295	5200	574.6	4.6
0.606	295	6800	577	4.7
0.606	295	10300	582.2	4.7
0.606	295	17200	592	4.8
0.606	295	23900	600	4.8
0.606	295	30600	606.9	4.9
0.606	295	37500	613.5	4.9
0.606	295	44500	619.4	5
0.606	295	51100	624.9	5
0.606	295	57900	630	5.1
0.606	295	63100	634.3	5.1
0.606	295	66800	636.7	5.1
0.606	324.6	1300	533.2	4.4
0.606	324.6	1800	534.5	4.3
0.606	324.6	2500	536.2	4.4
0.606	324.6	3400	538.3	4.4
0.606	324.6	5300	542.5	4.4
0.606	324.6	6800	545.6	4.4
0.606	324.6	10300	552.4	4.5
0.606	324.6	17400	564.6	4.6
0.606	324.6	23900	573.8	4.6
0.606	324.6	30700	583.4	4.7
0.606	324.6	37900	592.4	4.8
0.606	324.6	44400	599.1	4.8
0.606	324.6	51400	606.4	4.9
0.606	324.6	58100	612.2	4.9
0.606	324.6	63000	616.2	5
0.606	324.6	67200	619.4	5
0.606	374.1	2800	465.7	3.9
0.606	374.1	2900	467	3.9
0.606	374.1	3800	471.2	3.9
0.606	374.1	5500	479	4
0.606	374.1	7300	486.2	4.1
0.606	374.1	10600	497.9	4.1
0.606	374.1	17400	515.3	4.2
0.606	374.1	24000	528.5	4.3
0.606	374.1	31000	540.7	4.4
0.606	374.1	37900	551.3	4.4
0.606	374.1	38000	551.7	4.5
0.606	374.1	44700	560.9	4.5
0.606	374.1	51300	569.2	4.6
0.606	374.1	58100	577.4	4.6
0.606	374.1	63300	583.4	4.7
0.606	374.1	66900	587.4	4.7
0.606	424	10100	427.5	3.7
0.606	424	17500	462.7	3.8
0.606	424	24300	484.2	4
0.606	424	30800	500.6	4.1
0.606	424	37900	514.3	4.2
0.606	424	44700	523.9	4.2
0.606	424	51400	534.9	4.3
0.606	424	58300	546	4.4
0.606	424	63000	551	4.4
0.606	424	66900	556	4.5
0.606	501	9200	230.6	4.7
0.606	501	10700	272.7	4.3
0.606	501	12400	306.1	3.4
0.606	501	17300	362	3.4
0.606	501	20700	386.4	3.4
0.606	501	25200	411.3	3.5
0.606	501	29000	429	3.6
0.606	501	31000	435.7	3.6
0.606	501	37900	455.7	3.7
0.606	501	44800	473.6	3.8
0.606	501	51400	485.9	3.9
0.606	501	58400	500	4
0.606	501	63000	506.6	4.1
0.606	501	67000	512.8	4.1
0.8985	295.6	1700	516.2	4.5
0.8985	295.6	1900	518.5	4.2
0.8985	295.6	2600	518.5	4.2
0.8985	295.6	3600	522.1	4.3
0.8985	295.6	4900	524.5	4.3
0.8985	295.6	7000	528.5	4.3
0.8985	295.6	8500	532.3	4.3
0.8985	295.6	10100	535.7	4.3
0.8985	295.6	10500	535.7	4.3
0.8985	295.6	13800	541.2	4.4
0.8985	295.6	16700	546.4	4.4
0.8985	295.6	17200	546.4	4.4
0.8985	295.6	23200	555.2	4.5
0.8985	295.6	29100	562.8	4.5
0.8985	295.6	34400	568.4	4.6
0.8985	295.6	38100	573.9	4.6
0.8985	295.6	41000	576.4	4.6
0.8985	295.6	44800	581.2	4.7
0.8985	295.6	48200	584.2	4.7
0.8985	295.6	51600	588	4.7
0.8985	295.6	54900	590.4	4.7
0.8985	295.6	58400	594.2	4.8
0.8985	295.6	61800	596.6	4.8
0.8985	295.6	67300	601.4	4.8
0.8985	325.5	2400	471.9	3.9
0.8985	325.5	2800	474.2	4
0.8985	325.5	3500	476.7	3.9
0.8985	325.5	4700	481.2	4
0.8985	325.5	6800	488.5	4
0.8985	325.5	10700	500.7	4.1
0.8985	325.5	13800	508.3	4.1
0.8985	325.5	16100	513.5	4.2
0.8985	325.5	20900	523.6	4.2
0.8985	325.5	27600	535.1	4.3
0.8985	325.5	34300	544.8	4.4
0.8985	325.5	41300	554.1	4.5
0.8985	325.5	48200	561.7	4.5
0.8985	325.5	51600	566.7	4.6
0.8985	325.5	55000	569.5	4.6
0.8985	325.5	58400	574.2	4.6
0.8985	325.5	61800	576.8	4.6
0.8985	325.5	64200	580.1	4.7
0.8985	325.5	67100	582.4	4.7
0.9003	294.9	1200	515.1	4.2
0.9003	294.9	1800	516.8	4.2
0.9003	294.9	2800	519	4.2
0.9003	294.9	3300	520.8	4.2
0.9003	294.9	4400	523.3	4.3
0.9003	294.9	10300	535.5	4.3
0.9003	294.9	17100	547.5	4.4
0.9003	294.9	24100	557.1	4.5
0.9003	294.9	30800	565.9	4.6
0.9003	294.9	37800	573.2	4.6
0.9003	294.9	44200	580.2	4.7
0.9003	294.9	51200	587.4	4.7
0.9003	294.9	55000	591.5	4.8
0.9003	294.9	58300	593.8	4.8
0.9003	294.9	67300	601.9	8.5
0.9003	325.1	2100	470.3	3.9
0.9003	325.1	2800	473.5	4.1
0.9003	325.1	3700	476.8	4
0.9003	325.1	7000	489.5	4
0.9003	325.1	10400	499.8	4.1
0.9003	325.1	16500	515.1	4.2
0.9003	325.1	24000	530.6	4.3
0.9003	325.1	30900	542.4	4.4
0.9003	325.1	37500	551.5	4.4
0.9003	325.1	44500	559.6	4.5
0.9003	325.1	51500	567.6	4.6
0.9003	325.1	58300	574.5	4.6
0.9003	325.1	63700	580.2	4.7
0.9003	325.1	67200	583.3	4.7
0.9003	370.2	5200	385.2	3.6
0.9003	370.2	5900	392.1	3.6
0.9003	370.2	7300	406	3.6
0.9003	370.2	10700	429.7	3.7
0.9003	370.2	14200	447.3	3.7
0.9003	370.2	17300	459.2	3.8
0.9003	370.2	20800	469.1	3.8
0.9003	370.2	24100	478.3	3.9
0.9003	370.2	31300	495.2	4
0.9003	370.2	38000	508.5	4.1
0.9003	370.2	44600	519.7	4.2
0.9003	370.2	46900	523.6	4.2
0.9003	370.2	48000	523.6	4.2
0.9003	370.2	50600	529.1	4.3
0.9003	370.2	51400	529.1	4.3
0.9003	370.2	57800	538.5	4.3
0.9003	370.2	61800	544.3	4.4
0.9003	370.2	67100	550.3	4.4
0.9003	423.6	16600	385.2	3.3
0.9003	423.6	17400	389.1	3.3
0.9003	423.6	20800	408.2	3.4
0.9003	423.6	24300	424	3.5
0.9003	423.6	31200	449.1	3.7
0.9003	423.6	37900	462.3	3.8
0.9003	423.6	44800	479.8	3.9
0.9003	423.6	51600	493	4
0.9003	423.6	58300	504.1	4.1
0.9003	423.6	59400	504.8	4.1
0.9003	423.6	63700	512.3	4.1
0.9003	423.6	67100	516.8	4.2
