Measured thermophysical data. Evaluation of Methanesulfonate-Based Deep Eutectic Solvent for Ammonia Sorption
Source: J. Chem. Eng. Data, 2018, 10.1021/acs.jced.7b01004
Compound 1: 1-butyl-3-methylimidazolium methanesulfonate, C9H18N2O3S, InChI=1S/C8H15N2.CH4O3S/c1-3-4-5-10-7-6-9(2)8-10;1-5(2,3)4/h6-8H,3-5H2,1-2H3;1H3,(H,2,3,4)/q+1;/p-1, purity 99.5%
Compound 2: ammonia, H3N, InChI=1S/H3N/h1H3, purity 99.99%
Compound 3: hydrogen sulfide, H2S, InChI=1S/H2S/h1H2, purity 99.99%
Compound 4: carbon dioxide, CO2, InChI=1S/CO2/c2-1-3, purity 99.99%
Compound 5: urea, CH4N2O, InChI=1S/CH4N2O/c2-1(3)4/h(H4,2,3,4), purity 99%

System: 1-butyl-3-methylimidazolium methanesulfonate + urea; phases: Liquid
Fixed: Pressure, kPa = 99.6
Fixed: Mole fraction of 1-butyl-3-methylimidazolium methanesulfonate = 0.5
Property: Mass density, kg/m3 (Liquid); method: Vibrating tube method
Temperature, K	Mass density, kg/m3	uncertainty
293.15	1202.2	1.2
303.15	1195.6	1.2
313.15	1189.2	1.2
323.15	1182.7	1.2
333.15	1176.3	1.2

System: 1-butyl-3-methylimidazolium methanesulfonate + urea; phases: Liquid
Fixed: Pressure, kPa = 99.6
Fixed: Mole fraction of 1-butyl-3-methylimidazolium methanesulfonate = 0.5
Property: Viscosity, Pa*s (Liquid); method: Concentric cylinders viscometry
Temperature, K	Viscosity, Pa*s	uncertainty
293.15	1.8929	0.0932
303.15	0.68669	0.02485
313.15	0.29572	0.00737
323.15	0.14585	0.00228
333.15	0.080406	0.000743

System: 1-butyl-3-methylimidazolium methanesulfonate + urea; phases: Liquid
Property: Refractive index (Na D-line) (Liquid); method: Standard Abbe refractometry
Temperature, K	Pressure, kPa	Mole fraction of 1-butyl-3-methylimidazolium methanesulfonate	Refractive index (Na D-line)	uncertainty
293.15	99.6	0.5	1.493	0.001

System: 1-butyl-3-methylimidazolium methanesulfonate + urea + carbon dioxide; phases: Liquid, Gas
Fixed: Solvent: Mole fraction of 1-butyl-3-methylimidazolium methanesulfonate = 0.5
Property: Molality, mol/kg of carbon dioxide (Liquid); method: phase equilibration
Temperature, K	Pressure, kPa	Molality, mol/kg of carbon dioxide	uncertainty
303.2	284.7	0.161	0.007
303.2	423.7	0.245	0.01
303.2	545	0.321	0.013
303.2	698.4	0.422	0.017
313.2	312.4	0.17	0.007
313.2	436.9	0.243	0.01
313.2	582.6	0.332	0.013
313.2	729.2	0.425	0.017
323.2	329.1	0.171	0.007
323.2	455.9	0.241	0.01
323.2	599.5	0.324	0.013
323.2	739.2	0.407	0.016
333.2	343.4	0.168	0.007
333.2	477.7	0.237	0.01
333.2	610.3	0.309	0.013
333.2	766.1	0.396	0.016

System: 1-butyl-3-methylimidazolium methanesulfonate + urea + hydrogen sulfide; phases: Liquid, Gas
Fixed: Solvent: Mole fraction of 1-butyl-3-methylimidazolium methanesulfonate = 0.5
Property: Molality, mol/kg of hydrogen sulfide (Liquid); method: phase equilibration
Temperature, K	Pressure, kPa	Molality, mol/kg of hydrogen sulfide	uncertainty
303.2	263.3	0.436	0.018
303.2	394.1	0.645	0.026
303.2	533	0.862	0.035
303.2	645	1.034	0.041
313.2	280.6	0.438	0.018
313.2	404.6	0.625	0.025
313.2	547.6	0.836	0.033
313.2	656.7	0.994	0.006
323.2	296.9	0.442	0.018
323.2	420.5	0.62	0.025
323.2	563.4	0.823	0.033
323.2	667.5	0.967	0.033
333.2	315.7	0.46	0.019
333.2	435.9	0.629	0.025
333.2	583.4	0.834	0.033
333.2	680.6	0.966	0.034

System: 1-butyl-3-methylimidazolium methanesulfonate + urea + ammonia; phases: Liquid, Gas
Fixed: Solvent: Mole fraction of 1-butyl-3-methylimidazolium methanesulfonate = 0.5
Property: Molality, mol/kg of ammonia (Liquid); method: phase equilibration
Temperature, K	Pressure, kPa	Molality, mol/kg of ammonia	uncertainty
303.2	123.6	0.894	0.037
303.2	211.2	1.65	0.067
303.2	291.4	2.458	0.099
303.2	432.6	4.256	0.172
313.2	172.6	1.049	0.043
313.2	245.6	1.565	0.063
313.2	349.4	2.395	0.097
313.2	525.8	4.15	0.167
323.2	231.8	1.129	0.046
323.2	275	1.366	0.055
323.2	415.6	2.211	0.089
323.2	597.6	3.507	0.141
333.2	301	1.144	0.046
333.2	361.2	1.4	0.056
333.2	470.8	1.895	0.076
333.2	658.9	2.843	0.114
