Measured thermophysical data. Behavior of Isobaric Heat Capacity of Pentafluoroethane in the Gas Phase
Source: J. Chem. Eng. Data, 2018, 10.1021/acs.jced.8b00310
Compound 1: pentafluoroethane, C2HF5, InChI=1S/C2HF5/c3-1(4)2(5,6)7/h1H, purity 99.9%

System: pentafluoroethane; phases: Gas
Property: Molar heat capacity at constant pressure, J/K/mol (Gas); method: Flow calorimetry
Temperature, K	Pressure, kPa	Molar heat capacity at constant pressure, J/K/mol	uncertainty
343.15	500	103.21836616	3.60064068
343.15	650	105.61879328	3.60064068
343.15	1000	108.259263112	2.40042712
303.15	1500	129.62306448	4.80085424
307.15	1500	123.62199668	1.680298984
311.15	1500	121.101548204	3.60064068
313.15	1500	121.581633628	2.40042712
343.15	1500	115.700587184	2.40042712
314.15	2000	147.62626788	6.0010678
315.15	2000	145.705926184	3.60064068
316.15	2000	145.345862116	3.60064068
317.15	2000	144.265669912	3.60064068
318.15	2000	143.42552042	6.0010678
319.15	2000	140.184943808	3.60064068
320.15	2000	138.384623468	6.0010678
321.15	2000	139.704858384	4.80085424
322.15	2000	135.62413228	3.60064068
343.15	2000	123.141911256	2.280405764
319.15	2200	158.548211276	3.60064068
320.15	2200	159.0282967	3.60064068
321.15	2200	156.987933648	2.40042712
323.15	2200	153.747357036	6.0010678
343.15	2200	128.302829564	2.40042712
323.15	2400	173.910944844	7.20128136
324.15	2400	168.0298984	5.280939664
325.15	2400	161.308702464	4.80085424
326.15	2400	159.0282967	7.20128136
327.15	2400	157.468019072	7.20128136
343.15	2400	134.42391872	2.280405764
