Measured thermophysical data. Excess Enthalpies in Binary Systems of Isomeric C8 Aliphatic Monoethers with Acetonitrile and Their Description by the COSMO-SAC Model
Source: J. Chem. Eng. Data, 2016, 10.1021/acs.jced.5b00838
Compound 1: acetonitrile, C2H3N, InChI=1S/C2H3N/c1-2-3/h1H3, purity 99.9%
Compound 2: dibutyl ether, C8H18O, InChI=1S/C8H18O/c1-3-5-7-9-8-6-4-2/h3-8H2,1-2H3, purity 99%
Compound 3: butyl isobutyl ether, C8H18O, InChI=1S/C8H18O/c1-4-5-6-9-7-8(2)3/h8H,4-7H2,1-3H3
Compound 4: 1-methoxyheptane, C8H18O, InChI=1S/C8H18O/c1-3-4-5-6-7-8-9-2/h3-8H2,1-2H3
Compound 5: 1-ethoxyhexane, C8H18O, InChI=1S/C8H18O/c1-3-5-6-7-8-9-4-2/h3-8H2,1-2H3
Compound 6: 1-propoxypentane, C8H18O, InChI=1S/C8H18O/c1-3-5-6-8-9-7-4-2/h3-8H2,1-2H3
Compound 7: 3-methyl-1-propoxybutane, C8H18O, InChI=1S/C8H18O/c1-4-6-9-7-5-8(2)3/h8H,4-7H2,1-3H3

System: acetonitrile; phases: Liquid
Fixed: Pressure, kPa = 101.325
Property: Mass density, kg/m3 (Liquid); method: Vibrating tube method
Temperature, K	Mass density, kg/m3	uncertainty
298.15	776.51	1.56
303.15	771.06	1.55
308.15	765.59	1.54
313.15	760.1	1.53
318.15	754.56	1.52
323.15	748.99	1.51

System: dibutyl ether; phases: Liquid
Fixed: Pressure, kPa = 101.325
Property: Mass density, kg/m3 (Liquid); method: Vibrating tube method
Temperature, K	Mass density, kg/m3	uncertainty
288.15	772.45	1.55
293.15	768.05	1.54
298.15	763.7	1.53
303.15	759.4	1.53
308.15	755	1.52
313.15	750.62	1.51
318.15	746.24	1.5
323.15	741.87	1.49

System: butyl isobutyl ether; phases: Liquid
Fixed: Pressure, kPa = 101.325
Property: Mass density, kg/m3 (Liquid); method: Vibrating tube method
Temperature, K	Mass density, kg/m3	uncertainty
288.15	764.07	1.55
293.15	759.72	1.54
298.15	755.31	1.53
303.15	750.87	1.52
308.15	746.45	1.51
313.15	741.98	1.5
318.15	737.58	1.49
323.15	732.99	1.49

System: 1-methoxyheptane; phases: Liquid
Fixed: Pressure, kPa = 101.325
Property: Mass density, kg/m3 (Liquid); method: Vibrating tube method
Temperature, K	Mass density, kg/m3	uncertainty
288.15	783.89	1.57
293.15	779.71	1.57
298.15	775.52	1.56
303.15	771.31	1.55
308.15	767.09	1.54
313.15	762.85	1.53
318.15	758.57	1.52
323.15	754.3	1.52

System: 1-ethoxyhexane; phases: Liquid
Fixed: Pressure, kPa = 101.325
Property: Mass density, kg/m3 (Liquid); method: Vibrating tube method
Temperature, K	Mass density, kg/m3	uncertainty
288.15	775.8	1.57
293.15	771.47	1.56
298.15	767.15	1.55
303.15	762.8	1.54
308.15	758.45	1.54
313.15	754.06	1.53
318.15	749.66	1.52
323.15	745.27	1.51

System: 1-propoxypentane; phases: Liquid
Fixed: Pressure, kPa = 101.325
Property: Mass density, kg/m3 (Liquid); method: Vibrating tube method
Temperature, K	Mass density, kg/m3	uncertainty
288.15	773.45	1.55
293.15	769.12	1.54
298.15	764.78	1.54
303.15	760.4	1.53
308.15	756.01	1.52
313.15	751.6	1.51
318.15	747.19	1.5
323.15	742.73	1.49

System: 3-methyl-1-propoxybutane; phases: Liquid
Fixed: Pressure, kPa = 101.325
Property: Mass density, kg/m3 (Liquid); method: Vibrating tube method
Temperature, K	Mass density, kg/m3	uncertainty
288.15	768.79	1.55
293.15	764.43	1.54
298.15	760.04	1.53
303.15	755.62	1.52
308.15	751.22	1.51
313.15	746.78	1.5
318.15	742.31	1.49
323.15	737.84	1.49

System: acetonitrile + dibutyl ether; phases: Liquid
Fixed: Pressure, kPa = 100
Property: Excess molar enthalpy (molar enthalpy of mixing), kJ/mol (Liquid); method: isothermal titration calorimetry
Temperature, K	Mole fraction of acetonitrile	Excess molar enthalpy (molar enthalpy of mixing), kJ/mol	uncertainty
298.15	0.0599	0.32463	0.0045
298.15	0.113	0.54873	0.0072
298.15	0.1604	0.71695	0.00924
298.15	0.2031	0.84682	0.01082
298.15	0.2416	0.94593	0.01202
298.15	0.3084	1.08583	0.01373
298.15	0.3644	1.171	0.01477
298.15	0.412	1.22295	0.0154
298.15	0.453	1.25084	0.01574
298.15	0.4886	1.26543	0.01592
298.15	0.5199	1.27071	0.01599
298.15	0.5476	1.26797	0.01595
298.15	0.5722	1.26033	0.01586
298.15	0.5944	1.24972	0.01573
298.15	0.6143	1.23779	0.01558
298.15	0.6367	1.21991	0.01537
298.15	0.6567	1.2005	0.01513
298.15	0.6745	1.18001	0.01488
298.15	0.6906	1.1593	0.01462
298.15	0.7052	1.13786	0.01436
298.15	0.7185	1.1168	0.0141
298.15	0.7306	1.09617	0.01385
298.15	0.7417	1.07569	0.0136
298.15	0.752	1.05565	0.01336
298.15	0.7615	1.03625	0.01313
298.15	0.7952	0.94289	0.01199
298.15	0.8161	0.88612	0.01129
298.15	0.8382	0.81991	0.01049
298.15	0.8615	0.7405	0.00952
298.15	0.8761	0.6848	0.00885
298.15	0.8911	0.62241	0.0081
298.15	0.9068	0.55226	0.00726
298.15	0.9229	0.47362	0.00632
298.15	0.9397	0.3853	0.00527
298.15	0.9512	0.31963	0.00452
298.15	0.9629	0.24869	0.00372
298.15	0.975	0.17176	0.00289
298.15	0.9873	0.08802	0.0021
308.15	0.0591	0.34304	0.00474
308.15	0.1116	0.58168	0.0076
308.15	0.1586	0.75853	0.00974
308.15	0.2008	0.89293	0.01138
308.15	0.239	0.99696	0.01264
308.15	0.3054	1.14446	0.01445
308.15	0.3612	1.2333	0.01553
308.15	0.4087	1.28727	0.01619
308.15	0.4496	1.31813	0.01657
308.15	0.4852	1.33374	0.01676
308.15	0.5164	1.33845	0.01682
308.15	0.5441	1.33561	0.01678
308.15	0.5688	1.32849	0.01669
308.15	0.591	1.31686	0.01655
308.15	0.611	1.30323	0.01638
308.15	0.6335	1.28386	0.01615
308.15	0.6535	1.26279	0.01589
308.15	0.6715	1.24081	0.01562
308.15	0.6877	1.21825	0.01535
308.15	0.7023	1.19555	0.01507
308.15	0.7157	1.17285	0.01485
308.15	0.7177	1.15952	0.01468
308.15	0.7279	1.15056	0.01452
308.15	0.7386	1.12038	0.01415
308.15	0.7391	1.1287	0.01425
308.15	0.7494	1.10713	0.01399
308.15	0.7589	1.08596	0.01379
308.15	0.7607	1.07342	0.01364
308.15	0.7842	1.01669	0.01289
308.15	0.8092	0.94789	0.01205
308.15	0.8358	0.86384	0.01102
308.15	0.8526	0.80431	0.0103
308.15	0.8701	0.73704	0.00949
308.15	0.8884	0.65993	0.00856
308.15	0.9074	0.57122	0.00749
308.15	0.9273	0.46886	0.00627
308.15	0.9551	0.30803	0.0044
308.15	0.9696	0.21512	0.00337
308.15	0.9846	0.11221	0.00232
308.15	0.941	0.39236	0.00537

System: acetonitrile + 1-propoxypentane; phases: Liquid
Fixed: Pressure, kPa = 100
Property: Excess molar enthalpy (molar enthalpy of mixing), kJ/mol (Liquid); method: isothermal titration calorimetry
Temperature, K	Mole fraction of acetonitrile	Excess molar enthalpy (molar enthalpy of mixing), kJ/mol	uncertainty
298.15	0.031	0.17169	0.00278
298.15	0.0602	0.32437	0.00453
298.15	0.0876	0.45088	0.00602
298.15	0.1135	0.55855	0.00732
298.15	0.1379	0.64982	0.00842
298.15	0.183	0.79956	0.01024
298.15	0.2236	0.91446	0.01164
298.15	0.2604	1.00267	0.01271
298.15	0.2938	1.07289	0.01357
298.15	0.3243	1.12774	0.01424
298.15	0.3781	1.20342	0.01516
298.15	0.424	1.24715	0.0157
298.15	0.4635	1.27183	0.016
298.15	0.5061	1.28332	0.01614
298.15	0.5424	1.28206	0.01612
298.15	0.5738	1.27264	0.01601
298.15	0.6011	1.25814	0.01583
298.15	0.6296	1.2365	0.01557
298.15	0.6542	1.21228	0.01527
298.15	0.6758	1.18642	0.01495
298.15	0.6979	1.15586	0.01458
298.15	0.7171	1.12537	0.01421
298.15	0.734	1.09586	0.01385
298.15	0.7491	1.06655	0.01349
298.15	0.7625	1.03866	0.01344
298.15	0.7644	1.01197	0.01312
298.15	0.7829	0.97118	0.01233
298.15	0.8022	0.92314	0.01174
298.15	0.8226	0.86689	0.01106
298.15	0.844	0.79998	0.01025
298.15	0.8666	0.72149	0.00929
298.15	0.8807	0.66662	0.00863
298.15	0.8953	0.60567	0.0079
298.15	0.9104	0.53726	0.00708
298.15	0.926	0.46011	0.00616
298.15	0.9421	0.37252	0.00513
298.15	0.9531	0.30984	0.0044
298.15	0.9644	0.24128	0.00363
298.15	0.976	0.16714	0.00285
298.15	0.9879	0.08664	0.00208
308.15	0.0305	0.1786	0.00287
308.15	0.0592	0.33438	0.00466
308.15	0.0863	0.46477	0.0062
308.15	0.1118	0.57472	0.00752
308.15	0.136	0.66987	0.00866
308.15	0.1806	0.82347	0.01053
308.15	0.2208	0.94172	0.01197
308.15	0.2572	1.03412	0.0131
308.15	0.2904	1.10702	0.01399
308.15	0.3207	1.16397	0.01468
308.15	0.3742	1.24421	0.01566
308.15	0.4199	1.29227	0.01625
308.15	0.4594	1.31979	0.01658
308.15	0.502	1.33271	0.01674
308.15	0.5383	1.33346	0.01675
308.15	0.5697	1.32483	0.01665
308.15	0.6022	1.30718	0.01643
308.15	0.6301	1.28477	0.01616
308.15	0.6543	1.25941	0.01585
308.15	0.6756	1.23277	0.01552
308.15	0.6944	1.20563	0.01519
308.15	0.7137	1.17391	0.01483
308.15	0.7173	1.15623	0.01459
308.15	0.7308	1.14256	0.01442
308.15	0.7382	1.11735	0.01411
308.15	0.7459	1.11201	0.01405
308.15	0.7595	1.08243	0.01369
308.15	0.7603	1.07068	0.01354
308.15	0.7838	1.01407	0.01285
308.15	0.8089	0.94553	0.01202
308.15	0.8355	0.86194	0.011
308.15	0.8524	0.80275	0.01028
308.15	0.8699	0.73517	0.00947
308.15	0.8882	0.65865	0.00854
308.15	0.9072	0.57041	0.00748
308.15	0.9271	0.46873	0.00627
308.15	0.9409	0.39236	0.00537
308.15	0.9695	0.21535	0.00337
308.15	0.9845	0.11285	0.00233
308.15	0.955	0.30818	0.0044

System: acetonitrile + 1-ethoxyhexane; phases: Liquid
Fixed: Pressure, kPa = 100
Property: Excess molar enthalpy (molar enthalpy of mixing), kJ/mol (Liquid); method: isothermal titration calorimetry
Temperature, K	Mole fraction of acetonitrile	Excess molar enthalpy (molar enthalpy of mixing), kJ/mol	uncertainty
298.15	0.0307	0.11727	0.00216
298.15	0.0596	0.25422	0.00369
298.15	0.0868	0.37123	0.00506
298.15	0.1125	0.4693	0.00623
298.15	0.1368	0.55401	0.00725
298.15	0.1816	0.69415	0.00895
298.15	0.222	0.8025	0.01027
298.15	0.2586	0.88687	0.0113
298.15	0.2919	0.95518	0.01213
298.15	0.3223	1.00929	0.01279
298.15	0.3759	1.08632	0.01373
298.15	0.4217	1.13404	0.01432
298.15	0.4612	1.16173	0.01465
298.15	0.5038	1.17914	0.01487
298.15	0.5401	1.18265	0.01491
298.15	0.5715	1.17914	0.01487
298.15	0.5988	1.16838	0.01473
298.15	0.6274	1.15078	0.01452
298.15	0.6521	1.1302	0.01427
298.15	0.6738	1.10832	0.014
298.15	0.6959	1.0814	0.01369
298.15	0.7006	1.06504	0.01347
298.15	0.7152	1.05183	0.01331
298.15	0.7222	1.03301	0.01308
298.15	0.7322	1.02454	0.01298
298.15	0.7452	0.99385	0.0126
298.15	0.7473	0.99804	0.01266
298.15	0.7608	0.97266	0.01235
298.15	0.7698	0.94575	0.01202
298.15	0.796	0.88661	0.0113
298.15	0.8241	0.8131	0.0104
298.15	0.8419	0.76041	0.00976
298.15	0.8604	0.69982	0.00903
298.15	0.8799	0.62984	0.00818
298.15	0.9002	0.54836	0.0072
298.15	0.9215	0.4531	0.00606
298.15	0.9514	0.30046	0.00427
298.15	0.9832	0.11064	0.00223
298.15	0.9362	0.38089	0.00521
298.15	0.967	0.2109	0.00327
308.15	0.0303	0.13921	0.00241
308.15	0.0588	0.28137	0.00401
308.15	0.0857	0.40137	0.00543
308.15	0.1111	0.50443	0.00666
308.15	0.1352	0.59374	0.00774
308.15	0.1795	0.74066	0.00952
308.15	0.2196	0.85471	0.01091
308.15	0.2559	0.94369	0.01199
308.15	0.2889	1.01434	0.01286
308.15	0.3192	1.07045	0.01354
308.15	0.3726	1.15067	0.01452
308.15	0.4182	1.19991	0.01512
308.15	0.4577	1.22878	0.01547
308.15	0.5002	1.24599	0.01568
308.15	0.5366	1.24945	0.01573
308.15	0.568	1.24366	0.01566
308.15	0.5954	1.2319	0.01551
308.15	0.6241	1.21304	0.01528
308.15	0.6489	1.19092	0.01501
308.15	0.6707	1.16711	0.01472
308.15	0.6929	1.13801	0.01436
308.15	0.7087	1.10659	0.01398
308.15	0.7123	1.10849	0.014
308.15	0.7294	1.07956	0.01365
308.15	0.73	1.07068	0.01354
308.15	0.7446	1.05108	0.0133
308.15	0.7526	1.02725	0.01301
308.15	0.7582	1.02339	0.01297
308.15	0.7767	0.97418	0.01237
308.15	0.8023	0.90943	0.01158
308.15	0.8297	0.83005	0.01061
308.15	0.847	0.77366	0.00993
308.15	0.8651	0.70932	0.00915
308.15	0.884	0.6355	0.00825
308.15	0.9037	0.55094	0.00724
308.15	0.9243	0.45319	0.00607
308.15	0.9385	0.38038	0.00521
308.15	0.9531	0.30025	0.00428
308.15	0.9683	0.2103	0.00328
308.15	0.9839	0.10985	0.00225

System: acetonitrile + butyl isobutyl ether; phases: Liquid
Fixed: Temperature, K = 298.15
Fixed: Pressure, kPa = 100
Property: Excess molar enthalpy (molar enthalpy of mixing), kJ/mol (Liquid); method: isothermal titration calorimetry
Mole fraction of acetonitrile	Excess molar enthalpy (molar enthalpy of mixing), kJ/mol	uncertainty
0.0314	0.19014	0.003
0.061	0.3509	0.00485
0.0887	0.48513	0.00644
0.1149	0.59968	0.00782
0.1396	0.69681	0.00899
0.1851	0.85387	0.0109
0.2261	0.97546	0.01238
0.2631	1.06816	0.01351
0.2967	1.14156	0.01441
0.3275	1.19666	0.01508
0.3815	1.26161	0.01587
0.4274	1.2976	0.01631
0.4671	1.31915	0.01657
0.5097	1.32533	0.01665
0.5459	1.3206	0.01659
0.5772	1.3005	0.01635
0.6045	1.28944	0.01621
0.6329	1.2613	0.01587
0.6575	1.23456	0.01554
0.6789	1.20918	0.01523
0.7009	1.17945	0.01487
0.7183	1.15242	0.01454
0.72	1.1504	0.01451
0.7368	1.12099	0.01416
0.7392	1.1155	0.01409
0.7517	1.091	0.01379
0.7613	1.06987	0.01353
0.765	1.06269	0.01344
0.7847	1.01458	0.01286
0.8097	0.94735	0.01204
0.8362	0.86562	0.01104
0.853	0.80706	0.01033
0.8705	0.74035	0.00953
0.8887	0.66236	0.00859
0.9077	0.57256	0.00751
0.9275	0.46886	0.00627
0.9411	0.39121	0.00536
0.9552	0.3054	0.00438
0.9697	0.21046	0.00333
0.9846	0.10572	0.00228

System: acetonitrile + 3-methyl-1-propoxybutane; phases: Liquid
Fixed: Pressure, kPa = 100
Property: Excess molar enthalpy (molar enthalpy of mixing), kJ/mol (Liquid); method: isothermal titration calorimetry
Temperature, K	Mole fraction of acetonitrile	Excess molar enthalpy (molar enthalpy of mixing), kJ/mol	uncertainty
298.15	0.0312	0.14623	0.00248
298.15	0.0606	0.29001	0.00412
298.15	0.0882	0.40827	0.00552
298.15	0.1142	0.50927	0.00673
298.15	0.1388	0.60164	0.00784
298.15	0.1841	0.74606	0.0096
298.15	0.2249	0.85404	0.01091
298.15	0.2618	0.93809	0.01194
298.15	0.3259	1.05982	0.01342
298.15	0.3798	1.1329	0.01431
298.15	0.4258	1.17383	0.01481
298.15	0.4654	1.19742	0.0151
298.15	0.5079	1.20775	0.01522
298.15	0.5442	1.20843	0.01523
298.15	0.5756	1.202	0.01515
298.15	0.6028	1.18892	0.01499
298.15	0.6559	1.14674	0.01447
298.15	0.6774	1.12373	0.01419
298.15	0.6994	1.09505	0.01384
298.15	0.7186	1.06533	0.01348
298.15	0.7355	1.03965	0.01316
298.15	0.7504	1.0096	0.0128
298.15	0.7638	0.98096	0.01245
308.15	0.0302	0.1729	0.00283
308.15	0.0586	0.33024	0.00462
308.15	0.0854	0.4599	0.00615
308.15	0.1107	0.5696	0.00746
308.15	0.1347	0.66235	0.00858
308.15	0.1789	0.81527	0.01044
308.15	0.2188	0.93275	0.01187
308.15	0.2551	1.02372	0.01298
308.15	0.2881	1.09495	0.01385
308.15	0.3183	1.14969	0.01452
308.15	0.3716	1.22635	0.01545
308.15	0.4172	1.27201	0.01601
308.15	0.4567	1.29745	0.01632
308.15	0.4992	1.30992	0.01647
308.15	0.5356	1.30891	0.01646
308.15	0.567	1.29938	0.01634
308.15	0.5944	1.28429	0.01616
308.15	0.6231	1.26169	0.01588
308.15	0.648	1.23636	0.01557
308.15	0.6698	1.20939	0.01524
308.15	0.692	1.17719	0.01485
308.15	0.7115	1.1453	0.0145
308.15	0.7146	1.12615	0.01427
308.15	0.7286	1.11373	0.01407
308.15	0.7356	1.08713	0.01374
308.15	0.7438	1.08301	0.01369
308.15	0.7574	1.05303	0.01333
308.15	0.7579	1.04154	0.01319
308.15	0.7816	0.9857	0.01251
308.15	0.8068	0.91802	0.01169
308.15	0.8337	0.83503	0.01068
308.15	0.8507	0.7765	0.00998
308.15	0.8684	0.70972	0.00919
308.15	0.8869	0.63368	0.02654
308.15	0.9061	0.54587	0.02837
308.15	0.9263	0.44561	0.03
308.15	0.9401	0.37056	0.03227
308.15	0.9544	0.28834	0.03403
308.15	0.9691	0.19815	0.03631
308.15	0.9843	0.09776	0.03754

System: acetonitrile + 1-methoxyheptane; phases: Liquid
Fixed: Pressure, kPa = 100
Property: Excess molar enthalpy (molar enthalpy of mixing), kJ/mol (Liquid); method: isothermal titration calorimetry
Temperature, K	Mole fraction of acetonitrile	Excess molar enthalpy (molar enthalpy of mixing), kJ/mol	uncertainty
298.15	0.0307	0.12193	0.00215
298.15	0.0595	0.23987	0.00349
298.15	0.0867	0.3416	0.00468
298.15	0.1123	0.42961	0.00574
298.15	0.1366	0.50645	0.00666
298.15	0.1813	0.6331	0.0082
298.15	0.2216	0.73039	0.00938
298.15	0.2582	0.81019	0.01036
298.15	0.2914	0.87309	0.01112
298.15	0.3218	0.92458	0.01175
298.15	0.3754	0.99951	0.01267
298.15	0.4212	1.04797	0.01326
298.15	0.4607	1.0778	0.01362
298.15	0.5033	1.09867	0.01388
298.15	0.5396	1.10662	0.01398
298.15	0.571	1.10642	0.01397
298.15	0.5983	1.09911	0.01388
298.15	0.6269	1.08572	0.01372
298.15	0.6517	1.06951	0.01352
298.15	0.6733	1.05071	0.01329
298.15	0.6955	1.02765	0.01301
298.15	0.7111	0.9994	0.01267
298.15	0.7148	1.00347	0.01272
298.15	0.7318	0.97957	0.01243
298.15	0.7322	0.96951	0.0123
298.15	0.7469	0.95596	0.01214
298.15	0.7547	0.93269	0.01185
298.15	0.7604	0.93289	0.01186
298.15	0.7786	0.88777	0.01131
298.15	0.8041	0.8324	0.01063
298.15	0.8313	0.76341	0.00979
298.15	0.8485	0.71393	0.00919
298.15	0.8664	0.65699	0.0085
298.15	0.8851	0.59086	0.0077
298.15	0.9047	0.51404	0.00678
298.15	0.9251	0.42412	0.00571
298.15	0.9391	0.35587	0.00491
298.15	0.9536	0.27954	0.00403
298.15	0.9686	0.19411	0.00308
298.15	0.9841	0.09814	0.00211
308.15	0.0304	0.13459	0.00229
308.15	0.059	0.25176	0.00363
308.15	0.0859	0.35359	0.00483
308.15	0.1114	0.44281	0.0059
308.15	0.1354	0.52139	0.00685
308.15	0.1799	0.65325	0.00845
308.15	0.22	0.75683	0.00971
308.15	0.2563	0.83994	0.01072
308.15	0.2894	0.90577	0.01152
308.15	0.3197	0.96009	0.01219
308.15	0.3732	1.03818	0.01314
308.15	0.4188	1.08867	0.01376
308.15	0.4583	1.1203	0.01414
308.15	0.5008	1.14199	0.01441
308.15	0.5372	1.15008	0.01451
308.15	0.5686	1.14907	0.01449
308.15	0.596	1.14155	0.0144
308.15	0.6246	1.12729	0.01423
308.15	0.6494	1.10988	0.01402
308.15	0.6712	1.0903	0.01378
308.15	0.6934	1.06591	0.01348
308.15	0.7111	1.06772	0.01358
308.15	0.7148	1.04092	0.01325
308.15	0.7318	1.03568	0.01311
308.15	0.7322	1.01572	0.01287
308.15	0.7469	0.9965	0.01263
308.15	0.7547	0.99059	0.01256
308.15	0.7604	0.96599	0.01227
308.15	0.7692	0.94835	0.01205
308.15	0.7954	0.88913	0.01132
308.15	0.8236	0.81549	0.01043
308.15	0.8414	0.76269	0.00979
308.15	0.86	0.70197	0.00905
308.15	0.8795	0.63181	0.0082
308.15	0.8999	0.55011	0.00722
308.15	0.9212	0.45458	0.00608
308.15	0.936	0.38216	0.00522
308.15	0.9512	0.30147	0.00429
308.15	0.9669	0.21163	0.00328
308.15	0.9832	0.11103	0.00223
