Measured thermophysical data. Speed-of-Sound Measurements and Derived Thermodynamic Properties of Liquid Isobutane
Source: J. Chem. Eng. Data, 2018, 10.1021/acs.jced.8b00202
Compound 1: 2-methylpropane, C4H10, InChI=1S/C4H10/c1-4(2)3/h4H,1-3H3

System: 2-methylpropane; phases: Liquid
Fixed: Frequency, MHz = 8
Property: Speed of sound, m/s (Liquid); method: Dual path-length method
Temperature, K	Pressure, kPa	Speed of sound, m/s	uncertainty
199.9892	409.395	1393.64	0.08
199.9894	599.705	1394.87	0.08
199.9893	1103.57	1398.12	0.08
199.9895	2104.34	1404.51	0.08
199.9895	3104.91	1410.84	0.09
199.9896	4105.68	1417.1	0.09
199.9893	5106.27	1423.3	0.09
199.989	6107.04	1429.43	0.09
199.9889	7107.79	1435.5	0.09
199.9889	8108.46	1441.51	0.09
199.9891	9109.12	1447.47	0.09
199.9893	10109.8	1453.36	0.09
199.9892	12611.5	1467.82	0.09
199.9891	15113.2	1481.96	0.09
199.9889	17615	1495.8	0.09
199.9889	20116.8	1509.31	0.09
199.9891	25120.3	1535.59	0.1
199.9888	30124.1	1560.85	0.1
199.9888	35127.5	1585.23	0.1
199.989	40130.9	1608.73	0.1
199.9892	45134.4	1631.48	0.11
199.9893	50137.8	1653.49	0.11
199.9891	60144.7	1695.78	0.12
199.9894	70151.7	1735.8	0.12
199.9905	80158.3	1773.84	0.13
199.9998	90165.7	1810.11	0.14
200.0005	100173	1844.91	0.14
220.0029	1103.16	1276.93	0.08
220.0029	2103.8	1284.26	0.08
220.003	3102.94	1291.51	0.08
220.0031	3104.43	1291.5	0.08
220.003	4105.15	1298.64	0.08
220.0033	5105.18	1305.69	0.08
220.0034	6105.99	1312.66	0.08
220.0031	7106.65	1319.54	0.08
220.0033	8107.32	1326.33	0.08
220.0033	9107.99	1333.04	0.08
220.0035	10108.7	1339.68	0.08
220.0029	10109.6	1339.68	0.08
220.0032	12610.4	1355.99	0.09
220.0036	15112.2	1371.76	0.09
220.0039	17614.1	1387.18	0.09
220.0038	20115.8	1402.2	0.09
220.0038	20115.9	1402.2	0.09
220.0028	20116.6	1402.21	0.09
220.004	25119.3	1431.23	0.09
220.0037	30122.8	1458.98	0.09
220.0031	30123.6	1458.98	0.09
220.0043	35126.3	1485.59	0.1
220.0034	40129.9	1511.18	0.1
220.0031	40130.6	1511.2	0.1
220.0034	45133.8	1535.85	0.1
220.0034	50137.3	1559.73	0.11
220.0037	60144.3	1605.15	0.11
220.0035	70151.3	1647.96	0.12
220.0038	80158.3	1688.49	0.12
220.004	90165.3	1727.05	0.13
220.0043	100172	1763.85	0.14
240.001	402.145	1153.03	0.08
239.9997	402.774	1153.03	0.08
239.9998	602.824	1154.75	0.08
239.9998	1103.62	1159.04	0.08
240.0013	2103.87	1167.5	0.08
239.9998	2104.32	1167.5	0.08
240	3104.94	1175.82	0.08
239.9997	4105.69	1184	0.08
239.9997	5106.26	1192.06	0.08
239.9995	6107.21	1199.99	0.08
239.9996	7107.99	1207.8	0.08
240.0015	8108.09	1215.51	0.08
239.9989	8109.32	1215.5	0.08
239.9992	9110.06	1223.09	0.08
239.9993	10110.8	1230.57	0.08
239.999	12612.6	1248.84	0.08
240.0022	15113.1	1266.49	0.08
239.9991	15114.3	1266.52	0.08
239.9994	17616.1	1283.66	0.08
239.9994	20117.8	1300.31	0.09
239.9995	25121.3	1332.26	0.09
240.0018	30123.5	1362.62	0.09
239.9997	30124.9	1362.63	0.09
239.9995	35128.4	1391.6	0.09
239.9994	40132	1419.31	0.1
239.9993	45135.4	1445.92	0.1
239.9993	50138.8	1471.53	0.1
239.9993	60145.7	1520.12	0.11
239.9995	70152.7	1565.65	0.11
239.9997	80159.6	1608.58	0.12
239.9997	90166.6	1649.26	0.13
239.9999	100174	1687.97	0.13
259.9952	402.725	1036.78	0.08
260.0032	405.474	1036.74	0.08
260.003	607.874	1038.79	0.08
260.0032	1106.38	1043.75	0.08
259.9955	2103.99	1053.64	0.08
260.0031	2107.11	1053.6	0.08
260.003	3107.75	1063.23	0.08
260.0034	4108.41	1072.67	0.08
260.0033	5109.08	1081.92	0.08
260.0038	6109.71	1090.98	0.08
260.003	7111.04	1099.89	0.08
259.9949	8108.13	1108.68	0.08
260.0034	8111.73	1108.64	0.08
260.0031	9112.38	1117.24	0.08
260.0033	10113	1125.7	0.08
260.0035	12614.7	1146.23	0.08
259.9949	15113	1166.01	0.08
260.0034	15116.4	1165.99	0.08
260.0036	17618.1	1185.04	0.08
260.0033	20119.7	1203.45	0.08
260.0032	25123.2	1238.56	0.08
259.9948	30123.3	1271.71	0.09
260.0032	30126.6	1271.68	0.09
260.0032	35130.1	1303.07	0.09
260.0029	40133.6	1332.96	0.09
260.0039	45136.7	1361.51	0.09
260.0038	50140.2	1388.89	0.1
260.0039	60147.1	1440.56	0.1
260.004	70154.1	1488.73	0.11
260.004	80161.2	1533.91	0.12
260.0041	90168.3	1576.63	0.12
260.0039	100175	1617.15	0.13
280.003	402.429	921.857	0.077
280.0034	602.22	924.249	0.076
280.0035	606.252	924.301	0.076
280.0033	1103.21	930.186	0.076
280.0032	2103.86	941.794	0.076
280.0033	3104.45	953.084	0.076
280.0034	4105.1	964.082	0.076
280.0036	5105.72	974.802	0.076
280.0035	6106.29	985.258	0.075
280.0034	7106.98	995.499	0.076
280.0037	8107.9	1005.49	0.07
280.0037	9108.6	1015.28	0.07
280.0027	10109.3	1024.93	0.08
280.0033	12611	1048.01	0.08
280.0034	15112.7	1070.13	0.08
280.0038	17614.4	1091.28	0.08
280.0033	20116.1	1111.62	0.08
280.0036	25119.4	1150.11	0.08
280.003	30122.9	1186.12	0.08
280.004	35126.4	1220.02	0.08
280.0043	40129.7	1252.1	0.09
280.0043	45133.3	1282.63	0.09
280.0043	50136.7	1311.76	0.09
280.0045	60143.7	1366.43	0.1
280.0045	70150.7	1417.14	0.1
280.0044	80157.6	1464.56	0.11
280.0043	90164.4	1509.1	0.12
280.0043	100171	1551.25	0.12
300.0049	601.971	809.823	0.076
300.0048	1103.09	817.035	0.076
299.9973	1103.42	817.08	0.076
300.0052	2103.88	831.017	0.076
299.9947	3104.56	844.544	0.075
299.9957	4105.32	857.548	0.075
299.9952	5106.01	870.136	0.074
299.9978	5106.34	870.124	0.074
299.9958	6106.49	882.338	0.074
299.9989	7107.46	894.168	0.074
299.9986	8108.12	905.68	0.074
299.9966	9108.67	916.91	0.074
299.9964	10109.3	927.826	0.074
299.9965	12611.1	954.014	0.074
299.9966	15112.8	978.777	0.075
299.9965	17614.5	1002.31	0.07
299.9965	20116.3	1024.76	0.08
299.9965	25119.7	1066.88	0.08
299.9955	25120.1	1066.88	0.08
299.9966	30123.1	1105.91	0.08
299.9964	35126.6	1142.38	0.08
299.9957	40130.6	1176.71	0.08
299.9955	45134.1	1209.19	0.09
299.9953	50137.5	1240.06	0.09
299.9953	60144.4	1297.71	0.1
299.9956	70151.4	1350.85	0.1
299.9951	80158.3	1400.29	0.11
299.9953	90165.2	1446.65	0.11
299.9951	100172	1490.39	0.12
320.002	1103.34	702.165	0.078
320.0007	1103.69	702.18	0.078
320.002	1105.9	702.158	0.078
320.002	2106.48	719.58	0.076
320.002	3107.11	736.107	0.075
320.0021	5106.25	766.908	0.073
320.0008	5106.52	766.924	0.073
320.0022	5108.33	766.899	0.073
320.0027	6108.33	781.335	0.073
320.0029	7108.99	795.231	0.072
320.0027	8109.75	808.636	0.072
320.0028	9110.44	821.595	0.072
320.0019	10109.3	834.147	0.072
320.0009	10109.6	834.156	0.072
320.0009	10109.6	834.158	0.072
320.0009	10109.6	834.155	0.072
320.006	12612.4	863.872	0.072
319.9957	15114.1	891.73	0.072
319.9956	17615.8	917.892	0.072
319.9954	20117.5	942.655	0.073
319.9953	25121	988.667	0.075
320.0015	30122.9	1030.84	0.08
319.9952	30124.5	1030.86	0.08
319.995	35128.1	1069.96	0.08
319.9949	40131.6	1106.52	0.08
319.9933	45135.1	1140.94	0.08
320.0016	50136.4	1173.48	0.09
320.0034	50138.6	1173.47	0.09
320.0035	60145.6	1233.99	0.09
320.0033	70152.6	1289.46	0.1
320.0028	80159.5	1340.85	0.1
320.0027	90166.6	1388.87	0.11
320.0027	100174	1434.04	0.12
340.0012	2104.02	604.55	0.08
340.0006	2104.18	604.632	0.08
340.0013	3104.76	625.77	0.078
340.0011	4105.5	645.516	0.076
340.0003	5106.01	664.099	0.074
340.0004	5106.03	664.098	0.074
340.0008	5106.21	664.038	0.074
340.0012	6106.73	681.524	0.072
340.0011	7107.52	698.119	0.072
340.0014	8108.31	713.936	0.071
340.0014	9109.08	729.07	0.07
340.0004	10109.4	743.63	0.07
340.0015	10109.8	743.591	0.07
340.0014	12611.6	777.604	0.07
340.0014	15113.4	808.909	0.07
340.001	17615.9	838.023	0.07
340.0012	20117.6	865.302	0.07
340.0012	25121.2	915.431	0.072
340.0006	30122.9	960.884	0.074
340.0011	30124.7	960.871	0.074
340.0011	35128.2	1002.64	0.07
340.0004	40129.7	1041.43	0.08
340.0011	40131.7	1041.42	0.08
340.0011	45135.2	1077.73	0.08
340.0007	50139.6	1111.95	0.08
340.0002	60146.7	1175.2	0.09
340.0004	70153.6	1232.86	0.09
340.0025	80159.3	1286.05	0.1
340.0027	90166.4	1335.6	0.11
340.0026	100173	1382.09	0.11
359.9961	2104.44	480.036	0.09
359.9958	3105.16	509.763	0.084
359.9961	4105.9	536.085	0.08
360.0013	5104.49	559.919	0.076
360.0024	5104.89	559.906	0.076
359.9962	6107.23	581.763	0.073
359.9957	7107.97	602.064	0.072
359.9961	8109.68	621.091	0.07
359.9964	9110.36	639.005	0.069
360.0023	10108.5	655.983	0.069
360.0024	10108.5	655.983	0.069
359.9963	10111	655.987	0.069
359.9967	12612.7	695.082	0.068
359.9969	15114.4	730.375	0.067
359.9968	17616.1	762.732	0.067
359.9968	20117.8	792.713	0.068
359.9967	25121.3	847.155	0.069
359.9966	30124.8	895.898	0.071
359.9965	35128.3	940.304	0.073
359.9963	40131.8	981.263	0.075
359.997	45135.2	1019.4	0.08
360.0027	50136.5	1055.19	0.08
360.003	50136.6	1055.18	0.08
359.9974	50138.5	1055.17	0.08
359.9971	60145.5	1121.01	0.08
359.9976	70152.4	1180.71	0.09
359.9977	80159.3	1235.59	0.1
359.9975	90166.2	1286.55	0.1
359.9979	100173	1334.25	0.11
379.998	3104.52	378.472	0.101
379.9981	3604.06	399.559	0.095
379.998	4105.17	418.485	0.089
379.9978	5105.82	451.633	0.081
379.9977	6106.48	480.42	0.076
379.9983	7107.17	506.126	0.073
379.9981	8107.82	529.515	0.07
380.0005	8109.55	529.517	0.07
380.0042	9107.54	551.097	0.069
379.9984	9107.91	551.063	0.069
379.9983	10108.5	571.152	0.067
380.0013	10110.8	571.161	0.067
380.0013	10110.9	571.156	0.067
380.0011	10110.9	571.161	0.067
379.9984	12610.3	616.323	0.066
379.9986	15112.1	656.145	0.065
380.0011	15114.4	656.153	0.065
379.9984	17613.9	692.042	0.065
380.005	20115.1	724.919	0.065
380.0052	20115.1	724.92	0.065
379.9986	20115.7	724.902	0.065
379.998	25119.5	783.755	0.066
380.0017	25121.3	783.746	0.066
379.9978	30123.1	835.784	0.068
379.9981	35126.6	882.757	0.07
379.9982	40130.3	925.806	0.072
379.9982	45133.8	965.685	0.074
380.0053	50135.5	1002.94	0.08
380.0054	50135.5	1002.94	0.08
379.9985	50137.4	1002.95	0.08
379.9985	60144.4	1071.17	0.08
379.9985	70152.5	1132.76	0.09
379.9989	80159.6	1189.17	0.09
379.9989	90166.7	1241.41	0.1
379.9989	100174	1290.2	0.11
399.9995	4606.13	309.144	0.102
399.9995	5106.4	334.246	0.092
399.9991	6107.17	375.601	0.081
399.9982	7108.08	409.756	0.075
399.9985	8108.8	439.33	0.071
399.9995	8109.32	439.326	0.071
399.9985	9109.5	465.689	0.068
399.9985	10110.2	489.633	0.066
399.9992	10110.9	489.633	0.066
399.9987	12612	541.93	0.063
399.9987	15113.8	586.714	0.062
399.9991	15114.4	586.717	0.062
399.9982	17615.6	626.338	0.062
399.9982	20117.4	662.123	0.062
399.9996	25122.2	725.354	0.063
399.9993	30125.6	780.545	0.065
399.9999	35129.1	829.947	0.067
399.9998	40132.5	874.936	0.069
399.9996	45135.9	916.424	0.072
399.9997	50139.3	955.046	0.074
399.9995	60146.2	1025.46	0.08
399.9999	70153.1	1088.74	0.08
399.9998	80160	1146.53	0.09
400.0001	90166.9	1199.91	0.1
399.9995	100174	1249.68	0.1

System: 2-methylpropane; phases: Gas
Fixed: Frequency, MHz = 8
Property: Speed of sound, m/s (Gas); method: Dual path-length method
Temperature, K	Pressure, kPa	Speed of sound, m/s	uncertainty
420	6107.41	266.659	0.095
419.9999	7108.43	314.011	0.083
420.0005	8109.22	351.949	0.076
420.0006	9109.98	384.267	0.071
420.0011	10110.7	412.724	0.069
420.0006	12613.4	472.839	0.065
420.0008	15115.2	522.73	0.063
420.0007	17617	566.035	0.063
420.0008	20118.7	604.636	0.063
420.0005	25122.2	671.989	0.064
420.0006	30125.7	730.104	0.066
420.0008	35129.2	781.726	0.068
420	40132.7	828.47	0.071
420.0001	45136.1	871.405	0.074
419.9999	50139.5	911.238	0.077
420.0001	60146.4	983.6	0.083
419.9999	70153.3	1048.39	0.09
419.9995	80160.2	1107.41	0.09
420	90167.2	1161.8	0.1
420.0001	100174	1212.41	0.11
