Measured thermophysical data. Liquid Liquid Phase Equilibria for the Ternary Water + Acetic Acid + 3,3-Dimethyl-2-butanone System at (298.15, 313.15 and 323.15) K
Source: J. Chem. Eng. Data, 2015, 10.1021/acs.jced.5b00370
Compound 1: acetic acid, C2H4O2, InChI=1S/C2H4O2/c1-2(3)4/h1H3,(H,3,4), purity 99.5%
Compound 2: 3,3-dimethyl-2-butanone, C6H12O, InChI=1S/C6H12O/c1-5(7)6(2,3)4/h1-4H3, purity 98%
Compound 3: water, H2O, InChI=1S/H2O/h1H2, purity 99.8%

System: acetic acid + 3,3-dimethyl-2-butanone + water; phases: Liquid mixture 1, Liquid mixture 2
Fixed: Pressure, kPa = 100
Property: Mass fraction of water (Liquid mixture 1); method: Chromatography
Property: Mass fraction of water (Liquid mixture 2); method: Chromatography
Property: Mass fraction of acetic acid (Liquid mixture 2); method: Chromatography
Temperature, K	Mass fraction of acetic acid	Mass fraction of water	uncertainty	Mass fraction of water	uncertainty	Mass fraction of acetic acid	uncertainty
298.15	0	0.9829	0.0171	0.0147	0.0147	0	
298.15	0.045	0.9334	0.0666	0.0359	0.0359	0.0287	
298.15	0.0744	0.9024	0.0864	0.0473	0.0473	0.049	
298.15	0.1289	0.8442	0.0863	0.0628	0.0628	0.0865	
298.15	0.2004	0.7621	0.091	0.0861	0.0626	0.1448	
298.15	0.2378	0.717	0.0939	0.1001	0.0633	0.1886	
298.15	0.2573	0.688	0.0938	0.1186	0.0664	0.2239	
298.15	0.2912	0.6485	0.1005	0.1373	0.0707	0.2538	
298.15	0.3169	0.6035	0.1007	0.1642	0.0733	0.2829	
298.15	0.3618	0.5325	0.1116	0.1972	0.0743	0.3286	
313.15	0	0.9841	0.0159	0.0173	0.0173	0	
313.15	0.0397	0.9429	0.0571	0.0379	0.0379	0.0241	
313.15	0.1015	0.8805	0.0843	0.0562	0.0562	0.0669	
313.15	0.1269	0.8548	0.0872	0.0783	0.0624	0.0897	
313.15	0.1807	0.7943	0.0897	0.0829	0.0623	0.1352	
313.15	0.1985	0.764	0.0904	0.0892	0.0605	0.153	
313.15	0.223	0.7337	0.0908	0.0958	0.0598	0.1815	
313.15	0.2442	0.7116	0.0978	0.1163	0.0641	0.2149	
313.15	0.3015	0.6452	0.1014	0.1171	0.074	0.2533	
313.15	0.3241	0.6	0.1051	0.1524	0.0685	0.2848	
313.15	0.3677	0.5257	0.1272	0.2043	0.0987	0.3168	
323.15	0	0.9851	0.0149	0.0194	0.0194	0	
323.15	0.0468	0.9369	0.0631	0.0464	0.0464	0.0268	
323.15	0.1105	0.8726	0.0862	0.069	0.0676	0.0706	
323.15	0.1419	0.841	0.0857	0.0782	0.0631	0.0957	
323.15	0.1526	0.8241	0.089	0.0873	0.0631	0.1066	
323.15	0.171	0.8004	0.092	0.0902	0.0632	0.1225	
323.15	0.2032	0.7658	0.0936	0.1091	0.0619	0.1495	
323.15	0.2559	0.6937	0.1074	0.1202	0.064	0.1987	
323.15	0.2897	0.6541	0.0948	0.1309	0.0682	0.2366	
323.15	0.3076	0.5997	0.109	0.1601	0.0659	0.2725	
323.15	0.3408	0.5358	0.1225	0.2102	0.0857	0.3095	

System: 3,3-dimethyl-2-butanone + water; phases: Liquid mixture 1, Liquid mixture 2
Fixed: Pressure, kPa = 100
Property: Mass fraction of water (Liquid mixture 1); method: Chromatography
Temperature, K	Mass fraction of water	uncertainty
298.15	0.9829	0.0171
313.15	0.9841	0.0159
323.15	0.9851	0.0149

System: 3,3-dimethyl-2-butanone + water; phases: Liquid mixture 2, Liquid mixture 1
Fixed: Pressure, kPa = 100
Property: Mass fraction of water (Liquid mixture 2); method: Chromatography
Temperature, K	Mass fraction of water	uncertainty
298.15	0.0147	0.0147
313.15	0.0173	0.0173
323.15	0.0194	0.0194
