Measured thermophysical data. Measurements of Infinite Dilution Activity Coefficients of Alkanols in the Ionic Liquid Tributylmethylammonium Methyl Sulfate Using HS-SPME/GC/FID
Source: J. Chem. Eng. Data, 2016, 10.1021/acs.jced.5b00919
Compound 1: N,N-dibutyl-N-methyl-1-butanaminium methyl sulfate, C14H33NO4S, InChI=1S/C13H30N.CH4O4S/c1-5-8-11-14(4,12-9-6-2)13-10-7-3;1-5-6(2,3)4/h5-13H2,1-4H3;1H3,(H,2,3,4)/q+1;/p-1, purity 95%
Compound 2: methanol, CH4O, InChI=1S/CH4O/c1-2/h2H,1H3, purity 99.68%
Compound 3: ethanol, C2H6O, InChI=1S/C2H6O/c1-2-3/h3H,2H2,1H3, purity 99.59%
Compound 4: propan-1-ol, C3H8O, InChI=1S/C3H8O/c1-2-3-4/h4H,2-3H2,1H3, purity 99.8%
Compound 5: butan-1-ol, C4H10O, InChI=1S/C4H10O/c1-2-3-4-5/h5H,2-4H2,1H3, purity 99.77%
Compound 6: butan-2-ol, C4H10O, InChI=1S/C4H10O/c1-3-4(2)5/h4-5H,3H2,1-2H3, purity 99.61%
Compound 7: 2-methylpropan-2-ol, C4H10O, InChI=1S/C4H10O/c1-4(2,3)5/h5H,1-3H3, purity 99.74%

System: methanol + N,N-dibutyl-N-methyl-1-butanaminium methyl sulfate; phases: Liquid
Fixed: Pressure, kPa = 101
Fixed: Mole fraction of methanol = 0
Property: Activity coefficient of methanol (Liquid); method: Chromatography
Temperature, K	Activity coefficient of methanol	uncertainty
338.15	0.16	0.03
348.15	0.15	0.03
358.15	0.14	0.03
368.15	0.13	0.03

System: ethanol + N,N-dibutyl-N-methyl-1-butanaminium methyl sulfate; phases: Liquid
Fixed: Pressure, kPa = 101
Fixed: Mole fraction of ethanol = 0
Property: Activity coefficient of ethanol (Liquid); method: Chromatography
Temperature, K	Activity coefficient of ethanol	uncertainty
338.15	0.24	0.03
348.15	0.2	0.03
358.15	0.19	0.03
368.15	0.17	0.03

System: propan-1-ol + N,N-dibutyl-N-methyl-1-butanaminium methyl sulfate; phases: Liquid
Fixed: Pressure, kPa = 101
Fixed: Mole fraction of propan-1-ol = 0
Property: Activity coefficient of propan-1-ol (Liquid); method: Chromatography
Temperature, K	Activity coefficient of propan-1-ol	uncertainty
338.15	0.29	0.03
348.15	0.24	0.03
358.15	0.21	0.03
368.15	0.18	0.03

System: butan-1-ol + N,N-dibutyl-N-methyl-1-butanaminium methyl sulfate; phases: Liquid
Fixed: Pressure, kPa = 101
Fixed: Mole fraction of butan-1-ol = 0
Property: Activity coefficient of butan-1-ol (Liquid); method: Chromatography
Temperature, K	Activity coefficient of butan-1-ol	uncertainty
338.15	0.4	0.03
348.15	0.31	0.03
358.15	0.25	0.03
368.15	0.22	0.03

System: butan-2-ol + N,N-dibutyl-N-methyl-1-butanaminium methyl sulfate; phases: Liquid
Fixed: Pressure, kPa = 101
Fixed: Mole fraction of butan-2-ol = 0
Property: Activity coefficient of butan-2-ol (Liquid); method: Chromatography
Temperature, K	Activity coefficient of butan-2-ol	uncertainty
338.15	0.38	0.03
348.15	0.29	0.03
358.15	0.24	0.03
368.15	0.2	0.03

System: 2-methylpropan-2-ol + N,N-dibutyl-N-methyl-1-butanaminium methyl sulfate; phases: Liquid
Fixed: Pressure, kPa = 101
Fixed: Mole fraction of 2-methylpropan-2-ol = 0
Property: Activity coefficient of 2-methylpropan-2-ol (Liquid); method: Chromatography
Temperature, K	Activity coefficient of 2-methylpropan-2-ol	uncertainty
338.15	0.32	0.03
348.15	0.28	0.03
358.15	0.25	0.03
368.15	0.23	0.03
