Measured thermophysical data. Investigation on Vapor-Liquid Equilibrium of (Argon + Methane) at the Temperature Range of (95 to 135) K
Source: J. Chem. Eng. Data, 2018, 10.1021/acs.jced.8b00280
Compound 1: methane, CH4, InChI=1S/CH4/h1H4, purity 99.999%
Compound 2: argon, Ar, InChI=1S/Ar, purity 99.999%

System: methane; phases: Liquid, Gas
Property: Vapor or sublimation pressure, kPa (Liquid); method: Closed cell (Static) method
Temperature, K	Vapor or sublimation pressure, kPa	uncertainty
94.93	19.65	1.28
99.97	34.27	1.28
104.84	55.54	1.29
109.87	87.16	1.3
119.94	190.62	1.33
124.92	267.36	1.39
129.89	364.9	1.47
134.87	486.82	1.55

System: argon; phases: Liquid, Gas
Property: Vapor or sublimation pressure, kPa (Liquid); method: Closed cell (Static) method
Temperature, K	Vapor or sublimation pressure, kPa	uncertainty
94.93	211.73	1.4
99.97	323	1.47
104.84	466.83	1.76
119.94	1209	2.45
124.92	1575.9	3.13
129.89	2015.8	3.69

System: methane + argon; phases: Liquid, Gas
Property: Vapor or sublimation pressure, kPa (Liquid); method: Closed cell (Static) method
Mole fraction of argon	Temperature, K	Vapor or sublimation pressure, kPa	uncertainty
0	94.93	19.65	1.28
0.5113	94.93	129.03	2.09
0.5914	94.93	141.66	1.99
0.6848	94.93	153.98	2.33
0.8094	94.93	181.73	2.45
0.8795	94.93	192.03	2.15
1	94.93	211.73	1.5
0	99.97	34.27	1.29
0.225	99.97	111.96	3.63
0.3141	99.97	139.52	3.29
0.4285	99.97	172.85	3.3
0.5105	99.97	198.13	2.9
0.5968	99.97	215.61	2.76
0.6661	99.97	234.71	2.91
0.8294	99.97	276.15	3.04
1	99.97	323	1.68
0	104.84	55.54	1.3
0.2247	104.84	157.68	4.91
0.3164	104.84	201.24	4.58
0.4272	104.84	242.46	4.57
0.5082	104.84	284.48	4.56
0.5908	104.84	310.12	3.79
0.6657	104.84	337.67	3.58
0.8255	104.84	396.35	4.19
1	104.84	466.83	2.1
0	109.87	87.16	1.32
0.2031	109.87	227.34	6.59
0.3599	109.87	313.54	5.86
0.4081	109.87	337.6	5.45
0.5268	109.87	405.2	5.59
0.5914	109.87	430.01	8.21
0	119.94	190.62	1.42
0.1949	119.94	426.83	11.16
0.3753	119.94	601.51	9.86
0.5258	119.94	745.88	10.3
0.5873	119.94	795.67	10.31
0.6142	119.94	825.35	8.24
0.6581	119.94	874.62	10.75
0.7787	119.94	995.98	10.1
1	119.94	1209	3.94
0	124.92	267.36	1.54
0.194	124.92	561.09	14.88
0.2458	124.92	622.16	12.84
0.3597	124.92	769.54	12.29
0.5453	124.92	984.97	7.17
0.5876	124.92	1032.18	16.27
0.7758	124.92	1266.73	13.82
1	124.92	1575.9	5.21
0	129.89	364.9	1.72
0.1928	129.89	690.98	13.04
0.2406	129.89	771.87	16.74
0.3478	129.89	952.15	16.47
0.5279	129.89	1241.76	16.42
0.5879	129.89	1328.37	14.39
0.6695	129.89	1437.98	16.62
0.7819	129.89	1635.9	18.27
1	129.89	2015.8	6.56
0	134.87	486.82	1.97
0.1913	134.87	879.53	20.64
0.2475	134.87	991.59	20.97
0.3389	134.87	1184.64	19.7
0.5218	134.87	1524.94	19.33
0.5896	134.87	1653.9	19.75

System: methane + argon; phases: Gas, Liquid
Property: Mole fraction of argon (Gas); method: Chromatography
Mole fraction of argon	Temperature, K	Mole fraction of argon	uncertainty
0	94.93	0	
0.5113	94.93	0.9143	0.0103
0.5914	94.93	0.9324	0.0102
0.6848	94.93	0.9467	0.0102
0.8094	94.93	0.9758	0.0102
0.8795	94.93	0.9826	0.0101
1	94.93	1	
0	99.97	0	
0.225	99.97	0.7521	0.0295
0.3141	99.97	0.8276	0.0117
0.4285	99.97	0.8739	0.0107
0.5105	99.97	0.9006	0.0104
0.5968	99.97	0.9222	0.0103
0.6661	99.97	0.9383	0.0102
0.8294	99.97	0.9694	0.0102
1	99.97	1	
0	104.84	0	
0.2247	104.84	0.7165	0.0292
0.3164	104.84	0.7966	0.0121
0.4272	104.84	0.8485	0.0111
0.5082	104.84	0.8848	0.0106
0.5908	104.84	0.9032	0.0103
0.6657	104.84	0.9212	0.0103
0.8255	104.84	0.9646	0.0103
1	104.84	1	
0	109.87	0	
0.2031	109.87	0.6759	0.0256
0.3599	109.87	0.8013	0.0126
0.4081	109.87	0.8259	0.0109
0.5268	109.87	0.8712	0.0107
0.5914	109.87	0.8905	0.0105
0	119.94	0	
0.1949	119.94	0.6152	0.0233
0.3753	119.94	0.7675	0.0123
0.5258	119.94	0.8429	0.0112
0.5873	119.94	0.8651	0.0113
0.6142	119.94	0.8952	0.0108
0.6581	119.94	0.8904	0.0105
0.7787	119.94	0.9406	0.0105
1	119.94	1	
0	124.92	0	
0.194	124.92	0.5828	0.0298
0.2458	124.92	0.6439	0.0137
0.3597	124.92	0.7341	0.0121
0.5453	124.92	0.8393	0.0111
0.5876	124.92	0.8517	0.0105
0.7758	124.92	0.9256	0.0106
1	124.92	1	
0	129.89	0	
0.1928	129.89	0.5379	0.0178
0.2406	129.89	0.6151	0.0142
0.3478	129.89	0.6953	0.0121
0.5279	129.89	0.8026	0.0118
0.5879	129.89	0.8365	0.0113
0.6695	129.89	0.8744	0.0109
0.7819	129.89	0.9203	0.0107
1	129.89	1	
0	134.87	0	
0.1913	134.87	0.5203	0.0268
0.2475	134.87	0.5861	0.0149
0.3389	134.87	0.6751	0.0128
0.5218	134.87	0.7956	0.0118
0.5896	134.87	0.8251	0.011
