Measured thermophysical data. Measurement and Correlation of Isobaric Vapor Liquid Equilibrium Data for Cyclopentyl Methyl Ether and Cyclopentanol
Source: J. Chem. Eng. Data, 2019, 10.1021/acs.jced.8b00855
Compound 1: methoxycyclopentane, C6H12O, InChI=1S/C6H12O/c1-7-6-4-2-3-5-6/h6H,2-5H2,1H3, purity 99.9%
Compound 2: cyclopentanol, C5H10O, InChI=1S/C5H10O/c6-5-3-1-2-4-5/h5-6H,1-4H2, purity 99%

System: methoxycyclopentane; phases: Liquid, Gas
Property: Boiling temperature at pressure P, K (Liquid); method: Ebulliometric method (Recirculating still)
Pressure, kPa	Boiling temperature at pressure P, K	uncertainty
72.04	368.2	1
78.83	371.2	1
85.94	373.4	1
89.82	375.4	1
101.39	379.2	1

System: methoxycyclopentane; phases: Liquid, Gas
Property: Vapor or sublimation pressure, kPa (Liquid); method: Ebulliometric method (Recirculating still)
Temperature, K	Vapor or sublimation pressure, kPa	uncertainty
367.9	71.5	2.39
370.6	77.95	2.46
373.6	85.5	2.6
375.1	89.69	2.87
379.3	101.79	2.88

System: cyclopentanol; phases: Liquid, Gas
Property: Boiling temperature at pressure P, K (Liquid); method: Ebulliometric method (Recirculating still)
Pressure, kPa	Boiling temperature at pressure P, K	uncertainty
71.47	403.4	1
78.36	406.2	1
85.5	408.6	1
89.49	409.4	1
102	413.6	1

System: cyclopentanol; phases: Liquid, Gas
Property: Vapor or sublimation pressure, kPa (Liquid); method: Ebulliometric method (Recirculating still)
Temperature, K	Vapor or sublimation pressure, kPa	uncertainty
403.4	71.5	2.69
405.8	77.95	2.81
408.4	85.5	2.94
409.8	89.69	3.28
413.4	101.79	3.37

System: methoxycyclopentane + cyclopentanol; phases: Liquid, Gas
Property: Boiling temperature at pressure P, K (Liquid); method: Ebulliometric method (Recirculating still)
Pressure, kPa	Mole fraction of methoxycyclopentane	Boiling temperature at pressure P, K	uncertainty
71.5	0	403.4	1
71.5	0.0777	387.8	3.9
71.5	0.1752	380.8	2.2
71.5	0.2597	376.2	1.5
71.5	0.3766	373	1.1
71.5	0.4794	372.8	1
71.5	0.581	371.2	1.1
71.5	0.6857	370.8	1
71.5	0.7999	370.4	1.1
71.5	0.899	368.8	1.1
71.5	1	367.9	1
77.95	0	405.8	1
77.95	0.0777	391	4
77.95	0.1752	382.6	2.2
77.95	0.2597	379.2	1.4
77.95	0.3766	375.6	1.1
77.95	0.4794	375.4	1
77.95	0.581	375	1
77.95	0.6857	373.6	1
77.95	0.7999	373.2	1.1
77.95	0.899	371.2	1.1
77.95	1	370.6	1
85.5	0	408.4	1
85.5	0.0777	394	3.8
85.5	0.1752	386.2	2.2
85.5	0.2597	382.2	1.5
85.5	0.3766	378.6	1.2
85.5	0.4794	378	1
85.5	0.581	377	1
85.5	0.6857	376.6	1
85.5	0.7999	376	1.1
85.5	0.899	374.4	1.1
85.5	1	373.6	1
89.69	0	409.8	1
89.69	0.0777	395.6	3.7
89.69	0.1752	388.2	2
89.69	0.2597	385.2	1.5
89.69	0.3766	380.6	1.3
89.69	0.4794	379.6	1
89.69	0.581	378.8	1
89.69	0.6857	378.2	1
89.69	0.7999	377.6	1.1
89.69	0.899	376	1.1
89.69	1	375.1	1
101.79	0	413.4	1
101.79	0.0777	398.4	3.6
101.79	0.1752	393	2
101.79	0.2597	388.2	1.5
101.79	0.3766	385	1.2
101.79	0.4794	383.6	1.1
101.79	0.581	383	1
101.79	0.6857	381.8	1
101.79	0.7999	381.4	1
101.79	0.899	380.4	1.1
101.79	1	379.3	1
