Measured thermophysical data. Twenty Years of Experimental Determinations of Thermophysical Properties with High Accuracy: Thermodynamics Laboratory, ESIQIE-IPN, Mexico
Source: J. Chem. Eng. Data, 2019, 10.1021/acs.jced.8b01027
Compound 1: carbon dioxide, CO2, InChI=1S/CO2/c2-1-3, purity 99.995%
Compound 2: propane, C3H8, InChI=1S/C3H8/c1-3-2/h3H2,1-2H3, purity 99.995%
Compound 3: 1-methyl-4-(1-methylethenyl)cyclohexene, C10H16, InChI=1S/C10H16/c1-8(2)10-6-4-9(3)5-7-10/h4,10H,1,5-7H2,2-3H3, purity 99.5%
Compound 4: octane, C8H18, InChI=1S/C8H18/c1-3-5-7-8-6-4-2/h3-8H2,1-2H3, purity 99.5%
Compound 5: dodecanoic acid, C12H24O2, InChI=1S/C12H24O2/c1-2-3-4-5-6-7-8-9-10-11-12(13)14/h2-11H2,1H3,(H,13,14), purity 98.7%
Compound 6: decan-1-ol, C10H22O, InChI=1S/C10H22O/c1-2-3-4-5-6-7-8-9-10-11/h11H,2-10H2,1H3, purity 99.4%

System: decan-1-ol; phases: Liquid
Property: Viscosity, Pa*s (Liquid); method: Capillary tube (Ostwald; Ubbelohde) method
Temperature, K	Pressure, kPa	Viscosity, Pa*s	uncertainty
298.15	2000	0.011254	0.000117
298.15	3990	0.011536	0.00012
298.15	6010	0.011791	0.000122
298.15	8010	0.012052	0.000125
298.15	10010	0.012347	0.000128
298.15	13010	0.012743	0.000132
298.15	16010	0.01316	0.000136
298.15	19010	0.013568	0.00014
298.15	22010	0.014007	0.000145
298.15	25000	0.014458	0.000149
298.15	28000	0.01489	0.000154
298.15	29990	0.015185	0.000157
303.15	1990	0.0088946	9.29e-05
303.15	4000	0.0091168	9.52e-05
303.15	5980	0.0093373	9.74e-05
303.15	8010	0.0095625	9.97e-05
303.15	10020	0.0097843	0.0001019
303.15	12980	0.010112	0.000105
303.15	15970	0.010442	0.000109
303.15	19020	0.010781	0.000112
303.15	22000	0.011111	0.000115
303.15	24980	0.011442	0.000119
303.15	27980	0.011774	0.000122
303.15	30010	0.011999	0.000124
313.15	2030	0.0062193	6.59e-05
313.15	4020	0.0063739	6.74e-05
313.15	6000	0.0065263	6.9e-05
313.15	7980	0.00668	7.1e-05
313.15	9980	0.006835	7.2e-05
313.15	12990	0.0070677	7.44e-05
313.15	15990	0.0072994	7.68e-05
313.15	18990	0.0075325	7.91e-05
313.15	22010	0.0077656	8.15e-05
313.15	25020	0.0079988	8.39e-05
313.15	28020	0.0082307	8.62e-05
313.15	29980	0.0083821	8.77e-05
323.15	2000	0.0047351	5.08e-05
323.15	4010	0.0048568	5.21e-05
323.15	6010	0.0049703	5.33e-05
323.15	8010	0.0050905	5.45e-05
323.15	9990	0.0052024	5.56e-05
323.15	13010	0.0053692	5.73e-05
323.15	16010	0.0055401	5.9e-05
323.15	19020	0.005726	6.1e-05
323.15	22020	0.0058922	6.26e-05
323.15	25010	0.0060725	6.44e-05
323.15	28000	0.0062472	6.61e-05
323.15	30010	0.0063727	6.74e-05

System: carbon dioxide + 1-methyl-4-(1-methylethenyl)cyclohexene; phases: Liquid, Gas
Property: Vapor or sublimation pressure, kPa (Liquid); method: Closed cell (Static) method
Mole fraction of carbon dioxide	Temperature, K	Vapor or sublimation pressure, kPa	uncertainty
0.1643	323.36	2190	30
0.2835	323.36	3180	60
0.347	323.36	4250	90
0.4286	323.36	5100	90
0.5339	323.36	6290	110
0.6046	323.36	7170	90
0.6878	323.36	8090	70
0.7546	323.36	8850	40
0.8975	323.36	9440	40
0.1401	348.29	2250	60
0.1877	348.29	3140	60
0.255	348.29	4120	80
0.3212	348.29	5160	120
0.367	348.29	6170	130
0.4278	348.29	7150	130
0.4955	348.29	8150	150
0.5522	348.29	9090	150
0.607	348.29	10060	140
0.6645	348.29	11150	130
0.7217	348.29	12190	100
0.7709	348.29	12970	80

System: carbon dioxide + 1-methyl-4-(1-methylethenyl)cyclohexene; phases: Gas, Liquid
Property: Mole fraction of carbon dioxide (Gas); method: Chromatography
Mole fraction of carbon dioxide	Temperature, K	Mole fraction of carbon dioxide	uncertainty
0.1643	323.36	0.9987	0.0001
0.2835	323.36	0.9989	0.0001
0.347	323.36	0.999	0.001
0.4286	323.36	0.9989	0.0001
0.5339	323.36	0.9986	0.0001
0.6046	323.36	0.9975	0.0002
0.6878	323.36	0.9948	0.0002
0.7546	323.36	0.9927	0.0003
0.8975	323.36	0.9831	0.0004
0.1401	348.29	0.9961	0.0001
0.1877	348.29	0.9967	0.0001
0.255	348.29	0.997	0.0001
0.3212	348.29	0.9968	0.0001
0.367	348.29	0.9965	0.0001
0.4278	348.29	0.9961	0.0001
0.4955	348.29	0.9957	0.0001
0.5522	348.29	0.9951	0.0002
0.607	348.29	0.9932	0.0007
0.6645	348.29	0.9848	0.0014
0.7217	348.29	0.969	0.0014
0.7709	348.29	0.9598	0.0012

System: propane + 1-methyl-4-(1-methylethenyl)cyclohexene; phases: Liquid, Gas
Fixed: Temperature, K = 413.53
Property: Vapor or sublimation pressure, kPa (Liquid); method: Closed cell (Static) method
Mole fraction of propane	Vapor or sublimation pressure, kPa	uncertainty
0.6995	3950	50
0.7551	4410	50
0.8065	4970	50
0.853	5420	40
0.8908	5730	30

System: propane + 1-methyl-4-(1-methylethenyl)cyclohexene; phases: Gas, Liquid
Fixed: Temperature, K = 413.53
Property: Mole fraction of propane (Gas); method: Chromatography
Mole fraction of propane	Mole fraction of propane	uncertainty
0.6995	0.9868	0.0003
0.7551	0.9853	0.0004
0.8065	0.9824	0.0005
0.853	0.9785	0.0006
0.8908	0.9728	0.0007

System: carbon dioxide + octane; phases: Liquid
Fixed: Mole fraction of octane = 0.1965
Property: Mass density, kg/m3 (Liquid); method: ISOCHOR
Temperature, K	Pressure, kPa	Mass density, kg/m3	uncertainty
313.05	8000	740.9	0.8
313.05	9000	750.1	0.8
313.05	10000	758.3	0.8
313.05	11000	765.4	0.8
313.05	12000	771.9	0.8
313.05	13000	777.9	0.8
313.05	14000	783.5	0.8
313.05	15000	788.7	0.8
313.05	16000	793.6	0.8
313.05	17000	798.2	0.8
313.05	18000	802.7	0.8
313.05	19170	807	0.8
313.05	20000	811.1	0.8
313.05	21000	815	0.8
313.05	22000	818.7	0.8
313.05	22990	822.2	0.8
313.05	24000	825.6	0.9
313.05	24550	827.5	0.9
322.96	9000	716.1	0.8
322.96	10000	724.1	0.8
322.96	11000	731.9	0.8
322.96	12000	739.1	0.8
322.96	13000	745.8	0.8
322.96	14000	752	0.8
322.96	15000	757.7	0.8
322.96	16000	763.1	0.79
322.96	17000	768.2	0.8
322.96	18000	772.9	0.8
322.96	19000	777.5	0.8
322.96	20000	781.8	0.8
322.96	21000	786	0.8
322.96	22000	789.9	0.8
322.96	22960	793.6	0.8
322.96	23960	797.3	0.8
332.84	16000	732.9	0.8
332.84	17000	739.2	0.8
332.84	18000	745.1	0.8
332.84	19000	750.6	0.8
332.84	20000	755.8	0.8
332.84	21020	760.8	0.8
332.84	22020	765.4	0.8
332.84	22980	769.7	0.8
332.84	23990	773.9	0.8
332.84	24790	777.1	0.8

System: dodecanoic acid + carbon dioxide; phases: Fluid (supercritical or subcritical phases), Crystal
Fixed: Temperature, K = 307.75
Property: Mole fraction of dodecanoic acid (Fluid (supercritical or subcritical phases)); method: Chromatography
Pressure, kPa	Mole fraction of dodecanoic acid	uncertainty
8790	0.0045	0.0001
9930	0.00496	0.00011
11340	0.00611	0.00014
13230	0.00705	0.00016
13640	0.00788	0.00018
14080	0.00856	0.0002
15320	0.0109	0.00025
19820	0.0149	0.00033
