Measured thermophysical data. Surface Tension of dl-Menthol:Octanoic Acid Eutectic Mixtures
Source: J. Chem. Eng. Data, 2019, 10.1021/acs.jced.9b00424
Compound 1: DL-menthol, C10H20O, InChI=1S/C10H20O/c1-7(2)9-5-4-8(3)6-10(9)11/h7-11H,4-6H2,1-3H3/t8-,9+,10-/m1/s1
Compound 2: octanoic acid, C8H16O2, InChI=1S/C8H16O2/c1-2-3-4-5-6-7-8(9)10/h2-7H2,1H3,(H,9,10)
Compound 3: water, H2O, InChI=1S/H2O/h1H2

System: DL-menthol; phases: Metastable liquid
Fixed: Pressure, kPa = 101
Property: Mass density, kg/m3 (Metastable liquid); method: Vibrating tube method
Temperature, K	Mass density, kg/m3	uncertainty
303.15	898.2	10.8
308.15	892.2	10.8
313.15	886.4	10.7
318.15	881	10.7
323.15	875.8	10.7
328.15	870.8	10.7
333.15	866.2	10.7
338.15	861.7	10.7
343.15	857.6	10.7
348.15	853.7	10.6
353.15	850	10.6

System: DL-menthol; phases: Metastable liquid
Fixed: Pressure, kPa = 100
Property: Viscosity, Pa*s (Metastable liquid); method: Concentric cylinders viscometry
Temperature, K	Viscosity, Pa*s	uncertainty
303.15	0.0339	0.0016
308.15	0.02319	0.0011
313.15	0.01644	0.00078
318.15	0.012	0.00057
323.15	0.009	0.00043
328.15	0.00692	0.00033
333.15	0.00543	0.00026
338.15	0.00434	0.00021
343.15	0.00353	0.00017
348.15	0.00292	0.00014
353.15	0.002446	0.000116

System: DL-menthol; phases: Metastable liquid, Gas
Property: Surface tension liquid-gas, N/m (Metastable liquid); method: Pendant drop shape
Temperature, K	Surface tension liquid-gas, N/m	uncertainty
303.79	0.02182	0.00306
308.76	0.02135	0.00306
314.03	0.02044	0.00305
318.76	0.01991	0.00305
323.45	0.01918	0.00305
328.55	0.01876	0.00304
333.09	0.01815	0.00304

System: octanoic acid; phases: Liquid
Fixed: Pressure, kPa = 101
Property: Mass density, kg/m3 (Liquid); method: Vibrating tube method
Temperature, K	Mass density, kg/m3	uncertainty
298.15	917.2	10
303.15	910.3	10
308.15	903.8	10
313.15	897.6	10
318.15	891.7	10
323.15	886.2	10
328.15	880.9	10
333.15	876	10
338.15	871.4	10
343.15	867.1	10
348.15	863	10
353.15	859.3	10

System: octanoic acid; phases: Liquid
Fixed: Pressure, kPa = 100
Property: Viscosity, Pa*s (Liquid); method: Concentric cylinders viscometry
Temperature, K	Viscosity, Pa*s	uncertainty
298.15	0.00517	0.00021
303.15	0.00454	0.00018
308.15	0.00401	0.00016
313.15	0.00359	0.00015
318.15	0.0032	0.00013
323.15	0.00288	0.00012
328.15	0.002609	0.000106
333.15	0.002372	9.6e-05
338.15	0.002166	8.8e-05
343.15	0.001985	8.1e-05
348.15	0.001826	7.4e-05
353.15	0.001683	6.8e-05

System: octanoic acid; phases: Liquid, Gas
Property: Surface tension liquid-gas, N/m (Liquid); method: Pendant drop shape
Temperature, K	Surface tension liquid-gas, N/m	uncertainty
297.82	0.03095	0.00302
302.68	0.03004	0.00302
308.49	0.02856	0.00302
312.93	0.02756	0.00302
317.8	0.02606	0.00301
322.15	0.02499	0.00301
327.39	0.02446	0.00301
331.72	0.02343	0.00301

System: DL-menthol + octanoic acid; phases: Liquid
Fixed: Pressure, kPa = 101
Property: Mass density, kg/m3 (Liquid); method: Vibrating tube method
Temperature, K	Mole fraction of DL-menthol	Mass density, kg/m3	uncertainty
303.15	1	898.2	10.8
308.15	1	892.2	10.8
313.15	1	886.4	10.7
318.15	1	881	10.7
323.15	1	875.8	10.7
328.15	1	870.8	10.7
333.15	1	866.2	10.7
338.15	1	861.7	10.7
343.15	1	857.6	10.7
348.15	1	853.7	10.6
353.15	1	850	10.6
298.15	0.75	909.3	10.3
303.15	0.75	902.7	10.3
308.15	0.75	896.6	10.3
313.15	0.75	890.6	10.3
318.15	0.75	885	10.3
323.15	0.75	879.5	10.3
328.15	0.75	874.4	10.3
333.15	0.75	869.4	10.3
338.15	0.75	864.6	10.3
343.15	0.75	860	10.3
348.15	0.75	855.7	10.3
353.15	0.75	851.6	10.3
298.15	0.667	910.3	10.2
303.15	0.667	903.7	10.2
308.15	0.667	897.6	10.2
313.15	0.667	891.7	10.2
318.15	0.667	886.1	10.2
323.15	0.667	880.9	10.2
328.15	0.667	875.9	10.2
333.15	0.667	871.2	10.2
338.15	0.667	866.7	10.2
343.15	0.667	862.6	10.2
348.15	0.667	858.7	10.2
353.15	0.667	855.1	10.2
298.15	0.5	912.3	10.1
303.15	0.5	905.7	10.1
308.15	0.5	899.5	10.1
313.15	0.5	893.5	10.1
318.15	0.5	887.9	10.1
323.15	0.5	882.6	10.1
328.15	0.5	877.6	10.1
333.15	0.5	872.9	10.1
338.15	0.5	868.4	10.1
343.15	0.5	864.3	10.1
348.15	0.5	860.4	10.1
353.15	0.5	856.7	10.1
298.15	0.333	914.1	10
303.15	0.333	907.4	10
308.15	0.333	901.1	10
313.15	0.333	895.1	10
318.15	0.333	889.4	10
323.15	0.333	884	10
328.15	0.333	878.9	10
333.15	0.333	874.1	10
338.15	0.333	869.6	10
343.15	0.333	865.4	10
348.15	0.333	861.5	10
353.15	0.333	857.9	10
298.15	0.25	914.7	10
303.15	0.25	908	10
308.15	0.25	901.7	10
313.15	0.25	895.6	10
318.15	0.25	889.9	10
323.15	0.25	884.6	10
328.15	0.25	879.5	10
333.15	0.25	874.7	10
338.15	0.25	870.1	10
343.15	0.25	865.9	10
348.15	0.25	862	10
353.15	0.25	858.3	10
298.15	0	917.2	10
303.15	0	910.3	10
308.15	0	903.8	10
313.15	0	897.6	10
318.15	0	891.7	10
323.15	0	886.2	10
328.15	0	880.9	10
333.15	0	876	10
338.15	0	871.4	10
343.15	0	867.1	10
348.15	0	863	10
353.15	0	859.3	10

System: DL-menthol + octanoic acid; phases: Liquid
Fixed: Pressure, kPa = 100
Property: Viscosity, Pa*s (Liquid); method: Concentric cylinders viscometry
Temperature, K	Mole fraction of DL-menthol	Viscosity, Pa*s	uncertainty
303.15	1	0.0339	0.0016
308.15	1	0.02319	0.0011
313.15	1	0.01644	0.00078
318.15	1	0.012	0.00057
323.15	1	0.009	0.00043
328.15	1	0.00692	0.00033
333.15	1	0.00543	0.00026
338.15	1	0.00434	0.00021
343.15	1	0.00353	0.00017
348.15	1	0.00292	0.00014
353.15	1	0.002446	0.000116
298.15	0.75	0.02082	0.00093
303.15	0.75	0.01546	0.00069
308.15	0.75	0.01194	0.00054
313.15	0.75	0.00942	0.00042
318.15	0.75	0.00753	0.00034
323.15	0.75	0.00612	0.00027
328.15	0.75	0.00505	0.00023
333.15	0.75	0.00422	0.00019
338.15	0.75	0.00356	0.00016
343.15	0.75	0.00304	0.00014
348.15	0.75	0.002635	0.000118
353.15	0.75	0.002324	0.000104
298.15	0.667	0.01771	0.00078
303.15	0.667	0.01365	0.0006
308.15	0.667	0.01073	0.00047
313.15	0.667	0.00862	0.00038
318.15	0.667	0.007	0.00031
323.15	0.667	0.00578	0.00026
328.15	0.667	0.00483	0.00021
333.15	0.667	0.00409	0.00018
338.15	0.667	0.00349	0.00015
343.15	0.667	0.00302	0.00013
348.15	0.667	0.002625	0.000116
353.15	0.667	0.002301	0.000102
298.15	0.5	0.01218	0.00052
303.15	0.5	0.00983	0.00042
308.15	0.5	0.00806	0.00035
313.15	0.5	0.00672	0.00029
318.15	0.5	0.00563	0.00024
323.15	0.5	0.00479	0.00021
328.15	0.5	0.00411	0.00018
333.15	0.5	0.00356	0.00015
338.15	0.5	0.00311	0.00013
343.15	0.5	0.002732	0.000117
348.15	0.5	0.002419	0.000104
353.15	0.5	0.002156	9.3e-05
298.15	0.333	0.00881	0.00037
303.15	0.333	0.00737	0.00031
308.15	0.333	0.00623	0.00026
313.15	0.333	0.00535	0.00022
318.15	0.333	0.0046	0.00019
323.15	0.333	0.004	0.00017
328.15	0.333	0.00351	0.00015
333.15	0.333	0.0031	0.00013
338.15	0.333	0.002753	0.000115
343.15	0.333	0.002461	0.000103
348.15	0.333	0.002212	9.3e-05
353.15	0.333	0.001996	8.4e-05
298.15	0.25	0.00761	0.00032
303.15	0.25	0.00646	0.00027
308.15	0.25	0.00554	0.00023
313.15	0.25	0.00481	0.0002
318.15	0.25	0.00418	0.00017
323.15	0.25	0.00368	0.00015
328.15	0.25	0.00325	0.00013
333.15	0.25	0.0029	0.00012
338.15	0.25	0.002595	0.000108
343.15	0.25	0.002336	9.7e-05
348.15	0.25	0.002113	8.8e-05
353.15	0.25	0.001921	8e-05
298.15	0	0.00517	0.00021
303.15	0	0.00454	0.00018
308.15	0	0.00401	0.00016
313.15	0	0.00359	0.00015
318.15	0	0.0032	0.00013
323.15	0	0.00288	0.00012
328.15	0	0.002609	0.000106
333.15	0	0.002372	9.6e-05
338.15	0	0.002166	8.8e-05
343.15	0	0.001985	8.1e-05
348.15	0	0.001826	7.4e-05
353.15	0	0.001683	6.8e-05

System: DL-menthol + octanoic acid; phases: Liquid, Gas
Property: Surface tension liquid-gas, N/m (Liquid); method: Pendant drop shape
Temperature, K	Mole fraction of DL-menthol	Surface tension liquid-gas, N/m	uncertainty
303.79	1	0.02182	0.00306
308.76	1	0.02135	0.00306
314.03	1	0.02044	0.00305
318.76	1	0.01991	0.00305
323.45	1	0.01918	0.00305
328.55	1	0.01876	0.00304
333.09	1	0.01815	0.00304
298.2	0.75	0.02377	0.00305
303.88	0.75	0.023	0.00304
308.78	0.75	0.02227	0.00304
314.39	0.75	0.02181	0.00304
318.9	0.75	0.02115	0.00304
323.61	0.75	0.02072	0.00304
328.11	0.75	0.02022	0.00303
332.7	0.75	0.01965	0.00303
298.24	0.667	0.02094	0.00303
303.77	0.667	0.02053	0.00303
308.75	0.667	0.02024	0.00303
314.26	0.667	0.01994	0.00303
318.81	0.667	0.0197	0.00303
323.52	0.667	0.01952	0.00303
328.48	0.667	0.01919	0.00303
333.27	0.667	0.01898	0.00303
298.11	0.5	0.02667	0.00304
303.04	0.5	0.02567	0.00304
307.73	0.5	0.02467	0.00303
313.35	0.5	0.02358	0.00303
318.12	0.5	0.02274	0.00303
322.97	0.5	0.02175	0.00303
328.35	0.5	0.02044	0.00302
332.97	0.5	0.01947	0.00302
298	0.333	0.02572	0.00303
303.69	0.333	0.02484	0.00302
308.53	0.333	0.02425	0.00302
313.17	0.333	0.0239	0.00302
318.42	0.333	0.02336	0.00302
322.96	0.333	0.02293	0.00302
328.41	0.333	0.02247	0.00302
332.78	0.333	0.02179	0.00302
298.16	0.25	0.02332	0.00302
303.85	0.25	0.02225	0.00302
308.73	0.25	0.02165	0.00302
314.11	0.25	0.02116	0.00302
318.88	0.25	0.02056	0.00301
323.58	0.25	0.0201	0.00301
328.93	0.25	0.01973	0.00301
333.38	0.25	0.01941	0.00301
297.82	0	0.03095	0.00302
302.68	0	0.03004	0.00302
308.49	0	0.02856	0.00302
312.93	0	0.02756	0.00302
317.8	0	0.02606	0.00301
322.15	0	0.02499	0.00301
327.39	0	0.02446	0.00301
331.72	0	0.02343	0.00301

System: DL-menthol + octanoic acid + water; phases: Liquid, Gas
Fixed: Solvent: Amount ratio of component to other component of binary solvent of DL-menthol = 1
Fixed: Temperature, K = 298.15
Property: Surface tension liquid-gas, N/m (Liquid); method: Pendant drop shape
Mass fraction of water	Surface tension liquid-gas, N/m	uncertainty
0.0003634	0.02669	0.00046
0.0010219	0.02519	0.00044
0.0017678	0.02296	0.00041
0.0041091	0.02148	0.00039
0.0065528	0.02234	0.0004
0.0087513	0.02466	0.00043
0.010659	0.02533	0.00044
0.0132421	0.02557	0.00044
