Measured thermophysical data. Lanthanum and Cerium Separation Using an Aqueous Two-Phase System with Ionic Liquid
Source: J. Chem. Eng. Data, 2019, 10.1021/acs.jced.9b00293
Compound 1: 1-ethyl-3-methylimidazolium chloride, C6H11ClN2, InChI=1S/C6H11N2.ClH/c1-3-8-5-4-7(2)6-8;/h4-6H,3H2,1-2H3;1H/q+1;/p-1
Compound 2: potassium carbonate, CK2O3, InChI=1S/CH2O3.2K/c2-1(3)4;;/h(H2,2,3,4);;/q;2*+1/p-2
Compound 3: dipotassium hydrogen phosphate, HK2O4P, InChI=1S/2K.H3O4P/c;;1-5(2,3)4/h;;(H3,1,2,3,4)/q2*+1;/p-2
Compound 4: water, H2O, InChI=1S/H2O/h1H2, purity 99.9%

System: 1-ethyl-3-methylimidazolium chloride + potassium carbonate + water; phases: Liquid mixture 1, Liquid mixture 2
Fixed: Pressure, kPa = 100
Property: Mass fraction of potassium carbonate (Liquid mixture 1); method: Titration method
Temperature, K	Mass fraction of 1-ethyl-3-methylimidazolium chloride	Mass fraction of potassium carbonate	uncertainty
283	0.0094	0.4925	0.0516
283	0.0182	0.4739	0.0936
283	0.0243	0.4224	0.0729
283	0.0301	0.3923	0.0771
283	0.0357	0.3732	0.0741
283	0.0413	0.3591	0.0716
283	0.0464	0.3461	0.0546
283	0.0516	0.3368	0.0473
283	0.0566	0.328	0.0424
283	0.0612	0.3197	0.0415
283	0.0657	0.3118	0.0388
283	0.0705	0.3066	0.0362
283	0.0745	0.2993	0.0335
283	0.079	0.2945	0.0328
283	0.0833	0.2899	0.0316
283	0.0875	0.2855	0.0305
283	0.0915	0.2811	0.0305
283	0.1	0.2747	0.0288
283	0.1037	0.2707	0.0287
283	0.1073	0.2668	0.0288
283	0.1108	0.263	0.0282
283	0.1143	0.2593	0.028
283	0.1176	0.2558	0.0278
283	0.1247	0.2505	0.0281
283	0.1278	0.2471	0.028
283	0.1345	0.2422	0.0271
283	0.1374	0.239	0.0275
283	0.1437	0.2344	0.0291
283	0.1463	0.2315	0.0274
283	0.1489	0.2286	0.0274
283	0.2335	0.1406	0.0284
283	0.2404	0.1359	0.0238
283	0.2505	0.1279	0.0275
283	0.2554	0.1258	0.0241
283	0.2604	0.1235	0.0241
283	0.269	0.1178	0.0239
283	0.2781	0.1116	0.0234
283	0.2879	0.105	0.0237
283	0.2943	0.102	0.0234
283	0.3011	0.0989	0.023
283	0.3126	0.0913	0.0226
283	0.3202	0.0876	0.0226
283	0.3283	0.0838	0.0226
283	0.3367	0.0799	0.0218
283	0.3456	0.0757	0.0218
283	0.355	0.0712	0.0218
283	0.369	0.0673	0.0213
283	0.3797	0.0623	0.021
283	0.3958	0.0578	0.021
283	0.4133	0.0528	0.0208
283	0.4325	0.0473	0.0208
283	0.4535	0.0414	0.0206
283	0.4838	0.0353	0.0204
283	0.5183	0.0284	0.0204
283	0.5582	0.0204	0.0204
298	0.0186	0.4857	0.0773
298	0.0254	0.4413	0.0775
298	0.0313	0.4086	0.0662
298	0.0375	0.3918	0.0507
298	0.0433	0.3763	0.0677
298	0.049	0.3654	0.0535
298	0.0539	0.3519	0.046
298	0.0595	0.3453	0.0406
298	0.0644	0.3361	0.0374
298	0.0696	0.3301	0.0357
298	0.0739	0.3217	0.0336
298	0.0787	0.3162	0.0345
298	0.0834	0.3109	0.034
298	0.0879	0.3057	0.0328
298	0.0922	0.3008	0.0328
298	0.0964	0.2959	0.0318
298	0.0997	0.2891	0.0318
298	0.1036	0.2847	0.0321
298	0.1074	0.2804	0.0309
298	0.1111	0.2762	0.0309
298	0.1182	0.2682	0.0309
298	0.1215	0.2644	0.03
298	0.1248	0.2606	0.03
298	0.132	0.2551	0.0291
298	0.135	0.2517	0.0294
298	0.1379	0.2483	0.0297
298	0.1408	0.245	0.0296
298	0.1436	0.2418	0.0299
298	0.1463	0.2387	0.0287
298	0.1524	0.2341	0.0288
298	0.155	0.2311	0.0288
298	0.1574	0.2283	0.0284
298	0.1598	0.2255	0.0282
298	0.1622	0.2228	0.029
298	0.1676	0.2188	0.0279
298	0.1729	0.2149	0.0279
298	0.175	0.2124	0.0282
298	0.1799	0.2087	0.0279
298	0.1819	0.2064	0.0279
298	0.1866	0.203	0.0281
298	0.1884	0.2008	0.0284
298	0.1929	0.1975	0.0288
298	0.1946	0.1954	0.0282
298	0.1963	0.1933	0.0273
298	0.1979	0.1913	0.0272
298	0.2021	0.1884	0.0309
298	0.1556	0.2271	0.0299
298	0.1658	0.2178	0.0291
298	0.176	0.2087	0.0279
298	0.186	0.2002	0.0283
298	0.1972	0.1906	0.0271
298	0.2139	0.1756	0.0295
298	0.2264	0.1652	0.0268
298	0.2405	0.1536	0.0245
298	0.2535	0.1434	0.0245
298	0.2702	0.1331	0.0243
298	0.283	0.1239	0.024
298	0.2971	0.1138	0.024
298	0.3083	0.1069	0.0238
298	0.3203	0.0994	0.023
298	0.3334	0.0912	0.0231
298	0.3421	0.0874	0.0227
298	0.357	0.0782	0.0225
298	0.367	0.0737	0.0225
298	0.3776	0.0689	0.022
298	0.3888	0.0638	0.0216
298	0.4007	0.0585	0.0217
298	0.4187	0.0535	0.0213
298	0.4325	0.0473	0.021
298	0.4535	0.0414	0.0202
298	0.5582	0.0204	0.0203
313	0.0186	0.4857	0.0696
313	0.0266	0.4621	0.0721
313	0.0327	0.4264	0.0579
313	0.0395	0.4124	0.0657
313	0.0454	0.3953	0.0621
313	0.0509	0.3795	0.0599
313	0.0559	0.365	0.0481
313	0.0612	0.3547	0.0448
313	0.0667	0.348	0.043
313	0.0714	0.3387	0.0411
313	0.0758	0.3298	0.0403
313	0.0807	0.324	0.0373
313	0.09	0.313	0.0357
313	0.0936	0.3054	0.0344
313	0.0979	0.3005	0.0331
313	0.102	0.2957	0.0331
313	0.1059	0.291	0.0321
313	0.1135	0.2821	0.032
313	0.1171	0.2779	0.0309
313	0.1206	0.2738	0.0301
313	0.124	0.2698	0.03
313	0.1314	0.2639	0.0295
313	0.1346	0.2602	0.0291
313	0.1376	0.2566	0.0285
313	0.1444	0.2513	0.0277
313	0.1472	0.2479	0.0277
313	0.15	0.2446	0.0276
313	0.1562	0.2398	0.0275
313	0.1621	0.2351	0.0312
313	0.1679	0.2306	0.0317
313	0.1734	0.2263	0.0316
313	0.1756	0.2236	0.0315
313	0.1808	0.2195	0.0321
313	0.2195	0.1642	0.0304
313	0.2256	0.1605	0.0306
313	0.232	0.1566	0.0297
313	0.2387	0.1524	0.029
313	0.2459	0.148	0.0245
313	0.2565	0.1404	0.0244
313	0.268	0.132	0.0243
313	0.277	0.1264	0.0242
313	0.2867	0.1203	0.0241
313	0.2971	0.1138	0.0231
313	0.3083	0.1069	0.0231
313	0.3157	0.1037	0.0231
313	0.3235	0.1003	0.0228
313	0.3368	0.0922	0.0223
313	0.3457	0.0883	0.0223
313	0.3551	0.0842	0.0223
313	0.365	0.0799	0.0215
313	0.3755	0.0754	0.0215
313	0.3912	0.0714	0.0215
313	0.4161	0.0607	0.0211
313	0.4355	0.0556	0.0211
313	0.4568	0.05	0.0207
313	0.4803	0.0438	0.0205
313	0.5144	0.0375	0.0205
313	0.5444	0.0298	0.0207

System: 1-ethyl-3-methylimidazolium chloride + dipotassium hydrogen phosphate + water; phases: Liquid mixture 1, Liquid mixture 2
Fixed: Pressure, kPa = 100
Property: Mass fraction of dipotassium hydrogen phosphate (Liquid mixture 1); method: Titration method
Temperature, K	Mass fraction of 1-ethyl-3-methylimidazolium chloride	Mass fraction of dipotassium hydrogen phosphate	uncertainty
283	0.0392	0.3754	0.0535
283	0.0465	0.3563	0.0495
283	0.0531	0.339	0.0456
283	0.0591	0.3233	0.0418
283	0.0652	0.3124	0.0465
283	0.071	0.3022	0.0444
283	0.0764	0.2926	0.0407
283	0.0814	0.2836	0.0374
283	0.087	0.2778	0.036
283	0.0915	0.2697	0.0359
283	0.0966	0.2644	0.0344
283	0.1007	0.2571	0.0361
283	0.1054	0.2523	0.0336
283	0.1099	0.2477	0.0338
283	0.1133	0.2412	0.0336
283	0.1176	0.237	0.0336
283	0.3059	0.0648	0.022
283	0.3117	0.0616	0.022
283	0.3204	0.0588	0.0219
283	0.3269	0.0554	0.022
283	0.3336	0.0518	0.0217
283	0.3436	0.0485	0.0216
283	0.351	0.0446	0.0215
283	0.362	0.0409	0.0211
283	0.3739	0.0369	0.0208
283	0.3904	0.0331	0.0205
283	0.4085	0.0288	0.0205
283	0.4331	0.0245	0.0203
283	0.4609	0.0195	0.0195
283	0.5121	0.0145	0.0145
283	0.6545	0.0092	0.0092
298	0.5811	0.0053	0.0053
298	0.5457	0.0083	0.0083
298	0.5097	0.0124	0.0124
298	0.4782	0.016	0.016
298	0.4468	0.0203	0.0203
298	0.4041	0.0294	0.0211
298	0.3907	0.0385	0.0211
298	0.3853	0.0405	0.0212
298	0.3793	0.0427	0.0221
298	0.3736	0.0449	0.0221
298	0.3667	0.0474	0.0215
298	0.3607	0.05	0.0216
298	0.354	0.0528	0.0217
298	0.3466	0.0559	0.022
298	0.3389	0.0593	0.0221
298	0.3326	0.0625	0.0223
298	0.3256	0.0661	0.0227
298	0.3187	0.0699	0.0231
298	0.311	0.0742	0.0236
298	0.3033	0.0788	0.0241
298	0.2958	0.0836	0.0244
298	0.2887	0.0888	0.0248
298	0.2874	0.089	0.0247
298	0.2846	0.0918	0.0246
298	0.2792	0.0948	0.025
298	0.2801	0.0949	0.025
298	0.2754	0.0983	0.0251
298	0.2699	0.1014	0.0247
298	0.2711	0.1018	0.0251
298	0.2657	0.1057	0.0256
298	0.2609	0.1084	0.0256
298	0.2607	0.1096	0.0256
298	0.2564	0.1135	0.0261
298	0.2486	0.1171	0.0265
298	0.2507	0.1181	0.0261
298	0.2434	0.1234	0.0264
298	0.2378	0.1284	0.0265
298	0.2317	0.1338	0.0265
298	0.225	0.1397	0.0278
298	0.2178	0.1461	0.0276
298	0.2098	0.1532	0.0278
298	0.2027	0.1603	0.0284
298	0.1949	0.1681	0.0287
298	0.1862	0.1767	0.0297
298	0.1786	0.1854	0.0301
298	0.1681	0.1959	0.0295
298	0.1609	0.2055	0.0303
298	0.1505	0.2174	0.0301
298	0.1415	0.2293	0.0309
298	0.1286	0.2441	0.032
298	0.1139	0.261	0.0297
298	0.1041	0.2765	0.0311
313	0.0571	0.3648	0.0456
313	0.0634	0.3467	0.0414
313	0.0698	0.3341	0.0379
313	0.0758	0.3225	0.0347
313	0.0822	0.315	0.0419
313	0.0875	0.3046	0.038
313	0.0933	0.2979	0.0362
313	0.0989	0.2915	0.0354
313	0.1033	0.2826	0.0337
313	0.1084	0.2768	0.0325
313	0.1133	0.2713	0.0338
313	0.118	0.266	0.0335
313	0.1215	0.2585	0.0336
313	0.1312	0.2512	0.032
313	0.1341	0.2446	0.0331
313	0.138	0.2402	0.0333
313	0.1417	0.236	0.0307
313	0.1454	0.232	0.0306
313	0.1489	0.2281	0.0306
313	0.1523	0.2243	0.033
313	0.1544	0.219	0.0328
313	0.3256	0.0735	0.0222
313	0.3322	0.0704	0.0216
313	0.3392	0.067	0.0216
313	0.3464	0.0636	0.0219
313	0.3572	0.0605	0.0219
313	0.3652	0.0567	0.0216
313	0.3735	0.0527	0.0215
313	0.3823	0.0486	0.0214
313	0.3955	0.0447	0.0211
313	0.4096	0.0405	0.0207
313	0.4248	0.036	0.0207
313	0.4463	0.0315	0.0203
313	0.4644	0.0262	0.0203
313	0.5096	0.0216	0.02
313	0.6396	0.0181	0.0181
