Measured thermophysical data. Effect of Hydrogen Bond Donor on the Physical Properties of Benzyltriethylammonium Chloride Based Deep Eutectic Solvents and Their Usage in 2-Ethyl-Hexyl Acetate Synthesis as a Catalyst
Source: J. Chem. Eng. Data, 2017, 10.1021/acs.jced.6b00486
Compound 1: benzyltriethylammonium chloride, C13H22ClN, InChI=1S/C13H22N.ClH/c1-4-14(5-2,6-3)12-13-10-8-7-9-11-13;/h7-11H,4-6,12H2,1-3H3;1H/q+1;/p-1
Compound 2: 4-methylbenzenesulfonic acid, C7H8O3S, InChI=1S/C7H8O3S/c1-6-2-4-7(5-3-6)11(8,9)10/h2-5H,1H3,(H,8,9,10)
Compound 3: citric acid, C6H8O7, InChI=1S/C6H8O7/c7-3(8)1-6(13,5(11)12)2-4(9)10/h13H,1-2H2,(H,7,8)(H,9,10)(H,11,12)
Compound 4: ethanedioic acid, C2H2O4, InChI=1S/C2H2O4/c3-1(4)2(5)6/h(H,3,4)(H,5,6)
Compound 5: water, H2O, InChI=1S/H2O/h1H2, purity 99.8%

System: benzyltriethylammonium chloride + 4-methylbenzenesulfonic acid + water; phases: Liquid
Fixed: Pressure, kPa = 100
Fixed: Amount ratio of solute to solvent of 4-methylbenzenesulfonic acid = 1
Fixed: Amount ratio of solute to solvent of benzyltriethylammonium chloride = 0.4286
Property: Viscosity, Pa*s (Liquid); method: Concentric cylinders viscometry
Temperature, K	Viscosity, Pa*s	uncertainty
333.15	0.344	0.07
328.15	0.506	0.103
323.15	0.732	0.149
318.15	1.224	0.252
313.15	2.34	0.484
308.15	4.054	0.845
303.15	6.967	1.467
298.15	12.698	2.711
293.15	26.457	5.699

System: benzyltriethylammonium chloride + 4-methylbenzenesulfonic acid + water; phases: Liquid
Fixed: Pressure, kPa = 100
Fixed: Amount ratio of solute to solvent of benzyltriethylammonium chloride = 0.4286
Fixed: Amount ratio of solute to solvent of 4-methylbenzenesulfonic acid = 1
Property: Electrical conductivity, S/m (Liquid); method: Alternating current cell with electrodes
Temperature, K	Electrical conductivity, S/m	uncertainty
333.15	0.1713	0.0065
328.15	0.1097	0.0063
323.15	0.077	0.0061
318.15	0.0477	0.0061
313.15	0.0327	0.006
308.15	0.0177	0.006
303.15	0.0097	0.006
298.15	0.0041	0.006
293.15	0.0014	0.006

System: benzyltriethylammonium chloride + 4-methylbenzenesulfonic acid + water; phases: Liquid
Fixed: Pressure, kPa = 100
Fixed: Amount ratio of solute to solvent of benzyltriethylammonium chloride = 0.4286
Fixed: Amount ratio of solute to solvent of 4-methylbenzenesulfonic acid = 1
Property: Refractive index (Na D-line) (Liquid); method: Standard Abbe refractometry
Temperature, K	Refractive index (Na D-line)	uncertainty
333.15	1.5352	0.002
328.15	1.5369	0.002
323.15	1.5386	0.002
318.15	1.5404	0.002
313.15	1.5423	0.002
308.15	1.5441	0.002
303.15	1.5456	0.002
298.15	1.547	0.002
293.15	1.5484	0.002

System: benzyltriethylammonium chloride + 4-methylbenzenesulfonic acid + water; phases: Liquid
Fixed: Pressure, kPa = 100
Fixed: Amount ratio of solute to solvent of benzyltriethylammonium chloride = 0.4286
Fixed: Amount ratio of solute to solvent of 4-methylbenzenesulfonic acid = 1
Property: Mass density, kg/m3 (Liquid); method: Vibrating tube method
Temperature, K	Mass density, kg/m3	uncertainty
333.15	1145.4	3
328.15	1148.5	3
323.15	1150.8	3
318.15	1154.3	3
313.15	1157.1	3
308.15	1160.5	3
303.15	1164.2	3
298.15	1168.4	3
293.15	1172.1	3

System: benzyltriethylammonium chloride + citric acid + water; phases: Liquid
Fixed: Pressure, kPa = 100
Fixed: Amount ratio of solute to solvent of benzyltriethylammonium chloride = 1
Fixed: Amount ratio of solute to solvent of citric acid = 1
Property: Viscosity, Pa*s (Liquid); method: Concentric cylinders viscometry
Temperature, K	Viscosity, Pa*s	uncertainty
333.15	76.406	16.795
328.15	102.953	22.773
323.15	135.35	30.127
318.15	172.454	38.7
313.15	292.536	66.475

System: benzyltriethylammonium chloride + citric acid + water; phases: Liquid
Fixed: Pressure, kPa = 100
Fixed: Amount ratio of solute to solvent of benzyltriethylammonium chloride = 1
Fixed: Amount ratio of solute to solvent of citric acid = 1
Property: Electrical conductivity, S/m (Liquid); method: Alternating current cell with electrodes
Temperature, K	Electrical conductivity, S/m	uncertainty
333.15	0.0105	0.0004
328.15	0.006	0.0004
323.15	0.0028	0.0004
318.15	0.0014	0.0004
313.15	0.0009	0.0004
308.15	0.0005	0.0004
303.15	0.0004	0.0004
298.15	0.0002	0.0004
293.15	0.0002	0.0004

System: benzyltriethylammonium chloride + citric acid + water; phases: Liquid
Fixed: Pressure, kPa = 100
Fixed: Amount ratio of solute to solvent of benzyltriethylammonium chloride = 1
Fixed: Amount ratio of solute to solvent of citric acid = 1
Property: Refractive index (Na D-line) (Liquid); method: Standard Abbe refractometry
Temperature, K	Refractive index (Na D-line)	uncertainty
333.15	1.5183	0.0005
328.15	1.5198	0.0005
323.15	1.5212	0.0006
318.15	1.5233	0.0006
313.15	1.5247	0.0005
308.15	1.5264	0.0005
303.15	1.5279	0.0005
298.15	1.5293	0.0005
293.15	1.5307	0.0005

System: benzyltriethylammonium chloride + ethanedioic acid + water; phases: Liquid
Fixed: Pressure, kPa = 100
Fixed: Amount ratio of solute to solvent of benzyltriethylammonium chloride = 0.5
Fixed: Amount ratio of solute to solvent of ethanedioic acid = 0.5
Property: Viscosity, Pa*s (Liquid); method: Concentric cylinders viscometry
Temperature, K	Viscosity, Pa*s	uncertainty
333.15	0.207	0.042
328.15	0.419	0.085
323.15	0.514	0.104
318.15	0.748	0.152
313.15	1.158	0.237
308.15	1.741	0.359
303.15	3.115	0.645
298.15	4.108	0.852
293.15	5.152	1.072

System: benzyltriethylammonium chloride + ethanedioic acid + water; phases: Liquid
Fixed: Pressure, kPa = 100
Fixed: Amount ratio of solute to solvent of benzyltriethylammonium chloride = 0.5
Fixed: Amount ratio of solute to solvent of ethanedioic acid = 0.5
Property: Electrical conductivity, S/m (Liquid); method: Alternating current cell with electrodes
Temperature, K	Electrical conductivity, S/m	uncertainty
333.15	0.853	0.0291
328.15	0.6553	0.0288
323.15	0.5267	0.0284
318.15	0.409	0.0283
313.15	0.3127	0.0282
308.15	0.2313	0.0281
303.15	0.1683	0.0281
298.15	0.1213	0.0281
293.15	0.0807	0.028

System: benzyltriethylammonium chloride + ethanedioic acid + water; phases: Liquid
Fixed: Pressure, kPa = 100
Fixed: Amount ratio of solute to solvent of benzyltriethylammonium chloride = 0.5
Fixed: Amount ratio of solute to solvent of ethanedioic acid = 0.5
Property: Refractive index (Na D-line) (Liquid); method: Standard Abbe refractometry
Temperature, K	Refractive index (Na D-line)	uncertainty
333.15	1.5042	0.0005
328.15	1.5058	0.0005
323.15	1.5074	0.0005
318.15	1.5089	0.0005
313.15	1.5108	0.0005
308.15	1.5123	0.0005
303.15	1.514	0.0005
298.15	1.5156	0.0005
293.15	1.5172	0.0005

System: benzyltriethylammonium chloride + ethanedioic acid + water; phases: Liquid
Fixed: Pressure, kPa = 100
Fixed: Amount ratio of solute to solvent of benzyltriethylammonium chloride = 0.5
Fixed: Amount ratio of solute to solvent of ethanedioic acid = 0.5
Property: Mass density, kg/m3 (Liquid); method: Vibrating tube method
Temperature, K	Mass density, kg/m3	uncertainty
333.15	1149.3	0.3
328.15	1152	0.3
323.15	1154.9	0.3
318.15	1157.8	0.3
313.15	1160.9	0.3
308.15	1164.3	0.3
303.15	1168	0.3
298.15	1172.3	0.3
293.15	1176.7	0.3
