Measured thermophysical data. Liquid Properties of Ionic Liquids Based on Phosphonium Cations with (Alkylthio)alkyl Groups
Source: J. Chem. Eng. Data, 2019, 10.1021/acs.jced.9b00033
Compound 1: triethyl((methylthio)methyl)phosphonium bis(trifluoromethylsulfonyl)amide, C10H20F6NO4PS3, InChI=1S/C8H20PS.C2F6NO4S2/c1-5-9(6-2,7-3)8-10-4;3-1(4,5)14(10,11)9-15(12,13)2(6,7)8/h5-8H2,1-4H3;/q+1;-1, purity 99.6%
Compound 2: triethyl((methylthio)methyl)phosphonium bis(fluorosulfonyl)amide, C8H20F2NO4PS3, InChI=1S/C8H20PS.F2NO4S2/c1-5-9(6-2,7-3)8-10-4;1-8(4,5)3-9(2,6)7/h5-8H2,1-4H3;/q+1;-1, purity 99.6%
Compound 3: triethyl((methylthio)methyl)phosphonium tetrafluoroborate, C8H20BF4PS, InChI=1S/C8H20PS.BF4/c1-5-9(6-2,7-3)8-10-4;2-1(3,4)5/h5-8H2,1-4H3;/q+1;-1, purity 99.6%
Compound 4: triethyl(2-(methylthio)ethyl)phosphonium bis(trifluoromethylsulfonyl)amide, C11H22F6NO4PS3, InChI=1S/C9H22PS.C2F6NO4S2/c1-5-10(6-2,7-3)8-9-11-4;3-1(4,5)14(10,11)9-15(12,13)2(6,7)8/h5-9H2,1-4H3;/q+1;-1, purity 99.6%
Compound 5: triethyl(2-(methylthio)ethyl)phosphonium bis(fluorosulfonyl)amide, C9H22F2NO4PS3, InChI=1S/C9H22PS.F2NO4S2/c1-5-10(6-2,7-3)8-9-11-4;1-8(4,5)3-9(2,6)7/h5-9H2,1-4H3;/q+1;-1, purity 99.6%
Compound 6: triethyl(2-(methylthio)ethyl)phosphonium tetrafluoroborate, C9H22BF4PS, InChI=1S/C9H22PS.BF4/c1-5-10(6-2,7-3)8-9-11-4;2-1(3,4)5/h5-9H2,1-4H3;/q+1;-1, purity 99.6%
Compound 7: triethyl(2-(ethylthio)ethyl)phosphonium bis(trifluoromethylsulfonyl)amide, C12H24F6NO4PS3, InChI=1S/C10H24PS.C2F6NO4S2/c1-5-11(6-2,7-3)9-10-12-8-4;3-1(4,5)14(10,11)9-15(12,13)2(6,7)8/h5-10H2,1-4H3;/q+1;-1, purity 99.6%
Compound 8: triethyl(2-(ethylthio)ethyl)phosphonium bis(fluorosulfonyl)amide, C10H24F2NO4PS3, InChI=1S/C10H24PS.F2NO4S2/c1-5-11(6-2,7-3)9-10-12-8-4;1-8(4,5)3-9(2,6)7/h5-10H2,1-4H3;/q+1;-1, purity 99.6%
Compound 9: triethyl(2-(ethylthio)ethyl)phosphonium tetrafluoroborate, C10H24BF4PS, InChI=1S/C10H24PS.BF4/c1-5-11(6-2,7-3)9-10-12-8-4;2-1(3,4)5/h5-10H2,1-4H3;/q+1;-1, purity 99.6%
Compound 10: tributyl((methylthio)methyl)phosphonium bis(trifluoromethylsulfonyl)amide, C16H32F6NO4PS3, InChI=1S/C14H32PS.C2F6NO4S2/c1-5-8-11-15(14-16-4,12-9-6-2)13-10-7-3;3-1(4,5)14(10,11)9-15(12,13)2(6,7)8/h5-14H2,1-4H3;/q+1;-1, purity 99.6%
Compound 11: tributyl((methylthio)methyl)phosphonium bis(fluorosulfonyl)amide, C14H32F2NO4PS3, InChI=1S/C14H32PS.F2NO4S2/c1-5-8-11-15(14-16-4,12-9-6-2)13-10-7-3;1-8(4,5)3-9(2,6)7/h5-14H2,1-4H3;/q+1;-1, purity 99.6%
Compound 12: tributyl((methylthio)methyl)phosphonium tetrafluoroborate, C14H32BF4PS, InChI=1S/C14H32PS.BF4/c1-5-8-11-15(14-16-4,12-9-6-2)13-10-7-3;2-1(3,4)5/h5-14H2,1-4H3;/q+1;-1, purity 99.6%
Compound 13: tributyl(2-(methylthio)ethyl)phosphonium bis(trifluoromethylsulfonyl)amide, C17H34F6NO4PS3, InChI=1S/C15H34PS.C2F6NO4S2/c1-5-8-11-16(12-9-6-2,13-10-7-3)14-15-17-4;3-1(4,5)14(10,11)9-15(12,13)2(6,7)8/h5-15H2,1-4H3;/q+1;-1, purity 99.6%
Compound 14: tributyl(2-(methylthio)ethyl)phosphonium bis(fluorosulfonyl)amide, C15H34F2NO4PS3, InChI=1S/C15H34PS.F2NO4S2/c1-5-8-11-16(12-9-6-2,13-10-7-3)14-15-17-4;1-8(4,5)3-9(2,6)7/h5-15H2,1-4H3;/q+1;-1, purity 99.6%
Compound 15: tributyl(2-(methylthio)ethyl)phosphonium tetrafluoroborate, C15H34BF4PS, InChI=1S/C15H34PS.BF4/c1-5-8-11-16(12-9-6-2,13-10-7-3)14-15-17-4;2-1(3,4)5/h5-15H2,1-4H3;/q+1;-1, purity 99.6%
Compound 16: tributyl(2-(ethylthio)ethyl)phosphonium bis(trifluoromethylsulfonyl)amide, C18H36F6NO4PS3, InChI=1S/C16H36PS.C2F6NO4S2/c1-5-9-12-17(13-10-6-2,14-11-7-3)15-16-18-8-4;3-1(4,5)14(10,11)9-15(12,13)2(6,7)8/h5-16H2,1-4H3;/q+1;-1, purity 99.6%
Compound 17: tributyl(2-(ethylthio)ethyl)phosphonium bis(fluorosulfonyl)amide, C16H36F2NO4PS3, InChI=1S/C16H36PS.F2NO4S2/c1-5-9-12-17(13-10-6-2,14-11-7-3)15-16-18-8-4;1-8(4,5)3-9(2,6)7/h5-16H2,1-4H3;/q+1;-1, purity 99.6%
Compound 18: tributyl(2-(ethylthio)ethyl)phosphonium tetrafluoroborate, C16H36BF4PS, InChI=1S/C16H36PS.BF4/c1-5-9-12-17(13-10-6-2,14-11-7-3)15-16-18-8-4;2-1(3,4)5/h5-16H2,1-4H3;/q+1;-1, purity 99.6%

System: triethyl((methylthio)methyl)phosphonium bis(trifluoromethylsulfonyl)amide; phases: Crystal, Liquid, Air at 1 atmosphere
Property: Triple point temperature, K (Crystal); method: DSC
Triple point temperature, K	uncertainty
300	2

System: triethyl((methylthio)methyl)phosphonium bis(trifluoromethylsulfonyl)amide; phases: Metastable liquid
Property: Mass density, kg/m3 (Metastable liquid); method: Vibrating tube method
Temperature, K	Pressure, kPa	Mass density, kg/m3	uncertainty
293	100	1421	3

System: triethyl((methylthio)methyl)phosphonium bis(trifluoromethylsulfonyl)amide; phases: Metastable liquid
Property: Viscosity, Pa*s (Metastable liquid); method: Moving piston method
Temperature, K	Pressure, kPa	Viscosity, Pa*s	uncertainty
293	100	0.0736	0.008

System: triethyl((methylthio)methyl)phosphonium bis(trifluoromethylsulfonyl)amide; phases: Metastable liquid
Property: Electrical conductivity, S/m (Metastable liquid); method: Alternating current cell with electrodes
Temperature, K	Pressure, kPa	Electrical conductivity, S/m	uncertainty
293	100	0.2157	0.0216

System: triethyl((methylthio)methyl)phosphonium bis(trifluoromethylsulfonyl)amide; phases: Metastable liquid, Gas
Property: Surface tension liquid-gas, N/m (Metastable liquid); method: Ring tensiometer
Temperature, K	Surface tension liquid-gas, N/m	uncertainty
293	0.036	0.0036

System: triethyl((methylthio)methyl)phosphonium bis(fluorosulfonyl)amide; phases: Crystal, Liquid, Air at 1 atmosphere
Property: Triple point temperature, K (Crystal); method: DSC
Triple point temperature, K	uncertainty
274	2

System: triethyl((methylthio)methyl)phosphonium bis(fluorosulfonyl)amide; phases: Liquid
Property: Mass density, kg/m3 (Liquid); method: Vibrating tube method
Temperature, K	Pressure, kPa	Mass density, kg/m3	uncertainty
293	100	1344	3

System: triethyl((methylthio)methyl)phosphonium bis(fluorosulfonyl)amide; phases: Liquid
Property: Viscosity, Pa*s (Liquid); method: Moving piston method
Temperature, K	Pressure, kPa	Viscosity, Pa*s	uncertainty
293	100	0.0582	0.006

System: triethyl((methylthio)methyl)phosphonium bis(fluorosulfonyl)amide; phases: Liquid
Property: Electrical conductivity, S/m (Liquid); method: Alternating current cell with electrodes
Temperature, K	Pressure, kPa	Electrical conductivity, S/m	uncertainty
293	100	0.2925	0.0293

System: triethyl((methylthio)methyl)phosphonium bis(fluorosulfonyl)amide; phases: Liquid, Gas
Property: Surface tension liquid-gas, N/m (Liquid); method: Ring tensiometer
Temperature, K	Surface tension liquid-gas, N/m	uncertainty
293	0.0472	0.0048

System: triethyl((methylthio)methyl)phosphonium tetrafluoroborate; phases: Crystal, Liquid, Air at 1 atmosphere
Property: Triple point temperature, K (Crystal); method: DSC
Triple point temperature, K	uncertainty
327	2

System: triethyl(2-(methylthio)ethyl)phosphonium bis(trifluoromethylsulfonyl)amide; phases: Crystal, Liquid, Air at 1 atmosphere
Property: Triple point temperature, K (Crystal); method: DSC
Triple point temperature, K	uncertainty
303	2

System: triethyl(2-(methylthio)ethyl)phosphonium bis(trifluoromethylsulfonyl)amide; phases: Metastable liquid
Property: Mass density, kg/m3 (Metastable liquid); method: Vibrating tube method
Temperature, K	Pressure, kPa	Mass density, kg/m3	uncertainty
293	100	1402	3

System: triethyl(2-(methylthio)ethyl)phosphonium bis(trifluoromethylsulfonyl)amide; phases: Metastable liquid
Property: Viscosity, Pa*s (Metastable liquid); method: Moving piston method
Temperature, K	Pressure, kPa	Viscosity, Pa*s	uncertainty
293	100	0.143	0.021

System: triethyl(2-(methylthio)ethyl)phosphonium bis(trifluoromethylsulfonyl)amide; phases: Metastable liquid
Property: Electrical conductivity, S/m (Metastable liquid); method: Alternating current cell with electrodes
Temperature, K	Pressure, kPa	Electrical conductivity, S/m	uncertainty
293	100	0.1387	0.0139

System: triethyl(2-(methylthio)ethyl)phosphonium bis(trifluoromethylsulfonyl)amide; phases: Metastable liquid, Gas
Property: Surface tension liquid-gas, N/m (Metastable liquid); method: Ring tensiometer
Temperature, K	Surface tension liquid-gas, N/m	uncertainty
293	0.0358	0.0036

System: triethyl(2-(methylthio)ethyl)phosphonium bis(fluorosulfonyl)amide; phases: Crystal, Liquid, Air at 1 atmosphere
Property: Triple point temperature, K (Crystal); method: DSC
Triple point temperature, K	uncertainty
285	2

System: triethyl(2-(methylthio)ethyl)phosphonium bis(fluorosulfonyl)amide; phases: Liquid
Property: Mass density, kg/m3 (Liquid); method: Vibrating tube method
Temperature, K	Pressure, kPa	Mass density, kg/m3	uncertainty
293	100	1328	3

System: triethyl(2-(methylthio)ethyl)phosphonium bis(fluorosulfonyl)amide; phases: Liquid
Property: Viscosity, Pa*s (Liquid); method: Moving piston method
Temperature, K	Pressure, kPa	Viscosity, Pa*s	uncertainty
293	100	0.127	0.017

System: triethyl(2-(methylthio)ethyl)phosphonium bis(fluorosulfonyl)amide; phases: Liquid
Property: Electrical conductivity, S/m (Liquid); method: Alternating current cell with electrodes
Temperature, K	Pressure, kPa	Electrical conductivity, S/m	uncertainty
293	100	0.1832	0.0183

System: triethyl(2-(methylthio)ethyl)phosphonium bis(fluorosulfonyl)amide; phases: Liquid, Gas
Property: Surface tension liquid-gas, N/m (Liquid); method: Ring tensiometer
Temperature, K	Surface tension liquid-gas, N/m	uncertainty
293	0.0485	0.0049

System: triethyl(2-(methylthio)ethyl)phosphonium tetrafluoroborate; phases: Crystal, Liquid, Air at 1 atmosphere
Property: Triple point temperature, K (Crystal); method: DSC
Triple point temperature, K	uncertainty
383	2

System: triethyl(2-(ethylthio)ethyl)phosphonium bis(trifluoromethylsulfonyl)amide; phases: Crystal, Liquid, Air at 1 atmosphere
Property: Triple point temperature, K (Crystal); method: DSC
Triple point temperature, K	uncertainty
283	2

System: triethyl(2-(ethylthio)ethyl)phosphonium bis(trifluoromethylsulfonyl)amide; phases: Glass, Liquid, Air at 1 atmosphere
Property: Triple point temperature, K (Glass); method: DSC
Triple point temperature, K	uncertainty
189	2

System: triethyl(2-(ethylthio)ethyl)phosphonium bis(trifluoromethylsulfonyl)amide; phases: Liquid
Property: Mass density, kg/m3 (Liquid); method: Vibrating tube method
Temperature, K	Pressure, kPa	Mass density, kg/m3	uncertainty
293	100	1378	3

System: triethyl(2-(ethylthio)ethyl)phosphonium bis(trifluoromethylsulfonyl)amide; phases: Liquid
Property: Viscosity, Pa*s (Liquid); method: Moving piston method
Temperature, K	Pressure, kPa	Viscosity, Pa*s	uncertainty
293	100	0.121	0.016

System: triethyl(2-(ethylthio)ethyl)phosphonium bis(trifluoromethylsulfonyl)amide; phases: Liquid
Property: Electrical conductivity, S/m (Liquid); method: Alternating current cell with electrodes
Temperature, K	Pressure, kPa	Electrical conductivity, S/m	uncertainty
293	100	0.1223	0.0122

System: triethyl(2-(ethylthio)ethyl)phosphonium bis(trifluoromethylsulfonyl)amide; phases: Liquid, Gas
Property: Surface tension liquid-gas, N/m (Liquid); method: Ring tensiometer
Temperature, K	Surface tension liquid-gas, N/m	uncertainty
293	0.0352	0.0035

System: triethyl(2-(ethylthio)ethyl)phosphonium bis(fluorosulfonyl)amide; phases: Glass, Liquid, Air at 1 atmosphere
Property: Triple point temperature, K (Glass); method: DSC
Triple point temperature, K	uncertainty
177	2

System: triethyl(2-(ethylthio)ethyl)phosphonium bis(fluorosulfonyl)amide; phases: Liquid
Property: Mass density, kg/m3 (Liquid); method: Vibrating tube method
Temperature, K	Pressure, kPa	Mass density, kg/m3	uncertainty
293	100	1299	3

System: triethyl(2-(ethylthio)ethyl)phosphonium bis(fluorosulfonyl)amide; phases: Liquid
Property: Viscosity, Pa*s (Liquid); method: Moving piston method
Temperature, K	Pressure, kPa	Viscosity, Pa*s	uncertainty
293	100	0.102	0.013

System: triethyl(2-(ethylthio)ethyl)phosphonium bis(fluorosulfonyl)amide; phases: Liquid
Property: Electrical conductivity, S/m (Liquid); method: Alternating current cell with electrodes
Temperature, K	Pressure, kPa	Electrical conductivity, S/m	uncertainty
293	100	0.1942	0.0194

System: triethyl(2-(ethylthio)ethyl)phosphonium bis(fluorosulfonyl)amide; phases: Liquid, Gas
Property: Surface tension liquid-gas, N/m (Liquid); method: Ring tensiometer
Temperature, K	Surface tension liquid-gas, N/m	uncertainty
293	0.0465	0.0047

System: triethyl(2-(ethylthio)ethyl)phosphonium tetrafluoroborate; phases: Crystal, Liquid, Air at 1 atmosphere
Property: Triple point temperature, K (Crystal); method: DSC
Triple point temperature, K	uncertainty
326	2

System: tributyl((methylthio)methyl)phosphonium bis(trifluoromethylsulfonyl)amide; phases: Crystal, Liquid, Air at 1 atmosphere
Property: Triple point temperature, K (Crystal); method: DSC
Triple point temperature, K	uncertainty
304	2

System: tributyl((methylthio)methyl)phosphonium bis(trifluoromethylsulfonyl)amide; phases: Metastable liquid
Property: Mass density, kg/m3 (Metastable liquid); method: Vibrating tube method
Temperature, K	Pressure, kPa	Mass density, kg/m3	uncertainty
293	100	1279	3

System: tributyl((methylthio)methyl)phosphonium bis(trifluoromethylsulfonyl)amide; phases: Metastable liquid
Property: Viscosity, Pa*s (Metastable liquid); method: Moving piston method
Temperature, K	Pressure, kPa	Viscosity, Pa*s	uncertainty
293	100	0.294	0.058

System: tributyl((methylthio)methyl)phosphonium bis(trifluoromethylsulfonyl)amide; phases: Metastable liquid
Property: Electrical conductivity, S/m (Metastable liquid); method: Alternating current cell with electrodes
Temperature, K	Pressure, kPa	Electrical conductivity, S/m	uncertainty
293	100	0.0619	0.0062

System: tributyl((methylthio)methyl)phosphonium bis(trifluoromethylsulfonyl)amide; phases: Metastable liquid, Gas
Property: Surface tension liquid-gas, N/m (Metastable liquid); method: Ring tensiometer
Temperature, K	Surface tension liquid-gas, N/m	uncertainty
293	0.031	0.0031

System: tributyl((methylthio)methyl)phosphonium bis(fluorosulfonyl)amide; phases: Crystal, Liquid, Air at 1 atmosphere
Property: Triple point temperature, K (Crystal); method: DSC
Triple point temperature, K	uncertainty
283	

System: tributyl((methylthio)methyl)phosphonium bis(fluorosulfonyl)amide; phases: Liquid
Property: Mass density, kg/m3 (Liquid); method: Vibrating tube method
Temperature, K	Pressure, kPa	Mass density, kg/m3	uncertainty
293	100	1207	2

System: tributyl((methylthio)methyl)phosphonium bis(fluorosulfonyl)amide; phases: Liquid
Property: Viscosity, Pa*s (Liquid); method: Moving piston method
Temperature, K	Pressure, kPa	Viscosity, Pa*s	uncertainty
293	100	0.256	0.048

System: tributyl((methylthio)methyl)phosphonium bis(fluorosulfonyl)amide; phases: Liquid
Property: Electrical conductivity, S/m (Liquid); method: Alternating current cell with electrodes
Temperature, K	Pressure, kPa	Electrical conductivity, S/m	uncertainty
293	100	0.0652	0.0065

System: tributyl((methylthio)methyl)phosphonium bis(fluorosulfonyl)amide; phases: Liquid, Gas
Property: Surface tension liquid-gas, N/m (Liquid); method: Ring tensiometer
Temperature, K	Surface tension liquid-gas, N/m	uncertainty
293	0.0391	0.0039

System: tributyl((methylthio)methyl)phosphonium tetrafluoroborate; phases: Crystal, Liquid, Air at 1 atmosphere
Property: Triple point temperature, K (Crystal); method: DSC
Triple point temperature, K	uncertainty
287	2

System: tributyl((methylthio)methyl)phosphonium tetrafluoroborate; phases: Glass, Liquid, Air at 1 atmosphere
Property: Triple point temperature, K (Glass); method: DSC
Triple point temperature, K	uncertainty
187	2

System: tributyl((methylthio)methyl)phosphonium tetrafluoroborate; phases: Liquid
Property: Mass density, kg/m3 (Liquid); method: Vibrating tube method
Temperature, K	Pressure, kPa	Mass density, kg/m3	uncertainty
293	100	1096	2

System: tributyl((methylthio)methyl)phosphonium tetrafluoroborate; phases: Liquid
Property: Viscosity, Pa*s (Liquid); method: Moving piston method
Temperature, K	Pressure, kPa	Viscosity, Pa*s	uncertainty
293	100	1.531	0.559

System: tributyl((methylthio)methyl)phosphonium tetrafluoroborate; phases: Liquid
Property: Electrical conductivity, S/m (Liquid); method: Alternating current cell with electrodes
Temperature, K	Pressure, kPa	Electrical conductivity, S/m	uncertainty
293	100	0.039	0.0039

System: tributyl((methylthio)methyl)phosphonium tetrafluoroborate; phases: Liquid, Gas
Property: Surface tension liquid-gas, N/m (Liquid); method: Ring tensiometer
Temperature, K	Surface tension liquid-gas, N/m	uncertainty
293	0.0369	0.0037

System: tributyl(2-(methylthio)ethyl)phosphonium bis(trifluoromethylsulfonyl)amide; phases: Glass, Liquid, Air at 1 atmosphere
Property: Triple point temperature, K (Glass); method: DSC
Triple point temperature, K	uncertainty
197	2

System: tributyl(2-(methylthio)ethyl)phosphonium bis(trifluoromethylsulfonyl)amide; phases: Liquid
Property: Mass density, kg/m3 (Liquid); method: Vibrating tube method
Temperature, K	Pressure, kPa	Mass density, kg/m3	uncertainty
293	100	1269	3

System: tributyl(2-(methylthio)ethyl)phosphonium bis(trifluoromethylsulfonyl)amide; phases: Liquid
Property: Viscosity, Pa*s (Liquid); method: Moving piston method
Temperature, K	Pressure, kPa	Viscosity, Pa*s	uncertainty
293	100	0.529	0.132

System: tributyl(2-(methylthio)ethyl)phosphonium bis(trifluoromethylsulfonyl)amide; phases: Liquid
Property: Electrical conductivity, S/m (Liquid); method: Alternating current cell with electrodes
Temperature, K	Pressure, kPa	Electrical conductivity, S/m	uncertainty
293	100	0.0433	0.0043

System: tributyl(2-(methylthio)ethyl)phosphonium bis(trifluoromethylsulfonyl)amide; phases: Liquid, Gas
Property: Surface tension liquid-gas, N/m (Liquid); method: Ring tensiometer
Temperature, K	Surface tension liquid-gas, N/m	uncertainty
293	0.0311	0.0031

System: tributyl(2-(methylthio)ethyl)phosphonium bis(fluorosulfonyl)amide; phases: Crystal, Liquid, Air at 1 atmosphere
Property: Triple point temperature, K (Crystal); method: DSC
Triple point temperature, K	uncertainty
305	2

System: tributyl(2-(methylthio)ethyl)phosphonium bis(fluorosulfonyl)amide; phases: Glass, Liquid, Air at 1 atmosphere
Property: Triple point temperature, K (Glass); method: DSC
Triple point temperature, K	uncertainty
192	2

System: tributyl(2-(methylthio)ethyl)phosphonium bis(fluorosulfonyl)amide; phases: Metastable liquid
Property: Mass density, kg/m3 (Metastable liquid); method: Vibrating tube method
Temperature, K	Pressure, kPa	Mass density, kg/m3	uncertainty
293	100	1198	2

System: tributyl(2-(methylthio)ethyl)phosphonium bis(fluorosulfonyl)amide; phases: Metastable liquid
Property: Viscosity, Pa*s (Metastable liquid); method: Moving piston method
Temperature, K	Pressure, kPa	Viscosity, Pa*s	uncertainty
293	100	0.601	0.157

System: tributyl(2-(methylthio)ethyl)phosphonium bis(fluorosulfonyl)amide; phases: Metastable liquid
Property: Electrical conductivity, S/m (Metastable liquid); method: Alternating current cell with electrodes
Temperature, K	Pressure, kPa	Electrical conductivity, S/m	uncertainty
293	100	0.0452	0.0045

System: tributyl(2-(methylthio)ethyl)phosphonium bis(fluorosulfonyl)amide; phases: Metastable liquid, Gas
Property: Surface tension liquid-gas, N/m (Metastable liquid); method: Ring tensiometer
Temperature, K	Surface tension liquid-gas, N/m	uncertainty
293	0.0397	0.004

System: tributyl(2-(methylthio)ethyl)phosphonium tetrafluoroborate; phases: Glass, Liquid, Air at 1 atmosphere
Property: Triple point temperature, K (Glass); method: DSC
Triple point temperature, K	uncertainty
199	2

System: tributyl(2-(ethylthio)ethyl)phosphonium bis(trifluoromethylsulfonyl)amide; phases: Glass, Liquid, Air at 1 atmosphere
Property: Triple point temperature, K (Glass); method: DSC
Triple point temperature, K	uncertainty
194	2

System: tributyl(2-(ethylthio)ethyl)phosphonium bis(trifluoromethylsulfonyl)amide; phases: Liquid
Property: Mass density, kg/m3 (Liquid); method: Vibrating tube method
Temperature, K	Pressure, kPa	Mass density, kg/m3	uncertainty
293	100	1245	3

System: tributyl(2-(ethylthio)ethyl)phosphonium bis(trifluoromethylsulfonyl)amide; phases: Liquid
Property: Viscosity, Pa*s (Liquid); method: Moving piston method
Temperature, K	Pressure, kPa	Viscosity, Pa*s	uncertainty
293	100	0.375	0.082

System: tributyl(2-(ethylthio)ethyl)phosphonium bis(trifluoromethylsulfonyl)amide; phases: Liquid
Property: Electrical conductivity, S/m (Liquid); method: Alternating current cell with electrodes
Temperature, K	Pressure, kPa	Electrical conductivity, S/m	uncertainty
293	100	0.0457	0.0046

System: tributyl(2-(ethylthio)ethyl)phosphonium bis(trifluoromethylsulfonyl)amide; phases: Liquid, Gas
Property: Surface tension liquid-gas, N/m (Liquid); method: Ring tensiometer
Temperature, K	Surface tension liquid-gas, N/m	uncertainty
293	0.0305	0.0031

System: tributyl(2-(ethylthio)ethyl)phosphonium bis(fluorosulfonyl)amide; phases: Crystal, Liquid, Air at 1 atmosphere
Property: Triple point temperature, K (Crystal); method: DSC
Triple point temperature, K	uncertainty
286	2

System: tributyl(2-(ethylthio)ethyl)phosphonium bis(fluorosulfonyl)amide; phases: Glass, Liquid, Air at 1 atmosphere
Property: Triple point temperature, K (Glass); method: DSC
Triple point temperature, K	uncertainty
190	2

System: tributyl(2-(ethylthio)ethyl)phosphonium bis(fluorosulfonyl)amide; phases: Liquid
Property: Mass density, kg/m3 (Liquid); method: Vibrating tube method
Temperature, K	Pressure, kPa	Mass density, kg/m3	uncertainty
293	100	1183	2

System: tributyl(2-(ethylthio)ethyl)phosphonium bis(fluorosulfonyl)amide; phases: Liquid
Property: Viscosity, Pa*s (Liquid); method: Moving piston method
Temperature, K	Pressure, kPa	Viscosity, Pa*s	uncertainty
293	100	0.482	0.116

System: tributyl(2-(ethylthio)ethyl)phosphonium bis(fluorosulfonyl)amide; phases: Liquid
Property: Electrical conductivity, S/m (Liquid); method: Alternating current cell with electrodes
Temperature, K	Pressure, kPa	Electrical conductivity, S/m	uncertainty
293	100	0.0595	0.006

System: tributyl(2-(ethylthio)ethyl)phosphonium bis(fluorosulfonyl)amide; phases: Liquid, Gas
Property: Surface tension liquid-gas, N/m (Liquid); method: Ring tensiometer
Temperature, K	Surface tension liquid-gas, N/m	uncertainty
293	0.0383	0.0039

System: tributyl(2-(ethylthio)ethyl)phosphonium tetrafluoroborate; phases: Glass, Liquid, Air at 1 atmosphere
Property: Triple point temperature, K (Glass); method: DSC
Triple point temperature, K	uncertainty
203	2

System: tributyl(2-(ethylthio)ethyl)phosphonium tetrafluoroborate; phases: Liquid
Property: Mass density, kg/m3 (Liquid); method: Vibrating tube method
Temperature, K	Pressure, kPa	Mass density, kg/m3	uncertainty
293	100	1076	2

System: tributyl(2-(ethylthio)ethyl)phosphonium tetrafluoroborate; phases: Liquid
Property: Viscosity, Pa*s (Liquid); method: Moving piston method
Temperature, K	Pressure, kPa	Viscosity, Pa*s	uncertainty
293	100	1.847	0.714

System: tributyl(2-(ethylthio)ethyl)phosphonium tetrafluoroborate; phases: Liquid
Property: Electrical conductivity, S/m (Liquid); method: Alternating current cell with electrodes
Temperature, K	Pressure, kPa	Electrical conductivity, S/m	uncertainty
293	100	0.0332	0.0033

System: tributyl(2-(ethylthio)ethyl)phosphonium tetrafluoroborate; phases: Liquid, Gas
Property: Surface tension liquid-gas, N/m (Liquid); method: Ring tensiometer
Temperature, K	Surface tension liquid-gas, N/m	uncertainty
293	0.0366	0.0037
