Measured thermophysical data. Structural Dependence of Protic Ionic Liquids on Surface, Optical, and Transport Properties
Source: J. Chem. Eng. Data, 2015, 10.1021/acs.jced.5b00077
Compound 1: propylammonium formate, C4H11NO2, InChI=1S/C3H9N.CH2O2/c1-2-3-4;2-1-3/h2-4H2,1H3;1H,(H,2,3), purity 95%
Compound 2: propylammonium acetate, C5H13NO2, InChI=1S/C3H9N.C2H4O2/c1-2-3-4;1-2(3)4/h2-4H2,1H3;1H3,(H,3,4), purity 95%
Compound 3: 3-hydroxypropylammonium formate, C4H11NO3, InChI=1S/C3H9NO.CH2O2/c4-2-1-3-5;2-1-3/h5H,1-4H2;1H,(H,2,3), purity 95%
Compound 4: 3-hydroxypropylammonium acetate, C5H13NO3, InChI=1S/C3H9NO.C2H4O2/c4-2-1-3-5;1-2(3)4/h5H,1-4H2;1H3,(H,3,4), purity 95%
Compound 5: 3-hydroxypropylammonium trifluoroacetate, C5H10F3NO3, InChI=1S/C3H9NO.C2HF3O2/c4-2-1-3-5;3-2(4,5)1(6)7/h5H,1-4H2;(H,6,7), purity 95%

System: propylammonium formate; phases: Liquid, Air at 1 atmosphere
Property: Surface tension liquid-gas, N/m (Liquid); method: Ring tensiometer
Temperature, K	Surface tension liquid-gas, N/m	uncertainty
293.15	0.0378	0.0011
308.15	0.0366	0.001
313.15	0.0362	0.001
318.15	0.0358	0.001
323.15	0.0354	0.001
328.15	0.035	0.001
333.15	0.0346	0.001
298.15	0.0374	0.0011
303.15	0.037	0.0011

System: propylammonium formate; phases: Liquid
Fixed: Pressure, kPa = 101.325
Property: Refractive index (Na D-line) (Liquid); method: Standard Abbe refractometry
Temperature, K	Refractive index (Na D-line)	uncertainty
293.15	1.44	0.0012
298.15	1.4386	0.0012
303.15	1.4372	0.0012
308.15	1.4356	0.0012
313.15	1.4341	0.0012
318.15	1.4326	0.0012
323.15	1.431	0.0012
328.15	1.4295	0.0012
333.15	1.428	0.0012

System: propylammonium formate; phases: Liquid
Fixed: Pressure, kPa = 101.325
Property: Electrical conductivity, S/m (Liquid); method: Alternating current cell with electrodes
Temperature, K	Electrical conductivity, S/m	uncertainty
293.15	0.31	0.01
298.15	0.36	0.01
303.15	0.44	0.01
308.15	0.51	0.01
313.15	0.59	0.01
318.15	0.68	0.01
323.15	0.78	0.01
328.15	0.87	0.01
333.15	1	0.01

System: propylammonium acetate; phases: Liquid, Air at 1 atmosphere
Property: Surface tension liquid-gas, N/m (Liquid); method: Ring tensiometer
Temperature, K	Surface tension liquid-gas, N/m	uncertainty
293.15	0.0335	0.001
298.15	0.0331	0.001
303.15	0.0327	0.0009
308.15	0.0322	0.0009
313.15	0.0318	0.0009
318.15	0.0314	0.0009
323.15	0.031	0.0009
328.15	0.0306	0.0009
333.15	0.0302	0.0009

System: propylammonium acetate; phases: Liquid
Fixed: Pressure, kPa = 101.325
Property: Refractive index (Na D-line) (Liquid); method: Standard Abbe refractometry
Temperature, K	Refractive index (Na D-line)	uncertainty
293.15	1.4383	0.0012
298.15	1.4369	0.0012
303.15	1.4356	0.0012
308.15	1.4341	0.0012
313.15	1.4328	0.0012
318.15	1.4313	0.0012
323.15	1.4301	0.0012
328.15	1.4287	0.0012
333.15	1.4273	0.0012

System: propylammonium acetate; phases: Liquid
Fixed: Pressure, kPa = 101.325
Property: Electrical conductivity, S/m (Liquid); method: Alternating current cell with electrodes
Temperature, K	Electrical conductivity, S/m	uncertainty
293.15	0.04	0.01
298.15	0.06	0.01
303.15	0.08	0.01
308.15	0.1	0.01
313.15	0.14	0.01
318.15	0.17	0.01
323.15	0.22	0.01
328.15	0.27	0.01
333.15	0.33	0.01

System: 3-hydroxypropylammonium formate; phases: Liquid, Air at 1 atmosphere
Property: Surface tension liquid-gas, N/m (Liquid); method: Ring tensiometer
Temperature, K	Surface tension liquid-gas, N/m	uncertainty
293.15	0.0569	0.0016
298.15	0.0564	0.0016
303.15	0.0559	0.0016
308.15	0.0554	0.0016
313.15	0.0549	0.0015
318.15	0.0544	0.0015
323.15	0.054	0.0015
328.15	0.0535	0.0015
333.15	0.053	0.0015

System: 3-hydroxypropylammonium formate; phases: Liquid
Fixed: Pressure, kPa = 101.325
Property: Refractive index (Na D-line) (Liquid); method: Standard Abbe refractometry
Temperature, K	Refractive index (Na D-line)	uncertainty
293.15	1.4678	0.0012
298.15	1.4667	0.0012
303.15	1.4655	0.0012
308.15	1.4644	0.0012
313.15	1.4632	0.0012
318.15	1.4621	0.0012
323.15	1.461	0.0012
328.15	1.4598	0.0012
333.15	1.4586	0.0012

System: 3-hydroxypropylammonium formate; phases: Liquid
Fixed: Pressure, kPa = 101.325
Property: Electrical conductivity, S/m (Liquid); method: Alternating current cell with electrodes
Temperature, K	Electrical conductivity, S/m	uncertainty
293.15	0.11	0.01
298.15	0.14	0.01
303.15	0.17	0.01
308.15	0.21	0.01
313.15	0.26	0.01
318.15	0.3	0.01
323.15	0.36	0.01
328.15	0.42	0.01
333.15	0.49	0.01

System: 3-hydroxypropylammonium acetate; phases: Liquid, Air at 1 atmosphere
Property: Surface tension liquid-gas, N/m (Liquid); method: Ring tensiometer
Temperature, K	Surface tension liquid-gas, N/m	uncertainty
293.15	0.048	0.0014
298.15	0.0475	0.0013
303.15	0.047	0.0013
308.15	0.0465	0.0013
313.15	0.046	0.0013
318.15	0.0455	0.0013
323.15	0.045	0.0013
328.15	0.0445	0.0013
333.15	0.044	0.0012

System: 3-hydroxypropylammonium acetate; phases: Liquid
Fixed: Pressure, kPa = 101.325
Property: Refractive index (Na D-line) (Liquid); method: Standard Abbe refractometry
Temperature, K	Refractive index (Na D-line)	uncertainty
293.15	1.4663	0.0012
298.15	1.4652	0.0012
303.15	1.464	0.0012
308.15	1.4628	0.0012
313.15	1.4616	0.0012
318.15	1.4605	0.0012
323.15	1.4593	0.0012
328.15	1.4581	0.0012
333.15	1.457	0.0012

System: 3-hydroxypropylammonium acetate; phases: Liquid
Fixed: Pressure, kPa = 101.325
Property: Electrical conductivity, S/m (Liquid); method: Alternating current cell with electrodes
Temperature, K	Electrical conductivity, S/m	uncertainty
293.15	0.01	0.01
298.15	0.01	0.01
303.15	0.01	0.01
308.15	0.02	0.01
313.15	0.02	0.01
318.15	0.03	0.01
323.15	0.04	0.01
328.15	0.05	0.01
333.15	0.06	0.01

System: 3-hydroxypropylammonium trifluoroacetate; phases: Liquid, Air at 1 atmosphere
Property: Surface tension liquid-gas, N/m (Liquid); method: Ring tensiometer
Temperature, K	Surface tension liquid-gas, N/m	uncertainty
293.15	0.0382	0.0011
298.15	0.0378	0.0011
303.15	0.0374	0.0011
308.15	0.037	0.0011
313.15	0.0365	0.001
318.15	0.0361	0.001
323.15	0.0357	0.001
328.15	0.0353	0.001
333.15	0.0349	0.001

System: 3-hydroxypropylammonium trifluoroacetate; phases: Liquid
Fixed: Pressure, kPa = 101.325
Property: Refractive index (Na D-line) (Liquid); method: Standard Abbe refractometry
Temperature, K	Refractive index (Na D-line)	uncertainty
293.15	1.4113	0.0012
298.15	1.4101	0.0012
303.15	1.409	0.0012
308.15	1.4078	0.0012
313.15	1.4067	0.0012
318.15	1.4055	0.0012
323.15	1.4044	0.0012
328.15	1.4032	0.0012
333.15	1.402	0.0012

System: 3-hydroxypropylammonium trifluoroacetate; phases: Liquid
Fixed: Pressure, kPa = 101.325
Property: Electrical conductivity, S/m (Liquid); method: Alternating current cell with electrodes
Temperature, K	Electrical conductivity, S/m	uncertainty
293.15	0.03	0.01
298.15	0.04	0.01
303.15	0.06	0.01
308.15	0.09	0.01
313.15	0.12	0.01
318.15	0.16	0.01
323.15	0.2	0.01
328.15	0.25	0.01
333.15	0.31	0.01
