Measured thermophysical data. Vapor Pressure and Isobaric Vapor-Liquid Equilibrium for Binary Systems of Furfural, 2-Acetylfuran, and 5-Methylfurfural at 3.60 and 5.18 kPa
Source: J. Chem. Eng. Data, 2018, 10.1021/acs.jced.7b00574
Compound 1: 2-furaldehyde, C5H4O2, InChI=1S/C5H4O2/c6-4-5-2-1-3-7-5/h1-4H, purity 99.5%
Compound 2: 2-acetylfuran, C6H6O2, InChI=1S/C6H6O2/c1-5(7)6-3-2-4-8-6/h2-4H,1H3, purity 99%
Compound 3: 5-methylfurfural, C6H6O2, InChI=1S/C6H6O2/c1-5-2-3-6(4-7)8-5/h2-4H,1H3, purity 98%
Compound 4: octan-1-ol, C8H18O, InChI=1S/C8H18O/c1-2-3-4-5-6-7-8-9/h9H,2-8H2,1H3, purity 99.5%

System: 2-furaldehyde; phases: Liquid, Gas
Property: Vapor or sublimation pressure, kPa (Liquid); method: Ebulliometric method (Recirculating still)
Temperature, K	Vapor or sublimation pressure, kPa	uncertainty
326.05	1.455	0.151
331.85	2.031	0.152
335.35	2.506	0.153
338.85	3.014	0.154
342.35	3.623	0.154
344.55	4.021	0.155
346.85	4.524	0.157
349.75	5.19	0.158
353.05	6.022	0.16
356.45	7.039	0.167
364.35	10.042	0.172
375.75	15.063	0.183
383.35	20.068	0.223
394.25	30.102	0.255
402.55	39.87	0.298
409.55	49.805	0.349
415.15	59.743	0.387
342.11	3.6	0.198
349.93	5.18	0.2849

System: 2-acetylfuran; phases: Liquid, Gas
Property: Vapor or sublimation pressure, kPa (Liquid); method: Ebulliometric method (Recirculating still)
Temperature, K	Vapor or sublimation pressure, kPa	uncertainty
337.95	1.545	0.151
342.65	2.013	0.152
349.75	3.061	0.153
353.35	3.624	0.154
355.05	4.017	0.156
360.65	5.181	0.157
363.95	6.02	0.159
367.65	7.028	0.162
370.55	8.031	0.165
373.55	9.034	0.166
376.35	10.041	0.177
386.55	15.044	0.188
394.15	20.067	0.219
405.55	29.891	0.249
414.25	39.934	0.278
353.1	3.6	0.1962
360.86	5.18	0.28231

System: 5-methylfurfural; phases: Liquid, Gas
Property: Vapor or sublimation pressure, kPa (Liquid); method: Ebulliometric method (Recirculating still)
Temperature, K	Vapor or sublimation pressure, kPa	uncertainty
339.05	0.858	0.151
343.25	1.127	0.151
347.05	1.405	0.151
353.15	2.002	0.152
357.45	2.501	0.152
360.95	3.004	0.154
366.75	4.02	0.155
369.25	4.523	0.156
376.65	6.017	0.157
380.15	7.024	0.163
383.25	8.03	0.166
385.95	9.043	0.17
388.45	10.037	0.181
398.25	15.024	0.191
405.85	19.962	0.22
417.55	29.89	0.234
365.09	3.6	0.198
372.92	5.18	0.28749

System: octan-1-ol; phases: Liquid, Gas
Property: Vapor or sublimation pressure, kPa (Liquid); method: Ebulliometric method (Recirculating still)
Temperature, K	Vapor or sublimation pressure, kPa	uncertainty
354.85	0.854	0.151
358.15	1.067	0.151
363.55	1.511	0.151
368.25	2.008	0.152
376.05	2.994	0.153
381.75	4.012	0.155
386.05	5.006	0.158
389.95	6.014	0.16
393.15	7.011	0.164
396.05	8.024	0.168
398.55	9.019	0.17
400.95	9.986	0.183
410.15	14.969	0.193
417.35	19.908	0.204

System: 2-furaldehyde + 2-acetylfuran; phases: Liquid, Gas
Property: Boiling temperature at pressure P, K (Liquid); method: Ebulliometric method (Recirculating still)
Mole fraction of 2-furaldehyde	Pressure, kPa	Boiling temperature at pressure P, K	uncertainty
0	3.6	353.1	1.09
0.0752	3.6	352.15	1.16
0.0936	3.6	352.05	1.16
0.2206	3.6	350.85	1.11
0.3164	3.6	349.95	1.08
0.4167	3.6	349.25	1.06
0.6253	3.6	347.35	1.01
0.6811	3.6	346.65	1.01
0.7145	3.6	346.35	1.02
1	3.6	342.11	1.1
0	5.18	360.86	1.09
0.2452	5.18	358.55	1.11
0.3086	5.18	357.75	1.1
0.4128	5.18	356.7	1.05
0.4754	5.18	356.05	1.05
0.5429	5.18	355.45	0.99
0.5716	5.18	354.85	1
0.6524	5.18	354.15	1
0.9104	5.18	351.95	1.17
1	5.18	349.93	1.1

System: 2-furaldehyde + 2-acetylfuran; phases: Gas, Liquid
Property: Mole fraction of 2-furaldehyde (Gas); method: Chromatography
Mole fraction of 2-furaldehyde	Pressure, kPa	Mole fraction of 2-furaldehyde	uncertainty
0	3.6	0	
0.0752	3.6	0.1472	0.0168
0.0936	3.6	0.1734	0.0168
0.2206	3.6	0.3627	0.0154
0.3164	3.6	0.4531	0.0132
0.4167	3.6	0.5484	0.0131
0.6253	3.6	0.738	0.0123
0.6811	3.6	0.782	0.0115
0.7145	3.6	0.8079	0.0113
1	3.6	1	
0	5.18	0	
0.2452	5.18	0.3589	0.0173
0.3086	5.18	0.4352	0.0146
0.4128	5.18	0.551	0.0142
0.4754	5.18	0.6143	0.0131
0.5429	5.18	0.6745	0.0122
0.5716	5.18	0.6961	0.0113
0.6524	5.18	0.7543	0.0111
0.9104	5.18	0.9409	0.0107
1	5.18	1	

System: 2-furaldehyde + 5-methylfurfural; phases: Liquid, Gas
Property: Boiling temperature at pressure P, K (Liquid); method: Ebulliometric method (Recirculating still)
Mole fraction of 2-furaldehyde	Pressure, kPa	Boiling temperature at pressure P, K	uncertainty
0	3.6	365.09	1.1
0.2811	3.6	357.05	1.05
0.3832	3.6	354.65	1.04
0.5337	3.6	351.35	1.08
0.5841	3.6	350.45	1.06
0.6358	3.6	349.45	1.05
0.6972	3.6	348.35	1.06
0.7605	3.6	347.25	1.07
0.803	3.6	346.45	1.06
0.8855	3.6	345.35	1.05
0.9346	3.6	344.75	1.17
1	3.6	342.11	1.1
0	5.18	372.92	1.11
0.1859	5.18	366.05	1.13
0.2047	5.18	365.85	1.13
0.3261	5.18	363.25	1.04
0.3789	5.18	362.05	1.06
0.4083	5.18	361.45	1.05
0.4913	5.18	359.85	1.1
0.5415	5.18	358.85	1.1
0.6259	5.18	357.05	1.08
0.7815	5.18	354.35	1.08
0.8435	5.18	353.45	1.08
0.8994	5.18	352.65	1.07
0.9441	5.18	352.05	1.05
0.9755	5.18	351.35	1.19
1	5.18	349.93	1.1

System: 2-furaldehyde + 5-methylfurfural; phases: Gas, Liquid
Property: Mole fraction of 2-furaldehyde (Gas); method: Chromatography
Mole fraction of 2-furaldehyde	Pressure, kPa	Mole fraction of 2-furaldehyde	uncertainty
0	3.6	0	
0.2811	3.6	0.5035	0.0196
0.3832	3.6	0.6274	0.0141
0.5337	3.6	0.7673	0.0125
0.5841	3.6	0.8038	0.0112
0.6358	3.6	0.8423	0.0106
0.6972	3.6	0.8784	0.0099
0.7605	3.6	0.9125	0.0095
0.803	3.6	0.9317	0.009
0.8855	3.6	0.9644	0.0088
0.9346	3.6	0.9805	0.0086
1	3.6	1	
0	5.18	0	
0.1859	5.18	0.3635	0.0187
0.2047	5.18	0.3942	0.0188
0.3261	5.18	0.5722	0.0171
0.3789	5.18	0.6381	0.0154
0.4083	5.18	0.6731	0.0134
0.4913	5.18	0.7492	0.0126
0.5415	5.18	0.7936	0.0111
0.6259	5.18	0.847	0.0098
0.7815	5.18	0.922	0.0093
0.8435	5.18	0.9472	0.0089
0.8994	5.18	0.9677	0.0087
0.9441	5.18	0.9825	0.0087
0.9755	5.18	0.9927	0.0073
1	5.18	1	

System: 2-acetylfuran + 5-methylfurfural; phases: Liquid, Gas
Property: Boiling temperature at pressure P, K (Liquid); method: Ebulliometric method (Recirculating still)
Mole fraction of 2-acetylfuran	Pressure, kPa	Boiling temperature at pressure P, K	uncertainty
0	3.6	365.09	1.1
0.1034	3.6	362.85	1.12
0.1393	3.6	362.15	1.11
0.1649	3.6	361.85	1.02
0.2106	3.6	361.45	1.01
0.4186	3.6	359.05	1.06
0.4825	3.6	358.25	1.04
0.5916	3.6	357.55	1.05
0.6434	3.6	356.95	1.05
0.7101	3.6	356.35	1.05
1	3.6	353.1	1.1
0	5.18	372.92	1.11
0.2508	5.18	368.25	1.02
0.3039	5.18	367.75	1.03
0.3418	5.18	367.25	1.06
0.441	5.18	366.25	1.05
0.4966	5.18	365.65	1.08
0.6901	5.18	363.95	1.05
0.7862	5.18	363.05	1.05
0.8814	5.18	362.35	1.13
0.9647	5.18	361.35	1.1
1	5.18	360.86	1.09
