Measured thermophysical data. Vapor Liquid Equilibrium for Methyl Isobutyl Ketone (MIBK) + (1-Propanol or 2-Propanol) Binary Mixtures
Source: J. Chem. Eng. Data, 2017, 10.1021/acs.jced.7b00026
Compound 1: propan-1-ol, C3H8O, InChI=1S/C3H8O/c1-2-3-4/h4H,2-3H2,1H3, purity 99.5%
Compound 2: propan-2-ol, C3H8O, InChI=1S/C3H8O/c1-3(2)4/h3-4H,1-2H3, purity 99.5%
Compound 3: 4-methylpentan-2-one, C6H12O, InChI=1S/C6H12O/c1-5(2)4-6(3)7/h5H,4H2,1-3H3, purity 99%

System: propan-1-ol; phases: Liquid
Property: Refractive index (Na D-line) (Liquid); method: Standard Abbe refractometry
Temperature, K	Pressure, kPa	Refractive index (Na D-line)	uncertainty
293.15	101.325	1.38512	0.00086

System: propan-1-ol; phases: Liquid
Property: Mass density, kg/m3 (Liquid); method: Vibrating tube method
Temperature, K	Pressure, kPa	Mass density, kg/m3	uncertainty
293.15	101.325	803.66	1.01

System: propan-1-ol; phases: Liquid, Gas
Property: Boiling temperature at pressure P, K (Liquid); method: Ebulliometric method (Recirculating still)
Pressure, kPa	Boiling temperature at pressure P, K	uncertainty
14.9	326.98	0.23
25.89	338.09	0.23
29.9	341.12	0.2
39.89	347.45	0.2
51.21	353.14	0.19
59.89	356.86	0.19
69.89	360.59	0.19
79.88	363.91	0.19
93.89	368.02	0.19
99.88	369.61	0.18

System: propan-1-ol; phases: Liquid, Gas
Property: Vapor or sublimation pressure, kPa (Liquid); method: Ebullio
Temperature, K	Vapor or sublimation pressure, kPa	uncertainty
338.15	25.92	2.03
353.15	51	3.97
368.15	93.92	7.29

System: propan-2-ol; phases: Liquid
Property: Refractive index (Na D-line) (Liquid); method: Standard Abbe refractometry
Temperature, K	Pressure, kPa	Refractive index (Na D-line)	uncertainty
293.15	101.325	1.37718	0.00086

System: propan-2-ol; phases: Liquid
Property: Mass density, kg/m3 (Liquid); method: Vibrating tube method
Temperature, K	Pressure, kPa	Mass density, kg/m3	uncertainty
293.15	101.325	784.99	1.01

System: propan-2-ol; phases: Liquid, Gas
Property: Boiling temperature at pressure P, K (Liquid); method: Ebulliometric method (Recirculating still)
Pressure, kPa	Boiling temperature at pressure P, K	uncertainty
14.9	314.43	0.23
23.43	323.03	0.22
29.9	327.97	0.2
39.89	333.98	0.2
48.34	338.14	0.19
59.89	342.9	0.19
69.89	346.45	0.19
79.88	349.64	0.19
92.4	353.14	0.18
98.88	354.82	0.18

System: propan-2-ol; phases: Liquid, Gas
Property: Vapor or sublimation pressure, kPa (Liquid); method: OTHER
Temperature, K	Vapor or sublimation pressure, kPa	uncertainty
323.15	23.48	1.84
338.15	48.45	3.78
353.15	92.48	7.18

System: 4-methylpentan-2-one; phases: Liquid
Property: Refractive index (Na D-line) (Liquid); method: Standard Abbe refractometry
Temperature, K	Pressure, kPa	Refractive index (Na D-line)	uncertainty
293.15	101.325	1.39586	0.00085

System: 4-methylpentan-2-one; phases: Liquid
Property: Mass density, kg/m3 (Liquid); method: Vibrating tube method
Temperature, K	Pressure, kPa	Mass density, kg/m3	uncertainty
293.15	101.325	800.3	1.01

System: 4-methylpentan-2-one; phases: Liquid, Gas
Property: Boiling temperature at pressure P, K (Liquid); method: Ebulliometric method (Recirculating still)
Pressure, kPa	Boiling temperature at pressure P, K	uncertainty
9.22	322.82	0.38
9.9	324.41	0.38
17.52	337.85	0.27
18.41	339.11	0.27
31.36	352.88	0.22
32.13	353.54	0.22
39.89	359.6	0.2
53.99	368.46	0.2
69.89	376.36	0.19

System: 4-methylpentan-2-one; phases: Liquid, Gas
Property: Vapor or sublimation pressure, kPa (Liquid); method: Ebullio
Temperature, K	Vapor or sublimation pressure, kPa	uncertainty
338.15	17.57	1.37
353.15	31.41	2.44
368.15	54.04	4.19
323.15	9.22	0.72

System: propan-1-ol + 4-methylpentan-2-one; phases: Gas, Liquid
Property: Mole fraction of propan-1-ol (Gas); method: Chromatography
Mole fraction of propan-1-ol	Temperature, K	Mole fraction of propan-1-ol	uncertainty
0	338.15	0	
0.114	338.15	0.229	0.005
0.202	338.15	0.359	0.004
0.304	338.15	0.444	0.005
0.375	338.15	0.499	0.005
0.445	338.15	0.556	0.005
0.499	338.15	0.587	0.005
0.635	338.15	0.677	0.004
0.707	338.15	0.727	0.004
0.792	338.15	0.788	0.003
0.839	338.15	0.827	0.003
0.888	338.15	0.872	0.003
0.953	338.15	0.942	0.003
1	338.15	1	
0	353.15	0	
0.11	353.15	0.23	0.005
0.209	353.15	0.362	0.004
0.3	353.15	0.455	0.005
0.377	353.15	0.523	0.005
0.442	353.15	0.568	0.005
0.495	353.15	0.607	0.004
0.645	353.15	0.696	0.004
0.729	353.15	0.747	0.004
0.796	353.15	0.808	0.003
0.843	353.15	0.845	0.003
0.886	353.15	0.885	0.003
0.936	353.15	0.931	0.003
1	353.15	1	
0	368.15	0	
0.111	368.15	0.22	0.005
0.206	368.15	0.365	0.005
0.3	368.15	0.464	0.005
0.375	368.15	0.527	0.005
0.442	368.15	0.577	0.005
0.497	368.15	0.617	0.004
0.739	368.15	0.769	0.003
0.811	368.15	0.821	0.003
0.85	368.15	0.858	0.003
0.892	368.15	0.897	0.003
0.937	368.15	0.939	0.003
1	368.15	1	

System: propan-1-ol + 4-methylpentan-2-one; phases: Liquid, Gas
Property: Vapor or sublimation pressure, kPa (Liquid); method: Ebullio
Mole fraction of propan-1-ol	Temperature, K	Vapor or sublimation pressure, kPa	uncertainty
0	338.15	17.57	1.37
0.114	338.15	21.32	1.67
0.202	338.15	23.11	1.8
0.304	338.15	24.53	1.92
0.375	338.15	25.16	1.97
0.445	338.15	25.81	2.02
0.499	338.15	26.09	2.04
0.635	338.15	26.61	2.08
0.707	338.15	26.95	2.11
0.792	338.15	26.98	2.11
0.839	338.15	26.94	2.11
0.888	338.15	26.84	2.1
0.953	338.15	26.46	2.07
1	338.15	25.92	2.03
0	353.15	31.41	2.44
0.11	353.15	37.91	2.95
0.209	353.15	41.61	3.24
0.3	353.15	44.45	3.46
0.377	353.15	46.03	3.58
0.442	353.15	47.29	3.68
0.495	353.15	48.18	3.75
0.645	353.15	49.76	3.86
0.729	353.15	50.66	3.94
0.796	353.15	51.26	3.99
0.843	353.15	51.66	4.02
0.886	353.15	51.64	4.02
0.936	353.15	51.54	4.01
1	353.15	51	3.97
0	368.15	54.04	4.19
0.111	368.15	63.68	4.94
0.206	368.15	70.25	5.45
0.3	368.15	76.25	5.92
0.375	368.15	79.52	6.17
0.442	368.15	82.17	6.38
0.497	368.15	84.15	6.53
0.739	368.15	89.97	6.99
0.811	368.15	91.8	7.13
0.85	368.15	92.57	7.19
0.892	368.15	93.43	7.26
0.937	368.15	93.9	7.29
1	368.15	93.92	7.29

System: propan-2-ol + 4-methylpentan-2-one; phases: Liquid, Gas
Property: Vapor or sublimation pressure, kPa (Liquid); method: OTHER
Mole fraction of propan-2-ol	Temperature, K	Vapor or sublimation pressure, kPa	uncertainty
0	323.15	9.22	0.72
0.097	323.15	12.76	1
0.194	323.15	15.07	1.18
0.268	323.15	16.76	1.31
0.342	323.15	17.95	1.4
0.459	323.15	19.52	1.53
0.601	323.15	20.99	1.64
0.677	323.15	21.67	1.7
0.76	323.15	22.3	1.75
0.843	323.15	22.91	1.8
0.899	323.15	23.14	1.82
0.953	323.15	23.39	1.84
1	323.15	23.48	1.84
0	338.15	17.57	1.37
0.19	338.15	28.92	2.25
0.275	338.15	32.18	2.51
0.46	338.15	38.07	2.96
0.594	338.15	41.39	3.22
0.675	338.15	43.03	3.35
0.756	338.15	44.68	3.48
0.841	338.15	46.13	3.59
0.895	338.15	46.91	3.66
0.95	338.15	47.71	3.72
1	338.15	48.45	3.78
0	353.15	31.41	2.44
0.099	353.15	42.51	3.31
0.336	353.15	61.56	4.78
0.399	353.15	65.66	5.1
0.455	353.15	69.08	5.37
0.59	353.15	76.2	5.92
0.67	353.15	79.66	6.19
0.756	353.15	83.35	6.47
0.839	353.15	86.7	6.73
0.895	353.15	88.57	6.88
0.948	353.15	90.61	7.04
1	353.15	92.48	7.18

System: propan-2-ol + 4-methylpentan-2-one; phases: Gas, Liquid
Property: Mole fraction of propan-2-ol (Gas); method: Chromatography
Mole fraction of propan-2-ol	Temperature, K	Mole fraction of propan-2-ol	uncertainty
0	323.15	0	
0.097	323.15	0.323	0.1
0.194	323.15	0.49	0.1
0.268	323.15	0.579	0.1
0.342	323.15	0.625	0.1
0.459	323.15	0.681	0.1
0.601	323.15	0.752	0.1
0.677	323.15	0.798	0.1
0.76	323.15	0.838	0.1
0.843	323.15	0.887	0.1
0.899	323.15	0.92	0.08
0.953	323.15	0.958	0.042
1	323.15	1	
0	338.15	0	
0.19	338.15	0.486	0.1
0.275	338.15	0.561	0.1
0.46	338.15	0.688	0.1
0.594	338.15	0.771	0.1
0.675	338.15	0.814	0.1
0.756	338.15	0.854	0.1
0.841	338.15	0.898	0.1
0.895	338.15	0.927	0.073
0.95	338.15	0.963	0.037
1	338.15	1	
0	353.15	0	
0.099	353.15	0.301	0.1
0.336	353.15	0.618	0.1
0.399	353.15	0.671	0.1
0.455	353.15	0.71	0.1
0.59	353.15	0.789	0.1
0.67	353.15	0.827	0.1
0.756	353.15	0.866	0.1
0.839	353.15	0.907	0.093
0.895	353.15	0.936	0.064
0.948	353.15	0.969	0.031
1	353.15	1	
