Measured thermophysical data. Isobaric Heat Capacity Measurements for R1234yf from 303 to 373 K and Pressures up to 12 MPa
Source: J. Chem. Eng. Data, 2017, 10.1021/acs.jced.6b00959
Compound 1: 2,3,3,3-tetrafluoro-1-propene, C3H2F4, InChI=1S/C3H2F4/c1-2(4)3(5,6)7/h1H2, purity 99.95%

System: 2,3,3,3-tetrafluoro-1-propene; phases: Liquid
Property: Molar heat capacity at constant pressure, J/K/mol (Liquid); method: Flow calorimetry
Temperature, K	Pressure, kPa	Molar heat capacity at constant pressure, J/K/mol	uncertainty
303.58	1570	160.1143962912	1.140415928
303.53	2030	157.1493148784	1.140415928
303.55	2530	156.0088989504	1.140415928
303.72	3040	154.4123166512	1.140415928
303.74	3530	154.1842334656	1.140415928
303.75	4020	153.1578591304	1.140415928
303.81	4520	151.4472352384	1.140415928
303.73	5000	150.8770272744	1.140415928
303.75	5520	150.1927777176	1.140415928
303.8	5980	148.824278604	1.140415928
303.77	6510	148.5961954184	1.140415928
303.61	6980	146.6574883408	1.140415928
303.61	7490	146.8855715264	1.140415928
303.6	8010	146.0872803768	1.140415928
303.6	8490	146.2013219696	1.140415928
303.61	8980	145.7451555984	1.140415928
303.61	9470	145.7451555984	1.140415928
303.6	10010	145.7451555984	1.140415928
303.72	10520	144.9468644488	1.140415928
303.67	10990	144.4906980776	1.140415928
303.79	11450	144.0345317064	1.140415928
303.79	12070	143.692406928	1.140415928
313.66	1510	166.0445591168	1.140415928
313.67	2010	165.36030956	1.140415928
313.69	2510	165.0181847816	1.140415928
313.69	3000	164.1058520392	1.140415928
313.72	3510	162.6233113328	1.140415928
313.66	4000	159.7722715128	1.140415928
313.64	4490	158.1756892136	1.140415928
313.63	5000	157.0352732856	1.140415928
313.79	5490	154.526358244	1.140415928
313.61	6020	154.2982750584	1.140415928
313.69	6500	153.95615028	1.140415928
313.66	6990	152.815734352	1.140415928
313.64	7500	151.675318424	1.140415928
313.64	7980	151.10511046	1.140415928
313.65	8490	150.6489440888	1.140415928
313.72	8970	150.3068193104	1.140415928
313.7	9500	149.8506529392	1.140415928
313.7	10010	149.5085281608	1.140415928
313.72	10500	148.9383201968	1.140415928
313.72	10980	148.5961954184	1.140415928
313.7	11460	147.7979042688	1.140415928
313.72	12040	147.4557794904	1.140415928
323.62	2020	170.2640980504	1.2544575208
323.65	2500	168.6675157512	1.140415928
323.68	3010	167.4130582304	1.140415928
323.69	3510	165.930517524	1.140415928
323.71	3990	164.790101596	1.140415928
323.69	4520	162.50926974	1.140415928
323.71	5020	161.368853812	1.140415928
323.71	5500	159.8863131056	1.140415928
323.71	5990	159.088021956	1.140415928
323.69	6490	157.6054812496	1.140415928
323.63	6940	155.666774172	1.140415928
323.64	7520	154.9825246152	1.140415928
323.64	8000	154.4123166512	1.140415928
323.64	8510	153.7280670944	1.140415928
323.66	8960	153.385942316	1.140415928
323.65	9540	152.245526388	1.140415928
323.66	9990	152.0174432024	1.140415928
323.69	10530	151.7893600168	1.140415928
323.68	10980	151.10511046	1.140415928
323.7	11470	150.3068193104	1.140415928
323.73	12010	150.0787361248	1.140415928
333.67	2080	185.7737546712	1.140415928
333.68	2520	183.9490891864	1.140415928
333.63	3000	179.5014670672	1.140415928
333.66	3480	177.5627599896	1.140415928
333.71	4040	175.3959697264	1.140415928
333.66	4500	170.7202644216	1.140415928
333.68	5000	169.1236821224	1.140415928
333.61	5490	165.4743511528	1.140415928
333.63	5980	164.6760600032	1.140415928
333.68	6510	162.7373529256	1.140415928
333.66	7020	161.7109785904	1.140415928
333.69	7500	161.0267290336	1.140415928
333.72	8010	160.6846042552	1.140415928
333.72	8500	159.65822992	1.140415928
333.69	9010	159.088021956	1.140415928
333.72	9490	157.6054812496	1.140415928
333.69	9990	156.6931485072	1.140415928
333.79	10520	155.2106078008	1.140415928
333.79	11000	154.7544414296	1.140415928
333.82	11480	154.0701918728	1.140415928
333.82	12030	153.6140255016	1.140415928
343.68	2530	204.9327422616	1.2544575208
343.79	3010	196.6077059872	1.2544575208
343.68	3510	187.2562953776	1.2544575208
343.74	3990	183.4929228152	1.140415928
343.7	4490	178.475092732	1.140415928
343.75	5020	175.7380945048	1.140415928
343.81	5560	173.2291794632	1.140415928
343.72	6040	169.351765308	1.140415928
343.73	6510	168.5534741584	1.140415928
343.71	7000	165.4743511528	1.140415928
343.73	7500	164.4479768176	1.140415928
343.73	7980	163.7637272608	1.140415928
343.77	8520	163.1935192968	1.140415928
343.8	9010	162.50926974	1.140415928
343.7	9470	159.8863131056	1.140415928
343.75	10020	159.5441883272	1.140415928
343.67	10510	157.8335644352	1.140415928
343.69	11060	156.9212316928	1.140415928
343.68	11500	156.5791069144	1.140415928
343.7	12010	155.8948573576	1.140415928
353.73	4510	196.6077059872	1.3684991136
353.73	4990	190.1073351976	1.2544575208
353.73	5500	185.7737546712	1.140415928
353.78	6040	182.5805900728	1.140415928
353.71	6510	177.7908431752	1.140415928
353.75	6990	175.9661776904	1.140415928
353.79	7490	173.7993874272	1.140415928
353.81	7990	172.6589714992	1.140415928
353.71	8500	169.2377237152	1.140415928
353.74	8990	168.3253909728	1.140415928
353.77	9530	166.9568918592	1.140415928
353.79	10010	165.930517524	1.140415928
353.69	10520	163.9918104464	1.140415928
353.73	11010	162.8513945184	1.140415928
353.76	11520	162.6233113328	1.140415928
353.78	12010	161.939061776	1.140415928
363.75	4510	225.0040625944	2.280831856
363.78	4990	209.3803643808	1.4825407064
363.74	5480	198.2042882864	1.2544575208
363.69	6030	189.4230856408	1.2544575208
363.77	6500	186.458004228	1.140415928
363.76	7020	181.7822989232	1.140415928
363.78	7530	178.7031759176	1.140415928
363.75	7990	175.8521360976	1.140415928
363.79	8510	174.2555537984	1.140415928
363.78	8990	172.0887635352	1.140415928
363.8	9490	171.0623892	1.140415928
363.76	10010	169.1236821224	1.140415928
363.73	10520	167.9832661944	1.140415928
363.76	11050	167.2990166376	1.140415928
363.78	11500	166.9568918592	1.140415928
363.83	12080	166.9568918592	1.140415928
373.09	4510	297.1923908368	3.7633725624
373.19	4990	241.5400935504	2.7369982272
373.24	5480	217.819442248	1.710623892
373.28	5980	202.3097856272	1.3684991136
373.3	6490	191.2477511256	1.2544575208
373.3	7000	185.0895051144	1.2544575208
373.3	7520	180.2997582168	1.140415928
373.32	8030	177.334676804	1.140415928
373.32	8510	174.9398033552	1.140415928
373.32	8990	172.3168467208	1.140415928
373.34	9510	171.5185555712	1.140415928
373.36	9990	170.9483476072	1.140415928
373.38	10530	169.5798484936	1.140415928
373.39	11020	168.4394325656	1.140415928
373.4	11510	167.8692246016	1.140415928
373.42	11980	167.4130582304	1.140415928
