Measured thermophysical data. Quaternary, Ternary, and Binary LLE Measurements for 2-Methoxy-2-methylpropane + Furfural + Acetic Acid + Water at Temperatures between 298 and 307 K
Source: J. Chem. Eng. Data, 2016, 10.1021/acs.jced.6b00149
Compound 1: 2-methoxy-2-methylpropane, C5H12O, InChI=1S/C5H12O/c1-5(2,3)6-4/h1-4H3, purity 99.85%
Compound 2: 2-furaldehyde, C5H4O2, InChI=1S/C5H4O2/c6-4-5-2-1-3-7-5/h1-4H, purity 99.5%
Compound 3: acetic acid, C2H4O2, InChI=1S/C2H4O2/c1-2(3)4/h1H3,(H,3,4), purity 99.75%
Compound 4: water, H2O, InChI=1S/H2O/h1H2
Compound 5: acetone, C3H6O, InChI=1S/C3H6O/c1-3(2)4/h1-2H3, purity 99.93%

System: 2-methoxy-2-methylpropane; phases: Liquid
Property: Refractive index (Na D-line) (Liquid); method: Standard Abbe refractometry
Temperature, K	Pressure, kPa	Refractive index (Na D-line)	uncertainty
298.15	101.325	1.36594	0.00104

System: 2-furaldehyde; phases: Liquid
Property: Refractive index (Na D-line) (Liquid); method: Standard Abbe refractometry
Temperature, K	Pressure, kPa	Refractive index (Na D-line)	uncertainty
298.15	101.325	1.52263	0.00104

System: water; phases: Liquid
Property: Refractive index (Na D-line) (Liquid); method: Standard Abbe refractometry
Temperature, K	Pressure, kPa	Refractive index (Na D-line)	uncertainty
298.15	101.325	1.33249	0.00104

System: acetone; phases: Liquid
Property: Refractive index (Na D-line) (Liquid); method: Standard Abbe refractometry
Temperature, K	Pressure, kPa	Refractive index (Na D-line)	uncertainty
298.15	101.325	1.35553	0.00104

System: 2-methoxy-2-methylpropane + water; phases: Liquid mixture 1, Liquid mixture 2
Fixed: Pressure, kPa = 101
Property: Mass fraction of 2-methoxy-2-methylpropane (Liquid mixture 1); method: Chromatography
Temperature, K	Mass fraction of 2-methoxy-2-methylpropane	uncertainty
298.3	0.986	0.002
298.3	0.987	0.002
298.3	0.986	0.002
307.9	0.986	0.002
307.9	0.986	0.002
307.8	0.984	0.002

System: 2-methoxy-2-methylpropane + water; phases: Liquid mixture 2, Liquid mixture 1
Fixed: Pressure, kPa = 101
Property: Mass fraction of 2-methoxy-2-methylpropane (Liquid mixture 2); method: Chromatography
Temperature, K	Mass fraction of 2-methoxy-2-methylpropane	uncertainty
298.3	0.041	0.016
298.3	0.041	0.016
298.3	0.042	0.016
307.9	0.032	0.016
307.9	0.031	0.016
307.8	0.032	0.016

System: 2-furaldehyde + 2-methoxy-2-methylpropane + water; phases: Liquid mixture 2, Liquid mixture 1
Fixed: Pressure, kPa = 101
Property: Mass fraction of 2-methoxy-2-methylpropane (Liquid mixture 2); method: Chromatography
Property: Mass fraction of 2-furaldehyde (Liquid mixture 1); method: Chromatography
Property: Mass fraction of 2-methoxy-2-methylpropane (Liquid mixture 1); method: Chromatography
Temperature, K	Mass fraction of 2-furaldehyde	Mass fraction of 2-methoxy-2-methylpropane	uncertainty	Mass fraction of 2-furaldehyde	uncertainty	Mass fraction of 2-methoxy-2-methylpropane	uncertainty
298.2	0.075	0.008	0.008	0.888	0.005	0.059	
298.2	0.071	0.013	0.013	0.834	0.005	0.113	
298.1	0.067	0.018	0.016	0.779	0.005	0.168	
298.2	0.066	0.018	0.016	0.772	0.005	0.175	
298.3	0.061	0.024	0.016	0.7	0.005	0.249	
298.1	0.055	0.029	0.016	0.603	0.005	0.349	
298.2	0.053	0.03	0.016	0.576	0.005	0.377	
298.2	0.048	0.033	0.016	0.5	0.006	0.458	
298.3	0.043	0.035	0.016	0.407	0.005	0.557	
298.3	0.038	0.036	0.016	0.323	0.005	0.645	
298.2	0.035	0.037	0.016	0.293	0.005	0.677	
298.2	0.028	0.038	0.016	0.201	0.005	0.775	
298.2	0.018	0.039	0.016	0.11	0.005	0.87	
307.5	0.079	0.006	0.006	0.881	0.005	0.058	
307.6	0.074	0.011	0.011	0.827	0.005	0.111	
307.5	0.07	0.015	0.015	0.778	0.005	0.164	
307.9	0.063	0.019	0.016	0.699	0.005	0.241	
307.5	0.056	0.024	0.016	0.603	0.005	0.347	
307.6	0.055	0.024	0.016	0.58	0.005	0.371	
307.6	0.049	0.026	0.016	0.502	0.006	0.454	
307.5	0.045	0.028	0.016	0.42	0.005	0.541	
307.8	0.039	0.028	0.016	0.335	0.005	0.627	
307.6	0.039	0.029	0.016	0.339	0.005	0.628	
307.8	0.036	0.029	0.016	0.296	0.005	0.673	
307.8	0.029	0.03	0.016	0.22	0.005	0.754	
307.9	0.018	0.031	0.016	0.117	0.005	0.863	

System: acetic acid + 2-methoxy-2-methylpropane + water; phases: Liquid mixture 2, Liquid mixture 1
Fixed: Pressure, kPa = 101
Property: Mass fraction of 2-methoxy-2-methylpropane (Liquid mixture 2); method: Chromatography
Property: Mass fraction of acetic acid (Liquid mixture 1); method: Chromatography
Property: Mass fraction of 2-methoxy-2-methylpropane (Liquid mixture 1); method: Chromatography
Temperature, K	Mass fraction of acetic acid	Mass fraction of 2-methoxy-2-methylpropane	uncertainty	Mass fraction of acetic acid	uncertainty	Mass fraction of 2-methoxy-2-methylpropane	uncertainty
298.3	0.06	0.046	0.01	0.052	0.009	0.918	
298.3	0.091	0.048	0.01	0.082	0.009	0.878	
298.3	0.186	0.063	0.01	0.193	0.008	0.717	
298.2	0.189	0.065	0.01	0.2	0.008	0.704	
298.2	0.232	0.081	0.01	0.248	0.009	0.622	
307.4	0.062	0.037	0.01	0.05	0.009	0.92	
307	0.094	0.04	0.01	0.079	0.009	0.881	
306.6	0.191	0.058	0.01	0.187	0.009	0.728	
307.8	0.196	0.058	0.01	0.192	0.008	0.719	
307.7	0.238	0.073	0.011	0.239	0.008	0.641	
307.6	0.279	0.099	0.011	0.287	0.009	0.549	
