Measured thermophysical data. Solubility Modeling and Mixing Thermodynamics of Thiamphenicol in Water and Twelve Neat Organic Solvents from T = (278.15 to 318.15) K
Source: J. Chem. Eng. Data, 2017, 10.1021/acs.jced.7b00542
Compound 1: thiamphenicol, C12H15Cl2NO5S, InChI=1S/C12H15Cl2NO5S/c1-21(19,20)8-4-2-7(3-5-8)10(17)9(6-16)15-12(18)11(13)14/h2-5,9-11,16-17H,6H2,1H3,(H,15,18)/t9-,10-/m1/s1, purity 97.5%
Compound 2: butanone, C4H8O, InChI=1S/C4H8O/c1-3-4(2)5/h3H2,1-2H3, purity 99.4%
Compound 3: propan-1-ol, C3H8O, InChI=1S/C3H8O/c1-2-3-4/h4H,2-3H2,1H3, purity 99.4%
Compound 4: butan-1-ol, C4H10O, InChI=1S/C4H10O/c1-2-3-4-5/h5H,2-4H2,1H3, purity 99.3%
Compound 5: propan-2-ol, C3H8O, InChI=1S/C3H8O/c1-3(2)4/h3-4H,1-2H3, purity 99.5%
Compound 6: ethanol, C2H6O, InChI=1S/C2H6O/c1-2-3/h3H,2H2,1H3, purity 99.5%
Compound 7: methanol, CH4O, InChI=1S/CH4O/c1-2/h2H,1H3, purity 99.7%
Compound 8: toluene, C7H8, InChI=1S/C7H8/c1-7-5-3-2-4-6-7/h2-6H,1H3, purity 99.6%
Compound 9: ethyl acetate, C4H8O2, InChI=1S/C4H8O2/c1-3-6-4(2)5/h3H2,1-2H3, purity 99.5%
Compound 10: acetonitrile, C2H3N, InChI=1S/C2H3N/c1-2-3/h1H3, purity 99.4%
Compound 11: 1,4-dioxane, C4H8O2, InChI=1S/C4H8O2/c1-2-6-4-3-5-1/h1-4H2, purity 99.6%
Compound 12: dimethylformamide, C3H7NO, InChI=1S/C3H7NO/c1-4(2)3-5/h3H,1-2H3, purity 99.6%
Compound 13: acetone, C3H6O, InChI=1S/C3H6O/c1-3(2)4/h1-2H3, purity 99.6%
Compound 14: water, H2O, InChI=1S/H2O/h1H2, purity 99.8%

System: thiamphenicol; phases: Crystal, Liquid, Air at 1 atmosphere
Property: Normal melting temperature, K (Crystal); method: DTA
Normal melting temperature, K	uncertainty
437.76	1.06

System: thiamphenicol; phases: Crystal, Liquid, Air at 1 atmosphere
Property: Molar enthalpy of transition or fusion, kJ/mol (Crystal); method: DSC
Molar enthalpy of transition or fusion, kJ/mol	uncertainty
46.91	1.2

System: thiamphenicol + acetonitrile; phases: Liquid, Crystal
Fixed: Pressure, kPa = 101.2
Property: Mole fraction of thiamphenicol (Liquid); method: Chromatography
Temperature, K	Mole fraction of thiamphenicol	uncertainty
278.15	7.958e-05	4.22e-06
283.15	0.0001192	6.3e-06
288.15	0.0001771	9.3e-06
293.15	0.0002587	1.36e-05
298.15	0.0003633	1.91e-05
303.15	0.0005023	2.64e-05
308.15	0.0007158	3.76e-05
313.15	0.0009796	5.14e-05
318.15	0.001343	7e-05

System: thiamphenicol + ethyl acetate; phases: Liquid, Crystal
Fixed: Pressure, kPa = 101.2
Property: Mole fraction of thiamphenicol (Liquid); method: Chromatography
Temperature, K	Mole fraction of thiamphenicol	uncertainty
278.15	6.238e-05	3.3e-06
283.15	9.09e-05	4.77e-06
288.15	0.0001244	6.5e-06
293.15	0.0001715	9e-06
298.15	0.0002457	1.29e-05
303.15	0.0003481	1.83e-05
308.15	0.0004709	2.47e-05
313.15	0.0006432	3.37e-05
318.15	0.0008611	4.5e-05

System: thiamphenicol + ethanol; phases: Liquid, Crystal
Fixed: Pressure, kPa = 101.2
Property: Mole fraction of thiamphenicol (Liquid); method: Chromatography
Temperature, K	Mole fraction of thiamphenicol	uncertainty
278.15	0.0001017	5.4e-06
283.15	0.000148	7.8e-06
288.15	0.0002195	1.15e-05
293.15	0.000309	1.62e-05
298.15	0.0004383	2.3e-05
303.15	0.0006246	3.28e-05
308.15	0.0008374	4.39e-05
313.15	0.001153	6e-05
318.15	0.001567	8.2e-05

System: thiamphenicol + propan-1-ol; phases: Liquid, Crystal
Fixed: Pressure, kPa = 101.2
Property: Mole fraction of thiamphenicol (Liquid); method: Chromatography
Temperature, K	Mole fraction of thiamphenicol	uncertainty
278.15	5.106e-05	2.69e-06
283.15	7.345e-05	3.86e-06
288.15	0.0001035	5.4e-06
293.15	0.0001473	7.7e-06
298.15	0.0001991	1.05e-05
303.15	0.0002853	1.5e-05
308.15	0.0003799	1.99e-05
313.15	0.0005095	2.67e-05
318.15	0.0006866	3.59e-05

System: thiamphenicol + propan-2-ol; phases: Liquid, Crystal
Fixed: Pressure, kPa = 101.2
Property: Mole fraction of thiamphenicol (Liquid); method: Chromatography
Temperature, K	Mole fraction of thiamphenicol	uncertainty
278.15	3.46e-05	1.83e-06
283.15	5.196e-05	2.73e-06
288.15	7.131e-05	3.75e-06
293.15	0.0001037	5.4e-06
298.15	0.0001458	7.7e-06
303.15	0.0002015	1.06e-05
308.15	0.0002689	1.41e-05
313.15	0.0003642	1.91e-05
318.15	0.0004926	2.58e-05

System: thiamphenicol + 1,4-dioxane; phases: Liquid, Crystal
Fixed: Pressure, kPa = 101.2
Property: Mole fraction of thiamphenicol (Liquid); method: Chromatography
Temperature, K	Mole fraction of thiamphenicol	uncertainty
288.15	0.0003844	2.02e-05
293.15	0.0005082	2.67e-05
298.15	0.0007285	3.82e-05
303.15	0.0009734	5.1e-05
308.15	0.001302	6.8e-05
313.15	0.001732	9.1e-05
318.15	0.002272	0.000119

System: thiamphenicol + toluene; phases: Liquid, Crystal
Fixed: Pressure, kPa = 101.2
Property: Mole fraction of thiamphenicol (Liquid); method: Chromatography
Temperature, K	Mole fraction of thiamphenicol	uncertainty
278.15	3.958e-06	2.1e-07
283.15	6.031e-06	3.18e-07
288.15	8.894e-06	4.68e-07
293.15	1.281e-05	6.7e-07
298.15	1.893e-05	1e-06
303.15	2.696e-05	1.42e-06
308.15	3.805e-05	2e-06
313.15	5.528e-05	2.9e-06
318.15	7.604e-05	3.98e-06

System: thiamphenicol + dimethylformamide; phases: Liquid, Crystal
Fixed: Pressure, kPa = 101.2
Property: Mole fraction of thiamphenicol (Liquid); method: Chromatography
Temperature, K	Mole fraction of thiamphenicol	uncertainty
278.15	0.009203	0.000482
283.15	0.01197	0.00063
288.15	0.01561	0.00082
293.15	0.01987	0.00104
298.15	0.02501	0.00131
303.15	0.03082	0.00161
308.15	0.03786	0.00198
313.15	0.04575	0.00239
318.15	0.05529	0.00288

System: thiamphenicol + methanol; phases: Liquid, Crystal
Fixed: Pressure, kPa = 101.2
Property: Mole fraction of thiamphenicol (Liquid); method: Chromatography
Temperature, K	Mole fraction of thiamphenicol	uncertainty
278.15	0.0002297	1.22e-05
283.15	0.0003451	1.82e-05
288.15	0.0005181	2.72e-05
293.15	0.0007155	3.75e-05
298.15	0.0009933	5.22e-05
303.15	0.001411	7.4e-05
308.15	0.001893	9.9e-05
313.15	0.002586	0.000135
318.15	0.003413	0.000178

System: thiamphenicol + butanone; phases: Liquid, Crystal
Fixed: Pressure, kPa = 101.2
Property: Mole fraction of thiamphenicol (Liquid); method: Chromatography
Temperature, K	Mole fraction of thiamphenicol	uncertainty
278.15	0.0001385	7.3e-06
283.15	0.000197	1.04e-05
288.15	0.0002858	1.5e-05
293.15	0.0003792	1.99e-05
298.15	0.0005096	2.67e-05
303.15	0.0007043	3.69e-05
308.15	0.0009521	4.98e-05
313.15	0.001248	6.5e-05
318.15	0.001664	8.7e-05

System: thiamphenicol + butan-1-ol; phases: Liquid, Crystal
Fixed: Pressure, kPa = 101.2
Property: Mole fraction of thiamphenicol (Liquid); method: Chromatography
Temperature, K	Mole fraction of thiamphenicol	uncertainty
278.15	9.545e-06	5.04e-07
283.15	1.382e-05	7.3e-07
288.15	2.079e-05	1.1e-06
293.15	3.104e-05	1.63e-06
298.15	4.461e-05	2.34e-06
303.15	6.393e-05	3.35e-06
308.15	8.424e-05	4.42e-06
313.15	0.0001228	6.4e-06
318.15	0.0001647	8.6e-06

System: thiamphenicol + acetone; phases: Liquid, Crystal
Fixed: Pressure, kPa = 101.2
Property: Mole fraction of thiamphenicol (Liquid); method: Chromatography
Temperature, K	Mole fraction of thiamphenicol	uncertainty
278.15	0.0002832	1.5e-05
283.15	0.0004248	2.23e-05
288.15	0.0005851	3.07e-05
293.15	0.0008403	4.41e-05
298.15	0.001116	5.8e-05
303.15	0.001486	7.8e-05
308.15	0.002018	0.000106
313.15	0.002683	0.00014
318.15	0.003523	0.000184

System: thiamphenicol + water; phases: Liquid, Crystal
Fixed: Pressure, kPa = 101.2
Property: Mole fraction of thiamphenicol (Liquid); method: Chromatography
Temperature, K	Mole fraction of thiamphenicol	uncertainty
278.15	2.501e-05	1.31e-06
283.15	3.423e-05	1.8e-06
288.15	4.959e-05	2.61e-06
293.15	7.3e-05	3.83e-06
298.15	9.523e-05	4.99e-06
303.15	0.0001325	7e-06
308.15	0.0001872	9.8e-06
313.15	0.0002532	1.33e-05
318.15	0.0003391	1.77e-05
