Measured thermophysical data. Solubility of Etoricoxib in Aqueous Solutions of 1,4-Butanediol, 1,4-Dioxane, N,N-Dimethylacetamide, N,N-Dimethylformamide, Dimethyl Sulfoxide, and Ethanol at 298.2 K
Source: J. Chem. Eng. Data, 2015, 10.1021/acs.jced.5b00201
Compound 1: 1,4-butanediol, C4H10O2, InChI=1S/C4H10O2/c5-3-1-2-4-6/h5-6H,1-4H2, purity 99.8%
Compound 2: water, H2O, InChI=1S/H2O/h1H2, purity 99.8%
Compound 3: etoricoxib, C18H15ClN2O2S, InChI=1S/C18H15ClN2O2S/c1-12-3-4-14(10-20-12)18-17(9-15(19)11-21-18)13-5-7-16(8-6-13)24(2,22)23/h3-11H,1-2H3, purity 99%
Compound 4: 1,4-dioxane, C4H8O2, InChI=1S/C4H8O2/c1-2-6-4-3-5-1/h1-4H2, purity 99.5%
Compound 5: N,N-dimethylethanamide, C4H9NO, InChI=1S/C4H9NO/c1-4(6)5(2)3/h1-3H3, purity 99.7%
Compound 6: dimethylformamide, C3H7NO, InChI=1S/C3H7NO/c1-4(2)3-5/h3H,1-2H3, purity 99.8%
Compound 7: dimethyl sulfoxide, C2H6OS, InChI=1S/C2H6OS/c1-4(2)3/h1-2H3, purity 99.8%
Compound 8: ethanol, C2H6O, InChI=1S/C2H6O/c1-2-3/h3H,2H2,1H3, purity 99.5%

System: 1,4-butanediol + water + etoricoxib; phases: Liquid, Crystal
Fixed: Temperature, K = 298.2
Fixed: Pressure, kPa = 100
Property: Mole fraction of etoricoxib (Liquid); method: Chromatography
Solvent: Mass fraction of 1,4-butanediol	Mole fraction of etoricoxib	uncertainty
0	1.56e-05	3e-07
0.1	3.22e-05	6e-07
0.2	6.41e-05	1.2e-06
0.3	0.0001374	2.5e-06
0.4	0.0003831	6.9e-06
0.5	0.001172	2.12e-05
0.6	0.0038256	6.93e-05
0.7	0.0133558	0.0002421
0.8	0.0374759	0.0006792
0.9	0.0629383	0.0011407
1	0.0722576	0.0013096

System: 1,4-butanediol + water + etoricoxib; phases: Liquid
Fixed: Temperature, K = 298.2
Fixed: Pressure, kPa = 100
Property: Mass density, kg/m3 (Liquid); method: Pycnometric method
Solvent: Mass fraction of 1,4-butanediol	Mole fraction of etoricoxib	Mass density, kg/m3	uncertainty
0	1.56e-05	994.8	0.9
0.1	3.22e-05	998.9	0.9
0.2	6.41e-05	1002.1	0.9
0.3	0.0001374	1007.7	0.9
0.4	0.0003831	1012.2	0.9
0.5	0.001172	1021.1	0.9
0.6	0.0038256	1027.7	0.9
0.7	0.0133558	1032.3	0.9
0.8	0.0374759	1037.7	0.9
0.9	0.0629383	1042.6	1
1	0.0722576	1039.8	0.9

System: 1,4-dioxane + water + etoricoxib; phases: Liquid, Crystal
Fixed: Temperature, K = 298.2
Fixed: Pressure, kPa = 100
Property: Mole fraction of etoricoxib (Liquid); method: Chromatography
Solvent: Mass fraction of 1,4-dioxane	Mole fraction of etoricoxib	uncertainty
0	1.56e-05	3e-07
0.1	3.02e-05	6e-07
0.2	6.66e-05	1.2e-06
0.3	0.0001393	2.5e-06
0.4	0.000329	6e-06
0.5	0.0009644	1.75e-05
0.6	0.0037736	6.84e-05
0.7	0.0132171	0.0002396
0.8	0.036854	0.000668
0.9	0.0743146	0.0013469
1	0.0730112	0.0013233

System: 1,4-dioxane + water + etoricoxib; phases: Liquid
Fixed: Temperature, K = 298.2
Fixed: Pressure, kPa = 100
Property: Mass density, kg/m3 (Liquid); method: Pycnometric method
Solvent: Mass fraction of 1,4-dioxane	Mole fraction of etoricoxib	Mass density, kg/m3	uncertainty
0	1.56e-05	994.8	0.9
0.1	3.02e-05	1003.1	0.9
0.2	6.66e-05	1012.7	0.9
0.3	0.0001393	1020.7	0.9
0.4	0.000329	1028.2	0.9
0.5	0.0009644	1032.9	0.9
0.6	0.0037736	1035.8	0.9
0.7	0.0132171	1037.2	0.9
0.8	0.036854	1035.3	0.9
0.9	0.0743146	1032.1	0.9
1	0.0730112	1026.8	0.9

System: N,N-dimethylethanamide + water + etoricoxib; phases: Liquid, Crystal
Fixed: Temperature, K = 298.2
Fixed: Pressure, kPa = 100
Property: Mole fraction of etoricoxib (Liquid); method: Chromatography
Solvent: Mass fraction of N,N-dimethylethanamide	Mole fraction of etoricoxib	uncertainty
0	1.56e-05	3e-07
0.1	3.48e-05	6e-07
0.2	6.2e-05	1.1e-06
0.3	0.000145	2.6e-06
0.4	0.0003461	6.3e-06
0.5	0.0010319	1.87e-05
0.6	0.0036548	6.62e-05
0.7	0.0132096	0.0002394
0.8	0.0404643	0.0007334
0.9	0.0778346	0.0014107
1	0.0811172	0.0014702

System: N,N-dimethylethanamide + water + etoricoxib; phases: Liquid
Fixed: Temperature, K = 298.2
Fixed: Pressure, kPa = 100
Property: Mass density, kg/m3 (Liquid); method: Pycnometric method
Solvent: Mass fraction of N,N-dimethylethanamide	Mole fraction of etoricoxib	Mass density, kg/m3	uncertainty
0	1.56e-05	994.8	0.9
0.1	3.48e-05	992.9	0.9
0.2	6.2e-05	986.7	0.9
0.3	0.000145	981.5	0.8
0.4	0.0003461	977.2	0.8
0.5	0.0010319	970.9	0.8
0.6	0.0036548	964.5	0.8
0.7	0.0132096	958.9	0.8
0.8	0.0404643	952.7	0.8
0.9	0.0778346	947.8	0.8
1	0.0811172	942.7	0.8

System: dimethylformamide + water + etoricoxib; phases: Liquid, Crystal
Fixed: Temperature, K = 298.2
Fixed: Pressure, kPa = 100
Property: Mole fraction of etoricoxib (Liquid); method: Chromatography
Solvent: Mass fraction of dimethylformamide	Mole fraction of etoricoxib	uncertainty
0	1.56e-05	3e-07
0.1	3.58e-05	7e-07
0.2	7.31e-05	1.3e-06
0.3	0.0001372	2.5e-06
0.4	0.000355	6.4e-06
0.5	0.0011584	2.1e-05
0.6	0.0038739	7.02e-05
0.7	0.0128231	0.0002324
0.8	0.0385237	0.0006982
0.9	0.076821	0.0013923
1	0.0689875	0.0012504

System: dimethylformamide + water + etoricoxib; phases: Liquid
Fixed: Temperature, K = 298.2
Fixed: Pressure, kPa = 100
Property: Mass density, kg/m3 (Liquid); method: Pycnometric method
Solvent: Mass fraction of dimethylformamide	Mole fraction of etoricoxib	Mass density, kg/m3	uncertainty
0	1.56e-05	994.8	0.9
0.1	3.58e-05	991.7	0.9
0.2	7.31e-05	989.1	0.9
0.3	0.0001372	983.2	0.8
0.4	0.000355	979.5	0.8
0.5	0.0011584	974.2	0.8
0.6	0.0038739	969.2	0.8
0.7	0.0128231	963.7	0.8
0.8	0.0385237	959.8	0.8
0.9	0.076821	955.5	0.8
1	0.0689875	952.7	0.8

System: dimethyl sulfoxide + water + etoricoxib; phases: Liquid, Crystal
Fixed: Temperature, K = 298.2
Fixed: Pressure, kPa = 100
Property: Mole fraction of etoricoxib (Liquid); method: Chromatography
Solvent: Mass fraction of dimethyl sulfoxide	Mole fraction of etoricoxib	uncertainty
0	1.56e-05	3e-07
0.1	3.12e-05	6e-07
0.2	6.57e-05	1.2e-06
0.3	0.0001361	2.5e-06
0.4	0.00032	5.8e-06
0.5	0.001096	1.99e-05
0.6	0.0031819	5.77e-05
0.7	0.0127213	0.0002306
0.8	0.0347592	0.00063
0.9	0.0612606	0.0011103
1	0.0604427	0.0010955

System: dimethyl sulfoxide + water + etoricoxib; phases: Liquid
Fixed: Temperature, K = 298.2
Fixed: Pressure, kPa = 100
Property: Mass density, kg/m3 (Liquid); method: Pycnometric method
Solvent: Mass fraction of dimethyl sulfoxide	Mole fraction of etoricoxib	Mass density, kg/m3	uncertainty
0	1.56e-05	994.8	0.9
0.1	3.12e-05	1008.5	0.9
0.2	6.57e-05	1017.9	0.9
0.3	0.0001361	1028.8	0.9
0.4	0.00032	1040.2	0.9
0.5	0.001096	1049.8	0.9
0.6	0.0031819	1060.9	0.9
0.7	0.0127213	1074.8	0.9
0.8	0.0347592	1084.2	0.9
0.9	0.0612606	1113.8	1.8
1	0.0604427	1105.6	1.8

System: ethanol + water + etoricoxib; phases: Liquid, Crystal
Fixed: Temperature, K = 298.2
Fixed: Pressure, kPa = 100
Property: Mole fraction of etoricoxib (Liquid); method: Chromatography
Solvent: Mass fraction of ethanol	Mole fraction of etoricoxib	uncertainty
0	1.56e-05	3e-07
0.1	3.64e-05	7e-07
0.2	8.36e-05	1.5e-06
0.3	0.0001839	3.3e-06
0.4	0.0004245	7.7e-06
0.5	0.0012026	2.18e-05
0.6	0.0045904	8.32e-05
0.7	0.0152012	0.0002755
0.8	0.0361618	0.0006554
0.9	0.0613725	0.0011124
1	0.0537442	0.0009741

System: ethanol + water + etoricoxib; phases: Liquid
Fixed: Temperature, K = 298.2
Fixed: Pressure, kPa = 100
Property: Mass density, kg/m3 (Liquid); method: Pycnometric method
Solvent: Mass fraction of ethanol	Mole fraction of etoricoxib	Mass density, kg/m3	uncertainty
0	1.56e-05	994.8	0.9
0.1	3.64e-05	989.5	0.9
0.2	8.36e-05	972.5	0.9
0.3	0.0001839	958.5	0.8
0.4	0.0004245	941.2	0.8
0.5	0.0012026	923.4	0.8
0.6	0.0045904	905.5	0.8
0.7	0.0152012	886	0.8
0.8	0.0361618	863.7	0.7
0.9	0.0613725	849.1	0.9
1	0.0537442	819.9	0.7

System: water + etoricoxib; phases: Liquid, Crystal
Property: Mole fraction of etoricoxib (Liquid); method: Chromatography
Temperature, K	Pressure, kPa	Mole fraction of etoricoxib	uncertainty
298.2	100	1.56e-05	3e-07

System: water + etoricoxib; phases: Liquid
Property: Mass density, kg/m3 (Liquid); method: Pycnometric method
Mole fraction of etoricoxib	Temperature, K	Pressure, kPa	Mass density, kg/m3	uncertainty
1.56e-05	298.2	100	994.8	0.8

System: 1,4-butanediol + etoricoxib; phases: Liquid, Crystal
Property: Mole fraction of etoricoxib (Liquid); method: Chromatography
Temperature, K	Pressure, kPa	Mole fraction of etoricoxib	uncertainty
298.2	100	0.0722576	0.0013096

System: 1,4-butanediol + etoricoxib; phases: Liquid
Property: Mass density, kg/m3 (Liquid); method: Pycnometric method
Mole fraction of etoricoxib	Temperature, K	Pressure, kPa	Mass density, kg/m3	uncertainty
0.0722576	298.2	100	1039.8	0.9

System: 1,4-dioxane + etoricoxib; phases: Liquid, Crystal
Property: Mole fraction of etoricoxib (Liquid); method: Chromatography
Temperature, K	Pressure, kPa	Mole fraction of etoricoxib	uncertainty
298.2	100	0.0730112	0.0013233

System: 1,4-dioxane + etoricoxib; phases: Liquid
Property: Mass density, kg/m3 (Liquid); method: Pycnometric method
Mole fraction of etoricoxib	Temperature, K	Pressure, kPa	Mass density, kg/m3	uncertainty
0.0730112	298.2	100	1026.8	0.9

System: N,N-dimethylethanamide + etoricoxib; phases: Liquid, Crystal
Property: Mole fraction of etoricoxib (Liquid); method: Chromatography
Temperature, K	Pressure, kPa	Mole fraction of etoricoxib	uncertainty
298.2	100	0.0811172	0.0014702

System: N,N-dimethylethanamide + etoricoxib; phases: Liquid
Property: Mass density, kg/m3 (Liquid); method: Pycnometric method
Mole fraction of etoricoxib	Temperature, K	Pressure, kPa	Mass density, kg/m3	uncertainty
0.0811172	298.2	100	942.7	0.8

System: dimethylformamide + etoricoxib; phases: Liquid, Crystal
Property: Mole fraction of etoricoxib (Liquid); method: Chromatography
Temperature, K	Pressure, kPa	Mole fraction of etoricoxib	uncertainty
298.2	100	0.0689875	0.0012504

System: dimethylformamide + etoricoxib; phases: Liquid
Property: Mass density, kg/m3 (Liquid); method: Pycnometric method
Mole fraction of etoricoxib	Temperature, K	Pressure, kPa	Mass density, kg/m3	uncertainty
0.0689875	298.2	100	952.7	0.8

System: dimethyl sulfoxide + etoricoxib; phases: Liquid, Crystal
Property: Mole fraction of etoricoxib (Liquid); method: Chromatography
Temperature, K	Pressure, kPa	Mole fraction of etoricoxib	uncertainty
298.2	100	0.0604427	0.0010955

System: dimethyl sulfoxide + etoricoxib; phases: Liquid
Property: Mass density, kg/m3 (Liquid); method: Pycnometric method
Mole fraction of etoricoxib	Temperature, K	Pressure, kPa	Mass density, kg/m3	uncertainty
0.0604427	298.2	100	1105.6	1

System: ethanol + etoricoxib; phases: Liquid, Crystal
Property: Mole fraction of etoricoxib (Liquid); method: Chromatography
Temperature, K	Pressure, kPa	Mole fraction of etoricoxib	uncertainty
298.2	100	0.0537442	0.0009741

System: ethanol + etoricoxib; phases: Liquid
Property: Mass density, kg/m3 (Liquid); method: Pycnometric method
Mole fraction of etoricoxib	Temperature, K	Pressure, kPa	Mass density, kg/m3	uncertainty
0.0537442	298.2	100	819.9	0.7
