Measured thermophysical data. Liquid-Liquid Equilibrium Data and Correlation for the Quaternary Systems Water + Polyphenol (Hydroquinone, Catechol, and Resorcinol) + Methyl Isobutyl Ketone + Methylbenzene
Source: J. Chem. Eng. Data, 2018, 10.1021/acs.jced.7b00598
Compound 1: 4-methylpentan-2-one, C6H12O, InChI=1S/C6H12O/c1-5(2)4-6(3)7/h5H,4H2,1-3H3, purity 99%
Compound 2: toluene, C7H8, InChI=1S/C7H8/c1-7-5-3-2-4-6-7/h2-6H,1H3, purity 99.9%
Compound 3: water, H2O, InChI=1S/H2O/h1H2, purity 99.9%

System: 4-methylpentan-2-one + toluene + water; phases: Liquid mixture 2, Liquid mixture 1
Property: Mass fraction of water (Liquid mixture 2); method: Chromatography
Property: Mass fraction of water (Liquid mixture 1); method: Chromatography
Property: Mass fraction of 4-methylpentan-2-one (Liquid mixture 1); method: Chromatography
Temperature, K	Mass fraction of 4-methylpentan-2-one	Pressure, kPa	Mass fraction of water	uncertainty	Mass fraction of water	uncertainty	Mass fraction of 4-methylpentan-2-one	uncertainty
298.15	0.01875	100	0.98069	0.00081	0.0236	0.00082	0.91931	
