Measured thermophysical data. Synthesis and Physical and Thermodynamic Properties of Lactic Acid and Malic Acid-Based Natural Deep Eutectic Solvents
Source: J. Chem. Eng. Data, 2018, 10.1021/acs.jced.7b01037
Compound 1: L-histidine, C6H9N3O2, InChI=1S/C6H9N3O2/c7-5(6(10)11)1-4-2-8-3-9-4/h2-3,5H,1,7H2,(H,8,9)(H,10,11)/t5-/m0/s1
Compound 2: (trimethylammonio)acetate, C5H11NO2, InChI=1S/C5H11NO2/c1-6(2,3)4-5(7)8/h4H2,1-3H3
Compound 3: 2-hydroxypropanoic acid, C3H6O3, InChI=1S/C3H6O3/c1-2(4)3(5)6/h2,4H,1H3,(H,5,6), purity 98%
Compound 4: water, H2O, InChI=1S/H2O/h1H2, purity 99.9%
Compound 5: hydroxybutanedioic acid, C4H6O5, InChI=1S/C4H6O5/c5-2(4(8)9)1-3(6)7/h2,5H,1H2,(H,6,7)(H,8,9)
Compound 6: hexadecane, C16H34, InChI=1S/C16H34/c1-3-5-7-9-11-13-15-16-14-12-10-8-6-4-2/h3-16H2,1-2H3
Compound 7: dibutyl phthalate, C16H22O4, InChI=1S/C16H22O4/c1-3-5-11-19-15(17)13-9-7-8-10-14(13)16(18)20-12-6-4-2/h7-10H,3-6,11-12H2,1-2H3

System: hexadecane; phases: Liquid, Gas
Property: Molar enthalpy of vaporization or sublimation, kJ/mol (Liquid); method: Derived by Second law
Temperature, K	Molar enthalpy of vaporization or sublimation, kJ/mol	uncertainty
349.8	72.9	1.7

System: dibutyl phthalate; phases: Liquid, Gas
Property: Molar enthalpy of vaporization or sublimation, kJ/mol (Liquid); method: Derived by Second law
Temperature, K	Molar enthalpy of vaporization or sublimation, kJ/mol	uncertainty
385.63	84.1	1.8

System: 2-hydroxypropanoic acid + (trimethylammonio)acetate + water; phases: Liquid
Fixed: Pressure, kPa = 101.3
Fixed: Mole fraction of 2-hydroxypropanoic acid = 0.4
Fixed: Mole fraction of (trimethylammonio)acetate = 0.2
Property: Viscosity, Pa*s (Liquid); method: Cone and plate viscometry
Temperature, K	Viscosity, Pa*s	uncertainty
293.36	1.21	0.08
294.49	1.13	0.07
296.12	1.03	0.06
297.85	0.91	0.06
299.6	0.81	0.05
301.34	0.72	0.04
303.07	0.64	0.03
304.8	0.57	0.03
306.52	0.51	0.03
308.23	0.45	0.02
309.95	0.4	0.02
311.65	0.36	0.02
313.35	0.32	0.01
315.01	0.29	0.01
316.61	0.26	0.01
318.29	0.24	0.01
320.06	0.21	0.01
321.88	0.19	0.01
323.71	0.17	0.01
325.53	0.16	0.01
327.32	0.14	0.01
329.09	0.13	0.01
330.84	0.12	0.01
332.57	0.11	0.01
334.3	0.1	0.01
336.01	0.09	0.01
337.71	0.09	0.01
339.43	0.08	0.01
341.12	0.07	0.01
342.81	0.07	0.01

System: 2-hydroxypropanoic acid + (trimethylammonio)acetate + water; phases: Liquid
Fixed: Pressure, kPa = 101.3
Fixed: Mole fraction of 2-hydroxypropanoic acid = 0.4
Fixed: Mole fraction of (trimethylammonio)acetate = 0.2
Property: Electrical conductivity, S/m (Liquid); method: Alternating current cell with electrodes
Temperature, K	Electrical conductivity, S/m	uncertainty
293.16	0.0108	0.00159
298.16	0.01433	0.00159
303.26	0.01855	0.00159
307.54	0.02307	0.00159
313.15	0.02887	0.0016
318.16	0.03478	0.0016
323.16	0.04216	0.00161
328.15	0.05133	0.00162
333.15	0.06013	0.00162
338.15	0.06884	0.00162

System: 2-hydroxypropanoic acid + (trimethylammonio)acetate + water; phases: Liquid
Fixed: Pressure, kPa = 101.3
Fixed: Mole fraction of 2-hydroxypropanoic acid = 0.4
Fixed: Mole fraction of (trimethylammonio)acetate = 0.2
Property: Molar heat capacity at constant pressure, J/K/mol (Liquid); method: DSC
Temperature, K	Molar heat capacity at constant pressure, J/K/mol	uncertainty
298.15	109.6	5.5
300.15	114.2	5.7
310.15	116.1	5.8
320.15	117.2	5.9
330.15	119.1	6
340.15	119.9	6
350.15	121.2	6.1
360.15	122.6	6.1

System: 2-hydroxypropanoic acid + L-histidine + water; phases: Liquid
Fixed: Pressure, kPa = 101.3
Fixed: Mole fraction of 2-hydroxypropanoic acid = 0.6
Fixed: Mole fraction of L-histidine = 0.067
Property: Viscosity, Pa*s (Liquid); method: Cone and plate viscometry
Temperature, K	Viscosity, Pa*s	uncertainty
293.36	2.13	0.16
294.49	1.98	0.15
296.12	1.75	0.13
297.85	1.53	0.11
299.6	1.34	0.09
301.34	1.16	0.08
303.07	1.01	0.06
304.8	0.88	0.05
306.52	0.77	0.04
308.23	0.68	0.04
309.95	0.6	0.03
311.65	0.53	0.03
313.35	0.47	0.02
315.01	0.42	0.02
316.61	0.37	0.02
318.29	0.33	0.02
320.06	0.3	0.02
321.88	0.27	0.02
323.71	0.24	0.02
325.53	0.21	0.01
327.32	0.19	0.01
329.09	0.17	0.01
330.84	0.16	0.01
332.57	0.14	0.01
334.3	0.13	0.01
336.01	0.12	0.01
337.71	0.11	0.01
339.43	0.1	0.01
341.12	0.09	0.01
342.81	0.09	0.01

System: 2-hydroxypropanoic acid + L-histidine + water; phases: Liquid
Fixed: Pressure, kPa = 101.3
Fixed: Mole fraction of 2-hydroxypropanoic acid = 0.6
Fixed: Mole fraction of L-histidine = 0.067
Property: Electrical conductivity, S/m (Liquid); method: Alternating current cell with electrodes
Temperature, K	Electrical conductivity, S/m	uncertainty
293.16	0.01426	0.00122
298.16	0.01968	0.00122
303.26	0.02639	0.00123
307.54	0.03266	0.00124
313.15	0.04248	0.00126
318.16	0.05225	0.00127
323.16	0.06352	0.0013
328.15	0.07658	0.00131
333.15	0.08978	0.00132
338.15	0.10379	0.00132

System: 2-hydroxypropanoic acid + L-histidine + water; phases: Liquid
Fixed: Pressure, kPa = 101.3
Fixed: Mole fraction of 2-hydroxypropanoic acid = 0.6
Fixed: Mole fraction of L-histidine = 0.067
Property: Molar heat capacity at constant pressure, J/K/mol (Liquid); method: DSC
Temperature, K	Molar heat capacity at constant pressure, J/K/mol	uncertainty
298.15	159.8	8
300.15	162	8
310.15	161.6	8.1
320.15	164.6	8.2
330.15	167.1	8.4
340.15	170	8.5
350.15	172.2	8.6
360.15	173.1	8.7

System: hydroxybutanedioic acid + (trimethylammonio)acetate + water; phases: Liquid
Fixed: Pressure, kPa = 101.3
Fixed: Mole fraction of hydroxybutanedioic acid = 0.167
Fixed: Mole fraction of (trimethylammonio)acetate = 0.333
Property: Viscosity, Pa*s (Liquid); method: Cone and plate viscometry
Temperature, K	Viscosity, Pa*s	uncertainty
293.36	9.18	0.97
294.49	8.49	0.89
296.12	7.51	0.77
297.85	6.52	0.65
299.6	5.65	0.55
301.34	4.89	0.46
303.07	4.24	0.39
304.8	3.68	0.33
306.52	3.21	0.27
308.23	2.8	0.23
309.95	2.45	0.2
311.65	2.15	0.18
313.35	1.9	0.16
315.01	1.69	0.15
316.61	1.5	0.13
318.29	1.33	0.13
320.06	1.19	0.12
321.88	1.06	0.11
323.71	0.95	0.11
325.53	0.85	0.1
327.32	0.77	0.1
329.09	0.7	0.1
330.84	0.64	0.1
332.57	0.58	0.1
334.3	0.53	0.1
336.01	0.49	0.1
337.71	0.45	0.1
339.43	0.42	0.1
341.12	0.39	0.1
342.81	0.36	0.09

System: hydroxybutanedioic acid + (trimethylammonio)acetate + water; phases: Liquid
Fixed: Pressure, kPa = 101.3
Fixed: Mole fraction of hydroxybutanedioic acid = 0.167
Fixed: Mole fraction of (trimethylammonio)acetate = 0.333
Property: Electrical conductivity, S/m (Liquid); method: Alternating current cell with electrodes
Temperature, K	Electrical conductivity, S/m	uncertainty
293.16	0.00766	0.00123
298.16	0.01059	0.00123
303.26	0.01442	0.00123
307.54	0.01766	0.00123
313.15	0.02288	0.00124
318.16	0.02813	0.00124
323.16	0.03401	0.00125
328.15	0.04057	0.00125
333.15	0.04776	0.00126
338.15	0.05543	0.00126

System: hydroxybutanedioic acid + (trimethylammonio)acetate + water; phases: Liquid
Fixed: Pressure, kPa = 101.3
Fixed: Mole fraction of hydroxybutanedioic acid = 0.167
Fixed: Mole fraction of (trimethylammonio)acetate = 0.333
Property: Molar heat capacity at constant pressure, J/K/mol (Liquid); method: DSC
Temperature, K	Molar heat capacity at constant pressure, J/K/mol	uncertainty
298.15	133.9	6.7
300.15	136	6.8
310.15	136.4	6.8
320.15	137.5	6.9
330.15	139.4	7
340.15	140.5	7
350.15	141.7	7.1
360.15	143.4	7.2
