Measured thermophysical data. Stable Phase Equilibria of the Quaternary System Na+//Cl-, NO3-, SO42--H2O at 353.15 K
Source: J. Chem. Eng. Data, 2018, 10.1021/acs.jced.8b00198
Compound 1: sodium chloride, ClNa, InChI=1S/ClH.Na/h1H;/q;+1/p-1, purity 99.5%
Compound 2: sodium nitrate, NNaO3, InChI=1S/NO3.Na/c2-1(3)4;/q-1;+1, purity 99%
Compound 3: sodium sulfate, Na2O4S, InChI=1S/2Na.H2O4S/c;;1-5(2,3)4/h;;(H2,1,2,3,4)/q2*+1;/p-2, purity 99%
Compound 4: water, H2O, InChI=1S/H2O/h1H2, purity 99.9%

System: sodium chloride + sodium sulfate + water; phases: Liquid
Fixed: Temperature, K = 353.15
Fixed: Pressure, kPa = 100
Property: Mass density, kg/m3 (Liquid); method: Pycnometric method
Mass fraction of sodium chloride	Mass fraction of sodium sulfate	Mass density, kg/m3	uncertainty
0	0.3038	1254	6.7
0.0168	0.2722	1236.4	6.1
0.032	0.2567	1234.2	5.8
0.0604	0.2199	1222.1	5.2
0.0901	0.1825	1210.6	4.7
0.1237	0.1439	1201.5	4.2
0.1611	0.1029	1193.4	4.1
0.1849	0.0899	1201.4	4.3
0.2119	0.0698	1205.1	4.5
0.2361	0.0557	1212.4	4.8
0.2557	0.0453	1219.4	5.1
0.2677	0.0291	1213.7	5.3
0.2726	0.0146	1203.3	5.2
0.2775	0	1193	5.3

System: sodium chloride + sodium sulfate + water; phases: Liquid, Crystal
Fixed: Temperature, K = 353.15
Fixed: Pressure, kPa = 100
Property: Mass fraction of sodium sulfate (Liquid); method: Titration, ion chromatography, and gravimetry
Mass fraction of sodium chloride	Mass fraction of sodium sulfate	uncertainty
0	0.3038	0.0061
0.0168	0.2722	0.0055
0.032	0.2567	0.0052
0.0604	0.2199	0.0047
0.0901	0.1825	0.0043
0.1237	0.1439	0.004
0.1611	0.1029	0.0036
0.1849	0.0899	0.003
0.2119	0.0698	0.0032
0.2361	0.0557	0.0029
0.2557	0.0453	0.0029

System: sodium chloride + sodium sulfate + water; phases: Liquid, Crystal
Fixed: Temperature, K = 353.15
Fixed: Pressure, kPa = 100
Property: Mass fraction of sodium sulfate (Liquid); method: Titration, ion chromatography, and gravimetry
Mass fraction of sodium chloride	Mass fraction of sodium sulfate	uncertainty
0.2557	0.0453	0.007
0.2677	0.0291	0.0093
0.2726	0.0146	0.0146
0.2775	0	

System: sodium chloride + sodium nitrate + water; phases: Liquid
Fixed: Temperature, K = 353.15
Fixed: Pressure, kPa = 100
Property: Mass density, kg/m3 (Liquid); method: Pycnometric method
Mass fraction of sodium chloride	Mass fraction of sodium nitrate	Mass density, kg/m3	uncertainty
0.2775	0	1193	4.7
0.2597	0.035	1206.6	4.4
0.2445	0.0646	1218.1	4.3
0.2159	0.1298	1248.4	5.4
0.1931	0.1831	1274.2	5.1
0.1721	0.2325	1298.8	12.9
0.1539	0.2787	1323.6	33.5
0.1356	0.3255	1349.3	15.3
0.1208	0.3541	1361.6	17.5
0.1092	0.3885	1382.9	19.7
0.1014	0.4183	1404	20.4
0.0903	0.4555	1429.3	23.1
0.0812	0.4904	1454.8	24.7
0.0702	0.5166	1469.7	24.5
0.0438	0.5505	1476	22.6
0.0172	0.5777	1475.1	21.2
0	0.5977	1477	20.2

System: sodium chloride + sodium nitrate + water; phases: Liquid, Crystal
Fixed: Temperature, K = 353.15
Fixed: Pressure, kPa = 100
Property: Mass fraction of sodium nitrate (Liquid); method: Titration, ion chromatography, and gravimetry
Mass fraction of sodium chloride	Mass fraction of sodium nitrate	uncertainty
0.2775	0	
0.2597	0.035	0.0103
0.2445	0.0646	0.0111
0.2159	0.1298	0.0119
0.1931	0.1831	0.0129
0.1721	0.2325	0.0143
0.1539	0.2787	0.016
0.1356	0.3255	0.0174
0.1208	0.3541	0.0186
0.1092	0.3885	0.0207
0.1014	0.4183	0.0221
0.0903	0.4555	0.0237
0.0812	0.4904	0.025
0.0702	0.5166	0.0244

System: sodium chloride + sodium nitrate + water; phases: Liquid, Crystal
Fixed: Temperature, K = 353.15
Fixed: Pressure, kPa = 100
Property: Mass fraction of sodium nitrate (Liquid); method: Titration, ion chromatography, and gravimetry
Mass fraction of sodium chloride	Mass fraction of sodium nitrate	uncertainty
0.0702	0.5166	0.0243
0.0438	0.5505	0.0225
0.0172	0.5777	0.0212
0	0.5977	0.0202

System: sodium nitrate + sodium sulfate + water; phases: Liquid
Fixed: Temperature, K = 353.15
Fixed: Pressure, kPa = 100
Property: Mass density, kg/m3 (Liquid); method: Pycnometric method
Mass fraction of sodium nitrate	Mass fraction of sodium sulfate	Mass density, kg/m3	uncertainty
0	0.3038	1254	2.2
0.0401	0.2676	1251.1	6.3
0.0752	0.2467	1260	6.6
0.1453	0.1875	1259.2	7.9
0.2058	0.1483	1271.2	10.3
0.2637	0.1141	1286.4	12.7
0.3086	0.0875	1298.2	14.6
0.3745	0.0712	1341	17.6
0.4168	0.0566	1364.5	18.3
0.4481	0.0445	1380.7	21.9
0.4651	0.0392	1391	20.8
0.4803	0.0339	1399.7	23.9
0.5098	0.0287	1422.7	25
0.5185	0.0277	1430.2	24.1
0.561	0.0186	1462.2	22.6
0.5781	0.0179	1478.9	21.9
0.5859	0.0101	1477.3	21.4
0.5977	0	1477	20.5
0.5718	0.0179	1472.4	22.1

System: sodium nitrate + sodium sulfate + water; phases: Liquid, Crystal
Fixed: Temperature, K = 353.15
Fixed: Pressure, kPa = 100
Property: Mass fraction of sodium sulfate (Liquid); method: Titration, ion chromatography, and gravimetry
Mass fraction of sodium nitrate	Mass fraction of sodium sulfate	uncertainty
0	0.3038	0.0061
0.0401	0.2676	0.0056
0.0752	0.2467	0.0058
0.1453	0.1875	0.0067
0.2058	0.1483	0.007
0.2637	0.1141	0.0081
0.3086	0.0875	0.0061
0.3745	0.0712	0.0055
0.4168	0.0566	0.0076
0.4481	0.0445	0.0082
0.4651	0.0392	0.0077
0.4803	0.0339	0.0055
0.5098	0.0287	0.0041
0.5185	0.0277	0.0028
0.561	0.0186	0.0042
0.5781	0.0179	0.0004
0.5718	0.0179	0.001

System: sodium nitrate + sodium sulfate + water; phases: Liquid, Crystal
Fixed: Temperature, K = 353.15
Fixed: Pressure, kPa = 100
Property: Mass fraction of sodium sulfate (Liquid); method: Titration, ion chromatography, and gravimetry
Mass fraction of sodium nitrate	Mass fraction of sodium sulfate	uncertainty
0.5781	0.0179	0.012
0.5859	0.0101	0.0101
0.5977	0	
0.5718	0.0179	0.0004

System: sodium sulfate + water; phases: Liquid
Property: Mass density, kg/m3 (Liquid); method: Pycnometric method
Mass fraction of sodium sulfate	Temperature, K	Pressure, kPa	Mass density, kg/m3	uncertainty
0.3038	353.15	100	1254	2.2

System: sodium sulfate + water; phases: Liquid, Crystal
Property: Mass fraction of sodium sulfate (Liquid); method: Titration, ion chromatography, and gravimetry
Temperature, K	Pressure, kPa	Mass fraction of sodium sulfate	uncertainty
353.15	100	0.3038	0.0061

System: sodium chloride + water; phases: Liquid
Property: Mass density, kg/m3 (Liquid); method: Pycnometric method
Mass fraction of sodium chloride	Temperature, K	Pressure, kPa	Mass density, kg/m3	uncertainty
0.2775	353.15	100	1193	2.2

System: sodium chloride + water; phases: Liquid, Crystal
Property: Mass fraction of sodium chloride (Liquid); method: Titration, ion chromatography, and gravimetry
Temperature, K	Pressure, kPa	Mass fraction of sodium chloride	uncertainty
353.15	100	0.2775	0.0056

System: sodium nitrate + water; phases: Liquid
Property: Mass density, kg/m3 (Liquid); method: Pycnometric method
Mass fraction of sodium nitrate	Temperature, K	Pressure, kPa	Mass density, kg/m3	uncertainty
0.5977	353.15	100	1477	3.6

System: sodium nitrate + water; phases: Liquid, Crystal
Property: Mass fraction of sodium nitrate (Liquid); method: Titration, ion chromatography, and gravimetry
Temperature, K	Pressure, kPa	Mass fraction of sodium nitrate	uncertainty
353.15	100	0.5977	0.0202
