Measured thermophysical data. Measurements of (Solid + Liquid) Phase Equilibria in the Quaternary System NaBr + KBr + SrBr2 + H2O and Two Subsystems NaBr + SrBr2 + H2O and KBr + SrBr2 + H2O at T = 323 K
Source: J. Chem. Eng. Data, 2017, 10.1021/acs.jced.7b00273
Compound 1: sodium bromide, BrNa, InChI=1S/BrH.Na/h1H;/q;+1/p-1, purity 99%
Compound 2: potassium bromide, BrK, InChI=1S/BrH.K/h1H;/q;+1/p-1, purity 99%
Compound 3: strontium bromide (SrBr2), Br2Sr, InChI=1S/2BrH.Sr/h2*1H;/q;;+2/p-2, purity 99%
Compound 4: water, H2O, InChI=1S/H2O/h1H2, purity 99.8%

System: potassium bromide + strontium bromide (SrBr2) + water; phases: Liquid, Crystal
Fixed: Temperature, K = 323
Fixed: Pressure, kPa = 100
Property: Mass fraction of strontium bromide (SrBr2) (Liquid); method: Titration method
Mass fraction of potassium bromide	Mass fraction of strontium bromide (SrBr2)	uncertainty
0.446	0	
0.4165	0.0306	0.013
0.3867	0.0686	0.0136
0.3459	0.1167	0.0131
0.3012	0.1682	0.013
0.2783	0.1943	0.0131
0.243	0.2357	0.0132
0.2046	0.2805	0.0139
0.1577	0.3424	0.016
0.12	0.4063	0.0185
0.0876	0.4654	0.021
0.0703	0.5076	0.0251

System: potassium bromide + strontium bromide (SrBr2) + water; phases: Liquid, Crystal of intercomponent compound 1
Fixed: Temperature, K = 323
Fixed: Pressure, kPa = 100
Property: Mass fraction of strontium bromide (SrBr2) (Liquid); method: Titration method
Mass fraction of potassium bromide	Mass fraction of strontium bromide (SrBr2)	uncertainty
0.0703	0.5076	0.0105
0.068	0.5079	0.0097
0.0596	0.5168	0.0094
0.0213	0.5429	0.0113
0	0.5753	0.0061

System: sodium bromide + potassium bromide + water; phases: Liquid, Crystal
Property: Mass fraction of potassium bromide (Liquid); method: Titration method
Mass fraction of sodium bromide	Temperature, K	Pressure, kPa	Mass fraction of potassium bromide	uncertainty
0.4858	323	100	0.081	0.006

System: sodium bromide + potassium bromide + water; phases: Liquid, Crystal of intercomponent compound 1
Property: Mass fraction of potassium bromide (Liquid); method: Titration method
Mass fraction of sodium bromide	Temperature, K	Pressure, kPa	Mass fraction of potassium bromide	uncertainty
0.4858	323	100	0.081	0.006

System: sodium bromide + strontium bromide (SrBr2) + water; phases: Liquid, Crystal of intercomponent compound 1
Fixed: Temperature, K = 323
Fixed: Pressure, kPa = 100
Property: Mass fraction of strontium bromide (SrBr2) (Liquid); method: Titration method
Mass fraction of sodium bromide	Mass fraction of strontium bromide (SrBr2)	uncertainty
0.5427	0	
0.5066	0.0387	0.0123
0.4986	0.0494	0.0123
0.4806	0.0664	0.0129
0.4453	0.1096	0.0129
0.4083	0.1489	0.0121
0.3741	0.1847	0.0128
0.3112	0.2578	0.0128
0.258	0.3151	0.0133
0.2269	0.3587	0.0137
0.1912	0.3978	0.0125

System: sodium bromide + strontium bromide (SrBr2) + water; phases: Liquid, Crystal of intercomponent compound 2
Fixed: Temperature, K = 323
Fixed: Pressure, kPa = 100
Property: Mass fraction of strontium bromide (SrBr2) (Liquid); method: Titration method
Mass fraction of sodium bromide	Mass fraction of strontium bromide (SrBr2)	uncertainty
0.1912	0.3978	0.0109
0.1715	0.4157	0.01
0.1554	0.4259	0.0096
0.1138	0.4584	0.0099
0.0849	0.4813	0.0117
0.047	0.5247	0.0126
0	0.5753	0.0061

System: potassium bromide + water; phases: Liquid, Crystal
Property: Mass fraction of potassium bromide (Liquid); method: Titration method
Temperature, K	Pressure, kPa	Mass fraction of potassium bromide	uncertainty
323	100	0.446	0.01

System: strontium bromide (SrBr2) + water; phases: Liquid, Crystal of intercomponent compound 1
Property: Mass fraction of strontium bromide (SrBr2) (Liquid); method: Titration method
Temperature, K	Pressure, kPa	Mass fraction of strontium bromide (SrBr2)	uncertainty
323	100	0.5753	0.0061

System: strontium bromide (SrBr2) + water; phases: Liquid, Crystal of intercomponent compound 2
Property: Mass fraction of strontium bromide (SrBr2) (Liquid); method: Titration method
Temperature, K	Pressure, kPa	Mass fraction of strontium bromide (SrBr2)	uncertainty
323	100	0.5753	0.0061

System: sodium bromide + water; phases: Liquid, Crystal of intercomponent compound 1
Property: Mass fraction of sodium bromide (Liquid); method: Titration method
Temperature, K	Pressure, kPa	Mass fraction of sodium bromide	uncertainty
323	100	0.5427	0.0101
