Measured thermophysical data. Solubility Determination of 1,5-Naphthalenediamine and 1,8-Naphthalenediamine in Different Solvents and Mixing Properties of Solutions
Source: J. Chem. Eng. Data, 2019, 10.1021/acs.jced.8b01214
Compound 1: 1,5-diaminonaphthalene, C10H10N2, InChI=1S/C10H10N2/c11-9-5-1-3-7-8(9)4-2-6-10(7)12/h1-6H,11-12H2, purity 99.7%
Compound 2: 1,8-diaminonaphthalene, C10H10N2, InChI=1S/C10H10N2/c11-8-5-1-3-7-4-2-6-9(12)10(7)8/h1-6H,11-12H2, purity 99.6%
Compound 3: methanol, CH4O, InChI=1S/CH4O/c1-2/h2H,1H3, purity 99.7%
Compound 4: acetonitrile, C2H3N, InChI=1S/C2H3N/c1-2-3/h1H3, purity 99.5%
Compound 5: propan-1-ol, C3H8O, InChI=1S/C3H8O/c1-2-3-4/h4H,2-3H2,1H3, purity 99.5%
Compound 6: propan-2-ol, C3H8O, InChI=1S/C3H8O/c1-3(2)4/h3-4H,1-2H3, purity 99.6%
Compound 7: toluene, C7H8, InChI=1S/C7H8/c1-7-5-3-2-4-6-7/h2-6H,1H3, purity 99.6%
Compound 8: ethyl acetate, C4H8O2, InChI=1S/C4H8O2/c1-3-6-4(2)5/h3H2,1-2H3, purity 99.5%

System: 1,5-diaminonaphthalene + methanol; phases: Liquid, Crystal
Fixed: Pressure, kPa = 101.2
Property: Mole fraction of 1,5-diaminonaphthalene (Liquid); method: Chromatography
Temperature, K	Mole fraction of 1,5-diaminonaphthalene	uncertainty
273.15	0.001118	0.000116
278.15	0.001319	0.000137
283.15	0.001544	0.000161
288.15	0.001813	0.000189
293.15	0.002091	0.000218
298.15	0.002397	0.000249
303.15	0.002783	0.00029
308.15	0.003205	0.000333
313.15	0.003688	0.000384

System: 1,5-diaminonaphthalene + propan-1-ol; phases: Liquid, Crystal
Fixed: Pressure, kPa = 101.2
Property: Mole fraction of 1,5-diaminonaphthalene (Liquid); method: Chromatography
Temperature, K	Mole fraction of 1,5-diaminonaphthalene	uncertainty
273.15	0.0006401	6.66e-05
278.15	0.000762	7.9e-05
283.15	0.0008949	9.31e-05
288.15	0.00105	0.00011
293.15	0.001219	0.000127
298.15	0.001417	0.000147
303.15	0.001654	0.000172
308.15	0.001917	0.000199
313.15	0.002244	0.000233

System: 1,5-diaminonaphthalene + propan-2-ol; phases: Liquid, Crystal
Fixed: Pressure, kPa = 101.2
Property: Mole fraction of 1,5-diaminonaphthalene (Liquid); method: Chromatography
Temperature, K	Mole fraction of 1,5-diaminonaphthalene	uncertainty
273.15	0.0004711	4.9e-05
278.15	0.0005643	5.87e-05
283.15	0.0006841	7.12e-05
288.15	0.0008073	8.4e-05
293.15	0.000947	9.9e-05
298.15	0.0011	0.0001
303.15	0.001261	0.000131
308.15	0.00144	0.00015
313.15	0.001631	0.00017

System: 1,5-diaminonaphthalene + toluene; phases: Liquid, Crystal
Fixed: Pressure, kPa = 101.2
Property: Mole fraction of 1,5-diaminonaphthalene (Liquid); method: Chromatography
Temperature, K	Mole fraction of 1,5-diaminonaphthalene	uncertainty
273.15	0.0002617	2.72e-05
278.15	0.0003446	3.59e-05
283.15	0.000445	4.6e-05
288.15	0.0005596	5.82e-05
293.15	0.0006893	7.17e-05
298.15	0.0008396	8.73e-05
303.15	0.001015	0.000106
308.15	0.001195	0.000124
313.15	0.0014	0.0002

System: 1,5-diaminonaphthalene + ethyl acetate; phases: Liquid, Crystal
Fixed: Pressure, kPa = 101.2
Property: Mole fraction of 1,5-diaminonaphthalene (Liquid); method: Chromatography
Temperature, K	Mole fraction of 1,5-diaminonaphthalene	uncertainty
273.15	0.004041	0.00042
278.15	0.004871	0.000507
283.15	0.005688	0.000592
288.15	0.006615	0.000688
293.15	0.007592	0.00079
298.15	0.008693	0.000904
303.15	0.009917	0.001032
308.15	0.01131	0.00118
313.15	0.01284	0.00134

System: 1,5-diaminonaphthalene + acetonitrile; phases: Liquid, Crystal
Fixed: Pressure, kPa = 101.2
Property: Mole fraction of 1,5-diaminonaphthalene (Liquid); method: Chromatography
Temperature, K	Mole fraction of 1,5-diaminonaphthalene	uncertainty
273.15	0.001855	0.000193
278.15	0.002385	0.000248
283.15	0.003055	0.000318
288.15	0.003824	0.000398
293.15	0.004774	0.000497
298.15	0.005775	0.000601
303.15	0.006948	0.000723
308.15	0.008341	0.000868
313.15	0.009835	0.001023

System: 1,8-diaminonaphthalene + methanol; phases: Liquid, Crystal
Fixed: Pressure, kPa = 101.2
Property: Mole fraction of 1,8-diaminonaphthalene (Liquid); method: Chromatography
Temperature, K	Mole fraction of 1,8-diaminonaphthalene	uncertainty
273.15	0.01795	0.00187
278.15	0.02191	0.00228
283.15	0.02674	0.00278
288.15	0.03271	0.0034
293.15	0.03909	0.00407
298.15	0.04673	0.00486
303.15	0.0551	0.0057
308.15	0.06471	0.00673
313.15	0.07544	0.00785

System: 1,8-diaminonaphthalene + propan-1-ol; phases: Liquid, Crystal
Fixed: Pressure, kPa = 101.2
Property: Mole fraction of 1,8-diaminonaphthalene (Liquid); method: Chromatography
Temperature, K	Mole fraction of 1,8-diaminonaphthalene	uncertainty
273.15	0.03848	0.004
278.15	0.04842	0.00504
283.15	0.05943	0.00618
288.15	0.07179	0.00747
293.15	0.08679	0.00903
298.15	0.1028	0.0107
303.15	0.1211	0.0126
308.15	0.1421	0.0148
313.15	0.1659	0.0173

System: 1,8-diaminonaphthalene + propan-2-ol; phases: Liquid, Crystal
Fixed: Pressure, kPa = 101.2
Property: Mole fraction of 1,8-diaminonaphthalene (Liquid); method: Chromatography
Temperature, K	Mole fraction of 1,8-diaminonaphthalene	uncertainty
273.15	0.02209	0.0023
278.15	0.02768	0.00288
283.15	0.03383	0.00352
288.15	0.04071	0.00424
293.15	0.04915	0.00511
298.15	0.05884	0.00612
303.15	0.06876	0.00715
308.15	0.08071	0.0084
313.15	0.09358	0.00973

System: 1,8-diaminonaphthalene + toluene; phases: Liquid, Crystal
Fixed: Pressure, kPa = 101.2
Property: Mole fraction of 1,8-diaminonaphthalene (Liquid); method: Chromatography
Temperature, K	Mole fraction of 1,8-diaminonaphthalene	uncertainty
273.15	0.04226	0.0044
278.15	0.05125	0.00533
283.15	0.06535	0.0068
288.15	0.0803	0.0084
293.15	0.0966	0.01
298.15	0.1169	0.0122
303.15	0.1379	0.0143
308.15	0.1627	0.0169
313.15	0.1891	0.0197

System: 1,8-diaminonaphthalene + ethyl acetate; phases: Liquid, Crystal
Fixed: Pressure, kPa = 101.2
Property: Mole fraction of 1,8-diaminonaphthalene (Liquid); method: Chromatography
Temperature, K	Mole fraction of 1,8-diaminonaphthalene	uncertainty
273.15	0.0765	0.008
278.15	0.09095	0.00946
283.15	0.1068	0.0111
288.15	0.1269	0.0132
293.15	0.1517	0.0158
298.15	0.179	0.019
303.15	0.2116	0.022
308.15	0.2519	0.0262
313.15	0.2947	0.0307

System: 1,8-diaminonaphthalene + acetonitrile; phases: Liquid, Crystal
Fixed: Pressure, kPa = 101.2
Property: Mole fraction of 1,8-diaminonaphthalene (Liquid); method: Chromatography
Temperature, K	Mole fraction of 1,8-diaminonaphthalene	uncertainty
273.15	0.05181	0.00539
278.15	0.065	0.007
283.15	0.07981	0.0083
288.15	0.09661	0.01005
293.15	0.1158	0.012
298.15	0.1392	0.0145
303.15	0.1664	0.0173
308.15	0.1967	0.0205
313.15	0.2313	0.0241
