Measured thermophysical data. Surface Tension of Supercooled Water: Inflection Point-Free Course down to 250 K Confirmed Using a Horizontal Capillary Tube
Source: J. Chem. Eng. Data, 2017, 10.1021/acs.jced.7b00519
Compound 1: water, H2O, InChI=1S/H2O/h1H2, purity 99.9%

System: water; phases: Metastable liquid, Gas
Property: Surface tension liquid-gas, N/m (Metastable liquid); method: horizontal capillary tube
Temperature, K	Surface tension liquid-gas, N/m	uncertainty
250.82	0.07872	0.00078
250.82	0.07877	0.00078
253.79	0.07834	0.00078
253.81	0.07827	0.00078
256.33	0.07791	0.00078
256.34	0.07797	0.00078
258.8	0.07763	0.00078
258.81	0.07761	0.00078
258.81	0.07761	0.00078
263.26	0.077	0.00076
263.27	0.07701	0.00076
268.21	0.07634	0.00076
268.21	0.0763	0.00076
279.56	0.07468	0.00074
279.58	0.07474	0.00074
292	0.07291	0.00074
292	0.07288	0.00074
293.63	0.0727	0.00076
293.63	0.07267	0.00076
251.37	0.07869	0.0008
251.37	0.07866	0.0008
251.39	0.07868	0.0008
253.36	0.07837	0.00078
253.36	0.0784	0.00078
255.29	0.07803	0.0008
255.32	0.07813	0.00078
255.33	0.07815	0.00078
255.34	0.0781	0.00078
259.3	0.07759	0.00078
259.3	0.0776	0.00078
262.27	0.07723	0.00078
262.28	0.07721	0.00078
266.23	0.0766	0.00076
266.23	0.07658	0.00076
269.18	0.07623	0.00076
269.19	0.07624	0.00076
269.36	0.07619	0.00076
272.68	0.07572	0.00076
272.69	0.07575	0.00076
278.09	0.07496	0.00074
278.11	0.07498	0.00074
283.5	0.07417	0.00074
283.59	0.07417	0.00074
283.6	0.07415	0.00074
283.67	0.07415	0.00074
250.8	0.07872	0.00078
250.81	0.07872	0.00078
250.82	0.07869	0.00078
252.88	0.07838	0.00078
252.88	0.0784	0.00078
252.88	0.07841	0.00078
255.34	0.07807	0.00078
255.34	0.07805	0.00078
255.34	0.07806	0.00078
257.83	0.07772	0.00078
257.83	0.07772	0.00078
257.84	0.07775	0.00078
261.8	0.07724	0.00076
261.81	0.0772	0.00076
265.76	0.07661	0.00076
265.76	0.07668	0.00076
265.76	0.07664	0.00076
269.69	0.0761	0.00076
273.56	0.07562	0.00074
273.64	0.07558	0.00074
281.55	0.07441	0.00074
293.66	0.07267	0.00074
293.66	0.0727	0.00074
252.81	0.07839	0.00078
252.82	0.07847	0.00078
256.87	0.07786	0.00078
256.87	0.07787	0.00078
260.83	0.07735	0.00078
260.84	0.07736	0.00078
265.74	0.07671	0.00078
265.75	0.07675	0.00078
270.65	0.07602	0.00076
270.67	0.07602	0.00076
276.61	0.07519	0.00076
276.63	0.07519	0.00076
276.63	0.07516	0.00076
280.58	0.07459	0.00074
280.59	0.07456	0.00074
280.59	0.07458	0.00074
295.63	0.07236	0.00074
295.65	0.07233	0.00074
250.79	0.07885	0.0008
252.86	0.07851	0.0008
252.86	0.07848	0.0008
252.86	0.07847	0.0008
255.84	0.07805	0.00078
255.84	0.07806	0.00078
255.85	0.07807	0.00078
259.8	0.07754	0.00078
259.8	0.0775	0.00078
263.76	0.07693	0.00078
263.77	0.07691	0.00078
263.77	0.07687	0.00078
266.74	0.07655	0.00076
266.74	0.07654	0.00076
270.17	0.07605	0.00076
275.62	0.07524	0.00076
275.63	0.07528	0.00076
275.63	0.07524	0.00076
282.06	0.07439	0.00074
282.06	0.07437	0.00074
284.61	0.07414	0.00074
284.62	0.07411	0.00074
249.9	0.07888	0.0008
249.9	0.07887	0.0008
249.91	0.07891	0.0008
251.91	0.07865	0.0008
251.92	0.07865	0.0008
254.9	0.0783	0.0008
254.91	0.07828	0.0008
257.87	0.07794	0.0008
257.88	0.07792	0.0008
262.82	0.07704	0.00078
262.82	0.07706	0.00078
262.83	0.07707	0.00078
265.77	0.0766	0.00078
265.78	0.07661	0.00078
265.78	0.07661	0.00078
268.7	0.07622	0.0008
273.61	0.07556	0.00078
273.69	0.07561	0.00078
273.69	0.07564	0.00078
