Measured thermophysical data. Phase Behavior of CO2 in Monoethylene Glycol between 263.15-343.15 K and 0.2-40.3 MPa: An Experimental and Modeling Approach
Source: J. Chem. Eng. Data, 2017, 10.1021/acs.jced.7b00537
Compound 1: 1,2-ethanediol, C2H6O2, InChI=1S/C2H6O2/c3-1-2-4/h3-4H,1-2H2, purity 99.9%
Compound 2: carbon dioxide, CO2, InChI=1S/CO2/c2-1-3, purity 99.99%

System: 1,2-ethanediol + carbon dioxide; phases: Liquid, Gas
Property: Mole fraction of carbon dioxide (Liquid); method: volumetric
Temperature, K	Pressure, kPa	Mole fraction of carbon dioxide	uncertainty
263.15	160	0.0069	0.0037
263.15	690	0.031	0.0039
263.15	830	0.0359	0.0034
273.15	480	0.0165	0.0029
273.15	1040	0.0369	0.0034
273.15	1740	0.0609	0.0041
273.15	3540	0.1199	0.0068
283.15	590	0.0172	0.0025
283.15	1610	0.0474	0.0033
283.15	3520	0.0981	0.0055
283.15	4520	0.1226	0.0067
297.75	490	0.0109	0.0013
297.75	1010	0.0193	0.002
297.75	6460	0.1135	0.006
298.15	850	0.0157	0.002
298.15	850	0.0175	0.0019
298.15	1850	0.0378	0.0026
298.15	1880	0.0393	0.0026
298.15	850	0.0157	0.002
298.15	850	0.0175	0.0019
298.15	1850	0.0378	0.0026
298.15	1880	0.0393	0.0026
298.15	2540	0.0512	0.0029
298.15	3020	0.0578	0.0034
298.15	3850	0.0768	0.0043
298.15	3920	0.0793	0.0044
298.15	5410	0.1045	0.0056
298.15	6380	0.1175	0.0064
323.15	430	0.007	0.0017
323.15	450	0.0069	0.0017
323.15	1500	0.0277	0.0018
323.15	1530	0.0229	0.0016
323.15	2540	0.0353	0.002
323.15	3730	0.0475	0.0027
323.15	3740	0.0513	0.003
323.15	10340	0.1011	0.0053
323.15	10400	0.0985	0.0052
323.15	15230	0.115	0.006
323.15	15280	0.1164	0.0061
323.15	23440	0.1281	0.0067
323.15	23570	0.1289	0.0068
343.15	530	0.0052	0.0009
343.15	1360	0.0143	0.001
343.15	1910	0.0173	0.0012
343.15	3590	0.0367	0.0021
343.15	7030	0.0702	0.0037
343.15	8140	0.078	0.0041
343.15	12490	0.105	0.0055
343.15	18140	0.1256	0.0066
343.15	26750	0.1406	0.0074
343.15	36625	0.1461	0.0076
343.15	40314	0.1485	0.0078

System: 1,2-ethanediol + carbon dioxide; phases: Liquid mixture 1, Liquid mixture 2
Property: Mole fraction of carbon dioxide (Liquid mixture 1); method: volumetric
Temperature, K	Pressure, kPa	Mole fraction of carbon dioxide	uncertainty
263.15	2690	0.1301	0.0073
263.15	3710	0.1251	0.007
263.15	8230	0.1308	0.0073
263.15	12270	0.1354	0.0076
263.15	24990	0.1435	0.0081
273.15	7300	0.1253	0.007
273.15	11980	0.1303	0.0073
273.15	17730	0.1337	0.0075
273.15	25920	0.135	0.0076
283.15	16570	0.1327	0.0075
283.15	20330	0.1339	0.0075
297.75	10430	0.1202	0.0068
297.75	17840	0.1267	0.0071
297.75	21070	0.1308	0.0073
298.15	6450	0.118	0.0067
298.15	6840	0.1213	0.0068
298.15	7250	0.1176	0.0066
298.15	7410	0.116	0.0066
298.15	8090	0.1181	0.0066
298.15	10690	0.1196	0.0068
298.15	11200	0.1253	0.0071
298.15	13270	0.1256	0.0071
298.15	13270	0.1256	0.0071
298.15	14730	0.1261	0.0071
298.15	14800	0.1253	0.007
298.15	19080	0.1313	0.0074
298.15	19390	0.1319	0.0074
298.15	23570	0.1332	0.0075
