Measured thermophysical data. Solid Liquid Equilibrium in the Aqueous System Containing the Borates of Potassium, Rubidium, and Magnesium at 348 K
Source: J. Chem. Eng. Data, 2015, 10.1021/acs.jced.5b00455
Compound 1: water, H2O, InChI=1S/H2O/h1H2, purity 99.8%
Compound 2: potassium tetraborate, B4K2O7, InChI=1S/B4O7.2K/c5-1-7-3-9-2(6)10-4(8-1)11-3;;/q-2;2*+1
Compound 3: magnesium tetraborate, B4MgO7, InChI=1S/B4O7.Mg/c5-1-7-3-9-2(6)10-4(8-1)11-3;/q-2;+2
Compound 4: dirubidium tetraborate, B4O7Rb2, InChI=1S/B4O7.2Rb/c5-1-7-3-9-2(6)10-4(8-1)11-3;;/q-2;2*+1

System: water + magnesium tetraborate + dirubidium tetraborate; phases: Liquid
Property: Mass density, kg/m3 (Liquid); method: Pycnometric method
Mass fraction of dirubidium tetraborate	Mass fraction of magnesium tetraborate	Temperature, K	Pressure, kPa	Mass density, kg/m3	uncertainty
0.0379	0.0375	348	100	1142.4	5

System: water + magnesium tetraborate + dirubidium tetraborate; phases: Liquid
Property: Refractive index (Na D-line) (Liquid); method: Standard Abbe refractometry
Mass fraction of dirubidium tetraborate	Mass fraction of magnesium tetraborate	Temperature, K	Pressure, kPa	Refractive index (Na D-line)	uncertainty
0.0379	0.0375	348	100	1.3404	0.0007

System: water + magnesium tetraborate + dirubidium tetraborate; phases: Liquid, Crystal of intercomponent compound 1
Property: Mass fraction of magnesium tetraborate (Liquid); method: Titration method
Mass fraction of dirubidium tetraborate	Temperature, K	Pressure, kPa	Mass fraction of magnesium tetraborate	uncertainty
0.0379	348	100	0.0375	0.0004

System: potassium tetraborate + water + dirubidium tetraborate; phases: Liquid
Property: Mass density, kg/m3 (Liquid); method: Pycnometric method
Mass fraction of potassium tetraborate	Mass fraction of dirubidium tetraborate	Temperature, K	Pressure, kPa	Mass density, kg/m3	uncertainty
0.3647	0.0753	348	100	1598.9	7

System: potassium tetraborate + water + dirubidium tetraborate; phases: Liquid
Property: Refractive index (Na D-line) (Liquid); method: Standard Abbe refractometry
Mass fraction of potassium tetraborate	Mass fraction of dirubidium tetraborate	Temperature, K	Pressure, kPa	Refractive index (Na D-line)	uncertainty
0.3647	0.0753	348	100	1.408	0.0007

System: potassium tetraborate + water + dirubidium tetraborate; phases: Liquid, Crystal of intercomponent compound 1
Property: Mass fraction of dirubidium tetraborate (Liquid); method: Titration method
Mass fraction of potassium tetraborate	Temperature, K	Pressure, kPa	Mass fraction of dirubidium tetraborate	uncertainty
0.3647	348	100	0.0753	0.0008

System: potassium tetraborate + water + magnesium tetraborate; phases: Liquid
Property: Mass density, kg/m3 (Liquid); method: Pycnometric method
Mass fraction of potassium tetraborate	Mass fraction of magnesium tetraborate	Temperature, K	Pressure, kPa	Mass density, kg/m3	uncertainty
0.4228	0.0811	348	100	1563.4	6.9

System: potassium tetraborate + water + magnesium tetraborate; phases: Liquid
Property: Refractive index (Na D-line) (Liquid); method: Standard Abbe refractometry
Mass fraction of potassium tetraborate	Mass fraction of magnesium tetraborate	Temperature, K	Pressure, kPa	Refractive index (Na D-line)	uncertainty
0.4228	0.0811	348	100	1.4128	0.0007

System: potassium tetraborate + water + magnesium tetraborate; phases: Liquid, Crystal of intercomponent compound 1
Property: Mass fraction of magnesium tetraborate (Liquid); method: Titration method
Mass fraction of potassium tetraborate	Temperature, K	Pressure, kPa	Mass fraction of magnesium tetraborate	uncertainty
0.4228	348	100	0.0811	0.0008
