Measured thermophysical data. Solubilities of Diethyl Phthalate, Dicyclopentadiene, and Styrene in Ionic Liquid 1-Ethyl-3-methylimidazolium Acetate
Source: J. Chem. Eng. Data, 2017, 10.1021/acs.jced.6b00901
Compound 1: diethyl phthalate, C12H14O4, InChI=1S/C12H14O4/c1-3-15-11(13)9-7-5-6-8-10(9)12(14)16-4-2/h5-8H,3-4H2,1-2H3, purity 99%
Compound 2: 3a,4,7,7a-tetrahydro-4,7-methanoindene, C10H12, InChI=1S/C10H12/c1-2-9-7-4-5-8(6-7)10(9)3-1/h1-2,4-5,7-10H,3,6H2, purity 99%
Compound 3: styrene, C8H8, InChI=1S/C8H8/c1-2-8-6-4-3-5-7-8/h2-7H,1H2, purity 99.5%
Compound 4: glycerol, C3H8O3, InChI=1S/C3H8O3/c4-1-3(6)2-5/h3-6H,1-2H2, purity 99%
Compound 5: 1-ethyl-3-methylimidazolium acetate, C8H14N2O2, InChI=1S/C6H11N2.C2H4O2/c1-3-8-5-4-7(2)6-8;1-2(3)4/h4-6H,3H2,1-2H3;1H3,(H,3,4)/q+1;/p-1, purity 99%

System: diethyl phthalate; phases: Liquid
Fixed: Pressure, kPa = 101.325
Property: Refractive index (Na D-line) (Liquid); method: Standard Abbe refractometry
Temperature, K	Refractive index (Na D-line)	uncertainty
283.15	1.507	0.0004
288.15	1.5048	0.0004
293.15	1.5027	0.0004
298.15	1.5005	0.0004
303.15	1.4984	0.0004
308.15	1.4962	0.0004
313.15	1.4939	0.0004
318.15	1.4917	0.0004
323.15	1.4897	0.0004

System: 3a,4,7,7a-tetrahydro-4,7-methanoindene; phases: Liquid
Fixed: Pressure, kPa = 101.325
Property: Refractive index (Na D-line) (Liquid); method: Standard Abbe refractometry
Temperature, K	Refractive index (Na D-line)	uncertainty
308.15	1.5069	0.0004
313.15	1.5045	0.0004
318.15	1.5019	0.0004
323.15	1.4991	0.0004

System: styrene; phases: Liquid
Fixed: Pressure, kPa = 101.325
Property: Refractive index (Na D-line) (Liquid); method: Standard Abbe refractometry
Temperature, K	Refractive index (Na D-line)	uncertainty
283.15	1.5533	0.0004
288.15	1.5505	0.0004
293.15	1.5472	0.0004
298.15	1.544	0.0004
303.15	1.5409	0.0004
308.15	1.538	0.0004
313.15	1.5352	0.0004
318.15	1.5321	0.0004
323.15	1.5291	0.0004

System: diethyl phthalate + 1-ethyl-3-methylimidazolium acetate; phases: Liquid mixture 1, Liquid mixture 2
Fixed: Pressure, kPa = 101.3
Property: Mole fraction of diethyl phthalate (Liquid mixture 1); method: Chromatography
Temperature, K	Mole fraction of diethyl phthalate	uncertainty
283.15	0.1307	0.0028
288.15	0.132	0.0028
293.15	0.1349	0.0028
298.15	0.1373	0.0028
303.15	0.14	0.0028
308.15	0.142	0.0028
313.15	0.1447	0.0028
318.15	0.147	0.0028
323.15	0.1483	0.0028
328.15	0.1518	0.0028
333.15	0.1546	0.0028
338.15	0.1579	0.0028
343.15	0.1599	0.0028
348.15	0.1636	0.0028
353.15	0.1686	0.0029

System: 3a,4,7,7a-tetrahydro-4,7-methanoindene + 1-ethyl-3-methylimidazolium acetate; phases: Liquid mixture 1, Liquid mixture 2
Fixed: Pressure, kPa = 101.3
Property: Mole fraction of 3a,4,7,7a-tetrahydro-4,7-methanoindene (Liquid mixture 1); method: Chromatography
Temperature, K	Mole fraction of 3a,4,7,7a-tetrahydro-4,7-methanoindene	uncertainty
308.15	0.0284	0.0026
313.15	0.0314	0.0026
318.15	0.0337	0.0026
323.15	0.0353	0.0026
328.15	0.037	0.0026
333.15	0.0394	0.0026
338.15	0.0414	0.0026
343.15	0.0432	0.0026
348.15	0.0452	0.0026
353.15	0.0477	0.0026

System: styrene + 1-ethyl-3-methylimidazolium acetate; phases: Liquid mixture 1, Liquid mixture 2
Fixed: Pressure, kPa = 101.3
Property: Mole fraction of styrene (Liquid mixture 1); method: Chromatography
Temperature, K	Mole fraction of styrene	uncertainty
283.15	0.2998	0.0034
288.15	0.2944	0.0033
293.15	0.2871	0.0033
298.15	0.2816	0.0033
303.15	0.2764	0.0033
308.15	0.2716	0.0032
313.15	0.2663	0.0032
318.15	0.2619	0.0032
323.15	0.2567	0.0032
328.15	0.25	0.0031
333.15	0.2442	0.0031
338.15	0.2404	0.0031
343.15	0.2365	0.0031

System: glycerol + styrene + 1-ethyl-3-methylimidazolium acetate; phases: Liquid mixture 2, Liquid mixture 1
Fixed: Pressure, kPa = 101.3
Property: Mole fraction of styrene (Liquid mixture 2); method: Chromatography
Property: Mole fraction of styrene (Liquid mixture 1); method: Chromatography
Property: Mole fraction of glycerol (Liquid mixture 1); method: Chromatography
Temperature, K	Mole fraction of glycerol	Mole fraction of styrene	uncertainty	Mole fraction of styrene	uncertainty	Mole fraction of glycerol	uncertainty
298.15	0.157	0.8429	0.0114	0.1945	0.0098	0.0994	
318.15	0.1509	0.849	0.0114	0.1835	0.0095	0.1089	
328.15	0.1472	0.8527	0.0114	0.1787	0.0093	0.1147	
308.15	0.1719	0.828	0.0114	0.1278	0.0083	0.2381	
298.15	0.1695	0.8304	0.0114	0.1555	0.0089	0.1562	
308.15	0.1665	0.8334	0.0114	0.1505	0.0088	0.1649	
318.15	0.164	0.8359	0.0114	0.1441	0.0088	0.1747	
328.15	0.1613	0.8386	0.0114	0.1391	0.0087	0.1842	
298.15	0.1741	0.8258	0.0114	0.1312	0.0084	0.236	
318.15	0.1671	0.8328	0.0114	0.1246	0.0082	0.2426	
328.15	0.164	0.8359	0.0114	0.1235	0.0082	0.2473	
308.15	0.1822	0.8177	0.0114	0.0631	0.0081	0.5544	
298.15	0.1802	0.8197	0.0114	0.1105	0.0082	0.3077	
308.15	0.1777	0.8222	0.0114	0.1133	0.0082	0.3093	
318.15	0.1743	0.8256	0.0114	0.1159	0.0082	0.3109	
328.15	0.1702	0.8297	0.0114	0.117	0.0082	0.3123	
298.15	0.1848	0.8151	0.0114	0.0607	0.0081	0.5511	
318.15	0.1809	0.819	0.0114	0.0658	0.0081	0.5592	
308.15	0.1537	0.8462	0.0114	0.1899	0.0096	0.1037	
328.15	0.1767	0.8232	0.0114	0.0687	0.0081	0.5645	
298.15	0.1988	0.8011	0.0114	0.0339	0.0081	0.783	
308.15	0.1949	0.805	0.0114	0.0358	0.0081	0.7904	
318.15	0.1903	0.8096	0.0114	0.0388	0.0081	0.7969	
328.15	0.1857	0.8142	0.0114	0.0414	0.0081	0.802	
