Measured thermophysical data. Phase Behavior of the System (Carbon Dioxide + n-Heptane + Methylbenzene): A Comparison between Experimental Data and SAFT-gamma-Mie Predictions
Source: J. Chem. Eng. Data, 2017, 10.1021/acs.jced.7b00145
Compound 1: carbon dioxide, CO2, InChI=1S/CO2/c2-1-3
Compound 2: heptane, C7H16, InChI=1S/C7H16/c1-3-5-7-6-4-2/h3-7H2,1-2H3
Compound 3: toluene, C7H8, InChI=1S/C7H8/c1-7-5-3-2-4-6-7/h2-6H,1H3

System: toluene + carbon dioxide + heptane; phases: Liquid, Gas
Property: Vapor or sublimation pressure, kPa (Liquid); method: Closed cell (Static) method
Temperature, K	Mole fraction of carbon dioxide	Mole fraction of heptane	Vapor or sublimation pressure, kPa	uncertainty
298.15	0.0532	0.1149	503	402
298.15	0.1215	0.1066	1052	407
298.15	0.2083	0.0961	1755	420
298.15	0.4163	0.0708	3313	468
298.15	0.5968	0.0489	4352	513
298.15	0.7108	0.0351	4874	539
298.15	0.8127	0.0227	5254	558
298.15	0.8972	0.0125	5631	578
298.15	0.9504	0.006	5892	590
298.15	0.9588	0.005	5968	594
298.15	0.9736	0.0032	6062	598
298.15	0.9769	0.0028	6085	599
298.15	0.9818	0.0022	6126	601
298.15	0.9893	0.0013	6210	605
298.15	0.9909	0.0011	6223	606
298.15	0.9909	0.0011	6186	604
298.15	0.9954	0.00055	6256	607
298.15	0.0479	0.2576	437	401
298.15	0.0731	0.2508	695	403
298.15	0.1705	0.2245	1425	413
298.15	0.3572	0.1739	2901	452
298.15	0.5627	0.1183	4206	504
298.15	0.8068	0.0523	5250	557
298.15	0.8661	0.0362	5475	569
298.15	0.8977	0.0277	5625	577
298.15	0.9172	0.0224	5725	582
298.15	0.9275	0.0196	5792	586
298.15	0.9546	0.0123	5910	591
298.15	0.9775	0.0061	6175	603
298.15	0.9897	0.0028	6172	604
298.15	0.0484	0.4586	473	401
298.15	0.1507	0.4093	1241	410
298.15	0.2767	0.3486	2205	431
298.15	0.5	0.241	3825	489
298.15	0.6244	0.181	4501	518
298.15	0.7152	0.1373	4850	536
298.15	0.846	0.0742	5355	563
298.15	0.8825	0.0566	5525	571
298.15	0.9157	0.0406	5712	582
298.15	0.9292	0.0341	5805	586
298.15	0.9743	0.0124	6135	602
298.15	0.9836	0.0079	6230	606
298.15	0.9865	0.0065	6255	607
298.15	0.0946	0.6793	782	404
298.15	0.1847	0.6117	1465	414
298.15	0.2985	0.5263	2319	434
298.15	0.3652	0.4763	2837	450
298.15	0.4619	0.4037	3575	477
298.15	0.568	0.3241	4221	505
298.15	0.6861	0.2355	4762	531
298.15	0.7325	0.2007	4930	540
298.15	0.7593	0.1806	5012	544
298.15	0.7822	0.1634	5101	548
298.15	0.8038	0.1472	5222	555
298.15	0.8583	0.1063	5405	565
298.15	0.8951	0.0787	5585	575
298.15	0.9163	0.0628	5636	578
298.15	0.9451	0.0412	5875	588
298.15	0.9592	0.0306	5953	592
298.15	0.9696	0.0228	6045	597
298.15	0.9732	0.0201	6072	598
298.15	0.9748	0.0189	6123	600
323.15	0.0218	0.1188	297	401
323.15	0.0976	0.1096	1245	410
323.15	0.1867	0.0987	2400	436
323.15	0.2082	0.0961	2650	443
323.15	0.3081	0.084	3742	482
323.15	0.4161	0.0709	4815	529
323.15	0.5956	0.0491	6581	620
323.15	0.7098	0.0352	7497	672
323.15	0.8122	0.0228	8114	709
323.15	0.907	0.0113	8775	746
323.15	0.9297	0.0085	8852	753
323.15	0.9537	0.0056	8965	759
323.15	0.9669	0.004	8925	756
323.15	0.0196	0.2653	254	400
323.15	0.0482	0.2576	676	403
323.15	0.1372	0.2335	1678	418
323.15	0.3401	0.1786	4005	493
323.15	0.5433	0.1236	6015	590
323.15	0.7143	0.0773	7395	665
323.15	0.821	0.0484	8142	709
323.15	0.8669	0.036	8423	725
323.15	0.8972	0.0278	8625	738
323.15	0.9256	0.0201	8865	752
323.15	0.9476	0.0142	8916	757
323.15	0.0199	0.4723	201	400
323.15	0.1028	0.4324	1285	411
323.15	0.2288	0.3717	2785	447
323.15	0.3567	0.31	4115	496
323.15	0.4995	0.2412	5550	564
323.15	0.6022	0.1917	6402	610
323.15	0.7035	0.1429	7275	659
323.15	0.762	0.1147	7650	681
323.15	0.8722	0.0616	8415	724
323.15	0.8992	0.0486	8645	738
323.15	0.9154	0.0408	8767	745
323.15	0.9568	0.0208	8852	752
323.15	0.0235	0.7326	234	400
323.15	0.0535	0.7101	550	402
323.15	0.1694	0.6232	1889	422
323.15	0.2777	0.5419	3205	461
323.15	0.3425	0.4933	3910	488
323.15	0.4415	0.419	4921	533
323.15	0.5472	0.3397	5950	585
323.15	0.6836	0.2374	7107	648
323.15	0.7582	0.1814	7536	673
323.15	0.8238	0.1322	8015	700
323.15	0.8767	0.0925	8395	723
323.15	0.9067	0.07	8635	738
323.15	0.9251	0.0562	8736	743
323.15	0.9275	0.0544	8765	748
323.15	0.9508	0.0369	8795	748
373.15	0.0437	0.1161	1025	407
373.15	0.1138	0.1076	2441	436
373.15	0.1864	0.0987	3765	481
373.15	0.1937	0.0979	3885	486
373.15	0.2079	0.0961	4115	495
373.15	0.3091	0.0839	6017	586
373.15	0.4136	0.0712	7768	682
373.15	0.4199	0.0704	7875	689
373.15	0.5502	0.0546	10162	826
373.15	0.5955	0.0491	10951	875
373.15	0.7097	0.0352	12547	977
373.15	0.8122	0.0228	13747	1068
373.15	0.8447	0.0189	13890	1081
373.15	0.0219	0.2647	497	402
373.15	0.0925	0.2456	1922	589
373.15	0.1966	0.2174	3786	482
373.15	0.385	0.1664	7175	648
373.15	0.5764	0.1146	10435	842
373.15	0.6627	0.0913	11694	922
373.15	0.776	0.0606	13256	1030
373.15	0.8337	0.045	13562	1056
373.15	0.8683	0.0356	13532	1053
373.15	0	0.4819	110	400
373.15	0.0376	0.4638	750	404
373.15	0.1878	0.3914	3501	471
373.15	0.2947	0.3399	5432	555
373.15	0.4473	0.2664	8080	700
373.15	0.618	0.1841	10880	870
373.15	0.6919	0.1485	11950	938
373.15	0.7765	0.1077	13040	1016
373.15	0.851	0.0718	13170	1025
373.15	0.0534	0.7102	933	406
373.15	0.1298	0.6529	2256	431
373.15	0.2567	0.5577	4450	510
373.15	0.3987	0.4511	6825	629
373.15	0.5497	0.3378	9351	775
373.15	0.6744	0.2443	11250	893
373.15	0.7449	0.1914	12160	951
373.15	0.7938	0.1547	12653	985
373.15	0.8503	0.1123	12812	997
423.15	0.0335	0.1173	1258	410
423.15	0.1257	0.1061	3454	469
423.15	0.186	0.0988	4905	530
423.15	0.2075	0.0962	5415	555
423.15	0.3092	0.0839	7946	691
423.15	0.4134	0.0712	10364	837
423.15	0.5221	0.058	12726	988
423.15	0.5954	0.0491	14287	1109
423.15	0.7096	0.0352	15997	1241
423.15	0.7699	0.0279	16065	1245
423.15	0.0482	0.2576	1425	413
423.15	0.1672	0.2254	4323	504
423.15	0.2491	0.2032	6153	592
423.15	0.4167	0.1578	9956	811
423.15	0.5003	0.1352	11813	928
423.15	0.6215	0.1024	14225	1104
423.15	0.7026	0.0805	15243	1182
423.15	0	0.4819	405	401
423.15	0.0378	0.4637	1256	410
423.15	0.117	0.4255	2962	452
423.15	0.1875	0.3916	4545	514
423.15	0.2868	0.3437	6625	617
423.15	0.4512	0.2645	10320	833
423.15	0.6018	0.1919	13250	1028
423.15	0.7085	0.1405	14595	1132
423.15	0.0875	0.6846	2150	428
423.15	0.198	0.6017	4421	508
423.15	0.349	0.4884	7615	672
423.15	0.542	0.3436	11532	910
423.15	0.6833	0.2376	13625	1056
423.15	0.7198	0.2102	13853	1074

System: toluene + carbon dioxide + heptane; phases: Gas, Liquid
Property: Vapor or sublimation pressure, kPa (Gas); method: Closed cell (Static) method
Temperature, K	Mole fraction of carbon dioxide	Mole fraction of heptane	Vapor or sublimation pressure, kPa	uncertainty
323.15	0.9793	0.0025	8824	866
323.15	0.9816	0.0022	8756	862
323.15	0.986	0.0017	8217	836
323.15	0.966	0.0092	8895	870
323.15	0.9801	0.0054	8652	857
323.15	0.9856	0.0039	8091	829
323.15	0.9716	0.0137	8885	869
323.15	0.9743	0.0124	8675	858
323.15	0.9801	0.0096	8264	839
323.15	0.9648	0.0264	8707	860
323.15	0.9784	0.0162	8230	836
373.15	0.8861	0.0138	13678	1138
373.15	0.9207	0.0096	13052	1101
373.15	0.9417	0.0071	11872	1032
373.15	0.9011	0.0268	13256	1114
373.15	0.9234	0.0207	12752	1083
373.15	0.9408	0.016	11653	1020
373.15	0.873	0.0612	13100	1104
373.15	0.9297	0.0339	12250	1054
373.15	0.9502	0.024	10761	969
373.15	0.8818	0.0887	12702	1081
373.15	0.9115	0.0664	12431	1065
373.15	0.9227	0.058	12152	1048
373.15	0.9316	0.0513	11735	1026
373.15	0.9472	0.0396	10576	959
423.15	0.7996	0.0243	16021	1282
423.15	0.8328	0.0203	15275	1236
423.15	0.8527	0.0179	14672	1199
423.15	0.8596	0.017	14276	1175
423.15	0.8792	0.0147	13050	1101
423.15	0.7779	0.0601	15536	1252
423.15	0.8067	0.0523	15075	1223
423.15	0.8411	0.043	14052	1161
423.15	0.8478	0.0412	13832	1147
423.15	0.8667	0.0361	13032	1101
423.15	0.8792	0.0327	11957	1039
423.15	0.7702	0.1107	14755	1204
423.15	0.8206	0.0865	13950	1155
423.15	0.845	0.0747	13200	1112
423.15	0.862	0.0665	11587	1017
423.15	0.7745	0.1692	13792	1145
423.15	0.7982	0.1514	13350	1119
423.15	0.831	0.1268	12375	1061
423.15	0.8587	0.106	11052	987

System: toluene + heptane; phases: Liquid, Gas
Fixed: Mole fraction of heptane = 0.4819
Property: Vapor or sublimation pressure, kPa (Liquid); method: Closed cell (Static) method
Temperature, K	Vapor or sublimation pressure, kPa	uncertainty
373.15	110	400
423.15	405	401
