Measured thermophysical data. Liquid-Liquid Equilibrium and Extraction Performance of Aqueous Biphasic Systems Composed of Water, Cholinium Carboxylate Ionic Liquids and K2CO3
Source: J. Chem. Eng. Data, 2019, 10.1021/acs.jced.9b00452
Compound 1: potassium carbonate, CK2O3, InChI=1S/CH2O3.2K/c2-1(3)4;;/h(H2,2,3,4);;/q;2*+1/p-2, purity 99%
Compound 2: water, H2O, InChI=1S/H2O/h1H2, purity 99.9%
Compound 3: cholinium propanoate, C8H19NO3, InChI=1S/C5H14NO.C3H6O2/c1-6(2,3)4-5-7;1-2-3(4)5/h7H,4-5H2,1-3H3;2H2,1H3,(H,4,5)/q+1;/p-1, purity 97%
Compound 4: choline butanoate, C9H21NO3, InChI=1S/C5H14NO.C4H8O2/c1-6(2,3)4-5-7;1-2-3-4(5)6/h7H,4-5H2,1-3H3;2-3H2,1H3,(H,5,6)/q+1;/p-1, purity 97%
Compound 5: cholinium pentanoate, C10H23NO3, InChI=1S/C5H14NO.C5H10O2/c1-6(2,3)4-5-7;1-2-3-4-5(6)7/h7H,4-5H2,1-3H3;2-4H2,1H3,(H,6,7)/q+1;/p-1, purity 97%
Compound 6: 2-hydroxy-N,N,N-trimethylethanaminium hexanoate, C11H25NO3, InChI=1S/C6H12O2.C5H14NO/c1-2-3-4-5-6(7)8;1-6(2,3)4-5-7/h2-5H2,1H3,(H,7,8);7H,4-5H2,1-3H3/q;+1/p-1, purity 97%
Compound 7: cholinium heptanoate, C12H27NO3, InChI=1S/C7H14O2.C5H14NO/c1-2-3-4-5-6-7(8)9;1-6(2,3)4-5-7/h2-6H2,1H3,(H,8,9);7H,4-5H2,1-3H3/q;+1/p-1, purity 97%

System: potassium carbonate + cholinium propanoate + water; phases: Liquid mixture 1, Liquid mixture 2
Fixed: Temperature, K = 298
Fixed: Pressure, kPa = 100
Property: Mass fraction of cholinium propanoate (Liquid mixture 1); method: Titration method
Mass fraction of potassium carbonate	Mass fraction of cholinium propanoate	uncertainty
0.18391	0.39932	0.01581
0.17909	0.38885	0.01556
0.2008	0.36276	0.01451
0.19731	0.35646	0.01569
0.22895	0.31951	0.01278
0.22668	0.31634	0.01266
0.25832	0.28007	0.0112
0.25533	0.27683	0.01107
0.2856	0.24295	0.00972
0.28226	0.24011	0.0096
0.31882	0.20027	0.00802
0.31579	0.19836	0.00794
0.34115	0.17144	0.00686
0.33782	0.16976	0.0068
0.36903	0.13761	0.0055
0.3672	0.13693	0.00547
0.38378	0.12016	0.0048
0.38128	0.11938	0.00477

System: potassium carbonate + cholinium propanoate + water; phases: Liquid mixture 2, Liquid mixture 1
Fixed: Temperature, K = 298
Fixed: Pressure, kPa = 100
Property: Mass fraction of cholinium propanoate (Liquid mixture 2); method: Phase equilibration
Property: Mass fraction of potassium carbonate (Liquid mixture 1); method: Phase equilibration
Property: Mass fraction of cholinium propanoate (Liquid mixture 1); method: Phase equilibration
Mass fraction of potassium carbonate	Mass fraction of cholinium propanoate	uncertainty	Mass fraction of potassium carbonate	uncertainty	Mass fraction of cholinium propanoate	uncertainty
0.4767	0.0479	0.005	0.1644	0.0069	0.4171	
0.5056	0.0335	0.0046	0.1361	0.0068	0.4644	
0.5254	0.0257	0.0038	0.1231	0.0066	0.4875	

System: potassium carbonate + choline butanoate + water; phases: Liquid mixture 1, Liquid mixture 2
Fixed: Temperature, K = 298
Fixed: Pressure, kPa = 100
Property: Mass fraction of choline butanoate (Liquid mixture 1); method: Titration method
Mass fraction of potassium carbonate	Mass fraction of choline butanoate	uncertainty
0.1293	0.44358	0.01774
0.12668	0.43459	0.01738
0.14438	0.4142	0.01598
0.14136	0.40555	0.01547
0.15602	0.38916	0.01508
0.15299	0.38161	0.01529
0.16979	0.36334	0.01453
0.16661	0.35655	0.01433
0.18835	0.33357	0.01361
0.18547	0.32848	0.01313
0.20317	0.31022	0.01273
0.19966	0.30487	0.0128
0.21831	0.28617	0.01145
0.21525	0.28216	0.01246
0.23868	0.25925	0.01238
0.23572	0.25604	0.01024
0.24816	0.24416	0.00977
0.2451	0.24115	0.01208
0.26376	0.22376	0.01068
0.26081	0.22126	0.00885
0.27711	0.20641	0.01007
0.27441	0.2044	0.01064
0.28972	0.19076	0.01109
0.28758	0.18935	0.00758
0.29362	0.18406	0.01005
0.29173	0.18287	0.01197
0.30333	0.17287	0.01066
0.30115	0.17163	0.00974
0.30783	0.16596	0.0098
0.30592	0.16494	0.01146
0.31638	0.15622	0.00985
0.31431	0.1552	0.00959
0.32237	0.14859	0.01068
0.3206	0.14778	0.01037
0.32688	0.14272	0.00992
0.32494	0.14187	0.01017
0.33374	0.13488	0.0098
0.33155	0.134	0.00954
0.33754	0.12934	0.00912
0.33558	0.12858	0.01063
0.34368	0.12239	0.00968
0.34195	0.12178	0.00951
0.34777	0.1174	0.0047
0.34609	0.11683	0.00984
0.35593	0.10954	0.01003
0.35459	0.10913	0.00436
0.35944	0.10558	0.00924
0.35785	0.10512	0.00912
0.36321	0.10126	0.00963
0.3617	0.10083	0.0095
0.36777	0.09653	0.00813
0.3659	0.09604	0.00871
0.37412	0.09032	0.00834
0.37256	0.08994	0.00857
0.37635	0.08734	0.00841
0.37494	0.08702	0.00925
0.38079	0.08306	0.00805
0.3794	0.08276	0.00848
0.38604	0.07834	0.00773
0.38462	0.07806	0.00804
0.39215	0.07312	0.00913
0.3907	0.07285	0.00772
0.39857	0.06778	0.0027
0.39606	0.06736	0.00741

System: potassium carbonate + choline butanoate + water; phases: Liquid mixture 2, Liquid mixture 1
Fixed: Temperature, K = 298
Fixed: Pressure, kPa = 100
Property: Mass fraction of choline butanoate (Liquid mixture 2); method: Phase equilibration
Property: Mass fraction of potassium carbonate (Liquid mixture 1); method: Phase equilibration
Property: Mass fraction of choline butanoate (Liquid mixture 1); method: Phase equilibration
Mass fraction of potassium carbonate	Mass fraction of choline butanoate	uncertainty	Mass fraction of potassium carbonate	uncertainty	Mass fraction of choline butanoate	uncertainty
0.429	0.0492	0.0048	0.1384	0.0061	0.415	
0.4561	0.0346	0.0045	0.1301	0.006	0.4301	
0.4831	0.0234	0.0041	0.1153	0.0059	0.458	

System: potassium carbonate + cholinium pentanoate + water; phases: Liquid mixture 1, Liquid mixture 2
Fixed: Temperature, K = 298
Fixed: Pressure, kPa = 100
Property: Mass fraction of cholinium pentanoate (Liquid mixture 1); method: Titration method
Mass fraction of potassium carbonate	Mass fraction of cholinium pentanoate	uncertainty
0.14822	0.39979	0.01536
0.14509	0.39137	0.01564
0.16167	0.37318	0.01493
0.15854	0.36594	0.01463
0.17815	0.34503	0.01408
0.17485	0.33863	0.0136
0.18931	0.32365	0.01294
0.18616	0.31827	0.01372
0.20619	0.29808	0.01322
0.20317	0.29372	0.01174
0.21647	0.28064	0.01224
0.21309	0.27626	0.01257
0.23052	0.25958	0.01145
0.22689	0.2555	0.01175
0.24508	0.2386	0.0113
0.24179	0.2354	0.01131
0.25783	0.22089	0.01054
0.25437	0.21792	0.01096
0.27102	0.20326	0.0106
0.26798	0.20098	0.01061
0.28074	0.19002	0.01058
0.27786	0.18807	0.01066
0.29006	0.17782	0.01031
0.28699	0.17595	0.0103
0.29717	0.16762	0.01004
0.2944	0.16606	0.01077
0.30318	0.15904	0.0103
0.30073	0.15776	0.01067
0.31031	0.15025	0.00914
0.30748	0.14888	0.00964
0.31909	0.13999	0.01003
0.31661	0.1389	0.00949
0.32443	0.13304	0.00904
0.32174	0.13194	0.00952
0.33076	0.12533	0.00932
0.32843	0.12445	0.00968
0.33543	0.11944	0.00871
0.33312	0.11862	0.00939
0.34218	0.11225	0.0089
0.33993	0.11151	0.00881
0.34649	0.10699	0.00855
0.34432	0.10632	0.00915
0.35038	0.10224	0.00788
0.34838	0.10166	0.00911
0.35737	0.09571	0.00849
0.35547	0.0952	0.00801
0.36231	0.09075	0.00817
0.36031	0.09025	0.0083
0.3665	0.08631	0.01104
0.36464	0.08587	0.00857
0.37115	0.0818	0.00659
0.36755	0.08101	0.00563
0.38015	0.07341	0.00791
0.37838	0.07307	0.00292
0.3889	0.06684	0.00267
0.38586	0.06632	0.00669

System: potassium carbonate + cholinium pentanoate + water; phases: Liquid mixture 2, Liquid mixture 1
Fixed: Temperature, K = 298
Fixed: Pressure, kPa = 100
Property: Mass fraction of cholinium pentanoate (Liquid mixture 2); method: Phase equilibration
Property: Mass fraction of potassium carbonate (Liquid mixture 1); method: Phase equilibration
Property: Mass fraction of cholinium pentanoate (Liquid mixture 1); method: Phase equilibration
Mass fraction of potassium carbonate	Mass fraction of cholinium pentanoate	uncertainty	Mass fraction of potassium carbonate	uncertainty	Mass fraction of cholinium pentanoate	uncertainty
0.4457	0.0319	0.0038	0.1439	0.0061	0.397	
0.4684	0.0226	0.0037	0.1186	0.0058	0.4428	
0.4808	0.0184	0.0033	0.0961	0.0056	0.4878	

System: potassium carbonate + 2-hydroxy-N,N,N-trimethylethanaminium hexanoate + water; phases: Liquid mixture 1, Liquid mixture 2
Fixed: Temperature, K = 298
Fixed: Pressure, kPa = 100
Property: Mass fraction of 2-hydroxy-N,N,N-trimethylethanaminium hexanoate (Liquid mixture 1); method: Titration method
Mass fraction of potassium carbonate	Mass fraction of 2-hydroxy-N,N,N-trimethylethanaminium hexanoate	uncertainty
0.16225	0.41894	0.0166
0.15902	0.4106	0.01642
0.17672	0.38941	0.0153
0.17291	0.38102	0.01553
0.19448	0.35603	0.01452
0.1909	0.34947	0.01462
0.21044	0.32751	0.0131
0.20695	0.32208	0.01398
0.22945	0.2975	0.01369
0.22609	0.29315	0.01172
0.24021	0.27815	0.0128
0.23692	0.27434	0.01349
0.25396	0.25669	0.01186
0.25055	0.25324	0.01243
0.26882	0.23482	0.01229
0.26588	0.23226	0.00928
0.2803	0.21807	0.01147
0.2769	0.21543	0.01171
0.2928	0.20021	0.01186
0.28958	0.19801	0.01149
0.30119	0.18719	0.01078
0.29803	0.18522	0.01191
0.31025	0.17411	0.01085
0.30774	0.1727	0.01152
0.31904	0.16264	0.01084
0.31643	0.16131	0.01071
0.3256	0.15332	0.01079
0.32321	0.1522	0.01128
0.33273	0.14409	0.01034
0.3302	0.14299	0.01055
0.33878	0.13585	0.01039
0.33653	0.13495	0.01095
0.34409	0.12877	0.01025
0.34195	0.12797	0.01068
0.35027	0.12131	0.00988
0.34799	0.12052	0.01
0.35503	0.11501	0.00992
0.35299	0.11435	0.01058
0.36006	0.10891	0.00928
0.35802	0.1083	0.00996
0.36557	0.10261	0.00965
0.36373	0.1021	0.00972
0.37002	0.09745	0.00925
0.36816	0.09696	0.00962
0.3742	0.09257	0.00914
0.3725	0.09215	0.00976
0.37836	0.08798	0.00801
0.37673	0.0876	0.00938
0.38423	0.08235	0.00953
0.38293	0.08207	0.00851
0.3873	0.07904	0.00884
0.38584	0.07875	0.0089
0.39158	0.07485	0.00865
0.39003	0.07455	0.00863
0.39475	0.0714	0.00284
0.39333	0.07115	0.00921

System: potassium carbonate + 2-hydroxy-N,N,N-trimethylethanaminium hexanoate + water; phases: Liquid mixture 2, Liquid mixture 1
Fixed: Temperature, K = 298
Fixed: Pressure, kPa = 100
Property: Mass fraction of 2-hydroxy-N,N,N-trimethylethanaminium hexanoate (Liquid mixture 2); method: Phase equilibration
Property: Mass fraction of potassium carbonate (Liquid mixture 1); method: Phase equilibration
Property: Mass fraction of 2-hydroxy-N,N,N-trimethylethanaminium hexanoate (Liquid mixture 1); method: Phase equilibration
Mass fraction of potassium carbonate	Mass fraction of 2-hydroxy-N,N,N-trimethylethanaminium hexanoate	uncertainty	Mass fraction of potassium carbonate	uncertainty	Mass fraction of 2-hydroxy-N,N,N-trimethylethanaminium hexanoate	uncertainty
0.4576	0.0315	0.0043	0.1464	0.0064	0.435	
0.4688	0.0264	0.0037	0.1278	0.0063	0.4685	
0.4937	0.0175	0.0036	0.1057	0.006	0.5106	

System: potassium carbonate + cholinium heptanoate + water; phases: Liquid mixture 1, Liquid mixture 2
Fixed: Temperature, K = 298
Fixed: Pressure, kPa = 100
Property: Mass fraction of cholinium heptanoate (Liquid mixture 1); method: Titration method
Mass fraction of potassium carbonate	Mass fraction of cholinium heptanoate	uncertainty
0.17833	0.40749	0.01606
0.17467	0.39913	0.01596
0.19651	0.37326	0.01525
0.19263	0.36588	0.01516
0.21305	0.34247	0.01434
0.20924	0.33635	0.01465
0.22916	0.3142	0.01426
0.22565	0.30939	0.01397
0.24134	0.29243	0.01342
0.23771	0.28803	0.01383
0.2555	0.26933	0.01326
0.25179	0.26543	0.01305
0.26672	0.25019	0.01253
0.2631	0.24679	0.01315
0.27811	0.23189	0.01217
0.27478	0.22911	0.01265
0.28892	0.21544	0.01267
0.28571	0.21304	0.01218
0.2963	0.20306	0.01162
0.29297	0.20078	0.01237
0.30549	0.18928	0.01132
0.30241	0.18738	0.0119
0.31465	0.17642	0.01114
0.31165	0.17473	0.01138
0.32092	0.16664	0.01097
0.3183	0.16527	0.01199
0.32791	0.15706	0.07691
0.32536	0.15583	0.01109
0.33124	0.15092	0.01056
0.32854	0.14969	0.07704
0.33609	0.14352	0.01046
0.33359	0.14246	0.01119
0.34106	0.13649	0.01035
0.33869	0.13554	0.01083
0.34676	0.12922	0.08154
0.34436	0.12832	0.01029
0.34971	0.12422	0.00941
0.34726	0.12335	0.08165
0.35531	0.11732	0.00955
0.35324	0.11663	0.01023
0.35928	0.11218	0.0098
0.35739	0.11159	0.01019
0.36302	0.10752	0.00921
0.36105	0.10694	0.00954
0.36683	0.10284	0.10249
0.36503	0.10234	0.00982
0.36884	0.09968	0.00625
0.36709	0.09921	0.09921
0.37083	0.09664	0.00906
0.36903	0.09617	0.00614
0.3744	0.09255	0.00875
0.37259	0.09211	0.00907
0.37761	0.08879	0.0031
0.37585	0.08838	0.01934
0.37861	0.08658	0.01661
0.37692	0.0862	0.003
0.38215	0.08286	0.00801
0.38052	0.0825	0.00871
0.38456	0.07996	0.00839
0.38293	0.07962	0.00805
0.38734	0.0769	0.05667
0.3856	0.07655	0.00791
0.38924	0.07434	0.00677
0.38773	0.07405	0.00756
0.39106	0.07207	0.00541
0.38975	0.07183	0.00791
0.39264	0.07012	0.00794
0.39127	0.06988	0.00531
0.39523	0.06758	0.00513
0.39383	0.06734	0.00782
0.39673	0.06569	0.00724
0.39534	0.06546	0.00511
0.39903	0.06338	0.00504
0.39782	0.06319	0.00812
0.40037	0.06177	0.00524
0.39905	0.06157	0.00487
0.4029	0.05946	0.00237
0.40056	0.05912	0.00442

System: potassium carbonate + cholinium heptanoate + water; phases: Liquid mixture 2, Liquid mixture 1
Fixed: Temperature, K = 298
Fixed: Pressure, kPa = 100
Property: Mass fraction of cholinium heptanoate (Liquid mixture 2); method: Phase equilibration
Property: Mass fraction of cholinium heptanoate (Liquid mixture 1); method: Phase equilibration
Property: Mass fraction of potassium carbonate (Liquid mixture 1); method: Phase equilibration
Mass fraction of potassium carbonate	Mass fraction of cholinium heptanoate	uncertainty	Mass fraction of cholinium heptanoate	uncertainty	Mass fraction of potassium carbonate	uncertainty
0.4749	0.0194	0.0029	0.3702	0.0123	0.1939	
0.5	0.0118	0.0026	0.4359	0.0135	0.1508	
0.5237	0.007	0.0019	0.4621	0.014	0.1322	
