Measured thermophysical data. Vapor-Liquid Equilibrium of Ethyl Lactate Highly Diluted in Ethanol-Water Mixtures at 101.3 kPa. Experimental Measurements and Thermodynamic Modeling Using Semiempirical Models
Source: J. Chem. Eng. Data, 2018, 10.1021/acs.jced.7b00770
Compound 1: DL-ethyl lactate, C5H10O3, InChI=1S/C5H10O3/c1-3-8-5(7)4(2)6/h4,6H,3H2,1-2H3, purity 98%
Compound 2: ethanol, C2H6O, InChI=1S/C2H6O/c1-2-3/h3H,2H2,1H3, purity 99.9%
Compound 3: water, H2O, InChI=1S/H2O/h1H2, purity 99.9%

System: DL-ethyl lactate + ethanol + water; phases: Gas, Liquid
Fixed: Pressure, kPa = 101.3
Property: Mole fraction of DL-ethyl lactate (Gas); method: Chromatography
Temperature, K	Mole fraction of DL-ethyl lactate	Mole fraction of DL-ethyl lactate	uncertainty
370	0.000138	0.000381	0.000381
365.6	0.000162	0.000302	0.000302
363.8	0.000164	0.000244	0.000244
363.7	0.000155	0.000231	0.000231
362	0.000182	0.000237	0.000237
362	0.000177	0.000234	0.000234
360	0.000178	0.00013	0.00013
359.1	0.000183	0.000116	0.000116
358.9	0.000176	0.000121	0.000121
358.3	0.000192	7.23e-05	7.23e-05
358.2	0.00018	7.72e-05	7.72e-05
357.8	0.000217	8.56e-05	8.56e-05
357.7	0.000202	8.28e-05	8.28e-05
353.9	0.000268	2.89e-05	2.89e-05
353.9	0.000271	3.21e-05	3.21e-05
352.3	0.000345	2.75e-05	2.75e-05
352.3	0.000282	2.38e-05	2.38e-05
