Measured thermophysical data. Thermodynamic Properties of 1-Hexyl-3-methylimidazolium Nitrate and 1-Alkanols Mixtures: PC-SAFT Model
Source: J. Chem. Eng. Data, 2019, 10.1021/acs.jced.9b00507
Compound 1: 1-hexyl-3-methylimidazolium nitrate, C10H19N3O3, InChI=1S/C10H19N2.NO3/c1-3-4-5-6-7-12-9-8-11(2)10-12;2-1(3)4/h8-10H,3-7H2,1-2H3;/q+1;-1, purity 98%
Compound 2: hexan-1-ol, C6H14O, InChI=1S/C6H14O/c1-2-3-4-5-6-7/h7H,2-6H2,1H3, purity 99.5%
Compound 3: heptan-1-ol, C7H16O, InChI=1S/C7H16O/c1-2-3-4-5-6-7-8/h8H,2-7H2,1H3, purity 99.5%
Compound 4: octan-1-ol, C8H18O, InChI=1S/C8H18O/c1-2-3-4-5-6-7-8-9/h9H,2-8H2,1H3, purity 99.6%
Compound 5: nonan-1-ol, C9H20O, InChI=1S/C9H20O/c1-2-3-4-5-6-7-8-9-10/h10H,2-9H2,1H3, purity 99.7%
Compound 6: decan-1-ol, C10H22O, InChI=1S/C10H22O/c1-2-3-4-5-6-7-8-9-10-11/h11H,2-10H2,1H3, purity 99.5%

System: 1-hexyl-3-methylimidazolium nitrate; phases: Liquid
Fixed: Pressure, kPa = 100
Property: Mass density, kg/m3 (Liquid); method: Vibrating tube method
Temperature, K	Mass density, kg/m3	uncertainty
293.15	1120.3	1.4
298.15	1117.5	1.4
303.15	1114.3	1.4
308.15	1111.1	1.4
313.15	1107.8	1.4
318.15	1104.7	1.4
323.15	1101.6	1.4

System: 1-hexyl-3-methylimidazolium nitrate; phases: Liquid
Fixed: Pressure, kPa = 100
Property: Viscosity, Pa*s (Liquid); method: Concentric cylinders viscometry
Temperature, K	Viscosity, Pa*s	uncertainty
293.15	0.80417	0.07045
298.15	0.54525	0.04683
303.15	0.36914	0.03114
308.15	0.25759	0.02142
313.15	0.18567	0.01528
318.15	0.14018	0.01145
323.15	0.11094	0.00901

System: 1-hexyl-3-methylimidazolium nitrate + hexan-1-ol; phases: Liquid
Fixed: Pressure, kPa = 100
Property: Mass density, kg/m3 (Liquid); method: Vibrating tube method
Temperature, K	Mole fraction of 1-hexyl-3-methylimidazolium nitrate	Mass density, kg/m3	uncertainty
293.15	0.0816	859	1.3
298.15	0.0816	855.2	1.3
303.15	0.0816	851.5	1.3
308.15	0.0816	847.7	1.3
313.15	0.0816	843.9	1.3
318.15	0.0816	840.1	1.3
323.15	0.0816	836.2	1.3
298.15	0.1604	890.1	1.3
293.15	0.1604	894.1	1.3
303.15	0.1604	886.2	1.3
308.15	0.1604	882.4	1.3
313.15	0.1604	878.5	1.3
318.15	0.1604	874.7	1.3
323.15	0.1604	870.7	1.3
298.15	0.2391	921.7	1.3
303.15	0.2391	917.6	1.3
293.15	0.2391	925.7	1.3
308.15	0.2391	913.8	1.3
313.15	0.2391	909.9	1.3
318.15	0.2391	906.1	1.3
323.15	0.2391	902.2	1.3
303.15	0.3502	957.2	1.2
308.15	0.3502	953.4	1.2
293.15	0.3502	965.4	1.2
313.15	0.3502	949.6	1.2
298.15	0.3502	961.4	1.2
318.15	0.3502	945.8	1.2
323.15	0.3502	942	1.2
298.15	0.4409	990.2	1.2
303.15	0.4409	986.1	1.2
308.15	0.4409	982.3	1.2
313.15	0.4409	978.5	1.2
293.15	0.4409	994.2	1.2
318.15	0.4409	974.8	1.2
323.15	0.4409	971	1.2
308.15	0.5592	1016.1	1.2
303.15	0.5592	1019.9	1.2
298.15	0.5592	1023.9	1.2
313.15	0.5592	1012.3	1.2
318.15	0.5592	1008.7	1.2
293.15	0.5592	1027.7	1.2
323.15	0.5592	1005	1.2
303.15	0.6508	1043.3	1.2
313.15	0.6508	1035.8	1.2
293.15	0.6508	1050.9	1.2
298.15	0.6508	1047.2	1.2
318.15	0.6508	1032.2	1.2
308.15	0.6508	1039.6	1.2
323.15	0.6508	1028.7	1.2
313.15	0.7395	1056.5	1.2
303.15	0.7395	1063.9	1.2
318.15	0.7395	1053.1	1.2
293.15	0.7395	1071.2	1.2
298.15	0.7395	1067.7	1.2
308.15	0.7395	1060.2	1.2
323.15	0.7395	1049.5	1.2
313.15	0.8502	1079.9	1.3
303.15	0.8502	1087	1.3
318.15	0.8502	1076.5	1.3
298.15	0.8502	1090.5	1.3
308.15	0.8502	1083.5	1.3
293.15	0.8502	1093.7	1.3
323.15	0.8502	1073.1	1.3
318.15	0.9391	1093.7	1.4
308.15	0.9391	1100.4	1.4
298.15	0.9391	1107.1	1.4
303.15	0.9391	1103.7	1.4
293.15	0.9391	1110	1.4
313.15	0.9391	1096.9	1.4
323.15	0.9391	1090.4	1.4
318.15	1	1104.7	1.4
303.15	1	1114.3	1.4
308.15	1	1111.1	1.4
293.15	1	1120.3	1.4
298.15	1	1117.5	1.4
313.15	1	1107.8	1.4
323.15	1	1101.6	1.4

System: 1-hexyl-3-methylimidazolium nitrate + hexan-1-ol; phases: Liquid
Fixed: Pressure, kPa = 100
Property: Viscosity, Pa*s (Liquid); method: Concentric cylinders viscometry
Temperature, K	Mole fraction of 1-hexyl-3-methylimidazolium nitrate	Viscosity, Pa*s	uncertainty
293.15	0.0816	0.01297	0.00108
298.15	0.0816	0.00879	0.00072
303.15	0.0816	0.00653	0.00053
308.15	0.0816	0.00501	0.0004
313.15	0.0816	0.00392	0.00032
318.15	0.0816	0.0032	0.00026
323.15	0.0816	0.00263	0.00021
298.15	0.1604	0.01435	0.00116
293.15	0.1604	0.02415	0.00197
303.15	0.1604	0.01	0.00081
308.15	0.1604	0.00695	0.00056
313.15	0.1604	0.00511	0.00041
318.15	0.1604	0.00392	0.00032
323.15	0.1604	0.0031	0.00025
298.15	0.2391	0.02249	0.00183
303.15	0.2391	0.01542	0.00125
293.15	0.2391	0.03981	0.00325
308.15	0.2391	0.00964	0.00078
313.15	0.2391	0.00687	0.00055
318.15	0.2391	0.00506	0.00041
323.15	0.2391	0.00384	0.00031
303.15	0.3502	0.026	0.0021
308.15	0.3502	0.01585	0.00128
293.15	0.3502	0.07674	0.00623
313.15	0.3502	0.01064	0.00086
298.15	0.3502	0.03981	0.00323
318.15	0.3502	0.00753	0.00061
323.15	0.3502	0.00555	0.00045
298.15	0.4409	0.06383	0.00518
303.15	0.4409	0.03954	0.0032
308.15	0.4409	0.02371	0.00192
313.15	0.4409	0.01542	0.00125
293.15	0.4409	0.12303	0.01006
318.15	0.4409	0.01079	0.00087
323.15	0.4409	0.00802	0.00065
308.15	0.5592	0.04036	0.00327
303.15	0.5592	0.06653	0.00539
298.15	0.5592	0.1099	0.00896
313.15	0.5592	0.0257	0.00208
318.15	0.5592	0.01871	0.00151
293.15	0.5592	0.20701	0.01711
323.15	0.5592	0.01349	0.00109
303.15	0.6508	0.10116	0.00824
313.15	0.6508	0.04074	0.0033
293.15	0.6508	0.29648	0.02483
298.15	0.6508	0.16711	0.01376
318.15	0.6508	0.02904	0.00236
308.15	0.6508	0.0631	0.00512
323.15	0.6508	0.02163	0.00176
313.15	0.7395	0.06317	0.00513
303.15	0.7395	0.14928	0.01226
318.15	0.7395	0.04603	0.00374
293.15	0.7395	0.41495	0.03522
298.15	0.7395	0.24378	0.0203
308.15	0.7395	0.09567	0.0078
323.15	0.7395	0.03613	0.00294
313.15	0.8502	0.1072	0.00874
303.15	0.8502	0.23388	0.01944
318.15	0.8502	0.07887	0.0064
298.15	0.8502	0.36728	0.03103
308.15	0.8502	0.15761	0.01295
293.15	0.8502	0.58111	0.05007
323.15	0.8502	0.0631	0.00511
318.15	0.9391	0.1144	0.00933
308.15	0.9391	0.21641	0.01793
298.15	0.9391	0.47322	0.04042
303.15	0.9391	0.3155	0.0265
293.15	0.9391	0.70752	0.0616
313.15	0.9391	0.15134	0.01242
323.15	0.9391	0.09112	0.0074
318.15	1	0.14018	0.01145
303.15	1	0.36914	0.03114
308.15	1	0.25759	0.02142
293.15	1	0.80417	0.07045
298.15	1	0.54525	0.04683
313.15	1	0.18567	0.01528
323.15	1	0.11094	0.00901

System: 1-hexyl-3-methylimidazolium nitrate + heptan-1-ol; phases: Liquid
Fixed: Pressure, kPa = 100
Property: Mass density, kg/m3 (Liquid); method: Vibrating tube method
Temperature, K	Mole fraction of 1-hexyl-3-methylimidazolium nitrate	Mass density, kg/m3	uncertainty
293.15	0.0812	857.5	1.3
298.15	0.0812	853.9	1.3
303.15	0.0812	850.3	1.3
308.15	0.0812	846.5	1.3
313.15	0.0812	842.8	1.3
318.15	0.0812	839.1	1.3
323.15	0.0812	835.3	1.3
298.15	0.1608	885.9	1.3
293.15	0.1608	889.6	1.3
303.15	0.1608	882.2	1.3
308.15	0.1608	878.3	1.3
313.15	0.1608	874.6	1.3
318.15	0.1608	870.8	1.3
323.15	0.1608	867	1.3
298.15	0.2395	915.3	1.2
303.15	0.2395	911.5	1.2
293.15	0.2395	919	1.2
308.15	0.2395	907.7	1.2
313.15	0.2395	903.9	1.2
318.15	0.2395	900.2	1.2
323.15	0.2395	896.4	1.2
303.15	0.3493	949.3	1.2
308.15	0.3493	945.5	1.2
293.15	0.3493	956.7	1.2
313.15	0.3493	941.7	1.2
298.15	0.3493	953.1	1.2
318.15	0.3493	937.9	1.2
323.15	0.3493	934.2	1.2
298.15	0.4392	981.5	1.2
303.15	0.4392	977.7	1.2
308.15	0.4392	973.9	1.2
313.15	0.4392	970.1	1.2
293.15	0.4392	985	1.2
318.15	0.4392	966.4	1.2
323.15	0.4392	962.6	1.2
308.15	0.5749	1013	1.2
303.15	0.5749	1016.8	1.2
298.15	0.5749	1020.5	1.2
313.15	0.5749	1009.3	1.2
318.15	0.5749	1005.6	1.2
293.15	0.5749	1023.9	1.2
323.15	0.5749	1001.9	1.2
303.15	0.6491	1036.3	1.2
313.15	0.6491	1028.9	1.2
293.15	0.6491	1043.4	1.2
298.15	0.6491	1040	1.2
318.15	0.6491	1025.4	1.2
308.15	0.6491	1032.6	1.2
323.15	0.6491	1021.8	1.2
313.15	0.7398	1051.3	1.2
303.15	0.7398	1058.6	1.2
318.15	0.7398	1047.9	1.2
293.15	0.7398	1065.6	1.3
298.15	0.7398	1062.2	1.3
308.15	0.7398	1054.9	1.2
323.15	0.7398	1044.4	1.2
313.15	0.8496	1076.5	1.3
303.15	0.8496	1083.5	1.3
318.15	0.8496	1073.1	1.3
298.15	0.8496	1087.1	1.3
308.15	0.8496	1080	1.3
293.15	0.8496	1090.2	1.3
323.15	0.8496	1069.8	1.3
318.15	0.9381	1092.1	1.4
308.15	0.9381	1098.7	1.4
298.15	0.9381	1105.4	1.4
303.15	0.9381	1102.1	1.4
293.15	0.9381	1108.4	1.4
313.15	0.9381	1095.3	1.4
323.15	0.9381	1088.9	1.4
318.15	1	1104.7	1.4
303.15	1	1114.3	1.4
308.15	1	1111.1	1.4
293.15	1	1120.3	1.4
298.15	1	1117.5	1.4
313.15	1	1107.8	1.4
323.15	1	1101.6	1.4

System: 1-hexyl-3-methylimidazolium nitrate + heptan-1-ol; phases: Liquid
Fixed: Pressure, kPa = 100
Property: Viscosity, Pa*s (Liquid); method: Concentric cylinders viscometry
Temperature, K	Mole fraction of 1-hexyl-3-methylimidazolium nitrate	Viscosity, Pa*s	uncertainty
293.15	0.0812	0.01274	0.00105
298.15	0.0812	0.01009	0.00082
303.15	0.0812	0.00794	0.00064
308.15	0.0812	0.00664	0.00054
313.15	0.0812	0.00543	0.00044
318.15	0.0812	0.00459	0.00037
323.15	0.0812	0.00384	0.00031
298.15	0.1608	0.01667	0.00135
293.15	0.1608	0.02291	0.00186
303.15	0.1608	0.01219	0.00099
308.15	0.1608	0.00957	0.00077
313.15	0.1608	0.00736	0.00059
318.15	0.1608	0.00617	0.0005
323.15	0.1608	0.00501	0.0004
298.15	0.2395	0.02512	0.00203
303.15	0.2395	0.01782	0.00144
293.15	0.2395	0.03698	0.00301
308.15	0.2395	0.01327	0.00107
313.15	0.2395	0.00999	0.0008
318.15	0.2395	0.00785	0.00063
323.15	0.2395	0.00643	0.00052
303.15	0.3493	0.02831	0.00228
308.15	0.3493	0.01995	0.00161
293.15	0.3493	0.06776	0.00548
313.15	0.3493	0.01427	0.00115
298.15	0.3493	0.04188	0.00338
318.15	0.3493	0.01099	0.00088
323.15	0.3493	0.00889	0.00072
298.15	0.4392	0.06138	0.00497
303.15	0.4392	0.04009	0.00324
308.15	0.4392	0.02799	0.00226
313.15	0.4392	0.01902	0.00154
293.15	0.4392	0.10046	0.00817
318.15	0.4392	0.01445	0.00117
323.15	0.4392	0.01159	0.00093
308.15	0.5749	0.04634	0.00374
303.15	0.5749	0.06918	0.00559
298.15	0.5749	0.1099	0.00894
313.15	0.5749	0.03162	0.00255
318.15	0.5749	0.0227	0.00183
293.15	0.5749	0.17742	0.01458
323.15	0.5749	0.01799	0.00145
303.15	0.6491	0.09419	0.00765
313.15	0.6491	0.04217	0.00341
293.15	0.6491	0.23442	0.01947
298.15	0.6491	0.15066	0.01236
318.15	0.6491	0.03006	0.00243
308.15	0.6491	0.0618	0.005
323.15	0.6491	0.02344	0.0019
313.15	0.7398	0.06232	0.00505
303.15	0.7398	0.13614	0.01115
318.15	0.7398	0.04355	0.00353
293.15	0.7398	0.33884	0.02854
298.15	0.7398	0.21928	0.01819
308.15	0.7398	0.09183	0.00747
323.15	0.7398	0.0342	0.00277
313.15	0.8496	0.1014	0.00826
303.15	0.8496	0.2133	0.01769
318.15	0.8496	0.07158	0.00581
298.15	0.8496	0.3342	0.02815
308.15	0.8496	0.14757	0.01211
293.15	0.8496	0.50816	0.04356
323.15	0.8496	0.05487	0.00444
318.15	0.9381	0.10641	0.00868
308.15	0.9381	0.20654	0.01711
298.15	0.9381	0.46097	0.03936
303.15	0.9381	0.3037	0.02549
293.15	0.9381	0.67764	0.05892
313.15	0.9381	0.14289	0.01172
323.15	0.9381	0.08279	0.00673
318.15	1	0.14018	0.01145
303.15	1	0.36914	0.03114
308.15	1	0.25759	0.02142
293.15	1	0.80417	0.07045
298.15	1	0.54525	0.04683
313.15	1	0.18567	0.01528
323.15	1	0.11094	0.00901

System: 1-hexyl-3-methylimidazolium nitrate + octan-1-ol; phases: Liquid
Fixed: Pressure, kPa = 100
Property: Mass density, kg/m3 (Liquid); method: Vibrating tube method
Temperature, K	Mole fraction of 1-hexyl-3-methylimidazolium nitrate	Mass density, kg/m3	uncertainty
293.15	0.0806	856.1	1.3
298.15	0.0806	852.6	1.2
303.15	0.0806	848.9	1.2
308.15	0.0806	845.3	1.2
313.15	0.0806	841.7	1.2
318.15	0.0806	838	1.2
323.15	0.0806	834.4	1.2
298.15	0.1591	881.4	1.2
293.15	0.1591	885.1	1.2
303.15	0.1591	877.7	1.2
308.15	0.1591	874.1	1.2
313.15	0.1591	870.4	1.2
318.15	0.1591	866.7	1.2
323.15	0.1591	863	1.2
298.15	0.2392	909.5	1.2
303.15	0.2392	905.8	1.2
293.15	0.2392	913.2	1.2
308.15	0.2392	902.1	1.2
313.15	0.2392	898.4	1.2
318.15	0.2392	894.7	1.2
323.15	0.2392	891	1.2
303.15	0.3493	942.3	1.2
308.15	0.3493	938.6	1.2
293.15	0.3493	949.6	1.2
313.15	0.3493	934.8	1.2
298.15	0.3493	946	1.2
318.15	0.3493	931.2	1.2
323.15	0.3493	927.5	1.2
298.15	0.4396	974	1.2
303.15	0.4396	970.3	1.2
308.15	0.4396	966.7	1.2
313.15	0.4396	963	1.2
293.15	0.4396	977.6	1.2
318.15	0.4396	959.3	1.2
323.15	0.4396	955.7	1.2
308.15	0.5621	1002.5	1.2
303.15	0.5621	1006.1	1.2
298.15	0.5621	1009.7	1.2
313.15	0.5621	998.8	1.2
318.15	0.5621	995.2	1.2
293.15	0.5621	1013.2	1.2
323.15	0.5621	991.6	1.2
303.15	0.649	1030	1.2
313.15	0.649	1022.7	1.2
293.15	0.649	1036.9	1.2
298.15	0.649	1033.6	1.2
318.15	0.649	1019.2	1.2
308.15	0.649	1026.4	1.2
323.15	0.649	1015.7	1.2
313.15	0.7407	1046.7	1.2
303.15	0.7407	1053.8	1.3
318.15	0.7407	1043.2	1.2
293.15	0.7407	1060.6	1.3
298.15	0.7407	1057.3	1.3
308.15	0.7407	1050.3	1.3
323.15	0.7407	1039.8	1.2
313.15	0.8495	1073.5	1.3
303.15	0.8495	1080.4	1.3
318.15	0.8495	1070.1	1.3
298.15	0.8495	1083.8	1.3
308.15	0.8495	1077	1.3
293.15	0.8495	1087	1.3
323.15	0.8495	1066.8	1.3
318.15	0.9397	1091.1	1.4
308.15	0.9397	1097.8	1.4
298.15	0.9397	1104.4	1.4
303.15	0.9397	1101.1	1.4
293.15	0.9397	1107.4	1.4
313.15	0.9397	1094.4	1.4
323.15	0.9397	1087.9	1.4
318.15	1	1104.7	1.4
303.15	1	1114.3	1.4
308.15	1	1111.1	1.4
293.15	1	1120.3	1.4
298.15	1	1117.5	1.4
313.15	1	1107.8	1.4
323.15	1	1101.6	1.4

System: 1-hexyl-3-methylimidazolium nitrate + octan-1-ol; phases: Liquid
Fixed: Pressure, kPa = 100
Property: Viscosity, Pa*s (Liquid); method: Concentric cylinders viscometry
Temperature, K	Mole fraction of 1-hexyl-3-methylimidazolium nitrate	Viscosity, Pa*s	uncertainty
293.15	0.0806	0.01549	0.00126
298.15	0.0806	0.0113	0.00091
303.15	0.0806	0.00853	0.00069
308.15	0.0806	0.0067	0.00054
313.15	0.0806	0.00541	0.00043
318.15	0.0806	0.00425	0.00034
323.15	0.0806	0.00356	0.00029
298.15	0.1591	0.01596	0.00129
293.15	0.1591	0.02339	0.00189
303.15	0.1591	0.01146	0.00092
308.15	0.1591	0.00847	0.00068
313.15	0.1591	0.00635	0.00051
318.15	0.1591	0.00467	0.00037
323.15	0.1591	0.00384	0.00031
298.15	0.2392	0.02223	0.00179
303.15	0.2392	0.01538	0.00124
293.15	0.2392	0.03436	0.00278
308.15	0.2392	0.01057	0.00085
313.15	0.2392	0.00759	0.00061
318.15	0.2392	0.00541	0.00043
323.15	0.2392	0.00428	0.00034
303.15	0.3493	0.02323	0.00187
308.15	0.3493	0.01452	0.00117
293.15	0.3493	0.05585	0.00451
313.15	0.3493	0.01	0.0008
298.15	0.3493	0.03483	0.00281
318.15	0.3493	0.00705	0.00057
323.15	0.3493	0.00525	0.00042
298.15	0.4396	0.05105	0.00413
303.15	0.4396	0.03311	0.00268
308.15	0.4396	0.01963	0.00159
313.15	0.4396	0.01288	0.00104
293.15	0.4396	0.08356	0.00679
318.15	0.4396	0.00891	0.00072
323.15	0.4396	0.00646	0.00052
308.15	0.5621	0.03258	0.00263
303.15	0.5621	0.0542	0.00438
298.15	0.5621	0.08933	0.00725
313.15	0.5621	0.01977	0.0016
318.15	0.5621	0.01387	0.00112
293.15	0.5621	0.14962	0.01226
323.15	0.5621	0.00946	0.00076
303.15	0.649	0.07889	0.00641
313.15	0.649	0.02831	0.0023
293.15	0.649	0.22284	0.0185
298.15	0.649	0.13305	0.0109
318.15	0.649	0.01995	0.00162
308.15	0.649	0.0471	0.00382
323.15	0.649	0.01358	0.0011
313.15	0.7407	0.04473	0.00364
303.15	0.7407	0.12274	0.01005
318.15	0.7407	0.03192	0.0026
293.15	0.7407	0.33113	0.02788
298.15	0.7407	0.20544	0.01703
308.15	0.7407	0.07328	0.00596
323.15	0.7407	0.02208	0.0018
313.15	0.8495	0.08132	0.00663
303.15	0.8495	0.20315	0.01683
318.15	0.8495	0.05698	0.00464
298.15	0.8495	0.32184	0.02707
308.15	0.8495	0.12764	0.01046
293.15	0.8495	0.50466	0.04325
323.15	0.8495	0.04216	0.00344
318.15	0.9397	0.09997	0.00818
308.15	0.9397	0.19738	0.01636
298.15	0.9397	0.44663	0.0381
303.15	0.9397	0.29237	0.02452
293.15	0.9397	0.67763	0.05893
313.15	0.9397	0.13525	0.01112
323.15	0.9397	0.07646	0.00624
318.15	1	0.14018	0.01145
303.15	1	0.36914	0.03114
308.15	1	0.25759	0.02142
293.15	1	0.80417	0.07045
298.15	1	0.54525	0.04683
313.15	1	0.18567	0.01528
323.15	1	0.11094	0.00901

System: 1-hexyl-3-methylimidazolium nitrate + nonan-1-ol; phases: Liquid
Fixed: Pressure, kPa = 100
Property: Mass density, kg/m3 (Liquid); method: Vibrating tube method
Temperature, K	Mole fraction of 1-hexyl-3-methylimidazolium nitrate	Mass density, kg/m3	uncertainty
293.15	0.0819	856.1	1.2
298.15	0.0819	852.5	1.2
303.15	0.0819	849	1.2
308.15	0.0819	845.5	1.2
313.15	0.0819	841.9	1.2
318.15	0.0819	838.3	1.2
323.15	0.0819	834.7	1.2
298.15	0.1609	879.2	1.2
293.15	0.1609	882.8	1.2
303.15	0.1609	875.5	1.2
308.15	0.1609	872	1.2
313.15	0.1609	868.3	1.2
318.15	0.1609	864.7	1.2
323.15	0.1609	861.1	1.2
298.15	0.2386	904.7	1.2
303.15	0.2386	901	1.2
293.15	0.2386	908.3	1.2
308.15	0.2386	897.4	1.2
313.15	0.2386	893.7	1.2
318.15	0.2386	890	1.2
323.15	0.2386	886.4	1.2
303.15	0.3483	935.6	1.2
308.15	0.3483	932	1.2
293.15	0.3483	942.9	1.2
313.15	0.3483	928.3	1.2
298.15	0.3483	939.3	1.2
318.15	0.3483	924.6	1.2
323.15	0.3483	921	1.2
298.15	0.4392	967	1.2
303.15	0.4392	963.3	1.2
308.15	0.4392	959.7	1.2
313.15	0.4392	956	1.2
293.15	0.4392	970.5	1.2
318.15	0.4392	952.3	1.2
323.15	0.4392	948.6	1.2
308.15	0.5588	994.7	1.2
303.15	0.5588	998.3	1.2
298.15	0.5588	1001.9	1.2
313.15	0.5588	991	1.2
318.15	0.5588	987.4	1.2
293.15	0.5588	1005.4	1.2
323.15	0.5588	983.8	1.2
303.15	0.6508	1024.3	1.2
313.15	0.6508	1017	1.2
293.15	0.6508	1031.3	1.2
298.15	0.6508	1027.9	1.2
318.15	0.6508	1013.5	1.2
308.15	0.6508	1020.6	1.2
323.15	0.6508	1009.9	1.2
313.15	0.7394	1041.2	1.2
303.15	0.7394	1048.4	1.3
318.15	0.7394	1037.8	1.2
293.15	0.7394	1055.3	1.3
298.15	0.7394	1052	1.3
308.15	0.7394	1044.8	1.3
323.15	0.7394	1034.3	1.2
313.15	0.8497	1070.2	1.3
303.15	0.8497	1077.3	1.3
318.15	0.8497	1066.9	1.3
298.15	0.8497	1080.7	1.3
308.15	0.8497	1073.7	1.3
293.15	0.8497	1083.9	1.3
323.15	0.8497	1063.5	1.3
318.15	0.9456	1091.2	1.4
308.15	0.9456	1097.8	1.4
298.15	0.9456	1104.5	1.4
303.15	0.9456	1101.2	1.4
293.15	0.9456	1107.6	1.4
313.15	0.9456	1094.4	1.4
323.15	0.9456	1088	1.4
318.15	1	1104.7	1.4
303.15	1	1114.3	1.4
308.15	1	1111.1	1.4
293.15	1	1120.3	1.4
298.15	1	1117.5	1.4
313.15	1	1107.8	1.4
323.15	1	1101.6	1.4

System: 1-hexyl-3-methylimidazolium nitrate + nonan-1-ol; phases: Liquid
Fixed: Pressure, kPa = 100
Property: Viscosity, Pa*s (Liquid); method: Concentric cylinders viscometry
Temperature, K	Mole fraction of 1-hexyl-3-methylimidazolium nitrate	Viscosity, Pa*s	uncertainty
293.15	0.0819	0.01574	0.00127
298.15	0.0819	0.01259	0.00101
303.15	0.0819	0.01019	0.00082
308.15	0.0819	0.00841	0.00068
313.15	0.0819	0.0067	0.00054
318.15	0.0819	0.00528	0.00042
323.15	0.0819	0.00415	0.00033
298.15	0.1609	0.01667	0.00134
293.15	0.1609	0.02223	0.00179
303.15	0.1609	0.01318	0.00106
308.15	0.1609	0.01005	0.00081
313.15	0.1609	0.00787	0.00063
318.15	0.1609	0.00578	0.00046
323.15	0.1609	0.00425	0.00034
298.15	0.2386	0.02193	0.00177
303.15	0.2386	0.01679	0.00135
293.15	0.2386	0.03027	0.00244
308.15	0.2386	0.01225	0.00098
313.15	0.2386	0.00906	0.00073
318.15	0.2386	0.00635	0.00051
323.15	0.2386	0.00441	0.00035
303.15	0.3483	0.02427	0.00195
308.15	0.3483	0.01694	0.00136
293.15	0.3483	0.04853	0.00391
313.15	0.3483	0.01104	0.00089
298.15	0.3483	0.03381	0.00273
318.15	0.3483	0.00736	0.00059
323.15	0.3483	0.00484	0.00039
298.15	0.4392	0.04819	0.00389
303.15	0.4392	0.03311	0.00267
308.15	0.4392	0.02208	0.00178
313.15	0.4392	0.01327	0.00107
293.15	0.4392	0.07112	0.00575
318.15	0.4392	0.00861	0.00069
323.15	0.4392	0.00533	0.00043
308.15	0.5588	0.03281	0.00265
303.15	0.5588	0.05188	0.00419
298.15	0.5588	0.07943	0.00643
313.15	0.5588	0.01892	0.00153
318.15	0.5588	0.01146	0.00092
293.15	0.5588	0.11749	0.00957
323.15	0.5588	0.00684	0.00055
303.15	0.6508	0.07603	0.00616
313.15	0.6508	0.02673	0.00217
293.15	0.6508	0.17742	0.01462
298.15	0.6508	0.1183	0.00965
318.15	0.6508	0.01585	0.00128
308.15	0.6508	0.04571	0.0037
323.15	0.6508	0.00963	0.00078
313.15	0.7394	0.0413	0.00336
303.15	0.7394	0.11324	0.00925
318.15	0.7394	0.02539	0.00208
293.15	0.7394	0.26363	0.02201
298.15	0.7394	0.17579	0.01451
308.15	0.7394	0.06808	0.00553
323.15	0.7394	0.0162	0.00133
313.15	0.8497	0.07371	0.00602
303.15	0.8497	0.18834	0.01558
318.15	0.8497	0.05343	0.00436
298.15	0.8497	0.2884	0.02418
308.15	0.8497	0.11637	0.00953
293.15	0.8497	0.41305	0.03514
323.15	0.8497	0.03768	0.00309
318.15	0.9456	0.10171	0.00833
308.15	0.9456	0.19231	0.01595
298.15	0.9456	0.4396	0.0375
303.15	0.9456	0.29459	0.02473
293.15	0.9456	0.63096	0.05478
313.15	0.9456	0.13637	0.01122
323.15	0.9456	0.07873	0.00643
318.15	1	0.14018	0.01145
303.15	1	0.36914	0.03114
308.15	1	0.25759	0.02142
293.15	1	0.80417	0.07045
298.15	1	0.54525	0.04683
313.15	1	0.18567	0.01528
323.15	1	0.11094	0.00901

System: 1-hexyl-3-methylimidazolium nitrate + decan-1-ol; phases: Liquid
Fixed: Pressure, kPa = 100
Property: Mass density, kg/m3 (Liquid); method: Vibrating tube method
Temperature, K	Mole fraction of 1-hexyl-3-methylimidazolium nitrate	Mass density, kg/m3	uncertainty
293.15	0.0818	855.4	1.2
298.15	0.0818	851.9	1.2
303.15	0.0818	848.4	1.2
308.15	0.0818	845	1.2
313.15	0.0818	841.4	1.2
318.15	0.0818	837.9	1.2
323.15	0.0818	834.4	1.2
298.15	0.1583	875.7	1.2
293.15	0.1583	879.2	1.2
303.15	0.1583	872.2	1.2
308.15	0.1583	868.7	1.2
313.15	0.1583	865.1	1.2
318.15	0.1583	861.6	1.2
323.15	0.1583	858	1.2
298.15	0.2414	901.3	1.2
303.15	0.2414	897.7	1.2
293.15	0.2414	904.7	1.2
308.15	0.2414	894.2	1.2
313.15	0.2414	890.6	1.2
318.15	0.2414	887	1.2
323.15	0.2414	883.4	1.2
303.15	0.3482	930	1.2
308.15	0.3482	926.4	1.2
293.15	0.3482	937.1	1.2
313.15	0.3482	922.8	1.2
298.15	0.3482	933.6	1.2
318.15	0.3482	919.2	1.2
323.15	0.3482	915.6	1.2
298.15	0.4414	961.4	1.2
303.15	0.4414	957.8	1.2
308.15	0.4414	954.2	1.2
313.15	0.4414	950.5	1.2
293.15	0.4414	964.8	1.2
318.15	0.4414	946.9	1.2
323.15	0.4414	943.3	1.2
308.15	0.5593	988.6	1.2
303.15	0.5593	992.2	1.2
298.15	0.5593	995.8	1.2
313.15	0.5593	984.9	1.2
318.15	0.5593	981.4	1.2
293.15	0.5593	999.2	1.2
323.15	0.5593	977.8	1.2
303.15	0.6481	1017.7	1.2
313.15	0.6481	1010.5	1.2
293.15	0.6481	1024.6	1.2
298.15	0.6481	1021.3	1.2
318.15	0.6481	1007	1.2
308.15	0.6481	1014.2	1.2
323.15	0.6481	1003.5	1.2
313.15	0.7414	1036.9	1.3
303.15	0.7414	1044	1.3
318.15	0.7414	1033.5	1.3
293.15	0.7414	1050.8	1.3
298.15	0.7414	1047.5	1.3
308.15	0.7414	1040.5	1.3
323.15	0.7414	1030	1.3
313.15	0.8496	1067	1.3
303.15	0.8496	1073.9	1.3
318.15	0.8496	1063.7	1.3
298.15	0.8496	1077.3	1.4
308.15	0.8496	1070.5	1.3
293.15	0.8496	1080.4	1.4
323.15	0.8496	1060.4	1.3
318.15	0.9402	1088.5	1.4
308.15	0.9402	1095.1	1.4
298.15	0.9402	1101.7	1.4
303.15	0.9402	1098.4	1.4
293.15	0.9402	1104.7	1.4
313.15	0.9402	1091.7	1.4
323.15	0.9402	1085.3	1.4
318.15	1	1104.7	1.4
303.15	1	1114.3	1.4
308.15	1	1111.1	1.4
293.15	1	1120.3	1.4
298.15	1	1117.5	1.4
313.15	1	1107.8	1.4
323.15	1	1101.6	1.4

System: 1-hexyl-3-methylimidazolium nitrate + decan-1-ol; phases: Liquid
Fixed: Pressure, kPa = 100
Property: Viscosity, Pa*s (Liquid); method: Concentric cylinders viscometry
Temperature, K	Mole fraction of 1-hexyl-3-methylimidazolium nitrate	Viscosity, Pa*s	uncertainty
293.15	0.0818	0.01862	0.0015
298.15	0.0818	0.015	0.00121
303.15	0.0818	0.01186	0.00095
308.15	0.0818	0.00951	0.00076
313.15	0.0818	0.00741	0.00059
318.15	0.0818	0.00598	0.00048
323.15	0.0818	0.00495	0.0004
298.15	0.1583	0.01875	0.00151
293.15	0.1583	0.02427	0.00195
303.15	0.1583	0.01439	0.00116
308.15	0.1583	0.01086	0.00087
313.15	0.1583	0.00815	0.00065
318.15	0.1583	0.00621	0.0005
323.15	0.1583	0.00514	0.00041
298.15	0.2414	0.02393	0.00193
303.15	0.2414	0.01758	0.00141
293.15	0.2414	0.03334	0.00269
308.15	0.2414	0.01285	0.00103
313.15	0.2414	0.00897	0.00072
318.15	0.2414	0.00644	0.00052
323.15	0.2414	0.00528	0.00042
303.15	0.3482	0.02291	0.00184
308.15	0.3482	0.01603	0.00129
293.15	0.3482	0.0507	0.00409
313.15	0.3482	0.01016	0.00082
298.15	0.3482	0.03381	0.00272
318.15	0.3482	0.0071	0.00057
323.15	0.3482	0.0056	0.00045
298.15	0.4414	0.04742	0.00383
303.15	0.4414	0.03027	0.00244
308.15	0.4414	0.02004	0.00161
313.15	0.4414	0.01194	0.00096
293.15	0.4414	0.07379	0.00597
318.15	0.4414	0.00812	0.00065
323.15	0.4414	0.00607	0.00049
308.15	0.5593	0.02844	0.0023
303.15	0.5593	0.04539	0.00367
298.15	0.5593	0.0743	0.00601
313.15	0.5593	0.01652	0.00133
318.15	0.5593	0.00993	0.0008
293.15	0.5593	0.11912	0.0097
323.15	0.5593	0.00703	0.00057
303.15	0.6481	0.06577	0.00533
313.15	0.6481	0.0235	0.0019
293.15	0.6481	0.17338	0.01428
298.15	0.6481	0.11169	0.00911
318.15	0.6481	0.01343	0.00109
308.15	0.6481	0.03963	0.00321
323.15	0.6481	0.00904	0.00073
313.15	0.7414	0.03597	0.00293
303.15	0.7414	0.0987	0.00806
318.15	0.7414	0.02234	0.00183
293.15	0.7414	0.26182	0.02188
298.15	0.7414	0.171	0.0141
308.15	0.7414	0.06067	0.00494
323.15	0.7414	0.01567	0.00129
313.15	0.8496	0.06747	0.00551
303.15	0.8496	0.16866	0.01393
318.15	0.8496	0.04797	0.00393
298.15	0.8496	0.27606	0.02312
308.15	0.8496	0.10857	0.0089
293.15	0.8496	0.41976	0.03574
323.15	0.8496	0.0363	0.003
318.15	0.9402	0.09214	0.00756
308.15	0.9402	0.18387	0.01524
298.15	0.9402	0.41745	0.03557
303.15	0.9402	0.26765	0.02244
293.15	0.9402	0.62517	0.05426
313.15	0.9402	0.12398	0.01021
323.15	0.9402	0.0737	0.00603
318.15	1	0.14018	0.01145
303.15	1	0.36914	0.03114
308.15	1	0.25759	0.02142
293.15	1	0.80417	0.07045
298.15	1	0.54525	0.04683
313.15	1	0.18567	0.01528
323.15	1	0.11094	0.00901
