Measured thermophysical data. Solubility Data for Roflumilast and Maraviroc in Various Solvents between T = (278.2-323.2) K
Source: J. Chem. Eng. Data, 2019, 10.1021/acs.jced.9b00710
Compound 1: ethanol, C2H6O, InChI=1S/C2H6O/c1-2-3/h3H,2H2,1H3, purity 99%
Compound 2: propan-1-ol, C3H8O, InChI=1S/C3H8O/c1-2-3-4/h4H,2-3H2,1H3, purity 99.5%
Compound 3: butan-1-ol, C4H10O, InChI=1S/C4H10O/c1-2-3-4-5/h5H,2-4H2,1H3, purity 99%
Compound 4: butanone, C4H8O, InChI=1S/C4H8O/c1-3-4(2)5/h3H2,1-2H3, purity 99%
Compound 5: pentan-2-one, C5H10O, InChI=1S/C5H10O/c1-3-4-5(2)6/h3-4H2,1-2H3, purity 99%
Compound 6: dimethyl sulfoxide, C2H6OS, InChI=1S/C2H6OS/c1-4(2)3/h1-2H3, purity 99%
Compound 7: dimethylformamide, C3H7NO, InChI=1S/C3H7NO/c1-4(2)3-5/h3H,1-2H3, purity 99%
Compound 8: water, H2O, InChI=1S/H2O/h1H2, purity 99.9%
Compound 9: cyclohexane, C6H12, InChI=1S/C6H12/c1-2-4-6-5-3-1/h1-6H2, purity 99%
Compound 10: benzoic acid, C7H6O2, InChI=1S/C7H6O2/c8-7(9)6-4-2-1-3-5-6/h1-5H,(H,8,9), purity 99.5%
Compound 11: roflumilast, C17H14Cl2F2N2O3, InChI=1S/C17H14Cl2F2N2O3/c18-11-6-22-7-12(19)15(11)23-16(24)10-3-4-13(26-17(20)21)14(5-10)25-8-9-1-2-9/h3-7,9,17H,1-2,8H2,(H,22,23,24), purity 99%
Compound 12: maraviroc, C29H41F2N5O, InChI=1S/C29H41F2N5O/c1-19(2)27-34-33-20(3)36(27)25-17-23-9-10-24(18-25)35(23)16-13-26(21-7-5-4-6-8-21)32-28(37)22-11-14-29(30,31)15-12-22/h4-8,19,22-26H,9-18H2,1-3H3,(H,32,37)/t23-,24+,25-,26-/m0/s1, purity 99%

System: ethanol; phases: Liquid
Property: Refractive index (Na D-line) (Liquid); method: Standard Abbe refractometry
Temperature, K	Pressure, kPa	Refractive index (Na D-line)	uncertainty
293.15	101.325	1.361	0.002

System: propan-1-ol; phases: Liquid
Property: Refractive index (Na D-line) (Liquid); method: Standard Abbe refractometry
Temperature, K	Pressure, kPa	Refractive index (Na D-line)	uncertainty
293.15	101.325	1.3854	0.002

System: butan-1-ol; phases: Liquid
Property: Refractive index (Na D-line) (Liquid); method: Standard Abbe refractometry
Temperature, K	Pressure, kPa	Refractive index (Na D-line)	uncertainty
293.15	101.325	1.3989	0.002

System: butanone; phases: Liquid
Property: Refractive index (Na D-line) (Liquid); method: Standard Abbe refractometry
Temperature, K	Pressure, kPa	Refractive index (Na D-line)	uncertainty
293.15	101.325	1.3787	0.002

System: pentan-2-one; phases: Liquid
Property: Refractive index (Na D-line) (Liquid); method: Standard Abbe refractometry
Temperature, K	Pressure, kPa	Refractive index (Na D-line)	uncertainty
293.15	101.325	1.3893	0.002

System: dimethyl sulfoxide; phases: Liquid
Property: Refractive index (Na D-line) (Liquid); method: Standard Abbe refractometry
Temperature, K	Pressure, kPa	Refractive index (Na D-line)	uncertainty
293.15	101.325	1.4789	0.002

System: dimethylformamide; phases: Liquid
Property: Refractive index (Na D-line) (Liquid); method: Standard Abbe refractometry
Temperature, K	Pressure, kPa	Refractive index (Na D-line)	uncertainty
293.15	101.325	1.4309	0.002

System: water; phases: Liquid
Property: Refractive index (Na D-line) (Liquid); method: Standard Abbe refractometry
Temperature, K	Pressure, kPa	Refractive index (Na D-line)	uncertainty
293.15	101.325	1.3334	0.002

System: cyclohexane; phases: Liquid
Property: Refractive index (Na D-line) (Liquid); method: Standard Abbe refractometry
Temperature, K	Pressure, kPa	Refractive index (Na D-line)	uncertainty
293.15	101.325	1.4235	0.002

System: benzoic acid; phases: Crystal, Liquid, Air at 1 atmosphere
Property: Triple point temperature, K (Crystal); method: DSC
Triple point temperature, K	uncertainty
395.63	1.22

System: benzoic acid; phases: Crystal, Liquid, Air at 1 atmosphere
Property: Molar enthalpy of transition or fusion, kJ/mol (Crystal); method: DSC
Molar enthalpy of transition or fusion, kJ/mol	uncertainty
17.77	1.82

System: roflumilast; phases: Crystal, Liquid, Air at 1 atmosphere
Property: Triple point temperature, K (Crystal); method: DSC
Triple point temperature, K	uncertainty
432.4	1.22

System: roflumilast; phases: Crystal, Liquid, Air at 1 atmosphere
Property: Molar enthalpy of transition or fusion, kJ/mol (Crystal); method: DSC
Molar enthalpy of transition or fusion, kJ/mol	uncertainty
37.82	3.85

System: maraviroc; phases: Crystal, Liquid, Air at 1 atmosphere
Property: Triple point temperature, K (Crystal); method: DSC
Triple point temperature, K	uncertainty
468.1	1.22

System: maraviroc; phases: Crystal, Liquid, Air at 1 atmosphere
Property: Molar enthalpy of transition or fusion, kJ/mol (Crystal); method: DSC
Molar enthalpy of transition or fusion, kJ/mol	uncertainty
36.42	3.71

System: roflumilast + ethanol; phases: Liquid, Crystal
Fixed: Pressure, kPa = 101
Property: Mole fraction of roflumilast (Liquid); method: gravimetric
Temperature, K	Mole fraction of roflumilast	uncertainty
278.2	6.5e-05	4.4e-05
283.2	8.8e-05	4.4e-05
288.2	0.000106	4.4e-05
293.2	0.00015	4.4e-05
298.2	0.000208	4.4e-05
303.2	0.000297	4.4e-05
308.2	0.000387	4.4e-05
313.2	0.000533	4.5e-05
318.2	0.000734	4.5e-05
323.2	0.000989	4.5e-05

System: roflumilast + propan-1-ol; phases: Liquid, Crystal
Fixed: Pressure, kPa = 101
Property: Mole fraction of roflumilast (Liquid); method: gravimetric
Temperature, K	Mole fraction of roflumilast	uncertainty
278.2	4.9e-05	4.4e-05
283.2	7.6e-05	4.4e-05
288.2	9.4e-05	4.4e-05
293.2	0.000131	4.4e-05
298.2	0.000175	4.4e-05
303.2	0.000244	4.4e-05
308.2	0.000328	4.4e-05
313.2	0.000455	4.4e-05
318.2	0.000625	4.5e-05
323.2	0.000868	4.5e-05

System: roflumilast + butan-1-ol; phases: Liquid, Crystal
Fixed: Pressure, kPa = 101
Property: Mole fraction of roflumilast (Liquid); method: gravimetric
Temperature, K	Mole fraction of roflumilast	uncertainty
278.2	4.5e-05	4.4e-05
283.2	6.2e-05	4.4e-05
288.2	7.8e-05	4.4e-05
293.2	0.000112	4.4e-05
298.2	0.000156	4.4e-05
303.2	0.000226	4.4e-05
308.2	0.000296	4.4e-05
313.2	0.000411	4.4e-05
318.2	0.00057	4.5e-05
323.2	0.000782	4.5e-05

System: roflumilast + butanone; phases: Liquid, Crystal
Fixed: Pressure, kPa = 101
Property: Mole fraction of roflumilast (Liquid); method: gravimetric
Temperature, K	Mole fraction of roflumilast	uncertainty
278.2	0.000102	4.4e-05
283.2	0.00013	4.4e-05
288.2	0.000165	4.4e-05
293.2	0.000204	4.4e-05
298.2	0.000264	4.4e-05
303.2	0.000351	4.4e-05
308.2	0.000448	4.4e-05
313.2	0.000586	4.5e-05
318.2	0.00081	4.6e-05
323.2	0.001181	4.7e-05

System: roflumilast + pentan-2-one; phases: Liquid, Crystal
Fixed: Pressure, kPa = 101
Property: Mole fraction of roflumilast (Liquid); method: gravimetric
Temperature, K	Mole fraction of roflumilast	uncertainty
278.2	7.4e-05	4.4e-05
283.2	9.8e-05	4.4e-05
288.2	0.000114	4.4e-05
293.2	0.00016	4.4e-05
298.2	0.000219	4.4e-05
303.2	0.000311	4.4e-05
308.2	0.000402	4.4e-05
313.2	0.000551	4.5e-05
318.2	0.000756	4.5e-05
323.2	0.00101	4.5e-05

System: roflumilast + dimethyl sulfoxide; phases: Liquid, Crystal
Fixed: Pressure, kPa = 101
Property: Mole fraction of roflumilast (Liquid); method: gravimetric
Temperature, K	Mole fraction of roflumilast	uncertainty
278.2	3.3e-05	3.3e-05
283.2	4.2e-05	4.2e-05
288.2	6.3e-05	4.4e-05
293.2	9e-05	4.4e-05
298.2	0.000132	4.4e-05
303.2	0.000171	4.4e-05
308.2	0.000236	4.4e-05
313.2	0.00033	4.4e-05
318.2	0.000457	4.4e-05
323.2	0.000629	4.5e-05

System: roflumilast + dimethylformamide; phases: Liquid, Crystal
Fixed: Pressure, kPa = 101
Property: Mole fraction of roflumilast (Liquid); method: gravimetric
Temperature, K	Mole fraction of roflumilast	uncertainty
278.2	4e-06	4e-06
283.2	6e-06	6e-06
288.2	8e-06	8e-06
293.2	1.3e-05	1.3e-05
298.2	1.9e-05	1.9e-05
303.2	3.1e-05	3.1e-05
308.2	4.3e-05	4.3e-05
313.2	6.1e-05	4.4e-05
318.2	8.6e-05	4.4e-05
323.2	0.000119	4.4e-05

System: maraviroc + ethanol; phases: Liquid, Crystal
Fixed: Pressure, kPa = 101
Property: Mole fraction of maraviroc (Liquid); method: gravimetric
Temperature, K	Mole fraction of maraviroc	uncertainty
278.2	0.000281	4e-05
283.2	0.000404	4e-05
288.2	0.00052	4.1e-05
293.2	0.000716	4.1e-05
298.2	0.00102	4.3e-05
303.2	0.001438	4.4e-05
308.2	0.001894	4.7e-05
313.2	0.002634	5.1e-05
318.2	0.00344	5.7e-05
323.2	0.004614	6.2e-05

System: maraviroc + propan-1-ol; phases: Liquid, Crystal
Fixed: Pressure, kPa = 101
Property: Mole fraction of maraviroc (Liquid); method: gravimetric
Temperature, K	Mole fraction of maraviroc	uncertainty
278.2	0.00021	4e-05
283.2	0.00031	4e-05
288.2	0.00042	4e-05
293.2	0.000609	4.1e-05
298.2	0.00088	4.2e-05
303.2	0.00124	4.3e-05
308.2	0.00167	4.6e-05
313.2	0.002355	5e-05
318.2	0.003111	5.5e-05
323.2	0.004205	6e-05

System: maraviroc + butan-1-ol; phases: Liquid, Crystal
Fixed: Pressure, kPa = 101
Property: Mole fraction of maraviroc (Liquid); method: gravimetric
Temperature, K	Mole fraction of maraviroc	uncertainty
278.2	0.0002	4e-05
283.2	0.000293	4e-05
288.2	0.000383	4e-05
293.2	0.000533	4.1e-05
298.2	0.000778	4.2e-05
303.2	0.00112	4.3e-05
308.2	0.001498	4.5e-05
313.2	0.002121	4.8e-05
318.2	0.00282	5.4e-05
323.2	0.003875	5.9e-05

System: maraviroc + butanone; phases: Liquid, Crystal
Fixed: Pressure, kPa = 101
Property: Mole fraction of maraviroc (Liquid); method: gravimetric
Temperature, K	Mole fraction of maraviroc	uncertainty
278.2	0.000179	4e-05
283.2	0.000262	4e-05
288.2	0.000349	4e-05
293.2	0.000491	4.1e-05
298.2	0.000715	4.1e-05
303.2	0.001019	4.2e-05
308.2	0.001368	4.4e-05
313.2	0.001926	4.7e-05
318.2	0.002566	5.1e-05
323.2	0.003511	5.6e-05

System: maraviroc + pentan-2-one; phases: Liquid, Crystal
Fixed: Pressure, kPa = 101
Property: Mole fraction of maraviroc (Liquid); method: gravimetric
Temperature, K	Mole fraction of maraviroc	uncertainty
278.2	0.000152	4e-05
283.2	0.000224	4e-05
288.2	0.000296	4e-05
293.2	0.000418	4e-05
298.2	0.000607	4.1e-05
303.2	0.00087	4.2e-05
308.2	0.001191	4.3e-05
313.2	0.00168	4.6e-05
318.2	0.002291	5e-05
323.2	0.003159	5.3e-05

System: maraviroc + water; phases: Liquid, Crystal
Fixed: Pressure, kPa = 101
Property: Mole fraction of maraviroc (Liquid); method: gravimetric
Temperature, K	Mole fraction of maraviroc	uncertainty
278.2	6e-06	6e-06
283.2	9e-06	9e-06
288.2	1.2e-05	1.2e-05
293.2	1.7e-05	1.7e-05
298.2	2.5e-05	2.5e-05
303.2	3.6e-05	3.6e-05
308.2	4.8e-05	4e-05
313.2	6.9e-05	4e-05
318.2	9.2e-05	4e-05
323.2	0.000129	4e-05

System: maraviroc + dimethyl sulfoxide; phases: Liquid, Crystal
Fixed: Pressure, kPa = 101
Property: Mole fraction of maraviroc (Liquid); method: gravimetric
Temperature, K	Mole fraction of maraviroc	uncertainty
278.2	1.4e-05	1.4e-05
283.2	2.4e-05	2.4e-05
288.2	3.7e-05	3.7e-05
293.2	5.6e-05	4e-05
298.2	8.4e-05	4e-05
303.2	0.000128	4e-05
308.2	0.000173	4e-05
313.2	0.000263	4e-05
318.2	0.000358	4e-05
323.2	0.00053	4.1e-05

System: maraviroc + dimethylformamide; phases: Liquid, Crystal
Fixed: Pressure, kPa = 101
Property: Mole fraction of maraviroc (Liquid); method: gravimetric
Temperature, K	Mole fraction of maraviroc	uncertainty
278.2	3.5e-05	3.5e-05
283.2	5.6e-05	4e-05
288.2	7.6e-05	4e-05
293.2	0.000112	4e-05
298.2	0.000168	4e-05
303.2	0.000244	4e-05
308.2	0.000341	4e-05
313.2	0.000507	4.1e-05
318.2	0.000689	4.1e-05
323.2	0.00101	4.2e-05

System: benzoic acid + cyclohexane; phases: Liquid, Crystal
Fixed: Pressure, kPa = 101
Property: Mole fraction of benzoic acid (Liquid); method: gravimetric
Temperature, K	Mole fraction of benzoic acid	uncertainty
323.15	0.04548	0.000738
318.15	0.035033	0.000702
313.15	0.027655	0.000668
308.15	0.020638	0.000648
303.15	0.015656	0.000632
298.15	0.010878	0.000619
293.15	0.00808	0.000608
288.15	0.00595	0.000605
283.15	0.004178	0.000603
278.15	0.00282	0.000602
