Measured thermophysical data. Liquid-Liquid Extraction of Biobased Isobutanol from an Aqueous Solution
Source: J. Chem. Eng. Data, 2019, 10.1021/acs.jced.8b01131
Compound 1: 2-methyl-1-propanol, C4H10O, InChI=1S/C4H10O/c1-4(2)3-5/h4-5H,3H2,1-2H3, purity 99%
Compound 2: cyclopentanol, C5H10O, InChI=1S/C5H10O/c6-5-3-1-2-4-5/h5-6H,1-4H2, purity 99%
Compound 3: 2-methylbutan-2-ol, C5H12O, InChI=1S/C5H12O/c1-4-5(2,3)6/h6H,4H2,1-3H3, purity 99%
Compound 4: pentanal, C5H10O, InChI=1S/C5H10O/c1-2-3-4-5-6/h5H,2-4H2,1H3, purity 98%
Compound 5: water, H2O, InChI=1S/H2O/h1H2, purity 99.9%

System: water + 2-methyl-1-propanol + cyclopentanol; phases: Liquid mixture 1, Liquid mixture 2
Fixed: Pressure, kPa = 101.33
Property: Mass fraction of 2-methyl-1-propanol (Liquid mixture 1); method: Chromatography
Property: Mass fraction of water (Liquid mixture 2); method: Chromatography
Property: Mass fraction of 2-methyl-1-propanol (Liquid mixture 2); method: Chromatography
Temperature, K	Mass fraction of water	Mass fraction of 2-methyl-1-propanol	uncertainty	Mass fraction of water	uncertainty	Mass fraction of 2-methyl-1-propanol	uncertainty
298.15	0.9037	0.0057	0.0057	0.1717	0.0084	0.0503	
298.15	0.9025	0.0039	0.0039	0.1676	0.0081	0.0347	
298.15	0.9045	0.0019	0.0019	0.1719	0.0084	0.0177	
298.15	0.9044	0.0009	0.0009	0.1753	0.0086	0.0087	
298.15	0.9012	0.0005	0.0005	0.1713	0.0081	0.0061	
308.15	0.9131	0.0054	0.0054	0.1826	0.0082	0.0499	
308.15	0.9109	0.0036	0.0036	0.183	0.0082	0.0338	
308.15	0.9126	0.0019	0.0019	0.1783	0.0081	0.0173	
308.15	0.9139	0.0008	0.0008	0.1812	0.0088	0.0086	
308.15	0.913	0.0005	0.0005	0.1794	0.0082	0.0058	
318.15	0.9192	0.005	0.005	0.1871	0.0082	0.0491	
318.15	0.9173	0.0035	0.0035	0.1891	0.0081	0.0338	
318.15	0.9168	0.0018	0.0018	0.1898	0.0081	0.0169	
318.15	0.917	0.0009	0.0009	0.1897	0.0081	0.0085	
318.15	0.9172	0.0006	0.0006	0.1871	0.0082	0.0057	

System: water + 2-methyl-1-propanol + pentanal; phases: Liquid mixture 2, Liquid mixture 1
Fixed: Pressure, kPa = 101.33
Property: Mass fraction of water (Liquid mixture 2); method: Chromatography
Property: Mass fraction of water (Liquid mixture 1); method: Chromatography
Property: Mass fraction of 2-methyl-1-propanol (Liquid mixture 1); method: Chromatography
Temperature, K	Mass fraction of 2-methyl-1-propanol	Mass fraction of water	uncertainty	Mass fraction of water	uncertainty	Mass fraction of 2-methyl-1-propanol	uncertainty
298.15	0.0029	0.9803	0.008	0.0233	0.0081	0.0556	
298.15	0.0021	0.9795	0.008	0.0201	0.0081	0.0389	
298.15	0.0011	0.9807	0.008	0.0185	0.008	0.0205	
298.15	0.0005	0.9826	0.008	0.0182	0.008	0.0106	
298.15	0.0003	0.9813	0.008	0.019	0.008	0.0075	
308.15	0.0035	0.9806	0.008	0.0321	0.0082	0.0543	
308.15	0.0024	0.9821	0.008	0.0331	0.0081	0.0386	
308.15	0.0013	0.9829	0.008	0.0282	0.008	0.0202	
308.15	0.0007	0.9837	0.008	0.0387	0.0083	0.0115	
308.15	0.0005	0.9834	0.008	0.0281	0.0082	0.0073	
318.15	0.0035	0.9824	0.008	0.0336	0.0082	0.0521	
318.15	0.0026	0.9839	0.008	0.0301	0.0082	0.0369	
318.15	0.0013	0.9819	0.008	0.0258	0.0082	0.0196	
318.15	0.0007	0.9826	0.008	0.0246	0.0081	0.0103	
318.15	0.0006	0.9828	0.008	0.0245	0.008	0.0067	

System: water + 2-methyl-1-propanol + 2-methylbutan-2-ol; phases: Liquid mixture 2, Liquid mixture 1
Fixed: Pressure, kPa = 101.33
Property: Mass fraction of 2-methyl-1-propanol (Liquid mixture 2); method: Chromatography
Property: Mass fraction of water (Liquid mixture 1); method: Chromatography
Property: Mass fraction of 2-methyl-1-propanol (Liquid mixture 1); method: Chromatography
Temperature, K	Mass fraction of water	Mass fraction of 2-methyl-1-propanol	uncertainty	Mass fraction of water	uncertainty	Mass fraction of 2-methyl-1-propanol	uncertainty
298.15	0.8964	0.0054	0.0054	0.2209	0.0085	0.0514	
298.15	0.8952	0.0037	0.0037	0.2265	0.0084	0.034	
298.15	0.8983	0.0016	0.0016	0.2302	0.0083	0.0171	
298.15	0.8954	0.0009	0.0009	0.2312	0.0082	0.0084	
298.15	0.8904	0.0004	0.0004	0.2305	0.0082	0.0059	
308.15	0.9139	0.0048	0.0048	0.2127	0.0083	0.0501	
308.15	0.913	0.0034	0.0034	0.2168	0.0082	0.0341	
308.15	0.9122	0.0016	0.0016	0.2169	0.0082	0.0169	
308.15	0.9074	0.001	0.001	0.215	0.0082	0.0085	
308.15	0.911	0.0008	0.0008	0.2223	0.0084	0.0049	
318.15	0.9219	0.0042	0.0042	0.2064	0.0081	0.0495	
318.15	0.9227	0.0028	0.0028	0.2057	0.0081	0.0337	
318.15	0.9204	0.0015	0.0015	0.2049	0.0081	0.0171	
318.15	0.9178	0.0008	0.0008	0.2062	0.0082	0.0081	
318.15	0.9195	0.0004	0.0004	0.2092	0.0084	0.0055	
