Measured thermophysical data. Vapor-Liquid Equilibria Study of the Aqueous Systems Containing {Choline Chloride + Glucose or Urea} and Their Deep Eutectic Solvents at 298.15 K and 85 kPa
Source: J. Chem. Eng. Data, 2019, 10.1021/acs.jced.9b00076
Compound 1: choline chloride, C5H14ClNO, InChI=1S/C5H14NO.ClH/c1-6(2,3)4-5-7;/h7H,4-5H2,1-3H3;1H/q+1;/p-1, purity 99%
Compound 2: D-glucose, C6H12O6, InChI=1S/C6H12O6/c7-1-3(9)5(11)6(12)4(10)2-8/h1,3-6,8-12H,2H2/t3-,4+,5+,6+/m0/s1, purity 99.5%
Compound 3: urea, CH4N2O, InChI=1S/CH4N2O/c2-1(3)4/h(H4,2,3,4), purity 99.5%
Compound 4: water, H2O, InChI=1S/H2O/h1H2, purity 99.9%

System: D-glucose + choline chloride + water; phases: Liquid
Fixed: Temperature, K = 298.15
Fixed: Pressure, kPa = 85
Property: (Relative) activity of water (Liquid); method: ISOPIE
Mass fraction of choline chloride	Mass fraction of D-glucose	(Relative) activity of water	uncertainty
0.0595	0	0.9862	0.0387
0.0474	0.0234	0.9862	0.0387
0.0289	0.0607	0.9862	0.0388
0	0.1113	0.9862	0.0387
0.0863	0	0.9789	0.0387
0.0685	0.0347	0.9789	0.0387
0.0409	0.084	0.9789	0.0387
0	0.1586	0.9789	0.0387
0.1063	0	0.9742	0.0387
0.0844	0.0427	0.9742	0.0388
0.0509	0.1045	0.9742	0.0388
0	0.2015	0.9742	0.0387
0.1295	0	0.9676	0.0387
0.1028	0.0521	0.9676	0.0388
0.0613	0.126	0.9676	0.0388
0	0.2378	0.9676	0.0387
0.1663	0	0.9579	0.0388
0.1304	0.0727	0.9579	0.0388
0.0809	0.1445	0.9579	0.0388
0	0.2715	0.9579	0.0387
0.1996	0	0.9449	0.0388
0.1559	0.077	0.9449	0.0388
0.0903	0.1897	0.9449	0.039
0	0.3256	0.9449	0.0387
0.2082	0	0.9405	0.0388
0.1637	0.0829	0.9405	0.0388
0.094	0.1932	0.9405	0.039
0	0.3445	0.9405	0.0387
0.2342	0	0.9315	0.0388
0.1842	0.0933	0.9315	0.0388
0.1058	0.2173	0.9315	0.0388
0	0.3876	0.9315	0.0387

System: D-glucose + choline chloride + water; phases: Liquid
Fixed: Temperature, K = 298.15
Fixed: Pressure, kPa = 85
Property: (Relative) activity of water (Liquid); method: ISOPIE
Mass fraction of choline chloride	Mass fraction of D-glucose	(Relative) activity of water	uncertainty
0.2852	0.184	0.8531	0.0389
0.2481	0.1601	0.8844	0.0388
0.2136	0.1378	0.9098	0.0388
0.174	0.1123	0.9327	0.1
0.1345	0.0867	0.9524	0.0389
0.0965	0.0643	0.9725	0.0388

System: urea + choline chloride + water; phases: Liquid
Fixed: Temperature, K = 298.15
Fixed: Pressure, kPa = 85
Property: (Relative) activity of water (Liquid); method: ISOPIE
Mass fraction of choline chloride	Mass fraction of urea	(Relative) activity of water	uncertainty
0.0613	0	0.9859	0.0387
0.0459	0.0124	0.9859	0.0388
0.0281	0.0267	0.9859	0.0388
0	0.0477	0.9859	0.0388
0.0697	0	0.984	0.0387
0.0511	0.0142	0.984	0.0388
0.0236	0.0347	0.984	0.0388
0	0.0508	0.984	0.0387
0.0748	0	0.9829	0.0387
0.0531	0.0159	0.9829	0.0388
0.0314	0.0316	0.9829	0.0388
0	0.0535	0.9829	0.0388
0.0786	0	0.9819	0.0387
0.0567	0.0183	0.9819	0.0388
0.0288	0.0382	0.9819	0.0388
0	0.0589	0.9819	0.0388
0.0986	0	0.9765	0.0387
0.0737	0.0207	0.9765	0.0388
0.0395	0.0463	0.9765	0.0388
0	0.073	0.9765	0.0388
0.1121	0	0.9725	0.0387
0.0882	0.0212	0.9725	0.0388
0.0417	0.0589	0.9725	0.0388
0	0.0876	0.9725	0.0387

System: urea + choline chloride + water; phases: Liquid
Fixed: Temperature, K = 298.15
Fixed: Pressure, kPa = 85
Property: (Relative) activity of water (Liquid); method: ISOPIE
Mass fraction of choline chloride	Mass fraction of urea	(Relative) activity of water	uncertainty
0.2761	0.2375	0.7983	0.0392
0.2635	0.2267	0.8178	0.0392
0.2372	0.2041	0.8374	0.039
0.2124	0.1829	0.865	0.039
0.1356	0.1167	0.9287	0.0388
0.0804	0.0693	0.9588	0.0388

System: choline chloride + water; phases: Liquid
Fixed: Temperature, K = 298.15
Fixed: Pressure, kPa = 85
Property: (Relative) activity of water (Liquid); method: ISOPIE
Mass fraction of choline chloride	(Relative) activity of water	uncertainty
0.0595	0.9862	0.0387
0.0863	0.9789	0.0387
0.1063	0.9742	0.0387
0.1295	0.9676	0.0387
0.1663	0.9579	0.0388
0.1996	0.9449	0.0388
0.2082	0.9405	0.0388
0.2342	0.9315	0.0387
0.0613	0.9859	0.0387
0.0697	0.984	0.0387
0.0748	0.9829	0.0388
0.0786	0.9819	0.0387
0.0986	0.9765	0.0387
0.1121	0.9725	0.0387

System: D-glucose + water; phases: Liquid
Fixed: Temperature, K = 298.15
Fixed: Pressure, kPa = 85
Property: (Relative) activity of water (Liquid); method: ISOPIE
Mass fraction of D-glucose	(Relative) activity of water	uncertainty
0.1113	0.9862	0.0387
0.1586	0.9789	0.0387
0.2015	0.9742	0.0387
0.2378	0.9676	0.0387
0.2715	0.9579	0.0387
0.3256	0.9449	0.0387
0.3445	0.9405	0.0387
0.3876	0.9315	0.0387

System: urea + water; phases: Liquid
Fixed: Temperature, K = 298.15
Fixed: Pressure, kPa = 85
Property: (Relative) activity of water (Liquid); method: ISOPIE
Mass fraction of urea	(Relative) activity of water	uncertainty
0.0477	0.9859	0.0387
0.0508	0.984	0.0387
0.0535	0.9829	0.0388
0.0589	0.9819	0.0388
0.073	0.9765	0.0388
0.0876	0.9725	0.0387
