Measured thermophysical data. Activity Coefficients of RbF in Urea Water and Formamide Water Mixtures from Potentiometric Measurements
Source: J. Chem. Eng. Data, 2016, 10.1021/acs.jced.5b00484
Compound 1: urea, CH4N2O, InChI=1S/CH4N2O/c2-1(3)4/h(H4,2,3,4), purity 99.5%
Compound 2: water, H2O, InChI=1S/H2O/h1H2, purity 99.8%
Compound 3: rubidium fluoride (RbF), FRb, InChI=1S/FH.Rb/h1H;/q;+1/p-1, purity 99.5%
Compound 4: formamide, CH3NO, InChI=1S/CH3NO/c2-1-3/h1H,(H2,2,3), purity 99%

System: urea + water + rubidium fluoride (RbF); phases: Liquid
Fixed: Temperature, K = 298.2
Fixed: Pressure, kPa = 100
Property: Mean ionic activity coefficient of rubidium fluoride (RbF) (Liquid); method: Calculated from EMF cell potential
Molality, mol/kg of rubidium fluoride (RbF)	Solvent: Mass fraction of urea	Mean ionic activity coefficient of rubidium fluoride (RbF)	uncertainty
0.0026	0	0.9462	0.0271
0.0061	0	0.921	0.0273
0.0109	0	0.8997	0.0274
0.017	0	0.8802	0.0276
0.023	0	0.8657	0.0277
0.0297	0	0.8528	0.0278
0.0406	0	0.8358	0.0279
0.0472	0	0.8274	0.0279
0.0579	0	0.8157	0.028
0.0713	0	0.8037	0.0281
0.0808	0	0.7964	0.0282
0.0935	0	0.7878	0.0282
0.1138	0	0.7763	0.0283
0.1361	0	0.766	0.0284
0.169	0	0.7539	0.0285
0.2002	0	0.7448	0.0286
0.2461	0	0.7343	0.0286
0.2892	0	0.7266	0.0287
0.3435	0	0.7191	0.0288
0.3997	0	0.7133	0.0288
0.4744	0	0.7076	0.0288
0.5454	0	0.7038	0.0289
0.6116	0	0.7013	0.0289
0.0033	0.1	0.9452	0.0271
0.0068	0.1	0.9256	0.0272
0.0102	0.1	0.9121	0.0273
0.0137	0.1	0.9011	0.0274
0.0172	0.1	0.8921	0.0275
0.0246	0.1	0.8771	0.0276
0.0325	0.1	0.8645	0.0277
0.0399	0.1	0.8548	0.0277
0.046	0.1	0.8479	0.0278
0.0576	0.1	0.8368	0.0279
0.0708	0.1	0.8264	0.0279
0.0831	0.1	0.8183	0.028
0.1029	0.1	0.8073	0.0281
0.1249	0.1	0.7973	0.0282
0.1548	0.1	0.7863	0.0282
0.1884	0.1	0.7762	0.0283
0.2305	0.1	0.766	0.0284
0.2759	0.1	0.757	0.0285
0.3332	0.1	0.7476	0.0285
0.3902	0.1	0.7397	0.0286
0.4653	0.1	0.7311	0.0287
0.5378	0.1	0.724	0.0287
0.6054	0.1	0.7182	0.0288
0.0022	0.2	0.9573	0.027
0.005	0.2	0.9387	0.0271
0.008	0.2	0.9253	0.0272
0.0105	0.2	0.9168	0.0273
0.0137	0.2	0.9075	0.0274
0.0198	0.2	0.8938	0.0275
0.0273	0.2	0.8809	0.0275
0.0344	0.2	0.8711	0.0276
0.0427	0.2	0.8617	0.0277
0.0547	0.2	0.8506	0.0278
0.066	0.2	0.842	0.0278
0.0778	0.2	0.8344	0.0279
0.0973	0.2	0.8241	0.028
0.1154	0.2	0.8161	0.028
0.1471	0.2	0.805	0.0281
0.178	0.2	0.7962	0.0282
0.2213	0.2	0.7864	0.0282
0.2652	0.2	0.7783	0.0283
0.3222	0.2	0.7696	0.0284
0.378	0.2	0.7625	0.0284
0.458	0.2	0.7541	0.0285
0.5313	0.2	0.7475	0.0285
0.6035	0.2	0.7418	0.0286
0.0034	0.3	0.9513	0.0271
0.0062	0.3	0.9372	0.0272
0.0092	0.3	0.9264	0.0272
0.0129	0.3	0.9165	0.0273
0.016	0.3	0.9095	0.0273
0.0229	0.3	0.8973	0.0274
0.0298	0.3	0.8879	0.0275
0.0373	0.3	0.8796	0.0276
0.0452	0.3	0.8724	0.0276
0.0565	0.3	0.864	0.0277
0.0678	0.3	0.8571	0.0277
0.0795	0.3	0.8511	0.0278
0.0993	0.3	0.8429	0.0278
0.1177	0.3	0.8367	0.0279
0.1488	0.3	0.8283	0.0279
0.1795	0.3	0.8217	0.028
0.2248	0.3	0.814	0.028
0.2723	0.3	0.8076	0.0281
0.3288	0.3	0.8012	0.0281
0.3866	0.3	0.7956	0.0282
0.4716	0.3	0.7886	0.0282
0.5428	0.3	0.7833	0.0283
0.616	0.3	0.7783	0.0283
0.0028	0.4	0.9578	0.027
0.0056	0.4	0.9434	0.0271
0.0084	0.4	0.9333	0.0272
0.011	0.4	0.9257	0.0272
0.0133	0.4	0.9202	0.0273
0.0198	0.4	0.908	0.0274
0.0262	0.4	0.8987	0.0274
0.0329	0.4	0.891	0.0275
0.0399	0.4	0.8842	0.0275
0.0502	0.4	0.8761	0.0276
0.0609	0.4	0.8693	0.0276
0.0715	0.4	0.8636	0.0277
0.0889	0.4	0.856	0.0277
0.1052	0.4	0.8503	0.0278
0.1317	0.4	0.8427	0.0278
0.1621	0.4	0.836	0.0279
0.198	0.4	0.8297	0.0279
0.2355	0.4	0.8243	0.028
0.2851	0.4	0.8185	0.028
0.3309	0.4	0.8141	0.028
0.4105	0.4	0.8075	0.0281
0.479	0.4	0.8027	0.0281
0.5463	0.4	0.7984	0.0282
0.6065	0.4	0.7948	0.0282

System: formamide + water + rubidium fluoride (RbF); phases: Liquid
Fixed: Temperature, K = 298.2
Fixed: Pressure, kPa = 100
Property: Mean ionic activity coefficient of rubidium fluoride (RbF) (Liquid); method: Calculated from EMF cell potential
Molality, mol/kg of rubidium fluoride (RbF)	Solvent: Mass fraction of formamide	Mean ionic activity coefficient of rubidium fluoride (RbF)	uncertainty
0.0044	0	0.9313	0.0272
0.0095	0	0.9053	0.0274
0.0145	0	0.8874	0.0275
0.0197	0	0.8734	0.0276
0.0226	0	0.8665	0.0277
0.0332	0	0.8468	0.0278
0.0442	0	0.8311	0.0279
0.0542	0	0.8195	0.028
0.0612	0	0.8126	0.028
0.0746	0	0.801	0.0281
0.0861	0	0.7926	0.0282
0.0993	0	0.7843	0.0283
0.1201	0	0.7732	0.0283
0.1411	0	0.764	0.0284
0.1709	0	0.7533	0.0285
0.1972	0	0.7456	0.0286
0.2474	0	0.734	0.0286
0.2962	0	0.7255	0.0287
0.367	0	0.7165	0.0288
0.4347	0	0.7103	0.0288
0.5187	0	0.705	0.0289
0.5989	0	0.7017	0.0289
0.0034	0.1	0.9442	0.0271
0.0072	0.1	0.9228	0.0273
0.0105	0.1	0.9099	0.0273
0.014	0.1	0.8988	0.0274
0.0185	0.1	0.8876	0.0275
0.0263	0.1	0.8719	0.0276
0.0337	0.1	0.8604	0.0277
0.0412	0.1	0.8505	0.0278
0.0486	0.1	0.842	0.0278
0.0603	0.1	0.8309	0.0279
0.0722	0.1	0.8214	0.028
0.0842	0.1	0.8131	0.028
0.1042	0.1	0.8015	0.0281
0.1243	0.1	0.7918	0.0282
0.1555	0.1	0.7794	0.0283
0.1876	0.1	0.7689	0.0284
0.2358	0.1	0.7561	0.0285
0.2845	0.1	0.7455	0.0286
0.3472	0.1	0.7342	0.0286
0.409	0.1	0.7249	0.0287
0.4865	0.1	0.7148	0.0288
0.5592	0.1	0.7066	0.0288
0.6312	0.1	0.6994	0.0289
0.0032	0.2	0.9489	0.0271
0.0067	0.2	0.9297	0.0272
0.0102	0.2	0.9163	0.0273
0.014	0.2	0.9049	0.0274
0.0217	0.2	0.8875	0.0275
0.0291	0.2	0.8745	0.0276
0.0369	0.2	0.8637	0.0277
0.0442	0.2	0.8549	0.0277
0.0518	0.2	0.8472	0.0278
0.0629	0.2	0.8373	0.0279
0.0742	0.2	0.8287	0.0279
0.0888	0.2	0.8192	0.028
0.1049	0.2	0.8102	0.0281
0.126	0.2	0.8001	0.0281
0.1555	0.2	0.7884	0.0282
0.1872	0.2	0.778	0.0283
0.233	0.2	0.7654	0.0284
0.282	0.2	0.7543	0.0285
0.3421	0.2	0.7428	0.0286
0.4024	0.2	0.733	0.0286
0.478	0.2	0.7223	0.0287
0.5506	0.2	0.7132	0.0288
0.6195	0.2	0.7055	0.0289
0.0029	0.3	0.9552	0.027
0.0057	0.3	0.9397	0.0271
0.0089	0.3	0.9278	0.0272
0.012	0.3	0.9189	0.0273
0.019	0.3	0.9034	0.0274
0.0259	0.3	0.8921	0.0275
0.0328	0.3	0.8832	0.0275
0.0399	0.3	0.8755	0.0276
0.0502	0.3	0.8661	0.0277
0.0607	0.3	0.8582	0.0277
0.0714	0.3	0.8513	0.0278
0.0855	0.3	0.8436	0.0278
0.1041	0.3	0.835	0.0279
0.1218	0.3	0.828	0.0279
0.1499	0.3	0.8187	0.028
0.1843	0.3	0.8091	0.0281
0.2268	0.3	0.7991	0.0281
0.2764	0.3	0.789	0.0282
0.3362	0.3	0.7785	0.0283
0.3984	0.3	0.7686	0.0284
0.4708	0.3	0.758	0.0285
0.5397	0.3	0.7486	0.0285
0.6095	0.3	0.7395	0.0286
0.0031	0.4	0.9571	0.027
0.0066	0.4	0.9409	0.0271
0.0099	0.4	0.9307	0.0272
0.013	0.4	0.9232	0.0272
0.0199	0.4	0.9106	0.0273
0.0274	0.4	0.9003	0.0274
0.035	0.4	0.8922	0.0275
0.0425	0.4	0.8856	0.0275
0.0538	0.4	0.8775	0.0276
0.0655	0.4	0.8705	0.0276
0.0756	0.4	0.8655	0.0277
0.09	0.4	0.8593	0.0277
0.112	0.4	0.8514	0.0278
0.1298	0.4	0.846	0.0278
0.1589	0.4	0.8384	0.0279
0.1942	0.4	0.8306	0.0279
0.242	0.4	0.8214	0.028
0.2925	0.4	0.8128	0.028
0.3549	0.4	0.8031	0.0281
0.4184	0.4	0.7937	0.0282
0.4891	0.4	0.7837	0.0283
0.5626	0.4	0.7735	0.0283
0.6359	0.4	0.7636	0.0284

System: water + rubidium fluoride (RbF); phases: Liquid
Fixed: Temperature, K = 298.2
Fixed: Pressure, kPa = 100
Property: Mean ionic activity coefficient of rubidium fluoride (RbF) (Liquid); method: Calculated from EMF cell potential
Molality, mol/kg of rubidium fluoride (RbF)	Mean ionic activity coefficient of rubidium fluoride (RbF)	uncertainty
0.0026	0.9462	0.0271
0.0061	0.921	0.0273
0.0109	0.8997	0.0274
0.017	0.8802	0.0276
0.023	0.8657	0.0277
0.0297	0.8528	0.0278
0.0406	0.8358	0.0279
0.0472	0.8274	0.0279
0.0579	0.8157	0.028
0.0713	0.8037	0.0281
0.0808	0.7964	0.0282
0.0935	0.7878	0.0282
0.1138	0.7763	0.0283
0.1361	0.766	0.0284
0.169	0.7539	0.0285
0.2002	0.7448	0.0286
0.2461	0.7343	0.0286
0.2892	0.7266	0.0287
0.3435	0.7191	0.0288
0.3997	0.7133	0.0288
0.4744	0.7076	0.0288
0.5454	0.7038	0.0289
0.6116	0.7013	0.0289
0.0044	0.9313	0.0272
0.0095	0.9053	0.0274
0.0145	0.8874	0.0275
0.0197	0.8734	0.0276
0.0226	0.8665	0.0277
0.0332	0.8468	0.0278
0.0442	0.8311	0.0279
0.0542	0.8195	0.028
0.0612	0.8126	0.028
0.0746	0.801	0.0281
0.0861	0.7926	0.0282
0.0993	0.7843	0.0283
0.1201	0.7732	0.0283
0.1411	0.764	0.0284
0.1709	0.7533	0.0285
0.1972	0.7456	0.0286
0.2474	0.734	0.0286
0.2962	0.7255	0.0287
0.367	0.7165	0.0288
0.4347	0.7103	0.0288
0.5187	0.705	0.0289
0.5989	0.7017	0.0289
