Measured thermophysical data. Surface Tension of Binary Mixtures of 2,2,4-Trimethylpentane +1-Alkanols from 298.15 to 323.15 K
Source: J. Chem. Eng. Data, 2016, 10.1021/acs.jced.5b00903
Compound 1: heptane, C7H16, InChI=1S/C7H16/c1-3-5-7-6-4-2/h3-7H2,1-2H3, purity 99%
Compound 2: 2,2,4-trimethylpentane, C8H18, InChI=1S/C8H18/c1-7(2)6-8(3,4)5/h7H,6H2,1-5H3, purity 99.8%
Compound 3: ethanol, C2H6O, InChI=1S/C2H6O/c1-2-3/h3H,2H2,1H3, purity 99.5%
Compound 4: propan-1-ol, C3H8O, InChI=1S/C3H8O/c1-2-3-4/h4H,2-3H2,1H3, purity 99.5%
Compound 5: pentan-1-ol, C5H12O, InChI=1S/C5H12O/c1-2-3-4-5-6/h6H,2-5H2,1H3, purity 99%
Compound 6: hexan-1-ol, C6H14O, InChI=1S/C6H14O/c1-2-3-4-5-6-7/h7H,2-6H2,1H3, purity 99%
Compound 7: heptan-1-ol, C7H16O, InChI=1S/C7H16O/c1-2-3-4-5-6-7-8/h8H,2-7H2,1H3, purity 99%

System: heptane; phases: Liquid, Gas
Property: Surface tension liquid-gas, N/m (Liquid); method: surface light scattering
Temperature, K	Surface tension liquid-gas, N/m	uncertainty
293.15	0.02012	0.00023
298.15	0.01969	0.00022
303.15	0.01913	0.00021
308.15	0.01867	0.00021
313.15	0.0181	0.0002
318.15	0.0177	0.0002

System: 2,2,4-trimethylpentane; phases: Liquid, Gas
Property: Surface tension liquid-gas, N/m (Liquid); method: surface light scattering
Temperature, K	Surface tension liquid-gas, N/m	uncertainty
288.15	0.01914	0.00019
298.15	0.0183	0.00018
308.15	0.01743	0.00018
318.15	0.01656	0.00017
303.15	0.0179	0.00018
313.15	0.01709	0.00017
323.15	0.0162	0.0002

System: ethanol; phases: Liquid, Gas
Property: Surface tension liquid-gas, N/m (Liquid); method: surface light scattering
Temperature, K	Surface tension liquid-gas, N/m	uncertainty
293.15	0.02231	0.00023
298.15	0.02185	0.00023
303.15	0.02141	0.00022
308.15	0.02104	0.00022
313.15	0.02062	0.00021
318.15	0.02029	0.00021
288.15	0.02272	0.00023

System: propan-1-ol; phases: Liquid, Gas
Property: Surface tension liquid-gas, N/m (Liquid); method: surface light scattering
Temperature, K	Surface tension liquid-gas, N/m	uncertainty
298.15	0.02331	0.00024
303.15	0.0229	0.00024
308.15	0.02252	0.00023
313.15	0.0221	0.00023
318.15	0.02168	0.00022
323.15	0.02127	0.00022

System: pentan-1-ol; phases: Liquid, Gas
Property: Surface tension liquid-gas, N/m (Liquid); method: surface light scattering
Temperature, K	Surface tension liquid-gas, N/m	uncertainty
298.15	0.02529	0.00028
303.15	0.02487	0.00028
308.15	0.02446	0.00027
313.15	0.02405	0.00027
318.15	0.02365	0.00026
323.15	0.02321	0.00026

System: hexan-1-ol; phases: Liquid, Gas
Property: Surface tension liquid-gas, N/m (Liquid); method: surface light scattering
Temperature, K	Surface tension liquid-gas, N/m	uncertainty
298.15	0.02556	0.00029
303.15	0.02495	0.00028
308.15	0.02465	0.00028
313.15	0.02393	0.00027
318.15	0.02358	0.00026
323.15	0.02321	0.00026

System: heptan-1-ol; phases: Liquid, Gas
Property: Surface tension liquid-gas, N/m (Liquid); method: surface light scattering
Temperature, K	Surface tension liquid-gas, N/m	uncertainty
298.15	0.02646	0.0003
303.15	0.02593	0.00029
308.15	0.02543	0.00028
313.15	0.02495	0.00028
318.15	0.02455	0.00027
323.15	0.02403	0.00027

System: ethanol + heptane; phases: Liquid, Gas
Property: Surface tension liquid-gas, N/m (Liquid); method: surface light scattering
Temperature, K	Mole fraction of heptane	Surface tension liquid-gas, N/m	uncertainty
293.15	1	0.02012	0.00023
293.15	0.7983	0.02017	0.00022
293.15	0.6417	0.0202	0.00022
293.15	0.5123	0.02025	0.00022
293.15	0.4111	0.02036	0.00022
293.15	0.3171	0.02053	0.00022
293.15	0.2314	0.02074	0.00022
293.15	0.1676	0.02093	0.00022
293.15	0.1018	0.02127	0.00022
293.15	0.0481	0.02178	0.00023
293.15	0	0.02231	0.00023
298.15	1	0.01969	0.00022
298.15	0.7983	0.01971	0.00022
298.15	0.6417	0.01972	0.00021
298.15	0.5123	0.01975	0.00021
298.15	0.4111	0.01985	0.00021
298.15	0.3171	0.02002	0.00021
298.15	0.2314	0.02022	0.00021
298.15	0.1676	0.02041	0.00021
298.15	0.1018	0.02077	0.00022
298.15	0.0481	0.0213	0.00022
298.15	0	0.02185	0.00023
303.15	1	0.01913	0.00021
303.15	0.7983	0.01915	0.00021
303.15	0.6417	0.01916	0.00021
303.15	0.5123	0.0192	0.00021
303.15	0.4111	0.01931	0.00021
303.15	0.3171	0.01948	0.00021
303.15	0.2314	0.0197	0.00021
303.15	0.1676	0.01989	0.00021
303.15	0.1018	0.02027	0.00021
303.15	0.0481	0.02083	0.00022
303.15	0	0.02141	0.00022
308.15	1	0.01867	0.00021
308.15	0.7983	0.01868	0.00021
308.15	0.6417	0.01869	0.0002
308.15	0.5123	0.01872	0.0002
308.15	0.4111	0.01883	0.0002
308.15	0.3171	0.01902	0.0002
308.15	0.2314	0.01924	0.0002
308.15	0.1676	0.01944	0.0002
308.15	0.1018	0.01984	0.00021
308.15	0.0481	0.02043	0.00021
308.15	0	0.02104	0.00022
313.15	1	0.0181	0.0002
313.15	0.7983	0.01813	0.0002
313.15	0.6417	0.01816	0.0002
313.15	0.5123	0.0182	0.00019
313.15	0.4111	0.01833	0.00019
313.15	0.3171	0.01853	0.0002
313.15	0.2314	0.01876	0.0002
313.15	0.1676	0.01898	0.0002
313.15	0.1018	0.01939	0.0002
313.15	0.0481	0.02	0.00021
313.15	0	0.02062	0.00021
318.15	1	0.0177	0.0002
318.15	0.7983	0.01773	0.00019
318.15	0.6417	0.01775	0.00019
318.15	0.5123	0.01779	0.00019
318.15	0.4111	0.01791	0.00019
318.15	0.3171	0.01812	0.00019
318.15	0.2314	0.01836	0.00019
318.15	0.1676	0.01858	0.00019
318.15	0.1018	0.01901	0.0002
318.15	0.0481	0.01964	0.0002
318.15	0	0.02029	0.00021

System: ethanol + 2,2,4-trimethylpentane; phases: Liquid, Gas
Property: Surface tension liquid-gas, N/m (Liquid); method: surface light scattering
Temperature, K	Mole fraction of 2,2,4-trimethylpentane	Surface tension liquid-gas, N/m	uncertainty
288.15	1	0.01914	0.00019
288.15	0.784	0.0195	0.0002
288.15	0.6173	0.01975	0.0002
288.15	0.4848	0.02003	0.0002
288.15	0.3769	0.0204	0.00021
288.15	0.2874	0.02074	0.00021
288.15	0.2119	0.02111	0.00022
288.15	0.1474	0.02147	0.00022
288.15	0.0916	0.02188	0.00023
288.15	0.0429	0.02227	0.00023
288.15	0	0.02272	0.00023
298.15	1	0.0183	0.00018
298.15	0.784	0.01862	0.00019
298.15	0.6173	0.01883	0.00019
298.15	0.4848	0.01909	0.00019
298.15	0.3769	0.01946	0.0002
298.15	0.2874	0.0198	0.0002
298.15	0.2119	0.02017	0.00021
298.15	0.1474	0.02054	0.00021
298.15	0.0916	0.02096	0.00022
298.15	0.0429	0.02138	0.00022
298.15	0	0.02185	0.00023
308.15	1	0.01743	0.00018
308.15	0.784	0.01773	0.00018
308.15	0.6173	0.01792	0.00018
308.15	0.4848	0.01817	0.00018
308.15	0.3769	0.01855	0.00019
308.15	0.2874	0.0189	0.00019
308.15	0.2119	0.01928	0.0002
308.15	0.1474	0.01966	0.0002
308.15	0.0916	0.02011	0.00021
308.15	0.0429	0.02054	0.00021
308.15	0	0.02104	0.00022
318.15	1	0.01656	0.00017
318.15	0.784	0.01686	0.00017
318.15	0.6173	0.01705	0.00017
318.15	0.4848	0.01731	0.00018
318.15	0.3769	0.0177	0.00018
318.15	0.2874	0.01805	0.00018
318.15	0.2119	0.01845	0.00019
318.15	0.1474	0.01885	0.00019
318.15	0.0916	0.01931	0.0002
318.15	0.0429	0.01977	0.0002
318.15	0	0.02029	0.00021

System: propan-1-ol + 2,2,4-trimethylpentane; phases: Liquid, Gas
Property: Surface tension liquid-gas, N/m (Liquid); method: surface light scattering
Temperature, K	Mole fraction of 2,2,4-trimethylpentane	Surface tension liquid-gas, N/m	uncertainty
298.15	0	0.02331	0.00024
298.15	0.1	0.02209	0.00023
298.15	0.2	0.02118	0.00022
298.15	0.3	0.02058	0.00021
298.15	0.4	0.02005	0.0002
298.15	0.4999	0.01957	0.0002
298.15	0.5996	0.01922	0.00019
298.15	0.6998	0.01896	0.00019
298.15	0.7995	0.01869	0.00019
298.15	0.9	0.01851	0.00019
298.15	1	0.0183	0.00018
303.15	0	0.0229	0.00024
303.15	0.1	0.02165	0.00022
303.15	0.2	0.02073	0.00021
303.15	0.3	0.02012	0.00021
303.15	0.4	0.0196	0.0002
303.15	0.4999	0.01912	0.00019
303.15	0.5996	0.01877	0.00019
303.15	0.6998	0.01853	0.00019
303.15	0.7995	0.01826	0.00018
303.15	0.9	0.01809	0.00018
303.15	1	0.0179	0.00018
308.15	0	0.02252	0.00023
308.15	0.1	0.02123	0.00022
308.15	0.2	0.02028	0.00021
308.15	0.3	0.01966	0.0002
308.15	0.4	0.01912	0.00019
308.15	0.4999	0.01864	0.00019
308.15	0.5996	0.01829	0.00019
308.15	0.6998	0.01805	0.00018
308.15	0.7995	0.01778	0.00018
308.15	0.9	0.01762	0.00018
308.15	1	0.01743	0.00018
313.15	0	0.0221	0.00023
313.15	0.1	0.02077	0.00021
313.15	0.2	0.01981	0.0002
313.15	0.3	0.01919	0.0002
313.15	0.4	0.01866	0.00019
313.15	0.4999	0.01819	0.00019
313.15	0.5996	0.01785	0.00018
313.15	0.6998	0.01763	0.00018
313.15	0.7995	0.01739	0.00018
313.15	0.9	0.01725	0.00017
313.15	1	0.01709	0.00017
318.15	0	0.02168	0.00022
318.15	0.1	0.02031	0.00021
318.15	0.2	0.01931	0.0002
318.15	0.3	0.01867	0.00019
318.15	0.4	0.01813	0.00018
318.15	0.4999	0.01765	0.00018
318.15	0.5996	0.01731	0.00018
318.15	0.6998	0.01709	0.00017
318.15	0.7995	0.01685	0.00017
318.15	0.9	0.01672	0.00017
318.15	1	0.01656	0.00017
323.15	0	0.02127	0.00022
323.15	0.1	0.01984	0.0002
323.15	0.2	0.01882	0.00019
323.15	0.3	0.01818	0.00019
323.15	0.4	0.01764	0.00018
323.15	0.4999	0.01717	0.00017
323.15	0.5996	0.01684	0.00017
323.15	0.6998	0.01665	0.00017
323.15	0.7995	0.01643	0.00017
323.15	0.9	0.01633	0.00016
323.15	1	0.0162	0.0002

System: pentan-1-ol + 2,2,4-trimethylpentane; phases: Liquid, Gas
Property: Surface tension liquid-gas, N/m (Liquid); method: surface light scattering
Temperature, K	Mole fraction of 2,2,4-trimethylpentane	Surface tension liquid-gas, N/m	uncertainty
298.15	0	0.02529	0.00028
298.15	0.1004	0.02381	0.00026
298.15	0.2003	0.02253	0.00024
298.15	0.3	0.0217	0.00023
298.15	0.4	0.02097	0.00022
298.15	0.5	0.0203	0.00021
298.15	0.5999	0.01977	0.0002
298.15	0.6998	0.01938	0.0002
298.15	0.7999	0.01894	0.00019
298.15	0.8996	0.01864	0.00019
298.15	1	0.0183	0.00018
303.15	0	0.02487	0.00028
303.15	0.1004	0.02328	0.00026
303.15	0.2003	0.02205	0.00024
303.15	0.3	0.02122	0.00023
303.15	0.4	0.02049	0.00022
303.15	0.5	0.01982	0.00021
303.15	0.5999	0.0193	0.0002
303.15	0.6998	0.01893	0.00019
303.15	0.7999	0.01851	0.00019
303.15	0.8996	0.01822	0.00018
303.15	1	0.0179	0.00018
308.15	0	0.02446	0.00027
308.15	0.1004	0.02283	0.00025
308.15	0.2003	0.02156	0.00023
308.15	0.3	0.02071	0.00022
308.15	0.4	0.01998	0.00021
308.15	0.5	0.0193	0.0002
308.15	0.5999	0.01879	0.00019
308.15	0.6998	0.01842	0.00019
308.15	0.7999	0.01801	0.00018
308.15	0.8996	0.01775	0.00018
308.15	1	0.01743	0.00018
313.15	0	0.02405	0.00027
313.15	0.1004	0.02242	0.00025
313.15	0.2003	0.02108	0.00023
313.15	0.3	0.02023	0.00022
313.15	0.4	0.01951	0.00021
313.15	0.5	0.01884	0.0002
313.15	0.5999	0.01834	0.00019
313.15	0.6998	0.018	0.00018
313.15	0.7999	0.01761	0.00018
313.15	0.8996	0.01738	0.00018
313.15	1	0.01709	0.00017
318.15	0	0.02365	0.00026
318.15	0.1004	0.02199	0.00024
318.15	0.2003	0.02058	0.00022
318.15	0.3	0.01971	0.00021
318.15	0.4	0.01897	0.0002
318.15	0.5	0.0183	0.00019
318.15	0.5999	0.01779	0.00018
318.15	0.6998	0.01745	0.00018
318.15	0.7999	0.01707	0.00017
318.15	0.8996	0.01685	0.00017
318.15	1	0.01656	0.00017
323.15	0	0.02321	0.00026
323.15	0.1004	0.0215	0.00024
323.15	0.2003	0.02014	0.00022
323.15	0.3	0.01926	0.00021
323.15	0.4	0.01851	0.0002
323.15	0.5	0.01783	0.00019
323.15	0.5999	0.01734	0.00018
323.15	0.6998	0.01702	0.00017
323.15	0.7999	0.01665	0.00017
323.15	0.8996	0.01643	0.00017
323.15	1	0.0162	0.00016

System: hexan-1-ol + 2,2,4-trimethylpentane; phases: Liquid, Gas
Property: Surface tension liquid-gas, N/m (Liquid); method: surface light scattering
Temperature, K	Mole fraction of 2,2,4-trimethylpentane	Surface tension liquid-gas, N/m	uncertainty
298.15	0	0.02556	0.00029
298.15	0.1001	0.02401	0.00026
298.15	0.2	0.02265	0.00025
298.15	0.3001	0.02178	0.00023
298.15	0.4	0.02103	0.00022
298.15	0.5	0.02033	0.00021
298.15	0.6001	0.01978	0.0002
298.15	0.7001	0.01938	0.0002
298.15	0.7997	0.01895	0.00019
298.15	0.8998	0.01865	0.00019
298.15	1	0.0183	0.00018
303.15	0	0.02495	0.00028
303.15	0.1001	0.02331	0.00026
303.15	0.2	0.02203	0.00024
303.15	0.3001	0.02117	0.00023
303.15	0.4	0.02044	0.00022
303.15	0.5	0.01976	0.00021
303.15	0.6001	0.01925	0.0002
303.15	0.7001	0.01888	0.00019
303.15	0.7997	0.01847	0.00019
303.15	0.8998	0.01822	0.00018
303.15	1	0.0179	0.00018
308.15	0	0.02465	0.00028
308.15	0.1001	0.02299	0.00025
308.15	0.2	0.02162	0.00023
308.15	0.3001	0.02074	0.00022
308.15	0.4	0.01999	0.00021
308.15	0.5	0.0193	0.0002
308.15	0.6001	0.01877	0.00019
308.15	0.7001	0.01841	0.00019
308.15	0.7997	0.018	0.00018
308.15	0.8998	0.01775	0.00018
308.15	1	0.01743	0.00018
313.15	0	0.02393	0.00027
313.15	0.1001	0.0223	0.00025
313.15	0.2	0.0209	0.00023
313.15	0.3001	0.02005	0.00021
313.15	0.4	0.01934	0.0002
313.15	0.5	0.01869	0.0002
313.15	0.6001	0.01821	0.00019
313.15	0.7001	0.0179	0.00018
313.15	0.7997	0.01754	0.00018
313.15	0.8998	0.01737	0.00018
313.15	1	0.01709	0.00017
318.15	0	0.02358	0.00026
318.15	0.1001	0.02191	0.00024
318.15	0.2	0.02045	0.00022
318.15	0.3001	0.01958	0.00021
318.15	0.4	0.01885	0.0002
318.15	0.5	0.01817	0.00019
318.15	0.6001	0.01769	0.00018
318.15	0.7001	0.01737	0.00018
318.15	0.7997	0.01701	0.00017
318.15	0.8998	0.01684	0.00017
318.15	1	0.01656	0.00017
323.15	0	0.02321	0.00026
323.15	0.1001	0.02143	0.00024
323.15	0.2	0.01999	0.00022
323.15	0.3001	0.01911	0.0002
323.15	0.4	0.01838	0.00019
323.15	0.5	0.01771	0.00019
323.15	0.6001	0.01724	0.00018
323.15	0.7001	0.01694	0.00017
323.15	0.7997	0.0166	0.00017
323.15	0.8998	0.01647	0.00017
323.15	1	0.0162	0.00016

System: heptan-1-ol + 2,2,4-trimethylpentane; phases: Liquid, Gas
Property: Surface tension liquid-gas, N/m (Liquid); method: surface light scattering
Temperature, K	Mole fraction of 2,2,4-trimethylpentane	Surface tension liquid-gas, N/m	uncertainty
298.15	0	0.02646	0.0003
298.15	0.1003	0.02478	0.00027
298.15	0.2002	0.02326	0.00025
298.15	0.3002	0.0223	0.00024
298.15	0.3999	0.02146	0.00023
298.15	0.5	0.02067	0.00022
298.15	0.6	0.02004	0.00021
298.15	0.6999	0.01959	0.0002
298.15	0.7999	0.01907	0.00019
298.15	0.8999	0.01872	0.00019
298.15	1	0.0183	0.00018
303.15	0	0.02593	0.00029
303.15	0.1003	0.02413	0.00027
303.15	0.2002	0.02269	0.00025
303.15	0.3002	0.02174	0.00023
303.15	0.3999	0.0209	0.00022
303.15	0.5	0.02014	0.00021
303.15	0.6	0.01953	0.0002
303.15	0.6999	0.0191	0.0002
303.15	0.7999	0.01861	0.00019
303.15	0.8999	0.01829	0.00018
303.15	1	0.0179	0.00018
308.15	0	0.02543	0.00028
308.15	0.1003	0.02363	0.00026
308.15	0.2002	0.02212	0.00024
308.15	0.3002	0.02115	0.00023
308.15	0.3999	0.02032	0.00021
308.15	0.5	0.01955	0.0002
308.15	0.6	0.01897	0.0002
308.15	0.6999	0.01855	0.00019
308.15	0.7999	0.01808	0.00018
308.15	0.8999	0.01781	0.00018
308.15	1	0.01743	0.00018
313.15	0	0.02495	0.00028
313.15	0.1003	0.02315	0.00026
313.15	0.2002	0.02161	0.00023
313.15	0.3002	0.02065	0.00022
313.15	0.3999	0.01983	0.00021
313.15	0.5	0.01908	0.0002
313.15	0.6	0.01851	0.00019
313.15	0.6999	0.01813	0.00019
313.15	0.7999	0.01768	0.00018
313.15	0.8999	0.01745	0.00018
313.15	1	0.01709	0.00017
318.15	0	0.02455	0.00027
318.15	0.1003	0.02272	0.00025
318.15	0.2002	0.02111	0.00023
318.15	0.3002	0.02014	0.00022
318.15	0.3999	0.0193	0.0002
318.15	0.5	0.01855	0.00019
318.15	0.6	0.01797	0.00019
318.15	0.6999	0.01759	0.00018
318.15	0.7999	0.01714	0.00017
318.15	0.8999	0.01692	0.00017
318.15	1	0.01656	0.00017
323.15	0	0.02403	0.00027
323.15	0.1003	0.02213	0.00024
323.15	0.2002	0.02053	0.00022
323.15	0.3002	0.0196	0.00021
323.15	0.3999	0.01877	0.0002
323.15	0.5	0.018	0.00019
323.15	0.6	0.01748	0.00018
323.15	0.6999	0.01712	0.00018
323.15	0.7999	0.01671	0.00017
323.15	0.8999	0.01653	0.00017
323.15	1	0.0162	0.00016
