Measured thermophysical data. Solubility Measurement and Thermodynamic Modeling of N-(4-Methylphenyl-Z-3-chloro-2-(phenylthio)propenamide in 12 Pure Solvents at Temperatures Ranging from 278.15 to 318.15 K
Source: J. Chem. Eng. Data, 2018, 10.1021/acs.jced.7b01011
Compound 1: (Z)-3-chloro-2-phenylthio-N-(p-tolyl)acrylamide, C16H14ClNOS, InChI=1S/C16H14ClNOS/c1-12-7-9-13(10-8-12)18-16(19)15(11-17)20-14-5-3-2-4-6-14/h2-11H,1H3,(H,18,19)/b15-11-, purity 97%
Compound 2: acetone, C3H6O, InChI=1S/C3H6O/c1-3(2)4/h1-2H3, purity 99.8%
Compound 3: acetonitrile, C2H3N, InChI=1S/C2H3N/c1-2-3/h1H3, purity 99.9%
Compound 4: butanone, C4H8O, InChI=1S/C4H8O/c1-3-4(2)5/h3H2,1-2H3, purity 99%
Compound 5: ethyl acetate, C4H8O2, InChI=1S/C4H8O2/c1-3-6-4(2)5/h3H2,1-2H3, purity 99.5%
Compound 6: methyl ethanoate, C3H6O2, InChI=1S/C3H6O2/c1-3(4)5-2/h1-2H3, purity 99.9%
Compound 7: 2-methoxy-2-methylpropane, C5H12O, InChI=1S/C5H12O/c1-5(2,3)6-4/h1-4H3, purity 98.5%
Compound 8: tetrahydrofuran, C4H8O, InChI=1S/C4H8O/c1-2-4-5-3-1/h1-4H2, purity 99%
Compound 9: toluene, C7H8, InChI=1S/C7H8/c1-7-5-3-2-4-6-7/h2-6H,1H3, purity 99.8%
Compound 10: 1,2-dichloroethane, C2H4Cl2, InChI=1S/C2H4Cl2/c3-1-2-4/h1-2H2, purity 99.8%
Compound 11: 2-methyltetrahydrofuran, C5H10O, InChI=1S/C5H10O/c1-5-3-2-4-6-5/h5H,2-4H2,1H3, purity 99.9%
Compound 12: 2-methylbutan-2-ol, C5H12O, InChI=1S/C5H12O/c1-4-5(2,3)6/h6H,4H2,1-3H3, purity 99.9%
Compound 13: propan-2-ol, C3H8O, InChI=1S/C3H8O/c1-3(2)4/h3-4H,1-2H3, purity 99.5%
Compound 14: N-acetyl-p-aminophenol, C8H9NO2, InChI=1S/C8H9NO2/c1-6(10)9-7-2-4-8(11)5-3-7/h2-5,11H,1H3,(H,9,10), purity 99%

System: (Z)-3-chloro-2-phenylthio-N-(p-tolyl)acrylamide; phases: Crystal, Liquid, Air at 1 atmosphere
Property: Normal melting temperature, K (Crystal); method: DTA
Normal melting temperature, K	uncertainty
381.15	1.06

System: (Z)-3-chloro-2-phenylthio-N-(p-tolyl)acrylamide; phases: Crystal, Liquid, Air at 1 atmosphere
Property: Molar enthalpy of transition or fusion, kJ/mol (Crystal); method: DSC
Molar enthalpy of transition or fusion, kJ/mol	uncertainty
25.78	0.97

System: (Z)-3-chloro-2-phenylthio-N-(p-tolyl)acrylamide + acetone; phases: Liquid, Crystal
Fixed: Pressure, kPa = 101
Property: Mole fraction of (Z)-3-chloro-2-phenylthio-N-(p-tolyl)acrylamide (Liquid); method: gravimetric
Temperature, K	Mole fraction of (Z)-3-chloro-2-phenylthio-N-(p-tolyl)acrylamide	uncertainty
278.15	0.0216	0.0018
283.15	0.0258	0.0021
288.15	0.0296	0.0024
293.15	0.0364	0.003
298.15	0.0452	0.0037
303.15	0.0564	0.0046
308.15	0.0707	0.0058
313.15	0.0889	0.0073
318.15	0.1136	0.0093

System: (Z)-3-chloro-2-phenylthio-N-(p-tolyl)acrylamide + acetonitrile; phases: Liquid, Crystal
Fixed: Pressure, kPa = 101
Property: Mole fraction of (Z)-3-chloro-2-phenylthio-N-(p-tolyl)acrylamide (Liquid); method: gravimetric
Temperature, K	Mole fraction of (Z)-3-chloro-2-phenylthio-N-(p-tolyl)acrylamide	uncertainty
278.15	0.0043	0.0004
283.15	0.0051	0.0004
288.15	0.0065	0.0005
293.15	0.0086	0.0007
298.15	0.0115	0.001
303.15	0.0148	0.0012
308.15	0.02	0.0017
313.15	0.0267	0.0022
318.15	0.0362	0.003

System: (Z)-3-chloro-2-phenylthio-N-(p-tolyl)acrylamide + butanone; phases: Liquid, Crystal
Fixed: Pressure, kPa = 101
Property: Mole fraction of (Z)-3-chloro-2-phenylthio-N-(p-tolyl)acrylamide (Liquid); method: gravimetric
Temperature, K	Mole fraction of (Z)-3-chloro-2-phenylthio-N-(p-tolyl)acrylamide	uncertainty
278.15	0.0308	0.0025
283.15	0.0365	0.003
288.15	0.0436	0.0036
293.15	0.0529	0.0043
298.15	0.0632	0.0052
303.15	0.0772	0.0063
308.15	0.0943	0.0077
313.15	0.1124	0.0091
318.15	0.1346	0.0109

System: (Z)-3-chloro-2-phenylthio-N-(p-tolyl)acrylamide + ethyl acetate; phases: Liquid, Crystal
Fixed: Pressure, kPa = 101
Property: Mole fraction of (Z)-3-chloro-2-phenylthio-N-(p-tolyl)acrylamide (Liquid); method: gravimetric
Temperature, K	Mole fraction of (Z)-3-chloro-2-phenylthio-N-(p-tolyl)acrylamide	uncertainty
278.15	0.0187	0.0015
283.15	0.0233	0.0019
288.15	0.0271	0.0022
293.15	0.0331	0.0027
298.15	0.0409	0.0034
303.15	0.0522	0.0043
308.15	0.0657	0.0054
313.15	0.0794	0.0065
318.15	0.0978	0.008

System: (Z)-3-chloro-2-phenylthio-N-(p-tolyl)acrylamide + methyl ethanoate; phases: Liquid, Crystal
Fixed: Pressure, kPa = 101
Property: Mole fraction of (Z)-3-chloro-2-phenylthio-N-(p-tolyl)acrylamide (Liquid); method: gravimetric
Temperature, K	Mole fraction of (Z)-3-chloro-2-phenylthio-N-(p-tolyl)acrylamide	uncertainty
278.15	0.0153	0.0013
283.15	0.0195	0.0016
288.15	0.0228	0.0019
293.15	0.028	0.0023
298.15	0.0352	0.0029
303.15	0.0471	0.0039
308.15	0.0572	0.0047
313.15	0.0693	0.0056
318.15	0.0797	0.0064

System: (Z)-3-chloro-2-phenylthio-N-(p-tolyl)acrylamide + 2-methoxy-2-methylpropane; phases: Liquid, Crystal
Fixed: Pressure, kPa = 101
Property: Mole fraction of (Z)-3-chloro-2-phenylthio-N-(p-tolyl)acrylamide (Liquid); method: gravimetric
Temperature, K	Mole fraction of (Z)-3-chloro-2-phenylthio-N-(p-tolyl)acrylamide	uncertainty
278.15	0.0068	0.0005
283.15	0.0075	0.0006
288.15	0.0092	0.0007
293.15	0.0104	0.0008
298.15	0.0132	0.0011
303.15	0.0153	0.0012
308.15	0.0187	0.0015
313.15	0.0223	0.0018
318.15	0.0277	0.0023

System: (Z)-3-chloro-2-phenylthio-N-(p-tolyl)acrylamide + tetrahydrofuran; phases: Liquid, Crystal
Fixed: Pressure, kPa = 101
Property: Mole fraction of (Z)-3-chloro-2-phenylthio-N-(p-tolyl)acrylamide (Liquid); method: gravimetric
Temperature, K	Mole fraction of (Z)-3-chloro-2-phenylthio-N-(p-tolyl)acrylamide	uncertainty
278.15	0.0849	0.0068
283.15	0.0953	0.0077
288.15	0.1053	0.0085
293.15	0.1185	0.0095
298.15	0.1333	0.0108
303.15	0.1536	0.0124
308.15	0.1706	0.0138
313.15	0.1946	0.0157
318.15	0.2178	0.0175

System: (Z)-3-chloro-2-phenylthio-N-(p-tolyl)acrylamide + toluene; phases: Liquid, Crystal
Fixed: Pressure, kPa = 101
Property: Mole fraction of (Z)-3-chloro-2-phenylthio-N-(p-tolyl)acrylamide (Liquid); method: gravimetric
Temperature, K	Mole fraction of (Z)-3-chloro-2-phenylthio-N-(p-tolyl)acrylamide	uncertainty
278.15	0.014	0.0011
283.15	0.0165	0.0013
288.15	0.0202	0.0017
293.15	0.0266	0.0022
298.15	0.0318	0.0026
303.15	0.0443	0.0037
308.15	0.0551	0.0045
313.15	0.069	0.0057
318.15	0.0876	0.0072

System: (Z)-3-chloro-2-phenylthio-N-(p-tolyl)acrylamide + 1,2-dichloroethane; phases: Liquid, Crystal
Fixed: Pressure, kPa = 101
Property: Mole fraction of (Z)-3-chloro-2-phenylthio-N-(p-tolyl)acrylamide (Liquid); method: gravimetric
Temperature, K	Mole fraction of (Z)-3-chloro-2-phenylthio-N-(p-tolyl)acrylamide	uncertainty
278.15	0.0353	0.0029
283.15	0.0413	0.0034
288.15	0.0512	0.0042
293.15	0.0615	0.005
298.15	0.0773	0.0063
303.15	0.0942	0.0077
308.15	0.1151	0.0094
313.15	0.1356	0.011
318.15	0.1608	0.013

System: (Z)-3-chloro-2-phenylthio-N-(p-tolyl)acrylamide + 2-methylbutan-2-ol; phases: Liquid, Crystal
Fixed: Pressure, kPa = 101
Property: Mole fraction of (Z)-3-chloro-2-phenylthio-N-(p-tolyl)acrylamide (Liquid); method: gravimetric
Temperature, K	Mole fraction of (Z)-3-chloro-2-phenylthio-N-(p-tolyl)acrylamide	uncertainty
278.15	0.0013	0.0001
283.15	0.0015	0.0001
288.15	0.0018	0.0002
293.15	0.0026	0.0002
298.15	0.0034	0.0003
303.15	0.005	0.0004
308.15	0.0068	0.0006
313.15	0.0096	0.0008
318.15	0.0129	0.0011

System: (Z)-3-chloro-2-phenylthio-N-(p-tolyl)acrylamide + 2-methyltetrahydrofuran; phases: Liquid, Crystal
Fixed: Pressure, kPa = 101
Property: Mole fraction of (Z)-3-chloro-2-phenylthio-N-(p-tolyl)acrylamide (Liquid); method: gravimetric
Temperature, K	Mole fraction of (Z)-3-chloro-2-phenylthio-N-(p-tolyl)acrylamide	uncertainty
278.15	0.0393	0.0032
283.15	0.0466	0.0038
288.15	0.0507	0.0041
293.15	0.0604	0.0049
298.15	0.0702	0.0057
303.15	0.0858	0.007
308.15	0.1028	0.0084
313.15	0.1256	0.0102
318.15	0.1454	0.0117

System: (Z)-3-chloro-2-phenylthio-N-(p-tolyl)acrylamide + propan-2-ol; phases: Liquid, Crystal
Fixed: Pressure, kPa = 101
Property: Mole fraction of (Z)-3-chloro-2-phenylthio-N-(p-tolyl)acrylamide (Liquid); method: gravimetric
Temperature, K	Mole fraction of (Z)-3-chloro-2-phenylthio-N-(p-tolyl)acrylamide	uncertainty
278.15	0.0019	0.0002
283.15	0.0021	0.0002
288.15	0.0025	0.0002
293.15	0.0031	0.0003
298.15	0.0041	0.0003
303.15	0.0048	0.0004
308.15	0.0063	0.0005
313.15	0.0075	0.0006
318.15	0.0093	0.0008

System: N-acetyl-p-aminophenol + propan-2-ol; phases: Liquid, Crystal
Fixed: Pressure, kPa = 101
Property: Mole fraction of N-acetyl-p-aminophenol (Liquid); method: gravimetric
Temperature, K	Mole fraction of N-acetyl-p-aminophenol	uncertainty
293.15	0.0415	0.0017
303.15	0.0509	0.0021

System: N-acetyl-p-aminophenol + acetone; phases: Liquid, Crystal
Fixed: Pressure, kPa = 101
Property: Mole fraction of N-acetyl-p-aminophenol (Liquid); method: gravimetric
Temperature, K	Mole fraction of N-acetyl-p-aminophenol	uncertainty
293.15	0.0327	0.0014
303.15	0.0411	0.0017
