Measured thermophysical data. Solubility and Solution Thermodynamics of 2,6-Dichloro-4-nitroaniline in 12 Pure Solvents at Temperatures from 278.15 to 323.15 K
Source: J. Chem. Eng. Data, 2019, 10.1021/acs.jced.9b00778
Compound 1: 1-amino-2,6-dichloro-4-nitrobenzene, C6H4Cl2N2O2, InChI=1S/C6H4Cl2N2O2/c7-4-1-3(10(11)12)2-5(8)6(4)9/h1-2H,9H2, purity 95%
Compound 2: methanol, CH4O, InChI=1S/CH4O/c1-2/h2H,1H3, purity 99.5%
Compound 3: ethanol, C2H6O, InChI=1S/C2H6O/c1-2-3/h3H,2H2,1H3, purity 99.7%
Compound 4: propan-1-ol, C3H8O, InChI=1S/C3H8O/c1-2-3-4/h4H,2-3H2,1H3, purity 99.4%
Compound 5: propan-2-ol, C3H8O, InChI=1S/C3H8O/c1-3(2)4/h3-4H,1-2H3, purity 99.7%
Compound 6: 1,2-ethanediol, C2H6O2, InChI=1S/C2H6O2/c3-1-2-4/h3-4H,1-2H2, purity 99.5%
Compound 7: acetonitrile, C2H3N, InChI=1S/C2H3N/c1-2-3/h1H3, purity 99.7%
Compound 8: cyclohexane, C6H12, InChI=1S/C6H12/c1-2-4-6-5-3-1/h1-6H2, purity 99.4%
Compound 9: N-methylpyrrolidone, C5H9NO, InChI=1S/C5H9NO/c1-6-4-2-3-5(6)7/h2-4H2,1H3, purity 99.5%
Compound 10: butan-1-ol, C4H10O, InChI=1S/C4H10O/c1-2-3-4-5/h5H,2-4H2,1H3, purity 99.6%
Compound 11: ethyl acetate, C4H8O2, InChI=1S/C4H8O2/c1-3-6-4(2)5/h3H2,1-2H3, purity 99.5%
Compound 12: 1,4-dioxane, C4H8O2, InChI=1S/C4H8O2/c1-2-6-4-3-5-1/h1-4H2, purity 99.5%
Compound 13: water, H2O, InChI=1S/H2O/h1H2, purity 99.9%

System: 1-amino-2,6-dichloro-4-nitrobenzene + water; phases: Liquid, Crystal
Fixed: Pressure, kPa = 101.2
Property: Mole fraction of 1-amino-2,6-dichloro-4-nitrobenzene (Liquid); method: Chromatography
Temperature, K	Mole fraction of 1-amino-2,6-dichloro-4-nitrobenzene	uncertainty
278.15	1.881e-06	1.17e-07
283.15	2.527e-06	1.57e-07
288.15	3.426e-06	2.13e-07
293.15	4.76e-06	2.96e-07
298.15	6.431e-06	3.99e-07
303.15	8.305e-06	5.15e-07
308.15	1.061e-05	6.6e-07
313.15	1.369e-05	8.5e-07
318.15	1.723e-05	1.07e-06
323.15	2.18e-05	1.35e-06

System: 1-amino-2,6-dichloro-4-nitrobenzene + methanol; phases: Liquid, Crystal
Fixed: Pressure, kPa = 101.2
Property: Mole fraction of 1-amino-2,6-dichloro-4-nitrobenzene (Liquid); method: Chromatography
Temperature, K	Mole fraction of 1-amino-2,6-dichloro-4-nitrobenzene	uncertainty
278.15	0.0007054	4.38e-05
283.15	0.0008142	5.05e-05
288.15	0.0009867	6.12e-05
293.15	0.00121	7.5e-05
298.15	0.001498	9.3e-05
303.15	0.001818	0.000113
308.15	0.002237	0.000139
313.15	0.002675	0.000166
318.15	0.003139	0.000195
323.15	0.003772	0.000234

System: 1-amino-2,6-dichloro-4-nitrobenzene + ethanol; phases: Liquid, Crystal
Fixed: Pressure, kPa = 101.2
Property: Mole fraction of 1-amino-2,6-dichloro-4-nitrobenzene (Liquid); method: Chromatography
Temperature, K	Mole fraction of 1-amino-2,6-dichloro-4-nitrobenzene	uncertainty
278.15	0.0008791	5.45e-05
283.15	0.001018	6.3e-05
288.15	0.001232	7.6e-05
293.15	0.001487	9.2e-05
298.15	0.001831	0.000114
303.15	0.002221	0.000138
308.15	0.002677	0.000166
313.15	0.00325	0.000202
318.15	0.003839	0.000238
323.15	0.004552	0.000282

System: 1-amino-2,6-dichloro-4-nitrobenzene + propan-1-ol; phases: Liquid, Crystal
Fixed: Pressure, kPa = 101.2
Property: Mole fraction of 1-amino-2,6-dichloro-4-nitrobenzene (Liquid); method: Chromatography
Temperature, K	Mole fraction of 1-amino-2,6-dichloro-4-nitrobenzene	uncertainty
278.15	0.001017	6.3e-05
283.15	0.001227	7.6e-05
288.15	0.001464	9.1e-05
293.15	0.001759	0.000109
298.15	0.002159	0.000134
303.15	0.002575	0.00016
308.15	0.003073	0.000191
313.15	0.003643	0.000226
318.15	0.004412	0.000274
323.15	0.005459	0.000339

System: 1-amino-2,6-dichloro-4-nitrobenzene + propan-2-ol; phases: Liquid, Crystal
Fixed: Pressure, kPa = 101.2
Property: Mole fraction of 1-amino-2,6-dichloro-4-nitrobenzene (Liquid); method: Chromatography
Temperature, K	Mole fraction of 1-amino-2,6-dichloro-4-nitrobenzene	uncertainty
283.15	0.0009301	5.77e-05
288.15	0.001107	6.9e-05
293.15	0.001326	8.2e-05
298.15	0.001617	0.0001
303.15	0.001952	0.000121
308.15	0.00234	0.000145
313.15	0.002808	0.000174
318.15	0.003381	0.00021
323.15	0.004126	0.000256

System: 1-amino-2,6-dichloro-4-nitrobenzene + butan-1-ol; phases: Liquid, Crystal
Fixed: Pressure, kPa = 101.2
Property: Mole fraction of 1-amino-2,6-dichloro-4-nitrobenzene (Liquid); method: Chromatography
Temperature, K	Mole fraction of 1-amino-2,6-dichloro-4-nitrobenzene	uncertainty
278.15	0.00121	7.5e-05
283.15	0.001477	9.2e-05
288.15	0.001723	0.000107
293.15	0.002158	0.000134
298.15	0.002597	0.000161
303.15	0.003081	0.000191
308.15	0.003782	0.000235
313.15	0.004459	0.000277
318.15	0.005425	0.000337
323.15	0.006383	0.000396

System: 1-amino-2,6-dichloro-4-nitrobenzene + 1,2-ethanediol; phases: Liquid, Crystal
Fixed: Pressure, kPa = 101.2
Property: Mole fraction of 1-amino-2,6-dichloro-4-nitrobenzene (Liquid); method: Chromatography
Temperature, K	Mole fraction of 1-amino-2,6-dichloro-4-nitrobenzene	uncertainty
278.15	0.0008145	5.05e-05
283.15	0.0009688	6.01e-05
288.15	0.001165	7.2e-05
293.15	0.001387	8.6e-05
298.15	0.00167	0.000104
303.15	0.001954	0.000121
308.15	0.002362	0.000147
313.15	0.002805	0.000174
318.15	0.003381	0.00021
323.15	0.004124	0.000256

System: 1-amino-2,6-dichloro-4-nitrobenzene + acetonitrile; phases: Liquid, Crystal
Fixed: Pressure, kPa = 101.2
Property: Mole fraction of 1-amino-2,6-dichloro-4-nitrobenzene (Liquid); method: Chromatography
Temperature, K	Mole fraction of 1-amino-2,6-dichloro-4-nitrobenzene	uncertainty
278.15	0.001519	9.4e-05
283.15	0.001758	0.000109
288.15	0.002111	0.000131
293.15	0.002494	0.000155
298.15	0.00293	0.000182
303.15	0.003525	0.000219
308.15	0.004106	0.000255
313.15	0.004871	0.000302
318.15	0.005769	0.000358
323.15	0.006653	0.000413

System: 1-amino-2,6-dichloro-4-nitrobenzene + cyclohexane; phases: Liquid, Crystal
Fixed: Pressure, kPa = 101.2
Property: Mole fraction of 1-amino-2,6-dichloro-4-nitrobenzene (Liquid); method: Chromatography
Temperature, K	Mole fraction of 1-amino-2,6-dichloro-4-nitrobenzene	uncertainty
278.15	0.0001194	7.4e-06
283.15	0.0001474	9.1e-06
288.15	0.0001849	1.15e-05
293.15	0.0002361	1.47e-05
298.15	0.0003013	1.87e-05
303.15	0.0003894	2.42e-05
308.15	0.0005006	3.11e-05
313.15	0.0006168	3.83e-05
318.15	0.0007396	4.59e-05
323.15	0.0009056	5.62e-05

System: 1-amino-2,6-dichloro-4-nitrobenzene + 1,4-dioxane; phases: Liquid, Crystal
Fixed: Pressure, kPa = 101.2
Property: Mole fraction of 1-amino-2,6-dichloro-4-nitrobenzene (Liquid); method: Chromatography
Temperature, K	Mole fraction of 1-amino-2,6-dichloro-4-nitrobenzene	uncertainty
293.15	0.02513	0.00156
298.15	0.02923	0.00181
303.15	0.03369	0.00209
308.15	0.03894	0.00242
313.15	0.0447	0.00277
318.15	0.05133	0.00318
323.15	0.05979	0.00371

System: 1-amino-2,6-dichloro-4-nitrobenzene + ethyl acetate; phases: Liquid, Crystal
Fixed: Pressure, kPa = 101.2
Property: Mole fraction of 1-amino-2,6-dichloro-4-nitrobenzene (Liquid); method: Chromatography
Temperature, K	Mole fraction of 1-amino-2,6-dichloro-4-nitrobenzene	uncertainty
278.15	0.008496	0.000527
283.15	0.009381	0.000582
288.15	0.0109	0.00068
293.15	0.01263	0.00078
298.15	0.01529	0.00095
303.15	0.01774	0.0011
308.15	0.02079	0.00129
313.15	0.02501	0.00155
318.15	0.02914	0.00181
323.15	0.03363	0.00209

System: 1-amino-2,6-dichloro-4-nitrobenzene + N-methylpyrrolidone; phases: Liquid, Crystal
Fixed: Pressure, kPa = 101.2
Property: Mole fraction of 1-amino-2,6-dichloro-4-nitrobenzene (Liquid); method: Chromatography
Temperature, K	Mole fraction of 1-amino-2,6-dichloro-4-nitrobenzene	uncertainty
278.15	0.1347	0.0084
283.15	0.1415	0.0088
288.15	0.1493	0.0093
293.15	0.1591	0.0099
298.15	0.1689	0.0105
303.15	0.1789	0.0111
308.15	0.1888	0.0117
313.15	0.1992	0.0124
318.15	0.2113	0.0131
323.15	0.2271	0.0141
