Measured thermophysical data. Isobaric Vapor-Liquid Equilibrium for 2-Butanone + Ethanol System Containing Different Ionic Liquids at 101.3 kPa
Source: J. Chem. Eng. Data, 2018, 10.1021/acs.jced.7b00783
Compound 1: butanone, C4H8O, InChI=1S/C4H8O/c1-3-4(2)5/h3H2,1-2H3, purity 99.5%
Compound 2: ethanol, C2H6O, InChI=1S/C2H6O/c1-2-3/h3H,2H2,1H3, purity 99.5%
Compound 3: 1-ethyl-3-methylimidazolium acetate, C8H14N2O2, InChI=1S/C6H11N2.C2H4O2/c1-3-8-5-4-7(2)6-8;1-2(3)4/h4-6H,3H2,1-2H3;1H3,(H,3,4)/q+1;/p-1, purity 98%
Compound 4: 1-butyl-3-methylimidazolium acetate, C10H18N2O2, InChI=1S/C8H15N2.C2H4O2/c1-3-4-5-10-7-6-9(2)8-10;1-2(3)4/h6-8H,3-5H2,1-2H3;1H3,(H,3,4)/q+1;/p-1, purity 98%
Compound 5: 3-hexyl-1-methylimidazolium acetate, C12H22N2O2, InChI=1S/C10H19N2.C2H4O2/c1-3-4-5-6-7-12-9-8-11(2)10-12;1-2(3)4/h8-10H,3-7H2,1-2H3;1H3,(H,3,4)/q+1;/p-1, purity 98%

System: butanone; phases: Liquid, Gas
Property: Vapor or sublimation pressure, kPa (Liquid); method: Ebulliometric method (Recirculating still)
Temperature, K	Vapor or sublimation pressure, kPa	uncertainty
352.72	101.3	0.45585

System: ethanol; phases: Liquid, Gas
Property: Vapor or sublimation pressure, kPa (Liquid); method: Ebulliometric method (Recirculating still)
Temperature, K	Vapor or sublimation pressure, kPa	uncertainty
351.45	101.3	0.45585

System: butanone + ethanol; phases: Liquid, Gas
Fixed: Pressure, kPa = 101.3
Property: Boiling temperature at pressure P, K (Liquid); method: Ebulliometric method (Recirculating still)
Mole fraction of butanone	Boiling temperature at pressure P, K	uncertainty
0	351.45	0.09
0.029	350.78	0.1
0.063	350.21	0.1
0.094	349.79	0.1
0.139	349.25	0.09
0.18	348.85	0.09
0.237	348.31	0.09
0.332	347.79	0.09
0.429	347.54	0.09
0.47	347.5	0.09
0.544	347.51	0.09
0.638	347.72	0.09
0.744	348.35	0.09
0.815	349.08	0.09
0.852	349.63	0.1
0.906	350.59	0.1
0.945	351.34	0.1
0.974	351.89	0.1
1	352.72	0.09

System: butanone + ethanol; phases: Gas, Liquid
Fixed: Pressure, kPa = 101.3
Property: Mole fraction of butanone (Gas); method: Chromatography
Mole fraction of butanone	Mole fraction of butanone	uncertainty
0	0	
0.029	0.05	0.004
0.063	0.101	0.004
0.094	0.143	0.003
0.139	0.196	0.004
0.18	0.241	0.004
0.237	0.297	0.004
0.332	0.374	0.004
0.429	0.445	0.005
0.47	0.476	0.005
0.544	0.527	0.005
0.638	0.589	0.005
0.744	0.676	0.004
0.815	0.747	0.004
0.852	0.785	0.004
0.906	0.849	0.004
0.945	0.903	0.004
0.974	0.951	0.004
1	1	

System: butanone + ethanol + 1-ethyl-3-methylimidazolium acetate; phases: Liquid, Gas
Fixed: Pressure, kPa = 101.3
Property: Mole fraction of 1-ethyl-3-methylimidazolium acetate (Liquid); method: Chromatography
Property: Mole fraction of 1-ethyl-3-methylimidazolium acetate (Gas); method: Chromatography
Property: Mole fraction of butanone (Gas); method: Chromatography
Temperature, K	Solvent: Mole fraction of butanone	Mole fraction of 1-ethyl-3-methylimidazolium acetate	uncertainty	Mole fraction of 1-ethyl-3-methylimidazolium acetate	uncertainty	Mole fraction of butanone	uncertainty
355.72	0.038	0.101	0.002	0		0.098	
349.56	0.572	0.051	0.002	0		0.656	
350.12	0.669	0.05	0.002	0		0.728	
350.48	0.52	0.1	0.002	0		0.71	
350.65	0.731	0.05	0.002	0		0.778	
351.35	0.799	0.05	0.002	0		0.83	
352.01	0.847	0.051	0.002	0		0.871	
354.09	0.114	0.101	0.002	0		0.256	
350.83	0.064	0.021	0.002	0		0.114	
350.1	0.113	0.02	0.002	0		0.186	
349.6	0.158	0.019	0.002	0		0.24	
351.56	0.121	0.052	0.002	0		0.222	
349.1	0.204	0.02	0.002	0		0.291	
348.75	0.254	0.019	0.002	0		0.339	
348.5	0.319	0.02	0.002	0		0.398	
350.78	0.61	0.101	0.002	0		0.779	
348.41	0.38	0.02	0.002	0		0.446	
348.49	0.455	0.02	0.002	0		0.5	
348.65	0.538	0.021	0.002	0		0.568	
349.15	0.64	0.022	0.002	0		0.644	
353.32	0.153	0.1	0.002	0		0.322	
349.41	0.692	0.021	0.002	0		0.684	
351.05	0.165	0.051	0.002	0		0.283	
350.25	0.788	0.021	0.002	0		0.764	
350.79	0.838	0.02	0.002	0		0.809	
351.75	0.903	0.019	0.002	0		0.877	
352.28	0.21	0.101	0.002	0		0.406	
351.18	0.674	0.101	0.002	0		0.823	
351.62	0.259	0.1	0.002	0		0.468	
350.98	0.32	0.1	0.002	0		0.535	
350.61	0.39	0.101	0.002	0		0.604	
350.45	0.448	0.1	0.002	0		0.656	
351.51	0.72	0.102	0.002	0		0.854	
355.11	0.069	0.101	0.002	0		0.17	
351.79	0.753	0.102	0.002	0		0.874	
352.39	0.806	0.102	0.002	0		0.905	
353.02	0.039	0.051	0.002	0		0.083	
352.22	0.08	0.052	0.002	0		0.158	
350.45	0.222	0.052	0.002	0		0.352	
349.87	0.285	0.053	0.002	0		0.42	
349.49	0.35	0.052	0.002	0		0.479	
349.35	0.431	0.052	0.002	0		0.549	
349.45	0.515	0.051	0.002	0		0.616	

System: butanone + ethanol + 1-butyl-3-methylimidazolium acetate; phases: Liquid, Gas
Fixed: Pressure, kPa = 101.3
Property: Mole fraction of 1-butyl-3-methylimidazolium acetate (Liquid); method: Chromatography
Property: Mole fraction of 1-butyl-3-methylimidazolium acetate (Gas); method: Chromatography
Property: Mole fraction of butanone (Gas); method: Chromatography
Temperature, K	Solvent: Mole fraction of butanone	Mole fraction of 1-butyl-3-methylimidazolium acetate	uncertainty	Mole fraction of 1-butyl-3-methylimidazolium acetate	uncertainty	Mole fraction of butanone	uncertainty
355.23	0.054	0.101	0.002	0		0.128	
354.14	0.112	0.101	0.002	0		0.239	
353.27	0.162	0.102	0.002	0		0.32	
352.35	0.217	0.101	0.002	0		0.398	
351.76	0.269	0.102	0.002	0		0.458	
351.23	0.334	0.101	0.002	0		0.531	
350.98	0.424	0.102	0.002	0		0.614	
350.88	0.505	0.101	0.002	0		0.683	
351.18	0.59	0.102	0.002	0		0.751	
351.52	0.659	0.102	0.002	0		0.801	
351.98	0.721	0.102	0.002	0		0.841	
352.51	0.771	0.103	0.002	0		0.875	
353.46	0.846	0.104	0.002	0		0.922	
352.44	0.071	0.05	0.002	0		0.137	
351.8	0.108	0.051	0.002	0		0.196	
351.34	0.137	0.052	0.002	0		0.238	
350.71	0.187	0.053	0.002	0		0.305	
349.91	0.274	0.053	0.002	0		0.401	
349.55	0.371	0.051	0.002	0		0.485	
349.46	0.487	0.052	0.002	0		0.585	
349.93	0.606	0.052	0.002	0		0.673	
350.39	0.684	0.051	0.002	0		0.735	
351.01	0.754	0.051	0.002	0		0.791	
351.85	0.826	0.052	0.002	0		0.851	
352.63	0.885	0.053	0.002	0		0.901	
351.43	0.024	0.02	0.002	0		0.044	
350.67	0.07	0.02	0.002	0		0.121	
350.15	0.117	0.02	0.002	0		0.191	
349.71	0.165	0.02	0.002	0		0.246	
349.31	0.218	0.02	0.002	0		0.31	
348.95	0.273	0.021	0.002	0		0.358	
348.69	0.331	0.021	0.002	0		0.404	
348.46	0.402	0.02	0.002	0		0.466	
348.44	0.48	0.02	0.002	0		0.52	
348.54	0.555	0.021	0.002	0		0.582	
348.81	0.628	0.02	0.002	0		0.631	
349.63	0.74	0.02	0.002	0		0.719	
350.51	0.822	0.021	0.002	0		0.794	
351.74	0.919	0.02	0.002	0		0.895	

System: butanone + ethanol + 3-hexyl-1-methylimidazolium acetate; phases: Liquid, Gas
Fixed: Pressure, kPa = 101.3
Property: Mole fraction of 3-hexyl-1-methylimidazolium acetate (Liquid); method: Chromatography
Property: Mole fraction of 3-hexyl-1-methylimidazolium acetate (Gas); method: Chromatography
Property: Mole fraction of butanone (Gas); method: Chromatography
Temperature, K	Solvent: Mole fraction of butanone	Mole fraction of 3-hexyl-1-methylimidazolium acetate	uncertainty	Mole fraction of 3-hexyl-1-methylimidazolium acetate	uncertainty	Mole fraction of butanone	uncertainty
355.53	0.061	0.101	0.002	0		0.136	
354.28	0.108	0.102	0.002	0		0.222	
353.32	0.149	0.102	0.002	0		0.29	
352.53	0.212	0.102	0.002	0		0.378	
351.86	0.276	0.101	0.002	0		0.456	
351.35	0.352	0.101	0.002	0		0.536	
351.01	0.419	0.101	0.002	0		0.595	
350.92	0.486	0.101	0.002	0		0.652	
351.07	0.569	0.1	0.002	0		0.721	
351.38	0.642	0.101	0.002	0		0.773	
351.83	0.712	0.1	0.002	0		0.826	
352.85	0.822	0.101	0.002	0		0.9	
353.97	0.9	0.101	0.002	0		0.948	
354.69	0.947	0.101	0.002	0		0.974	
352.23	0.072	0.05	0.002	0		0.135	
351.36	0.127	0.05	0.002	0		0.218	
350.55	0.204	0.052	0.002	0		0.312	
350.07	0.27	0.051	0.002	0		0.387	
349.62	0.338	0.05	0.002	0		0.45	
349.53	0.407	0.049	0.002	0		0.505	
349.46	0.474	0.05	0.002	0		0.566	
349.51	0.518	0.05	0.002	0		0.599	
349.95	0.635	0.049	0.002	0		0.683	
350.47	0.72	0.049	0.002	0		0.751	
351.04	0.779	0.049	0.002	0		0.804	
352.03	0.859	0.05	0.002	0		0.871	
352.94	0.926	0.05	0.002	0		0.932	
353.48	0.967	0.05	0.002	0		0.969	
351.15	0.052	0.02	0.002	0		0.093	
350.46	0.093	0.019	0.002	0		0.153	
349.94	0.143	0.02	0.002	0		0.22	
349.01	0.264	0.021	0.002	0		0.34	
348.76	0.303	0.021	0.002	0		0.381	
348.45	0.391	0.022	0.002	0		0.451	
348.45	0.498	0.021	0.002	0		0.529	
348.59	0.576	0.02	0.002	0		0.586	
348.95	0.659	0.02	0.002	0		0.647	
349.81	0.76	0.021	0.002	0		0.734	
350.56	0.836	0.021	0.002	0		0.805	
351.54	0.904	0.02	0.002	0		0.876	
352.69	0.963	0.02	0.002	0		0.949	
