Measured thermophysical data. Equilibrium Solubility Determination and Modeling of Fenbendazole in Cosolvent Mixtures at (283.15-328.15) K
Source: J. Chem. Eng. Data, 2019, 10.1021/acs.jced.9b00471
Compound 1: fenbendazole, C15H13N3O2S, InChI=1S/C15H13N3O2S/c1-20-15(19)18-14-16-12-8-7-11(9-13(12)17-14)21-10-5-3-2-4-6-10/h2-9H,1H3,(H2,16,17,18,19), purity 99.5%
Compound 2: methanol, CH4O, InChI=1S/CH4O/c1-2/h2H,1H3, purity 99.8%
Compound 3: ethanol, C2H6O, InChI=1S/C2H6O/c1-2-3/h3H,2H2,1H3, purity 99.6%
Compound 4: 1,2-ethanediol, C2H6O2, InChI=1S/C2H6O2/c3-1-2-4/h3-4H,1-2H2, purity 99.6%
Compound 5: dimethylformamide, C3H7NO, InChI=1S/C3H7NO/c1-4(2)3-5/h3H,1-2H3, purity 99.8%
Compound 6: water, H2O, InChI=1S/H2O/h1H2, purity 99.9%

System: fenbendazole + methanol + water; phases: Liquid, Crystal
Fixed: Pressure, kPa = 101.1
Property: Mole fraction of fenbendazole (Liquid); method: Chromatography
Temperature, K	Solvent: Mass fraction of methanol	Mole fraction of fenbendazole	uncertainty
283.15	1	0.0002479	2.48e-05
288.15	1	0.0002997	3e-05
293.15	1	0.0003823	3.82e-05
298.15	1	0.0004893	4.89e-05
303.15	1	0.0006014	6.02e-05
308.15	1	0.0007476	7.48e-05
313.15	1	0.0008985	8.99e-05
318.15	1	0.001066	0.000107
323.15	1	0.001276	0.000128
328.15	1	0.001518	0.000152
283.15	0.9008	0.0002229	2.23e-05
288.15	0.9008	0.000273	2.73e-05
293.15	0.9008	0.0003579	3.58e-05
298.15	0.9008	0.0004486	4.49e-05
303.15	0.9008	0.0005584	5.59e-05
308.15	0.9008	0.0006873	6.88e-05
313.15	0.9008	0.0008376	8.38e-05
318.15	0.9008	0.0009793	9.8e-05
323.15	0.9008	0.00116	0.000116
328.15	0.9008	0.001392	0.000139
283.15	0.7998	0.0001919	1.92e-05
288.15	0.7998	0.000242	2.42e-05
293.15	0.7998	0.0003021	3.02e-05
298.15	0.7998	0.0003742	3.74e-05
303.15	0.7998	0.0004529	4.53e-05
308.15	0.7998	0.000557	5.57e-05
313.15	0.7998	0.0006701	6.7e-05
318.15	0.7998	0.000787	7.87e-05
323.15	0.7998	0.0009369	9.37e-05
328.15	0.7998	0.001156	0.000116
283.15	0.7012	0.0001732	1.73e-05
288.15	0.7012	0.0002172	2.17e-05
293.15	0.7012	0.0002649	2.65e-05
298.15	0.7012	0.0003183	3.18e-05
303.15	0.7012	0.0003971	3.97e-05
308.15	0.7012	0.0004763	4.76e-05
313.15	0.7012	0.0005708	5.71e-05
318.15	0.7012	0.0006753	6.76e-05
323.15	0.7012	0.0008066	8.07e-05
328.15	0.7012	0.0009884	9.89e-05
283.15	0.5986	0.0001384	1.38e-05
288.15	0.5986	0.0001861	1.86e-05
293.15	0.5986	0.0002234	2.23e-05
298.15	0.5986	0.0002697	2.7e-05
303.15	0.5986	0.0003412	3.41e-05
308.15	0.5986	0.0003999	4e-05
313.15	0.5986	0.0004777	4.78e-05
318.15	0.5986	0.000566	5.66e-05
323.15	0.5986	0.0006825	6.83e-05
328.15	0.5986	0.0008309	8.31e-05
283.15	0.5005	0.000126	1.26e-05
288.15	0.5005	0.0001551	1.55e-05
293.15	0.5005	0.0001861	1.86e-05
298.15	0.5005	0.00022	2.2e-05
303.15	0.5005	0.0002792	2.79e-05
308.15	0.5005	0.0003317	3.32e-05
313.15	0.5005	0.0003909	3.91e-05
318.15	0.5005	0.0004606	4.61e-05
323.15	0.5005	0.000546	5.46e-05
328.15	0.5005	0.0006634	6.64e-05
283.15	0.399	0.0001039	1.04e-05
288.15	0.399	0.0001228	1.23e-05
293.15	0.399	0.0001517	1.52e-05
298.15	0.399	0.000188	1.88e-05
303.15	0.399	0.0002271	2.27e-05
308.15	0.399	0.0002747	2.75e-05
313.15	0.399	0.0003277	3.28e-05
318.15	0.399	0.0003875	3.88e-05
323.15	0.399	0.0004586	4.59e-05
328.15	0.399	0.0005399	5.4e-05
283.15	0.2989	8.386e-05	8.39e-06
288.15	0.2989	9.888e-05	9.89e-06
293.15	0.2989	0.0001216	1.22e-05
298.15	0.2989	0.0001501	1.5e-05
303.15	0.2989	0.0001809	1.81e-05
308.15	0.2989	0.0002181	2.18e-05
313.15	0.2989	0.0002602	2.6e-05
318.15	0.2989	0.0003078	3.08e-05
323.15	0.2989	0.0003638	3.64e-05
328.15	0.2989	0.000428	4.28e-05
283.15	0.2002	5.281e-05	5.28e-06
288.15	0.2002	6.239e-05	6.24e-06
293.15	0.2002	7.671e-05	7.67e-06
298.15	0.2002	9.469e-05	9.47e-06
303.15	0.2002	0.0001144	1.14e-05
308.15	0.2002	0.000138	1.38e-05
313.15	0.2002	0.0001651	1.65e-05
318.15	0.2002	0.0001961	1.96e-05
323.15	0.2002	0.0002324	2.32e-05
328.15	0.2002	0.0002741	2.74e-05
283.15	0.1006	2.062e-05	2.06e-06
288.15	0.1006	2.46e-05	2.46e-06
293.15	0.1006	3.049e-05	3.05e-06
298.15	0.1006	3.793e-05	3.79e-06
303.15	0.1006	4.625e-05	4.63e-06
308.15	0.1006	5.622e-05	5.62e-06
313.15	0.1006	6.798e-05	6.8e-06
318.15	0.1006	8.162e-05	8.16e-06
323.15	0.1006	9.761e-05	9.76e-06
328.15	0.1006	0.0001162	1.16e-05
283.15	0	3.692e-06	3.69e-07
288.15	0	4.511e-06	4.51e-07
293.15	0	5.709e-06	5.71e-07
298.15	0	7.246e-06	7.25e-07
303.15	0	9.03e-06	9.03e-07
308.15	0	1.119e-05	1.12e-06
313.15	0	1.383e-05	1.38e-06
318.15	0	1.697e-05	1.7e-06
323.15	0	2.07e-05	2.07e-06
328.15	0	2.511e-05	2.51e-06

System: fenbendazole + ethanol + water; phases: Liquid, Crystal
Fixed: Pressure, kPa = 101.1
Property: Mole fraction of fenbendazole (Liquid); method: Chromatography
Temperature, K	Solvent: Mass fraction of ethanol	Mole fraction of fenbendazole	uncertainty
283.15	1	0.0001646	1.65e-05
288.15	1	0.0002187	2.19e-05
293.15	1	0.0002913	2.91e-05
298.15	1	0.0003777	3.78e-05
303.15	1	0.000478	4.78e-05
308.15	1	0.0005979	5.98e-05
313.15	1	0.000734	7.34e-05
318.15	1	0.0009183	9.19e-05
323.15	1	0.001115	0.000112
328.15	1	0.001369	0.000137
283.15	0.8969	0.0001453	1.45e-05
288.15	0.8969	0.0001906	1.91e-05
293.15	0.8969	0.0002515	2.52e-05
298.15	0.8969	0.000324	3.24e-05
303.15	0.8969	0.0004231	4.23e-05
308.15	0.8969	0.000523	5.23e-05
313.15	0.8969	0.000657	6.57e-05
318.15	0.8969	0.0008088	8.09e-05
323.15	0.8969	0.0009612	9.62e-05
328.15	0.8969	0.001144	0.000114
283.15	0.8001	0.0001268	1.27e-05
288.15	0.8001	0.0001643	1.64e-05
293.15	0.8001	0.0002269	2.27e-05
298.15	0.8001	0.0002952	2.95e-05
303.15	0.8001	0.0003684	3.69e-05
308.15	0.8001	0.0004509	4.51e-05
313.15	0.8001	0.0005448	5.45e-05
318.15	0.8001	0.0006605	6.61e-05
323.15	0.8001	0.0007858	7.86e-05
328.15	0.8001	0.0009463	9.47e-05
283.15	0.6999	0.0001102	1.1e-05
288.15	0.6999	0.0001467	1.47e-05
293.15	0.6999	0.0001913	1.91e-05
298.15	0.6999	0.0002412	2.41e-05
303.15	0.6999	0.0002982	2.98e-05
308.15	0.6999	0.0003687	3.69e-05
313.15	0.6999	0.000449	4.49e-05
318.15	0.6999	0.0005493	5.49e-05
323.15	0.6999	0.0006552	6.55e-05
328.15	0.6999	0.0007796	7.8e-05
283.15	0.6003	9.448e-05	9.45e-06
288.15	0.6003	0.0001194	1.19e-05
293.15	0.6003	0.0001557	1.56e-05
298.15	0.6003	0.0002012	2.01e-05
303.15	0.6003	0.0002475	2.48e-05
308.15	0.6003	0.0003023	3.02e-05
313.15	0.6003	0.0003654	3.66e-05
318.15	0.6003	0.0004459	4.46e-05
323.15	0.6003	0.0005314	5.32e-05
328.15	0.6003	0.0006353	6.36e-05
283.15	0.5001	7.84e-05	7.84e-06
288.15	0.5001	9.79e-05	9.79e-06
293.15	0.5001	0.0001247	1.25e-05
298.15	0.5001	0.000157	1.57e-05
303.15	0.5001	0.0001936	1.94e-05
308.15	0.5001	0.0002368	2.37e-05
313.15	0.5001	0.0002868	2.87e-05
318.15	0.5001	0.0003495	3.5e-05
323.15	0.5001	0.0004187	4.19e-05
328.15	0.5001	0.0005031	5.03e-05
283.15	0.3994	6.087e-05	6.09e-06
288.15	0.3994	7.521e-05	7.52e-06
293.15	0.3994	9.508e-05	9.51e-06
298.15	0.3994	0.0001192	1.19e-05
303.15	0.3994	0.0001465	1.47e-05
308.15	0.3994	0.0001787	1.79e-05
313.15	0.3994	0.0002162	2.16e-05
318.15	0.3994	0.0002625	2.63e-05
323.15	0.3994	0.000314	3.14e-05
328.15	0.3994	0.0003763	3.76e-05
283.15	0.2999	4.221e-05	4.22e-06
288.15	0.2999	5.171e-05	5.17e-06
293.15	0.2999	6.502e-05	6.5e-06
298.15	0.2999	8.133e-05	8.14e-06
303.15	0.2999	9.978e-05	9.98e-06
308.15	0.2999	0.0001216	1.22e-05
313.15	0.2999	0.0001471	1.47e-05
318.15	0.2999	0.0001783	1.78e-05
323.15	0.2999	0.0002133	2.13e-05
328.15	0.2999	0.0002552	2.55e-05
283.15	0.1986	2.463e-05	2.46e-06
288.15	0.1986	3.001e-05	3e-06
293.15	0.1986	3.764e-05	3.77e-06
298.15	0.1986	4.71e-05	4.71e-06
303.15	0.1986	5.784e-05	5.79e-06
308.15	0.1986	7.058e-05	7.06e-06
313.15	0.1986	8.568e-05	8.57e-06
318.15	0.1986	0.0001038	1.04e-05
323.15	0.1986	0.0001246	1.25e-05
328.15	0.1986	0.0001492	1.49e-05
283.15	0.1006	1.125e-05	1.13e-06
288.15	0.1006	1.369e-05	1.37e-06
293.15	0.1006	1.72e-05	1.72e-06
298.15	0.1006	2.162e-05	2.16e-06
303.15	0.1006	2.667e-05	2.67e-06
308.15	0.1006	3.272e-05	3.27e-06
313.15	0.1006	3.997e-05	4e-06
318.15	0.1006	4.863e-05	4.86e-06
323.15	0.1006	5.87e-05	5.87e-06
328.15	0.1006	7.06e-05	7.06e-06
283.15	0	3.692e-06	3.69e-07
288.15	0	4.511e-06	4.51e-07
293.15	0	5.709e-06	5.71e-07
298.15	0	7.246e-06	7.25e-07
303.15	0	9.03e-06	9.03e-07
308.15	0	1.119e-05	1.12e-06
313.15	0	1.383e-05	1.38e-06
318.15	0	1.697e-05	1.7e-06
323.15	0	2.07e-05	2.07e-06
328.15	0	2.511e-05	2.51e-06

System: fenbendazole + 1,2-ethanediol + water; phases: Liquid, Crystal
Fixed: Pressure, kPa = 101.1
Property: Mole fraction of fenbendazole (Liquid); method: Chromatography
Temperature, K	Solvent: Mass fraction of 1,2-ethanediol	Mole fraction of fenbendazole	uncertainty
283.15	1	0.0001274	1.27e-05
288.15	1	0.0001715	1.72e-05
293.15	1	0.0002316	2.32e-05
298.15	1	0.0003048	3.05e-05
303.15	1	0.0003996	4e-05
308.15	1	0.0005128	5.13e-05
313.15	1	0.0006485	6.49e-05
318.15	1	0.0008121	8.12e-05
323.15	1	0.001012	0.000101
328.15	1	0.001258	0.000126
283.15	0.8996	0.0001112	1.11e-05
288.15	0.8996	0.0001482	1.48e-05
293.15	0.8996	0.0002052	2.05e-05
298.15	0.8996	0.0002696	2.7e-05
303.15	0.8996	0.0003526	3.53e-05
308.15	0.8996	0.0004445	4.45e-05
313.15	0.8996	0.000562	5.62e-05
318.15	0.8996	0.0007035	7.04e-05
323.15	0.8996	0.0008635	8.64e-05
328.15	0.8996	0.001092	0.000109
283.15	0.8008	0.000101	1.01e-05
288.15	0.8008	0.0001277	1.28e-05
293.15	0.8008	0.0001796	1.8e-05
298.15	0.8008	0.0002287	2.29e-05
303.15	0.8008	0.0002964	2.97e-05
308.15	0.8008	0.0003781	3.78e-05
313.15	0.8008	0.0004752	4.75e-05
318.15	0.8008	0.0005911	5.91e-05
323.15	0.8008	0.0007255	7.26e-05
328.15	0.8008	0.0009028	9.03e-05
283.15	0.6979	8.529e-05	8.53e-06
288.15	0.6979	0.0001073	1.07e-05
293.15	0.6979	0.0001592	1.59e-05
298.15	0.6979	0.0002067	2.07e-05
303.15	0.6979	0.0002555	2.56e-05
308.15	0.6979	0.0003243	3.24e-05
313.15	0.6979	0.0004088	4.09e-05
318.15	0.6979	0.0004933	4.93e-05
323.15	0.6979	0.0006029	6.03e-05
328.15	0.6979	0.0007621	7.62e-05
283.15	0.6006	7.507e-05	7.51e-06
288.15	0.6006	9.197e-05	9.2e-06
293.15	0.6006	0.0001336	1.34e-05
298.15	0.6006	0.0001659	1.66e-05
303.15	0.6006	0.0002095	2.1e-05
308.15	0.6006	0.0002681	2.68e-05
313.15	0.6006	0.0003321	3.32e-05
318.15	0.6006	0.0004013	4.01e-05
323.15	0.6006	0.0005058	5.06e-05
328.15	0.6006	0.0006395	6.4e-05
283.15	0.4989	6.996e-05	7e-06
288.15	0.4989	8.686e-05	8.69e-06
293.15	0.4989	0.0001132	1.13e-05
298.15	0.4989	0.0001454	1.45e-05
303.15	0.4989	0.0001737	1.74e-05
308.15	0.4989	0.000217	2.17e-05
313.15	0.4989	0.0002708	2.71e-05
318.15	0.4989	0.0003246	3.25e-05
323.15	0.4989	0.0004036	4.04e-05
328.15	0.4989	0.0005015	5.02e-05
283.15	0.4	6.038e-05	6.04e-06
288.15	0.4	7.487e-05	7.49e-06
293.15	0.4	9.503e-05	9.51e-06
298.15	0.4	0.0001197	1.2e-05
303.15	0.4	0.0001489	1.49e-05
308.15	0.4	0.0001833	1.83e-05
313.15	0.4	0.0002241	2.24e-05
318.15	0.4	0.0002718	2.72e-05
323.15	0.4	0.0003281	3.28e-05
328.15	0.4	0.0003946	3.95e-05
283.15	0.3003	5.046e-05	5.05e-06
288.15	0.3003	6.179e-05	6.18e-06
293.15	0.3003	7.769e-05	7.77e-06
298.15	0.3003	9.721e-05	9.73e-06
303.15	0.3003	0.000125	1.25e-05
308.15	0.3003	0.0001521	1.52e-05
313.15	0.3003	0.0001887	1.89e-05
318.15	0.3003	0.0002311	2.31e-05
323.15	0.3003	0.0002747	2.75e-05
328.15	0.3003	0.0003254	3.25e-05
283.15	0.2012	3.429e-05	3.43e-06
288.15	0.2012	4.161e-05	4.16e-06
293.15	0.2012	5.202e-05	5.2e-06
298.15	0.2012	6.489e-05	6.49e-06
303.15	0.2012	7.978e-05	7.98e-06
308.15	0.2012	9.73e-05	9.73e-06
313.15	0.2012	0.0001182	1.18e-05
318.15	0.2012	0.0001425	1.43e-05
323.15	0.2012	0.0001709	1.71e-05
328.15	0.2012	0.0002042	2.04e-05
283.15	0.0998	1.54e-05	1.54e-06
288.15	0.0998	1.865e-05	1.87e-06
293.15	0.0998	2.333e-05	2.33e-06
298.15	0.0998	2.92e-05	2.92e-06
303.15	0.0998	3.596e-05	3.6e-06
308.15	0.0998	4.4e-05	4.4e-06
313.15	0.0998	5.365e-05	5.37e-06
318.15	0.0998	6.497e-05	6.5e-06
323.15	0.0998	7.825e-05	7.83e-06
328.15	0.0998	9.38e-05	9.39e-06
283.15	0	3.692e-06	3.69e-07
288.15	0	4.511e-06	4.51e-07
293.15	0	5.709e-06	5.71e-07
298.15	0	7.246e-06	7.25e-07
303.15	0	9.03e-06	9.03e-07
308.15	0	1.119e-05	1.12e-06
313.15	0	1.383e-05	1.38e-06
318.15	0	1.697e-05	1.7e-06
323.15	0	2.07e-05	2.07e-06
328.15	0	2.511e-05	2.51e-06

System: fenbendazole + dimethylformamide + water; phases: Liquid, Crystal
Fixed: Pressure, kPa = 101.1
Property: Mole fraction of fenbendazole (Liquid); method: Chromatography
Temperature, K	Solvent: Mass fraction of dimethylformamide	Mole fraction of fenbendazole	uncertainty
283.15	1	0.03971	0.00397
288.15	1	0.05593	0.0056
293.15	1	0.07308	0.00731
298.15	1	0.09965	0.00997
303.15	1	0.1344	0.0134
308.15	1	0.1755	0.0176
313.15	1	0.2273	0.0227
318.15	1	0.2915	0.0292
323.15	1	0.3745	0.0375
328.15	1	0.4698	0.047
283.15	0.9006	0.02983	0.00299
288.15	0.9006	0.04096	0.0041
293.15	0.9006	0.05534	0.00554
298.15	0.9006	0.07584	0.00759
303.15	0.9006	0.1001	0.01
308.15	0.9006	0.1269	0.0127
313.15	0.9006	0.159	0.0159
318.15	0.9006	0.1998	0.02
323.15	0.9006	0.253	0.0253
328.15	0.9006	0.3057	0.0306
283.15	0.8021	0.01784	0.00178
288.15	0.8021	0.02397	0.0024
293.15	0.8021	0.03058	0.00306
298.15	0.8021	0.0404	0.00404
303.15	0.8021	0.05276	0.00528
308.15	0.8021	0.06709	0.00671
313.15	0.8021	0.08476	0.00848
318.15	0.8021	0.1061	0.0106
323.15	0.8021	0.133	0.0133
328.15	0.8021	0.1634	0.0163
283.15	0.7022	0.01065	0.00107
288.15	0.7022	0.01401	0.0014
293.15	0.7022	0.01769	0.00177
298.15	0.7022	0.02306	0.00231
303.15	0.7022	0.03107	0.00311
308.15	0.7022	0.0394	0.00394
313.15	0.7022	0.04872	0.00487
318.15	0.7022	0.06023	0.00603
323.15	0.7022	0.07339	0.00734
328.15	0.7022	0.08725	0.00873
283.15	0.6003	0.007131	0.000713
288.15	0.6003	0.009166	0.000917
293.15	0.6003	0.01144	0.00114
298.15	0.6003	0.01467	0.00147
303.15	0.6003	0.01858	0.00186
308.15	0.6003	0.02305	0.00231
313.15	0.6003	0.02845	0.00285
318.15	0.6003	0.03485	0.00349
323.15	0.6003	0.04266	0.00427
328.15	0.6003	0.05142	0.00514
283.15	0.5001	0.005375	0.000538
288.15	0.5001	0.006992	0.0007
293.15	0.5001	0.008796	0.00088
298.15	0.5001	0.01108	0.00111
303.15	0.5001	0.01363	0.00136
308.15	0.5001	0.01652	0.00165
313.15	0.5001	0.01996	0.002
318.15	0.5001	0.02373	0.00237
323.15	0.5001	0.02844	0.00285
328.15	0.5001	0.03356	0.00336
283.15	0.3976	0.004098	0.00041
288.15	0.3976	0.005005	0.000501
293.15	0.3976	0.00607	0.000607
298.15	0.3976	0.007516	0.000752
303.15	0.3976	0.009181	0.000918
308.15	0.3976	0.01105	0.00111
313.15	0.3976	0.01326	0.00133
318.15	0.3976	0.0158	0.00158
323.15	0.3976	0.0188	0.00188
328.15	0.3976	0.02212	0.00221
283.15	0.2996	0.00254	0.000254
288.15	0.2996	0.003078	0.000308
293.15	0.2996	0.003772	0.000377
298.15	0.2996	0.00453	0.000453
303.15	0.2996	0.005434	0.000544
308.15	0.2996	0.00649	0.000649
313.15	0.2996	0.007675	0.000768
318.15	0.2996	0.009025	0.000903
323.15	0.2996	0.01055	0.00106
328.15	0.2996	0.0122	0.00122
283.15	0.1992	0.0009199	9.2e-05
288.15	0.1992	0.001085	0.000109
293.15	0.1992	0.0013	0.00013
298.15	0.1992	0.001577	0.000158
303.15	0.1992	0.001886	0.000189
308.15	0.1992	0.002234	0.000223
313.15	0.1992	0.002641	0.000264
318.15	0.1992	0.003104	0.000311
323.15	0.1992	0.003637	0.000364
328.15	0.1992	0.00423	0.000423
283.15	0.1026	0.0001253	1.26e-05
288.15	0.1026	0.0001484	1.48e-05
293.15	0.1026	0.0001804	1.8e-05
298.15	0.1026	0.0002212	2.21e-05
303.15	0.1026	0.0002667	2.67e-05
308.15	0.1026	0.0003194	3.2e-05
313.15	0.1026	0.0003818	3.82e-05
318.15	0.1026	0.0004535	4.54e-05
323.15	0.1026	0.0005366	5.37e-05
328.15	0.1026	0.0006308	6.37e-05
283.15	0	3.692e-06	3.69e-07
288.15	0	4.511e-06	4.51e-07
293.15	0	5.709e-06	5.71e-07
298.15	0	7.246e-06	7.25e-07
303.15	0	9.03e-06	9.03e-07
308.15	0	1.119e-05	1.12e-06
313.15	0	1.383e-05	1.38e-06
318.15	0	1.697e-05	1.7e-06
323.15	0	2.07e-05	2.07e-06
328.15	0	2.511e-05	2.51e-06

System: fenbendazole + methanol; phases: Liquid, Crystal
Fixed: Pressure, kPa = 101.1
Property: Mole fraction of fenbendazole (Liquid); method: Chromatography
Temperature, K	Mole fraction of fenbendazole	uncertainty
283.15	0.0002479	2.48e-05
288.15	0.0002997	3e-05
293.15	0.0003823	3.82e-05
298.15	0.0004893	4.89e-05
303.15	0.0006014	6.02e-05
308.15	0.0007476	7.48e-05
313.15	0.0008985	8.99e-05
318.15	0.001066	0.000107
323.15	0.001276	0.000128
328.15	0.001518	0.000152

System: fenbendazole + water; phases: Liquid, Crystal
Fixed: Pressure, kPa = 101.1
Property: Mole fraction of fenbendazole (Liquid); method: Chromatography
Temperature, K	Mole fraction of fenbendazole	uncertainty
283.15	3.692e-06	3.69e-07
288.15	4.511e-06	4.51e-07
293.15	5.709e-06	5.71e-07
298.15	7.246e-06	7.25e-07
303.15	9.03e-06	9.03e-07
308.15	1.119e-05	1.12e-06
313.15	1.383e-05	1.38e-06
318.15	1.697e-05	1.7e-06
323.15	2.07e-05	2.07e-06
328.15	2.511e-05	2.51e-06

System: fenbendazole + ethanol; phases: Liquid, Crystal
Fixed: Pressure, kPa = 101.1
Property: Mole fraction of fenbendazole (Liquid); method: Chromatography
Temperature, K	Mole fraction of fenbendazole	uncertainty
283.15	0.0001646	1.65e-05
288.15	0.0002187	2.19e-05
293.15	0.0002913	2.91e-05
298.15	0.0003777	3.78e-05
303.15	0.000478	4.78e-05
308.15	0.0005979	5.98e-05
313.15	0.000734	7.34e-05
318.15	0.0009183	9.19e-05
323.15	0.001115	0.000112
328.15	0.001369	0.000137

System: fenbendazole + 1,2-ethanediol; phases: Liquid, Crystal
Fixed: Pressure, kPa = 101.1
Property: Mole fraction of fenbendazole (Liquid); method: Chromatography
Temperature, K	Mole fraction of fenbendazole	uncertainty
283.15	0.0001274	1.27e-05
288.15	0.0001715	1.72e-05
293.15	0.0002316	2.32e-05
298.15	0.0003048	3.05e-05
303.15	0.0003996	4e-05
308.15	0.0005128	5.13e-05
313.15	0.0006485	6.49e-05
318.15	0.0008121	8.12e-05
323.15	0.001012	0.000101
328.15	0.001258	0.000126

System: fenbendazole + dimethylformamide; phases: Liquid, Crystal
Fixed: Pressure, kPa = 101.1
Property: Mole fraction of fenbendazole (Liquid); method: Chromatography
Temperature, K	Mole fraction of fenbendazole	uncertainty
283.15	0.03971	0.00397
288.15	0.05593	0.0056
293.15	0.07308	0.00731
298.15	0.09965	0.00997
303.15	0.1344	0.0134
308.15	0.1755	0.0176
313.15	0.2273	0.0227
318.15	0.2915	0.0292
323.15	0.3745	0.0375
328.15	0.4698	0.047
