Measured thermophysical data. Measurement of Speed of Sound in Methyl Hexanoate from 297.83 to 588.07 K and up to 10 MPa
Source: J. Chem. Eng. Data, 2019, 10.1021/acs.jced.9b00704
Compound 1: methyl hexanoate, C7H14O2, InChI=1S/C7H14O2/c1-3-4-5-6-7(8)9-2/h3-6H2,1-2H3, purity 99.839%

System: methyl hexanoate; phases: Liquid
Property: Speed of sound, m/s (Liquid); method: Light diffraction method
Temperature, K	Pressure, kPa	Speed of sound, m/s	uncertainty
297.83	110	1225.1	19.6
306.48	110	1182.9	19
317.92	100	1137	18.2
327.21	110	1090.2	17.5
336.91	100	1055.2	16.9
346.9	100	1021.1	16.4
357.28	100	970.4	15.6
367.48	100	938.2	15.1
377.88	110	903.5	14.5
387.73	100	866.5	13.9
398.6	90	827.8	13.3
407.93	100	799	12.8
417.52	110	764.3	12.3
298.76	1010	1231.7	19.7
308.59	1010	1186.9	19
318.3	1000	1142.6	18.3
327.58	1010	1097.9	17.6
337.95	1000	1065.3	17.1
346.56	1010	1029.7	16.5
357.85	1010	989.8	15.9
367.24	1010	947.2	15.2
377.91	1010	910.8	14.6
387.01	1010	874.2	14
397.64	1010	842.1	13.5
406.65	1010	810.8	13
417.08	1010	775.9	12.5
427.06	1000	746	12
436.99	1010	714.9	12.9
447.88	1000	672.6	12.1
457.84	990	642.8	11.6
466.46	1010	613.5	11.1
478.01	1010	570.1	10.3
417.21	5010	808.2	13
427.25	5000	786.5	12.6
437.07	5000	751.6	12.1
447	4990	723	13
456.84	5000	695.3	12.6
466.28	5000	663.1	12
478.34	5010	623.4	11.3
487.67	5000	595	10.8
497.36	5000	568.5	10.3
507.11	5010	535.1	10.7
517.6	5010	504.9	10.1
528.29	5000	472.6	9.5
538.26	5010	439.9	8.9
547.96	5000	406.1	9
558.34	5000	378.3	8.4
567.58	5000	346.5	8.4
575.39	5000	317.9	8.4
586.99	5010	275	7.8
298.35	7010	1261.9	20.2
308.9	7000	1221.1	19.6
317.6	7010	1175.8	18.9
327.38	7010	1130.2	18.1
337.21	7010	1102.7	17.7
347.43	7000	1067.3	17.1
357.33	7010	1033.1	16.6
367.18	7000	989.6	15.9
377.97	7000	961	15.4
387.07	7000	922	14.8
397.54	7020	891.4	14.3
406.79	7020	857.7	13.8
416.99	7010	835.1	13.4
427.33	7000	805.5	12.9
487.58	1000	535.4	10.8
497.17	1010	499.6	10
506.88	1000	464.6	9.3
516.99	1010	426.2	9.4
298.85	3000	1240.3	19.9
309.19	3010	1197.6	19.2
319.17	3010	1152.2	18.5
327.9	3000	1107.9	17.8
337.97	3000	1078	17.3
347.71	3010	1040.3	16.7
356.24	3010	1011.9	16.2
366.38	3010	970.6	15.6
377.25	3000	927.9	14.9
386.63	3000	894.6	14.4
396.7	3000	862	13.8
406.78	3010	828.8	13.3
417.12	3000	796.9	12.8
427.25	3000	770.6	12.4
439.3	3000	727.5	13.1
446.68	3010	706.2	12.7
456.61	3000	673.8	12.2
466.22	3010	642.9	11.6
478.43	3010	596.3	10.8
487.67	3010	565.4	10.2
497.43	3010	534.1	10.7
506.49	3000	503.9	10.1
517.56	3000	468.7	9.4
529.52	3000	426	9.4
538.04	3000	396.8	8.8
547.56	3000	362.7	8.8
557.68	3000	321.9	7.8
566.56	3010	285.3	7.5
576.45	3010	241	6.4
437.97	6990	771.5	12.4
447.38	7000	744.5	12
457.1	7010	715.1	12.9
466.3	7000	689.7	12.5
478.28	7000	646.3	11.7
487.69	7000	617	11.1
497.38	7000	591.6	10.7
506.97	7010	563.3	10.2
517.52	7010	531.6	10.7
528.46	7000	504	10.1
538.26	7000	472.1	9.5
548.26	7000	446	9
557.89	7010	423	9.4
567.72	7010	390.1	8.6
576.35	7000	365.2	8.8
587.76	7000	334.6	8.1
298.17	10000	1274.4	20.4
308.58	10010	1227.8	19.7
317.52	10010	1181	18.9
327.4	10010	1143.2	18.3
337.71	10010	1111.9	17.8
346.92	10020	1081.3	17.3
356.68	10010	1048.7	16.8
366.89	10000	1005.5	16.1
377.7	10000	974.3	15.6
386.85	10000	945.8	15.2
397.25	10010	909.9	14.6
406.89	10000	885.7	14.2
417.21	10020	864.4	13.9
427.38	10010	833.5	13.4
438.1	9980	802.1	12.9
447.21	10010	776	12.5
456.81	9990	747	12
586.48	3000	197.5	5.8
298.56	5000	1252.4	20.1
309.13	5010	1210.5	19.4
318.41	5010	1160.9	18.6
327.64	5010	1120.6	18
337.21	5000	1091.3	17.5
347.75	5010	1054.8	16.9
357.35	5000	1022.1	16.4
366.68	5000	980.4	15.7
377.72	5000	939.5	15.1
387.29	5000	908.4	14.6
397.83	5000	875.5	14
406.99	5010	841.7	13.5
466.3	10010	720.4	13
478.28	10000	677.8	12.2
487.71	10000	653.5	11.8
497.44	10000	629.4	11.4
507.02	10020	599.2	10.8
517.63	10010	571	10.3
528.65	10010	547.3	9.9
538.35	10000	516.1	10.4
548.18	9980	498.8	10
558.07	10000	472.6	9.5
565.69	10010	446.4	9
577.04	10010	420.8	9.3
588.07	10030	393.2	8.7
