Measured thermophysical data. Solubility, Thermodynamic Properties, and Derived Excess Properties of Benzoic Acid in (Acetic Acid + Water) and (Acetic Acid + Toluene) Binary Mixtures
Source: J. Chem. Eng. Data, 2016, 10.1021/acs.jced.5b00197
Compound 1: toluene, C7H8, InChI=1S/C7H8/c1-7-5-3-2-4-6-7/h2-6H,1H3, purity 99%
Compound 2: acetic acid, C2H4O2, InChI=1S/C2H4O2/c1-2(3)4/h1H3,(H,3,4), purity 99.5%
Compound 3: benzoic acid, C7H6O2, InChI=1S/C7H6O2/c8-7(9)6-4-2-1-3-5-6/h1-5H,(H,8,9), purity 99.5%
Compound 4: water, H2O, InChI=1S/H2O/h1H2

System: toluene; phases: Liquid
Fixed: Pressure, kPa = 94.64
Property: Refractive index (Na D-line) (Liquid); method: Standard Abbe refractometry
Temperature, K	Refractive index (Na D-line)	uncertainty
293.15	1.49687	0.0004
298.15	1.49406	0.0004
303.15	1.49124	0.0004

System: toluene; phases: Liquid
Fixed: Pressure, kPa = 96.64
Property: Mass density, kg/m3 (Liquid); method: mechanical oscillator
Temperature, K	Mass density, kg/m3	uncertainty
293.15	866.75	4
298.15	861.74	4
303.15	856.81	4

System: toluene; phases: Liquid
Fixed: Pressure, kPa = 94.64
Property: Refractive index (other wavelength) (Liquid); method: Standard Abbe refractometry
Temperature, K	Wavelength, nm	Refractive index (other wavelength)	uncertainty
293.15	404.7	1.52597	0.00048
293.15	435.8	1.51768	0.00045
293.15	486.1	1.50826	0.00043
293.15	546.1	1.50069	0.00042
293.15	587.6	1.497	0.00041
293.15	632.8	1.49379	0.00041
293.15	644	1.49306	0.00041
293.15	706.5	1.48975	0.0004
298.15	404.7	1.52295	0.00048
298.15	435.8	1.51473	0.00045
298.15	486.1	1.50537	0.00043
298.15	546.1	1.49785	0.00042
298.15	587.6	1.49419	0.00041
298.15	632.8	1.49101	0.00041
298.15	644	1.49028	0.00041
298.15	706.5	1.48697	0.0004
303.15	404.7	1.51996	0.00048
303.15	435.8	1.51177	0.00045
303.15	486.1	1.50248	0.00043
303.15	546.1	1.495	0.00042
303.15	587.6	1.49137	0.00041
303.15	632.8	1.4882	0.00041
303.15	644	1.48748	0.00041
303.15	706.5	1.48419	0.0004

System: acetic acid; phases: Liquid
Fixed: Pressure, kPa = 94.64
Property: Refractive index (Na D-line) (Liquid); method: Standard Abbe refractometry
Temperature, K	Refractive index (Na D-line)	uncertainty
293.15	1.37224	0.00036
298.15	1.37012	0.00036
303.15	1.36809	0.00036

System: acetic acid; phases: Liquid
Fixed: Pressure, kPa = 96.64
Property: Mass density, kg/m3 (Liquid); method: mechanical oscillator
Temperature, K	Mass density, kg/m3	uncertainty
293.15	1049.63	4
298.15	1043.57	4
303.15	1037.64	4

System: acetic acid; phases: Liquid
Fixed: Pressure, kPa = 94.64
Property: Refractive index (other wavelength) (Liquid); method: Standard Abbe refractometry
Temperature, K	Wavelength, nm	Refractive index (other wavelength)	uncertainty
293.15	404.7	1.38345	0.00037
293.15	435.8	1.38034	0.00037
293.15	486.1	1.37681	0.00037
293.15	546.1	1.37386	0.00036
293.15	587.6	1.3723	0.00036
293.15	632.8	1.37087	0.00036
293.15	644	1.37055	0.00036
293.15	706.5	1.36896	0.00036
298.15	404.7	1.38126	0.00037
298.15	435.8	1.37816	0.00037
298.15	486.1	1.37466	0.00037
298.15	546.1	1.37174	0.00036
298.15	587.6	1.37018	0.00036
298.15	632.8	1.36876	0.00036
298.15	644	1.36844	0.00036
298.15	706.5	1.36686	0.00036
303.15	404.7	1.37917	0.00037
303.15	435.8	1.37611	0.00037
303.15	486.1	1.37261	0.00037
303.15	546.1	1.36968	0.00036
303.15	587.6	1.36815	0.00036
303.15	632.8	1.36675	0.00036
303.15	644	1.36643	0.00036
303.15	706.5	1.36485	0.00036

System: water; phases: Liquid
Fixed: Pressure, kPa = 94.64
Property: Refractive index (Na D-line) (Liquid); method: Standard Abbe refractometry
Temperature, K	Refractive index (Na D-line)	uncertainty
293.15	1.33308	0.00106
298.15	1.33257	0.00106
303.15	1.33198	0.00106

System: water; phases: Liquid
Fixed: Pressure, kPa = 96.64
Property: Mass density, kg/m3 (Liquid); method: mechanical oscillator
Temperature, K	Mass density, kg/m3	uncertainty
293.15	998.16	6.31
298.15	996.61	6.3
303.15	994.87	6.28

System: water; phases: Liquid
Fixed: Pressure, kPa = 94.64
Property: Refractive index (other wavelength) (Liquid); method: Standard Abbe refractometry
Temperature, K	Wavelength, nm	Refractive index (other wavelength)	uncertainty
293.15	404.7	1.34276	0.00106
293.15	435.8	1.34021	0.00106
293.15	486.1	1.33716	0.00106
293.15	546.1	1.33454	0.00106
293.15	587.6	1.33313	0.00106
293.15	632.8	1.33183	0.00106
293.15	644	1.33153	0.00106
293.15	706.5	1.33003	0.00106
298.15	404.7	1.34222	0.00106
298.15	435.8	1.33968	0.00106
298.15	486.1	1.33665	0.00106
298.15	546.1	1.33402	0.00106
298.15	587.6	1.33262	0.00106
298.15	632.8	1.33132	0.00106
298.15	644	1.33102	0.00106
298.15	706.5	1.32954	0.00106
303.15	404.7	1.34161	0.00106
303.15	435.8	1.33909	0.00106
303.15	486.1	1.33604	0.00106
303.15	546.1	1.33344	0.00106
303.15	587.6	1.33203	0.00106
303.15	632.8	1.33073	0.00106
303.15	644	1.33044	0.00106
303.15	706.5	1.32897	0.00106

System: acetic acid + benzoic acid + water; phases: Liquid, Crystal
Fixed: Pressure, kPa = 94.64
Fixed: Temperature, K = 299.15
Property: Mole fraction of benzoic acid (Liquid); method: gravimetric
Solvent: Mole fraction of acetic acid	Mole fraction of benzoic acid	uncertainty
0.1	0.0004	0.0002
0.2	0.0006	0.0002
0.3	0.0017	0.0017
0.4	0.0044	0.0004
0.5	0.0153	0.0006
0.6	0.0224	0.0024
0.7	0.042	0.0002
0.8	0.0743	0.001

System: acetic acid + benzoic acid + water; phases: Liquid
Fixed: Pressure, kPa = 94.64
Property: Mass density, kg/m3 (Liquid); method: mechanical oscillator
Temperature, K	Solvent: Mole fraction of acetic acid	Mole fraction of benzoic acid	Mass density, kg/m3	uncertainty
299.15	0.0322	0.0004	1006.22	4.08
299.15	0.0697	0.0006	1028	4.33
299.15	0.114	0.0018	1038.06	4.08
299.15	0.167	0.0045	1050.49	4.09
299.15	0.231	0.0155	1060.26	4.12
299.15	0.31	0.0299	1067.17	4.13
299.15	0.412	0.0439	1069.15	4.09
299.15	0.545	0.0802	1075.15	4.1
303.15	0.0322	0.0004	1002.95	4.07
303.15	0.0697	0.0006	1022.75	4.27
303.15	0.114	0.0018	1033.99	4.09
303.15	0.167	0.0045	1046.24	4.09
303.15	0.231	0.0155	1055.22	4.12
303.15	0.31	0.0299	1061.86	4.13
303.15	0.412	0.0439	1063.24	4.09
303.15	0.545	0.0802	1068.9	4.1

System: acetic acid + benzoic acid + water; phases: Liquid
Fixed: Pressure, kPa = 94.64
Property: Refractive index (other wavelength) (Liquid); method: Standard Abbe refractometry
Temperature, K	Solvent: Mole fraction of acetic acid	Mole fraction of benzoic acid	Wavelength, nm	Refractive index (other wavelength)	uncertainty
299.15	0.0322	0.0004	404.7	1.35158	0.00054
299.15	0.0697	0.0006	404.7	1.35928	0.00058
299.15	0.114	0.0018	404.7	1.36803	0.00057
299.15	0.167	0.0045	404.7	1.37711	0.00055
299.15	0.231	0.0155	404.7	1.38671	0.00056
299.15	0.31	0.0299	404.7	1.39518	0.00058
299.15	0.412	0.0439	404.7	1.40378	0.00059
299.15	0.545	0.0802	404.7	1.40527	0.00064
299.15	0.0322	0.0004	435.8	1.34889	0.00054
299.15	0.0697	0.0006	435.8	1.35647	0.00059
299.15	0.114	0.0018	435.8	1.36507	0.00058
299.15	0.167	0.0045	435.8	1.37392	0.00055
299.15	0.231	0.0155	435.8	1.38329	0.00055
299.15	0.31	0.0299	435.8	1.39154	0.00061
299.15	0.412	0.0439	435.8	1.39987	0.00059
299.15	0.545	0.0802	435.8	1.40125	0.00063
299.15	0.0322	0.0004	486.1	1.34575	0.00054
299.15	0.0697	0.0006	486.1	1.35325	0.00059
299.15	0.114	0.0018	486.1	1.36168	0.00058
299.15	0.167	0.0045	486.1	1.37034	0.00055
299.15	0.231	0.0155	486.1	1.37944	0.00055
299.15	0.31	0.0299	486.1	1.38736	0.0006
299.15	0.412	0.0439	486.1	1.3955	0.00059
299.15	0.545	0.0802	486.1	1.39675	0.00062
299.15	0.0322	0.0004	546.1	1.34304	0.00054
299.15	0.0697	0.0006	546.1	1.35043	0.00058
299.15	0.114	0.0018	546.1	1.35878	0.00057
299.15	0.167	0.0045	546.1	1.3673	0.00054
299.15	0.231	0.0155	546.1	1.3762	0.00055
299.15	0.31	0.0299	546.1	1.38386	0.00057
299.15	0.412	0.0439	546.1	1.39186	0.00058
299.15	0.545	0.0802	546.1	1.39302	0.00061
299.15	0.0322	0.0004	587.6	1.34157	0.00054
299.15	0.0697	0.0006	587.6	1.34893	0.00057
299.15	0.114	0.0018	587.6	1.35726	0.00057
299.15	0.167	0.0045	587.6	1.3657	0.00054
299.15	0.231	0.0155	587.6	1.37451	0.00055
299.15	0.31	0.0299	587.6	1.38205	0.00055
299.15	0.412	0.0439	587.6	1.39	0.00057
299.15	0.545	0.0802	587.6	1.39114	0.0011
299.15	0.0322	0.0004	589.3	1.34152	0.00054
299.15	0.0697	0.0006	589.3	1.34887	0.00057
299.15	0.114	0.0018	589.3	1.35721	0.00057
299.15	0.167	0.0045	589.3	1.36564	0.00054
299.15	0.231	0.0155	589.3	1.37444	0.00055
299.15	0.31	0.0299	589.3	1.38198	0.00055
299.15	0.412	0.0439	589.3	1.38993	0.00058
299.15	0.545	0.0802	589.3	1.39033	0.00112
299.15	0.0322	0.0004	632.8	1.34023	0.00054
299.15	0.0697	0.0006	632.8	1.34754	0.00057
299.15	0.114	0.0018	632.8	1.35583	0.00057
299.15	0.167	0.0045	632.8	1.36429	0.00054
299.15	0.231	0.0155	632.8	1.37294	0.00055
299.15	0.31	0.0299	632.8	1.38039	0.00055
299.15	0.412	0.0439	632.8	1.38831	0.00057
299.15	0.545	0.0802	632.8	1.38943	0.0006
299.15	0.0322	0.0004	644	1.33992	0.00054
299.15	0.0697	0.0006	644	1.34722	0.00057
299.15	0.114	0.0018	644	1.35549	0.00057
299.15	0.167	0.0045	644	1.36397	0.00054
299.15	0.231	0.0155	644	1.37258	0.00055
299.15	0.31	0.0299	644	1.38	0.00055
299.15	0.412	0.0439	644	1.38792	0.00057
299.15	0.545	0.0802	644	1.38902	0.00061
299.15	0.0322	0.0004	706.5	1.33337	0.00055
299.15	0.0697	0.0006	706.5	1.3456	0.00085
299.15	0.114	0.0018	706.5	1.35383	0.00057
299.15	0.167	0.0045	706.5	1.36239	0.00054
299.15	0.231	0.0155	706.5	1.37082	0.00059
299.15	0.31	0.0299	706.5	1.37813	0.00055
299.15	0.412	0.0439	706.5	1.386	0.00057
299.15	0.545	0.0802	706.5	1.38706	0.0006
303.15	0.0322	0.0004	404.7	1.35071	0.00054
303.15	0.0697	0.0006	404.7	1.35843	0.00057
303.15	0.114	0.0018	404.7	1.36677	0.00056
303.15	0.167	0.0045	404.7	1.37738	0.00061
303.15	0.231	0.0155	404.7	1.38513	0.00059
303.15	0.31	0.0299	404.7	1.39537	0.00061
303.15	0.412	0.0439	404.7	1.40527	0.00056
303.15	0.545	0.0802	404.7	1.41234	0.00058
303.15	0.0322	0.0004	435.8	1.34802	0.00054
303.15	0.0697	0.0006	435.8	1.35561	0.00058
303.15	0.114	0.0018	435.8	1.36383	0.00057
303.15	0.167	0.0045	435.8	1.37417	0.00062
303.15	0.231	0.0155	435.8	1.38172	0.00058
303.15	0.31	0.0299	435.8	1.39165	0.00065
303.15	0.412	0.0439	435.8	1.40125	0.00056
303.15	0.545	0.0802	435.8	1.40807	0.00057
303.15	0.0322	0.0004	486.1	1.34493	0.00054
303.15	0.0697	0.0006	486.1	1.3524	0.00058
303.15	0.114	0.0018	486.1	1.36045	0.00057
303.15	0.167	0.0045	486.1	1.3705	0.00061
303.15	0.231	0.0155	486.1	1.37787	0.00057
303.15	0.31	0.0299	486.1	1.38745	0.00064
303.15	0.412	0.0439	486.1	1.39675	0.00056
303.15	0.545	0.0802	486.1	1.40334	0.00056
303.15	0.0322	0.0004	546.1	1.3422	0.00054
303.15	0.0697	0.0006	546.1	1.34958	0.00057
303.15	0.114	0.0018	546.1	1.35756	0.00057
303.15	0.167	0.0045	546.1	1.36743	0.0006
303.15	0.231	0.0155	546.1	1.37466	0.00057
303.15	0.31	0.0299	546.1	1.38399	0.00061
303.15	0.412	0.0439	546.1	1.39302	0.00055
303.15	0.545	0.0802	546.1	1.39941	0.00056
303.15	0.0322	0.0004	587.6	1.34076	0.00054
303.15	0.0697	0.0006	587.6	1.3481	0.00057
303.15	0.114	0.0018	587.6	1.35604	0.00056
303.15	0.167	0.0045	587.6	1.36579	0.0007
303.15	0.231	0.0155	587.6	1.37295	0.00058
303.15	0.31	0.0299	587.6	1.38218	0.00059
303.15	0.412	0.0439	587.6	1.39114	0.00055
303.15	0.545	0.0802	587.6	1.39743	0.00056
303.15	0.0322	0.0004	589.3	1.34071	0.00054
303.15	0.0697	0.0006	589.3	1.34804	0.00057
303.15	0.114	0.0018	589.3	1.35598	0.00056
303.15	0.167	0.0045	589.3	1.36513	0.00068
303.15	0.231	0.0155	589.3	1.37289	0.00056
303.15	0.31	0.0299	589.3	1.38212	0.00059
303.15	0.412	0.0439	589.3	1.39107	0.00055
303.15	0.545	0.0802	589.3	1.39736	0.00056
303.15	0.0322	0.0004	632.8	1.33943	0.00054
303.15	0.0697	0.0006	632.8	1.34673	0.00057
303.15	0.114	0.0018	632.8	1.35462	0.00056
303.15	0.167	0.0045	632.8	1.36428	0.00058
303.15	0.231	0.0155	632.8	1.37139	0.00057
303.15	0.31	0.0299	632.8	1.38052	0.00059
303.15	0.412	0.0439	632.8	1.38943	0.00055
303.15	0.545	0.0802	632.8	1.39564	0.00056
303.15	0.0322	0.0004	644	1.33911	0.00054
303.15	0.0697	0.0006	644	1.3464	0.00057
303.15	0.114	0.0018	644	1.35428	0.00056
303.15	0.167	0.0045	644	1.36393	0.00059
303.15	0.231	0.0155	644	1.37103	0.00057
303.15	0.31	0.0299	644	1.38014	0.00059
303.15	0.412	0.0439	644	1.38902	0.00055
303.15	0.545	0.0802	644	1.39522	0.00056
303.15	0.0322	0.0004	706.5	1.33757	0.00054
303.15	0.0697	0.0006	706.5	1.3448	0.00057
303.15	0.114	0.0018	706.5	1.35263	0.00056
303.15	0.167	0.0045	706.5	1.36223	0.00059
303.15	0.231	0.0155	706.5	1.36928	0.00057
303.15	0.31	0.0299	706.5	1.3783	0.00059
303.15	0.412	0.0439	706.5	1.38706	0.00055
303.15	0.545	0.0802	706.5	1.39321	0.00055

System: acetic acid + benzoic acid + toluene; phases: Liquid, Crystal
Fixed: Pressure, kPa = 94.64
Fixed: Temperature, K = 299.15
Property: Mole fraction of benzoic acid (Liquid); method: gravimetric
Solvent: Mole fraction of acetic acid	Mole fraction of benzoic acid	uncertainty
0.1	0.1397	0.0056
0.2	0.1676	0.0067
0.3	0.1919	0.0077
0.4	0.2156	0.0086
0.5	0.2218	0.0089
0.6	0.2381	0.0095
0.7	0.2427	0.0097
0.8	0.2561	0.0103

System: acetic acid + benzoic acid + toluene; phases: Liquid
Fixed: Pressure, kPa = 94.64
Property: Mass density, kg/m3 (Liquid); method: mechanical oscillator
Temperature, K	Solvent: Mole fraction of acetic acid	Mole fraction of benzoic acid	Mass density, kg/m3	uncertainty
299.15	0.146	0.1624	921.95	4
299.15	0.277	0.2014	945.9	4
299.15	0.397	0.2376	953.47	4.01
299.15	0.506	0.2748	986.71	4.01
299.15	0.605	0.285	998.53	4.01
299.15	0.697	0.3125	1019.75	4.02
299.15	0.782	0.3208	1024.89	4.02
299.15	0.859	0.3443	1045.46	4.02
303.15	0.146	0.1624	908.74	4
303.15	0.277	0.2014	939.47	4
303.15	0.397	0.2376	947.42	4.01
303.15	0.506	0.2748	980.48	4.01
303.15	0.605	0.285	991.79	4.01
303.15	0.697	0.3125	1014.36	4.01
303.15	0.782	0.3208	1021.25	4.01
303.15	0.859	0.3443	1038.17	4.01

System: acetic acid + benzoic acid + toluene; phases: Liquid
Fixed: Pressure, kPa = 94.64
Property: Refractive index (other wavelength) (Liquid); method: Standard Abbe refractometry
Temperature, K	Solvent: Mole fraction of acetic acid	Mole fraction of benzoic acid	Wavelength, nm	Refractive index (other wavelength)	uncertainty
299.15	0.146	0.1624	404.7	1.51993	0.00046
299.15	0.277	0.2014	404.7	1.51017	0.00045
299.15	0.397	0.2376	404.7	1.50032	0.00045
299.15	0.506	0.2748	404.7	1.49358	0.00044
299.15	0.605	0.285	404.7	1.48473	0.00045
299.15	0.697	0.3125	404.7	1.47081	0.00048
299.15	0.782	0.3208	404.7	1.46697	0.00047
299.15	0.859	0.3443	404.7	1.4556	0.00046
299.15	0.146	0.1624	435.8	1.51169	0.00043
299.15	0.277	0.2014	435.8	1.50225	0.00043
299.15	0.397	0.2376	435.8	1.49272	0.00042
299.15	0.506	0.2748	435.8	1.48623	0.00043
299.15	0.605	0.285	435.8	1.47776	0.00044
299.15	0.697	0.3125	435.8	1.46427	0.00044
299.15	0.782	0.3208	435.8	1.46055	0.00047
299.15	0.859	0.3443	435.8	1.44959	0.00044
299.15	0.146	0.1624	486.1	1.50236	0.0004
299.15	0.277	0.2014	486.1	1.49328	0.0004
299.15	0.397	0.2376	486.1	1.48415	0.0004
299.15	0.506	0.2748	486.1	1.47797	0.0004
299.15	0.605	0.285	486.1	1.47003	0.00043
299.15	0.697	0.3125	486.1	1.45698	0.00042
299.15	0.782	0.3208	486.1	1.45335	0.00045
299.15	0.859	0.3443	486.1	1.44286	0.00042
299.15	0.146	0.1624	546.1	1.4949	0.00039
299.15	0.277	0.2014	546.1	1.48614	0.00039
299.15	0.397	0.2376	546.1	1.47729	0.00039
299.15	0.506	0.2748	546.1	1.47132	0.00039
299.15	0.605	0.285	546.1	1.46367	0.00041
299.15	0.697	0.3125	546.1	1.4511	0.00042
299.15	0.782	0.3208	546.1	1.44759	0.00043
299.15	0.859	0.3443	546.1	1.43744	0.00041
299.15	0.146	0.1624	587.6	1.49125	0.00038
299.15	0.277	0.2014	587.6	1.48261	0.00038
299.15	0.397	0.2376	587.6	1.47396	0.00038
299.15	0.506	0.2748	587.6	1.46809	0.00038
299.15	0.605	0.285	587.6	1.46054	0.0004
299.15	0.697	0.3125	587.6	1.44823	0.00042
299.15	0.782	0.3208	587.6	1.44475	0.00041
299.15	0.859	0.3443	587.6	1.43479	0.00041
299.15	0.146	0.1624	589.3	1.49112	0.00038
299.15	0.277	0.2014	589.3	1.48248	0.00038
299.15	0.397	0.2376	589.3	1.47384	0.00038
299.15	0.506	0.2748	589.3	1.46797	0.00038
299.15	0.605	0.285	589.3	1.46043	0.0004
299.15	0.697	0.3125	589.3	1.44813	0.00042
299.15	0.782	0.3208	589.3	1.44465	0.00041
299.15	0.859	0.3443	589.3	1.43469	0.00041
299.15	0.146	0.1624	632.8	1.48807	0.00038
299.15	0.277	0.2014	632.8	1.47955	0.00038
299.15	0.397	0.2376	632.8	1.47103	0.00038
299.15	0.506	0.2748	632.8	1.46524	0.00038
299.15	0.605	0.285	632.8	1.45779	0.00039
299.15	0.697	0.3125	632.8	1.44569	0.00042
299.15	0.782	0.3208	632.8	1.44224	0.00041
299.15	0.859	0.3443	632.8	1.43242	0.00041
299.15	0.146	0.1624	644	1.48735	0.00038
299.15	0.277	0.2014	644	1.47886	0.00038
299.15	0.397	0.2376	644	1.47034	0.00038
299.15	0.506	0.2748	644	1.46458	0.00038
299.15	0.605	0.285	644	1.45714	0.00039
299.15	0.697	0.3125	644	1.44509	0.00042
299.15	0.782	0.3208	644	1.44166	0.00041
299.15	0.859	0.3443	644	1.43187	0.00041
299.15	0.146	0.1624	706.5	1.48405	0.00038
299.15	0.277	0.2014	706.5	1.47569	0.00038
299.15	0.397	0.2376	706.5	1.46727	0.00038
299.15	0.506	0.2748	706.5	1.46158	0.00038
299.15	0.605	0.285	706.5	1.45424	0.00039
299.15	0.697	0.3125	706.5	1.44236	0.00041
299.15	0.782	0.3208	706.5	1.43899	0.00041
299.15	0.859	0.3443	706.5	1.42935	0.00041
303.15	0.146	0.1624	404.7	1.5174	0.00046
303.15	0.277	0.2014	404.7	1.50809	0.00045
303.15	0.397	0.2376	404.7	1.49998	0.00045
303.15	0.506	0.2748	404.7	1.49109	0.00044
303.15	0.605	0.285	404.7	1.48533	0.00051
303.15	0.697	0.3125	404.7	1.46839	0.00051
303.15	0.782	0.3208	404.7	1.46454	0.00046
303.15	0.859	0.3443	404.7	1.45352	0.00046
303.15	0.146	0.1624	435.8	1.5092	0.00043
303.15	0.277	0.2014	435.8	1.50017	0.00042
303.15	0.397	0.2376	435.8	1.49233	0.00042
303.15	0.506	0.2748	435.8	1.48376	0.00042
303.15	0.605	0.285	435.8	1.47819	0.0005
303.15	0.697	0.3125	435.8	1.46188	0.00047
303.15	0.782	0.3208	435.8	1.45816	0.00046
303.15	0.859	0.3443	435.8	1.44756	0.00043
303.15	0.146	0.1624	486.1	1.4999	0.0004
303.15	0.277	0.2014	486.1	1.49123	0.0004
303.15	0.397	0.2376	486.1	1.4837	0.0004
303.15	0.506	0.2748	486.1	1.47555	0.0004
303.15	0.605	0.285	486.1	1.47018	0.00048
303.15	0.697	0.3125	486.1	1.45461	0.00044
303.15	0.782	0.3208	486.1	1.45097	0.00044
303.15	0.859	0.3443	486.1	1.44087	0.00042
303.15	0.146	0.1624	546.1	1.49247	0.00039
303.15	0.277	0.2014	546.1	1.48407	0.00039
303.15	0.397	0.2376	546.1	1.4768	0.00039
303.15	0.506	0.2748	546.1	1.46894	0.00038
303.15	0.605	0.285	546.1	1.46377	0.00046
303.15	0.697	0.3125	546.1	1.44875	0.00044
303.15	0.782	0.3208	546.1	1.44524	0.00042
303.15	0.859	0.3443	546.1	1.4355	0.00041
303.15	0.146	0.1624	587.6	1.48895	0.0004
303.15	0.277	0.2014	587.6	1.48058	0.00038
303.15	0.397	0.2376	587.6	1.47346	0.00038
303.15	0.506	0.2748	587.6	1.46574	0.00038
303.15	0.605	0.285	587.6	1.46069	0.00044
303.15	0.697	0.3125	587.6	1.4459	0.00045
303.15	0.782	0.3208	587.6	1.44242	0.00041
303.15	0.859	0.3443	587.6	1.43286	0.00041
303.15	0.146	0.1624	589.3	1.48872	0.0004
303.15	0.277	0.2014	589.3	1.48045	0.00038
303.15	0.397	0.2376	589.3	1.47334	0.00038
303.15	0.506	0.2748	589.3	1.46563	0.00038
303.15	0.605	0.285	589.3	1.46058	0.00044
303.15	0.697	0.3125	589.3	1.4458	0.00045
303.15	0.782	0.3208	589.3	1.44232	0.00041
303.15	0.859	0.3443	589.3	1.43277	0.00041
303.15	0.146	0.1624	632.8	1.48569	0.00038
303.15	0.277	0.2014	632.8	1.47753	0.00038
303.15	0.397	0.2376	632.8	1.4705	0.00038
303.15	0.506	0.2748	632.8	1.46292	0.00038
303.15	0.605	0.285	632.8	1.45794	0.00044
303.15	0.697	0.3125	632.8	1.44337	0.00044
303.15	0.782	0.3208	632.8	1.43993	0.00041
303.15	0.859	0.3443	632.8	1.43052	0.00041
303.15	0.146	0.1624	644	1.48497	0.00038
303.15	0.277	0.2014	644	1.47683	0.00038
303.15	0.397	0.2376	644	1.46982	0.00038
303.15	0.506	0.2748	644	1.46226	0.00038
303.15	0.605	0.285	644	1.45729	0.00044
303.15	0.697	0.3125	644	1.44277	0.00044
303.15	0.782	0.3208	644	1.43935	0.00041
303.15	0.859	0.3443	644	1.42997	0.00041
303.15	0.146	0.1624	706.5	1.48169	0.00038
303.15	0.277	0.2014	706.5	1.47365	0.00038
303.15	0.397	0.2376	706.5	1.46671	0.00038
303.15	0.506	0.2748	706.5	1.45929	0.00038
303.15	0.605	0.285	706.5	1.45438	0.00043
303.15	0.697	0.3125	706.5	1.44007	0.00044
303.15	0.782	0.3208	706.5	1.43671	0.0004
303.15	0.859	0.3443	706.5	1.42747	0.0004

System: acetic acid + water; phases: Liquid
Fixed: Pressure, kPa = 94.64
Property: Refractive index (Na D-line) (Liquid); method: Standard Abbe refractometry
Temperature, K	Mole fraction of acetic acid	Refractive index (Na D-line)	uncertainty
293.15	0	1.33308	0.00106
293.15	0.0322	1.34079	0.00103
293.15	0.0697	1.34792	0.001
293.15	0.114	1.35489	0.00096
293.15	0.167	1.3609	0.00092
293.15	0.231	1.36583	0.00086
293.15	0.31	1.37062	0.0008
293.15	0.412	1.37406	0.00072
293.15	0.545	1.37703	0.00062
293.15	0.629	1.37724	0.00056
293.15	0.729	1.37721	0.00049
293.15	0.85	1.37559	0.00042
293.15	1	1.37224	0.00036
298.15	0	1.33257	0.00106
298.15	0.0322	1.34007	0.00103
298.15	0.0697	1.34695	0.001
298.15	0.114	1.35372	0.00096
298.15	0.167	1.35957	0.00092
298.15	0.231	1.36436	0.00086
298.15	0.31	1.369	0.0008
298.15	0.412	1.37233	0.00072
298.15	0.545	1.37519	0.00062
298.15	0.629	1.37545	0.00056
298.15	0.729	1.3753	0.00049
298.15	0.85	1.37359	0.00042
298.15	1	1.37012	0.00036
303.15	0	1.33198	0.00106
303.15	0.0322	1.33927	0.00103
303.15	0.0697	1.34593	0.001
303.15	0.114	1.3525	0.00096
303.15	0.167	1.35822	0.00092
303.15	0.231	1.36288	0.00086
303.15	0.31	1.36736	0.0008
303.15	0.412	1.37058	0.00072
303.15	0.545	1.37331	0.00062
303.15	0.629	1.37349	0.00056
303.15	0.729	1.37335	0.00049
303.15	0.85	1.3716	0.00042
303.15	1	1.36809	0.00036

System: acetic acid + water; phases: Liquid
Fixed: Pressure, kPa = 96.64
Property: Mass density, kg/m3 (Liquid); method: mechanical oscillator
Temperature, K	Mole fraction of acetic acid	Mass density, kg/m3	uncertainty
293.15	0	998.16	6.31
293.15	0.0322	1013.1	6.19
293.15	0.0697	1029.11	6.04
293.15	0.114	1040.03	5.82
293.15	0.167	1049.79	5.54
293.15	0.231	1057.69	5.23
293.15	0.31	1064.29	4.88
293.15	0.412	1068.57	4.53
293.15	0.545	1068.93	4.23
293.15	0.629	1067.42	4.12
293.15	0.729	1062.82	4.05
293.15	0.85	1059.62	4.01
293.15	1	1049.63	4
298.15	0	996.61	6.3
298.15	0.0322	1010.07	6.17
298.15	0.0697	1024.31	6.01
298.15	0.114	1036.43	5.79
298.15	0.167	1045.44	5.52
298.15	0.231	1053.12	5.21
298.15	0.31	1059.45	4.87
298.15	0.412	1063.31	4.52
298.15	0.545	1063.47	4.23
298.15	0.629	1061.15	4.12
298.15	0.729	1058.08	4.05
298.15	0.85	1053.73	4.01
298.15	1	1043.57	4
303.15	0	994.87	6.28
303.15	0.0322	1007.37	6.15
303.15	0.0697	1021.16	5.99
303.15	0.114	1032.93	5.77
303.15	0.167	1039.59	5.49
303.15	0.231	1048.56	5.19
303.15	0.31	1054.48	4.85
303.15	0.412	1058.16	4.51
303.15	0.545	1058.01	4.22
303.15	0.629	1057.17	4.12
303.15	0.729	1053.26	4.04
303.15	0.85	1047.95	4.01
303.15	1	1037.64	4

System: acetic acid + water; phases: Liquid
Fixed: Pressure, kPa = 94.64
Property: Refractive index (other wavelength) (Liquid); method: Standard Abbe refractometry
Temperature, K	Mole fraction of acetic acid	Wavelength, nm	Refractive index (other wavelength)	uncertainty
293.15	0	404.7	1.34276	0.00106
293.15	0.0322	404.7	1.35074	0.00104
293.15	0.0697	404.7	1.35808	0.001
293.15	0.114	404.7	1.36535	0.00097
293.15	0.167	404.7	1.37162	0.00092
293.15	0.231	404.7	1.37678	0.00087
293.15	0.31	404.7	1.38181	0.0008
293.15	0.412	404.7	1.38536	0.00072
293.15	0.545	404.7	1.38847	0.00062
293.15	0.629	404.7	1.38867	0.00056
293.15	0.729	404.7	1.38865	0.0005
293.15	0.85	404.7	1.38695	0.00043
293.15	1	404.7	1.38345	0.00037
293.15	0	435.8	1.34021	0.00106
293.15	0.0322	435.8	1.34808	0.00104
293.15	0.0697	435.8	1.35532	0.001
293.15	0.114	435.8	1.36252	0.00097
293.15	0.167	435.8	1.36869	0.00092
293.15	0.231	435.8	1.3738	0.00087
293.15	0.31	435.8	1.37874	0.0008
293.15	0.412	435.8	1.38226	0.00072
293.15	0.545	435.8	1.3853	0.00062
293.15	0.629	435.8	1.3855	0.00056
293.15	0.729	435.8	1.38547	0.00049
293.15	0.85	435.8	1.38381	0.00043
293.15	1	435.8	1.38034	0.00037
293.15	0	486.1	1.33716	0.00106
293.15	0.0322	486.1	1.34498	0.00104
293.15	0.0697	486.1	1.35218	0.001
293.15	0.114	486.1	1.35924	0.00096
293.15	0.167	486.1	1.36533	0.00092
293.15	0.231	486.1	1.37034	0.00087
293.15	0.31	486.1	1.37522	0.0008
293.15	0.412	486.1	1.37869	0.00072
293.15	0.545	486.1	1.38169	0.00062
293.15	0.629	486.1	1.38192	0.00056
293.15	0.729	486.1	1.38189	0.00049
293.15	0.85	486.1	1.38021	0.00042
293.15	1	486.1	1.37681	0.00037
293.15	0	546.1	1.33454	0.00106
293.15	0.0322	546.1	1.34229	0.00104
293.15	0.0697	546.1	1.3494	0.001
293.15	0.114	546.1	1.35643	0.00096
293.15	0.167	546.1	1.36247	0.00092
293.15	0.231	546.1	1.36744	0.00087
293.15	0.31	546.1	1.37227	0.0008
293.15	0.412	546.1	1.37571	0.00072
293.15	0.545	546.1	1.37868	0.00062
293.15	0.629	546.1	1.37889	0.00056
293.15	0.729	546.1	1.37886	0.00049
293.15	0.85	546.1	1.37723	0.00042
293.15	1	546.1	1.37386	0.00036
293.15	0	587.6	1.33313	0.00106
293.15	0.0322	587.6	1.34084	0.00103
293.15	0.0697	587.6	1.34797	0.001
293.15	0.114	587.6	1.35495	0.00096
293.15	0.167	587.6	1.36095	0.00092
293.15	0.231	587.6	1.36589	0.00087
293.15	0.31	587.6	1.37068	0.0008
293.15	0.412	587.6	1.37412	0.00072
293.15	0.545	587.6	1.37709	0.00062
293.15	0.629	587.6	1.3773	0.00056
293.15	0.729	587.6	1.37727	0.00049
293.15	0.85	587.6	1.37565	0.00042
293.15	1	587.6	1.3723	0.00036
293.15	0	632.8	1.33183	0.00106
293.15	0.0322	632.8	1.3395	0.00103
293.15	0.0697	632.8	1.34664	0.001
293.15	0.114	632.8	1.35355	0.00096
293.15	0.167	632.8	1.35953	0.00092
293.15	0.231	632.8	1.36444	0.00086
293.15	0.31	632.8	1.36921	0.0008
293.15	0.412	632.8	1.37264	0.00072
293.15	0.545	632.8	1.37561	0.00062
293.15	0.629	632.8	1.37583	0.00056
293.15	0.729	632.8	1.37581	0.00049
293.15	0.85	632.8	1.37419	0.00042
293.15	1	632.8	1.37087	0.00036
293.15	0	644	1.33153	0.00106
293.15	0.0322	644	1.33919	0.00104
293.15	0.0697	644	1.34631	0.001
293.15	0.114	644	1.35322	0.00097
293.15	0.167	644	1.35919	0.00092
293.15	0.231	644	1.36411	0.00087
293.15	0.31	644	1.36888	0.00081
293.15	0.412	644	1.3723	0.00072
293.15	0.545	644	1.37526	0.00062
293.15	0.629	644	1.37548	0.00056
293.15	0.729	644	1.37547	0.00049
293.15	0.85	644	1.37386	0.00042
293.15	1	644	1.37055	0.00036
293.15	0	706.5	1.33003	0.00106
293.15	0.0322	706.5	1.33766	0.00103
293.15	0.0697	706.5	1.34473	0.001
293.15	0.114	706.5	1.35158	0.00096
293.15	0.167	706.5	1.35756	0.00092
293.15	0.231	706.5	1.36247	0.00087
293.15	0.31	706.5	1.36724	0.0008
293.15	0.412	706.5	1.37065	0.00072
293.15	0.545	706.5	1.37359	0.00062
293.15	0.629	706.5	1.37381	0.00056
293.15	0.729	706.5	1.37382	0.00049
293.15	0.85	706.5	1.37224	0.00042
293.15	1	706.5	1.36896	0.00036
298.15	0	404.7	1.34222	0.00106
298.15	0.0322	404.7	1.34997	0.00104
298.15	0.0697	404.7	1.35708	0.001
298.15	0.114	404.7	1.36413	0.00097
298.15	0.167	404.7	1.37026	0.00092
298.15	0.231	404.7	1.37523	0.00087
298.15	0.31	404.7	1.38012	0.0008
298.15	0.412	404.7	1.38357	0.00072
298.15	0.545	404.7	1.38656	0.00062
298.15	0.629	404.7	1.38681	0.00056
298.15	0.729	404.7	1.38668	0.0005
298.15	0.85	404.7	1.38488	0.00043
298.15	1	404.7	1.38126	0.00037
298.15	0	435.8	1.33968	0.00106
298.15	0.0322	435.8	1.34733	0.00104
298.15	0.0697	435.8	1.35435	0.001
298.15	0.114	435.8	1.36131	0.00097
298.15	0.167	435.8	1.36733	0.00092
298.15	0.231	435.8	1.37226	0.00087
298.15	0.31	435.8	1.37707	0.0008
298.15	0.412	435.8	1.38048	0.00072
298.15	0.545	435.8	1.38342	0.00062
298.15	0.629	435.8	1.38367	0.00056
298.15	0.729	435.8	1.38352	0.00049
298.15	0.85	435.8	1.38174	0.00043
298.15	1	435.8	1.37816	0.00037
298.15	0	486.1	1.33665	0.00106
298.15	0.0322	486.1	1.34424	0.00104
298.15	0.0697	486.1	1.35121	0.001
298.15	0.114	486.1	1.35805	0.00096
298.15	0.167	486.1	1.36401	0.00092
298.15	0.231	486.1	1.36885	0.00087
298.15	0.31	486.1	1.37358	0.0008
298.15	0.412	486.1	1.37695	0.00072
298.15	0.545	486.1	1.37983	0.00062
298.15	0.629	486.1	1.38008	0.00056
298.15	0.729	486.1	1.37994	0.00049
298.15	0.85	486.1	1.37819	0.00042
298.15	1	486.1	1.37466	0.00037
298.15	0	546.1	1.33402	0.00106
298.15	0.0322	546.1	1.34156	0.00104
298.15	0.0697	546.1	1.34845	0.001
298.15	0.114	546.1	1.35525	0.00096
298.15	0.167	546.1	1.36114	0.00092
298.15	0.231	546.1	1.36595	0.00087
298.15	0.31	546.1	1.37063	0.0008
298.15	0.412	546.1	1.37398	0.00072
298.15	0.545	546.1	1.37683	0.00062
298.15	0.629	546.1	1.37709	0.00056
298.15	0.729	546.1	1.37695	0.00049
298.15	0.85	546.1	1.37522	0.00042
298.15	1	546.1	1.37174	0.00036
298.15	0	587.6	1.33262	0.00106
298.15	0.0322	587.6	1.34012	0.00103
298.15	0.0697	587.6	1.347	0.001
298.15	0.114	587.6	1.35378	0.00096
298.15	0.167	587.6	1.35963	0.00092
298.15	0.231	587.6	1.36441	0.00087
298.15	0.31	587.6	1.36906	0.0008
298.15	0.412	587.6	1.37239	0.00072
298.15	0.545	587.6	1.37525	0.00062
298.15	0.629	587.6	1.37551	0.00056
298.15	0.729	587.6	1.37536	0.00049
298.15	0.85	587.6	1.37365	0.00042
298.15	1	587.6	1.37018	0.00036
298.15	0	632.8	1.33132	0.00106
298.15	0.0322	632.8	1.33879	0.00103
298.15	0.0697	632.8	1.34567	0.001
298.15	0.114	632.8	1.35239	0.00096
298.15	0.167	632.8	1.35823	0.00092
298.15	0.231	632.8	1.36298	0.00087
298.15	0.31	632.8	1.36762	0.0008
298.15	0.412	632.8	1.37092	0.00072
298.15	0.545	632.8	1.37378	0.00062
298.15	0.629	632.8	1.37404	0.00056
298.15	0.729	632.8	1.3739	0.00049
298.15	0.85	632.8	1.37221	0.00042
298.15	1	632.8	1.36876	0.00036
298.15	0	644	1.33102	0.00106
298.15	0.0322	644	1.33848	0.00104
298.15	0.0697	644	1.34535	0.001
298.15	0.114	644	1.35206	0.00097
298.15	0.167	644	1.3579	0.00092
298.15	0.231	644	1.36265	0.00087
298.15	0.31	644	1.36728	0.0008
298.15	0.412	644	1.37059	0.00072
298.15	0.545	644	1.37344	0.00062
298.15	0.629	644	1.3737	0.00056
298.15	0.729	644	1.37357	0.00049
298.15	0.85	644	1.37188	0.00042
298.15	1	644	1.36844	0.00036
298.15	0	706.5	1.32954	0.00106
298.15	0.0322	706.5	1.33695	0.00103
298.15	0.0697	706.5	1.34377	0.001
298.15	0.114	706.5	1.35044	0.00096
298.15	0.167	706.5	1.35625	0.00092
298.15	0.231	706.5	1.36102	0.00087
298.15	0.31	706.5	1.36564	0.0008
298.15	0.412	706.5	1.36894	0.00072
298.15	0.545	706.5	1.37178	0.00062
298.15	0.629	706.5	1.37205	0.00056
298.15	0.729	706.5	1.37193	0.00049
298.15	0.85	706.5	1.37027	0.00042
298.15	1	706.5	1.36686	0.00036
303.15	0	404.7	1.34161	0.00106
303.15	0.0322	404.7	1.34916	0.00104
303.15	0.0697	404.7	1.35605	0.001
303.15	0.114	404.7	1.36289	0.00097
303.15	0.167	404.7	1.36886	0.00092
303.15	0.231	404.7	1.37369	0.00087
303.15	0.31	404.7	1.37842	0.0008
303.15	0.412	404.7	1.38176	0.00072
303.15	0.545	404.7	1.38463	0.00062
303.15	0.629	404.7	1.38481	0.00056
303.15	0.729	404.7	1.38467	0.0005
303.15	0.85	404.7	1.38283	0.00043
303.15	1	404.7	1.37917	0.00037
303.15	0	435.8	1.33909	0.00106
303.15	0.0322	435.8	1.34654	0.00104
303.15	0.0697	435.8	1.35332	0.001
303.15	0.114	435.8	1.36008	0.00097
303.15	0.167	435.8	1.36596	0.00092
303.15	0.231	435.8	1.37074	0.00087
303.15	0.31	435.8	1.37539	0.0008
303.15	0.412	435.8	1.37869	0.00072
303.15	0.545	435.8	1.3815	0.00062
303.15	0.629	435.8	1.38167	0.00056
303.15	0.729	435.8	1.38153	0.00049
303.15	0.85	435.8	1.37972	0.00043
303.15	1	435.8	1.37611	0.00037
303.15	0	486.1	1.33604	0.00106
303.15	0.0322	486.1	1.34343	0.00104
303.15	0.0697	486.1	1.35017	0.001
303.15	0.114	486.1	1.35684	0.00096
303.15	0.167	486.1	1.36261	0.00092
303.15	0.231	486.1	1.36734	0.00087
303.15	0.31	486.1	1.37192	0.0008
303.15	0.412	486.1	1.37516	0.00072
303.15	0.545	486.1	1.37794	0.00062
303.15	0.629	486.1	1.37813	0.00056
303.15	0.729	486.1	1.37797	0.00049
303.15	0.85	486.1	1.37618	0.00042
303.15	1	486.1	1.37261	0.00037
303.15	0	546.1	1.33344	0.00106
303.15	0.0322	546.1	1.34077	0.00103
303.15	0.0697	546.1	1.34743	0.001
303.15	0.114	546.1	1.35405	0.00096
303.15	0.167	546.1	1.35979	0.00092
303.15	0.231	546.1	1.36446	0.00087
303.15	0.31	546.1	1.36899	0.0008
303.15	0.412	546.1	1.37223	0.00072
303.15	0.545	546.1	1.37497	0.00062
303.15	0.629	546.1	1.37513	0.00056
303.15	0.729	546.1	1.375	0.00049
303.15	0.85	546.1	1.37323	0.00042
303.15	1	546.1	1.36968	0.00036
303.15	0	587.6	1.33203	0.00106
303.15	0.0322	587.6	1.33932	0.00103
303.15	0.0697	587.6	1.34598	0.001
303.15	0.114	587.6	1.35256	0.00096
303.15	0.167	587.6	1.35827	0.00092
303.15	0.231	587.6	1.36293	0.00087
303.15	0.31	587.6	1.36742	0.0008
303.15	0.412	587.6	1.37064	0.00072
303.15	0.545	587.6	1.37337	0.00062
303.15	0.629	587.6	1.37355	0.00056
303.15	0.729	587.6	1.37341	0.00049
303.15	0.85	587.6	1.37166	0.00042
303.15	1	587.6	1.36815	0.00036
303.15	0	632.8	1.33073	0.00106
303.15	0.0322	632.8	1.338	0.00103
303.15	0.0697	632.8	1.34464	0.001
303.15	0.114	632.8	1.35117	0.00096
303.15	0.167	632.8	1.35686	0.00092
303.15	0.231	632.8	1.36151	0.00086
303.15	0.31	632.8	1.36598	0.0008
303.15	0.412	632.8	1.36917	0.00072
303.15	0.545	632.8	1.3719	0.00062
303.15	0.629	632.8	1.3721	0.00056
303.15	0.729	632.8	1.37196	0.00049
303.15	0.85	632.8	1.37023	0.00042
303.15	1	632.8	1.36675	0.00036
303.15	0	644	1.33044	0.00106
303.15	0.0322	644	1.3377	0.00104
303.15	0.0697	644	1.34432	0.001
303.15	0.114	644	1.35085	0.00097
303.15	0.167	644	1.35653	0.00092
303.15	0.231	644	1.36118	0.00087
303.15	0.31	644	1.36565	0.00081
303.15	0.412	644	1.36884	0.00072
303.15	0.545	644	1.37157	0.00062
303.15	0.629	644	1.37176	0.00056
303.15	0.729	644	1.37163	0.00049
303.15	0.85	644	1.3699	0.00042
303.15	1	644	1.36643	0.00036
303.15	0	706.5	1.32897	0.00106
303.15	0.0322	706.5	1.3362	0.00103
303.15	0.0697	706.5	1.34275	0.001
303.15	0.114	706.5	1.34926	0.00096
303.15	0.167	706.5	1.35492	0.00092
303.15	0.231	706.5	1.35956	0.00087
303.15	0.31	706.5	1.36402	0.0008
303.15	0.412	706.5	1.36722	0.00072
303.15	0.545	706.5	1.36995	0.00062
303.15	0.629	706.5	1.37013	0.00056
303.15	0.729	706.5	1.37002	0.00049
303.15	0.85	706.5	1.36831	0.00042
303.15	1	706.5	1.36485	0.00036

System: acetic acid + toluene; phases: Liquid
Fixed: Pressure, kPa = 94.64
Property: Refractive index (Na D-line) (Liquid); method: Standard Abbe refractometry
Temperature, K	Mole fraction of acetic acid	Refractive index (Na D-line)	uncertainty
293.15	0	1.49687	0.0004
293.15	0.146	1.48448	0.00039
293.15	0.277	1.47082	0.00039
293.15	0.397	1.45878	0.00038
293.15	0.506	1.44593	0.00038
293.15	0.605	1.43372	0.00038
293.15	0.697	1.4212	0.0004
293.15	0.782	1.40891	0.00037
293.15	0.859	1.39681	0.00037
293.15	0.897	1.38731	0.00037
293.15	0.932	1.38235	0.00037
293.15	0.967	1.37721	0.00037
293.15	1	1.37224	0.00036
298.15	0	1.49406	0.0004
298.15	0.146	1.48174	0.00039
298.15	0.277	1.4681	0.00039
298.15	0.397	1.45618	0.00038
298.15	0.506	1.44332	0.00038
298.15	0.605	1.43116	0.00038
298.15	0.697	1.41872	0.00037
298.15	0.782	1.4065	0.00037
298.15	0.859	1.39453	0.00037
298.15	0.897	1.38466	0.00037
298.15	0.932	1.38029	0.00037
298.15	0.967	1.3752	0.00037
298.15	1	1.37012	0.00036
303.15	0	1.49124	0.0004
303.15	0.146	1.47906	0.00039
303.15	0.277	1.46535	0.00039
303.15	0.397	1.45352	0.00038
303.15	0.506	1.44065	0.00038
303.15	0.605	1.42842	0.00038
303.15	0.697	1.41617	0.00037
303.15	0.782	1.40452	0.00037
303.15	0.859	1.39228	0.00037
303.15	0.897	1.38303	0.00037
303.15	0.932	1.3782	0.00037
303.15	0.967	1.37315	0.00037
303.15	1	1.36809	0.00036

System: acetic acid + toluene; phases: Liquid
Fixed: Pressure, kPa = 96.64
Property: Mass density, kg/m3 (Liquid); method: mechanical oscillator
Temperature, K	Mole fraction of acetic acid	Mass density, kg/m3	uncertainty
293.15	0	866.75	4
293.15	0.146	878.94	4
293.15	0.277	894.11	4
293.15	0.397	907.9	4
293.15	0.506	924.08	4
293.15	0.605	940.43	4
293.15	0.697	960	4
293.15	0.782	978.4	4
293.15	0.859	1000.2	4
293.15	0.897	1017.74	4
293.15	0.932	1027.84	4
293.15	0.967	1038.11	4
293.15	1	1049.63	4
298.15	0	861.74	4
298.15	0.146	873.65	4
298.15	0.277	888.81	4
298.15	0.397	902.58	4
298.15	0.506	918.49	4
298.15	0.605	934.75	4
298.15	0.697	954.12	4
298.15	0.782	972.48	4
298.15	0.859	994.34	4
298.15	0.897	1011.75	4
298.15	0.932	1021.82	4
298.15	0.967	1032.17	4
298.15	1	1043.57	4
303.15	0	856.81	4
303.15	0.146	868.47	4
303.15	0.277	883.38	4
303.15	0.397	897.1	4
303.15	0.506	912.96	4
303.15	0.605	929.15	4
303.15	0.697	948.31	4
303.15	0.782	966.6	4
303.15	0.859	988.34	4
303.15	0.897	1005.81	4
303.15	0.932	1015.9	4
303.15	0.967	1026.28	4
303.15	1	1037.64	4

System: acetic acid + toluene; phases: Liquid
Fixed: Pressure, kPa = 94.64
Property: Refractive index (other wavelength) (Liquid); method: Standard Abbe refractometry
Temperature, K	Mole fraction of acetic acid	Wavelength, nm	Refractive index (other wavelength)	uncertainty
293.15	0	404.7	1.52597	0.00048
293.15	0.146	404.7	1.51185	0.00045
293.15	0.277	404.7	1.49627	0.00046
293.15	0.397	404.7	1.48254	0.00043
293.15	0.506	404.7	1.46794	0.00043
293.15	0.605	404.7	1.45403	0.00041
293.15	0.697	404.7	1.43966	0.00041
293.15	0.782	404.7	1.42556	0.0004
293.15	0.859	404.7	1.41172	0.00038
293.15	0.897	404.7	1.40081	0.00041
293.15	0.932	404.7	1.39511	0.00039
293.15	0.967	404.7	1.38917	0.00038
293.15	1	404.7	1.38345	0.00037
293.15	0	435.8	1.51768	0.00045
293.15	0.146	435.8	1.50406	0.00044
293.15	0.277	435.8	1.48902	0.00043
293.15	0.397	435.8	1.47576	0.00042
293.15	0.506	435.8	1.46165	0.00041
293.15	0.605	435.8	1.44826	0.00041
293.15	0.697	435.8	1.43437	0.0004
293.15	0.782	435.8	1.42081	0.00039
293.15	0.859	435.8	1.40749	0.00039
293.15	0.897	435.8	1.397	0.00039
293.15	0.932	435.8	1.39153	0.00038
293.15	0.967	435.8	1.38582	0.00038
293.15	1	435.8	1.38034	0.00037
293.15	0	486.1	1.50826	0.00043
293.15	0.146	486.1	1.49519	0.00042
293.15	0.277	486.1	1.48081	0.00041
293.15	0.397	486.1	1.4681	0.0004
293.15	0.506	486.1	1.45457	0.0004
293.15	0.605	486.1	1.44171	0.00039
293.15	0.697	486.1	1.4285	0.00039
293.15	0.782	486.1	1.41549	0.00038
293.15	0.859	486.1	1.40275	0.00038
293.15	0.897	486.1	1.39273	0.00038
293.15	0.932	486.1	1.3875	0.00039
293.15	0.967	486.1	1.38206	0.00037
293.15	1	486.1	1.37681	0.00037
293.15	0	546.1	1.50069	0.00042
293.15	0.146	546.1	1.48808	0.00041
293.15	0.277	546.1	1.47416	0.0004
293.15	0.397	546.1	1.46191	0.0004
293.15	0.506	546.1	1.44883	0.00039
293.15	0.605	546.1	1.43642	0.00039
293.15	0.697	546.1	1.42367	0.00038
293.15	0.782	546.1	1.41115	0.00038
293.15	0.859	546.1	1.39886	0.00038
293.15	0.897	546.1	1.38919	0.00038
293.15	0.932	546.1	1.38415	0.00038
293.15	0.967	546.1	1.37892	0.00037
293.15	1	546.1	1.37386	0.00036
293.15	0	587.6	1.497	0.00041
293.15	0.146	587.6	1.4846	0.0004
293.15	0.277	587.6	1.47093	0.0004
293.15	0.397	587.6	1.45889	0.00039
293.15	0.506	587.6	1.44603	0.00039
293.15	0.605	587.6	1.43382	0.00038
293.15	0.697	587.6	1.42129	0.00038
293.15	0.782	587.6	1.40899	0.00038
293.15	0.859	587.6	1.39688	0.00037
293.15	0.897	587.6	1.38738	0.00037
293.15	0.932	587.6	1.38242	0.00039
293.15	0.967	587.6	1.37727	0.00037
293.15	1	587.6	1.3723	0.00036
293.15	0	632.8	1.49379	0.00041
293.15	0.146	632.8	1.48156	0.0004
293.15	0.277	632.8	1.4681	0.0004
293.15	0.397	632.8	1.45622	0.00038
293.15	0.506	632.8	1.44355	0.00038
293.15	0.605	632.8	1.43151	0.00038
293.15	0.697	632.8	1.41917	0.00037
293.15	0.782	632.8	1.40703	0.00037
293.15	0.859	632.8	1.3951	0.00038
293.15	0.897	632.8	1.38572	0.0004
293.15	0.932	632.8	1.38084	0.00037
293.15	0.967	632.8	1.37577	0.00037
293.15	1	632.8	1.37087	0.00036
293.15	0	644	1.49306	0.00041
293.15	0.146	644	1.48087	0.00042
293.15	0.277	644	1.46744	0.00039
293.15	0.397	644	1.4556	0.0004
293.15	0.506	644	1.44297	0.00039
293.15	0.605	644	1.43097	0.00039
293.15	0.697	644	1.41867	0.00038
293.15	0.782	644	1.40657	0.00038
293.15	0.859	644	1.39469	0.00041
293.15	0.897	644	1.38534	0.00038
293.15	0.932	644	1.38047	0.00037
293.15	0.967	644	1.37542	0.00037
293.15	1	644	1.37055	0.00036
293.15	0	706.5	1.48975	0.0004
293.15	0.146	706.5	1.47771	0.0004
293.15	0.277	706.5	1.46997	0.00039
293.15	0.397	706.5	1.4528	0.00039
293.15	0.506	706.5	1.44033	0.00038
293.15	0.605	706.5	1.42851	0.00038
293.15	0.697	706.5	1.41635	0.00038
293.15	0.782	706.5	1.40444	0.00037
293.15	0.859	706.5	1.39271	0.00038
293.15	0.897	706.5	1.38353	0.00037
293.15	0.932	706.5	1.37874	0.00037
293.15	0.967	706.5	1.37375	0.00037
293.15	1	706.5	1.36896	0.00036
298.15	0	404.7	1.52295	0.00048
298.15	0.146	404.7	1.50896	0.00046
298.15	0.277	404.7	1.4934	0.00046
298.15	0.397	404.7	1.47979	0.00043
298.15	0.506	404.7	1.46521	0.00043
298.15	0.605	404.7	1.45129	0.00042
298.15	0.697	404.7	1.43707	0.00041
298.15	0.782	404.7	1.42305	0.0004
298.15	0.859	404.7	1.41005	0.00039
298.15	0.897	404.7	1.39862	0.00041
298.15	0.932	404.7	1.39296	0.00038
298.15	0.967	404.7	1.3871	0.00038
298.15	1	404.7	1.38126	0.00037
298.15	0	435.8	1.51473	0.00045
298.15	0.146	435.8	1.50121	0.00044
298.15	0.277	435.8	1.48619	0.00043
298.15	0.397	435.8	1.47305	0.00042
298.15	0.506	435.8	1.45896	0.00041
298.15	0.605	435.8	1.44555	0.0004
298.15	0.697	435.8	1.43182	0.0004
298.15	0.782	435.8	1.41834	0.00039
298.15	0.859	435.8	1.40512	0.00039
298.15	0.897	435.8	1.39482	0.00039
298.15	0.932	435.8	1.38941	0.00038
298.15	0.967	435.8	1.38379	0.00038
298.15	1	435.8	1.37816	0.00037
298.15	0	486.1	1.50537	0.00043
298.15	0.146	486.1	1.49239	0.00042
298.15	0.277	486.1	1.47801	0.00041
298.15	0.397	486.1	1.46545	0.0004
298.15	0.506	486.1	1.45191	0.0004
298.15	0.605	486.1	1.43909	0.00039
298.15	0.697	486.1	1.42596	0.00039
298.15	0.782	486.1	1.41304	0.00038
298.15	0.859	486.1	1.40043	0.00038
298.15	0.897	486.1	1.3906	0.00038
298.15	0.932	486.1	1.3854	0.00038
298.15	0.967	486.1	1.38002	0.00037
298.15	1	486.1	1.37466	0.00037
298.15	0	546.1	1.49785	0.00042
298.15	0.146	546.1	1.48532	0.00041
298.15	0.277	546.1	1.47142	0.0004
298.15	0.397	546.1	1.45928	0.0004
298.15	0.506	546.1	1.44622	0.00039
298.15	0.605	546.1	1.43383	0.00039
298.15	0.697	546.1	1.42117	0.00038
298.15	0.782	546.1	1.40874	0.00038
298.15	0.859	546.1	1.39655	0.00038
298.15	0.897	546.1	1.38706	0.00038
298.15	0.932	546.1	1.38208	0.00037
298.15	0.967	546.1	1.37691	0.00037
298.15	1	546.1	1.37174	0.00036
298.15	0	587.6	1.49419	0.00041
298.15	0.146	587.6	1.48187	0.0004
298.15	0.277	587.6	1.46821	0.0004
298.15	0.397	587.6	1.45629	0.00039
298.15	0.506	587.6	1.44342	0.00039
298.15	0.605	587.6	1.43125	0.00038
298.15	0.697	587.6	1.41881	0.00038
298.15	0.782	587.6	1.40658	0.00038
298.15	0.859	587.6	1.3946	0.00037
298.15	0.897	587.6	1.38527	0.00037
298.15	0.932	587.6	1.38035	0.00037
298.15	0.967	587.6	1.37526	0.00037
298.15	1	587.6	1.37018	0.00036
298.15	0	632.8	1.49101	0.00041
298.15	0.146	632.8	1.47884	0.0004
298.15	0.277	632.8	1.46538	0.0004
298.15	0.397	632.8	1.45365	0.00038
298.15	0.506	632.8	1.44095	0.00038
298.15	0.605	632.8	1.42896	0.00038
298.15	0.697	632.8	1.41669	0.00038
298.15	0.782	632.8	1.40463	0.00037
298.15	0.859	632.8	1.39284	0.00037
298.15	0.897	632.8	1.38364	0.00038
298.15	0.932	632.8	1.37878	0.00037
298.15	0.967	632.8	1.37375	0.00037
298.15	1	632.8	1.36876	0.00036
298.15	0	644	1.49028	0.00041
298.15	0.146	644	1.47816	0.00041
298.15	0.277	644	1.46473	0.00039
298.15	0.397	644	1.45303	0.0004
298.15	0.506	644	1.44038	0.00039
298.15	0.605	644	1.42842	0.00038
298.15	0.697	644	1.41619	0.00038
298.15	0.782	644	1.40417	0.00038
298.15	0.859	644	1.39242	0.00039
298.15	0.897	644	1.38326	0.00037
298.15	0.932	644	1.37842	0.00037
298.15	0.967	644	1.37341	0.00037
298.15	1	644	1.36844	0.00036
298.15	0	706.5	1.48697	0.0004
298.15	0.146	706.5	1.47502	0.0004
298.15	0.277	706.5	1.46178	0.00039
298.15	0.397	706.5	1.45023	0.00039
298.15	0.506	706.5	1.43776	0.00038
298.15	0.605	706.5	1.42598	0.00038
298.15	0.697	706.5	1.4139	0.00037
298.15	0.782	706.5	1.40417	0.00037
298.15	0.859	706.5	1.39049	0.00038
298.15	0.897	706.5	1.38144	0.00037
298.15	0.932	706.5	1.37669	0.00037
298.15	0.967	706.5	1.37177	0.00037
298.15	1	706.5	1.36686	0.00036
303.15	0	404.7	1.51996	0.00048
303.15	0.146	404.7	1.50611	0.00045
303.15	0.277	404.7	1.4905	0.00046
303.15	0.397	404.7	1.47698	0.00043
303.15	0.506	404.7	1.46241	0.00043
303.15	0.605	404.7	1.44837	0.00042
303.15	0.697	404.7	1.4344	0.00041
303.15	0.782	404.7	1.42104	0.0004
303.15	0.859	404.7	1.40698	0.00038
303.15	0.897	404.7	1.39635	0.00041
303.15	0.932	404.7	1.3908	0.00038
303.15	0.967	404.7	1.38499	0.00038
303.15	1	404.7	1.37917	0.00037
303.15	0	435.8	1.51177	0.00045
303.15	0.146	435.8	1.49841	0.00044
303.15	0.277	435.8	1.48332	0.00043
303.15	0.397	435.8	1.47026	0.00042
303.15	0.506	435.8	1.45621	0.00041
303.15	0.605	435.8	1.44266	0.0004
303.15	0.697	435.8	1.42918	0.0004
303.15	0.782	435.8	1.41634	0.00039
303.15	0.859	435.8	1.40281	0.00039
303.15	0.897	435.8	1.3926	0.00039
303.15	0.932	435.8	1.38725	0.00038
303.15	0.967	435.8	1.38168	0.00038
303.15	1	435.8	1.37611	0.00037
303.15	0	486.1	1.50248	0.00043
303.15	0.146	486.1	1.48963	0.00042
303.15	0.277	486.1	1.47522	0.00041
303.15	0.397	486.1	1.46273	0.0004
303.15	0.506	486.1	1.44918	0.0004
303.15	0.605	486.1	1.43626	0.00039
303.15	0.697	486.1	1.42331	0.00039
303.15	0.782	486.1	1.41106	0.00038
303.15	0.859	486.1	1.39813	0.00038
303.15	0.897	486.1	1.38838	0.00038
303.15	0.932	486.1	1.38329	0.00039
303.15	0.967	486.1	1.37795	0.00037
303.15	1	486.1	1.37261	0.00037
303.15	0	546.1	1.495	0.00042
303.15	0.146	546.1	1.48261	0.00041
303.15	0.277	546.1	1.46865	0.0004
303.15	0.397	546.1	1.45661	0.0004
303.15	0.506	546.1	1.44352	0.00039
303.15	0.605	546.1	1.43107	0.00039
303.15	0.697	546.1	1.41861	0.00038
303.15	0.782	546.1	1.40674	0.00038
303.15	0.859	546.1	1.3943	0.00038
303.15	0.897	546.1	1.3849	0.00038
303.15	0.932	546.1	1.37997	0.00038
303.15	0.967	546.1	1.37485	0.00037
303.15	1	546.1	1.36968	0.00036
303.15	0	587.6	1.49137	0.00041
303.15	0.146	587.6	1.47918	0.0004
303.15	0.277	587.6	1.46547	0.0004
303.15	0.397	587.6	1.45363	0.00039
303.15	0.506	587.6	1.44075	0.00039
303.15	0.605	587.6	1.42851	0.00038
303.15	0.697	587.6	1.41625	0.00038
303.15	0.782	587.6	1.4046	0.00037
303.15	0.859	587.6	1.39235	0.00037
303.15	0.897	587.6	1.38309	0.00037
303.15	0.932	587.6	1.37826	0.00038
303.15	0.967	587.6	1.37321	0.00037
303.15	1	587.6	1.36815	0.00036
303.15	0	632.8	1.4882	0.00041
303.15	0.146	632.8	1.47618	0.0004
303.15	0.277	632.8	1.46268	0.0004
303.15	0.397	632.8	1.451	0.00038
303.15	0.506	632.8	1.4383	0.00038
303.15	0.605	632.8	1.42623	0.00038
303.15	0.697	632.8	1.41415	0.00038
303.15	0.782	632.8	1.40267	0.00037
303.15	0.859	632.8	1.39059	0.00038
303.15	0.897	632.8	1.38146	0.0004
303.15	0.932	632.8	1.37671	0.00037
303.15	0.967	632.8	1.37172	0.00037
303.15	1	632.8	1.36675	0.00036
303.15	0	644	1.48748	0.00041
303.15	0.146	644	1.47549	0.00042
303.15	0.277	644	1.46203	0.00039
303.15	0.397	644	1.45039	0.0004
303.15	0.506	644	1.43773	0.00039
303.15	0.605	644	1.42569	0.00038
303.15	0.697	644	1.41365	0.00038
303.15	0.782	644	1.40221	0.00038
303.15	0.859	644	1.39018	0.0004
303.15	0.897	644	1.38109	0.00038
303.15	0.932	644	1.37634	0.00037
303.15	0.967	644	1.37138	0.00037
303.15	1	644	1.36643	0.00036
303.15	0	706.5	1.48419	0.0004
303.15	0.146	706.5	1.47237	0.0004
303.15	0.277	706.5	1.45908	0.00039
303.15	0.397	706.5	1.44761	0.00039
303.15	0.506	706.5	1.43513	0.00038
303.15	0.605	706.5	1.42326	0.00038
303.15	0.697	706.5	1.41136	0.00038
303.15	0.782	706.5	1.4001	0.00037
303.15	0.859	706.5	1.38824	0.00038
303.15	0.897	706.5	1.37929	0.00037
303.15	0.932	706.5	1.37461	0.00037
303.15	0.967	706.5	1.36976	0.00037
303.15	1	706.5	1.36485	0.00036
