Measured thermophysical data. Analysis of Surface Thermodynamics for Amino Acid Ionic Liquid-1-Dimethylamino-2-propanol Aqueous Blends
Source: J. Chem. Eng. Data, 2019, 10.1021/acs.jced.9b00511
Compound 1: 1-(dimethylamino)-2-propanol, C5H13NO, InChI=1S/C5H13NO/c1-5(7)4-6(2)3/h5,7H,4H2,1-3H3, purity 98%
Compound 2: tetramethylammonium glycinate, C6H16N2O2, InChI=1S/C4H12N.C2H5NO2/c1-5(2,3)4;3-1-2(4)5/h1-4H3;1,3H2,(H,4,5)/q+1;/p-1, purity 99%
Compound 3: 1-butyl-3-methylimidazolium glycinate, C10H19N3O2, InChI=1S/C8H15N2.C2H5NO2/c1-3-4-5-10-7-6-9(2)8-10;3-1-2(4)5/h6-8H,3-5H2,1-2H3;1,3H2,(H,4,5)/q+1;/p-1, purity 98%
Compound 4: 1-butyl-3-methylimidazolium L-lysinate, C14H28N4O2, InChI=1S/C8H15N2.C6H14N2O2/c1-3-4-5-10-7-6-9(2)8-10;7-4-2-1-3-5(8)6(9)10/h6-8H,3-5H2,1-2H3;5H,1-4,7-8H2,(H,9,10)/q+1;/p-1/t;5-/m.0/s1, purity 98%
Compound 5: water, H2O, InChI=1S/H2O/h1H2, purity 99.8%

System: 1-(dimethylamino)-2-propanol; phases: Liquid, Air at 1 atmosphere
Property: Surface tension liquid-gas, N/m (Liquid); method: Wilhelmy Plate
Temperature, K	Surface tension liquid-gas, N/m	uncertainty
303.2	0.024	0.0004
308.2	0.0232	0.0004
313.2	0.0226	0.0004
318.2	0.022	0.0004
323.2	0.0213	0.0004

System: tetramethylammonium glycinate; phases: Liquid, Air at 1 atmosphere
Property: Surface tension liquid-gas, N/m (Liquid); method: Wilhelmy Plate
Temperature, K	Surface tension liquid-gas, N/m	uncertainty
303.2	0.0562	0.0004
308.2	0.0556	0.0004
313.2	0.0551	0.0004
318.2	0.0545	0.0004
323.2	0.0539	0.0004

System: 1-butyl-3-methylimidazolium glycinate; phases: Liquid, Air at 1 atmosphere
Property: Surface tension liquid-gas, N/m (Liquid); method: Wilhelmy Plate
Temperature, K	Surface tension liquid-gas, N/m	uncertainty
303.2	0.0429	0.0005
308.2	0.0426	0.0005
313.2	0.0424	0.0005
318.2	0.0421	0.0005
323.2	0.0417	0.0005

System: 1-butyl-3-methylimidazolium L-lysinate; phases: Liquid, Air at 1 atmosphere
Property: Surface tension liquid-gas, N/m (Liquid); method: Wilhelmy Plate
Temperature, K	Surface tension liquid-gas, N/m	uncertainty
303.2	0.0459	0.0006
308.2	0.0455	0.0005
313.2	0.0451	0.0005
318.2	0.0447	0.0005
323.2	0.0442	0.0005

System: 1-(dimethylamino)-2-propanol + water; phases: Liquid, Air at 1 atmosphere
Property: Surface tension liquid-gas, N/m (Liquid); method: Wilhelmy Plate
Mass fraction of 1-(dimethylamino)-2-propanol	Temperature, K	Surface tension liquid-gas, N/m	uncertainty
0.3	303.2	0.0362	0.0004
0.4	303.2	0.0335	0.0004
0.5	303.2	0.0315	0.0004
1	303.2	0.024	0.0004
0.3	308.2	0.0354	0.0004
0.4	308.2	0.0327	0.0004
0.5	308.2	0.031	0.0004
1	308.2	0.0232	0.0004
0.3	313.2	0.0346	0.0004
0.4	313.2	0.0321	0.0004
0.5	313.2	0.0302	0.0004
1	313.2	0.0226	0.0004
0.3	318.2	0.0339	0.0004
0.4	318.2	0.0315	0.0004
0.5	318.2	0.0296	0.0004
1	318.2	0.022	0.0004
0.3	323.2	0.0332	0.0004
0.4	323.2	0.0309	0.0004
0.5	323.2	0.0291	0.0004
1	323.2	0.0213	0.0004

System: 1-(dimethylamino)-2-propanol + water + tetramethylammonium glycinate; phases: Liquid, Air at 1 atmosphere
Property: Surface tension liquid-gas, N/m (Liquid); method: Wilhelmy Plate
Mass fraction of 1-(dimethylamino)-2-propanol	Mass fraction of tetramethylammonium glycinate	Temperature, K	Surface tension liquid-gas, N/m	uncertainty
0.3	0.05	303.2	0.0351	0.0005
0.3	0.075	303.2	0.0346	0.0005
0.3	0	303.2	0.0362	0.0005
0.4	0.05	303.2	0.0325	0.0005
0.4	0.075	303.2	0.032	0.0005
0.4	0.025	303.2	0.033	0.0005
0.4	0	303.2	0.0335	0.0005
0.5	0.075	303.2	0.03	0.0005
0.5	0.025	303.2	0.031	0.0005
0.5	0	303.2	0.0315	0.0005
0.5	0.05	303.2	0.0305	0.0005
0.3	0.025	303.2	0.0357	0.0005
0.4	0.05	308.2	0.0318	0.0005
0.4	0.075	308.2	0.0312	0.0005
0.3	0.05	308.2	0.0343	0.0006
0.3	0.075	308.2	0.0337	0.0005
0.4	0.025	308.2	0.0323	0.0005
0.4	0	308.2	0.0327	0.0005
0.5	0.075	308.2	0.0292	0.0005
0.5	0.025	308.2	0.0304	0.0005
0.5	0	308.2	0.031	0.0005
0.5	0.05	308.2	0.0298	0.0005
0.3	0	308.2	0.0354	0.0005
0.3	0.025	308.2	0.0349	0.0005
0.3	0	313.2	0.0346	0.0005
0.4	0.05	313.2	0.0311	0.0005
0.4	0.025	313.2	0.0317	0.0005
0.4	0	313.2	0.0321	0.0005
0.3	0.075	313.2	0.0331	0.0005
0.5	0.075	313.2	0.0286	0.0005
0.5	0.025	313.2	0.0297	0.0005
0.3	0.05	313.2	0.0336	0.0005
0.5	0	313.2	0.0302	0.0005
0.5	0.05	313.2	0.0291	0.0005
0.4	0.075	313.2	0.0306	0.0005
0.3	0.025	313.2	0.0341	0.0005
0.4	0.05	318.2	0.0305	0.0005
0.3	0.05	318.2	0.0328	0.0005
0.5	0.075	318.2	0.028	0.0005
0.3	0.075	318.2	0.0323	0.0005
0.5	0.025	318.2	0.0292	0.0005
0.4	0.025	318.2	0.031	0.0005
0.4	0	318.2	0.0315	0.0005
0.3	0	318.2	0.0339	0.0005
0.5	0	318.2	0.0296	0.0005
0.5	0.05	318.2	0.0286	0.0005
0.4	0.075	318.2	0.03	0.0005
0.3	0.025	318.2	0.0335	0.0005
0.3	0.075	323.2	0.0317	0.0005
0.4	0.075	323.2	0.0294	0.0005
0.4	0.025	323.2	0.0305	0.0005
0.5	0.075	323.2	0.0276	0.0005
0.3	0.05	323.2	0.0323	0.0007
0.5	0.05	323.2	0.0281	0.0005
0.5	0	323.2	0.0291	0.0005
0.4	0	323.2	0.0309	0.0005
0.5	0.025	323.2	0.0287	0.0005
0.3	0	323.2	0.0332	0.0005
0.4	0.05	323.2	0.03	0.0005
0.3	0.025	323.2	0.0327	0.0005

System: 1-(dimethylamino)-2-propanol + water + 1-butyl-3-methylimidazolium glycinate; phases: Liquid, Air at 1 atmosphere
Property: Surface tension liquid-gas, N/m (Liquid); method: Wilhelmy Plate
Mass fraction of 1-(dimethylamino)-2-propanol	Mass fraction of 1-butyl-3-methylimidazolium glycinate	Temperature, K	Surface tension liquid-gas, N/m	uncertainty
0.3	0	303.2	0.0362	0.0005
0.4	0	303.2	0.0335	0.0005
0.5	0	303.2	0.0315	0.0005
0.4	0	308.2	0.0327	0.0005
0.3	0	308.2	0.0354	0.0005
0.5	0	308.2	0.031	0.0005
0.4	0	313.2	0.0321	0.0005
0.5	0	313.2	0.0302	0.0005
0.3	0	313.2	0.0346	0.0005
0.4	0	318.2	0.0315	0.0005
0.3	0	318.2	0.0339	0.0005
0.5	0	318.2	0.0296	0.0005
0.3	0	323.2	0.0332	0.0005
0.5	0	323.2	0.0291	0.0005
0.4	0	323.2	0.0309	0.0005
0.3	0.025	303.2	0.0358	0.0005
0.3	0.025	308.2	0.0351	0.0005
0.3	0.025	313.2	0.0343	0.0005
0.3	0.025	318.2	0.0336	0.0005
0.3	0.025	323.2	0.0329	0.0005
0.3	0.05	303.2	0.0354	0.0005
0.3	0.05	308.2	0.0347	0.0005
0.3	0.05	313.2	0.0339	0.0005
0.3	0.05	318.2	0.0332	0.0005
0.3	0.05	323.2	0.0325	0.0008
0.3	0.075	303.2	0.0351	0.0005
0.3	0.075	308.2	0.0342	0.0005
0.3	0.075	313.2	0.0335	0.0005
0.3	0.075	318.2	0.0328	0.0005
0.3	0.075	323.2	0.0321	0.0005
0.4	0.025	303.2	0.0332	0.0005
0.4	0.025	308.2	0.0325	0.0005
0.4	0.025	313.2	0.0317	0.0005
0.4	0.025	318.2	0.0311	0.0005
0.4	0.025	323.2	0.0305	0.0005
0.4	0.05	303.2	0.0328	0.0005
0.4	0.05	308.2	0.0321	0.0005
0.4	0.05	313.2	0.0313	0.0005
0.4	0.05	318.2	0.0307	0.0005
0.4	0.05	323.2	0.0301	0.0005
0.4	0.075	303.2	0.0324	0.0005
0.4	0.075	308.2	0.0317	0.0005
0.4	0.075	313.2	0.031	0.0005
0.4	0.075	318.2	0.0304	0.0005
0.4	0.075	323.2	0.0297	0.0005
0.5	0.025	303.2	0.0311	0.0005
0.5	0.025	308.2	0.0305	0.0005
0.5	0.025	313.2	0.0298	0.0005
0.5	0.025	318.2	0.0292	0.0005
0.5	0.025	323.2	0.0286	0.0005
0.5	0.05	303.2	0.0308	0.0005
0.5	0.05	308.2	0.0301	0.0005
0.5	0.05	313.2	0.0294	0.0005
0.5	0.05	318.2	0.0287	0.0005
0.5	0.05	323.2	0.0282	0.0005
0.5	0.075	303.2	0.0304	0.0005
0.5	0.075	308.2	0.0297	0.0005
0.5	0.075	313.2	0.029	0.0005
0.5	0.075	318.2	0.0284	0.0005
0.5	0.075	323.2	0.0278	0.0005

System: 1-(dimethylamino)-2-propanol + water + 1-butyl-3-methylimidazolium L-lysinate; phases: Liquid, Air at 1 atmosphere
Property: Surface tension liquid-gas, N/m (Liquid); method: Wilhelmy Plate
Mass fraction of 1-(dimethylamino)-2-propanol	Mass fraction of 1-butyl-3-methylimidazolium L-lysinate	Temperature, K	Surface tension liquid-gas, N/m	uncertainty
0.3	0	303.2	0.0362	0.0005
0.4	0	303.2	0.0335	0.0005
0.5	0	303.2	0.0315	0.0005
0.4	0	308.2	0.0327	0.0005
0.3	0	308.2	0.0354	0.0005
0.5	0	308.2	0.031	0.0005
0.4	0	313.2	0.0321	0.0005
0.5	0	313.2	0.0302	0.0005
0.3	0	313.2	0.0346	0.0005
0.4	0	318.2	0.0315	0.0005
0.3	0	318.2	0.0339	0.0005
0.5	0	318.2	0.0296	0.0005
0.3	0	323.2	0.0332	0.0005
0.5	0	323.2	0.0291	0.0005
0.4	0	323.2	0.0309	0.0005
0.3	0.025	303.2	0.0357	0.0005
0.3	0.025	308.2	0.0349	0.0005
0.3	0.025	313.2	0.0341	0.0005
0.3	0.025	318.2	0.0334	0.0005
0.3	0.025	323.2	0.0328	0.0005
0.3	0.05	303.2	0.0352	0.0005
0.3	0.05	308.2	0.0345	0.0005
0.3	0.05	313.2	0.0337	0.0005
0.3	0.05	318.2	0.033	0.0005
0.3	0.05	323.2	0.0324	0.0005
0.3	0.075	303.2	0.0348	0.0005
0.3	0.075	308.2	0.0341	0.0005
0.3	0.075	313.2	0.0333	0.0005
0.3	0.075	318.2	0.0327	0.0005
0.3	0.075	323.2	0.032	0.0005
0.4	0.025	303.2	0.0332	0.0005
0.4	0.025	308.2	0.0324	0.0005
0.4	0.025	313.2	0.0317	0.0005
0.4	0.025	318.2	0.0312	0.0005
0.4	0.025	323.2	0.0305	0.0005
0.4	0.05	303.2	0.0328	0.0005
0.4	0.05	308.2	0.0321	0.0005
0.4	0.05	313.2	0.0314	0.0005
0.4	0.05	318.2	0.0308	0.0005
0.4	0.05	323.2	0.0302	0.0005
0.4	0.075	303.2	0.0324	0.0005
0.4	0.075	308.2	0.0317	0.0005
0.4	0.075	313.2	0.0311	0.0005
0.4	0.075	318.2	0.0304	0.0005
0.4	0.075	323.2	0.0299	0.0005
0.5	0.025	303.2	0.0311	0.0005
0.5	0.025	308.2	0.0304	0.0005
0.5	0.025	313.2	0.0298	0.0005
0.5	0.025	318.2	0.0292	0.0005
0.5	0.025	323.2	0.0287	0.0005
0.5	0.05	303.2	0.0307	0.0005
0.5	0.05	308.2	0.0301	0.0005
0.5	0.05	313.2	0.0294	0.0005
0.5	0.05	318.2	0.0288	0.0005
0.5	0.05	323.2	0.0283	0.0006
0.5	0.075	303.2	0.0303	0.0005
0.5	0.075	308.2	0.0297	0.0005
0.5	0.075	313.2	0.0291	0.0005
0.5	0.075	318.2	0.0285	0.0005
0.5	0.075	323.2	0.0279	0.0005

System: water + tetramethylammonium glycinate; phases: Liquid, Air at 1 atmosphere
Property: Surface tension liquid-gas, N/m (Liquid); method: Wilhelmy Plate
Mass fraction of tetramethylammonium glycinate	Temperature, K	Surface tension liquid-gas, N/m	uncertainty
0.025	303.2	0.0678	0.001
0.05	303.2	0.0654	0.0004
0.075	303.2	0.0641	0.0008
0.1	303.2	0.0627	0.0005
0.15	303.2	0.0616	0.0005
0.2	303.2	0.0602	0.0003
0.4	303.2	0.0585	0.0003
0.6	303.2	0.0576	0.0004
0.8	303.2	0.0569	0.0004
1	303.2	0.0562	0.0004
0.025	308.2	0.0666	0.001
0.05	308.2	0.0643	0.0008
0.075	308.2	0.0629	0.0006
0.1	308.2	0.0616	0.0004
0.15	308.2	0.0606	0.0004
0.2	308.2	0.0595	0.0003
0.4	308.2	0.0578	0.0003
0.6	308.2	0.0569	0.0004
0.8	308.2	0.0563	0.0004
1	308.2	0.0556	0.0004
0.025	313.2	0.0654	0.0009
0.05	313.2	0.0633	0.0007
0.075	313.2	0.0622	0.0006
0.1	313.2	0.0606	0.0004
0.15	313.2	0.0597	0.0004
0.2	313.2	0.0588	0.0003
0.4	313.2	0.0571	0.0003
0.6	313.2	0.0562	0.0004
0.8	313.2	0.0558	0.0004
1	313.2	0.0551	0.0004
0.025	318.2	0.0643	0.0007
0.05	318.2	0.0625	0.0007
0.075	318.2	0.061	0.0006
0.1	318.2	0.0598	0.0004
0.15	318.2	0.0589	0.0004
0.2	318.2	0.0581	0.0003
0.4	318.2	0.0565	0.0003
0.6	318.2	0.0558	0.0004
0.8	318.2	0.0552	0.0004
1	318.2	0.0545	0.0004
0.025	323.2	0.0623	0.0006
0.05	323.2	0.0611	0.0006
0.075	323.2	0.06	0.0004
0.1	323.2	0.0587	0.0004
0.15	323.2	0.0579	0.0004
0.2	323.2	0.0571	0.0003
0.4	323.2	0.056	0.0003
0.6	323.2	0.0554	0.0004
0.8	323.2	0.0546	0.0004
1	323.2	0.0539	0.0004

System: water + 1-butyl-3-methylimidazolium glycinate; phases: Liquid, Air at 1 atmosphere
Property: Surface tension liquid-gas, N/m (Liquid); method: Wilhelmy Plate
Mass fraction of 1-butyl-3-methylimidazolium glycinate	Temperature, K	Surface tension liquid-gas, N/m	uncertainty
0.025	303.2	0.0594	0.0011
0.05	303.2	0.0567	0.0006
0.075	303.2	0.0536	0.0013
0.1	303.2	0.0507	0.0008
0.15	303.2	0.0483	0.0006
0.2	303.2	0.0468	0.0003
0.4	303.2	0.046	0.0004
0.6	303.2	0.0455	0.0004
0.8	303.2	0.0447	0.0005
1	303.2	0.0429	0.0005
0.025	308.2	0.0568	0.001
0.05	308.2	0.0543	0.0011
0.075	308.2	0.0516	0.0011
0.1	308.2	0.0492	0.0006
0.15	308.2	0.0473	0.0005
0.2	308.2	0.0459	0.0003
0.4	308.2	0.0453	0.0004
0.6	308.2	0.0449	0.0004
0.8	308.2	0.0441	0.0005
1	308.2	0.0426	0.0005
0.025	313.2	0.0541	0.001
0.05	313.2	0.0519	0.001
0.075	313.2	0.0495	0.0009
0.1	313.2	0.0477	0.0005
0.15	313.2	0.0462	0.0004
0.2	313.2	0.045	0.0003
0.4	313.2	0.0446	0.0004
0.6	313.2	0.0443	0.0004
0.8	313.2	0.0435	0.0005
1	313.2	0.0424	0.0005
0.025	318.2	0.0515	0.0008
0.05	318.2	0.0496	0.0008
0.075	318.2	0.0478	0.0007
0.1	318.2	0.0464	0.0005
0.15	318.2	0.0451	0.0004
0.2	318.2	0.0442	0.0003
0.4	318.2	0.0438	0.0004
0.6	318.2	0.0434	0.0004
0.8	318.2	0.0428	0.0005
1	318.2	0.0421	0.0005
0.025	323.2	0.0489	0.0007
0.05	323.2	0.0473	0.0022
0.075	323.2	0.0461	0.0004
0.1	323.2	0.0451	0.0004
0.15	323.2	0.044	0.0004
0.2	323.2	0.0434	0.0003
0.4	323.2	0.043	0.0004
0.6	323.2	0.0426	0.0004
0.8	323.2	0.0421	0.0005
1	323.2	0.0417	0.0005

System: water + 1-butyl-3-methylimidazolium L-lysinate; phases: Liquid, Air at 1 atmosphere
Property: Surface tension liquid-gas, N/m (Liquid); method: Wilhelmy Plate
Mass fraction of 1-butyl-3-methylimidazolium L-lysinate	Temperature, K	Surface tension liquid-gas, N/m	uncertainty
0.025	303.2	0.0625	0.0011
0.05	303.2	0.0599	0.0011
0.075	303.2	0.0573	0.0008
0.1	303.2	0.0551	0.0007
0.15	303.2	0.0525	0.0006
0.2	303.2	0.0501	0.0004
0.4	303.2	0.0484	0.0004
0.6	303.2	0.0471	0.0004
0.8	303.2	0.0464	0.0005
1	303.2	0.0459	0.0006
0.025	308.2	0.0598	0.0009
0.05	308.2	0.0577	0.001
0.075	308.2	0.0552	0.0009
0.1	308.2	0.0533	0.0006
0.15	308.2	0.0509	0.0005
0.2	308.2	0.0491	0.0004
0.4	308.2	0.0476	0.0004
0.6	308.2	0.0464	0.0004
0.8	308.2	0.0459	0.0005
1	308.2	0.0455	0.0005
0.025	313.2	0.0573	0.0007
0.05	313.2	0.0555	0.0009
0.075	313.2	0.0532	0.0009
0.1	313.2	0.0515	0.0006
0.15	313.2	0.0493	0.0005
0.2	313.2	0.0481	0.0003
0.4	313.2	0.0468	0.0004
0.6	313.2	0.0457	0.0004
0.8	313.2	0.0455	0.0005
1	313.2	0.0451	0.0005
0.025	318.2	0.0543	0.0008
0.05	318.2	0.0525	0.0008
0.075	318.2	0.0508	0.0007
0.1	318.2	0.0494	0.0005
0.15	318.2	0.0477	0.0004
0.2	318.2	0.0468	0.0003
0.4	318.2	0.0459	0.0004
0.6	318.2	0.0453	0.0004
0.8	318.2	0.045	0.0005
1	318.2	0.0447	0.0005
0.025	323.2	0.0511	0.0007
0.05	323.2	0.0496	0.0014
0.075	323.2	0.0485	0.0004
0.1	323.2	0.0473	0.0004
0.15	323.2	0.0462	0.0004
0.2	323.2	0.0455	0.0003
0.4	323.2	0.0451	0.0004
0.6	323.2	0.0449	0.0004
0.8	323.2	0.0446	0.0005
1	323.2	0.0442	0.0005
