Measured thermophysical data. Vapor Pressure Measurements for Binary Mixtures Containing Ionic Liquid and Predictions by the Conductor-like Screening Model for Real Solvents
Source: J. Chem. Eng. Data, 2016, 10.1021/acs.jced.5b00760
Compound 1: benzene, C6H6, InChI=1S/C6H6/c1-2-4-6-5-3-1/h1-6H, purity 99.5%
Compound 2: toluene, C7H8, InChI=1S/C7H8/c1-7-5-3-2-4-6-7/h2-6H,1H3, purity 99%
Compound 3: thiophene, C4H4S, InChI=1S/C4H4S/c1-2-4-5-3-1/h1-4H, purity 99%
Compound 4: 1-ethyl-3-methylimidazolium tetrafluoroborate, C6H11BF4N2, InChI=1S/C6H11N2.BF4/c1-3-8-5-4-7(2)6-8;2-1(3,4)5/h4-6H,3H2,1-2H3;/q+1;-1, purity 99%
Compound 5: water, H2O, InChI=1S/H2O/h1H2, purity 99.9%

System: benzene; phases: Liquid, Gas
Property: Vapor or sublimation pressure, kPa (Liquid); method: Closed cell (Static) method
Temperature, K	Vapor or sublimation pressure, kPa	uncertainty
303.15	15.63	0.6
313.15	24.45	0.6
323.15	36.6	0.75
333.15	53.12	1.08
343.15	74.82	1.52

System: toluene; phases: Liquid, Gas
Property: Vapor or sublimation pressure, kPa (Liquid); method: Closed cell (Static) method
Temperature, K	Vapor or sublimation pressure, kPa	uncertainty
323.16	12.29	0.6
325.16	13.37	0.6
327.15	14.53	0.6
329.15	15.77	0.6
332.15	17.8	0.6
334.25	19.35	0.6
337.65	22.08	0.6
339.65	23.83	0.6
342.3	26.32	0.6
342.45	26.47	0.6

System: thiophene; phases: Liquid, Gas
Property: Vapor or sublimation pressure, kPa (Liquid); method: Closed cell (Static) method
Temperature, K	Vapor or sublimation pressure, kPa	uncertainty
303.15	13.29	0.6
308.15	16.61	0.6
313.15	20.59	0.6
318.15	25.31	0.6
323.15	30.87	0.64
328.15	37.4	0.77
333.15	44.98	0.92

System: water; phases: Liquid, Gas
Property: Vapor or sublimation pressure, kPa (Liquid); method: Closed cell (Static) method
Temperature, K	Vapor or sublimation pressure, kPa	uncertainty
322.13	11.12	0.6
329.07	16.75	0.6
337.68	24.18	0.6
341.81	29.68	0.61
347.45	37.91	0.78
350.9	43.56	0.89
355.11	51.68	1.05
358.38	58.49	1.19

System: benzene + 1-ethyl-3-methylimidazolium tetrafluoroborate; phases: Gas, Liquid
Property: Vapor or sublimation pressure, kPa (Gas); method: Closed cell (Static) method
Mole fraction of benzene	Temperature, K	Vapor or sublimation pressure, kPa	uncertainty
1	303.15	15.63	0.6
1	313.15	24.45	0.61
1	323.15	36.6	0.76
1	333.15	53.12	1.1
1	343.15	74.82	1.54
0.855	303.15	15.87	1.69
0.855	323.15	36	2.62
0.717	303.15	15.92	1.69
0.717	323.15	35.5	2.51
0.4	323.15	34.81	2.58
0.35	323.15	28.16	2.93
0.35	328.15	35.1	2.62
0.35	333.15	44.14	2.53
0.3	323.15	25.62	2.67
0.3	328.15	29.89	2.11
0.3	333.15	36.4	2.76
0.25	323.15	19.77	2.09
0.25	328.15	23.33	2.44
0.25	333.15	29.44	2.06
0.2	323.15	16.73	1.78
0.2	328.15	19.32	2.05
0.2	333.15	23	2.45
0.15	323.15	13.11	1.42
0.15	328.15	15	1.61
0.15	333.15	19.52	2.06
0.1	323.15	10.99	1.21
0.1	328.15	12.9	1.39
0.1	333.15	15.94	1.7

System: toluene + 1-ethyl-3-methylimidazolium tetrafluoroborate; phases: Gas, Liquid
Property: Vapor or sublimation pressure, kPa (Gas); method: Closed cell (Static) method
Mole fraction of toluene	Temperature, K	Vapor or sublimation pressure, kPa	uncertainty
1	323.16	12.29	0.6
1	325.16	13.37	0.6
1	327.15	14.53	0.6
1	329.15	15.77	0.6
1	332.15	17.8	0.6
1	334.25	19.35	0.61
1	337.65	22.08	0.61
1	339.65	23.83	0.61
1	342.3	26.32	0.61
1	342.45	26.47	0.61
0.853	323.15	12.13	1.31
0.853	325.35	13.48	1.45
0.5	323.15	12.16	1.32
0.35	323.15	12.36	1.34
0.3	323.15	10.45	1.15
0.3	328.15	14.05	1.51
0.3	333.15	16.18	1.72
0.2	323.15	9.03	1
0.2	328.15	10.96	1.2
0.2	333.15	13.17	1.42
0.15	323.15	8.43	0.95
0.15	328.15	9.67	1.08
0.15	333.15	12.26	1.33
0.1	323.15	6.06	0.71
0.1	328.15	7.52	0.86
0.1	333.15	9.22	1.03
0.05	323.15	5.22	0.62
0.05	328.15	6.75	0.78
0.05	333.15	8.57	0.96

System: thiophene + 1-ethyl-3-methylimidazolium tetrafluoroborate; phases: Gas, Liquid
Property: Vapor or sublimation pressure, kPa (Gas); method: Closed cell (Static) method
Mole fraction of thiophene	Temperature, K	Vapor or sublimation pressure, kPa	uncertainty
1	303.15	13.29	0.6
1	308.15	16.61	0.6
1	313.15	20.59	0.61
1	318.15	25.31	0.61
1	323.15	30.87	0.65
1	328.15	37.4	0.78
1	333.15	44.98	0.94
0.702	323.15	30.31	2.12
0.6	303.15	13.1	1.41
0.6	313.15	20.55	2.16
0.6	323.15	29.94	1.98
0.55	303.15	12.34	1.33
0.55	313.15	19.62	2.06
0.55	323.15	29.46	2.09
0.5	303.15	11.12	1.21
0.5	313.15	18.02	1.9
0.5	323.15	27.84	2.88
0.45	303.15	10.14	1.11
0.45	313.15	15.1	1.61
0.45	323.15	25.42	2.64
0.4	303.15	9.16	1.02
0.4	313.15	13.38	1.44
0.4	323.15	23.11	2.41
0.35	303.15	8.23	0.92
0.35	313.15	12.01	1.3
0.35	323.15	20.76	2.18
0.3	303.15	7.39	0.84
0.3	313.15	10.96	1.2
0.3	323.15	17.87	1.9
0.25	303.15	6.53	0.75
0.25	313.15	9.88	1.09
0.25	323.15	14.38	1.55
0.2	303.15	5.73	0.67
0.2	313.15	8.83	0.98
0.2	323.15	12.02	1.31
0.15	303.15	5.01	0.62
0.15	313.15	7.91	0.89
0.15	323.15	11.45	1.25
0.1	303.15	4.23	0.6
0.1	313.15	7.05	0.81
0.1	323.15	10.09	1.11

System: water + 1-ethyl-3-methylimidazolium tetrafluoroborate; phases: Gas, Liquid
Property: Vapor or sublimation pressure, kPa (Gas); method: Closed cell (Static) method
Mole fraction of water	Temperature, K	Vapor or sublimation pressure, kPa	uncertainty
1	322.13	11.12	0.6
1	329.07	16.75	0.6
1	337.68	24.18	0.61
1	341.81	29.68	0.62
1	347.45	37.91	0.79
1	350.9	43.56	0.9
1	355.11	51.68	1.06
1	358.38	58.49	1.21
0.99	328.15	15.55	1.66
0.99	333.61	20.31	2.14
0.99	339.2	26.21	2.72
0.99	344.61	33.15	2.86
0.99	348.7	39.25	2.5
0.99	351.81	43.88	2.72
0.99	355.18	50.11	2.83
0.99	363.78	70.12	3.04
0.978	325.19	12.36	1.34
0.978	329.76	15.79	1.68
0.978	333.35	18.8	1.98
0.978	338.64	24.27	2.53
0.978	343.09	28.29	2.93
0.978	345.79	31.96	2.3
0.978	350.72	39.36	2.83
0.978	354.88	46.81	2.79
0.963	323.14	11.62	1.26
0.963	328.7	15.28	1.63
0.963	334.47	19.34	2.03
0.963	337.99	23.38	2.44
0.963	342.87	28.64	2.96
0.963	345.64	32.58	2.37
0.963	347.94	35.77	2.69
0.963	349.96	39.36	2.04
0.963	352.03	43.23	2.43
0.963	354.81	47.37	2.85
0.917	326.15	12.7	1.37
0.917	329.11	14.92	1.59
0.917	332.99	17.97	1.9
0.917	336.02	20.54	2.15
0.917	339.02	23.72	2.47
0.917	342.11	26.62	2.76
0.917	346.54	33.04	2.4
0.917	349.52	37.87	2.89
0.917	352.54	42.17	2.33
0.8	323.15	9.66	1.07
0.8	328.15	12.4	1.34
0.8	333.15	15.91	1.69
0.7	323.15	8.39	0.94
0.7	328.15	10.97	1.2
0.7	333.15	13.74	1.47
0.6	323.15	7.58	0.86
0.6	328.15	9.81	1.08
0.6	333.15	11.72	1.27
0.5	323.15	7.28	0.83
0.5	328.15	9.27	1.03
0.5	333.15	11.57	1.26
0.5	338.15	14.22	1.52
0.5	343.15	17.75	1.88
0.4	323.15	5.66	0.67
0.4	328.15	7.3	0.83
0.4	333.15	9.37	1.04
