Measured thermophysical data. Activity Coefficients at Infinite Dilution of Various Solutes in Tetrapropylammonium Bromide + 1,6-Hexanediol Deep Eutectic Solvent
Source: J. Chem. Eng. Data, 2018, 10.1021/acs.jced.8b00600
Compound 1: hexane, C6H14, InChI=1S/C6H14/c1-3-5-6-4-2/h3-6H2,1-2H3, purity 99%
Compound 2: heptane, C7H16, InChI=1S/C7H16/c1-3-5-7-6-4-2/h3-7H2,1-2H3, purity 99.9%
Compound 3: octane, C8H18, InChI=1S/C8H18/c1-3-5-7-8-6-4-2/h3-8H2,1-2H3, purity 99.9%
Compound 4: cyclopentane, C5H10, InChI=1S/C5H10/c1-2-4-5-3-1/h1-5H2, purity 98.5%
Compound 5: cyclohexane, C6H12, InChI=1S/C6H12/c1-2-4-6-5-3-1/h1-6H2, purity 99%
Compound 6: cycloheptane, C7H14, InChI=1S/C7H14/c1-2-4-6-7-5-3-1/h1-7H2, purity 99.9%
Compound 7: cyclooctane, C8H16, InChI=1S/C8H16/c1-2-4-6-8-7-5-3-1/h1-8H2, purity 99.5%
Compound 8: hex-1-ene, C6H12, InChI=1S/C6H12/c1-3-5-6-4-2/h3H,1,4-6H2,2H3, purity 98%
Compound 9: 1-heptene, C7H14, InChI=1S/C7H14/c1-3-5-7-6-4-2/h3H,1,4-7H2,2H3, purity 98%
Compound 10: 1-heptyne, C7H12, InChI=1S/C7H12/c1-3-5-7-6-4-2/h1H,4-7H2,2H3, purity 99.9%
Compound 11: 1-octyne, C8H14, InChI=1S/C8H14/c1-3-5-7-8-6-4-2/h1H,4-8H2,2H3, purity 99.9%
Compound 12: ethanol, C2H6O, InChI=1S/C2H6O/c1-2-3/h3H,2H2,1H3, purity 99.9%
Compound 13: methanol, CH4O, InChI=1S/CH4O/c1-2/h2H,1H3, purity 99.9%
Compound 14: propan-1-ol, C3H8O, InChI=1S/C3H8O/c1-2-3-4/h4H,2-3H2,1H3, purity 99.5%
Compound 15: propan-2-ol, C3H8O, InChI=1S/C3H8O/c1-3(2)4/h3-4H,1-2H3, purity 99.5%
Compound 16: benzene, C6H6, InChI=1S/C6H6/c1-2-4-6-5-3-1/h1-6H, purity 99.9%
Compound 17: toluene, C7H8, InChI=1S/C7H8/c1-7-5-3-2-4-6-7/h2-6H,1H3, purity 99.9%
Compound 18: ethylbenzene, C8H10, InChI=1S/C8H10/c1-2-8-6-4-3-5-7-8/h3-7H,2H2,1H3, purity 99.9%
Compound 19: acetone, C3H6O, InChI=1S/C3H6O/c1-3(2)4/h1-2H3, purity 99.9%
Compound 20: butanone, C4H8O, InChI=1S/C4H8O/c1-3-4(2)5/h3H2,1-2H3, purity 99.7%
Compound 21: thiophene, C4H4S, InChI=1S/C4H4S/c1-2-4-5-3-1/h1-4H, purity 99.9%
Compound 22: pyridine, C5H5N, InChI=1S/C5H5N/c1-2-4-6-5-3-1/h1-5H, purity 99.9%
Compound 23: methyl ethanoate, C3H6O2, InChI=1S/C3H6O2/c1-3(4)5-2/h1-2H3, purity 98%
Compound 24: ethyl acetate, C4H8O2, InChI=1S/C4H8O2/c1-3-6-4(2)5/h3H2,1-2H3, purity 99.5%
Compound 25: tetrapropylammonium bromide, C12H28BrN, InChI=1S/C12H28N.BrH/c1-5-9-13(10-6-2,11-7-3)12-8-4;/h5-12H2,1-4H3;1H/q+1;/p-1, purity 99.9%
Compound 26: 1,6-hexanediol, C6H14O2, InChI=1S/C6H14O2/c7-5-3-1-2-4-6-8/h7-8H,1-6H2, purity 99%

System: tetrapropylammonium bromide + 1,6-hexanediol + hexane; phases: Liquid
Fixed: Pressure, kPa = 101.3
Fixed: Mole fraction of hexane = 0
Fixed: Solvent: Mole fraction of tetrapropylammonium bromide = 0.333
Property: Activity coefficient of hexane (Liquid); method: Chromatography
Temperature, K	Activity coefficient of hexane	uncertainty
313.15	28.03	5.68
323.15	21.25	4.31
333.15	19.2	3.89
343.15	18.31	3.71

System: tetrapropylammonium bromide + 1,6-hexanediol + heptane; phases: Liquid
Fixed: Pressure, kPa = 101.3
Fixed: Mole fraction of heptane = 0
Fixed: Solvent: Mole fraction of tetrapropylammonium bromide = 0.333
Property: Activity coefficient of heptane (Liquid); method: Chromatography
Temperature, K	Activity coefficient of heptane	uncertainty
313.15	30.75	6.23
323.15	28.34	5.74
333.15	26.19	5.31
343.15	24.2	4.9

System: tetrapropylammonium bromide + 1,6-hexanediol + octane; phases: Liquid
Fixed: Pressure, kPa = 101.3
Fixed: Mole fraction of octane = 0
Fixed: Solvent: Mole fraction of tetrapropylammonium bromide = 0.333
Property: Activity coefficient of octane (Liquid); method: Chromatography
Temperature, K	Activity coefficient of octane	uncertainty
313.15	40.07	8.12
323.15	37.63	7.63
333.15	35.75	7.25
343.15	32.56	6.6

System: tetrapropylammonium bromide + 1,6-hexanediol + cyclopentane; phases: Liquid
Fixed: Pressure, kPa = 101.3
Fixed: Mole fraction of cyclopentane = 0
Fixed: Solvent: Mole fraction of tetrapropylammonium bromide = 0.333
Property: Activity coefficient of cyclopentane (Liquid); method: Chromatography
Temperature, K	Activity coefficient of cyclopentane	uncertainty
313.15	9.32	1.89
323.15	8.38	1.7
333.15	7.96	1.61
343.15	8.47	1.72

System: tetrapropylammonium bromide + 1,6-hexanediol + cyclohexane; phases: Liquid
Fixed: Pressure, kPa = 101.3
Fixed: Mole fraction of cyclohexane = 0
Fixed: Solvent: Mole fraction of tetrapropylammonium bromide = 0.333
Property: Activity coefficient of cyclohexane (Liquid); method: Chromatography
Temperature, K	Activity coefficient of cyclohexane	uncertainty
313.15	12	2.43
323.15	11.03	2.23
333.15	11.08	2.25
343.15	9.7	1.97

System: tetrapropylammonium bromide + 1,6-hexanediol + cycloheptane; phases: Liquid
Fixed: Pressure, kPa = 101.3
Fixed: Mole fraction of cycloheptane = 0
Fixed: Solvent: Mole fraction of tetrapropylammonium bromide = 0.333
Property: Activity coefficient of cycloheptane (Liquid); method: Chromatography
Temperature, K	Activity coefficient of cycloheptane	uncertainty
313.15	13.58	2.75
323.15	12.71	2.58
333.15	11.97	2.43
343.15	11.37	2.3

System: tetrapropylammonium bromide + 1,6-hexanediol + cyclooctane; phases: Liquid
Fixed: Pressure, kPa = 101.3
Fixed: Mole fraction of cyclooctane = 0
Fixed: Solvent: Mole fraction of tetrapropylammonium bromide = 0.333
Property: Activity coefficient of cyclooctane (Liquid); method: Chromatography
Temperature, K	Activity coefficient of cyclooctane	uncertainty
313.15	16.22	3.29
323.15	15.25	3.09
333.15	14.41	2.92
343.15	13.55	2.75

System: tetrapropylammonium bromide + 1,6-hexanediol + hex-1-ene; phases: Liquid
Fixed: Pressure, kPa = 101.3
Fixed: Mole fraction of hex-1-ene = 0
Fixed: Solvent: Mole fraction of tetrapropylammonium bromide = 0.333
Property: Activity coefficient of hex-1-ene (Liquid); method: Chromatography
Temperature, K	Activity coefficient of hex-1-ene	uncertainty
313.15	14.94	3.03
323.15	13.26	2.69
333.15	13.09	2.65
343.15	12.96	2.63

System: tetrapropylammonium bromide + 1,6-hexanediol + 1-heptene; phases: Liquid
Fixed: Pressure, kPa = 101.3
Fixed: Mole fraction of 1-heptene = 0
Fixed: Solvent: Mole fraction of tetrapropylammonium bromide = 0.333
Property: Activity coefficient of 1-heptene (Liquid); method: Chromatography
Temperature, K	Activity coefficient of 1-heptene	uncertainty
313.15	19.49	3.95
323.15	17.69	3.58
333.15	16.66	3.38
343.15	16.85	3.41

System: tetrapropylammonium bromide + 1,6-hexanediol + 1-heptyne; phases: Liquid
Fixed: Pressure, kPa = 101.3
Fixed: Mole fraction of 1-heptyne = 0
Fixed: Solvent: Mole fraction of tetrapropylammonium bromide = 0.333
Property: Activity coefficient of 1-heptyne (Liquid); method: Chromatography
Temperature, K	Activity coefficient of 1-heptyne	uncertainty
313.15	1.83	0.37
323.15	1.83	0.37
333.15	1.8	0.36
343.15	1.78	0.36

System: tetrapropylammonium bromide + 1,6-hexanediol + 1-octyne; phases: Liquid
Fixed: Pressure, kPa = 101.3
Fixed: Mole fraction of 1-octyne = 0
Fixed: Solvent: Mole fraction of tetrapropylammonium bromide = 0.333
Property: Activity coefficient of 1-octyne (Liquid); method: Chromatography
Temperature, K	Activity coefficient of 1-octyne	uncertainty
313.15	1.66	0.34
323.15	1.66	0.34
333.15	1.65	0.33
343.15	1.64	0.33

System: tetrapropylammonium bromide + 1,6-hexanediol + methanol; phases: Liquid
Fixed: Pressure, kPa = 101.3
Fixed: Mole fraction of methanol = 0
Fixed: Solvent: Mole fraction of tetrapropylammonium bromide = 0.333
Property: Activity coefficient of methanol (Liquid); method: Chromatography
Temperature, K	Activity coefficient of methanol	uncertainty
313.15	0.34	0.07
323.15	0.33	0.07
333.15	0.34	0.07
343.15	0.33	0.07

System: tetrapropylammonium bromide + 1,6-hexanediol + ethanol; phases: Liquid
Fixed: Pressure, kPa = 101.3
Fixed: Mole fraction of ethanol = 0
Fixed: Solvent: Mole fraction of tetrapropylammonium bromide = 0.333
Property: Activity coefficient of ethanol (Liquid); method: Chromatography
Temperature, K	Activity coefficient of ethanol	uncertainty
313.15	0.53	0.11
323.15	0.52	0.11
333.15	0.51	0.1
343.15	0.5	0.1

System: tetrapropylammonium bromide + 1,6-hexanediol + propan-1-ol; phases: Liquid
Fixed: Pressure, kPa = 101.3
Fixed: Mole fraction of propan-1-ol = 0
Fixed: Solvent: Mole fraction of tetrapropylammonium bromide = 0.333
Property: Activity coefficient of propan-1-ol (Liquid); method: Chromatography
Temperature, K	Activity coefficient of propan-1-ol	uncertainty
313.15	0.63	0.13
323.15	0.61	0.12
333.15	0.59	0.12
343.15	0.58	0.12

System: tetrapropylammonium bromide + 1,6-hexanediol + propan-2-ol; phases: Liquid
Fixed: Pressure, kPa = 101.3
Fixed: Mole fraction of propan-2-ol = 0
Fixed: Solvent: Mole fraction of tetrapropylammonium bromide = 0.333
Property: Activity coefficient of propan-2-ol (Liquid); method: Chromatography
Temperature, K	Activity coefficient of propan-2-ol	uncertainty
313.15	0.75	0.15
323.15	0.73	0.15
333.15	0.71	0.14
343.15	0.67	0.14

System: tetrapropylammonium bromide + 1,6-hexanediol + benzene; phases: Liquid
Fixed: Pressure, kPa = 101.3
Fixed: Mole fraction of benzene = 0
Fixed: Solvent: Mole fraction of tetrapropylammonium bromide = 0.333
Property: Activity coefficient of benzene (Liquid); method: Chromatography
Temperature, K	Activity coefficient of benzene	uncertainty
313.15	2.07	0.42
323.15	2.04	0.41
333.15	2.02	0.41
343.15	1.98	0.4

System: tetrapropylammonium bromide + 1,6-hexanediol + toluene; phases: Liquid
Fixed: Pressure, kPa = 101.3
Fixed: Mole fraction of toluene = 0
Fixed: Solvent: Mole fraction of tetrapropylammonium bromide = 0.333
Property: Activity coefficient of toluene (Liquid); method: Chromatography
Temperature, K	Activity coefficient of toluene	uncertainty
313.15	3.06	0.62
323.15	3.03	0.61
333.15	2.97	0.6
343.15	2.92	0.59

System: tetrapropylammonium bromide + 1,6-hexanediol + ethylbenzene; phases: Liquid
Fixed: Pressure, kPa = 101.3
Fixed: Mole fraction of ethylbenzene = 0
Fixed: Solvent: Mole fraction of tetrapropylammonium bromide = 0.333
Property: Activity coefficient of ethylbenzene (Liquid); method: Chromatography
Temperature, K	Activity coefficient of ethylbenzene	uncertainty
313.15	4.56	0.92
323.15	4.45	0.9
333.15	4.36	0.88
343.15	4.25	0.86

System: tetrapropylammonium bromide + 1,6-hexanediol + acetone; phases: Liquid
Fixed: Pressure, kPa = 101.3
Fixed: Mole fraction of acetone = 0
Fixed: Solvent: Mole fraction of tetrapropylammonium bromide = 0.333
Property: Activity coefficient of acetone (Liquid); method: Chromatography
Temperature, K	Activity coefficient of acetone	uncertainty
313.15	1.62	0.33
323.15	1.58	0.32
333.15	1.51	0.3
343.15	1.46	0.29

System: tetrapropylammonium bromide + 1,6-hexanediol + butanone; phases: Liquid
Fixed: Pressure, kPa = 101.3
Fixed: Mole fraction of butanone = 0
Fixed: Solvent: Mole fraction of tetrapropylammonium bromide = 0.333
Property: Activity coefficient of butanone (Liquid); method: Chromatography
Temperature, K	Activity coefficient of butanone	uncertainty
313.15	1.91	0.39
323.15	1.87	0.38
333.15	1.82	0.37
343.15	1.79	0.36

System: tetrapropylammonium bromide + 1,6-hexanediol + thiophene; phases: Liquid
Fixed: Pressure, kPa = 101.3
Fixed: Mole fraction of thiophene = 0
Fixed: Solvent: Mole fraction of tetrapropylammonium bromide = 0.333
Property: Activity coefficient of thiophene (Liquid); method: Chromatography
Temperature, K	Activity coefficient of thiophene	uncertainty
313.15	0.15	0.04
323.15	0.16	0.04
333.15	0.17	0.04
343.15	0.17	0.04

System: tetrapropylammonium bromide + 1,6-hexanediol + pyridine; phases: Liquid
Fixed: Pressure, kPa = 101.3
Fixed: Mole fraction of pyridine = 0
Fixed: Solvent: Mole fraction of tetrapropylammonium bromide = 0.333
Property: Activity coefficient of pyridine (Liquid); method: Chromatography
Temperature, K	Activity coefficient of pyridine	uncertainty
313.15	0.08	0.03
323.15	0.08	0.03
333.15	0.09	0.03
343.15	0.09	0.03

System: tetrapropylammonium bromide + 1,6-hexanediol + methyl ethanoate; phases: Liquid
Fixed: Pressure, kPa = 101.3
Fixed: Mole fraction of methyl ethanoate = 0
Fixed: Solvent: Mole fraction of tetrapropylammonium bromide = 0.333
Property: Activity coefficient of methyl ethanoate (Liquid); method: Chromatography
Temperature, K	Activity coefficient of methyl ethanoate	uncertainty
313.15	0.31	0.07
323.15	0.32	0.07
333.15	0.33	0.07
343.15	0.34	0.07

System: tetrapropylammonium bromide + 1,6-hexanediol + ethyl acetate; phases: Liquid
Fixed: Pressure, kPa = 101.3
Fixed: Mole fraction of ethyl acetate = 0
Fixed: Solvent: Mole fraction of tetrapropylammonium bromide = 0.333
Property: Activity coefficient of ethyl acetate (Liquid); method: Chromatography
Temperature, K	Activity coefficient of ethyl acetate	uncertainty
313.15	0.37	0.08
323.15	0.35	0.07
333.15	0.35	0.07
343.15	0.34	0.07

System: tetrapropylammonium bromide + 1,6-hexanediol; phases: Liquid
Property: Mass density, kg/m3 (Liquid); method: Vibrating tube method
Mole fraction of tetrapropylammonium bromide	Temperature, K	Pressure, kPa	Mass density, kg/m3	uncertainty
0.333	313.15	101.3	1042.25	2.02

System: tetrapropylammonium bromide + 1,6-hexanediol; phases: Liquid
Property: Refractive index (Na D-line) (Liquid); method: Standard Abbe refractometry
Mole fraction of tetrapropylammonium bromide	Temperature, K	Pressure, kPa	Refractive index (Na D-line)	uncertainty
0.333	313.15	101.3	1.47923	0.00202
