Measured thermophysical data. Melting Behavior and Solubility Equilibria of (R)- and (S)-Mefenpyr-diethyl in Ethanol/Water Mixtures
Source: J. Chem. Eng. Data, 2017, 10.1021/acs.jced.7b00819
Compound 1: ethanol, C2H6O, InChI=1S/C2H6O/c1-2-3/h3H,2H2,1H3, purity 99.6%
Compound 2: diethyl 1-(2,4-dichlorophenyl)-5-methyl-4,5-dihydro-1H-pyrazole-3,5-dicarboxylate, C16H18Cl2N2O4, InChI=1S/C16H18Cl2N2O4/c1-4-23-14(21)12-9-16(3,15(22)24-5-2)20(19-12)13-7-6-10(17)8-11(13)18/h6-8H,4-5,9H2,1-3H3, purity 99.3%
Compound 3: diethyl (R)-1-(2,4-dichlorophenyl)-5-methyl-4,5-dihydro-1H-pyrazole-3,5-dicarboxylate, C16H18Cl2N2O4, InChI=1S/C16H18Cl2N2O4/c1-4-23-14(21)12-9-16(3,15(22)24-5-2)20(19-12)13-7-6-10(17)8-11(13)18/h6-8H,4-5,9H2,1-3H3/t16-/m1/s1, purity 99.9%
Compound 4: diethyl (S)-1-(2,4-dichlorophenyl)-5-methyl-4,5-dihydro-1H-pyrazole-3,5-dicarboxylate, C16H18Cl2N2O4, InChI=1S/C16H18Cl2N2O4/c1-4-23-14(21)12-9-16(3,15(22)24-5-2)20(19-12)13-7-6-10(17)8-11(13)18/h6-8H,4-5,9H2,1-3H3/t16-/m0/s1, purity 99.9%
Compound 5: water, H2O, InChI=1S/H2O/h1H2, purity 99.9%

System: diethyl 1-(2,4-dichlorophenyl)-5-methyl-4,5-dihydro-1H-pyrazole-3,5-dicarboxylate; phases: Crystal, Liquid, Air at 1 atmosphere
Property: Normal melting temperature, K (Crystal); method: DTA
Normal melting temperature, K	uncertainty
322.3	0.7

System: diethyl 1-(2,4-dichlorophenyl)-5-methyl-4,5-dihydro-1H-pyrazole-3,5-dicarboxylate; phases: Crystal, Liquid, Air at 1 atmosphere
Property: Molar enthalpy of transition or fusion, kJ/mol (Crystal); method: DSC
Molar enthalpy of transition or fusion, kJ/mol	uncertainty
18.4	1

System: diethyl (S)-1-(2,4-dichlorophenyl)-5-methyl-4,5-dihydro-1H-pyrazole-3,5-dicarboxylate; phases: Crystal, Liquid, Air at 1 atmosphere
Property: Normal melting temperature, K (Crystal); method: DTA
Normal melting temperature, K	uncertainty
303.6	0.7

System: diethyl (S)-1-(2,4-dichlorophenyl)-5-methyl-4,5-dihydro-1H-pyrazole-3,5-dicarboxylate; phases: Crystal, Liquid, Air at 1 atmosphere
Property: Molar enthalpy of transition or fusion, kJ/mol (Crystal); method: DSC
Molar enthalpy of transition or fusion, kJ/mol	uncertainty
24.6	1.1

System: diethyl (R)-1-(2,4-dichlorophenyl)-5-methyl-4,5-dihydro-1H-pyrazole-3,5-dicarboxylate + diethyl (S)-1-(2,4-dichlorophenyl)-5-methyl-4,5-dihydro-1H-pyrazole-3,5-dicarboxylate; phases: Crystal, Crystal of intercomponent compound 1, Liquid, Air at 1 atmosphere
Property: Eutectic temperature, K (Crystal); method: DTA
Eutectic temperature, K	uncertainty
299.9	0.9

System: diethyl (R)-1-(2,4-dichlorophenyl)-5-methyl-4,5-dihydro-1H-pyrazole-3,5-dicarboxylate + diethyl (S)-1-(2,4-dichlorophenyl)-5-methyl-4,5-dihydro-1H-pyrazole-3,5-dicarboxylate; phases: Liquid, Crystal of intercomponent compound 1
Fixed: Pressure, kPa = 100
Property: Solid-liquid equilibrium temperature, K (Liquid); method: DTA
Mole fraction of diethyl (S)-1-(2,4-dichlorophenyl)-5-methyl-4,5-dihydro-1H-pyrazole-3,5-dicarboxylate	Solid-liquid equilibrium temperature, K	uncertainty
0.5	322.3	0.7
0.55	322.2	0.7
0.6	320.9	0.7
0.6	321.9	0.7
0.7	319.4	0.7
0.75	317.6	0.7

System: diethyl (R)-1-(2,4-dichlorophenyl)-5-methyl-4,5-dihydro-1H-pyrazole-3,5-dicarboxylate + diethyl (S)-1-(2,4-dichlorophenyl)-5-methyl-4,5-dihydro-1H-pyrazole-3,5-dicarboxylate; phases: Liquid, Crystal
Fixed: Pressure, kPa = 100
Property: Solid-liquid equilibrium temperature, K (Liquid); method: DTA
Mole fraction of diethyl (S)-1-(2,4-dichlorophenyl)-5-methyl-4,5-dihydro-1H-pyrazole-3,5-dicarboxylate	Solid-liquid equilibrium temperature, K	uncertainty
0.97	302.6	0.7
1	303.6	0.7

System: diethyl (S)-1-(2,4-dichlorophenyl)-5-methyl-4,5-dihydro-1H-pyrazole-3,5-dicarboxylate + ethanol + water; phases: Liquid mixture 1, Liquid mixture 2
Fixed: Pressure, kPa = 100
Property: Liquid-liquid equilibrium temperature, K (Liquid mixture 1); method: VISOBS
Solvent: Mass fraction of ethanol	Mass fraction of diethyl (S)-1-(2,4-dichlorophenyl)-5-methyl-4,5-dihydro-1H-pyrazole-3,5-dicarboxylate	Liquid-liquid equilibrium temperature, K	uncertainty
0.76	0.9	305.6	10
0.76	0.85	306.4	10
0.76	0.8	308	10
0.76	0.715	311.9	10
0.76	0.636	309.9	10
0.76	0.577	298.5	10
0.76	0.526	295.4	10
0.76	0.492	294.4	10
0.76	0.385	290.7	10
0.76	0.255	281	10
0.76	0.099	258.5	10
0.65	0.9	307.9	10.1
0.65	0.85	323.3	10
0.65	0.8	328.7	10
0.65	0.7	355	10
0.65	0.498	351.5	10
0.65	0.399	329.2	10
0.65	0.248	316.8	10
0.65	0.104	285.4	10.1
0.65	0.0497	257.9	10.2
0.65	0.0355	254.3	10.1

System: diethyl 1-(2,4-dichlorophenyl)-5-methyl-4,5-dihydro-1H-pyrazole-3,5-dicarboxylate + ethanol + water; phases: Liquid mixture 1, Liquid mixture 2
Fixed: Pressure, kPa = 100
Property: Liquid-liquid equilibrium temperature, K (Liquid mixture 1); method: VISOBS
Solvent: Mass fraction of ethanol	Mass fraction of diethyl 1-(2,4-dichlorophenyl)-5-methyl-4,5-dihydro-1H-pyrazole-3,5-dicarboxylate	Liquid-liquid equilibrium temperature, K	uncertainty
0.76	0.9	304.8	10
0.76	0.85	307.8	10
0.76	0.8	308	10
0.76	0.73	310.5	10
0.76	0.69	303.3	10
0.76	0.65	305.5	10
0.76	0.619	302.4	10
0.76	0.473	290.9	10
0.76	0.465	293.3	10
0.76	0.338	291.5	10
0.76	0.096	286.9	10
0.76	0.087	290.6	10
0.65	0.9	305.5	10
0.65	0.85	321.3	10
0.65	0.8	324.6	10
0.65	0.732	355	10
0.65	0.508	349.5	10
0.65	0.434	349.4	10
0.65	0.408	342.7	10
0.65	0.246	319.5	10
0.65	0.206	315.6	10
0.65	0.0497	258	10
0.65	0.0352	254.1	10

System: diethyl 1-(2,4-dichlorophenyl)-5-methyl-4,5-dihydro-1H-pyrazole-3,5-dicarboxylate + ethanol + water; phases: Liquid, Crystal
Fixed: Pressure, kPa = 101
Property: Mass fraction of diethyl 1-(2,4-dichlorophenyl)-5-methyl-4,5-dihydro-1H-pyrazole-3,5-dicarboxylate (Liquid); method: gravimetric
Solvent: Mass fraction of ethanol	Temperature, K	Mass fraction of diethyl 1-(2,4-dichlorophenyl)-5-methyl-4,5-dihydro-1H-pyrazole-3,5-dicarboxylate	uncertainty
0.76	298	0.124	0.038
0.65	298	0.0766	0.023
0.76	303	0.315	0.095
0.65	303	0.293	0.09
0.65	301	0.095	0.0296
