Measured thermophysical data. Widespread Solid Solutions of Hexahydrated Cobalt and Nickel Nitrates: Solid Liquid Equilibria at 273.15 and 303.15 K and Characterization of Mixed Crystals of Homogeneous Composition
Source: J. Chem. Eng. Data, 2017, 10.1021/acs.jced.6b00795
Compound 1: cobalt(II) nitrate, CoN2O6, InChI=1S/Co.2NO3/c;2*2-1(3)4/q+2;2*-1, purity 99.4%
Compound 2: nickel(II) nitrate, N2NiO6, InChI=1S/2NO3.Ni/c2*2-1(3)4;/q2*-1;+2, purity 99.9%
Compound 3: water, H2O, InChI=1S/H2O/h1H2, purity 99.8%

System: water + cobalt(II) nitrate + nickel(II) nitrate; phases: Liquid, Crystal of intercomponent compound 1
Fixed: Temperature, K = 303.15
Fixed: Pressure, kPa = 101
Property: Mole fraction of cobalt(II) nitrate (Liquid); method: UV Spectroscopy
Mole fraction of nickel(II) nitrate	Mole fraction of cobalt(II) nitrate	uncertainty
0.0894	0.0021	0.0019
0.0793	0.0149	0.002
0.0754	0.0211	0.0023

System: water + cobalt(II) nitrate + nickel(II) nitrate; phases: Liquid, Crystal of intercomponent compound 2
Fixed: Temperature, K = 303.15
Fixed: Pressure, kPa = 101
Property: Mole fraction of cobalt(II) nitrate (Liquid); method: UV Spectroscopy
Mole fraction of nickel(II) nitrate	Mole fraction of cobalt(II) nitrate	uncertainty
0.0754	0.0211	0.0016
0.069	0.0265	0.0017
0.0662	0.0304	0.0017
0.0582	0.0378	0.0017
0.0493	0.0482	0.0016
0.0315	0.0625	0.0016
0.0084	0.0848	0.0017

System: water + cobalt(II) nitrate + nickel(II) nitrate; phases: Liquid, Crystal of intercomponent compound 1
Fixed: Temperature, K = 273.15
Fixed: Pressure, kPa = 101
Property: Mole fraction of nickel(II) nitrate (Liquid); method: Titration method
Mole fraction of cobalt(II) nitrate	Mole fraction of nickel(II) nitrate	uncertainty
0.0329	0.0462	0.0011
0.0248	0.0535	0.0017
0.0223	0.0557	0.0013
0.0174	0.0594	0.0013
0.0106	0.0645	0.0013
0.0038	0.0695	0.0016
0	0.078	0.001
0.0266	0.0499	0.0016
0.0346	0.0456	0.0013

System: water + cobalt(II) nitrate + nickel(II) nitrate; phases: Liquid, Crystal of intercomponent compound 2
Fixed: Temperature, K = 273.15
Fixed: Pressure, kPa = 101
Property: Mole fraction of cobalt(II) nitrate (Liquid); method: Titration method
Mole fraction of nickel(II) nitrate	Mole fraction of cobalt(II) nitrate	uncertainty
0	0.0751	0.001
0.0071	0.0711	0.0012
0.0115	0.0688	0.0014
0.0216	0.0576	0.0016
0.0281	0.049	0.0014
0.036	0.0431	0.0013
0.0456	0.0346	0.0016
0.0406	0.0388	0.0016

System: water + cobalt(II) nitrate; phases: Liquid, Crystal of intercomponent compound 2
Property: Mole fraction of cobalt(II) nitrate (Liquid); method: Titration method
Temperature, K	Pressure, kPa	Mole fraction of cobalt(II) nitrate	uncertainty
273.15	101	0.0751	0.001

System: water + nickel(II) nitrate; phases: Liquid, Crystal of intercomponent compound 1
Property: Mole fraction of nickel(II) nitrate (Liquid); method: Titration method
Temperature, K	Pressure, kPa	Mole fraction of nickel(II) nitrate	uncertainty
273.15	101	0.078	0.001
