Measured thermophysical data. Vapor Pressure Measurement of Ternary Systems LiCl + [Emim]Cl + H2O, LiBr + [Emim]Cl + H2O, and LiCl + [Emim]Br + H2O
Source: J. Chem. Eng. Data, 2019, 10.1021/acs.jced.8b01217
Compound 1: 1-ethyl-3-methylimidazolium chloride, C6H11ClN2, InChI=1S/C6H11N2.ClH/c1-3-8-5-4-7(2)6-8;/h4-6H,3H2,1-2H3;1H/q+1;/p-1, purity 99%
Compound 2: 1-ethyl-3-methylimidazolium bromide, C6H11BrN2, InChI=1S/C6H11N2.BrH/c1-3-8-5-4-7(2)6-8;/h4-6H,3H2,1-2H3;1H/q+1;/p-1, purity 99%
Compound 3: lithium bromide, BrLi, InChI=1S/BrH.Li/h1H;/q;+1/p-1, purity 99.9%
Compound 4: lithium chloride, ClLi, InChI=1S/ClH.Li/h1H;/q;+1/p-1, purity 99.9%
Compound 5: sodium chloride, ClNa, InChI=1S/ClH.Na/h1H;/q;+1/p-1, purity 99.8%
Compound 6: water, H2O, InChI=1S/H2O/h1H2, purity 99.9%

System: water; phases: Liquid, Gas
Property: Vapor or sublimation pressure, kPa (Liquid); method: Ebulliometric method (Recirculating still)
Temperature, K	Vapor or sublimation pressure, kPa	uncertainty
310.812	6.424	0.128
327.615	15.583	0.268
339.918	27.15	0.466
349.244	41.773	0.702
353.348	47.717	0.806
357.894	57.671	0.975
362.483	68.155	1.148
366.811	80.611	1.355
370.966	93.23	1.559
375.037	107.243	1.782

System: lithium chloride + 1-ethyl-3-methylimidazolium chloride + water; phases: Liquid, Gas
Fixed: Solvent: Mass ratio of component to other component of binary solvent of lithium chloride = 2
Property: Vapor or sublimation pressure, kPa (Liquid); method: Ebulliometric method (Recirculating still)
Temperature, K	Mass fraction of water	Vapor or sublimation pressure, kPa	uncertainty
314.79	0.7	6.231	0.607
339.51	0.7	18.487	0.614
348.58	0.7	26.621	0.631
356.03	0.7	35.393	0.648
361.45	0.7	43.619	0.762
370.97	0.7	60.479	1.034
374.89	0.7	68.947	1.184
378.4	0.7	77.499	1.328
380.82	0.7	84.03	1.442
384.28	0.7	94.066	1.608
387.22	0.7	103.313	1.759
326.4	0.6	5.959	0.605
350.35	0.6	15.758	0.611
363.16	0.6	25.295	0.626
374.95	0.6	38.631	0.671
378.44	0.6	43.499	0.741
387.35	0.6	58.865	1.005
392.15	0.6	68.762	1.154
395.83	0.6	77.85	1.33
399.75	0.6	87.38	1.489
402.12	0.6	94.763	1.615
404.92	0.6	102.508	1.734
329.15	0.5	3.988	0.604
360.67	0.5	14.713	0.61
375.01	0.5	25.751	0.626
383.78	0.5	35.621	0.643
391.52	0.5	46.787	0.811
398.94	0.5	60.531	1.026
401.04	0.5	65.255	1.138
404.92	0.5	74.788	1.261
408.97	0.5	85.592	1.483
411.76	0.5	92.357	1.577
414.9	0.5	102.744	1.756
358.3	0.4	4.291	0.604
387.33	0.4	15.217	0.611
399.97	0.4	26.177	0.631
409.45	0.4	38.048	0.661
414.19	0.4	45.384	0.795
419.71	0.4	56.33	0.983
424.52	0.4	68.202	1.184
427.96	0.4	77.633	1.34
430.07	0.4	83.542	1.45
432.37	0.4	91.622	1.591
435.48	0.4	102.653	1.764

System: lithium chloride + 1-ethyl-3-methylimidazolium bromide + water; phases: Liquid, Gas
Fixed: Solvent: Mass ratio of component to other component of binary solvent of lithium chloride = 2
Property: Vapor or sublimation pressure, kPa (Liquid); method: Ebulliometric method (Recirculating still)
Temperature, K	Mass fraction of water	Vapor or sublimation pressure, kPa	uncertainty
317.62	0.7	5.605	0.606
340.13	0.7	16.318	0.612
347.83	0.7	23.043	0.632
360.83	0.7	39.338	0.68
366.38	0.7	47.923	0.831
369.33	0.7	54.401	0.952
375.51	0.7	67.922	1.168
378.17	0.7	74.928	1.291
381.66	0.7	84.081	1.444
384.49	0.7	93.067	1.595
387.49	0.7	102.098	1.735
334.41	0.6	7.813	0.607
351.48	0.6	16.547	0.614
364.17	0.6	27.513	0.631
371.73	0.6	36.794	0.652
378.75	0.6	47.78	0.834
383.52	0.6	56.655	0.976
388.74	0.6	67.505	1.153
391.87	0.6	74.838	1.277
395.37	0.6	84.911	1.457
398.85	0.6	94.677	1.614
401.18	0.6	101.844	1.733
338.81	0.5	6.484	0.606
360.46	0.5	16.111	0.612
372.71	0.5	26.177	0.628
382.27	0.5	37.057	0.647
387.83	0.5	45.072	0.778
394.24	0.5	55.702	0.96
399.47	0.5	67.197	1.145
403.33	0.5	75.069	1.28
407.25	0.5	84.707	1.442
411.09	0.5	95.214	1.626
412.75	0.5	101.639	1.761
345.52	0.4	5.01	0.605
370.19	0.4	14.012	0.61
385.43	0.4	24.704	0.623
395.21	0.4	34.264	0.641
404.29	0.4	46.018	0.789
410.9	0.4	56.474	0.962
417.16	0.4	66.885	1.135
421.14	0.4	75.464	1.288
425.9	0.4	86.981	1.476
428.47	0.4	93.386	1.579
431.27	0.4	100.238	1.688

System: lithium bromide + 1-ethyl-3-methylimidazolium chloride + water; phases: Liquid, Gas
Fixed: Solvent: Mass ratio of component to other component of binary solvent of lithium bromide = 2
Property: Vapor or sublimation pressure, kPa (Liquid); method: Ebulliometric method (Recirculating still)
Temperature, K	Mass fraction of water	Vapor or sublimation pressure, kPa	uncertainty
303.1	0.7	3.507	0.605
335.22	0.7	17.534	0.613
347.44	0.7	30.13	0.64
355.32	0.7	42	0.736
361.18	0.7	53.332	0.927
364.34	0.7	60.291	1.051
368.47	0.7	70.6	1.223
371.74	0.7	79.772	1.378
374.27	0.7	87.5	1.51
376.01	0.7	93.267	1.626
378.43	0.7	103.11	1.792
302.4	0.6	3.072	0.604
336.03	0.6	15.265	0.61
347.7	0.6	25.061	0.628
355.67	0.6	34.823	0.648
362.63	0.6	45.309	0.786
367.93	0.6	55.055	0.954
373.75	0.6	67.56	1.162
377.45	0.6	76.675	1.33
379.95	0.6	84.17	1.431
381.91	0.6	90.647	1.555
385.52	0.6	103.025	1.765
313.28	0.5	3.601	0.604
333.6	0.5	9.961	0.607
349.37	0.5	20	0.62
361.49	0.5	33.293	0.638
367.25	0.5	42.215	0.738
372.97	0.5	52.54	0.896
377.74	0.5	62.719	1.088
382.58	0.5	74.71	1.268
385.06	0.5	81.575	1.421
388.62	0.5	92.345	1.621
391.17	0.5	102.945	1.966
328.11	0.4	4.428	0.604
353.24	0.4	12.99	0.609
367.33	0.4	22.865	0.623
377.6	0.4	33.425	0.641
384.13	0.4	42.433	0.736
389.78	0.4	51.901	0.9
395.81	0.4	64.294	1.106
399.22	0.4	72.566	1.251
403.33	0.4	83.467	1.426
406.58	0.4	91.894	1.572
409.91	0.4	102.924	1.759

System: sodium chloride + water; phases: Liquid, Gas
Fixed: Mass fraction of sodium chloride = 0.25
Property: Vapor or sublimation pressure, kPa (Liquid); method: Ebulliometric method (Recirculating still)
Temperature, K	Vapor or sublimation pressure, kPa	uncertainty
312.06	5.52	0.606
331.875	15.027	0.612
343.865	25.337	0.63
353.723	38.196	0.666
358.232	46.516	0.812
364.911	58.691	1.014
369.242	70.016	1.212
373.953	82.384	1.418
376.823	92.369	1.595
379.443	101.084	1.713
381.986	107.277	1.799
