Measured thermophysical data. Liquid Phase Equilibria of the Water + Propionic or Butyric Acid + Methyl tert-Butyl Ketone Ternary Systems at (298.15 and 323.15) K
Source: J. Chem. Eng. Data, 2015, 10.1021/acs.jced.5b00214
Compound 1: 3,3-dimethyl-2-butanone, C6H12O, InChI=1S/C6H12O/c1-5(7)6(2,3)4/h1-4H3, purity 98%
Compound 2: water, H2O, InChI=1S/H2O/h1H2, purity 99.8%
Compound 3: propanoic acid, C3H6O2, InChI=1S/C3H6O2/c1-2-3(4)5/h2H2,1H3,(H,4,5), purity 99.5%
Compound 4: butanoic acid, C4H8O2, InChI=1S/C4H8O2/c1-2-3-4(5)6/h2-3H2,1H3,(H,5,6), purity 99.5%

System: 3,3-dimethyl-2-butanone + propanoic acid + water; phases: Liquid mixture 1, Liquid mixture 2
Fixed: Pressure, kPa = 101
Property: Mass fraction of water (Liquid mixture 1); method: Chromatography
Property: Mass fraction of water (Liquid mixture 2); method: Chromatography
Property: Mass fraction of propanoic acid (Liquid mixture 2); method: Chromatography
Temperature, K	Mass fraction of propanoic acid	Mass fraction of water	uncertainty	Mass fraction of water	uncertainty	Mass fraction of propanoic acid	uncertainty
298.15	0	0.0147	0.0054	0.9829	0.0054	0	
298.15	0.1426	0.0587	0.0058	0.9255	0.0082	0.0553	
298.15	0.201	0.0796	0.0057	0.9002	0.008	0.08	
298.15	0.3142	0.1142	0.0061	0.8426	0.0079	0.1317	
298.15	0.2601	0.0975	0.0057	0.8723	0.0081	0.1046	
298.15	0.3636	0.1488	0.0076	0.8098	0.008	0.1636	
298.15	0.4259	0.2436	0.012	0.7145	0.0088	0.2484	
298.15	0.4052	0.2032	0.0098	0.7415	0.0083	0.2263	
323.15	0	0.0194	0.0054	0.9851	0.0054	0	
323.15	0.0238	0.0248	0.0055	0.9781	0.0073	0.0103	
323.15	0.0738	0.0366	0.0056	0.9596	0.0077	0.0285	
323.15	0.1691	0.088	0.006	0.9172	0.0079	0.0691	
323.15	0.1138	0.0504	0.0062	0.9416	0.0078	0.0461	
323.15	0.2109	0.0963	0.0062	0.901	0.0081	0.0842	
323.15	0.3583	0.1842	0.0065	0.7896	0.0083	0.1839	
323.15	0.2861	0.1499	0.0064	0.8636	0.0082	0.1177	
323.15	0.3992	0.2226	0.0081	0.7561	0.0083	0.2114	
298.15	0.0248	0.02	0.0056	0.9771	0.0072	0.0104	
323.15	0.4318	0.2633	0.0088	0.6763	0.0084	0.2838	
298.15	0.082	0.0356	0.0057	0.9557	0.0082	0.0312	

System: 3,3-dimethyl-2-butanone + butanoic acid + water; phases: Liquid mixture 2, Liquid mixture 1
Fixed: Pressure, kPa = 101
Property: Mass fraction of water (Liquid mixture 2); method: Chromatography
Property: Mass fraction of water (Liquid mixture 1); method: Chromatography
Property: Mass fraction of butanoic acid (Liquid mixture 1); method: Chromatography
Temperature, K	Mass fraction of butanoic acid	Mass fraction of water	uncertainty	Mass fraction of water	uncertainty	Mass fraction of butanoic acid	uncertainty
298.15	0	0.9829	0.0054	0.0147	0.0054	0	
323.15	0.0631	0.9277	0.0073	0.1346	0.0057	0.3972	
323.15	0.0759	0.9158	0.0075	0.1523	0.0058	0.4735	
298.15	0.0053	0.9791	0.007	0.0285	0.0057	0.0343	
323.15	0.0891	0.9029	0.0076	0.1826	0.006	0.5437	
298.15	0.0098	0.9754	0.0069	0.0392	0.0056	0.0684	
298.15	0.0159	0.9701	0.0074	0.0483	0.0057	0.1111	
298.15	0.0306	0.9559	0.0074	0.0821	0.0057	0.2131	
298.15	0.0439	0.9439	0.0074	0.1017	0.0057	0.2948	
298.15	0.0529	0.9353	0.0075	0.1231	0.0057	0.3487	
298.15	0.0635	0.9249	0.0076	0.1363	0.0056	0.4119	
298.15	0.0838	0.9057	0.0074	0.1744	0.0059	0.5374	
298.15	0.0742	0.9145	0.0075	0.1545	0.0057	0.4808	
323.15	0	0.9851	0.0054	0.0194	0.0054	0	
323.15	0.0055	0.9816	0.0068	0.0344	0.0058	0.0349	
323.15	0.0113	0.9763	0.0074	0.0505	0.0056	0.0753	
323.15	0.0185	0.9694	0.0074	0.06	0.0056	0.1246	
323.15	0.0265	0.9619	0.0074	0.0732	0.0057	0.1736	
323.15	0.0352	0.9537	0.0075	0.0906	0.0056	0.2253	
323.15	0.0516	0.9381	0.0074	0.1125	0.0056	0.3261	

System: 3,3-dimethyl-2-butanone + water; phases: Liquid mixture 2, Liquid mixture 1
Fixed: Pressure, kPa = 101
Property: Mass fraction of water (Liquid mixture 2); method: Chromatography
Temperature, K	Mass fraction of water	uncertainty
298.15	0.9829	0.0054
323.15	0.9851	0.0054

System: 3,3-dimethyl-2-butanone + water; phases: Liquid mixture 1, Liquid mixture 2
Fixed: Pressure, kPa = 101
Property: Mass fraction of water (Liquid mixture 1); method: Chromatography
Temperature, K	Mass fraction of water	uncertainty
298.15	0.0147	0.0054
323.15	0.0194	0.0054
