Measured thermophysical data. High Pressure Speed of Sound and Related Thermodynamic Properties of 1-Alkyl-3-methylimidazolium Bis[(trifluoromethyl)sulfonyl]imides (from 1-Propyl- to 1-Hexyl-)
Source: J. Chem. Eng. Data, 2016, 10.1021/acs.jced.6b00413
Compound 1: 1-methyl-3-propylimidazolium bis[(trifluoromethyl)sulfonyl]imide, C9H13F6N3O4S2, InChI=1S/C7H13N2.C2F6NO4S2/c1-3-4-9-6-5-8(2)7-9;3-1(4,5)14(10,11)9-15(12,13)2(6,7)8/h5-7H,3-4H2,1-2H3;/q+1;-1, purity 99.95%
Compound 2: 1-butyl-3-methylimidazolium bis(trifluoromethylsulfonyl)imide, C10H15F6N3O4S2, InChI=1S/C8H15N2.C2F6NO4S2/c1-3-4-5-10-7-6-9(2)8-10;3-1(4,5)14(10,11)9-15(12,13)2(6,7)8/h6-8H,3-5H2,1-2H3;/q+1;-1, purity 99.95%
Compound 3: 1-methyl-3-pentylimidazolium bis(trifluoromethylsulfonyl)imide, C11H17F6N3O4S2, InChI=1S/C9H17N2.C2F6NO4S2/c1-3-4-5-6-11-8-7-10(2)9-11;3-1(4,5)14(10,11)9-15(12,13)2(6,7)8/h7-9H,3-6H2,1-2H3;/q+1;-1, purity 99.95%
Compound 4: 1-hexyl-3-methylimidazolium bis[(trifluoromethyl)sulfonyl]imide, C12H19F6N3O4S2, InChI=1S/C10H19N2.C2F6NO4S2/c1-3-4-5-6-7-12-9-8-11(2)10-12;3-1(4,5)14(10,11)9-15(12,13)2(6,7)8/h8-10H,3-7H2,1-2H3;/q+1;-1, purity 99.95%

System: 1-methyl-3-propylimidazolium bis[(trifluoromethyl)sulfonyl]imide; phases: Liquid
Fixed: Frequency, MHz = 2
Property: Speed of sound, m/s (Liquid); method: Pulse-echo method
Temperature, K	Pressure, kPa	Speed of sound, m/s	uncertainty
292.9	15200	1289.9	1.2
292.89	30390	1333.8	1.2
292.89	45590	1374.6	1.3
292.9	60790	1413	1.3
292.9	75990	1449	1.3
292.91	91180	1483.2	1.4
292.91	101320	1505.2	1.4
298.08	15200	1278.1	1.2
298.07	30390	1322.5	1.2
298.07	45590	1363.8	1.3
298.07	60790	1402.5	1.3
298.07	75990	1439	1.3
298.06	91180	1473.5	1.4
298.07	101320	1495.2	1.4
303.14	15200	1266.7	1.2
303.14	30390	1311.8	1.2
303.14	45590	1353.4	1.2
303.14	60790	1392.6	1.3
303.13	75990	1429.4	1.3
303.13	91180	1464.1	1.4
303.14	101320	1486.3	1.4
308.15	15200	1256.3	1.2
308.14	30390	1301.6	1.2
308.14	45590	1343.8	1.2
308.13	60800	1383.1	1.3
308.13	75990	1420.2	1.3
308.14	91180	1455.2	1.4
308.12	101320	1477.6	1.4
313.11	15200	1246.2	1.2
313.11	30390	1291.7	1.2
313.11	45590	1334.1	1.2
313.11	60800	1373.9	1.3
313.1	75990	1411.3	1.3
313.1	91180	1446.5	1.4
313.1	101320	1469	1.4
318.3	15200	1235.6	1.2
318.29	30390	1281.8	1.2
318.29	45590	1324.5	1.2
318.29	60790	1364.5	1.4
318.29	75990	1402.1	1.3
318.29	91180	1437.6	1.4
318.29	101320	1460.3	1.4

System: 1-methyl-3-propylimidazolium bis[(trifluoromethyl)sulfonyl]imide; phases: Liquid
Fixed: Pressure, kPa = 101.325
Property: Mass density, kg/m3 (Liquid); method: Vibrating tube method
Temperature, K	Mass density, kg/m3	uncertainty
288.15	1484.65	0.3
298.15	1474.7	0.3
308.15	1464.83	0.3
318.15	1455.04	0.3
328.15	1445.33	0.29
338.15	1435.69	0.29
348.15	1426.12	0.29
358.15	1416.62	0.29
363.15	1411.9	0.29

System: 1-butyl-3-methylimidazolium bis(trifluoromethylsulfonyl)imide; phases: Liquid
Fixed: Frequency, MHz = 2
Property: Speed of sound, m/s (Liquid); method: Pulse-echo method
Temperature, K	Pressure, kPa	Speed of sound, m/s	uncertainty
292.99	15200	1287	1.2
292.99	30390	1332.4	1.2
292.99	45590	1374.4	1.3
292.99	60790	1413.8	1.3
292.99	75990	1450.7	1.3
292.99	91180	1485.7	1.4
292.99	101320	1508.1	1.4
298.16	15200	1275.8	1.2
298.16	30390	1321.5	1.2
298.16	45590	1364.1	1.3
298.16	60790	1403.7	1.3
298.16	75990	1441.1	1.3
298.17	91180	1476.3	1.4
298.17	101320	1498.5	1.4
303.13	15200	1265.3	1.2
303.14	30390	1311.6	1.2
303.14	45590	1354.2	1.3
303.14	60790	1394.4	1.3
303.14	75990	1431.9	1.3
303.14	91180	1467.3	1.4
303.15	101320	1490.1	1.4
308.12	15200	1255	1.2
308.13	30390	1301.6	1.2
308.13	45590	1344.7	1.3
308.12	60790	1385	1.3
308.14	75990	1422.9	1.3
308.12	91180	1458.7	1.4
308.14	101320	1481.5	1.4
313.09	15200	1245	1.2
313.09	30390	1291.9	1.2
313.08	45590	1335.4	1.2
313.08	60790	1376.1	1.3
313.08	75990	1414.2	1.3
313.08	91180	1450.2	1.4
313.09	101320	1473.2	1.4
318.08	15200	1235.2	1.2
318.1	30390	1282.6	1.2
318.1	45590	1326.5	1.2
318.1	60790	1367.3	1.3
318.11	75990	1405.7	1.3
318.11	91180	1441.9	1.4
318.11	101320	1464.9	1.4
323.25	15200	1224.9	1.2
323.27	30390	1272.9	1.2
323.28	45590	1317.1	1.2
323.27	60800	1358.4	1.3
323.27	75990	1396.9	1.3
323.28	91180	1433.5	1.4
323.27	101320	1456.7	1.4

System: 1-butyl-3-methylimidazolium bis(trifluoromethylsulfonyl)imide; phases: Liquid
Fixed: Pressure, kPa = 101.325
Property: Mass density, kg/m3 (Liquid); method: Vibrating tube method
Temperature, K	Mass density, kg/m3	uncertainty
288.15	1445.96	0.29
298.15	1436.31	0.29
308.15	1426.73	0.29
318.15	1417.23	0.29
328.15	1407.79	0.28
338.15	1398.42	0.28
348.15	1389.12	0.28
358.15	1379.87	0.28
363.15	1375.26	0.28

System: 1-methyl-3-pentylimidazolium bis(trifluoromethylsulfonyl)imide; phases: Liquid
Fixed: Frequency, MHz = 2
Property: Speed of sound, m/s (Liquid); method: Pulse-echo method
Temperature, K	Pressure, kPa	Speed of sound, m/s	uncertainty
298.21	15200	1277.4	1.2
298.18	30390	1324.3	1.2
298.17	45590	1367.9	1.3
298.17	60790	1408.4	1.3
298.17	75990	1446.5	1.3
298.16	91180	1482.5	1.4
298.16	101320	1505.5	1.4
303.14	15200	1266.9	1.2
303.14	30390	1314.3	1.2
303.14	45590	1358	1.3
303.14	60790	1398.9	1.3
303.14	75990	1437.3	1.3
303.14	91180	1473.5	1.4
303.14	101320	1496.7	1.4
308.11	15200	1256.5	1.2
308.11	30390	1304.2	1.2
308.1	45590	1348.4	1.3
308.1	60800	1389.7	1.3
308.1	75990	1428.3	1.3
308.1	91180	1464.8	1.4
308.1	101320	1488.1	1.4
313.05	15200	1246.2	1.2
313.04	30390	1294.4	1.2
313.03	45590	1339	1.3
313.02	60800	1380.5	1.3
313.02	75990	1419.5	1.3
313.03	91180	1456.2	1.4
313.03	101320	1479.7	1.4
318.34	15200	1235.6	1.2
318.34	30390	1284.2	1.2
318.34	45590	1329.2	1.3
318.34	60800	1371.1	1.3
318.32	75990	1410.4	1.3
318.32	91180	1447.3	1.4
318.32	101320	1470.9	1.4

System: 1-methyl-3-pentylimidazolium bis(trifluoromethylsulfonyl)imide; phases: Liquid
Fixed: Pressure, kPa = 101.325
Property: Mass density, kg/m3 (Liquid); method: Vibrating tube method
Temperature, K	Mass density, kg/m3	uncertainty
288.15	1411.62	0.28
298.15	1402.16	0.28
308.15	1392.79	0.28
318.15	1383.47	0.28
328.15	1374.23	0.28
338.15	1365.05	0.27
348.15	1355.92	0.27
358.15	1346.85	0.27
363.15	1342.34	0.27

System: 1-hexyl-3-methylimidazolium bis[(trifluoromethyl)sulfonyl]imide; phases: Liquid
Fixed: Frequency, MHz = 2
Property: Speed of sound, m/s (Liquid); method: Pulse-echo method
Temperature, K	Pressure, kPa	Speed of sound, m/s	uncertainty
303.06	15200	1267.6	1.2
303.05	30390	1316.1	1.2
303.05	45590	1360.8	1.3
303.05	60790	1402.3	1.3
303.05	75990	1441.4	1.3
303.05	91190	1478.3	1.4
303.05	101320	1501.8	1.4
308.06	15200	1257.1	1.2
308.06	30390	1306	1.2
308.05	45590	1351	1.3
308.05	60790	1393.1	1.3
308.05	75990	1432.4	1.3
308.05	91190	1469.5	1.4
308.05	101320	1493.2	1.4
313.03	15200	1246.9	1.2
313.03	30390	1296.2	173
313.03	45590	1341.6	1.3
313.03	60790	1383.9	1.3
313.02	75990	1423.5	1.3
313.02	91190	1460.9	1.4
313.02	101320	1484.7	1.4
318	15200	1236.5	1.2
318	30390	1286.4	1.2
318	45590	1332.2	1.3
317.99	60790	1375	1.3
317.99	75990	1414.9	1.3
317.99	91190	1452.5	1.4
317.99	101320	1476.4	1.4
323.37	100	1169.6	1.2
323.35	15200	1225.8	1.2
323.35	30390	1276.2	1.2
323.34	45590	1322.5	1.3
323.34	60790	1365.4	1.3
323.34	75990	1405.7	1.3
323.34	91190	1443.6	1.4
323.34	101320	1467.7	1.4

System: 1-hexyl-3-methylimidazolium bis[(trifluoromethyl)sulfonyl]imide; phases: Liquid
Fixed: Pressure, kPa = 101.325
Property: Mass density, kg/m3 (Liquid); method: Vibrating tube method
Temperature, K	Mass density, kg/m3	uncertainty
288.15	1380.95	0.28
298.15	1371.68	0.27
308.15	1362.48	0.27
318.15	1353.35	0.27
328.15	1344.28	0.27
338.15	1335.28	0.27
348.15	1326.33	0.26
358.15	1317.44	0.26
363.15	1313.01	0.26
