Measured thermophysical data. Mutual Solubilities for the Water 2-sec-Butylphenol System and Partition Coefficients for Furfural and Formic Acid in the Water 2-sec-Butylphenol System
Source: J. Chem. Eng. Data, 2015, 10.1021/acs.jced.5b00170
Compound 1: 2-(1-methylpropyl)phenol, C10H14O, InChI=1S/C10H14O/c1-3-8(2)9-6-4-5-7-10(9)11/h4-8,11H,3H2,1-2H3, purity 98%
Compound 2: water, H2O, InChI=1S/H2O/h1H2, purity 99.8%
Compound 3: 2-furaldehyde, C5H4O2, InChI=1S/C5H4O2/c6-4-5-2-1-3-7-5/h1-4H, purity 99%
Compound 4: formic acid, CH2O2, InChI=1S/CH2O2/c2-1-3/h1H,(H,2,3), purity 99%

System: 2-(1-methylpropyl)phenol + water; phases: Liquid mixture 1, Liquid mixture 2
Fixed: Pressure, kPa = 2500
Property: Mass fraction of water (Liquid mixture 1); method: Chromatography
Temperature, K	Mass fraction of water	uncertainty
303.15	0.003056	0.000125
323.15	0.00409	0.000167
343.15	0.005598	0.000228
363.15	0.007623	0.000311
383.15	0.010777	0.000439
393.15	0.012743	0.000519
403.15	0.015107	0.000617
413.15	0.018746	0.000765
423.15	0.022365	0.000913
433.15	0.027607	0.001126
443.15	0.03279	0.001339
453.15	0.041006	0.001673
463.15	0.048715	0.001985
473.15	0.056825	0.002319
483.15	0.070664	0.002884

System: 2-(1-methylpropyl)phenol + water; phases: Liquid mixture 2, Liquid mixture 1
Fixed: Pressure, kPa = 2500
Property: Mass fraction of 2-(1-methylpropyl)phenol (Liquid mixture 2); method: Chromatography
Temperature, K	Mass fraction of 2-(1-methylpropyl)phenol	uncertainty
303.15	0.001478	6e-05
323.15	0.002013	8.2e-05
343.15	0.002734	0.000111
363.15	0.003857	0.000157
383.15	0.005581	0.000228
393.15	0.007228	0.000295
403.15	0.008389	0.000342
413.15	0.010636	0.000435
423.15	0.013372	0.000547
433.15	0.017016	0.000696
443.15	0.021761	0.00089
453.15	0.027751	0.001137
463.15	0.03647	0.001491
473.15	0.044514	0.001823
483.15	0.059452	0.002433

System: 2-(1-methylpropyl)phenol + 2-furaldehyde + water; phases: Liquid mixture 2, Liquid mixture 1
Fixed: Pressure, kPa = 2500
Property: Mass fraction of 2-furaldehyde (Liquid mixture 2); method: Chromatography
Temperature, K	Mass fraction of 2-furaldehyde	Mass fraction of 2-furaldehyde	uncertainty
303.15	0.048304	0.002442	9.9e-05
323.15	0.048055	0.002689	0.000109
343.15	0.04789	0.002852	0.000116
363.15	0.047721	0.00302	0.000123
383.15	0.047571	0.003169	0.000129
393.15	0.047494	0.003246	0.000132
403.15	0.047443	0.003297	0.000134
413.15	0.047394	0.003345	0.000136
423.15	0.047338	0.003401	0.000138
433.15	0.047282	0.003456	0.00014
443.15	0.047214	0.003524	0.000143
453.15	0.047185	0.003553	0.000144
463.15	0.047144	0.003593	0.000146
473.15	0.047097	0.00364	0.000148
483.15	0.047028	0.003709	0.000151

System: formic acid + 2-(1-methylpropyl)phenol + water; phases: Liquid mixture 2, Liquid mixture 1
Fixed: Pressure, kPa = 2500
Property: Mass fraction of formic acid (Liquid mixture 2); method: Chromatography
Temperature, K	Mass fraction of formic acid	Mass fraction of formic acid	uncertainty
303.15	0.001312	0.048773	0.001981
323.15	0.00155	0.048528	0.001971
343.15	0.001743	0.04835	0.001964
363.15	0.001933	0.048156	0.001956
383.15	0.002182	0.047935	0.001947
393.15	0.002308	0.047795	0.001941
403.15	0.002389	0.047732	0.001939
413.15	0.002476	0.047634	0.001935
423.15	0.002583	0.047525	0.00193
433.15	0.002656	0.047462	0.001928
443.15	0.002732	0.047398	0.001925
453.15	0.002796	0.047334	0.001923
463.15	0.002863	0.047268	0.00192
473.15	0.002993	0.047141	0.001915
483.15	0.003059	0.047076	0.001912
