Measured thermophysical data. Viscosity and Density of n-Alcohols at Temperatures between (298.15 and 323.15) K and Pressures up to 30 MPa
Source: J. Chem. Eng. Data, 2019, 10.1021/acs.jced.8b00812
Compound 1: butan-1-ol, C4H10O, InChI=1S/C4H10O/c1-2-3-4-5/h5H,2-4H2,1H3, purity 99.8%
Compound 2: pentan-1-ol, C5H12O, InChI=1S/C5H12O/c1-2-3-4-5-6/h6H,2-5H2,1H3, purity 99.6%
Compound 3: heptan-1-ol, C7H16O, InChI=1S/C7H16O/c1-2-3-4-5-6-7-8/h8H,2-7H2,1H3, purity 98.9%
Compound 4: octan-1-ol, C8H18O, InChI=1S/C8H18O/c1-2-3-4-5-6-7-8-9/h9H,2-8H2,1H3, purity 99.7%
Compound 5: nonan-1-ol, C9H20O, InChI=1S/C9H20O/c1-2-3-4-5-6-7-8-9-10/h10H,2-9H2,1H3, purity 98.6%

System: butan-1-ol; phases: Liquid
Property: Mass density, kg/m3 (Liquid); method: Vibrating tube method
Temperature, K	Pressure, kPa	Mass density, kg/m3	uncertainty
298.12	2010	806.8	0.8
298.12	3910	808.2	0.8
298.12	6020	809.8	0.8
298.12	8030	811.2	0.8
298.12	9910	812.5	0.8
298.13	13010	814.6	0.8
298.12	16020	816.6	0.8
298.12	19030	818.5	0.8
298.12	22000	820.4	0.9
298.12	25020	822.3	0.9
298.12	28000	824	0.9
298.12	30010	825.1	0.9
303.15	2010	803.3	0.8
303.15	4000	804.8	0.8
303.15	5980	806.3	0.8
303.15	8010	807.8	0.8
303.15	9990	809.2	0.8
303.15	12990	811.3	0.8
303.15	15990	813.3	0.8
303.16	19000	815.3	0.8
303.15	22010	817.3	0.9
303.15	25010	819.1	0.9
303.15	27970	820.9	0.9
303.15	29990	822.1	0.9
313.16	1990	795.5	0.8
313.16	3980	797.1	0.8
313.16	5990	798.7	0.8
313.16	7980	800.2	0.8
313.15	10020	801.8	0.8
313.15	12980	803.9	0.8
313.16	15980	806.1	0.8
313.16	19010	808.2	0.8
313.15	22020	810.2	0.8
313.15	25010	812.2	0.9
313.16	27990	814.1	0.9
313.16	29990	815.3	0.9
323.14	2000	787.9	0.8
323.14	3920	789.6	0.8
323.14	6030	791.3	0.8
323.14	8000	792.9	0.8
323.14	10020	794.5	0.8
323.14	13040	796.9	0.8
323.14	16050	799.2	0.8
323.14	19000	801.3	0.8
323.14	21990	803.4	0.8
323.14	24970	805.5	0.9
323.14	28000	807.5	0.9
323.14	29970	808.8	0.9

System: butan-1-ol; phases: Liquid
Property: Viscosity, Pa*s (Liquid); method: Capillary tube (Ostwald; Ubbelohde) method
Temperature, K	Pressure, kPa	Viscosity, Pa*s	uncertainty
298.12	2010	0.002608	2.72e-05
298.12	3910	0.0026573	2.77e-05
298.12	6020	0.0027077	2.82e-05
298.12	8030	0.0027522	2.87e-05
298.12	9910	0.0027967	2.91e-05
298.13	13010	0.0028665	2.98e-05
298.12	16020	0.0029404	3.06e-05
298.12	19030	0.0030184	3.14e-05
298.12	22000	0.0030922	3.21e-05
298.12	25020	0.003166	3.29e-05
298.12	28000	0.0032366	3.36e-05
298.12	30010	0.0032871	3.41e-05
303.15	2010	0.002351	2.45e-05
303.15	4000	0.0023934	2.5e-05
303.15	5980	0.0024359	2.54e-05
303.15	8010	0.0024794	2.59e-05
303.15	9990	0.0025218	2.63e-05
303.15	12990	0.0025859	2.7e-05
303.15	15990	0.0026502	2.76e-05
303.16	19000	0.0027145	2.83e-05
303.15	22010	0.0027792	2.89e-05
303.15	25010	0.0028433	2.96e-05
303.15	27970	0.0029116	3.03e-05
303.15	29990	0.002957	3.08e-05
313.16	1990	0.0018319	1.92e-05
313.16	3980	0.0018682	1.96e-05
313.16	5990	0.0019017	1.99e-05
313.16	7980	0.001935	2.03e-05
313.15	10020	0.0019693	2.06e-05
313.15	12980	0.0020187	2.11e-05
313.16	15980	0.0020728	2.17e-05
313.16	19010	0.0021254	2.22e-05
313.15	22020	0.0021818	2.28e-05
313.15	25010	0.0022369	2.34e-05
313.16	27990	0.0022916	2.39e-05
313.16	29990	0.0023291	2.43e-05
323.14	2000	0.0014205	1.5e-05
323.14	3920	0.0014458	1.53e-05
323.14	6030	0.0014734	1.55e-05
323.14	8000	0.001499	1.58e-05
323.14	10020	0.0015251	1.61e-05
323.14	13040	0.0015645	1.65e-05
323.14	16050	0.0016034	1.69e-05
323.14	19000	0.001646	1.73e-05
323.14	21990	0.0016844	1.77e-05
323.14	24970	0.0017229	1.81e-05
323.14	28000	0.0017594	1.85e-05
323.14	29970	0.0017849	1.87e-05

System: pentan-1-ol; phases: Liquid
Property: Mass density, kg/m3 (Liquid); method: Vibrating tube method
Temperature, K	Pressure, kPa	Mass density, kg/m3	uncertainty
298.15	2000	813	0.8
298.15	4000	814.4	0.8
298.15	6000	815.8	0.8
298.15	8010	817.1	0.8
298.15	10000	818.5	0.8
298.15	13000	820.4	0.8
298.15	16000	822.3	0.9
298.15	19010	824.1	0.9
298.15	22000	825.9	0.9
298.15	25000	827.6	0.9
298.15	27990	829.4	0.9
298.15	29980	830.4	0.9
303.16	1980	808.8	0.8
303.16	3980	810.2	0.8
303.16	6010	811.7	0.8
303.16	8020	813	0.8
303.16	10030	814.4	0.8
303.16	12990	816.4	0.8
303.16	15980	818.4	0.8
303.15	19000	820.3	0.9
303.16	22010	822.1	0.9
303.16	25000	823.9	0.9
303.15	27980	825.6	0.9
303.16	29990	826.7	0.9
313.15	1990	800.6	0.8
313.15	4000	802.2	0.8
313.15	5980	803.7	0.8
313.15	7980	805.1	0.8
313.15	10020	806.6	0.8
313.15	13010	808.7	0.8
313.16	15980	810.8	0.8
313.15	19020	812.8	0.8
313.15	21980	814.7	0.9
313.16	24990	816.6	0.9
313.16	28000	818.4	0.9
313.15	30020	819.6	0.9
323.15	2000	793.5	0.8
323.15	4000	795	0.8
323.15	6000	796.7	0.8
323.15	8000	798.2	0.8
323.15	10000	799.6	0.8
323.15	13000	801.9	0.8
323.15	16000	804	0.8
323.15	19000	806.1	0.8
323.15	22000	808.2	0.9
323.15	25000	810.2	0.9
323.15	27990	812.1	0.9
323.15	29990	813.4	0.9

System: pentan-1-ol; phases: Liquid
Property: Viscosity, Pa*s (Liquid); method: Capillary tube (Ostwald; Ubbelohde) method
Temperature, K	Pressure, kPa	Viscosity, Pa*s	uncertainty
298.15	2000	0.0035901	3.77e-05
298.15	4000	0.0036599	3.85e-05
298.15	6000	0.0037325	3.92e-05
298.15	8010	0.0037961	3.99e-05
298.15	10000	0.0038695	4.06e-05
298.15	13000	0.0039753	4.17e-05
298.15	16000	0.0040811	4.28e-05
298.15	19010	0.004192	4.4e-05
298.15	22000	0.0042988	4.51e-05
298.15	25000	0.0044087	4.62e-05
298.15	27990	0.0045066	4.72e-05
298.15	29980	0.0045766	4.8e-05
303.16	1980	0.0032187	3.39e-05
303.16	3980	0.003282	3.46e-05
303.16	6010	0.0033463	3.52e-05
303.16	8020	0.0034097	3.59e-05
303.16	10030	0.0034735	3.65e-05
303.16	12990	0.0035668	3.75e-05
303.16	15980	0.0036617	3.85e-05
303.15	19000	0.0037573	3.95e-05
303.16	22010	0.0038521	4.05e-05
303.16	25000	0.0039468	4.15e-05
303.15	27980	0.0040411	4.24e-05
303.16	29990	0.0041046	4.31e-05
313.15	1990	0.0024376	2.58e-05
313.15	4000	0.0024855	2.63e-05
313.15	5980	0.0025329	2.68e-05
313.15	7980	0.0025809	2.73e-05
313.15	10020	0.0026295	2.78e-05
313.15	13010	0.0027012	2.85e-05
313.16	15980	0.0027721	2.93e-05
313.15	19020	0.002845	3e-05
313.15	21980	0.0029157	3.08e-05
313.16	24990	0.0029877	3.15e-05
313.16	28000	0.0030598	3.23e-05
313.15	30020	0.0031085	3.28e-05
323.15	2000	0.0018329	1.95e-05
323.15	4000	0.001866	1.98e-05
323.15	6000	0.0019008	2.02e-05
323.15	8000	0.0019351	2.06e-05
323.15	10000	0.0019693	2.09e-05
323.15	13000	0.0020225	2.15e-05
323.15	16000	0.0020779	2.21e-05
323.15	19000	0.0021331	2.26e-05
323.15	22000	0.0021892	2.32e-05
323.15	25000	0.0022444	2.38e-05
323.15	27990	0.0022991	2.44e-05
323.15	29990	0.0023351	2.47e-05

System: heptan-1-ol; phases: Liquid
Property: Mass density, kg/m3 (Liquid); method: Vibrating tube method
Temperature, K	Pressure, kPa	Mass density, kg/m3	uncertainty
298.15	2000	820.2	0.9
298.15	4020	821.4	0.9
298.15	6010	822.8	0.9
298.15	8000	824	0.9
298.15	10000	825.3	0.9
298.15	13000	827.1	0.9
298.15	16000	828.9	0.9
298.15	19000	830.7	0.9
298.15	22000	832.5	0.9
298.15	25000	834.2	0.9
298.15	28000	835.9	0.9
298.15	29990	836.9	0.9
303.16	2030	816.5	0.9
303.16	4030	817.9	0.9
303.16	6040	819.3	0.9
303.16	7980	820.5	0.9
303.16	9990	821.8	0.9
303.16	12990	823.6	0.9
303.16	16020	825.5	0.9
303.16	19020	827.3	0.9
303.16	22000	829.2	0.9
303.16	24980	830.9	0.9
303.16	27980	832.5	0.9
303.16	30010	833.7	0.9
313.15	2000	809.2	0.8
313.15	4000	810.6	0.9
313.15	5980	811.9	0.9
313.15	7980	813.3	0.9
313.15	9970	814.6	0.9
313.15	13030	816.5	0.9
313.15	16020	818.4	0.9
313.15	19000	820.4	0.9
313.15	22020	822.2	0.9
313.15	25010	824	0.9
313.15	27980	825.7	0.9
313.15	30010	826.9	0.9
323.15	1990	802.1	0.8
323.15	4010	803.4	0.8
323.15	5990	804.8	0.9
323.15	8010	806.2	0.9
323.15	10010	807.6	0.9
323.15	13000	809.7	0.9
323.15	16000	811.8	0.9
323.15	18990	813.7	0.9
323.15	22000	815.6	0.9
323.15	25000	817.4	0.9
323.15	28000	819.3	0.9
323.15	30000	820.5	0.9

System: heptan-1-ol; phases: Liquid
Property: Viscosity, Pa*s (Liquid); method: Capillary tube (Ostwald; Ubbelohde) method
Temperature, K	Pressure, kPa	Viscosity, Pa*s	uncertainty
298.15	2000	0.0059712	6.9e-05
298.15	4020	0.0060996	7.05e-05
298.15	6010	0.0062295	7.19e-05
298.15	8000	0.0063637	7.34e-05
298.15	10000	0.0064842	7.47e-05
298.15	13000	0.0066861	7.7e-05
298.15	16000	0.0068806	7.91e-05
298.15	19000	0.0070845	8.14e-05
298.15	22000	0.007293	8.37e-05
298.15	25000	0.0075165	8.62e-05
298.15	28000	0.0077204	8.84e-05
298.15	29990	0.0078641	9e-05
303.16	2030	0.0051856	6.04e-05
303.16	4030	0.0053024	6.16e-05
303.16	6040	0.0054202	6.29e-05
303.16	7980	0.0055338	6.42e-05
303.16	9990	0.0056509	6.55e-05
303.16	12990	0.0058261	6.74e-05
303.16	16020	0.0060038	6.94e-05
303.16	19020	0.006179	7.14e-05
303.16	22000	0.0063529	7.33e-05
303.16	24980	0.0065268	7.52e-05
303.16	27980	0.0067027	7.72e-05
303.16	30010	0.0068216	7.85e-05
313.15	2000	0.0037629	4.4e-05
313.15	4000	0.0038476	4.5e-05
313.15	5980	0.003932	4.6e-05
313.15	7980	0.0040168	4.7e-05
313.15	9970	0.0041009	4.79e-05
313.15	13030	0.0042307	4.94e-05
313.15	16020	0.0043576	5.09e-05
313.15	19000	0.0044842	5.24e-05
313.15	22020	0.0046126	5.38e-05
313.15	25010	0.0047394	5.53e-05
313.15	27980	0.0048651	5.68e-05
313.15	30010	0.0049515	5.78e-05
323.15	1990	0.0027485	3.23e-05
323.15	4010	0.0028124	3.3e-05
323.15	5990	0.0028759	3.38e-05
323.15	8010	0.00294	3.45e-05
323.15	10010	0.0029974	3.52e-05
323.15	13000	0.0030877	3.62e-05
323.15	16000	0.0031788	3.73e-05
323.15	18990	0.0032665	3.83e-05
323.15	22000	0.003358	3.93e-05
323.15	25000	0.0034513	4.04e-05
323.15	28000	0.0035425	4.15e-05
323.15	30000	0.0036071	4.22e-05

System: octan-1-ol; phases: Liquid
Property: Mass density, kg/m3 (Liquid); method: Vibrating tube method
Temperature, K	Pressure, kPa	Mass density, kg/m3	uncertainty
298.15	2000	823.6	0.8
298.15	4010	824.8	0.8
298.15	6000	826	0.8
298.15	8000	827.2	0.8
298.15	10000	828.4	0.8
298.15	13010	830.1	0.9
298.15	16010	831.8	0.9
298.15	18990	833.4	0.9
298.15	22010	835	0.9
298.15	25010	836.6	0.9
298.15	28010	838.3	0.9
298.15	30010	839.3	0.9
303.15	1990	819.4	0.8
303.15	3990	820.6	0.8
303.15	5980	821.9	0.8
303.16	7980	823.1	0.8
303.15	10010	824.4	0.8
303.16	13000	826.2	0.8
303.15	16020	827.9	0.9
303.15	19030	829.7	0.9
303.16	22010	831.3	0.9
303.15	25000	833	0.9
303.16	28000	834.6	0.9
303.15	29980	835.6	0.9
313.15	1970	812.3	0.8
313.15	4000	813.6	0.8
313.15	6010	815	0.8
313.15	8000	816.3	0.8
313.15	10010	817.5	0.8
313.15	13030	819.4	0.8
313.15	15980	821.2	0.8
313.15	18990	823	0.9
313.15	21990	824.8	0.9
313.15	25000	826.5	0.9
313.15	27980	828.2	0.9
313.15	29990	829.3	0.9
323.15	2010	805.6	0.8
323.15	4010	807	0.8
323.15	6010	808.4	0.8
323.15	8000	809.7	0.8
323.15	10010	811.1	0.8
323.15	13020	813	0.8
323.15	16020	814.9	0.8
323.15	19010	816.8	0.8
323.15	22000	818.6	0.9
323.15	25010	820.4	0.9
323.15	28010	822.1	0.9
323.15	30020	823.3	0.9

System: octan-1-ol; phases: Liquid
Property: Viscosity, Pa*s (Liquid); method: Capillary tube (Ostwald; Ubbelohde) method
Temperature, K	Pressure, kPa	Viscosity, Pa*s	uncertainty
298.15	2000	0.0073632	7.5e-05
298.15	4010	0.0075419	7.67e-05
298.15	6000	0.0077016	7.83e-05
298.15	8000	0.0078646	7.99e-05
298.15	10000	0.0080311	8.15e-05
298.15	13010	0.0082995	8.41e-05
298.15	16010	0.0085681	8.67e-05
298.15	18990	0.0088251	8.92e-05
298.15	22010	0.0091118	9.2e-05
298.15	25010	0.0093975	9.48e-05
298.15	28010	0.0096676	9.75e-05
298.15	30010	0.0098659	9.94e-05
303.15	1990	0.0063275	6.49e-05
303.15	3990	0.0064806	6.64e-05
303.15	5980	0.0066323	6.78e-05
303.16	7980	0.006785	6.93e-05
303.15	10010	0.006941	7.09e-05
303.16	13000	0.0071686	7.31e-05
303.15	16020	0.0074004	7.53e-05
303.15	19030	0.0076303	7.76e-05
303.16	22010	0.0078579	7.98e-05
303.15	25000	0.0080875	8.2e-05
303.16	28000	0.008316	8.43e-05
303.15	29980	0.008468	8.58e-05
313.15	1970	0.0045164	4.7e-05
313.15	4000	0.0046274	4.81e-05
313.15	6010	0.0047373	4.93e-05
313.15	8000	0.0048456	5.04e-05
313.15	10010	0.0049553	5.15e-05
313.15	13030	0.0051204	5.31e-05
313.15	15980	0.0052815	5.47e-05
313.15	18990	0.0054456	5.63e-05
313.15	21990	0.0056097	5.79e-05
313.15	25000	0.0057739	5.95e-05
313.15	27980	0.005937	6.11e-05
313.15	29990	0.0060466	6.22e-05
323.15	2010	0.0032619	3.41e-05
323.15	4010	0.003348	3.5e-05
323.15	6010	0.0034272	3.58e-05
323.15	8000	0.0034994	3.66e-05
323.15	10010	0.0035726	3.73e-05
323.15	13020	0.0036884	3.85e-05
323.15	16020	0.0037966	3.96e-05
323.15	19010	0.0039101	4.08e-05
323.15	22000	0.0040301	4.2e-05
323.15	25010	0.0041485	4.32e-05
323.15	28010	0.0042644	4.44e-05
323.15	30020	0.0043434	4.53e-05

System: nonan-1-ol; phases: Liquid
Property: Mass density, kg/m3 (Liquid); method: Vibrating tube method
Temperature, K	Pressure, kPa	Mass density, kg/m3	uncertainty
298.15	1990	825.5	0.9
298.15	3990	826.7	0.9
298.15	6000	828	0.9
298.15	8010	829.2	0.9
298.15	10010	830.5	0.9
298.15	13000	832.2	0.9
298.15	16000	833.9	0.9
298.15	19010	835.5	0.9
298.15	21990	837.1	1
298.15	25000	838.7	1
298.15	28020	840.2	1
298.15	30020	841.1	1
303.15	2010	822	0.9
303.15	4010	823.2	0.9
303.15	6020	824.5	0.9
303.15	8030	825.7	0.9
303.15	9990	826.9	0.9
303.15	12980	828.7	0.9
303.15	15970	830.4	0.9
303.15	19020	832.1	0.9
303.15	22010	833.8	1
303.15	25000	835.4	1
303.14	27980	836.9	1
303.15	30000	837.9	1
313.15	2000	814.9	0.9
313.15	3970	816.3	0.9
313.15	6020	817.6	0.9
313.15	7990	818.9	0.9
313.15	10020	820.2	0.9
313.15	13000	822	0.9
313.15	16000	823.8	0.9
313.15	18980	825.6	0.9
313.15	22000	827.3	1
313.15	25000	829	1
313.15	28010	830.6	1
313.15	29990	831.7	1
323.15	2010	808.3	0.9
323.15	4020	809.7	0.9
323.15	6020	811	0.9
323.15	8010	812.3	0.9
323.15	10010	813.7	0.9
323.15	13010	815.7	0.9
323.15	16010	817.5	0.9
323.15	19000	819.3	0.9
323.15	22010	821.1	0.9
323.15	25000	822.9	1
323.15	28000	824.6	1
323.15	30000	825.7	1

System: nonan-1-ol; phases: Liquid
Property: Viscosity, Pa*s (Liquid); method: Capillary tube (Ostwald; Ubbelohde) method
Temperature, K	Pressure, kPa	Viscosity, Pa*s	uncertainty
298.15	1990	0.0092848	0.0001132
298.15	3990	0.0095107	0.0001159
298.15	6000	0.0097464	0.0001187
298.15	8010	0.0099581	0.0001212
298.15	10010	0.010174	0.000124
298.15	13000	0.010505	0.000128
298.15	16000	0.010846	0.000132
298.15	19010	0.011197	0.000136
298.15	21990	0.011557	0.00014
298.15	25000	0.011928	0.000145
298.15	28020	0.012279	0.000149
298.15	30020	0.012513	0.000152
303.15	2010	0.0084243	0.0001029
303.15	4010	0.0086326	0.0001054
303.15	6020	0.0088427	0.0001079
303.15	8030	0.0090526	0.0001104
303.15	9990	0.0092568	0.0001129
303.15	12980	0.0095682	0.0001166
303.15	15970	0.0098798	0.0001203
303.15	19020	0.010199	0.000124
303.15	22010	0.01051	0.000128
303.15	25000	0.010822	0.000132
303.14	27980	0.011134	0.000135
303.15	30000	0.011343	0.000138
313.15	2000	0.006381	7.86e-05
313.15	3970	0.0065364	8.05e-05
313.15	6020	0.0066988	8.24e-05
313.15	7990	0.0068542	8.42e-05
313.15	10020	0.0070149	8.62e-05
313.15	13000	0.0072501	8.9e-05
313.15	16000	0.0074867	9.18e-05
313.15	18980	0.0077228	9.46e-05
313.15	22000	0.0079611	9.74e-05
313.15	25000	0.0081979	0.0001003
313.15	28010	0.0084361	0.0001031
313.15	29990	0.0085921	0.000105
323.15	2010	0.0047451	5.91e-05
323.15	4020	0.0048588	6.05e-05
323.15	6020	0.0049763	6.19e-05
323.15	8010	0.0050895	6.33e-05
323.15	10010	0.0052024	6.46e-05
323.15	13010	0.0053762	6.67e-05
323.15	16010	0.0055391	6.86e-05
323.15	19000	0.005716	7.07e-05
323.15	22010	0.0058922	7.28e-05
323.15	25000	0.0060695	7.49e-05
323.15	28000	0.0062472	7.7e-05
323.15	30000	0.0063727	7.85e-05
