Measured thermophysical data. Solid-Liquid Equilibria of N-Methylephedrine Enantiomers and Their Mixtures in Two Chiral Ionic Liquids
Source: J. Chem. Eng. Data, 2019, 10.1021/acs.jced.8b01245
Compound 1: (1R,2S)-(-)-dimethylephedrinium bis(trifluoromethylsulfonyl)amide, C14H20F6N2O5S2, InChI=1S/C12H20NO.C2F6NO4S2/c1-10(13(2,3)4)12(14)11-8-6-5-7-9-11;3-1(4,5)14(10,11)9-15(12,13)2(6,7)8/h5-10,12,14H,1-4H3;/q+1;-1/t10-,12-;/m0./s1, purity 99%
Compound 2: (S)-(2-methoxycarbonyl)pyrrolidinium bis(trifluoromethylsulfonyl)amide, C8H12F6N2O6S2, InChI=1S/C6H11NO2.C2F6NO4S2/c1-9-6(8)5-3-2-4-7-5;3-1(4,5)14(10,11)9-15(12,13)2(6,7)8/h5,7H,2-4H2,1H3;/q;-1/p+1/t5-;/m0./s1, purity 99%
Compound 3: (+)-N-methylephedrine, C11H17NO, InChI=1S/C11H17NO/c1-9(12(2)3)11(13)10-7-5-4-6-8-10/h4-9,11,13H,1-3H3/t9-,11-/m1/s1, purity 99%
Compound 4: (-)-N-methylephedrine, C11H17NO, InChI=1S/C11H17NO/c1-9(12(2)3)11(13)10-7-5-4-6-8-10/h4-9,11,13H,1-3H3/t9-,11-/m0/s1, purity 99%
Compound 5: methanol, CH4O, InChI=1S/CH4O/c1-2/h2H,1H3, purity 99.9%
Compound 6: rel-(1R,2S)-N-methylephedrine, C11H17NO, InChI=1S/C11H17NO/c1-9(12(2)3)11(13)10-7-5-4-6-8-10/h4-9,11,13H,1-3H3/t9-,11-/m0/s1, purity 99%

System: (1R,2S)-(-)-dimethylephedrinium bis(trifluoromethylsulfonyl)amide; phases: Liquid
Property: Viscosity, Pa*s (Liquid); method: Capillary tube (Ostwald; Ubbelohde) method
Temperature, K	Pressure, kPa	Viscosity, Pa*s	uncertainty
296.25	100	0.4816	0.0393

System: (S)-(2-methoxycarbonyl)pyrrolidinium bis(trifluoromethylsulfonyl)amide; phases: Liquid
Property: Viscosity, Pa*s (Liquid); method: Capillary tube (Ostwald; Ubbelohde) method
Temperature, K	Pressure, kPa	Viscosity, Pa*s	uncertainty
295.2	100	0.3245	0.0219

System: (+)-N-methylephedrine + (S)-(2-methoxycarbonyl)pyrrolidinium bis(trifluoromethylsulfonyl)amide + methanol; phases: Liquid, Crystal
Fixed: Pressure, kPa = 100
Fixed: Solvent: Volume fraction of methanol = 0.3
Property: Mass fraction of (+)-N-methylephedrine (Liquid); method: Chromatography
Temperature, K	Mass fraction of (+)-N-methylephedrine	uncertainty
278	0.3122	0.012
288	0.34	0.012
298	0.39	0.0121
303	0.4163	0.0121
308	0.4323	0.0121

System: (-)-N-methylephedrine + (S)-(2-methoxycarbonyl)pyrrolidinium bis(trifluoromethylsulfonyl)amide + methanol; phases: Liquid, Crystal
Fixed: Pressure, kPa = 100
Fixed: Solvent: Volume fraction of methanol = 0.3
Property: Mass fraction of (-)-N-methylephedrine (Liquid); method: Chromatography
Temperature, K	Mass fraction of (-)-N-methylephedrine	uncertainty
278	0.3137	0.012
288	0.3358	0.012
298	0.3836	0.0121
303	0.41	0.0121
308	0.4319	0.0121

System: rel-(1R,2S)-N-methylephedrine + (S)-(2-methoxycarbonyl)pyrrolidinium bis(trifluoromethylsulfonyl)amide + methanol; phases: Liquid, Crystal
Fixed: Pressure, kPa = 100
Fixed: Solvent: Volume fraction of methanol = 0.3
Property: Mass fraction of rel-(1R,2S)-N-methylephedrine (Liquid); method: Chromatography
Temperature, K	Mass fraction of rel-(1R,2S)-N-methylephedrine	uncertainty
278	0.4283	0.012
288	0.4556	0.0121
298	0.5261	0.0121
303	0.5558	0.0121
308	0.59	0.0121

System: (+)-N-methylephedrine + (1R,2S)-(-)-dimethylephedrinium bis(trifluoromethylsulfonyl)amide; phases: Liquid, Crystal
Property: Mass fraction of (+)-N-methylephedrine (Liquid); method: Chromatography
Temperature, K	Pressure, kPa	Mass fraction of (+)-N-methylephedrine	uncertainty
308	100	0.1121	0.012

System: (-)-N-methylephedrine + (1R,2S)-(-)-dimethylephedrinium bis(trifluoromethylsulfonyl)amide; phases: Liquid, Crystal
Property: Mass fraction of (-)-N-methylephedrine (Liquid); method: Chromatography
Temperature, K	Pressure, kPa	Mass fraction of (-)-N-methylephedrine	uncertainty
308	100	0.0928	0.012
