Measured thermophysical data. Effect of Cation Modification on the Physicochemical Properties and CO2 Solubility: Nonfluorinated Phosphonium-Based Ionic Liquids Incorporating a Dioctylsulfosuccinate Anion
Source: J. Chem. Eng. Data, 2018, 10.1021/acs.jced.8b00109
Compound 1: trihexyl(tetradecyl)phosphonium docusate, C52H105O7PS, InChI=1S/C32H68P.C20H38O7S/c1-5-9-13-17-18-19-20-21-22-23-24-28-32-33(29-25-14-10-6-2,30-26-15-11-7-3)31-27-16-12-8-4;1-5-9-11-16(7-3)14-26-19(21)13-18(28(23,24)25)20(22)27-15-17(8-4)12-10-6-2/h5-32H2,1-4H3;16-18H,5-15H2,1-4H3,(H,23,24,25)/q+1;/p-1
Compound 2: trioctyl(tetradecyl)phosphonium docusate, C58H117O7PS, InChI=1S/C38H80P.C20H38O7S/c1-5-9-13-17-21-22-23-24-25-26-30-34-38-39(35-31-27-18-14-10-6-2,36-32-28-19-15-11-7-3)37-33-29-20-16-12-8-4;1-5-9-11-16(7-3)14-26-19(21)13-18(28(23,24)25)20(22)27-15-17(8-4)12-10-6-2/h5-38H2,1-4H3;16-18H,5-15H2,1-4H3,(H,23,24,25)/q+1;/p-1
Compound 3: hexane-1,6-diylbis(trioctylphosphonium) docusate, C94H188O14P2S2, InChI=1S/C54H114P2.2C20H38O7S/c1-7-13-19-25-31-39-47-55(48-40-32-26-20-14-8-2,49-41-33-27-21-15-9-3)53-45-37-38-46-54-56(50-42-34-28-22-16-10-4,51-43-35-29-23-17-11-5)52-44-36-30-24-18-12-6;2*1-5-9-11-16(7-3)14-26-19(21)13-18(28(23,24)25)20(22)27-15-17(8-4)12-10-6-2/h7-54H2,1-6H3;2*16-18H,5-15H2,1-4H3,(H,23,24,25)/q+2;;/p-2
Compound 4: decane-1,10-diylbis(trioctylphosphonium) docusate, C98H196O14P2S2, InChI=1S/C58H122P2.2C20H38O7S/c1-7-13-19-25-35-43-51-59(52-44-36-26-20-14-8-2,53-45-37-27-21-15-9-3)57-49-41-33-31-32-34-42-50-58-60(54-46-38-28-22-16-10-4,55-47-39-29-23-17-11-5)56-48-40-30-24-18-12-6;2*1-5-9-11-16(7-3)14-26-19(21)13-18(28(23,24)25)20(22)27-15-17(8-4)12-10-6-2/h7-58H2,1-6H3;2*16-18H,5-15H2,1-4H3,(H,23,24,25)/q+2;;/p-2
Compound 5: carbon dioxide, CO2, InChI=1S/CO2/c2-1-3
Compound 6: trioctyltetradecylphosphonium chloride, C38H80ClP, InChI=1S/C38H80P.ClH/c1-5-9-13-17-21-22-23-24-25-26-30-34-38-39(35-31-27-18-14-10-6-2,36-32-28-19-15-11-7-3)37-33-29-20-16-12-8-4;/h5-38H2,1-4H3;1H/q+1;/p-1
Compound 7: hexane-1,6-diylbis(trioctylphosphonium) chloride, C54H114Cl2P2, InChI=1S/C54H114P2.2ClH/c1-7-13-19-25-31-39-47-55(48-40-32-26-20-14-8-2,49-41-33-27-21-15-9-3)53-45-37-38-46-54-56(50-42-34-28-22-16-10-4,51-43-35-29-23-17-11-5)52-44-36-30-24-18-12-6;;/h7-54H2,1-6H3;2*1H/q+2;;/p-2
Compound 8: decane-1,10-diylbis(trioctylphosphonium) chloride, C58H122Cl2P2, InChI=1S/C58H122P2.2ClH/c1-7-13-19-25-35-43-51-59(52-44-36-26-20-14-8-2,53-45-37-27-21-15-9-3)57-49-41-33-31-32-34-42-50-58-60(54-46-38-28-22-16-10-4,55-47-39-29-23-17-11-5)56-48-40-30-24-18-12-6;;/h7-58H2,1-6H3;2*1H/q+2;;/p-2

System: trihexyl(tetradecyl)phosphonium docusate; phases: Liquid
Fixed: Pressure, kPa = 101.7
Property: Mass density, kg/m3 (Liquid); method: Vibrating tube method
Temperature, K	Mass density, kg/m3	uncertainty
293.15	991	6
298.15	988	6
303.15	985	6
308.15	981	6
313.15	978	6
318.15	975	6
323.15	972	6
328.15	968	6
333.15	965	6
338.15	962	6
343.15	959	6
348.15	955	6
353.15	952	6

System: trihexyl(tetradecyl)phosphonium docusate; phases: Liquid
Fixed: Pressure, kPa = 101.7
Property: Viscosity, Pa*s (Liquid); method: Concentric cylinders viscometry
Temperature, K	Viscosity, Pa*s	uncertainty
293.15	1.795	0.093
298.15	1.272	0.062
303.15	0.912	0.041
308.15	0.668	0.028
313.15	0.496	0.019
318.15	0.374	0.014
323.15	0.286	0.01
328.15	0.222	0.007
333.15	0.174	0.005
338.15	0.138	0.004
343.15	0.111	0.003
348.15	0.091	0.003
353.15	0.075	0.002

System: trihexyl(tetradecyl)phosphonium docusate; phases: Liquid
Fixed: Pressure, kPa = 101.7
Property: Refractive index (Na D-line) (Liquid); method: Standard Abbe refractometry
Temperature, K	Refractive index (Na D-line)	uncertainty
298.15	1.474	0.032
303.15	1.472	0.032
308.15	1.47	0.032
313.15	1.469	0.032
318.15	1.467	0.032
323.15	1.465	0.032
328.15	1.464	0.032
333.15	1.462	0.032

System: trioctyl(tetradecyl)phosphonium docusate; phases: Liquid
Fixed: Pressure, kPa = 101.7
Property: Mass density, kg/m3 (Liquid); method: Vibrating tube method
Temperature, K	Mass density, kg/m3	uncertainty
293.15	975	32
298.15	972	32
303.15	969	32
308.15	965	32
313.15	962	32
318.15	959	32
323.15	956	32
328.15	952	32
333.15	949	32
338.15	946	32
343.15	943	32
348.15	940	32
353.15	936	32

System: trioctyl(tetradecyl)phosphonium docusate; phases: Liquid
Fixed: Pressure, kPa = 101.7
Property: Viscosity, Pa*s (Liquid); method: Concentric cylinders viscometry
Temperature, K	Viscosity, Pa*s	uncertainty
293.15	2.051	0.143
298.15	1.447	0.098
303.15	1.029	0.067
308.15	0.742	0.047
313.15	0.553	0.034
318.15	0.417	0.025
323.15	0.316	0.018
328.15	0.245	0.014
333.15	0.193	0.011
338.15	0.154	0.008
343.15	0.123	0.007
348.15	0.101	0.005
353.15	0.083	0.004

System: trioctyl(tetradecyl)phosphonium docusate; phases: Liquid
Fixed: Pressure, kPa = 101.7
Property: Refractive index (Na D-line) (Liquid); method: Standard Abbe refractometry
Temperature, K	Refractive index (Na D-line)	uncertainty
298.15	1.469	0.034
303.15	1.468	0.034
308.15	1.466	0.034
313.15	1.464	0.034
318.15	1.463	0.034
323.15	1.461	0.034
328.15	1.459	0.034
333.15	1.458	0.034

System: hexane-1,6-diylbis(trioctylphosphonium) docusate; phases: Liquid
Fixed: Pressure, kPa = 101.7
Property: Mass density, kg/m3 (Liquid); method: Vibrating tube method
Temperature, K	Mass density, kg/m3	uncertainty
293.15	966	24
298.15	963	24
303.15	960	24
308.15	957	24
313.15	953	24
318.15	950	24
323.15	947	24
328.15	944	24
333.15	940	24
338.15	937	24
343.15	934	24
348.15	931	24
353.15	929	24

System: hexane-1,6-diylbis(trioctylphosphonium) docusate; phases: Liquid
Fixed: Pressure, kPa = 101.7
Property: Viscosity, Pa*s (Liquid); method: Concentric cylinders viscometry
Temperature, K	Viscosity, Pa*s	uncertainty
293.15	10.138	0.12
298.15	6.637	0.082
303.15	4.489	0.057
308.15	3.12	0.04
313.15	2.203	0.029
318.15	1.587	0.021
323.15	1.134	0.016
328.15	0.798	0.012
333.15	0.578	0.009
338.15	0.427	0.007
343.15	0.326	0.006
348.15	0.243	0.005
353.15	0.202	0.004

System: hexane-1,6-diylbis(trioctylphosphonium) docusate; phases: Liquid
Fixed: Pressure, kPa = 101.7
Property: Refractive index (Na D-line) (Liquid); method: Standard Abbe refractometry
Temperature, K	Refractive index (Na D-line)	uncertainty
298.15	1.475	0.026
303.15	1.474	0.026
308.15	1.472	0.026
313.15	1.471	0.026
318.15	1.469	0.026
323.15	1.468	0.026
328.15	1.466	0.026
333.15	1.465	0.026

System: decane-1,10-diylbis(trioctylphosphonium) docusate; phases: Liquid
Fixed: Pressure, kPa = 101.7
Property: Mass density, kg/m3 (Liquid); method: Vibrating tube method
Temperature, K	Mass density, kg/m3	uncertainty
293.15	958	22
298.15	954	22
303.15	951	22
308.15	948	22
313.15	944	22
318.15	941	22
323.15	938	22
328.15	934	22
333.15	931	22
338.15	928	22
343.15	924	22
348.15	921	22
353.15	918	22

System: decane-1,10-diylbis(trioctylphosphonium) docusate; phases: Liquid
Fixed: Pressure, kPa = 101.7
Property: Viscosity, Pa*s (Liquid); method: Concentric cylinders viscometry
Temperature, K	Viscosity, Pa*s	uncertainty
293.15	18.767	1.566
298.15	11.761	0.933
303.15	7.69	0.573
308.15	5.213	0.367
313.15	3.625	0.241
318.15	2.565	0.162
323.15	1.844	0.11
328.15	1.355	0.077
333.15	1.012	0.055
338.15	0.718	0.037
343.15	0.537	0.026
348.15	0.403	0.019
353.15	0.324	0.015

System: decane-1,10-diylbis(trioctylphosphonium) docusate; phases: Liquid
Fixed: Pressure, kPa = 101.7
Property: Refractive index (Na D-line) (Liquid); method: Standard Abbe refractometry
Temperature, K	Refractive index (Na D-line)	uncertainty
298.15	1.475	0.022
303.15	1.473	0.022
308.15	1.472	0.022
313.15	1.47	0.022
318.15	1.469	0.022
323.15	1.467	0.022
328.15	1.465	0.022
333.15	1.464	0.022

System: trioctyltetradecylphosphonium chloride; phases: Liquid
Fixed: Pressure, kPa = 101.7
Property: Refractive index (Na D-line) (Liquid); method: Standard Abbe refractometry
Temperature, K	Refractive index (Na D-line)	uncertainty
298.15	1.478	0.04
303.15	1.477	0.04
308.15	1.475	0.04
313.15	1.474	0.04
318.15	1.472	0.04
323.15	1.47	0.04
328.15	1.469	0.04
333.15	1.467	0.04

System: hexane-1,6-diylbis(trioctylphosphonium) chloride; phases: Liquid
Fixed: Pressure, kPa = 101.7
Property: Refractive index (Na D-line) (Liquid); method: Standard Abbe refractometry
Temperature, K	Refractive index (Na D-line)	uncertainty
298.15	1.491	0.04
303.15	1.49	0.04
308.15	1.488	0.04
313.15	1.487	0.04
318.15	1.486	0.04
323.15	1.484	0.04
328.15	1.483	0.04
333.15	1.481	0.04

System: decane-1,10-diylbis(trioctylphosphonium) chloride; phases: Liquid
Fixed: Pressure, kPa = 101.7
Property: Refractive index (Na D-line) (Liquid); method: Standard Abbe refractometry
Temperature, K	Refractive index (Na D-line)	uncertainty
298.15	1.487	0.04
303.15	1.486	0.04
308.15	1.484	0.04
313.15	1.483	0.04
318.15	1.481	0.04
323.15	1.48	0.04
328.15	1.478	0.04
333.15	1.477	0.04

System: carbon dioxide + trihexyl(tetradecyl)phosphonium docusate; phases: Liquid, Gas
Fixed: Temperature, K = 298
Property: Mole fraction of carbon dioxide (Liquid); method: magnetic suspension balance
Pressure, kPa	Mole fraction of carbon dioxide	uncertainty
101.7	0.049	0.032
500	0.225	0.032
1000	0.384	0.032
1500	0.511	0.032
2000	0.6	0.032

System: carbon dioxide + trioctyl(tetradecyl)phosphonium docusate; phases: Liquid, Gas
Fixed: Temperature, K = 298
Property: Mole fraction of carbon dioxide (Liquid); method: magnetic suspension balance
Pressure, kPa	Mole fraction of carbon dioxide	uncertainty
101.7	0.057	0.034
500	0.263	0.034
1000	0.438	0.034
1500	0.573	0.034
2000	0.685	0.034

System: carbon dioxide + hexane-1,6-diylbis(trioctylphosphonium) docusate; phases: Liquid, Gas
Fixed: Temperature, K = 298
Property: Mole fraction of carbon dioxide (Liquid); method: magnetic suspension balance
Pressure, kPa	Mole fraction of carbon dioxide	uncertainty
101.7	0.046	0.026
500	0.211	0.026
1000	0.341	0.026
1500	0.458	0.026
2000	0.556	0.026

System: carbon dioxide + decane-1,10-diylbis(trioctylphosphonium) docusate; phases: Liquid, Gas
Fixed: Temperature, K = 298
Property: Mole fraction of carbon dioxide (Liquid); method: magnetic suspension balance
Pressure, kPa	Mole fraction of carbon dioxide	uncertainty
101.7	0.043	0.022
500	0.182	0.022
1000	0.32	0.022
1500	0.421	0.022
2000	0.511	0.022
