Measured thermophysical data. Solid Solubility in the Aqueous 2-Amino-2-methyl-propanol (AMP) Plus Piperazine (PZ) System
Source: J. Chem. Eng. Data, 2019, 10.1021/acs.jced.8b01220
Compound 1: 2-amino-2-methylpropan-1-ol, C4H11NO, InChI=1S/C4H11NO/c1-4(2,5)3-6/h6H,3,5H2,1-2H3
Compound 2: piperazine, C4H10N2, InChI=1S/C4H10N2/c1-2-6-4-3-5-1/h5-6H,1-4H2
Compound 3: water, H2O, InChI=1S/H2O/h1H2, purity 99.9%

System: 2-amino-2-methylpropan-1-ol; phases: Crystal, Liquid, Air at 1 atmosphere
Property: Triple point temperature, K (Crystal); method: DSC
Triple point temperature, K	uncertainty
295.75	1.97

System: 2-amino-2-methylpropan-1-ol + water; phases: Liquid, Crystal, Crystal of intercomponent compound 1
Property: Eutectic temperature, K (Liquid); method: DTA
Pressure, kPa	Eutectic temperature, K	uncertainty
100	252.75	1.3

System: 2-amino-2-methylpropan-1-ol + water; phases: Liquid, Crystal
Fixed: Pressure, kPa = 100
Property: Solid-liquid equilibrium temperature, K (Liquid); method: Large-sample thermal analysis
Mass fraction of 2-amino-2-methylpropan-1-ol	Solid-liquid equilibrium temperature, K	uncertainty
0.0782	271.56	0.23
0.147	269.59	0.23
0.165	268.7	0.4
0.17	268.77	0.23
0.186	268.68	0.23
0.193	267.86	0.42
0.228	266.48	0.23
0.273	264.07	0.23
0.316	262.58	0.23
0.33	261.99	0.58
0.34	260.59	0.89
0.341	260.39	0.35
0.367	257.27	0.23
0.398	255.71	0.66
0.401	255.58	0.92

System: 2-amino-2-methylpropan-1-ol + water; phases: Liquid, Crystal of intercomponent compound 1
Fixed: Pressure, kPa = 100
Property: Solid-liquid equilibrium temperature, K (Liquid); method: Large-sample thermal analysis
Mass fraction of 2-amino-2-methylpropan-1-ol	Solid-liquid equilibrium temperature, K	uncertainty
0.42	252.56	0.79
0.453	255.14	0.64
0.455	254.99	0.87
0.462	255.36	0.47
0.467	255.48	0.58
0.495	255.96	1.16
0.517	255.21	0.89
0.539	253.84	1.73
0.556	253.68	0.98
0.567	253.3	0.62
0.6	251.86	0.24
0.642	249.94	0.77
0.674	248.04	2.03
0.769	239.94	1.65

System: 2-amino-2-methylpropan-1-ol + water; phases: Liquid, Crystal of intercomponent compound 2
Fixed: Pressure, kPa = 100
Property: Solid-liquid equilibrium temperature, K (Liquid); method: Large-sample thermal analysis
Mass fraction of 2-amino-2-methylpropan-1-ol	Solid-liquid equilibrium temperature, K	uncertainty
0.862	256.83	1.34
0.89	266.74	0.54
0.913	275.21	0.52
0.936	277.88	0.62
0.944	279.4	0.56

System: 2-amino-2-methylpropan-1-ol + water; phases: Liquid, Crystal
Fixed: Pressure, kPa = 100
Property: Solid-liquid equilibrium temperature, K (Liquid); method: Large-sample thermal analysis
Mass fraction of 2-amino-2-methylpropan-1-ol	Solid-liquid equilibrium temperature, K	uncertainty
0.962	283.34	0.73
0.963	283.51	0.73
0.976	285.06	0.83

System: 2-amino-2-methylpropan-1-ol + water; phases: Liquid, Crystal
Fixed: Pressure, kPa = 100
Property: Solid-liquid equilibrium temperature, K (Liquid); method: Large-sample thermal analysis
Mass fraction of 2-amino-2-methylpropan-1-ol	Solid-liquid equilibrium temperature, K	uncertainty
0.433	248.98	0.29
0.432	248.08	1.32

System: 2-amino-2-methylpropan-1-ol + piperazine + water; phases: Liquid, Crystal
Fixed: Pressure, kPa = 100
Property: Solid-liquid equilibrium temperature, K (Liquid); method: Large-sample thermal analysis
Mass fraction of 2-amino-2-methylpropan-1-ol	Mass fraction of piperazine	Solid-liquid equilibrium temperature, K	uncertainty
0.26	0.0102	264.3	0.23
0.253	0.0353	263.47	0.24

System: 2-amino-2-methylpropan-1-ol + piperazine + water; phases: Liquid, Crystal of intercomponent compound 1
Fixed: Pressure, kPa = 100
Property: Solid-liquid equilibrium temperature, K (Liquid); method: Large-sample thermal analysis
Mass fraction of 2-amino-2-methylpropan-1-ol	Mass fraction of piperazine	Solid-liquid equilibrium temperature, K	uncertainty
0.25	0.0493	276.07	0.4
0.234	0.111	289.9	0.4
0.217	0.173	298.29	0.27
0.203	0.226	303.84	0.49
0.131	0.5	304.73	0.45
0.135	0.486	305.95	0.4
0.185	0.297	308.89	0.42
0.173	0.342	310.93	0.45
0.157	0.401	311.27	0.23

System: 2-amino-2-methylpropan-1-ol + piperazine + water; phases: Liquid, Crystal of intercomponent compound 2
Fixed: Pressure, kPa = 100
Property: Solid-liquid equilibrium temperature, K (Liquid); method: Large-sample thermal analysis
Mass fraction of 2-amino-2-methylpropan-1-ol	Mass fraction of piperazine	Solid-liquid equilibrium temperature, K	uncertainty
0.106	0.597	316.21	0.58
0.101	0.616	318.65	0.5
