Measured thermophysical data. Thermodynamic and Kinetic Studies of CO2 Capture by Glycol and Amine-Based Deep Eutectic Solvents
Source: J. Chem. Eng. Data, 2018, 10.1021/acs.jced.8b00015
Compound 1: choline chloride, C5H14ClNO, InChI=1S/C5H14NO.ClH/c1-6(2,3)4-5-7;/h7H,4-5H2,1-3H3;1H/q+1;/p-1
Compound 2: 1,2-ethanediol, C2H6O2, InChI=1S/C2H6O2/c3-1-2-4/h3-4H,1-2H2
Compound 3: diethylene glycol, C4H10O3, InChI=1S/C4H10O3/c5-1-3-7-4-2-6/h5-6H,1-4H2
Compound 4: N-methyldiethanolamine, C5H13NO2, InChI=1S/C5H13NO2/c1-6(2-4-7)3-5-8/h7-8H,2-5H2,1H3
Compound 5: tetrabutylammonium bromide, C16H36BrN, InChI=1S/C16H36N.BrH/c1-5-9-13-17(14-10-6-2,15-11-7-3)16-12-8-4;/h5-16H2,1-4H3;1H/q+1;/p-1
Compound 6: carbon dioxide, CO2, InChI=1S/CO2/c2-1-3, purity 99.9%
Compound 7: water, H2O, InChI=1S/H2O/h1H2, purity 99.8%
Compound 8: diethanolamine, C4H11NO2, InChI=1S/C4H11NO2/c6-3-1-5-2-4-7/h5-7H,1-4H2

System: diethanolamine; phases: Crystal, Liquid, Air at 1 atmosphere
Property: Normal melting temperature, K (Crystal); method: DTA
Normal melting temperature, K	uncertainty
300.15	0.5

System: choline chloride + 1,2-ethanediol; phases: Liquid
Property: Mass density, kg/m3 (Liquid); method: Vibrating tube method
Mole fraction of choline chloride	Temperature, K	Pressure, kPa	Mass density, kg/m3	uncertainty
0.333	298.15	101.3	1116.8	22.4

System: choline chloride + 1,2-ethanediol; phases: Liquid, Crystal
Fixed: Pressure, kPa = 101.3
Property: Solid-liquid equilibrium temperature, K (Liquid); method: DTA
Mole fraction of 1,2-ethanediol	Solid-liquid equilibrium temperature, K	uncertainty
0.636	239.82	0.5
0.65	224.48	0.5
0.667	207.45	0.5

System: choline chloride + 1,2-ethanediol; phases: Liquid, Crystal
Fixed: Pressure, kPa = 101.3
Property: Solid-liquid equilibrium temperature, K (Liquid); method: DTA
Mole fraction of 1,2-ethanediol	Solid-liquid equilibrium temperature, K	uncertainty
0.68	231.83	0.5
0.693	240.81	0.5

System: choline chloride + diethylene glycol; phases: Liquid
Fixed: Temperature, K = 298.15
Fixed: Pressure, kPa = 101.3
Property: Mass density, kg/m3 (Liquid); method: Pycnometric method
Mole fraction of choline chloride	Mass density, kg/m3	uncertainty
0.25	1116.9	22.4
0.2	1112.1	22.3

System: choline chloride + N-methyldiethanolamine; phases: Liquid
Fixed: Temperature, K = 298.15
Fixed: Pressure, kPa = 101.3
Property: Mass density, kg/m3 (Liquid); method: Pycnometric method
Mole fraction of choline chloride	Mass density, kg/m3	uncertainty
0.143	1046.8	21
0.125	1053.8	21.1

System: choline chloride + diethanolamine; phases: Liquid
Property: Mass density, kg/m3 (Liquid); method: Pycnometric method
Mole fraction of choline chloride	Temperature, K	Pressure, kPa	Mass density, kg/m3	uncertainty
0.143	298.15	101.3	1098.4	22

System: choline chloride + diethanolamine; phases: Liquid, Crystal of unknown type
Fixed: Pressure, kPa = 101.3
Property: Solid-liquid equilibrium temperature, K (Liquid); method: DTA
Mole fraction of diethanolamine	Solid-liquid equilibrium temperature, K	uncertainty
0.8	294.14	0.5
0.857	291.27	0.5
0.889	293.19	0.5
0.909	292.98	0.5
1	300.15	0.5

System: tetrabutylammonium bromide + 1,2-ethanediol; phases: Liquid
Fixed: Temperature, K = 298.15
Fixed: Pressure, kPa = 101.3
Property: Mass density, kg/m3 (Liquid); method: Pycnometric method
Mole fraction of tetrabutylammonium bromide	Mass density, kg/m3	uncertainty
0.333	1065.8	21.3
0.25	1069.8	21.4
0.2	1072.7	21.5

System: tetrabutylammonium bromide + diethylene glycol; phases: Liquid
Fixed: Temperature, K = 298.15
Fixed: Pressure, kPa = 101.3
Property: Mass density, kg/m3 (Liquid); method: Pycnometric method
Mole fraction of tetrabutylammonium bromide	Mass density, kg/m3	uncertainty
0.333	1075.4	21.5
0.25	1078.2	21.6
0.2	1081.8	21.7

System: tetrabutylammonium bromide + N-methyldiethanolamine; phases: Liquid
Fixed: Temperature, K = 298.15
Fixed: Pressure, kPa = 101.3
Property: Mass density, kg/m3 (Liquid); method: Pycnometric method
Mole fraction of tetrabutylammonium bromide	Mass density, kg/m3	uncertainty
0.25	1051.3	21
0.2	1056.9	21.2

System: tetrabutylammonium bromide + diethanolamine; phases: Liquid
Property: Mass density, kg/m3 (Liquid); method: Pycnometric method
Mole fraction of tetrabutylammonium bromide	Temperature, K	Pressure, kPa	Mass density, kg/m3	uncertainty
0.143	298.15	101.3	1092.7	21.9

System: choline chloride + 1,2-ethanediol + carbon dioxide; phases: Liquid, Gas
Fixed: Solvent: Mole fraction of choline chloride = 0.333
Fixed: Temperature, K = 303.15
Property: Mole fraction of carbon dioxide (Liquid); method: Phase equilibration
Pressure, kPa	Mole fraction of carbon dioxide	uncertainty
643.6	0.0263	0.0053
734.2	0.0302	0.006
823.9	0.0341	0.0068
1046.2	0.0435	0.0087
1246.2	0.0519	0.0104

System: choline chloride + diethylene glycol + carbon dioxide; phases: Liquid, Gas
Fixed: Temperature, K = 303.15
Property: Mole fraction of carbon dioxide (Liquid); method: Phase equilibration
Pressure, kPa	Solvent: Mole fraction of choline chloride	Mole fraction of carbon dioxide	uncertainty
564.2	0.25	0.0181	0.0036
678.3	0.25	0.0217	0.0043
735.6	0.25	0.0236	0.0047
865.3	0.25	0.0276	0.0055
934.2	0.25	0.0297	0.0059
1047	0.25	0.0332	0.0066
1112	0.25	0.0352	0.007
524.2	0.2	0.0169	0.0034
617.3	0.2	0.0199	0.004
726.5	0.2	0.0235	0.0047
846.3	0.2	0.0274	0.0055
924.3	0.2	0.0299	0.006
1032.2	0.2	0.0333	0.0067
1119.7	0.2	0.0361	0.0072

System: tetrabutylammonium bromide + 1,2-ethanediol + carbon dioxide; phases: Liquid, Gas
Fixed: Temperature, K = 303.15
Property: Mole fraction of carbon dioxide (Liquid); method: Phase equilibration
Pressure, kPa	Solvent: Mole fraction of tetrabutylammonium bromide	Mole fraction of carbon dioxide	uncertainty
502.5	0.25	0.0167	0.0033
744.4	0.25	0.0299	0.006
805.8	0.25	0.0324	0.0065
895.2	0.25	0.0362	0.0072
1085.6	0.25	0.0432	0.0086
1249.1	0.25	0.0519	0.0104
542.8	0.2	0.0188	0.0038
669.5	0.2	0.0244	0.0049
802.1	0.2	0.0292	0.0058
832.5	0.2	0.0308	0.0062
1075.9	0.2	0.0394	0.0079
1374.2	0.2	0.0496	0.0099
412	0.333	0.0151	0.003
774.8	0.333	0.0301	0.006
887.6	0.333	0.0348	0.007
1060.9	0.333	0.0429	0.0086
1279.1	0.333	0.0537	0.0107

System: tetrabutylammonium bromide + diethylene glycol + carbon dioxide; phases: Liquid, Gas
Fixed: Temperature, K = 303.15
Property: Mole fraction of carbon dioxide (Liquid); method: Phase equilibration
Pressure, kPa	Solvent: Mole fraction of tetrabutylammonium bromide	Mole fraction of carbon dioxide	uncertainty
590	0.2	0.0471	0.0094
639.9	0.2	0.0503	0.0101
756.9	0.2	0.0597	0.0119
908.8	0.2	0.0789	0.0158
1047.7	0.2	0.0897	0.0179
688.5	0.25	0.0384	0.0077
896.3	0.25	0.0589	0.0118
1094.6	0.25	0.0763	0.0153
1205	0.25	0.0876	0.0175
720.8	0.333	0.0335	0.0067
962.5	0.333	0.0546	0.0109
1005	0.333	0.0593	0.0119
1096.3	0.333	0.0711	0.0142
1392.5	0.333	0.0993	0.0199

System: tetrabutylammonium bromide + N-methyldiethanolamine + carbon dioxide; phases: Liquid, Gas
Fixed: Temperature, K = 303.15
Property: Mole fraction of carbon dioxide (Liquid); method: Phase equilibration
Pressure, kPa	Solvent: Mole fraction of tetrabutylammonium bromide	Mole fraction of carbon dioxide	uncertainty
502.5	0.2	0.1099	0.0222
664.3	0.2	0.1415	0.0286
711.9	0.2	0.1681	0.0338
834	0.2	0.1872	0.0376
904	0.2	0.2018	0.0405
1021	0.2	0.2252	0.0452
423.2	0.25	0.0861	0.0175
512.5	0.25	0.0972	0.0196
614.1	0.25	0.1167	0.0234
732.1	0.25	0.1477	0.03
816.7	0.25	0.1668	0.0336
1000	0.25	0.2038	0.0409

System: tetrabutylammonium bromide + diethanolamine + carbon dioxide; phases: Liquid, Gas
Fixed: Solvent: Mole fraction of tetrabutylammonium bromide = 0.143
Fixed: Temperature, K = 303.15
Property: Mole fraction of carbon dioxide (Liquid); method: Phase equilibration
Pressure, kPa	Mole fraction of carbon dioxide	uncertainty
610.5	0.0464	0.0093
734.6	0.0664	0.0133
823	0.0758	0.0152
930.6	0.0988	0.0198
1011.2	0.1019	0.0204

System: choline chloride + N-methyldiethanolamine + carbon dioxide; phases: Liquid, Gas
Fixed: Temperature, K = 303.15
Property: Mole fraction of carbon dioxide (Liquid); method: Phase equilibration
Pressure, kPa	Solvent: Mole fraction of choline chloride	Mole fraction of carbon dioxide	uncertainty
445.6	0.143	0.1063	0.0213
573	0.143	0.113	0.0226
661.7	0.143	0.1217	0.0243
721	0.143	0.1372	0.0275
911.2	0.143	0.1507	0.0302
1096	0.143	0.1558	0.0312
594.5	0.125	0.1189	0.0238
674.3	0.125	0.1275	0.0255
802.5	0.125	0.1623	0.0325
940.7	0.125	0.1895	0.0379
723.4	0.125	0.14	0.028
1034.5	0.125	0.1986	0.0397

System: choline chloride + diethanolamine + carbon dioxide; phases: Liquid, Gas
Fixed: Solvent: Mole fraction of choline chloride = 0.143
Fixed: Temperature, K = 303.15
Property: Mole fraction of carbon dioxide (Liquid); method: Phase equilibration
Pressure, kPa	Mole fraction of carbon dioxide	uncertainty
663.5	0.0505	0.0101
710	0.0588	0.0118
971	0.0901	0.018
814	0.0709	0.0142
523.4	0.0322	0.0064

System: N-methyldiethanolamine + water + carbon dioxide; phases: Liquid, Gas
Fixed: Solvent: Mass fraction of N-methyldiethanolamine = 0.4
Fixed: Temperature, K = 303.15
Property: Mole fraction of carbon dioxide (Liquid); method: Phase equilibration
Pressure, kPa	Mole fraction of carbon dioxide	uncertainty
140.4	0.0681	0.0136
205.7	0.0694	0.0139
450.4	0.0746	0.0149
630	0.0773	0.0155
923.9	0.0819	0.0164
1005.6	0.0829	0.0166

System: carbon dioxide + diethylene glycol; phases: Liquid, Gas
Fixed: Temperature, K = 303.15
Property: Mole fraction of carbon dioxide (Liquid); method: Phase equilibration
Pressure, kPa	Mole fraction of carbon dioxide	uncertainty
423.2	0.023	0.0046
673.2	0.036	0.0072
734.5	0.0392	0.0078
911.2	0.0484	0.0097
1131.2	0.0598	0.012
