Measured thermophysical data. Solid-Liquid Phase Equilibria of the Aqueous Ternary System (MgSO4 + Mg2B6O11 + H2O) at (288.15, 298.15, and 308.15) K
Source: J. Chem. Eng. Data, 2017, 10.1021/acs.jced.7b00378
Compound 1: boron magnesium oxide, B6Mg2O11, InChI=1S/6B.2Mg.11O/q6*+3;2*+2;11*-2, purity 99.8%
Compound 2: magnesium sulfate, MgO4S, InChI=1S/Mg.H2O4S/c;1-5(2,3)4/h;(H2,1,2,3,4)/q+2;/p-2, purity 99.8%
Compound 3: water, H2O, InChI=1S/H2O/h1H2, purity 99.8%

System: magnesium sulfate + boron magnesium oxide + water; phases: Liquid, Crystal of intercomponent compound 1
Fixed: Pressure, kPa = 100
Property: Mass fraction of boron magnesium oxide (Liquid); method: titration and gravimetry
Temperature, K	Mass fraction of magnesium sulfate	Mass fraction of boron magnesium oxide	uncertainty
288.15	0	0.0023	0.0012
288.15	0.0472	0.0028	0.0012
288.15	0.0885	0.0034	0.0012
288.15	0.1297	0.004	0.0012
288.15	0.1699	0.0045	0.0012
288.15	0.2122	0.0049	0.0012
288.15	0.2441	0.0051	0.0012
298.15	0	0.0027	0.0012
298.15	0.0322	0.0033	0.0012
298.15	0.0567	0.0038	0.0012
298.15	0.11	0.0046	0.0012
298.15	0.2211	0.0062	0.0012
298.15	0.2569	0.0065	0.0012
298.15	0.2738	0.0067	0.0012
308.15	0	0.0032	0.0012
308.15	0.061	0.0051	0.0012
308.15	0.1523	0.0068	0.0012
308.15	0.1818	0.0072	0.0012
308.15	0.1938	0.0074	0.0012
308.15	0.295	0.0089	0.0012

System: magnesium sulfate + boron magnesium oxide + water; phases: Liquid, Crystal of intercomponent compound 2
Fixed: Pressure, kPa = 100
Property: Mass fraction of boron magnesium oxide (Liquid); method: titration and gravimetry
Temperature, K	Mass fraction of magnesium sulfate	Mass fraction of boron magnesium oxide	uncertainty
288.15	0.2441	0.0051	0.0033
288.15	0.2452	0.0046	0.0018
288.15	0.243	0.0024	0.0019
288.15	0.2425	0.0015	0.0015
288.15	0.2409	0	
298.15	0.2738	0.0067	0.0035
298.15	0.2748	0.0049	0.0041
298.15	0.2748	0.0028	0.0023
298.15	0.2762	0.0008	0.0008
298.15	0.2768	0	
308.15	0.295	0.0089	0.0051
308.15	0.2946	0.0088	0.0043
308.15	0.2954	0.0056	0.0039
308.15	0.2958	0.0028	0.0026
308.15	0.2974	0	

System: magnesium sulfate + boron magnesium oxide + water; phases: Liquid
Fixed: Pressure, kPa = 100
Property: Mass density, kg/m3 (Liquid); method: Vibrating tube method
Temperature, K	Mass fraction of magnesium sulfate	Mass fraction of boron magnesium oxide	Mass density, kg/m3	uncertainty
288.15	0	0.0023	1002.46	10.28
288.15	0.0472	0.0028	1050.34	18.63
288.15	0.0885	0.0034	1094.75	35.43
288.15	0.1297	0.004	1142.6	1.83
288.15	0.1699	0.0045	1189.91	1.84
288.15	0.2122	0.0049	1241.61	2.06
288.15	0.2441	0.0051	1282.06	2.15
288.15	0.2452	0.0046	1281.29	1.84
288.15	0.243	0.0024	1278.39	1.88
288.15	0.2425	0.0015	1277.17	1.87
288.15	0.2409	0	1274.47	1.8
298.15	0	0.0027	999.56	9.89
298.15	0.0322	0.0033	1032.14	8.65
298.15	0.0567	0.0038	1060.49	17.52
298.15	0.11	0.0046	1115.19	9.95
298.15	0.2211	0.0062	1240.3	1.8
298.15	0.2569	0.0065	1281.97	2
298.15	0.2738	0.0067	1309.9	3.22
298.15	0.2748	0.0049	1308.14	2.67
298.15	0.2748	0.0028	1305.2	2.34
298.15	0.2762	0.0008	1304.63	1.94
298.15	0.2768	0	1302.41	1.75
308.15	0	0.0032	997.48	1.01
308.15	0.061	0.0051	1058.39	10.19
308.15	0.1523	0.0068	1159.1	1.78
308.15	0.1818	0.0072	1192.52	1.78
308.15	0.1938	0.0074	1207.47	2.31
308.15	0.295	0.0089	1334.24	2.05
308.15	0.2946	0.0088	1330.18	1.9
308.15	0.2954	0.0056	1332.37	1.89
308.15	0.2958	0.0028	1329.4	2.6
308.15	0.2974	0	1325.91	1.71

System: magnesium sulfate + boron magnesium oxide + water; phases: Liquid
Fixed: Pressure, kPa = 100
Property: Refractive index (Na D-line) (Liquid); method: Standard Abbe refractometry
Temperature, K	Mass fraction of magnesium sulfate	Mass fraction of boron magnesium oxide	Refractive index (Na D-line)	uncertainty
288.15	0	0.0023	1.335	0.0038
288.15	0.0472	0.0028	1.343	0.0156
288.15	0.0885	0.0034	1.3521	0.0152
288.15	0.1297	0.004	1.3611	0.0021
288.15	0.1699	0.0045	1.3702	0.0021
288.15	0.2122	0.0049	1.3795	0.002
288.15	0.2441	0.0051	1.386	0.0021
288.15	0.2452	0.0046	1.386	0.002
288.15	0.243	0.0024	1.3852	0.0021
288.15	0.2425	0.0015	1.3852	0.0021
288.15	0.2409	0	1.384	0.002
298.15	0	0.0027	1.3335	0.0031
298.15	0.0322	0.0033	1.3395	0.0037
298.15	0.0567	0.0038	1.3444	0.0042
298.15	0.11	0.0046	1.3553	0.0021
298.15	0.2211	0.0062	1.3776	0.002
298.15	0.2569	0.0065	1.3846	0.0021
298.15	0.2738	0.0067	1.3901	0.0022
298.15	0.2748	0.0049	1.3894	0.0021
298.15	0.2748	0.0028	1.3883	0.0021
298.15	0.2762	0.0008	1.3881	0.002
298.15	0.2768	0	1.3895	0.002
308.15	0	0.0032	1.3322	0.002
308.15	0.061	0.0051	1.3439	0.0024
308.15	0.1523	0.0068	1.3626	0.0021
308.15	0.1818	0.0072	1.3686	0.0021
308.15	0.1938	0.0074	1.3712	0.0021
308.15	0.295	0.0089	1.3926	0.0021
308.15	0.2946	0.0088	1.3924	0.0021
308.15	0.2954	0.0056	1.3916	0.0021
308.15	0.2958	0.0028	1.391	0.0021
308.15	0.2974	0	1.3902	0.002

System: boron magnesium oxide + water; phases: Liquid, Crystal of intercomponent compound 1
Fixed: Pressure, kPa = 100
Property: Mass fraction of boron magnesium oxide (Liquid); method: titration and gravimetry
Temperature, K	Mass fraction of boron magnesium oxide	uncertainty
288.15	0.0023	0.0012
298.15	0.0027	0.0012
308.15	0.0032	0.0012

System: boron magnesium oxide + water; phases: Liquid
Fixed: Pressure, kPa = 100
Property: Mass density, kg/m3 (Liquid); method: Vibrating tube method
Temperature, K	Mass fraction of boron magnesium oxide	Mass density, kg/m3	uncertainty
288.15	0.0023	1002.46	1.04
298.15	0.0027	999.56	1.02
308.15	0.0032	997.48	1.04

System: boron magnesium oxide + water; phases: Liquid
Fixed: Pressure, kPa = 100
Property: Refractive index (Na D-line) (Liquid); method: Standard Abbe refractometry
Temperature, K	Mass fraction of boron magnesium oxide	Refractive index (Na D-line)	uncertainty
288.15	0.0023	1.335	0.002
298.15	0.0027	1.3335	0.002
308.15	0.0032	1.3322	0.002

System: magnesium sulfate + water; phases: Liquid, Crystal of intercomponent compound 2
Fixed: Pressure, kPa = 100
Property: Solid-liquid equilibrium temperature, K (Liquid); method: titration and gravimetry
Mass fraction of magnesium sulfate	Solid-liquid equilibrium temperature, K	uncertainty
0.2409	288.15	0.54
0.2768	298.15	0.6
0.2974	308.15	0.73

System: magnesium sulfate + water; phases: Liquid
Fixed: Pressure, kPa = 100
Property: Mass density, kg/m3 (Liquid); method: Vibrating tube method
Temperature, K	Mass fraction of magnesium sulfate	Mass density, kg/m3	uncertainty
288.15	0.2409	1274.47	1.07
298.15	0.2768	1302.41	1.13
308.15	0.2974	1325.91	1.13

System: magnesium sulfate + water; phases: Liquid
Fixed: Pressure, kPa = 100
Property: Refractive index (Na D-line) (Liquid); method: Standard Abbe refractometry
Temperature, K	Mass fraction of magnesium sulfate	Refractive index (Na D-line)	uncertainty
288.15	0.2409	1.384	0.002
298.15	0.2768	1.3895	0.0021
308.15	0.2974	1.3902	0.0021
