Measured thermophysical data. Isobaric Vapor-Liquid Equilibrium Data for Binary Systems of Anisole with Methyl Acetate, Ethyl Acetate, n-Propyl Acetate, and Isopropyl Acetate at 93.9 kPa
Source: J. Chem. Eng. Data, 2018, 10.1021/acs.jced.8b00063
Compound 1: anisole, C7H8O, InChI=1S/C7H8O/c1-8-7-5-3-2-4-6-7/h2-6H,1H3, purity 99%
Compound 2: methyl ethanoate, C3H6O2, InChI=1S/C3H6O2/c1-3(4)5-2/h1-2H3, purity 99%
Compound 3: ethyl acetate, C4H8O2, InChI=1S/C4H8O2/c1-3-6-4(2)5/h3H2,1-2H3, purity 99.5%
Compound 4: propyl ethanoate, C5H10O2, InChI=1S/C5H10O2/c1-3-4-7-5(2)6/h3-4H2,1-2H3, purity 98%
Compound 5: 1-methylethyl ethanoate, C5H10O2, InChI=1S/C5H10O2/c1-4(2)7-5(3)6/h4H,1-3H3, purity 99%

System: anisole; phases: Liquid
Property: Refractive index (Na D-line) (Liquid); method: Standard Abbe refractometry
Temperature, K	Pressure, kPa	Refractive index (Na D-line)	uncertainty
298.15	101.325	1.51554	0.00601

System: anisole; phases: Liquid, Gas
Property: Vapor or sublimation pressure, kPa (Liquid); method: Ebulliometric method (Recirculating still)
Temperature, K	Vapor or sublimation pressure, kPa	uncertainty
423.92	93.9	1

System: anisole; phases: Liquid
Fixed: Temperature, K = 293.15
Fixed: Pressure, kPa = 93.9
Property: Refractive index (Na D-line) (Liquid); method: Standard Abbe refractometry
Refractive index (Na D-line)	uncertainty
1.5168	0.006
1.5167	0.006

System: methyl ethanoate; phases: Liquid
Property: Refractive index (Na D-line) (Liquid); method: Standard Abbe refractometry
Temperature, K	Pressure, kPa	Refractive index (Na D-line)	uncertainty
298.15	101.325	1.36146	0.00601

System: methyl ethanoate; phases: Liquid, Gas
Property: Vapor or sublimation pressure, kPa (Liquid); method: Ebulliometric method (Recirculating still)
Temperature, K	Vapor or sublimation pressure, kPa	uncertainty
327.9	93.9	1

System: methyl ethanoate; phases: Liquid
Property: Refractive index (Na D-line) (Liquid); method: Standard Abbe refractometry
Temperature, K	Pressure, kPa	Refractive index (Na D-line)	uncertainty
293.15	93.9	1.3615	0.006

System: ethyl acetate; phases: Liquid
Property: Refractive index (Na D-line) (Liquid); method: Standard Abbe refractometry
Temperature, K	Pressure, kPa	Refractive index (Na D-line)	uncertainty
298.15	101.325	1.37244	0.00601

System: ethyl acetate; phases: Liquid, Gas
Property: Vapor or sublimation pressure, kPa (Liquid); method: Ebulliometric method (Recirculating still)
Temperature, K	Vapor or sublimation pressure, kPa	uncertainty
347.92	93.9	1

System: ethyl acetate; phases: Liquid
Property: Refractive index (Na D-line) (Liquid); method: Standard Abbe refractometry
Temperature, K	Pressure, kPa	Refractive index (Na D-line)	uncertainty
293.15	93.9	1.3724	0.006

System: propyl ethanoate; phases: Liquid
Property: Refractive index (Na D-line) (Liquid); method: Standard Abbe refractometry
Temperature, K	Pressure, kPa	Refractive index (Na D-line)	uncertainty
298.15	101.325	1.38406	0.00602

System: propyl ethanoate; phases: Liquid, Gas
Property: Vapor or sublimation pressure, kPa (Liquid); method: Ebulliometric method (Recirculating still)
Temperature, K	Vapor or sublimation pressure, kPa	uncertainty
372.17	93.9	1

System: propyl ethanoate; phases: Liquid
Property: Refractive index (Na D-line) (Liquid); method: Standard Abbe refractometry
Temperature, K	Pressure, kPa	Refractive index (Na D-line)	uncertainty
293.15	93.9	1.3841	0.006

System: 1-methylethyl ethanoate; phases: Liquid
Property: Refractive index (Na D-line) (Liquid); method: Standard Abbe refractometry
Temperature, K	Pressure, kPa	Refractive index (Na D-line)	uncertainty
298.15	101.325	1.37739	0.00601

System: 1-methylethyl ethanoate; phases: Liquid, Gas
Property: Vapor or sublimation pressure, kPa (Liquid); method: Ebulliometric method (Recirculating still)
Temperature, K	Vapor or sublimation pressure, kPa	uncertainty
359.68	93.9	1

System: 1-methylethyl ethanoate; phases: Liquid
Property: Refractive index (Na D-line) (Liquid); method: Standard Abbe refractometry
Temperature, K	Pressure, kPa	Refractive index (Na D-line)	uncertainty
293.15	93.9	1.3774	0.006

System: methyl ethanoate + anisole; phases: Liquid, Gas
Fixed: Pressure, kPa = 93.9
Property: Boiling temperature at pressure P, K (Liquid); method: Ebulliometric method (Recirculating still)
Mole fraction of methyl ethanoate	Boiling temperature at pressure P, K	uncertainty
1	327.9	0.22
0.9495	329.25	0.23
0.9147	330.26	0.23
0.8395	332.45	0.23
0.7129	336.69	0.23
0.6429	339.39	0.24
0.5374	344.15	0.25
0.4142	351.39	0.27
0.2655	364.1	0.3
0.1798	375.33	0.43
0.0608	400.92	0.7
0.032	410.44	0.79
0	423.92	0.22

System: methyl ethanoate + anisole; phases: Gas, Liquid
Fixed: Pressure, kPa = 93.9
Property: Mole fraction of methyl ethanoate (Gas); method: Index of refraction calibration data
Mole fraction of methyl ethanoate	Mole fraction of methyl ethanoate	uncertainty
1	1	
0.9495	0.9983	0.0017
0.9147	0.997	0.002
0.8395	0.9938	0.002
0.7129	0.987	0.002
0.6429	0.9823	0.002
0.5374	0.9717	0.0021
0.4142	0.9508	0.0023
0.2655	0.8962	0.003
0.1798	0.8226	0.0054
0.0608	0.5177	0.015
0.032	0.3393	0.018
0	0	

System: methyl ethanoate + anisole; phases: Liquid
Fixed: Temperature, K = 293.15
Fixed: Pressure, kPa = 93.9
Property: Refractive index (Na D-line) (Liquid); method: Standard Abbe refractometry
Mole fraction of methyl ethanoate	Refractive index (Na D-line)	uncertainty
0	1.5168	0.006
0.1432	1.4995	0.006
0.1704	1.497	0.006
0.2986	1.4855	0.006
0.3004	1.4826	0.006
0.3323	1.4777	0.006
0.41	1.4692	0.006
0.4439	1.4625	0.006
0.5057	1.4542	0.006
0.5405	1.451	0.006
0.6003	1.4372	0.006
0.6354	1.4327	0.006
0.6972	1.4233	0.006
0.814	1.3994	0.006
0.8577	1.3909	0.006
0.9391	1.3743	0.006
1	1.3615	0.006

System: ethyl acetate + anisole; phases: Liquid, Gas
Fixed: Pressure, kPa = 93.9
Property: Boiling temperature at pressure P, K (Liquid); method: Ebulliometric method (Recirculating still)
Mole fraction of ethyl acetate	Boiling temperature at pressure P, K	uncertainty
1	347.92	0.22
0.9465	349.4	0.23
0.8805	351.38	0.23
0.8162	353.45	0.23
0.7115	357.23	0.23
0.5981	361.53	0.24
0.4932	366.4	0.24
0.3822	372.9	0.26
0.2736	381.28	0.29
0.16	393.64	0.34
0.0785	406.38	0.4
0.0384	414.49	0.5
0	423.92	0.22

System: ethyl acetate + anisole; phases: Gas, Liquid
Fixed: Pressure, kPa = 93.9
Property: Mole fraction of ethyl acetate (Gas); method: Index of refraction calibration data
Mole fraction of ethyl acetate	Mole fraction of ethyl acetate	uncertainty
1	1	
0.9465	0.9952	0.002
0.8805	0.9887	0.002
0.8162	0.9817	0.002
0.7115	0.9681	0.0021
0.5981	0.948	0.0022
0.4932	0.9214	0.0024
0.3822	0.8779	0.003
0.2736	0.8058	0.0041
0.16	0.6592	0.0068
0.0785	0.4425	0.0096
0.0384	0.2615	0.012
0	0	

System: ethyl acetate + anisole; phases: Liquid
Fixed: Temperature, K = 293.15
Fixed: Pressure, kPa = 93.9
Property: Refractive index (Na D-line) (Liquid); method: Standard Abbe refractometry
Mole fraction of ethyl acetate	Refractive index (Na D-line)	uncertainty
0	1.5168	0.006
0.1651	1.4954	0.006
0.1318	1.5002	0.006
0.1818	1.4935	0.006
0.2131	1.4896	0.006
0.2301	1.4867	0.006
0.3334	1.4735	0.006
0.3472	1.4712	0.006
0.4119	1.4619	0.006
0.4709	1.4548	0.006
0.4899	1.4518	0.006
0.5481	1.4426	0.006
0.6353	1.431	0.0061
0.6467	1.4243	0.0061
0.718	1.4201	0.006
0.7382	1.4142	0.006
0.8354	1.3989	0.006
0.9091	1.3874	0.006
1	1.3724	0.006

System: propyl ethanoate + anisole; phases: Liquid, Gas
Fixed: Pressure, kPa = 93.9
Property: Boiling temperature at pressure P, K (Liquid); method: Ebulliometric method (Recirculating still)
Mole fraction of propyl ethanoate	Boiling temperature at pressure P, K	uncertainty
1	372.17	0.23
0.9477	373.42	0.24
0.893	374.72	0.24
0.8026	377.2	0.24
0.6865	380.89	0.24
0.5868	384.52	0.24
0.4793	389.01	0.24
0.3911	393.25	0.25
0.2855	399.19	0.26
0.1866	405.96	0.27
0.0921	413.97	0.29
0.0436	419	0.31
0	423.92	0.22

System: propyl ethanoate + anisole; phases: Gas, Liquid
Fixed: Pressure, kPa = 93.9
Property: Mole fraction of propyl ethanoate (Gas); method: Index of refraction calibration data
Mole fraction of propyl ethanoate	Mole fraction of propyl ethanoate	uncertainty
1	1	
0.9477	0.9887	0.0021
0.893	0.976	0.0022
0.8026	0.9519	0.0025
0.6865	0.9141	0.0032
0.5868	0.8727	0.0041
0.4793	0.8145	0.0053
0.3911	0.7513	0.0066
0.2855	0.6476	0.0083
0.1866	0.5068	0.0102
0.0921	0.3053	0.007
0.0436	0.1621	0.0073
0	0	

System: propyl ethanoate + anisole; phases: Liquid
Fixed: Temperature, K = 293.15
Fixed: Pressure, kPa = 93.9
Property: Refractive index (Na D-line) (Liquid); method: Standard Abbe refractometry
Mole fraction of propyl ethanoate	Refractive index (Na D-line)	uncertainty
0	1.5168	0.006
0.111859	1.5019	0.006
0.139935	1.4979	0.006
0.157529	1.4954	0.006
0.218688	1.4875	0.006
0.241831	1.4844	0.006
0.338711	1.4706	0.006
0.353952	1.4687	0.006
0.416849	1.4603	0.006
0.475944	1.4525	0.006
0.532998	1.4451	0.006
0.583266	1.4381	0.006
0.60957	1.435	0.006
0.668322	1.4268	0.006
0.70806	1.4203	0.006
0.804699	1.4093	0.006
0.897805	1.3968	0.006
1	1.3841	0.006

System: 1-methylethyl ethanoate + anisole; phases: Liquid, Gas
Fixed: Pressure, kPa = 93.9
Property: Boiling temperature at pressure P, K (Liquid); method: Ebulliometric method (Recirculating still)
Mole fraction of 1-methylethyl ethanoate	Boiling temperature at pressure P, K	uncertainty
1	359.68	0.22
0.9538	360.92	0.23
0.9102	362.15	0.23
0.7963	365.69	0.23
0.6855	369.5	0.23
0.5885	373.3	0.24
0.4833	378.12	0.24
0.377	383.95	0.25
0.2686	391.4	0.27
0.1796	399.22	0.31
0.0711	412.15	0.34
0.0369	417.38	0.4
0	423.92	0.22

System: 1-methylethyl ethanoate + anisole; phases: Gas, Liquid
Fixed: Pressure, kPa = 93.9
Property: Mole fraction of 1-methylethyl ethanoate (Gas); method: Index of refraction calibration data
Mole fraction of 1-methylethyl ethanoate	Mole fraction of 1-methylethyl ethanoate	uncertainty
1	1	
0.9538	0.9935	0.002
0.9102	0.9869	0.002
0.7963	0.9673	0.0021
0.6855	0.9428	0.0023
0.5885	0.9149	0.0027
0.4833	0.8741	0.0032
0.377	0.8152	0.0042
0.2686	0.7228	0.0057
0.1796	0.6012	0.0082
0.0711	0.3334	0.0077
0.0369	0.1972	0.01
0	0	

System: 1-methylethyl ethanoate + anisole; phases: Liquid
Fixed: Temperature, K = 293.15
Fixed: Pressure, kPa = 93.9
Property: Refractive index (Na D-line) (Liquid); method: Standard Abbe refractometry
Mole fraction of 1-methylethyl ethanoate	Refractive index (Na D-line)	uncertainty
0	1.5167	0.006
0.1058	1.5013	0.006
0.1227	1.499	0.006
0.1703	1.4924	0.006
0.1794	1.4915	0.006
0.2163	1.4872	0.006
0.2803	1.4768	0.006
0.3303	1.4727	0.006
0.3684	1.4673	0.006
0.4254	1.4561	0.006
0.4928	1.4481	0.006
0.5116	1.4445	0.006
0.5769	1.4361	0.006
0.6338	1.4272	0.006
0.7247	1.4154	0.006
0.8136	1.4026	0.006
0.9006	1.3903	0.006
1	1.3774	0.006
