Measured thermophysical data. Solid-Liquid Equilibria and Pitzer Model Simulation of the SrCl2-NH4Cl-MgCl2-H2O Quaternary System at T = 298 K
Source: J. Chem. Eng. Data, 2018, 10.1021/acs.jced.8b00675
Compound 1: ammonium chloride (NH4Cl), ClH4N, InChI=1S/ClH.H3N/h1H;1H3, purity 99%
Compound 2: strontium chloride, Cl2Sr, InChI=1S/2ClH.Sr/h2*1H;/q;;+2/p-2, purity 99%
Compound 3: magnesium chloride, Cl2Mg, InChI=1S/2ClH.Mg/h2*1H;/q;;+2/p-2, purity 99%
Compound 4: water, H2O, InChI=1S/H2O/h1H2, purity 99.9%

System: magnesium chloride + ammonium chloride (NH4Cl) + water; phases: Liquid, Crystal of intercomponent compound 1
Property: Mass fraction of ammonium chloride (NH4Cl) (Liquid); method: gravimetric titration and  spectroscopy
Mass fraction of magnesium chloride	Temperature, K	Pressure, kPa	Mass fraction of ammonium chloride (NH4Cl)	uncertainty
0.3477	298	100	0.0004	0.0004

System: magnesium chloride + ammonium chloride (NH4Cl) + water; phases: Liquid, Crystal of intercomponent compound 2
Fixed: Temperature, K = 298
Fixed: Pressure, kPa = 100
Property: Mass fraction of ammonium chloride (NH4Cl) (Liquid); method: gravimetric titration and  spectroscopy
Mass fraction of magnesium chloride	Mass fraction of ammonium chloride (NH4Cl)	uncertainty
0.3477	0.0004	0.0004
0.219	0.0779	0.0117

System: magnesium chloride + ammonium chloride (NH4Cl) + water; phases: Liquid
Fixed: Temperature, K = 298
Fixed: Pressure, kPa = 100
Property: Mass density, kg/m3 (Liquid); method: Pycnometric method
Mass fraction of magnesium chloride	Mass fraction of ammonium chloride (NH4Cl)	Mass density, kg/m3	uncertainty
0.3477	0.0004	1307.5	21.4
0.219	0.0779	1208.6	21.5

System: magnesium chloride + ammonium chloride (NH4Cl) + water; phases: Liquid
Fixed: Temperature, K = 298
Fixed: Pressure, kPa = 100
Property: Refractive index (Na D-line) (Liquid); method: Standard Abbe refractometry
Mass fraction of magnesium chloride	Mass fraction of ammonium chloride (NH4Cl)	Refractive index (Na D-line)	uncertainty
0.3477	0.0004	1.43	0.0045
0.219	0.0779	1.405	0.0045

System: magnesium chloride + ammonium chloride (NH4Cl) + water; phases: Liquid, Crystal
Property: Mass fraction of ammonium chloride (NH4Cl) (Liquid); method: gravimetric titration and  spectroscopy
Mass fraction of magnesium chloride	Temperature, K	Pressure, kPa	Mass fraction of ammonium chloride (NH4Cl)	uncertainty
0.219	298	100	0.0779	0.01

System: strontium chloride + magnesium chloride + water; phases: Liquid, Crystal of intercomponent compound 1
Property: Mass fraction of magnesium chloride (Liquid); method: gravimetric titration and  spectroscopy
Mass fraction of strontium chloride	Temperature, K	Pressure, kPa	Mass fraction of magnesium chloride	uncertainty
0.0205	298	100	0.3347	0.01

System: strontium chloride + magnesium chloride + water; phases: Liquid, Crystal of intercomponent compound 2
Property: Mass fraction of magnesium chloride (Liquid); method: gravimetric titration and  spectroscopy
Mass fraction of strontium chloride	Temperature, K	Pressure, kPa	Mass fraction of magnesium chloride	uncertainty
0.0205	298	100	0.3347	0.01

System: strontium chloride + magnesium chloride + water; phases: Liquid
Property: Mass density, kg/m3 (Liquid); method: Pycnometric method
Mass fraction of strontium chloride	Mass fraction of magnesium chloride	Temperature, K	Pressure, kPa	Mass density, kg/m3	uncertainty
0.0205	0.3347	298	100	1321.1	20.1

System: strontium chloride + magnesium chloride + water; phases: Liquid
Property: Refractive index (Na D-line) (Liquid); method: Standard Abbe refractometry
Mass fraction of strontium chloride	Mass fraction of magnesium chloride	Temperature, K	Pressure, kPa	Refractive index (Na D-line)	uncertainty
0.0205	0.3347	298	100	1.4305	0.004

System: strontium chloride + ammonium chloride (NH4Cl) + water; phases: Liquid, Crystal
Property: Mass fraction of ammonium chloride (NH4Cl) (Liquid); method: gravimetric titration and  spectroscopy
Mass fraction of strontium chloride	Temperature, K	Pressure, kPa	Mass fraction of ammonium chloride (NH4Cl)	uncertainty
0.3146	298	100	0.0853	0.01

System: strontium chloride + ammonium chloride (NH4Cl) + water; phases: Liquid, Crystal of intercomponent compound 1
Property: Mass fraction of ammonium chloride (NH4Cl) (Liquid); method: gravimetric titration and  spectroscopy
Mass fraction of strontium chloride	Temperature, K	Pressure, kPa	Mass fraction of ammonium chloride (NH4Cl)	uncertainty
0.3146	298	100	0.0853	0.01

System: strontium chloride + ammonium chloride (NH4Cl) + water; phases: Liquid
Property: Mass density, kg/m3 (Liquid); method: Pycnometric method
Mass fraction of strontium chloride	Mass fraction of ammonium chloride (NH4Cl)	Temperature, K	Pressure, kPa	Mass density, kg/m3	uncertainty
0.3146	0.0853	298	100	1366.5	20.1

System: strontium chloride + ammonium chloride (NH4Cl) + water; phases: Liquid
Property: Refractive index (Na D-line) (Liquid); method: Standard Abbe refractometry
Mass fraction of strontium chloride	Mass fraction of ammonium chloride (NH4Cl)	Temperature, K	Pressure, kPa	Refractive index (Na D-line)	uncertainty
0.3146	0.0853	298	100	1.4194	0.004
