Measured thermophysical data. Densities, Speeds of Sound, and Viscosities of Binary Mixtures of an n-Alkylcyclohexane (n-Propyl-, n-Pentyl-, n-Hexyl-, n-Heptyl, n-Octyl-, n-Nonyl-, n-Decyl-, and n-Dodecyl-) with n-Hexadecane
Source: J. Chem. Eng. Data, 2018, 10.1021/acs.jced.8b00692
Compound 1: 1-cyclohexylpropane, C9H18, InChI=1S/C9H18/c1-2-6-9-7-4-3-5-8-9/h9H,2-8H2,1H3, purity 99.9%
Compound 2: pentylcyclohexane, C11H22, InChI=1S/C11H22/c1-2-3-5-8-11-9-6-4-7-10-11/h11H,2-10H2,1H3, purity 99.2%
Compound 3: hexylcyclohexane, C12H24, InChI=1S/C12H24/c1-2-3-4-6-9-12-10-7-5-8-11-12/h12H,2-11H2,1H3, purity 98.8%
Compound 4: heptylcyclohexane, C13H26, InChI=1S/C13H26/c1-2-3-4-5-7-10-13-11-8-6-9-12-13/h13H,2-12H2,1H3, purity 99.5%
Compound 5: octylcyclohexane, C14H28, InChI=1S/C14H28/c1-2-3-4-5-6-8-11-14-12-9-7-10-13-14/h14H,2-13H2,1H3, purity 99.3%
Compound 6: nonylcyclohexane, C15H30, InChI=1S/C15H30/c1-2-3-4-5-6-7-9-12-15-13-10-8-11-14-15/h15H,2-14H2,1H3, purity 98.6%
Compound 7: decylcyclohexane, C16H32, InChI=1S/C16H32/c1-2-3-4-5-6-7-8-10-13-16-14-11-9-12-15-16/h16H,2-15H2,1H3, purity 99.4%
Compound 8: dodecylcyclohexane, C18H36, InChI=1S/C18H36/c1-2-3-4-5-6-7-8-9-10-12-15-18-16-13-11-14-17-18/h18H,2-17H2,1H3, purity 99.4%
Compound 9: hexadecane, C16H34, InChI=1S/C16H34/c1-3-5-7-9-11-13-15-16-14-12-10-8-6-4-2/h3-16H2,1-2H3, purity 99.8%

System: 1-cyclohexylpropane; phases: Liquid
Fixed: Pressure, kPa = 102
Property: Mass density, kg/m3 (Liquid); method: Vibrating tube method
Temperature, K	Mass density, kg/m3	uncertainty
293.15	793.54	0.81
303.15	785.73	0.81
313.15	777.9	0.81
323.15	770.04	0.81
333.15	762.12	0.81
343.15	754.2	0.8
353.15	746.1	0.8
363.15	738	0.8

System: 1-cyclohexylpropane; phases: Liquid
Fixed: Pressure, kPa = 102
Property: Viscosity, Pa*s (Liquid); method: Concentric cylinders viscometry
Temperature, K	Viscosity, Pa*s	uncertainty
293.15	0.000996	1.2e-05
303.15	0.00086	1.2e-05
313.15	0.00075	1.2e-05
323.15	0.000663	1.1e-05
333.15	0.000584	1.1e-05
343.15	0.000544	1.1e-05
353.15	0.000477	1.1e-05
363.15	0.000452	1.1e-05

System: 1-cyclohexylpropane; phases: Liquid
Fixed: Pressure, kPa = 102
Fixed: Frequency, MHz = 3
Property: Speed of sound, m/s (Liquid); method: Single path-length method
Temperature, K	Speed of sound, m/s	uncertainty
293.15	1307.8	0.6
303.15	1266.2	0.6
313.15	1225.6	0.6
323.15	1185.9	0.6
333.15	1147.3	0.6

System: pentylcyclohexane; phases: Liquid
Fixed: Pressure, kPa = 102
Property: Mass density, kg/m3 (Liquid); method: Vibrating tube method
Temperature, K	Mass density, kg/m3	uncertainty
293.15	804.11	0.82
303.15	796.8	0.82
313.15	789.47	0.82
323.15	782.12	0.82
333.15	774.74	0.82
343.15	767.3	0.8
353.15	759.9	0.8
363.15	752.4	0.8

System: pentylcyclohexane; phases: Liquid
Fixed: Pressure, kPa = 102
Property: Viscosity, Pa*s (Liquid); method: Concentric cylinders viscometry
Temperature, K	Viscosity, Pa*s	uncertainty
293.15	0.0017	2e-05
303.15	0.00142	1e-05
313.15	0.00121	1e-05
323.15	0.00104	1e-05
333.15	0.000895	1.2e-05
343.15	0.000799	1.2e-05
353.15	0.000709	1.2e-05
363.15	0.000637	1.2e-05

System: pentylcyclohexane; phases: Liquid
Fixed: Pressure, kPa = 102
Fixed: Frequency, MHz = 3
Property: Speed of sound, m/s (Liquid); method: Single path-length method
Temperature, K	Speed of sound, m/s	uncertainty
293.15	1345.9	1
303.15	1306.4	1
313.15	1267.8	1
323.15	1230.1	1
333.15	1193.4	1

System: hexylcyclohexane; phases: Liquid
Fixed: Pressure, kPa = 102
Property: Mass density, kg/m3 (Liquid); method: Vibrating tube method
Temperature, K	Mass density, kg/m3	uncertainty
293.15	807.71	0.84
303.15	800.56	0.84
313.15	793.4	0.84
323.15	786.22	0.84
333.15	779.02	0.84
343.15	771.8	0.8
353.15	764.6	0.8
363.15	757.3	0.8

System: hexylcyclohexane; phases: Liquid
Fixed: Pressure, kPa = 102
Property: Viscosity, Pa*s (Liquid); method: Concentric cylinders viscometry
Temperature, K	Viscosity, Pa*s	uncertainty
293.15	0.0022	2e-05
303.15	0.00181	2e-05
313.15	0.00151	2e-05
323.15	0.00129	2e-05
333.15	0.00109	1e-05
343.15	0.000964	1.3e-05
353.15	0.000847	1.3e-05
363.15	0.000758	1.2e-05

System: hexylcyclohexane; phases: Liquid
Fixed: Pressure, kPa = 102
Fixed: Frequency, MHz = 3
Property: Speed of sound, m/s (Liquid); method: Single path-length method
Temperature, K	Speed of sound, m/s	uncertainty
293.15	1361	1.3
303.15	1322.1	1.3
313.15	1284.2	1.3
323.15	1247.1	1.3
333.15	1211	1.3

System: heptylcyclohexane; phases: Liquid
Fixed: Pressure, kPa = 102
Property: Mass density, kg/m3 (Liquid); method: Vibrating tube method
Temperature, K	Mass density, kg/m3	uncertainty
293.15	810.99	0.81
303.15	803.96	0.81
313.15	796.93	0.81
323.15	789.89	0.81
333.15	782.83	0.81
343.15	775.8	0.8
353.15	768.7	0.8
363.15	761.6	0.8
373.15	754.4	0.8

System: heptylcyclohexane; phases: Liquid
Fixed: Pressure, kPa = 102
Property: Viscosity, Pa*s (Liquid); method: Concentric cylinders viscometry
Temperature, K	Viscosity, Pa*s	uncertainty
293.15	0.0028	2e-05
303.15	0.00226	2e-05
313.15	0.00186	2e-05
323.15	0.00156	1e-05
333.15	0.00133	1e-05
343.15	0.00115	1e-05
353.15	0.000993	1.2e-05
363.15	0.000892	1.2e-05
373.15	0.000776	1.2e-05

System: heptylcyclohexane; phases: Liquid
Fixed: Pressure, kPa = 102
Fixed: Frequency, MHz = 3
Property: Speed of sound, m/s (Liquid); method: Single path-length method
Temperature, K	Speed of sound, m/s	uncertainty
293.15	1374.4	0.8
303.15	1336.1	0.8
313.15	1298.7	0.8
323.15	1262.1	0.8
333.15	1226.5	0.8

System: octylcyclohexane; phases: Liquid
Fixed: Pressure, kPa = 102
Property: Mass density, kg/m3 (Liquid); method: Vibrating tube method
Temperature, K	Mass density, kg/m3	uncertainty
293.15	814.14	0.81
303.15	807.22	0.81
313.15	800.29	0.82
323.15	793.36	0.82
333.15	786.42	0.82
343.15	779.5	0.8
353.15	772.5	0.8
363.15	765.5	0.8
373.15	758.5	0.8

System: octylcyclohexane; phases: Liquid
Fixed: Pressure, kPa = 102
Property: Viscosity, Pa*s (Liquid); method: Concentric cylinders viscometry
Temperature, K	Viscosity, Pa*s	uncertainty
293.15	0.00352	2e-05
303.15	0.00279	2e-05
313.15	0.00227	2e-05
323.15	0.00188	2e-05
333.15	0.00158	2e-05
343.15	0.00136	1e-05
353.15	0.00116	1e-05
363.15	0.00104	1e-05
373.15	0.000899	1.2e-05

System: octylcyclohexane; phases: Liquid
Fixed: Pressure, kPa = 102
Fixed: Frequency, MHz = 3
Property: Speed of sound, m/s (Liquid); method: Single path-length method
Temperature, K	Speed of sound, m/s	uncertainty
293.15	1387	0.9
303.15	1349.1	0.9
313.15	1312.1	0.9
323.15	1275.9	0.9
333.15	1240.5	0.9

System: nonylcyclohexane; phases: Liquid
Fixed: Pressure, kPa = 102
Property: Mass density, kg/m3 (Liquid); method: Vibrating tube method
Temperature, K	Mass density, kg/m3	uncertainty
293.15	816.41	0.87
303.15	809.57	0.87
313.15	802.74	0.86
323.15	795.8	0.86
333.15	789.05	0.86
343.15	782.2	0.9
353.15	775.4	0.9
363.15	768.5	0.9
373.15	761.6	0.9

System: nonylcyclohexane; phases: Liquid
Fixed: Pressure, kPa = 102
Property: Viscosity, Pa*s (Liquid); method: Concentric cylinders viscometry
Temperature, K	Viscosity, Pa*s	uncertainty
293.15	0.00434	4e-05
303.15	0.00339	3e-05
313.15	0.00272	2e-05
323.15	0.00222	2e-05
333.15	0.00185	2e-05
343.15	0.00157	2e-05
353.15	0.00135	2e-05
363.15	0.0012	2e-05
373.15	0.00103	1e-05

System: nonylcyclohexane; phases: Liquid
Fixed: Pressure, kPa = 102
Fixed: Frequency, MHz = 3
Property: Speed of sound, m/s (Liquid); method: Single path-length method
Temperature, K	Speed of sound, m/s	uncertainty
293.15	1397.2	1.5
303.15	1359.6	1.5
313.15	1322.9	1.5
323.15	1287.1	1.5
333.15	1252.2	1.5

System: decylcyclohexane; phases: Liquid
Fixed: Pressure, kPa = 102
Property: Mass density, kg/m3 (Liquid); method: Vibrating tube method
Temperature, K	Mass density, kg/m3	uncertainty
293.15	818.55	0.81
303.15	811.78	0.81
313.15	805.02	0.81
323.15	798.27	0.81
333.15	791.5	0.81
343.15	784.8	0.8
353.15	778	0.8
363.15	771.2	0.8
373.15	764.4	0.8

System: decylcyclohexane; phases: Liquid
Fixed: Pressure, kPa = 102
Property: Viscosity, Pa*s (Liquid); method: Concentric cylinders viscometry
Temperature, K	Viscosity, Pa*s	uncertainty
293.15	0.00532	3e-05
303.15	0.00409	2e-05
313.15	0.00323	2e-05
323.15	0.00262	2e-05
333.15	0.00216	2e-05
343.15	0.00182	2e-05
353.15	0.00155	1e-05
363.15	0.00134	1e-05
373.15	0.00117	1e-05

System: decylcyclohexane; phases: Liquid
Fixed: Pressure, kPa = 102
Fixed: Frequency, MHz = 3
Property: Speed of sound, m/s (Liquid); method: Single path-length method
Temperature, K	Speed of sound, m/s	uncertainty
293.15	1406.7	0.9
303.15	1369.4	0.9
313.15	1333	0.9
323.15	1297.5	0.9
333.15	1262.9	0.9

System: dodecylcyclohexane; phases: Liquid
Fixed: Pressure, kPa = 102
Property: Mass density, kg/m3 (Liquid); method: Vibrating tube method
Temperature, K	Mass density, kg/m3	uncertainty
293.15	822.31	0.81
303.15	815.65	0.81
313.15	809.01	0.81
323.15	802.37	0.81
333.15	795.74	0.81
343.15	789.1	0.8
353.15	782.5	0.8
363.15	775.9	0.8
373.15	769.2	0.8

System: dodecylcyclohexane; phases: Liquid
Fixed: Pressure, kPa = 102
Property: Viscosity, Pa*s (Liquid); method: Concentric cylinders viscometry
Temperature, K	Viscosity, Pa*s	uncertainty
293.15	0.00776	4e-05
303.15	0.00581	3e-05
313.15	0.00448	2e-05
323.15	0.00355	2e-05
333.15	0.00288	2e-05
343.15	0.00239	2e-05
353.15	0.00201	2e-05
363.15	0.00172	2e-05
373.15	0.00148	1e-05

System: dodecylcyclohexane; phases: Liquid
Fixed: Pressure, kPa = 102
Fixed: Frequency, MHz = 3
Property: Speed of sound, m/s (Liquid); method: Single path-length method
Temperature, K	Speed of sound, m/s	uncertainty
293.15	1423.3	0.9
303.15	1386.3	0.9
313.15	1350.4	0.9
323.15	1315.2	0.9
333.15	1281.1	0.9

System: hexadecane; phases: Liquid
Fixed: Pressure, kPa = 101.325
Property: Speed of sound, m/s (Liquid); method: Single path-length method
Temperature, K	Speed of sound, m/s	uncertainty
293.15	1357.4	0.6
303.15	1319.6	0.6
313.15	1282.9	0.6
323.15	1247	0.6
333.15	1212.1	0.6

System: hexadecane; phases: Liquid
Fixed: Pressure, kPa = 102
Property: Mass density, kg/m3 (Liquid); method: Vibrating tube method
Temperature, K	Mass density, kg/m3	uncertainty
293.15	773.37	0.81
303.15	766.43	0.81
313.15	759.51	0.81
323.15	752.61	0.81
333.15	745.69	0.81
343.15	738.78	0.81
353.15	731.9	0.8
363.15	724.9	0.8
343.15	738.8	0.8
373.15	717.9	0.8

System: hexadecane; phases: Liquid
Fixed: Pressure, kPa = 102
Property: Viscosity, Pa*s (Liquid); method: Concentric cylinders viscometry
Temperature, K	Viscosity, Pa*s	uncertainty
293.15	0.00347	2e-05
303.15	0.00276	2e-05
313.15	0.00224	2e-05
323.15	0.00186	1e-05
333.15	0.00156	1e-05
343.15	0.00135	1e-05
353.15	0.00115	1e-05
363.15	0.00102	1e-05
373.15	0.000885	1.2e-05

System: 1-cyclohexylpropane + hexadecane; phases: Liquid
Fixed: Pressure, kPa = 102
Property: Mass density, kg/m3 (Liquid); method: Vibrating tube method
Temperature, K	Mole fraction of 1-cyclohexylpropane	Mass density, kg/m3	uncertainty
293.15	0	773.37	0.81
293.15	0.2001	775.57	0.81
293.15	0.4008	778.35	0.81
293.15	0.5001	779.98	0.81
293.15	0.6009	781.97	0.81
293.15	0.8301	787.65	0.81
293.15	1	793.54	0.81
303.15	0	766.43	0.81
303.15	0.2001	768.58	0.81
303.15	0.4008	771.27	0.81
303.15	0.5001	772.84	0.81
303.15	0.6009	774.74	0.81
303.15	0.8301	780.16	0.81
303.15	1	785.73	0.81
313.15	0	759.51	0.81
313.15	0.2001	761.59	0.81
313.15	0.4008	764.18	0.81
313.15	0.5001	765.69	0.81
313.15	0.6009	767.5	0.81
313.15	0.8301	772.64	0.81
313.15	1	777.9	0.81
323.15	0	752.61	0.81
323.15	0.2001	754.61	0.81
323.15	0.4008	757.08	0.81
323.15	0.5001	758.53	0.81
323.15	0.6009	760.24	0.81
323.15	0.8301	765.09	0.81
323.15	1	770.04	0.81
333.15	0	745.69	0.81
333.15	0.2001	747.61	0.81
333.15	0.4008	749.96	0.81
333.15	0.5001	751.33	0.81
333.15	0.6009	752.95	0.81
333.15	0.8301	757.51	0.81
333.15	1	762.12	0.81
343.15	0	738.78	0.81
343.15	0.2001	740.6	0.8
343.15	0.4008	742.9	0.8
343.15	0.5001	744.1	0.8
343.15	0.6009	745.6	0.8
343.15	0.8301	749.8	0.8
343.15	1	754.2	0.8
353.15	0	731.9	0.8
353.15	0.2001	733.6	0.8
353.15	0.4008	735.7	0.8
353.15	0.5001	736.9	0.8
353.15	0.6009	738.3	0.8
353.15	0.8301	742.2	0.8
353.15	1	746.1	0.8
363.15	0	724.9	0.8
363.15	0.2001	726.5	0.8
363.15	0.4008	728.5	0.8
363.15	0.5001	729.5	0.8
363.15	0.6009	730.8	0.8
363.15	0.8301	734.6	0.8
363.15	1	738	0.8

System: 1-cyclohexylpropane + hexadecane; phases: Liquid
Fixed: Pressure, kPa = 102
Property: Viscosity, Pa*s (Liquid); method: Concentric cylinders viscometry
Temperature, K	Mole fraction of 1-cyclohexylpropane	Viscosity, Pa*s	uncertainty
293.15	0	0.00347	2e-05
293.15	0.2001	0.0029	2e-05
293.15	0.4008	0.00235	2e-05
293.15	0.5001	0.00211	1e-05
293.15	0.6009	0.00185	1e-05
293.15	0.8301	0.00134	1e-05
293.15	1	0.000996	1.2e-05
303.15	0	0.00276	2e-05
303.15	0.2001	0.00234	2e-05
303.15	0.4008	0.00194	1e-05
303.15	0.5001	0.00174	1e-05
303.15	0.6009	0.00155	1e-05
303.15	0.8301	0.00114	1e-05
303.15	1	0.00086	1.2e-05
313.15	0	0.00224	2e-05
313.15	0.2001	0.00193	1e-05
313.15	0.4008	0.00161	1e-05
313.15	0.5001	0.00146	1e-05
313.15	0.6009	0.00131	1e-05
313.15	0.8301	0.000975	1.2e-05
313.15	1	0.00075	1.2e-05
323.15	0	0.00186	1e-05
323.15	0.2001	0.00161	1e-05
323.15	0.4008	0.00137	1e-05
323.15	0.5001	0.00125	1e-05
323.15	0.6009	0.00113	1e-05
323.15	0.8301	0.000858	1.2e-05
323.15	1	0.000663	1.1e-05
333.15	0	0.00156	1e-05
333.15	0.2001	0.00137	1e-05
333.15	0.4008	0.00118	1e-05
333.15	0.5001	0.00107	1e-05
333.15	0.6009	0.00097	1.2e-05
333.15	0.8301	0.000747	1.2e-05
333.15	1	0.000584	1.1e-05
343.15	0	0.00135	1e-05
343.15	0.2001	0.00119	1e-05
343.15	0.4008	0.00103	1e-05
343.15	0.5001	0.000946	1.2e-05
343.15	0.6009	0.000863	1.2e-05
343.15	0.8301	0.000673	1.1e-05
343.15	1	0.000544	1.1e-05
353.15	0	0.00115	1e-05
353.15	0.2001	0.00102	1e-05
353.15	0.4008	0.000905	1.2e-05
353.15	0.5001	0.000834	1.2e-05
353.15	0.6009	0.000764	1.2e-05
353.15	0.8301	0.000594	1.1e-05
353.15	1	0.000477	1.1e-05
363.15	0	0.00102	1e-05
363.15	0.2001	0.000918	1.2e-05
363.15	0.4008	0.000805	1.2e-05
363.15	0.5001	0.000746	1.2e-05
363.15	0.6009	0.000685	1.1e-05
363.15	0.8301	0.000503	2.1e-05
363.15	1	0.000452	1.1e-05

System: 1-cyclohexylpropane + hexadecane; phases: Liquid
Fixed: Pressure, kPa = 102
Fixed: Frequency, MHz = 3
Property: Speed of sound, m/s (Liquid); method: Single path-length method
Temperature, K	Mole fraction of 1-cyclohexylpropane	Speed of sound, m/s	uncertainty
293.15	0	1357.4	0.6
293.15	0.2001	1349.9	0.6
293.15	0.4008	1341.6	0.6
293.15	0.5001	1336.9	0.6
293.15	0.6009	1331.7	0.6
293.15	0.8301	1318.8	0.6
293.15	1	1307.8	0.6
303.15	0	1319.6	0.6
303.15	0.2001	1312.1	0.6
303.15	0.4008	1303.8	0.6
303.15	0.5001	1298.4	0.6
303.15	0.6009	1293.3	0.6
303.15	0.8301	1279.2	0.6
303.15	1	1266.2	0.6
313.15	0	1282.9	0.6
313.15	0.2001	1275.2	0.6
313.15	0.4008	1266.6	0.6
313.15	0.5001	1260.8	0.6
313.15	0.6009	1255.6	0.6
313.15	0.8301	1240.3	0.6
313.15	1	1225.6	0.6
323.15	0	1247	0.6
323.15	0.2001	1239	0.6
323.15	0.4008	1230	0.6
323.15	0.5001	1224	0.6
323.15	0.6009	1218.5	0.6
323.15	0.8301	1202	0.6
323.15	1	1185.9	0.6
333.15	0	1212.1	0.6
333.15	0.2001	1203.8	0.6
333.15	0.4008	1194.3	0.6
333.15	0.5001	1188	0.6
333.15	0.6009	1182.1	0.6
333.15	0.8301	1164.5	0.6
333.15	1	1147.3	0.6

System: pentylcyclohexane + hexadecane; phases: Liquid
Fixed: Pressure, kPa = 102
Property: Mass density, kg/m3 (Liquid); method: Vibrating tube method
Temperature, K	Mole fraction of pentylcyclohexane	Mass density, kg/m3	uncertainty
293.15	0.2004	777.53	0.81
293.15	0.4	782.39	0.81
293.15	0.4999	785.18	0.81
293.15	0.5999	788.23	0.81
293.15	0.8006	795.35	0.81
293.15	1	804.11	0.82
303.15	0.2004	770.57	0.81
303.15	0.4	775.39	0.81
303.15	0.4999	778.15	0.81
303.15	0.5999	781.16	0.81
303.15	0.8006	788.18	0.82
303.15	1	796.8	0.82
313.15	0.2004	763.62	0.81
313.15	0.4	768.39	0.81
313.15	0.4999	771.11	0.81
313.15	0.5999	774.09	0.81
313.15	0.8006	781	0.82
313.15	1	789.47	0.82
323.15	0.2004	756.66	0.81
323.15	0.4	761.38	0.81
323.15	0.4999	764.07	0.81
323.15	0.5999	766.99	0.81
323.15	0.8006	773.8	0.82
323.15	1	782.12	0.82
333.15	0.2004	749.7	0.81
333.15	0.4	754.35	0.81
333.15	0.4999	757	0.81
333.15	0.5999	759.88	0.81
333.15	0.8006	766.57	0.82
333.15	1	774.74	0.82
343.15	0.2004	742.8	0.8
343.15	0.4	747.4	0.8
343.15	0.4999	749.9	0.8
343.15	0.5999	752.9	0.8
343.15	0.8006	759.4	0.8
343.15	1	767.3	0.8
353.15	0.2004	735.8	0.8
353.15	0.4	740.3	0.8
353.15	0.4999	742.8	0.8
353.15	0.5999	745.7	0.8
353.15	0.8006	752.2	0.8
353.15	1	759.9	0.8
363.15	0.2004	728.7	0.8
363.15	0.4	733.2	0.8
363.15	0.4999	735.6	0.8
363.15	0.5999	738.5	0.8
363.15	0.8006	744.8	0.8
363.15	1	752.4	0.8

System: pentylcyclohexane + hexadecane; phases: Liquid
Fixed: Pressure, kPa = 102
Property: Viscosity, Pa*s (Liquid); method: Concentric cylinders viscometry
Temperature, K	Mole fraction of pentylcyclohexane	Viscosity, Pa*s	uncertainty
293.15	0.2004	0.0031	2e-05
293.15	0.4	0.00274	2e-05
293.15	0.4999	0.00256	2e-05
293.15	0.5999	0.00238	2e-05
293.15	0.8006	0.00203	2e-05
293.15	1	0.0017	2e-05
303.15	0.2004	0.00249	2e-05
303.15	0.4	0.00222	2e-05
303.15	0.4999	0.00208	2e-05
303.15	0.5999	0.00195	2e-05
303.15	0.8006	0.00168	2e-05
303.15	1	0.00142	1e-05
313.15	0.2004	0.00204	2e-05
313.15	0.4	0.00183	1e-05
313.15	0.4999	0.00173	1e-05
313.15	0.5999	0.00161	1e-05
313.15	0.8006	0.00141	1e-05
313.15	1	0.00121	1e-05
323.15	0.2004	0.0017	1e-05
323.15	0.4	0.00154	1e-05
323.15	0.4999	0.00146	1e-05
323.15	0.5999	0.00137	1e-05
323.15	0.8006	0.00121	1e-05
323.15	1	0.00104	1e-05
333.15	0.2004	0.00144	1e-05
333.15	0.4	0.00131	1e-05
333.15	0.4999	0.00124	1e-05
333.15	0.5999	0.00118	1e-05
333.15	0.8006	0.00103	1e-05
333.15	1	0.000895	1.2e-05
343.15	0.2004	0.00124	1e-05
343.15	0.4	0.00114	1e-05
343.15	0.4999	0.00108	1e-05
343.15	0.5999	0.00103	1e-05
343.15	0.8006	0.000916	1.2e-05
343.15	1	0.000799	1.2e-05
353.15	0.2004	0.00107	1e-05
353.15	0.4	0.000985	1.2e-05
353.15	0.4999	0.000937	1.2e-05
353.15	0.5999	0.000903	1.2e-05
353.15	0.8006	0.000809	1.2e-05
353.15	1	0.000709	1.2e-05
363.15	0.2004	0.000955	1.2e-05
363.15	0.4	0.000884	1.2e-05
363.15	0.4999	0.000843	1.2e-05
363.15	0.5999	0.000805	1.2e-05
363.15	0.8006	0.000724	1.2e-05
363.15	1	0.000637	1.2e-05

System: pentylcyclohexane + hexadecane; phases: Liquid
Fixed: Pressure, kPa = 102
Fixed: Frequency, MHz = 3
Property: Speed of sound, m/s (Liquid); method: Single path-length method
Temperature, K	Mole fraction of pentylcyclohexane	Speed of sound, m/s	uncertainty
293.15	0.2004	1354.6	0.7
293.15	0.4	1351.9	0.7
293.15	0.4999	1350.6	0.8
293.15	0.5999	1349.4	0.8
293.15	0.8006	1347.2	0.9
293.15	1	1345.9	1
303.15	0.2004	1317.2	0.7
303.15	0.4	1314.4	0.7
303.15	0.4999	1313	0.8
303.15	0.5999	1311.6	0.8
303.15	0.8006	1309	0.9
303.15	1	1306.4	1
313.15	0.2004	1280.5	0.7
313.15	0.4	1277.6	0.7
313.15	0.4999	1276	0.8
313.15	0.5999	1274.5	0.8
313.15	0.8006	1271.3	0.9
313.15	1	1267.8	1
323.15	0.2004	1244.5	0.7
323.15	0.4	1241.4	0.7
323.15	0.4999	1239.7	0.8
323.15	0.5999	1237.9	0.8
323.15	0.8006	1234.3	0.9
323.15	1	1230.1	1
333.15	0.2004	1209.3	0.7
333.15	0.4	1206	0.7
333.15	0.4999	1204.2	0.8
333.15	0.5999	1202.3	0.8
333.15	0.8006	1198	0.9
333.15	1	1193.4	1

System: hexylcyclohexane + hexadecane; phases: Liquid
Fixed: Pressure, kPa = 102
Property: Mass density, kg/m3 (Liquid); method: Vibrating tube method
Temperature, K	Mole fraction of hexylcyclohexane	Mass density, kg/m3	uncertainty
293.15	0	773.37	0.81
293.15	0.1003	775.83	0.81
293.15	0.2002	778.43	0.81
293.15	0.2996	781.19	0.81
293.15	0.4192	784.77	0.81
293.15	0.5004	787.39	0.82
293.15	0.603	790.94	0.82
293.15	0.8003	798.59	0.83
293.15	1	807.71	0.84
303.15	0	766.43	0.81
303.15	0.1003	768.88	0.81
303.15	0.2002	771.48	0.81
303.15	0.2996	774.23	0.81
303.15	0.4192	777.8	0.81
303.15	0.5004	780.41	0.82
303.15	0.603	783.93	0.82
303.15	0.8003	791.52	0.83
303.15	1	800.56	0.84
313.15	0	759.51	0.81
313.15	0.1003	761.95	0.81
313.15	0.2002	764.54	0.81
313.15	0.2996	767.28	0.81
313.15	0.4192	770.83	0.81
313.15	0.5004	773.42	0.82
313.15	0.603	776.92	0.82
313.15	0.8003	784.45	0.83
313.15	1	793.4	0.84
323.15	0	752.61	0.81
323.15	0.1003	755.02	0.81
323.15	0.2002	757.6	0.81
323.15	0.2996	760.32	0.81
323.15	0.4192	763.85	0.81
323.15	0.5004	766.42	0.82
323.15	0.603	769.89	0.82
323.15	0.8003	777.35	0.83
323.15	1	786.22	0.84
333.15	0	745.69	0.81
333.15	0.1003	748.09	0.81
333.15	0.2002	750.65	0.81
333.15	0.2996	753.35	0.81
333.15	0.4192	756.86	0.81
333.15	0.5004	759.41	0.82
333.15	0.603	762.86	0.82
333.15	0.8003	770.24	0.83
333.15	1	779.02	0.84
343.15	0	738.8	0.8
343.15	0.1003	741.2	0.8
343.15	0.2002	743.7	0.8
343.15	0.2996	746.5	0.8
343.15	0.4192	749.9	0.8
343.15	0.5004	752.4	0.8
343.15	0.603	755.9	0.8
343.15	0.8003	763.1	0.8
343.15	1	771.8	0.8
353.15	0	731.9	0.8
353.15	0.1003	734.2	0.8
353.15	0.2002	736.7	0.8
353.15	0.2996	739.5	0.8
353.15	0.4192	742.9	0.8
353.15	0.5004	745.4	0.8
353.15	0.603	748.8	0.8
353.15	0.8003	756	0.8
353.15	1	764.6	0.8
363.15	0	724.9	0.8
363.15	0.1003	727.3	0.8
363.15	0.2002	729.7	0.8
363.15	0.2996	732.5	0.8
363.15	0.4192	735.9	0.8
363.15	0.5004	738.3	0.8
363.15	0.603	741.7	0.8
363.15	0.8003	748.8	0.8
363.15	1	757.3	0.8

System: hexylcyclohexane + hexadecane; phases: Liquid
Fixed: Pressure, kPa = 102
Property: Viscosity, Pa*s (Liquid); method: Concentric cylinders viscometry
Temperature, K	Mole fraction of hexylcyclohexane	Viscosity, Pa*s	uncertainty
293.15	0	0.00347	2e-05
293.15	0.1003	0.00335	3e-05
293.15	0.2002	0.00321	2e-05
293.15	0.2996	0.00309	2e-05
293.15	0.4192	0.00293	2e-05
293.15	0.5004	0.00282	2e-05
293.15	0.603	0.0027	2e-05
293.15	0.8003	0.00244	2e-05
293.15	1	0.0022	2e-05
303.15	0	0.00276	2e-05
303.15	0.1003	0.00266	2e-05
303.15	0.2002	0.00257	2e-05
303.15	0.2996	0.00247	2e-05
303.15	0.4192	0.00236	2e-05
303.15	0.5004	0.00228	2e-05
303.15	0.603	0.00219	2e-05
303.15	0.8003	0.002	2e-05
303.15	1	0.00181	2e-05
313.15	0	0.00224	2e-05
313.15	0.1003	0.00217	2e-05
313.15	0.2002	0.0021	2e-05
313.15	0.2996	0.00202	2e-05
313.15	0.4192	0.00194	2e-05
313.15	0.5004	0.00187	2e-05
313.15	0.603	0.0018	2e-05
313.15	0.8003	0.00165	2e-05
313.15	1	0.00151	2e-05
323.15	0	0.00186	1e-05
323.15	0.1003	0.0018	1e-05
323.15	0.2002	0.00175	1e-05
323.15	0.2996	0.00168	1e-05
323.15	0.4192	0.00162	1e-05
323.15	0.5004	0.00157	1e-05
323.15	0.603	0.00152	2e-05
323.15	0.8003	0.0014	2e-05
323.15	1	0.00129	2e-05
333.15	0	0.00156	1e-05
333.15	0.1003	0.00151	1e-05
333.15	0.2002	0.00147	1e-05
333.15	0.2996	0.00142	1e-05
333.15	0.4192	0.00137	1e-05
333.15	0.5004	0.00133	1e-05
333.15	0.603	0.00129	1e-05
333.15	0.8003	0.0012	1e-05
333.15	1	0.00109	1e-05
343.15	0	0.00135	1e-05
343.15	0.1003	0.00129	1e-05
343.15	0.2002	0.00127	1e-05
343.15	0.2996	0.00122	1e-05
343.15	0.4192	0.00118	1e-05
343.15	0.5004	0.00115	1e-05
343.15	0.603	0.00113	1e-05
343.15	0.8003	0.00105	1e-05
343.15	1	0.000964	1.3e-05
353.15	0	0.00115	1e-05
353.15	0.1003	0.00112	1e-05
353.15	0.2002	0.00109	1e-05
353.15	0.2996	0.00106	1e-05
353.15	0.4192	0.00102	1e-05
353.15	0.5004	0.001	1e-05
353.15	0.603	0.000971	1.2e-05
353.15	0.8003	0.000919	1.3e-05
353.15	1	0.000847	1.3e-05
363.15	0	0.00102	1e-05
363.15	0.1003	0.000981	1.2e-05
363.15	0.2002	0.000977	1.2e-05
363.15	0.2996	0.000931	1.2e-05
363.15	0.4192	0.000901	1.2e-05
363.15	0.5004	0.00088	1.2e-05
363.15	0.603	0.000873	1.2e-05
363.15	0.8003	0.000817	1.2e-05
363.15	1	0.000758	1.2e-05

System: hexylcyclohexane + hexadecane; phases: Liquid
Fixed: Pressure, kPa = 102
Fixed: Frequency, MHz = 3
Property: Speed of sound, m/s (Liquid); method: Single path-length method
Temperature, K	Mole fraction of hexylcyclohexane	Speed of sound, m/s	uncertainty
293.15	0.1003	1357.1	0.7
293.15	0.2002	1356.8	0.7
293.15	0.2996	1356.9	0.8
293.15	0.4192	1357	0.9
293.15	0.5004	1357.1	0.9
293.15	0.603	1357.4	1
293.15	0.8003	1358.6	1.2
293.15	1	1361	1.3
303.15	0.1003	1319.8	0.7
303.15	0.2002	1319.5	0.7
303.15	0.2996	1319.6	0.8
303.15	0.4192	1319.6	0.9
303.15	0.5004	1319.7	0.9
303.15	0.603	1319.8	1
303.15	0.8003	1320.7	1.2
303.15	1	1322.1	1.3
313.15	0.1003	1283.2	0.7
313.15	0.2002	1282.8	0.7
313.15	0.2996	1282.9	0.8
313.15	0.4192	1282.8	0.9
313.15	0.5004	1282.9	0.9
313.15	0.603	1282.9	1
313.15	0.8003	1283.5	1.2
313.15	1	1284.2	1.3
323.15	0.1003	1247.3	0.7
323.15	0.2002	1246.9	0.7
323.15	0.2996	1246.9	0.8
323.15	0.4192	1246.7	0.9
323.15	0.5004	1246.7	0.9
323.15	0.603	1246.6	1
323.15	0.8003	1246.9	1.2
323.15	1	1247.1	1.3
333.15	0.1003	1212.3	0.7
333.15	0.2002	1211.9	0.7
333.15	0.2996	1211.7	0.8
333.15	0.4192	1211.5	0.9
333.15	0.5004	1211.4	0.9
333.15	0.603	1211.2	1
333.15	0.8003	1211.1	1.2
333.15	1	1211	1.3

System: heptylcyclohexane + hexadecane; phases: Liquid
Fixed: Pressure, kPa = 102
Property: Mass density, kg/m3 (Liquid); method: Vibrating tube method
Temperature, K	Mole fraction of heptylcyclohexane	Mass density, kg/m3	uncertainty
293.15	0	773.37	0.81
293.15	0.1997	779.33	0.81
293.15	0.4002	785.92	0.81
293.15	0.5001	789.55	0.81
293.15	0.6006	793.34	0.81
293.15	0.7998	801.63	0.81
293.15	1	810.99	0.81
303.15	0	766.43	0.81
303.15	0.1997	772.4	0.81
303.15	0.4002	778.99	0.81
303.15	0.5001	782.6	0.81
303.15	0.6006	786.39	0.81
303.15	0.7998	794.64	0.81
303.15	1	803.96	0.81
313.15	0	759.51	0.81
313.15	0.1997	765.47	0.81
313.15	0.4002	772.06	0.81
313.15	0.5001	775.66	0.81
313.15	0.6006	779.44	0.81
313.15	0.7998	787.98	0.81
313.15	1	796.93	0.81
323.15	0	752.61	0.81
323.15	0.1997	758.54	0.81
323.15	0.4002	765.13	0.81
323.15	0.5001	768.71	0.81
323.15	0.6006	772.48	0.81
323.15	0.7998	780.65	0.81
323.15	1	789.89	0.81
333.15	0	745.69	0.81
333.15	0.1997	751.62	0.81
333.15	0.4002	758.19	0.81
333.15	0.5001	761.75	0.81
333.15	0.6006	765.51	0.81
333.15	0.7998	773.64	0.81
333.15	1	782.83	0.81
343.15	0	738.8	0.8
343.15	0.1997	744.7	0.8
343.15	0.4002	751.3	0.8
343.15	0.5001	754.8	0.8
343.15	0.6006	758.6	0.8
343.15	0.7998	766.7	0.8
343.15	1	775.8	0.8
353.15	0	731.9	0.8
353.15	0.1997	737.7	0.8
353.15	0.4002	744.3	0.8
353.15	0.5001	747.8	0.8
353.15	0.6006	751.6	0.8
353.15	0.7998	759.6	0.8
353.15	1	768.7	0.8
363.15	0	724.9	0.8
363.15	0.1997	730.8	0.8
363.15	0.4002	737.8	0.8
363.15	0.5001	740.7	0.8
363.15	0.6006	744.5	0.8
363.15	0.7998	752.6	0.8
363.15	1	761.6	0.8
373.15	0	717.9	0.8
373.15	0.1997	723.7	0.8
373.15	0.4002	730.3	0.8
373.15	0.5001	733.7	0.8
373.15	0.6006	737.5	0.8
373.15	0.7998	745.4	0.8
373.15	1	754.4	0.8

System: heptylcyclohexane + hexadecane; phases: Liquid
Fixed: Pressure, kPa = 102
Property: Viscosity, Pa*s (Liquid); method: Concentric cylinders viscometry
Temperature, K	Mole fraction of heptylcyclohexane	Viscosity, Pa*s	uncertainty
293.15	0	0.00347	2e-05
293.15	0.1997	0.00334	2e-05
293.15	0.4002	0.0032	2e-05
293.15	0.5001	0.00313	2e-05
293.15	0.6006	0.00305	2e-05
293.15	0.7998	0.00292	2e-05
293.15	1	0.0028	2e-05
303.15	0	0.00276	2e-05
303.15	0.1997	0.00266	2e-05
303.15	0.4002	0.00256	2e-05
303.15	0.5001	0.00251	2e-05
303.15	0.6006	0.00245	2e-05
303.15	0.7998	0.00235	2e-05
303.15	1	0.00226	2e-05
313.15	0	0.00224	2e-05
313.15	0.1997	0.00217	2e-05
313.15	0.4002	0.00208	2e-05
313.15	0.5001	0.00205	2e-05
313.15	0.6006	0.00201	2e-05
313.15	0.7998	0.00193	2e-05
313.15	1	0.00186	2e-05
323.15	0	0.00186	1e-05
323.15	0.1997	0.0018	1e-05
323.15	0.4002	0.00173	1e-05
323.15	0.5001	0.00171	1e-05
323.15	0.6006	0.00167	1e-05
323.15	0.7998	0.00161	1e-05
323.15	1	0.00156	1e-05
333.15	0	0.00156	1e-05
333.15	0.1997	0.00152	1e-05
333.15	0.4002	0.00146	1e-05
333.15	0.5001	0.00145	1e-05
333.15	0.6006	0.00142	1e-05
333.15	0.7998	0.00137	1e-05
333.15	1	0.00133	1e-05
343.15	0	0.00135	1e-05
343.15	0.1997	0.00131	1e-05
343.15	0.4002	0.00125	1e-05
343.15	0.5001	0.00125	1e-05
343.15	0.6006	0.00122	1e-05
343.15	0.7998	0.00118	1e-05
343.15	1	0.00115	1e-05
353.15	0	0.00115	1e-05
353.15	0.1997	0.00112	1e-05
353.15	0.4002	0.00109	1e-05
353.15	0.5001	0.00107	1e-05
353.15	0.6006	0.00106	1e-05
353.15	0.7998	0.00103	1e-05
353.15	1	0.000993	1.2e-05
363.15	0	0.00102	1e-05
363.15	0.1997	0.001	1e-05
363.15	0.4002	0.000954	1.2e-05
363.15	0.5001	0.000962	1.2e-05
363.15	0.6006	0.000932	1.2e-05
363.15	0.7998	0.000903	1.2e-05
363.15	1	0.000892	1.2e-05
373.15	0	0.000885	1.2e-05
373.15	0.1997	0.000866	1.2e-05
373.15	0.4002	0.000845	1.2e-05
373.15	0.5001	0.000834	1.2e-05
373.15	0.6006	0.000827	1.2e-05
373.15	0.7998	0.000803	1.2e-05
373.15	1	0.000776	1.2e-05

System: heptylcyclohexane + hexadecane; phases: Liquid
Fixed: Pressure, kPa = 102
Fixed: Frequency, MHz = 3
Property: Speed of sound, m/s (Liquid); method: Single path-length method
Temperature, K	Mole fraction of heptylcyclohexane	Speed of sound, m/s	uncertainty
293.15	0.1997	1358.9	0.7
293.15	0.4002	1362	0.7
293.15	0.5001	1363.4	0.7
293.15	0.6006	1365.3	0.7
293.15	0.7998	1368.8	1.1
293.15	1	1374.4	0.8
303.15	0.1997	1321.7	0.7
303.15	0.4002	1324.4	0.7
303.15	0.5001	1326.1	0.7
303.15	0.6006	1327.5	0.7
303.15	0.7998	1331.3	1.1
303.15	1	1336.1	0.8
313.15	0.1997	1285.1	0.7
313.15	0.4002	1287.5	0.7
313.15	0.5001	1289.4	0.7
313.15	0.6006	1290.6	0.7
313.15	0.7998	1294.3	1.1
313.15	1	1298.7	0.8
323.15	0.1997	1249.3	0.7
323.15	0.4002	1251.5	0.7
323.15	0.5001	1253.4	0.7
323.15	0.6006	1254.5	0.7
323.15	0.7998	1258.1	1.1
323.15	1	1262.1	0.8
333.15	0.1997	1214.4	0.7
333.15	0.4002	1216.7	0.7
333.15	0.5001	1218.2	0.7
333.15	0.6006	1219.4	0.7
333.15	0.7998	1222.8	1.1
333.15	1	1226.5	0.8

System: octylcyclohexane + hexadecane; phases: Liquid
Fixed: Pressure, kPa = 102
Property: Mass density, kg/m3 (Liquid); method: Vibrating tube method
Temperature, K	Mole fraction of octylcyclohexane	Mass density, kg/m3	uncertainty
293.15	0	773.37	0.81
293.15	0.2001	780.29	0.81
293.15	0.3999	787.74	0.81
293.15	0.5002	791.67	0.81
293.15	0.6009	795.83	0.81
293.15	0.8006	804.62	0.81
293.15	1	814.14	0.81
303.15	0	766.43	0.81
303.15	0.2001	773.36	0.81
303.15	0.3999	780.82	0.81
303.15	0.5002	784.77	0.81
303.15	0.6009	788.93	0.81
303.15	0.8006	797.71	0.81
303.15	1	807.22	0.81
313.15	0	759.51	0.81
313.15	0.2001	766.44	0.81
313.15	0.3999	773.91	0.81
313.15	0.5002	777.87	0.81
313.15	0.6009	782.03	0.81
313.15	0.8006	790.79	0.81
313.15	1	800.29	0.82
323.15	0	752.61	0.81
323.15	0.2001	759.53	0.81
323.15	0.3999	767	0.81
323.15	0.5002	770.97	0.81
323.15	0.6009	775.12	0.81
323.15	0.8006	783.86	0.81
323.15	1	793.36	0.82
333.15	0	745.69	0.81
333.15	0.2001	752.62	0.81
333.15	0.3999	760.08	0.81
333.15	0.5002	764.05	0.81
333.15	0.6009	768.2	0.81
333.15	0.8006	776.93	0.81
333.15	1	786.42	0.82
343.15	0	738.8	0.8
343.15	0.2001	745.7	0.8
343.15	0.3999	753.2	0.8
343.15	0.5002	757.2	0.8
343.15	0.6009	761.3	0.8
343.15	0.8006	770	0.8
343.15	1	779.5	0.8
353.15	0	731.9	0.8
353.15	0.2001	738.8	0.8
353.15	0.3999	746.3	0.8
353.15	0.5002	750.2	0.8
353.15	0.6009	754.3	0.8
353.15	0.8006	763.1	0.8
353.15	1	772.5	0.8
363.15	0	724.9	0.8
363.15	0.2001	731.8	0.8
363.15	0.3999	739.3	0.8
363.15	0.5002	743.3	0.8
363.15	0.6009	747.4	0.8
363.15	0.8006	756.1	0.8
363.15	1	765.5	0.8
373.15	0	717.9	0.8
373.15	0.2001	724.8	0.8
373.15	0.3999	732.3	0.8
373.15	0.5002	736.3	0.8
373.15	0.6009	740.4	0.8
373.15	0.8006	749.1	0.8
373.15	1	758.5	0.8

System: octylcyclohexane + hexadecane; phases: Liquid
Fixed: Pressure, kPa = 102
Property: Viscosity, Pa*s (Liquid); method: Concentric cylinders viscometry
Temperature, K	Mole fraction of octylcyclohexane	Viscosity, Pa*s	uncertainty
293.15	0	0.00347	2e-05
293.15	0.2001	0.00346	3e-05
293.15	0.3999	0.00346	2e-05
293.15	0.5002	0.00346	2e-05
293.15	0.6009	0.00344	2e-05
293.15	0.8006	0.00346	2e-05
293.15	1	0.00352	2e-05
303.15	0	0.00276	2e-05
303.15	0.2001	0.00275	2e-05
303.15	0.3999	0.00274	2e-05
303.15	0.5002	0.00275	2e-05
303.15	0.6009	0.00274	2e-05
303.15	0.8006	0.00276	2e-05
303.15	1	0.00279	2e-05
313.15	0	0.00224	2e-05
313.15	0.2001	0.00224	2e-05
313.15	0.3999	0.00223	2e-05
313.15	0.5002	0.00224	2e-05
313.15	0.6009	0.00223	2e-05
313.15	0.8006	0.00224	2e-05
313.15	1	0.00227	2e-05
323.15	0	0.00186	1e-05
323.15	0.2001	0.00185	1e-05
323.15	0.3999	0.00184	1e-05
323.15	0.5002	0.00185	1e-05
323.15	0.6009	0.00185	2e-05
323.15	0.8006	0.00185	2e-05
323.15	1	0.00188	2e-05
333.15	0	0.00156	1e-05
333.15	0.2001	0.00156	1e-05
333.15	0.3999	0.00155	1e-05
333.15	0.5002	0.00156	1e-05
333.15	0.6009	0.00156	1e-05
333.15	0.8006	0.00156	1e-05
333.15	1	0.00158	2e-05
343.15	0	0.00135	1e-05
343.15	0.2001	0.00134	1e-05
343.15	0.3999	0.00133	1e-05
343.15	0.5002	0.00135	1e-05
343.15	0.6009	0.00133	1e-05
343.15	0.8006	0.00134	1e-05
343.15	1	0.00136	1e-05
353.15	0	0.00115	1e-05
353.15	0.2001	0.00115	1e-05
353.15	0.3999	0.00115	1e-05
353.15	0.5002	0.00115	1e-05
353.15	0.6009	0.00115	1e-05
353.15	0.8006	0.00116	1e-05
353.15	1	0.00116	1e-05
363.15	0	0.00102	1e-05
363.15	0.2001	0.00102	1e-05
363.15	0.3999	0.001	1e-05
363.15	0.5002	0.00103	1e-05
363.15	0.6009	0.00101	1e-05
363.15	0.8006	0.00101	1e-05
363.15	1	0.00104	1e-05
373.15	0	0.000885	1.2e-05
373.15	0.2001	0.000887	1.2e-05
373.15	0.3999	0.000889	1.2e-05
373.15	0.5002	0.00089	1.2e-05
373.15	0.6009	0.000895	1.2e-05
373.15	0.8006	0.000897	1.2e-05
373.15	1	0.000899	1.2e-05

System: octylcyclohexane + hexadecane; phases: Liquid
Fixed: Pressure, kPa = 102
Fixed: Frequency, MHz = 3
Property: Speed of sound, m/s (Liquid); method: Single path-length method
Temperature, K	Mole fraction of octylcyclohexane	Speed of sound, m/s	uncertainty
293.15	0.2001	1361.6	0.7
293.15	0.3999	1366.8	0.7
293.15	0.5002	1369.7	0.8
293.15	0.6009	1372.6	0.8
293.15	0.8006	1378.6	0.9
293.15	1	1387	0.9
303.15	0.2001	1324.4	0.7
303.15	0.3999	1329.6	0.7
303.15	0.5002	1332.1	0.8
303.15	0.6009	1335	0.8
303.15	0.8006	1341.3	0.9
303.15	1	1349.1	0.9
313.15	0.2001	1287.9	0.7
313.15	0.3999	1293	0.7
313.15	0.5002	1295.4	0.8
313.15	0.6009	1298.3	0.8
313.15	0.8006	1304.6	0.9
313.15	1	1312.1	0.9
323.15	0.2001	1252	0.7
323.15	0.3999	1257.2	0.7
323.15	0.5002	1259.5	0.8
323.15	0.6009	1262.4	0.8
323.15	0.8006	1268.6	0.9
323.15	1	1275.9	0.9
333.15	0.2001	1217.1	0.7
333.15	0.3999	1222.1	0.7
333.15	0.5002	1224.6	0.8
333.15	0.6009	1227.3	0.8
333.15	0.8006	1233.7	0.9
333.15	1	1240.5	0.9

System: nonylcyclohexane + hexadecane; phases: Liquid
Fixed: Pressure, kPa = 102
Property: Mass density, kg/m3 (Liquid); method: Vibrating tube method
Temperature, K	Mole fraction of nonylcyclohexane	Mass density, kg/m3	uncertainty
293.15	0	773.37	0.81
293.15	0.2005	781.15	0.81
293.15	0.4001	789.28	0.82
293.15	0.5002	793.52	0.82
293.15	0.5998	797.86	0.82
293.15	0.8002	806.91	0.84
293.15	1	816.41	0.87
303.15	0	766.43	0.81
303.15	0.2005	774.24	0.81
303.15	0.4001	782.39	0.82
303.15	0.5002	786.64	0.82
303.15	0.5998	790.99	0.82
303.15	0.8002	800.06	0.84
303.15	1	809.57	0.87
313.15	0	759.51	0.81
313.15	0.2005	767.33	0.81
313.15	0.4001	775.51	0.82
313.15	0.5002	779.77	0.82
313.15	0.5998	784.12	0.82
313.15	0.8002	793.21	0.84
313.15	1	802.74	0.86
323.15	0	752.61	0.81
323.15	0.2005	760.43	0.81
323.15	0.4001	768.63	0.82
323.15	0.5002	772.9	0.82
323.15	0.5998	777.25	0.82
323.15	0.8002	786.35	0.84
323.15	1	795.8	0.86
333.15	0	745.69	0.81
333.15	0.2005	753.54	0.81
333.15	0.4001	761.74	0.82
333.15	0.5002	766.02	0.82
333.15	0.5998	770.38	0.82
333.15	0.8002	779.49	0.84
333.15	1	789.05	0.86
343.15	0	738.8	0.8
343.15	0.2005	746.6	0.8
343.15	0.4001	754.9	0.8
343.15	0.5002	759.2	0.8
343.15	0.5998	763.6	0.8
343.15	0.8002	772.7	0.8
343.15	1	782.2	0.9
353.15	0	731.9	0.8
353.15	0.2005	739.7	0.8
353.15	0.4001	748	0.8
353.15	0.5002	752.3	0.8
353.15	0.5998	756.8	0.8
353.15	0.8002	765.8	0.8
353.15	1	775.4	0.9
363.15	0	724.9	0.8
363.15	0.2005	732.7	0.8
363.15	0.4001	741.1	0.8
363.15	0.5002	745.4	0.8
363.15	0.5998	749.8	0.8
363.15	0.8002	758.9	0.8
363.15	1	768.5	0.9
373.15	0	717.9	0.8
373.15	0.2005	725.7	0.8
373.15	0.4001	734.2	0.8
373.15	0.5002	738.5	0.8
373.15	0.5998	742.9	0.8
373.15	0.8002	752	0.8
373.15	1	761.6	0.9

System: nonylcyclohexane + hexadecane; phases: Liquid
Fixed: Pressure, kPa = 102
Property: Viscosity, Pa*s (Liquid); method: Concentric cylinders viscometry
Temperature, K	Mole fraction of nonylcyclohexane	Viscosity, Pa*s	uncertainty
293.15	0	0.00347	2e-05
293.15	0.2005	0.00358	2e-05
293.15	0.4001	0.00372	2e-05
293.15	0.5002	0.00379	2e-05
293.15	0.5998	0.00389	3e-05
293.15	0.8002	0.00407	3e-05
293.15	1	0.00434	4e-05
303.15	0	0.00276	2e-05
303.15	0.2005	0.00284	2e-05
303.15	0.4001	0.00295	2e-05
303.15	0.5002	0.003	2e-05
303.15	0.5998	0.00306	2e-05
303.15	0.8002	0.0032	3e-05
303.15	1	0.00339	3e-05
313.15	0	0.00224	2e-05
313.15	0.2005	0.0023	2e-05
313.15	0.4001	0.00238	2e-05
313.15	0.5002	0.00243	2e-05
313.15	0.5998	0.00247	2e-05
313.15	0.8002	0.00258	2e-05
313.15	1	0.00272	2e-05
323.15	0	0.00186	1e-05
323.15	0.2005	0.0019	2e-05
323.15	0.4001	0.00196	2e-05
323.15	0.5002	0.002	2e-05
323.15	0.5998	0.00203	2e-05
323.15	0.8002	0.00212	2e-05
323.15	1	0.00222	2e-05
333.15	0	0.00156	1e-05
333.15	0.2005	0.0016	1e-05
333.15	0.4001	0.00165	2e-05
333.15	0.5002	0.00168	2e-05
333.15	0.5998	0.0017	2e-05
333.15	0.8002	0.00177	2e-05
333.15	1	0.00185	2e-05
343.15	0	0.00135	1e-05
343.15	0.2005	0.00138	1e-05
343.15	0.4001	0.0014	1e-05
343.15	0.5002	0.00144	1e-05
343.15	0.5998	0.00145	2e-05
343.15	0.8002	0.0015	2e-05
343.15	1	0.00157	2e-05
353.15	0	0.00115	1e-05
353.15	0.2005	0.00118	1e-05
353.15	0.4001	0.00121	1e-05
353.15	0.5002	0.00123	1e-05
353.15	0.5998	0.00125	1e-05
353.15	0.8002	0.0013	2e-05
353.15	1	0.00135	2e-05
363.15	0	0.00102	1e-05
363.15	0.2005	0.00105	1e-05
363.15	0.4001	0.00106	1e-05
363.15	0.5002	0.00109	1e-05
363.15	0.5998	0.00109	1e-05
363.15	0.8002	0.00113	1e-05
363.15	1	0.0012	2e-05
373.15	0	0.000885	1.2e-05
373.15	0.2005	0.000908	1.2e-05
373.15	0.4001	0.000931	1.2e-05
373.15	0.5002	0.000944	1.2e-05
373.15	0.5998	0.00096	1.3e-05
373.15	0.8002	0.001	1e-05
373.15	1	0.00103	1e-05

System: nonylcyclohexane + hexadecane; phases: Liquid
Fixed: Pressure, kPa = 102
Fixed: Frequency, MHz = 3
Property: Speed of sound, m/s (Liquid); method: Single path-length method
Temperature, K	Mole fraction of nonylcyclohexane	Speed of sound, m/s	uncertainty
293.15	0.2005	1363.9	0.8
293.15	0.4001	1371.3	0.9
293.15	0.5002	1375.2	1
293.15	0.5998	1379.1	1.1
293.15	0.8002	1387.3	1.3
293.15	1	1397.2	1.5
303.15	0.2005	1326.7	0.8
303.15	0.4001	1334.2	0.9
303.15	0.5002	1338.1	1
303.15	0.5998	1342	1.1
303.15	0.8002	1350.2	1.3
303.15	1	1359.6	1.5
313.15	0.2005	1290.2	0.7
313.15	0.4001	1297.7	0.9
313.15	0.5002	1301.6	1
313.15	0.5998	1305.6	1.1
313.15	0.8002	1313.8	1.3
313.15	1	1322.9	1.5
323.15	0.2005	1254.4	0.7
323.15	0.4001	1261.9	0.9
323.15	0.5002	1265.8	1
323.15	0.5998	1269.8	1.1
323.15	0.8002	1278.1	1.3
323.15	1	1287.1	1.5
333.15	0.2005	1219.5	0.7
333.15	0.4001	1226.9	0.9
333.15	0.5002	1230.9	1
333.15	0.5998	1234.9	1.1
333.15	0.8002	1243.4	1.3
333.15	1	1252.2	1.5

System: decylcyclohexane + hexadecane; phases: Liquid
Fixed: Pressure, kPa = 102
Property: Mass density, kg/m3 (Liquid); method: Vibrating tube method
Temperature, K	Mole fraction of decylcyclohexane	Mass density, kg/m3	uncertainty
293.15	0	773.37	0.81
293.15	0.2	781.98	0.81
293.15	0.4	790.75	0.81
293.15	0.4999	795.26	0.81
293.15	0.6008	799.82	0.81
293.15	0.7237	805.48	0.81
293.15	1	818.55	0.81
303.15	0	766.43	0.81
303.15	0.2	775.08	0.81
303.15	0.4	783.89	0.81
303.15	0.4999	788.42	0.81
303.15	0.6008	792.99	0.81
303.15	0.7237	798.67	0.81
303.15	1	811.78	0.81
313.15	0	759.51	0.81
313.15	0.2	768.19	0.81
313.15	0.4	777.04	0.81
313.15	0.4999	781.59	0.81
313.15	0.6008	786.18	0.81
313.15	0.7237	791.88	0.81
313.15	1	805.02	0.81
323.15	0	752.61	0.81
323.15	0.2	761.3	0.81
323.15	0.4	770.2	0.81
323.15	0.4999	774.76	0.81
323.15	0.6008	779.37	0.81
323.15	0.7237	785.08	0.81
323.15	1	798.27	0.81
333.15	0	745.69	0.81
333.15	0.2	754.42	0.81
333.15	0.4	763.35	0.81
333.15	0.4999	767.92	0.81
333.15	0.6008	772.55	0.81
333.15	0.7237	778.28	0.81
333.15	1	791.5	0.81
343.15	0	738.8	0.8
343.15	0.2	747.5	0.8
343.15	0.4	756.5	0.8
343.15	0.4999	761.3	0.8
343.15	0.6008	765.8	0.8
343.15	0.7237	771.6	0.8
343.15	1	784.8	0.8
353.15	0	731.9	0.8
353.15	0.2	740.7	0.8
353.15	0.4	749.7	0.8
353.15	0.4999	754.4	0.8
353.15	0.6008	759	0.8
353.15	0.7237	764.8	0.8
353.15	1	778	0.8
363.15	0	724.9	0.8
363.15	0.2	733.7	0.8
363.15	0.4	742.8	0.8
363.15	0.4999	747.6	0.8
363.15	0.6008	752.1	0.8
363.15	0.7237	758	0.8
363.15	1	771.2	0.8
373.15	0	717.9	0.8
373.15	0.2	726.8	0.8
373.15	0.4	735.9	0.8
373.15	0.4999	740.7	0.8
373.15	0.6008	745.2	0.8
373.15	0.7237	751.1	0.8
373.15	1	764.4	0.8

System: decylcyclohexane + hexadecane; phases: Liquid
Fixed: Pressure, kPa = 102
Property: Viscosity, Pa*s (Liquid); method: Concentric cylinders viscometry
Temperature, K	Mole fraction of decylcyclohexane	Viscosity, Pa*s	uncertainty
293.15	0	0.00347	2e-05
293.15	0.2	0.00373	3e-05
293.15	0.4	0.00403	2e-05
293.15	0.4999	0.00419	2e-05
293.15	0.6008	0.00436	3e-05
293.15	0.7237	0.00463	2e-05
293.15	1	0.00532	3e-05
303.15	0	0.00276	2e-05
303.15	0.2	0.00295	2e-05
303.15	0.4	0.00316	2e-05
303.15	0.4999	0.00329	2e-05
303.15	0.6008	0.00341	2e-05
303.15	0.7237	0.0036	2e-05
303.15	1	0.00409	2e-05
313.15	0	0.00224	2e-05
313.15	0.2	0.00239	2e-05
313.15	0.4	0.00254	2e-05
313.15	0.4999	0.00264	2e-05
313.15	0.6008	0.00273	2e-05
313.15	0.7237	0.00287	2e-05
313.15	1	0.00323	2e-05
323.15	0	0.00186	1e-05
323.15	0.2	0.00197	1e-05
323.15	0.4	0.00209	2e-05
323.15	0.4999	0.00218	2e-05
323.15	0.6008	0.00224	2e-05
323.15	0.7237	0.00234	2e-05
323.15	1	0.00262	2e-05
333.15	0	0.00156	1e-05
333.15	0.2	0.00165	1e-05
333.15	0.4	0.00175	1e-05
333.15	0.4999	0.00181	1e-05
333.15	0.6008	0.00187	2e-05
333.15	0.7237	0.00195	2e-05
333.15	1	0.00216	2e-05
343.15	0	0.00135	1e-05
343.15	0.2	0.00142	1e-05
343.15	0.4	0.00148	1e-05
343.15	0.4999	0.00154	1e-05
343.15	0.6008	0.00158	1e-05
343.15	0.7237	0.00164	1e-05
343.15	1	0.00182	2e-05
353.15	0	0.00115	1e-05
353.15	0.2	0.00121	1e-05
353.15	0.4	0.00128	1e-05
353.15	0.4999	0.00132	1e-05
353.15	0.6008	0.00136	1e-05
353.15	0.7237	0.00141	1e-05
353.15	1	0.00155	1e-05
363.15	0	0.00102	1e-05
363.15	0.2	0.00108	1e-05
363.15	0.4	0.0011	1e-05
363.15	0.4999	0.00117	1e-05
363.15	0.6008	0.00118	1e-05
363.15	0.7237	0.00122	1e-05
363.15	1	0.00134	1e-05
373.15	0	0.000885	1.2e-05
373.15	0.2	0.000926	1.2e-05
373.15	0.4	0.000979	1.2e-05
373.15	0.4999	0.00101	1e-05
373.15	0.6008	0.00104	1e-05
373.15	0.7237	0.00107	1e-05
373.15	1	0.00117	1e-05

System: decylcyclohexane + hexadecane; phases: Liquid
Fixed: Pressure, kPa = 102
Fixed: Frequency, MHz = 3
Property: Speed of sound, m/s (Liquid); method: Single path-length method
Temperature, K	Mole fraction of decylcyclohexane	Speed of sound, m/s	uncertainty
293.15	0.2	1366.2	0.7
293.15	0.4	1375.8	0.7
293.15	0.4999	1380.7	0.7
293.15	0.6008	1385.6	0.8
293.15	0.7237	1392	0.8
293.15	1	1406.7	0.9
303.15	0.2	1329	0.7
303.15	0.4	1338.4	0.7
303.15	0.4999	1343.3	0.7
303.15	0.6008	1348.3	0.7
303.15	0.7237	1354.7	0.8
303.15	1	1369.4	0.9
313.15	0.2	1292.6	0.7
313.15	0.4	1301.9	0.7
313.15	0.4999	1306.8	0.7
313.15	0.6008	1311.8	0.7
313.15	0.7237	1318.3	0.8
313.15	1	1333	0.9
323.15	0.2	1256.8	0.7
323.15	0.4	1266.2	0.7
323.15	0.4999	1271.1	0.7
323.15	0.6008	1276.2	0.7
323.15	0.7237	1282.7	0.8
323.15	1	1297.5	0.9
333.15	0.2	1221.9	0.7
333.15	0.4	1231.6	0.7
333.15	0.4999	1236.3	0.7
333.15	0.6008	1241.5	0.7
333.15	0.7237	1248.2	0.8
333.15	1	1262.9	0.9

System: dodecylcyclohexane + hexadecane; phases: Liquid
Fixed: Pressure, kPa = 102
Property: Mass density, kg/m3 (Liquid); method: Vibrating tube method
Temperature, K	Mole fraction of dodecylcyclohexane	Mass density, kg/m3	uncertainty
293.15	0	773.37	0.81
293.15	0.2002	783.66	0.81
293.15	0.4001	793.67	0.81
293.15	0.5001	798.59	0.81
293.15	0.6003	803.47	0.81
293.15	0.8001	812.98	0.81
293.15	1	822.31	0.81
303.15	0	766.43	0.81
303.15	0.2002	776.77	0.81
303.15	0.4001	786.84	0.81
303.15	0.5001	791.79	0.81
303.15	0.6003	796.69	0.81
303.15	0.8001	806.26	0.81
303.15	1	815.65	0.81
313.15	0	759.51	0.81
313.15	0.2002	769.91	0.81
313.15	0.4001	780.03	0.81
313.15	0.5001	785.01	0.81
313.15	0.6003	789.93	0.81
313.15	0.8001	799.57	0.81
313.15	1	809.01	0.81
323.15	0	752.61	0.81
323.15	0.2002	763.05	0.81
323.15	0.4001	773.23	0.81
323.15	0.5001	778.23	0.81
323.15	0.6003	783.19	0.81
323.15	0.8001	792.89	0.81
323.15	1	802.37	0.81
333.15	0	745.69	0.81
333.15	0.2002	756.19	0.81
333.15	0.4001	766.43	0.81
333.15	0.5001	771.46	0.81
333.15	0.6003	776.44	0.81
333.15	0.8001	786.2	0.81
333.15	1	795.74	0.81
343.15	0	738.8	0.8
343.15	0.2002	749.3	0.8
343.15	0.4001	759.7	0.8
343.15	0.5001	764.7	0.8
343.15	0.6003	769.7	0.8
343.15	0.8001	779.6	0.8
343.15	1	789.1	0.8
353.15	0	731.9	0.8
353.15	0.2002	742.4	0.8
353.15	0.4001	752.9	0.8
353.15	0.5001	757.9	0.8
353.15	0.6003	763	0.8
353.15	0.8001	772.9	0.8
353.15	1	782.5	0.8
363.15	0	724.9	0.8
363.15	0.2002	735.6	0.8
363.15	0.4001	746.1	0.8
363.15	0.5001	751.1	0.8
363.15	0.6003	756.2	0.8
363.15	0.8001	766.2	0.8
363.15	1	775.9	0.8
373.15	0	717.9	0.8
373.15	0.2002	728.7	0.8
373.15	0.4001	739.3	0.8
373.15	0.5001	744.3	0.8
373.15	0.6003	749.4	0.8
373.15	0.8001	759.5	0.8
373.15	1	769.2	0.8

System: dodecylcyclohexane + hexadecane; phases: Liquid
Fixed: Pressure, kPa = 102
Property: Viscosity, Pa*s (Liquid); method: Concentric cylinders viscometry
Temperature, K	Mole fraction of dodecylcyclohexane	Viscosity, Pa*s	uncertainty
293.15	0	0.00347	2e-05
293.15	0.2002	0.00402	2e-05
293.15	0.4001	0.00472	2e-05
293.15	0.5001	0.00511	2e-05
293.15	0.6003	0.00549	5e-05
293.15	0.8001	0.00649	3e-05
293.15	1	0.00776	4e-05
303.15	0	0.00276	2e-05
303.15	0.2002	0.00317	2e-05
303.15	0.4001	0.00366	2e-05
303.15	0.5001	0.00395	2e-05
303.15	0.6003	0.00423	2e-05
303.15	0.8001	0.00493	2e-05
303.15	1	0.00581	3e-05
313.15	0	0.00224	2e-05
313.15	0.2002	0.00256	2e-05
313.15	0.4001	0.00292	2e-05
313.15	0.5001	0.00313	2e-05
313.15	0.6003	0.00334	2e-05
313.15	0.8001	0.00385	2e-05
313.15	1	0.00448	2e-05
323.15	0	0.00186	1e-05
323.15	0.2002	0.0021	2e-05
323.15	0.4001	0.00238	2e-05
323.15	0.5001	0.00254	2e-05
323.15	0.6003	0.0027	2e-05
323.15	0.8001	0.00309	2e-05
323.15	1	0.00355	2e-05
333.15	0	0.00156	1e-05
333.15	0.2002	0.00176	1e-05
333.15	0.4001	0.00197	2e-05
333.15	0.5001	0.0021	2e-05
333.15	0.6003	0.00223	2e-05
333.15	0.8001	0.00253	2e-05
333.15	1	0.00288	2e-05
343.15	0	0.00135	1e-05
343.15	0.2002	0.00149	1e-05
343.15	0.4001	0.00167	1e-05
343.15	0.5001	0.00177	1e-05
343.15	0.6003	0.00188	2e-05
343.15	0.8001	0.00211	2e-05
343.15	1	0.00239	2e-05
353.15	0	0.00115	1e-05
353.15	0.2002	0.00128	1e-05
353.15	0.4001	0.00143	1e-05
353.15	0.5001	0.00151	1e-05
353.15	0.6003	0.0016	1e-05
353.15	0.8001	0.00179	2e-05
353.15	1	0.00201	2e-05
363.15	0	0.00102	1e-05
363.15	0.2002	0.00114	1e-05
363.15	0.4001	0.00124	1e-05
363.15	0.5001	0.00131	1e-05
363.15	0.6003	0.00138	1e-05
363.15	0.8001	0.00154	1e-05
363.15	1	0.00172	2e-05
373.15	0	0.000885	1.2e-05
373.15	0.2002	0.000978	1.2e-05
373.15	0.4001	0.00108	1e-05
373.15	0.5001	0.00114	1e-05
373.15	0.6003	0.00121	1e-05
373.15	0.8001	0.00134	1e-05
373.15	1	0.00148	1e-05

System: dodecylcyclohexane + hexadecane; phases: Liquid
Fixed: Pressure, kPa = 102
Fixed: Frequency, MHz = 3
Property: Speed of sound, m/s (Liquid); method: Single path-length method
Temperature, K	Mole fraction of dodecylcyclohexane	Speed of sound, m/s	uncertainty
293.15	0.2002	1370.4	0.7
293.15	0.4001	1384	0.7
293.15	0.5001	1390.6	0.7
293.15	0.6003	1396.7	0.7
293.15	0.8001	1410.4	0.8
293.15	1	1423.3	0.9
303.15	0.2002	1333.2	0.7
303.15	0.4001	1347	0.7
303.15	0.5001	1353.7	0.7
303.15	0.6003	1359.9	0.7
303.15	0.8001	1373.4	0.8
303.15	1	1386.3	0.9
313.15	0.2002	1296.9	0.7
313.15	0.4001	1310.8	0.7
313.15	0.5001	1317.6	0.7
313.15	0.6003	1323.8	0.7
313.15	0.8001	1337.3	0.8
313.15	1	1350.4	0.9
323.15	0.2002	1261.2	0.7
323.15	0.4001	1275.3	0.7
323.15	0.5001	1282.1	0.7
323.15	0.6003	1288.5	0.7
323.15	0.8001	1302	0.8
323.15	1	1315.2	0.9
333.15	0.2002	1226.5	0.7
333.15	0.4001	1240.6	0.7
333.15	0.5001	1247.5	0.7
333.15	0.6003	1254.3	0.7
333.15	0.8001	1267.8	0.8
333.15	1	1281.1	0.9
