Measured thermophysical data. Solubility of Sulfachloropyridazine in Pure and Binary Solvent Mixtures and Investigation of Intermolecular Interactions
Source: J. Chem. Eng. Data, 2018, 10.1021/acs.jced.7b01134
Compound 1: Sulfachlorpyridazine, C10H9ClN4O2S, InChI=1S/C10H9ClN4O2S/c11-9-5-6-10(14-13-9)15-18(16,17)8-3-1-7(12)2-4-8/h1-6H,12H2,(H,14,15)
Compound 2: water, H2O, InChI=1S/H2O/h1H2, purity 99.8%
Compound 3: methanol, CH4O, InChI=1S/CH4O/c1-2/h2H,1H3
Compound 4: ethanol, C2H6O, InChI=1S/C2H6O/c1-2-3/h3H,2H2,1H3
Compound 5: propan-2-ol, C3H8O, InChI=1S/C3H8O/c1-3(2)4/h3-4H,1-2H3
Compound 6: butan-1-ol, C4H10O, InChI=1S/C4H10O/c1-2-3-4-5/h5H,2-4H2,1H3
Compound 7: acetone, C3H6O, InChI=1S/C3H6O/c1-3(2)4/h1-2H3
Compound 8: acetonitrile, C2H3N, InChI=1S/C2H3N/c1-2-3/h1H3
Compound 9: ethyl acetate, C4H8O2, InChI=1S/C4H8O2/c1-3-6-4(2)5/h3H2,1-2H3
Compound 10: 1,4-dioxane, C4H8O2, InChI=1S/C4H8O2/c1-2-6-4-3-5-1/h1-4H2

System: Sulfachlorpyridazine + water; phases: Liquid, Crystal
Fixed: Pressure, kPa = 101.1
Property: Mole fraction of Sulfachlorpyridazine (Liquid); method: Chromatography
Temperature, K	Mole fraction of Sulfachlorpyridazine	uncertainty
283.15	2.254e-05	4.51e-06
288.15	3.309e-05	6.62e-06
293.15	4.395e-05	8.79e-06
298.15	5.901e-05	1.18e-05
303.15	7.528e-05	1.506e-05
308.15	9.517e-05	1.904e-05
313.15	0.0001187	2.37e-05
318.15	0.0001485	2.97e-05
323.15	0.0001843	3.69e-05

System: Sulfachlorpyridazine + methanol; phases: Liquid, Crystal
Fixed: Pressure, kPa = 101.1
Property: Mole fraction of Sulfachlorpyridazine (Liquid); method: Chromatography
Temperature, K	Mole fraction of Sulfachlorpyridazine	uncertainty
283.15	0.004725	0.000945
288.15	0.005133	0.001027
293.15	0.005692	0.001138
298.15	0.006271	0.001254
303.15	0.006965	0.001393
308.15	0.007793	0.001559
313.15	0.008668	0.001734
318.15	0.009659	0.001932
323.15	0.01085	0.00217

System: Sulfachlorpyridazine + ethanol; phases: Liquid, Crystal
Fixed: Pressure, kPa = 101.1
Property: Mole fraction of Sulfachlorpyridazine (Liquid); method: Chromatography
Temperature, K	Mole fraction of Sulfachlorpyridazine	uncertainty
283.15	0.003806	0.000761
288.15	0.004322	0.000864
293.15	0.004837	0.000967
298.15	0.005432	0.001086
303.15	0.006158	0.001232
308.15	0.00689	0.001378
313.15	0.007766	0.001553
318.15	0.008789	0.001758
323.15	0.01009	0.00202

System: Sulfachlorpyridazine + propan-2-ol; phases: Liquid, Crystal
Fixed: Pressure, kPa = 101.1
Property: Mole fraction of Sulfachlorpyridazine (Liquid); method: Chromatography
Temperature, K	Mole fraction of Sulfachlorpyridazine	uncertainty
283.15	0.003102	0.00062
288.15	0.003451	0.00069
293.15	0.003825	0.000765
298.15	0.004288	0.000858
303.15	0.004763	0.000953
308.15	0.005384	0.001077
313.15	0.006139	0.001228
318.15	0.007019	0.001404
323.15	0.007924	0.001585

System: Sulfachlorpyridazine + butan-1-ol; phases: Liquid, Crystal
Fixed: Pressure, kPa = 101.1
Property: Mole fraction of Sulfachlorpyridazine (Liquid); method: Chromatography
Temperature, K	Mole fraction of Sulfachlorpyridazine	uncertainty
283.15	0.003353	0.000671
288.15	0.003719	0.000744
293.15	0.004211	0.000842
298.15	0.004736	0.000947
303.15	0.005309	0.001062
308.15	0.005957	0.001191
313.15	0.00676	0.001352
318.15	0.007679	0.001536
323.15	0.008668	0.001734

System: Sulfachlorpyridazine + acetone; phases: Liquid, Crystal
Fixed: Pressure, kPa = 101.1
Property: Mole fraction of Sulfachlorpyridazine (Liquid); method: Chromatography
Temperature, K	Mole fraction of Sulfachlorpyridazine	uncertainty
283.15	0.06467	0.01293
288.15	0.07154	0.01431
293.15	0.08042	0.01609
298.15	0.09079	0.01816
303.15	0.1022	0.0204
308.15	0.1156	0.0231
313.15	0.1312	0.0262
318.15	0.1475	0.0295
323.15	0.1652	0.033

System: Sulfachlorpyridazine + acetonitrile; phases: Liquid, Crystal
Fixed: Pressure, kPa = 101.1
Property: Mole fraction of Sulfachlorpyridazine (Liquid); method: Chromatography
Temperature, K	Mole fraction of Sulfachlorpyridazine	uncertainty
283.15	0.01868	0.00374
288.15	0.01932	0.00386
293.15	0.02023	0.00405
298.15	0.02125	0.00425
303.15	0.02243	0.00449
308.15	0.02394	0.00479
313.15	0.02584	0.00517
318.15	0.02833	0.00567
323.15	0.03124	0.00625

System: Sulfachlorpyridazine + ethyl acetate; phases: Liquid, Crystal
Fixed: Pressure, kPa = 101.1
Property: Mole fraction of Sulfachlorpyridazine (Liquid); method: Chromatography
Temperature, K	Mole fraction of Sulfachlorpyridazine	uncertainty
283.15	0.01352	0.0027
288.15	0.01406	0.00281
293.15	0.01515	0.00303
298.15	0.01646	0.00329
303.15	0.01788	0.00358
308.15	0.01981	0.00396
313.15	0.02188	0.00438
318.15	0.02436	0.00487
323.15	0.02685	0.00537

System: Sulfachlorpyridazine + 1,4-dioxane; phases: Liquid, Crystal
Fixed: Pressure, kPa = 101.1
Property: Mole fraction of Sulfachlorpyridazine (Liquid); method: Chromatography
Temperature, K	Mole fraction of Sulfachlorpyridazine	uncertainty
283.15	0.0994	0.0199
288.15	0.1065	0.0213
293.15	0.1163	0.0233
298.15	0.1287	0.0257
303.15	0.1433	0.0287
308.15	0.1589	0.0318
313.15	0.1788	0.0358
318.15	0.2037	0.0407
323.15	0.2347	0.0469

System: Sulfachlorpyridazine + methanol + water; phases: Liquid, Crystal
Fixed: Pressure, kPa = 101.1
Property: Mole fraction of Sulfachlorpyridazine (Liquid); method: Chromatography
Temperature, K	Solvent: Mass fraction of methanol	Mole fraction of Sulfachlorpyridazine	uncertainty
283.15	0.2	8.737e-05	1.752e-05
288.15	0.2	0.0001169	2.34e-05
293.15	0.2	0.0001515	3.03e-05
298.15	0.2	0.0001909	3.82e-05
303.15	0.2	0.0002317	4.64e-05
308.15	0.2	0.0002767	5.54e-05
313.15	0.2	0.0003272	6.55e-05
318.15	0.2	0.0003799	7.6e-05
323.15	0.2	0.0004386	8.79e-05
283.15	0.4	0.0005097	0.0001021
288.15	0.4	0.0006003	0.0001202
293.15	0.4	0.0007052	0.0001412
298.15	0.4	0.0008315	0.0001665
303.15	0.4	0.0009609	0.0001924
308.15	0.4	0.001115	0.000223
313.15	0.4	0.001315	0.000263
318.15	0.4	0.001561	0.000313
323.15	0.4	0.00184	0.000368
283.15	0.6	0.001292	0.000259
288.15	0.6	0.001567	0.000314
293.15	0.6	0.001847	0.00037
298.15	0.6	0.002159	0.000432
303.15	0.6	0.00248	0.000496
308.15	0.6	0.002865	0.000573
313.15	0.6	0.003331	0.000666
318.15	0.6	0.003855	0.000771
323.15	0.6	0.004361	0.000872
283.15	0.8	0.002418	0.000484
288.15	0.8	0.002722	0.000544
293.15	0.8	0.003127	0.000625
298.15	0.8	0.003557	0.000711
303.15	0.8	0.004042	0.000809
308.15	0.8	0.004569	0.000914
313.15	0.8	0.005225	0.001045
318.15	0.8	0.005976	0.001195
323.15	0.8	0.006812	0.001363
283.15	1	0.004725	0.000945
288.15	1	0.005133	0.001027
293.15	1	0.005692	0.001138
298.15	1	0.006271	0.001254
303.15	1	0.006965	0.001393
308.15	1	0.007793	0.001559
313.15	1	0.008668	0.001734
318.15	1	0.009659	0.001932
323.15	1	0.01085	0.00217
283.15	0	2.254e-05	4.51e-06
288.15	0	3.309e-05	6.62e-06
293.15	0	4.395e-05	8.79e-06
298.15	0	5.901e-05	1.18e-05
303.15	0	7.528e-05	1.506e-05
308.15	0	9.517e-05	1.904e-05
313.15	0	0.0001187	2.37e-05
318.15	0	0.0001485	2.97e-05
323.15	0	0.0001843	3.69e-05

System: Sulfachlorpyridazine + ethanol + water; phases: Liquid, Crystal
Fixed: Pressure, kPa = 101.1
Property: Mole fraction of Sulfachlorpyridazine (Liquid); method: Chromatography
Temperature, K	Solvent: Mass fraction of ethanol	Mole fraction of Sulfachlorpyridazine	uncertainty
283.15	0.2	4.758e-05	9.57e-06
288.15	0.2	6.511e-05	1.305e-05
293.15	0.2	9.301e-05	1.864e-05
298.15	0.2	0.0001266	2.54e-05
303.15	0.2	0.0001641	3.29e-05
308.15	0.2	0.0002023	4.05e-05
313.15	0.2	0.0002451	4.91e-05
318.15	0.2	0.0002896	5.8e-05
323.15	0.2	0.0003378	6.77e-05
283.15	0.4	0.0003915	7.84e-05
288.15	0.4	0.0004725	9.46e-05
293.15	0.4	0.0005858	0.0001173
298.15	0.4	0.0007069	0.0001416
303.15	0.4	0.0008339	0.000167
308.15	0.4	0.0009735	0.0001949
313.15	0.4	0.001117	0.000224
318.15	0.4	0.001273	0.000255
323.15	0.4	0.001427	0.000286
283.15	0.6	0.001127	0.000226
288.15	0.6	0.001358	0.000272
293.15	0.6	0.001602	0.000321
298.15	0.6	0.001882	0.000377
303.15	0.6	0.002199	0.00044
308.15	0.6	0.002584	0.000517
313.15	0.6	0.003013	0.000603
318.15	0.6	0.003467	0.000694
323.15	0.6	0.004133	0.000827
283.15	0.8	0.002016	0.000403
288.15	0.8	0.002376	0.000475
293.15	0.8	0.002746	0.000549
298.15	0.8	0.003159	0.000632
303.15	0.8	0.003604	0.000721
308.15	0.8	0.004142	0.000829
313.15	0.8	0.004724	0.000945
318.15	0.8	0.00543	0.001086
323.15	0.8	0.006237	0.001248
283.15	0	2.254e-05	4.51e-06
288.15	0	3.309e-05	6.62e-06
293.15	0	4.395e-05	8.79e-06
298.15	0	5.901e-05	1.18e-05
303.15	0	7.528e-05	1.506e-05
308.15	0	9.517e-05	1.904e-05
313.15	0	0.0001187	2.37e-05
318.15	0	0.0001485	2.97e-05
323.15	0	0.0001843	3.69e-05
283.15	1	0.003806	0.000761
288.15	1	0.004322	0.000864
293.15	1	0.004837	0.000967
298.15	1	0.005432	0.001086
303.15	1	0.006158	0.001232
308.15	1	0.00689	0.001378
313.15	1	0.007766	0.001553
318.15	1	0.008789	0.001758
323.15	1	0.01009	0.00202

System: Sulfachlorpyridazine + propan-2-ol + water; phases: Liquid, Crystal
Fixed: Pressure, kPa = 101.1
Property: Mole fraction of Sulfachlorpyridazine (Liquid); method: Chromatography
Temperature, K	Solvent: Mass fraction of propan-2-ol	Mole fraction of Sulfachlorpyridazine	uncertainty
283.15	0.2	4.329e-05	8.68e-06
288.15	0.2	5.888e-05	1.179e-05
293.15	0.2	7.995e-05	1.601e-05
298.15	0.2	0.0001069	2.14e-05
303.15	0.2	0.0001397	2.8e-05
308.15	0.2	0.00018	3.6e-05
313.15	0.2	0.0002307	4.62e-05
318.15	0.2	0.0002825	5.65e-05
323.15	0.2	0.0003357	6.72e-05
283.15	0.4	0.0002487	4.99e-05
288.15	0.4	0.0003087	6.19e-05
293.15	0.4	0.0003956	7.93e-05
298.15	0.4	0.0004924	9.86e-05
303.15	0.4	0.0006022	0.0001206
308.15	0.4	0.0007206	0.0001443
313.15	0.4	0.0008594	0.0001721
318.15	0.4	0.001018	0.000204
323.15	0.4	0.001195	0.000239
283.15	0.6	0.0008596	0.000172
288.15	0.6	0.001092	0.000219
293.15	0.6	0.001273	0.000255
298.15	0.6	0.00151	0.000302
303.15	0.6	0.001717	0.000344
308.15	0.6	0.002007	0.000402
313.15	0.6	0.002385	0.000477
318.15	0.6	0.002818	0.000564
323.15	0.6	0.003299	0.00066
283.15	0.8	0.001773	0.000355
288.15	0.8	0.001996	0.000399
293.15	0.8	0.002308	0.000462
298.15	0.8	0.00264	0.000528
303.15	0.8	0.003011	0.000602
308.15	0.8	0.003487	0.000697
313.15	0.8	0.004028	0.000806
318.15	0.8	0.004678	0.000936
323.15	0.8	0.005402	0.001081
283.15	0	2.254e-05	4.51e-06
288.15	0	3.309e-05	6.62e-06
293.15	0	4.395e-05	8.79e-06
298.15	0	5.901e-05	1.18e-05
303.15	0	7.528e-05	1.506e-05
308.15	0	9.517e-05	1.904e-05
313.15	0	0.0001187	2.37e-05
318.15	0	0.0001485	2.97e-05
323.15	0	0.0001843	3.69e-05
283.15	1	0.003102	0.00062
288.15	1	0.003451	0.00069
293.15	1	0.003825	0.000765
298.15	1	0.004288	0.000858
303.15	1	0.004763	0.000953
308.15	1	0.005384	0.001077
313.15	1	0.006139	0.001228
318.15	1	0.007019	0.001404
323.15	1	0.007924	0.001585
