Measured thermophysical data. Thermodynamic Study of LiClO4 Activity Coefficients in Aqueous Solution at (288.15, 298.15, and 308.18) K
Source: J. Chem. Eng. Data, 2018, 10.1021/acs.jced.8b00138
Compound 1: lithium perchlorate, ClLiO4, InChI=1S/ClHO4.Li/c2-1(3,4)5;/h(H,2,3,4,5);/q;+1/p-1, purity 99%
Compound 2: water, H2O, InChI=1S/H2O/h1H2, purity 99.8%

System: lithium perchlorate + water; phases: Liquid
Fixed: Pressure, kPa = 101.35
Property: Mean ionic activity coefficient of lithium perchlorate (Liquid); method: Calculated from EMF cell potential
Temperature, K	Molality, mol/kg of lithium perchlorate	Mean ionic activity coefficient of lithium perchlorate	uncertainty
288.15	0.0143	0.891	0.057
288.15	0.0366	0.846	0.054
288.15	0.0682	0.813	0.053
288.15	0.1329	0.778	0.051
288.15	0.1823	0.765	0.05
288.15	0.2497	0.754	0.05
288.15	0.2954	0.75	0.049
288.15	0.3683	0.747	0.049
288.15	0.4571	0.748	0.049
288.15	0.5255	0.751	0.049
288.15	0.6107	0.757	0.05
288.15	0.7175	0.767	0.05
288.15	0.8406	0.781	0.051
288.15	0.9719	0.799	0.052
288.15	1.1894	0.835	0.054
288.15	1.3899	0.873	0.056
288.15	1.6052	0.92	0.058
288.15	1.8292	0.975	0.061
288.15	2.132	1.059	0.067
288.15	2.4662	1.168	0.075
288.15	2.8351	1.307	0.085
288.15	3.1443	1.442	0.095
288.15	3.4335	1.585	0.105
288.15	3.7327	1.753	0.117
288.15	3.9406	1.882	0.127
298.15	0.0088	0.913	0.058
298.15	0.0149	0.893	0.057
298.15	0.0288	0.866	0.055
298.15	0.0398	0.851	0.055
298.15	0.0545	0.837	0.054
298.15	0.0721	0.825	0.053
298.15	0.1067	0.81	0.052
298.15	0.1526	0.799	0.052
298.15	0.2282	0.792	0.052
298.15	0.3138	0.793	0.052
298.15	0.4559	0.803	0.052
298.15	0.5944	0.821	0.053
298.15	0.7381	0.843	0.054
298.15	0.9247	0.878	0.056
298.15	1.0914	0.914	0.058
298.15	1.3137	0.966	0.061
298.15	1.5065	1.017	0.064
298.15	1.7008	1.074	0.068
298.15	1.9728	1.161	0.074
298.15	2.2571	1.264	0.081
298.15	2.523	1.371	0.089
298.15	2.8603	1.524	0.101
298.15	3.2034	1.702	0.114
298.15	3.5016	1.877	0.127
298.15	3.82	2.087	0.142
298.15	4.0968	2.292	0.156
308.15	0.0068	0.919	0.058
308.15	0.0176	0.883	0.056
308.15	0.0316	0.858	0.055
308.15	0.0519	0.836	0.054
308.15	0.0872	0.815	0.053
308.15	0.1416	0.799	0.052
308.15	0.2056	0.793	0.052
308.15	0.2986	0.794	0.052
308.15	0.3995	0.802	0.052
308.15	0.5314	0.82	0.053
308.15	0.67	0.844	0.054
308.15	0.8086	0.872	0.056
308.15	0.9859	0.913	0.058
308.15	1.1675	0.959	0.06
308.15	1.3827	1.021	0.064
308.15	1.6266	1.099	0.07
308.15	1.8886	1.194	0.076
308.15	2.1138	1.285	0.083
308.15	2.3473	1.389	0.091
308.15	2.6194	1.523	0.1
308.15	2.8555	1.653	0.11
308.15	3.1375	1.825	0.123
308.15	3.387	1.995	0.135
308.15	3.6335	2.181	0.148
308.15	3.8989	2.404	0.164
