Measured thermophysical data. Solvent Polarity Effect when Amberlite-LA2 Is Used in the Extraction of Picric Acid
Source: J. Chem. Eng. Data, 2017, 10.1021/acs.jced.6b00970
Compound 1: dichloromethane, CH2Cl2, InChI=1S/CH2Cl2/c2-1-3/h1H2
Compound 2: dodecan-1-ol, C12H26O, InChI=1S/C12H26O/c1-2-3-4-5-6-7-8-9-10-11-12-13/h13H,2-12H2,1H3
Compound 3: toluene, C7H8, InChI=1S/C7H8/c1-7-5-3-2-4-6-7/h2-6H,1H3
Compound 4: benzene, C6H6, InChI=1S/C6H6/c1-2-4-6-5-3-1/h1-6H
Compound 5: dodecane, C12H26, InChI=1S/C12H26/c1-3-5-7-9-11-12-10-8-6-4-2/h3-12H2,1-2H3
Compound 6: 2,4,6-trinitrophenol, C6H3N3O7, InChI=1S/C6H3N3O7/c10-6-4(8(13)14)1-3(7(11)12)2-5(6)9(15)16/h1-2,10H
Compound 7: water, H2O, InChI=1S/H2O/h1H2, purity 99.8%

System: dichloromethane + 2,4,6-trinitrophenol + water; phases: Liquid mixture 2, Liquid mixture 1
Property: Molality, mol/kg of 2,4,6-trinitrophenol (Liquid mixture 2); method: titration
Molality, mol/kg of 2,4,6-trinitrophenol	Temperature, K	Pressure, kPa	Molality, mol/kg of 2,4,6-trinitrophenol	uncertainty
0.053	298	100	0.008	0.002

System: 2,4,6-trinitrophenol + dodecan-1-ol + water; phases: Liquid mixture 2, Liquid mixture 1
Property: Molality, mol/kg of 2,4,6-trinitrophenol (Liquid mixture 2); method: titration
Molality, mol/kg of 2,4,6-trinitrophenol	Temperature, K	Pressure, kPa	Molality, mol/kg of 2,4,6-trinitrophenol	uncertainty
0.056	298	100	0.005	0.002

System: 2,4,6-trinitrophenol + toluene + water; phases: Liquid mixture 2, Liquid mixture 1
Property: Molality, mol/kg of 2,4,6-trinitrophenol (Liquid mixture 2); method: titration
Molality, mol/kg of 2,4,6-trinitrophenol	Temperature, K	Pressure, kPa	Molality, mol/kg of 2,4,6-trinitrophenol	uncertainty
0.059	298	100	0.002	0.002

System: benzene + 2,4,6-trinitrophenol + water; phases: Liquid mixture 2, Liquid mixture 1
Property: Molality, mol/kg of 2,4,6-trinitrophenol (Liquid mixture 2); method: titration
Molality, mol/kg of 2,4,6-trinitrophenol	Temperature, K	Pressure, kPa	Molality, mol/kg of 2,4,6-trinitrophenol	uncertainty
0.059	298	100	0.002	0.002

System: 2,4,6-trinitrophenol + dodecane + water; phases: Liquid mixture 2, Liquid mixture 1
Property: Molality, mol/kg of 2,4,6-trinitrophenol (Liquid mixture 2); method: titration
Molality, mol/kg of 2,4,6-trinitrophenol	Temperature, K	Pressure, kPa	Molality, mol/kg of 2,4,6-trinitrophenol	uncertainty
0.06	298	100	0.001	0.001
