Measured thermophysical data. Densities and Molar Isobaric Thermal Expansions of the Water + Formamide Mixture over the Temperature Range from 274.15 to 333.15 K at Atmospheric Pressure
Source: J. Chem. Eng. Data, 2017, 10.1021/acs.jced.6b00786
Compound 1: water, H2O, InChI=1S/H2O/h1H2, purity 99.9%
Compound 2: formamide, CH3NO, InChI=1S/CH3NO/c2-1-3/h1H,(H2,2,3), purity 99.5%

System: water; phases: Liquid
Fixed: Pressure, kPa = 101
Property: Mass density, kg/m3 (Liquid); method: Vibrating tube method
Temperature, K	Mass density, kg/m3	uncertainty
274.15	999.899	0.043
275.15	999.94	0.043
276.15	999.964	0.043
277.15	999.972	0.049
278.15	999.964	0.043
279.15	999.94	0.043
280.15	999.901	0.043
281.15	999.848	0.043
282.15	999.781	0.043
283.15	999.699	0.043
288.15	999.09	0.043
298.15	997.043	0.044
308.15	994.029	0.046
323.15	988.03	0.049
333.15	983.191	0.052

System: formamide; phases: Liquid
Fixed: Pressure, kPa = 101
Property: Mass density, kg/m3 (Liquid); method: Vibrating tube method
Temperature, K	Mass density, kg/m3	uncertainty
278.15	1146.62	0.198
288.15	1138.169	0.192
298.15	1129.728	0.187
308.15	1121.225	0.181
323.15	1108.459	0.173
333.15	1099.88	0.168

System: formamide + water; phases: Liquid
Fixed: Pressure, kPa = 101
Property: Mass density, kg/m3 (Liquid); method: Vibrating tube method
Temperature, K	Mole fraction of formamide	Mass density, kg/m3	uncertainty
274.15	0	999.899	0.043
274.15	0.00244	1001.031	0.044
274.15	0.00515	1002.276	0.045
274.15	0.0086	1003.847	0.046
274.15	0.02032	1009.005	0.048
274.15	0.03478	1014.987	0.052
274.15	0.04976	1020.812	0.055
274.15	0.06674	1026.931	0.058
274.15	0.08229	1032.238	0.061
274.15	0.11706	1043.055	0.071
275.15	0	999.94	0.043
275.15	0.00244	1001.058	0.044
275.15	0.00515	1002.286	0.045
275.15	0.0086	1003.837	0.045
275.15	0.02032	1008.933	0.048
275.15	0.03478	1014.848	0.052
275.15	0.04976	1020.615	0.055
275.15	0.06674	1026.674	0.058
275.15	0.08229	1031.933	0.061
275.15	0.11706	1042.673	0.07
276.15	0	999.964	0.043
276.15	0.00244	1001.069	0.044
276.15	0.00515	1002.284	0.045
276.15	0.0086	1003.808	0.045
276.15	0.02032	1008.85	0.048
276.15	0.03478	1014.698	0.051
276.15	0.04976	1020.405	0.055
276.15	0.06674	1026.416	0.058
276.15	0.08229	1031.627	0.061
276.15	0.11706	1042.275	0.07
277.15	0	999.972	0.049
277.15	0.00244	1001.064	0.044
277.15	0.00515	1002.264	0.045
277.15	0.0086	1003.769	0.045
277.15	0.02032	1008.754	0.048
277.15	0.03478	1014.538	0.051
277.15	0.04976	1020.188	0.055
277.15	0.06674	1026.145	0.058
277.15	0.08229	1031.3	0.061
277.15	0.11706	1041.877	0.07
278.15	0	999.964	0.043
278.15	0.00244	1001.044	0.044
278.15	0.00515	1002.228	0.045
278.15	0.0086	1003.717	0.045
278.15	0.02032	1008.643	0.048
278.15	0.03478	1014.373	0.051
278.15	0.04976	1019.963	0.055
278.15	0.06674	1025.858	0.058
278.15	0.08229	1030.988	0.061
278.15	0.11706	1041.475	0.069
278.15	0.17451	1056.298	0.078
278.15	0.21686	1065.712	0.085
278.15	0.25571	1073.386	0.09
278.15	0.30264	1081.728	0.097
278.15	0.35096	1089.332	0.104
278.15	0.40275	1096.658	0.111
278.15	0.44866	1102.497	0.117
278.15	0.48865	1107.053	0.122
278.15	0.56012	1114.603	0.132
278.15	0.5916	1117.672	0.136
278.15	0.66739	1124.307	0.147
278.15	0.70657	1127.456	0.152
278.15	0.74953	1130.645	0.158
278.15	0.79312	1133.73	0.165
278.15	0.86007	1138.232	0.175
278.15	0.89965	1140.732	0.181
278.15	0.94803	1143.611	0.189
278.15	0.97533	1145.177	0.194
278.15	0.98472	1145.718	0.195
278.15	0.98967	1146.014	0.196
278.15	0.99592	1146.375	0.206
278.15	1	1146.62	0.198
279.15	0	999.94	0.043
279.15	0.00244	1001.005	0.044
279.15	0.00515	1002.178	0.045
279.15	0.0086	1003.65	0.045
279.15	0.02032	1008.525	0.048
279.15	0.03478	1014.192	0.051
279.15	0.04976	1019.737	0.054
279.15	0.06674	1025.571	0.058
279.15	0.08229	1030.678	0.061
279.15	0.11706	1041.067	0.069
280.15	0	999.901	0.043
280.15	0.00244	1000.954	0.044
280.15	0.00515	1002.114	0.045
280.15	0.0086	1003.569	0.045
280.15	0.02032	1008.391	0.048
280.15	0.03478	1014.001	0.051
280.15	0.04976	1019.493	0.054
280.15	0.06674	1025.277	0.058
280.15	0.08229	1030.322	0.061
280.15	0.11706	1040.654	0.069
281.15	0	999.848	0.043
281.15	0.00244	1000.89	0.044
281.15	0.00515	1002.036	0.044
281.15	0.0086	1003.474	0.045
281.15	0.02032	1008.247	0.048
281.15	0.03478	1013.8	0.051
281.15	0.04976	1019.229	0.054
281.15	0.06674	1024.971	0.058
281.15	0.08229	1029.973	0.061
281.15	0.11706	1040.234	0.069
282.15	0	999.781	0.043
282.15	0.00244	1000.813	0.044
282.15	0.00515	1001.944	0.044
282.15	0.0086	1003.366	0.045
282.15	0.02032	1008.092	0.048
282.15	0.03478	1013.584	0.051
282.15	0.04976	1018.967	0.054
282.15	0.06674	1024.661	0.057
282.15	0.08229	1029.603	0.06
282.15	0.11706	1039.805	0.069
283.15	0	999.699	0.043
283.15	0.00244	1000.721	0.044
283.15	0.00515	1001.843	0.044
283.15	0.0086	1003.247	0.045
283.15	0.02032	1007.936	0.048
283.15	0.03478	1013.362	0.051
283.15	0.04976	1018.7	0.054
283.15	0.06674	1024.346	0.057
283.15	0.08229	1029.245	0.061
283.15	0.11706	1039.362	0.067
288.15	0	999.09	0.043
288.15	0.00244	1000.07	0.044
288.15	0.00515	1001.135	0.044
288.15	0.0086	1002.474	0.045
288.15	0.02032	1006.889	0.047
288.15	0.03478	1012.109	0.05
288.15	0.04976	1017.225	0.053
288.15	0.06674	1022.655	0.056
288.15	0.08229	1027.375	0.059
288.15	0.11706	1037.144	0.067
288.15	0.17451	1051.093	0.076
288.15	0.21686	1059.952	0.082
288.15	0.25571	1067.273	0.087
288.15	0.30264	1075.248	0.094
288.15	0.35096	1082.535	0.1
288.15	0.40275	1089.568	0.107
288.15	0.44866	1095.201	0.113
288.15	0.48865	1099.609	0.118
288.15	0.56012	1106.916	0.128
288.15	0.5916	1109.889	0.132
288.15	0.66739	1116.353	0.142
288.15	0.70657	1119.421	0.148
288.15	0.74953	1122.528	0.154
288.15	0.79312	1125.596	0.16
288.15	0.86007	1129.958	0.17
288.15	0.89965	1132.405	0.176
288.15	0.94803	1135.231	0.184
288.15	0.97533	1136.781	0.188
288.15	0.98472	1137.31	0.19
288.15	0.98967	1137.588	0.191
288.15	0.99592	1137.941	0.2
288.15	1	1138.169	0.192
298.15	0	997.043	0.044
298.15	0.00244	997.942	0.044
298.15	0.00515	998.905	0.044
298.15	0.0086	1000.138	0.044
298.15	0.02032	1004.2	0.046
298.15	0.03478	1008.996	0.049
298.15	0.04976	1013.729	0.052
298.15	0.06674	1018.774	0.055
298.15	0.08229	1023.184	0.057
298.15	0.11706	1032.345	0.065
298.15	0.17451	1045.523	0.073
298.15	0.21686	1053.945	0.079
298.15	0.25571	1060.925	0.084
298.15	0.30264	1068.562	0.09
298.15	0.35096	1075.562	0.096
298.15	0.40275	1082.343	0.103
298.15	0.44866	1087.781	0.109
298.15	0.48865	1092.053	0.114
298.15	0.56012	1099.145	0.123
298.15	0.5916	1102.042	0.127
298.15	0.66739	1108.335	0.138
298.15	0.70657	1111.339	0.143
298.15	0.74953	1114.367	0.149
298.15	0.79312	1117.373	0.155
298.15	0.86007	1121.653	0.165
298.15	0.89965	1124.049	0.171
298.15	0.94803	1126.821	0.179
298.15	0.97533	1128.347	0.183
298.15	0.98472	1128.869	0.184
298.15	0.98967	1129.153	0.185
298.15	0.99592	1129.497	0.194
298.15	1	1129.728	0.187
308.15	0	994.029	0.046
308.15	0.00244	994.873	0.046
308.15	0.00515	995.763	0.046
308.15	0.0086	996.897	0.045
308.15	0.02032	1000.677	0.044
308.15	0.03478	1005.152	0.047
308.15	0.04976	1009.5	0.05
308.15	0.06674	1014.31	0.053
308.15	0.08229	1018.422	0.055
308.15	0.11706	1027.15	0.062
308.15	0.17451	1039.597	0.07
308.15	0.21686	1047.646	0.076
308.15	0.25571	1054.323	0.081
308.15	0.30264	1061.671	0.087
308.15	0.35096	1068.412	0.093
308.15	0.40275	1074.961	0.099
308.15	0.44866	1080.225	0.105
308.15	0.48865	1084.374	0.11
308.15	0.56012	1091.281	0.119
308.15	0.5916	1094.095	0.123
308.15	0.66739	1100.241	0.133
308.15	0.70657	1103.199	0.138
308.15	0.74953	1106.148	0.144
308.15	0.79312	1109.089	0.15
308.15	0.86007	1113.292	0.16
308.15	0.89965	1115.655	0.166
308.15	0.94803	1118.381	0.173
308.15	0.97533	1119.882	0.178
308.15	0.98472	1120.392	0.179
308.15	0.98967	1120.663	0.18
308.15	0.99592	1121.008	0.189
308.15	1	1121.225	0.181
323.15	0	988.03	0.049
323.15	0.00244	988.848	0.049
323.15	0.00515	989.627	0.049
323.15	0.0086	990.671	0.049
323.15	0.02032	994.128	0.047
323.15	0.03478	998.15	0.046
323.15	0.04976	1002.105	0.046
323.15	0.06674	1006.452	0.049
323.15	0.08229	1010.308	0.051
323.15	0.11706	1018.36	0.058
323.15	0.17451	1030.075	0.065
323.15	0.21686	1037.625	0.071
323.15	0.25571	1043.936	0.075
323.15	0.30264	1050.894	0.081
323.15	0.35096	1057.308	0.087
323.15	0.40275	1063.574	0.093
323.15	0.44866	1068.616	0.099
323.15	0.48865	1072.62	0.103
323.15	0.56012	1079.255	0.112
323.15	0.5916	1081.986	0.116
323.15	0.66739	1087.947	0.126
323.15	0.70657	1090.812	0.131
323.15	0.74953	1093.689	0.137
323.15	0.79312	1096.556	0.143
323.15	0.86007	1100.665	0.152
323.15	0.89965	1102.975	0.158
323.15	0.94803	1105.646	0.165
323.15	0.97533	1107.127	0.169
323.15	0.98472	1107.622	0.171
323.15	0.98967	1107.905	0.172
323.15	0.99592	1108.243	0.181
323.15	1	1108.459	0.173
333.15	0	983.191	0.052
333.15	0.00244	983.879	0.052
333.15	0.00515	984.704	0.052
333.15	0.0086	985.696	0.051
333.15	0.02032	988.955	0.05
333.15	0.03478	992.755	0.048
333.15	0.04976	996.5	0.047
333.15	0.06674	1000.6	0.046
333.15	0.08229	1004.201	0.048
333.15	0.11706	1011.84	0.055
333.15	0.17451	1023.192	0.062
333.15	0.21686	1030.562	0.067
333.15	0.25571	1036.753	0.072
333.15	0.30264	1043.425	0.077
333.15	0.35096	1049.668	0.083
333.15	0.40275	1055.762	0.089
333.15	0.44866	1060.676	0.094
333.15	0.48865	1064.58	0.099
333.15	0.56012	1071.15	0.108
333.15	0.5916	1073.783	0.112
333.15	0.66739	1079.634	0.121
333.15	0.70657	1082.461	0.126
333.15	0.74953	1085.283	0.132
333.15	0.79312	1088.108	0.138
333.15	0.86007	1092.165	0.147
333.15	0.89965	1094.456	0.153
333.15	0.94803	1097.095	0.16
333.15	0.97533	1098.557	0.164
333.15	0.98472	1099.054	0.165
333.15	0.98967	1099.325	0.166
333.15	0.99592	1099.677	0.176
333.15	1	1099.88	0.168
