Measured thermophysical data. Bubble Point Measurements of Neopentane + Ethane Mixtures
Source: J. Chem. Eng. Data, 2019, 10.1021/acs.jced.8b01106
Compound 1: 2,2-dimethylpropane, C5H12, InChI=1S/C5H12/c1-5(2,3)4/h1-4H3
Compound 2: ethane, C2H6, InChI=1S/C2H6/c1-2/h1-2H3

System: 2,2-dimethylpropane + ethane; phases: Liquid, Gas
Property: Vapor or sublimation pressure, kPa (Liquid); method: Closed cell (Static) method
Mole fraction of 2,2-dimethylpropane	Temperature, K	Vapor or sublimation pressure, kPa	uncertainty
0.762	270.37	479.439	136.694
0.762	275.34	537.344	150.982
0.762	280.33	599.863	167.526
0.762	285.29	666.922	184.637
0.762	285.29	665.415	184.79
0.762	290.27	737.313	203.212
0.762	295.24	814.672	223.344
0.762	300.23	897.821	241.183
0.762	300.22	892.703	241.685
0.762	305.19	980.425	262.548
0.762	310.18	1074.351	283.533
0.762	315.17	1173.867	306.264
0.762	320.16	1279.351	328.936
0.762	325.13	1377.977	354.538
0.762	330.12	1494.848	375.57
0.762	335.11	1618.291	400.921
0.762	335.12	1618.703	400.916
0.762	340.11	1746.936	19.391
0.762	345.1	1884.778	405.278
0.762	350.1	2026.941	408.279
0.762	350.11	2022.479	408.754
0.762	355.09	2172.415	418.33
0.762	360.1	2327.44	584.562
0.762	365.09	2728.941	799.425
0.52	265.35	824.56	10.436
0.52	270.33	925.49	11.48
0.52	275.31	1031.65	12.64
0.52	280.31	1148.53	13.936
0.52	285.28	1271.01	15.308
0.52	290.28	1403.75	16.772
0.52	295.27	1545.02	18.374
0.52	300.22	1685.62	19.881
0.52	305.19	1841.82	21.645
0.52	310.18	2002.57	23.487
0.52	315.16	2176.27	25.388
0.52	320.15	2351.67	27.365
0.52	325.14	2542.47	29.521
0.52	330.13	2724.29	31.518
0.52	335.12	2930.04	34.316
0.261	265.35	1342.512	15.194
0.261	270.32	1509.387	16.919
0.261	275.3	1689.529	18.818
0.261	280.31	1881.831	20.829
0.261	285.29	2088.632	23.017
0.261	290.31	2304.896	25.352
0.261	295.29	2538.386	27.808
0.261	300.22	2778.295	30.364
0.261	305.19	3037.882	33.082
0.261	310.18	3300.838	35.938
0.261	315.17	3587.441	39
0.261	320.15	3869.803	41.91
0.261	325.14	4182.447	45.29
0.261	330.13	4476.076	48.523
0.261	335.12	4973.519	53.643
0.261	340.1	5060.384	54.447
