Measured thermophysical data. Mean Activity Coefficients of NaCl in the NaCl-SrCl2-H2O Ternary System at 308 K by EMF Method
Source: J. Chem. Eng. Data, 2019, 10.1021/acs.jced.8b00491
Compound 1: sodium chloride, ClNa, InChI=1S/ClH.Na/h1H;/q;+1/p-1, purity 99.8%
Compound 2: strontium chloride, Cl2Sr, InChI=1S/2ClH.Sr/h2*1H;/q;;+2/p-2, purity 99.8%
Compound 3: water, H2O, InChI=1S/H2O/h1H2, purity 99.9%

System: sodium chloride + strontium chloride + water; phases: Liquid
Fixed: Temperature, K = 308
Fixed: Pressure, kPa = 94.77
Property: Mean ionic activity coefficient of sodium chloride (Liquid); method: potentiometry
Molality, mol/kg of sodium chloride	Molality, mol/kg of strontium chloride	Mean ionic activity coefficient of sodium chloride	uncertainty
0.0101	0	0.9523	0.08
0.0079	0.0007	0.9337	0.08
0.006	0.0013	0.8807	0.08
0.0039	0.002	0.8449	0.08
0.0019	0.0026	0.8214	0.08
0.05	0	0.9032	0.08
0.0399	0.0033	0.8778	0.08
0.0301	0.0066	0.8334	0.08
0.0199	0.01	0.8076	0.08
0.01	0.0133	0.7912	0.08
0.1001	0	0.8596	0.08
0.0799	0.0066	0.827	0.08
0.0602	0.0133	0.7892	0.08
0.04	0.02	0.7621	0.08
0.02	0.0266	0.7578	0.08
0.2	0	0.8085	0.08
0.16	0.0133	0.7865	0.08
0.1198	0.0266	0.7596	0.08
0.0799	0.04	0.7377	0.08
0.0399	0.0534	0.7295	0.08
0.2997	0	0.7621	0.08
0.2399	0.02	0.7535	0.08
0.1799	0.04	0.727	0.08
0.1198	0.0599	0.7107	0.08
0.06	0.08	0.7035	0.08
0.4995	0	0.7221	0.08
0.3998	0.0334	0.7115	0.08
0.2999	0.0666	0.6873	0.08
0.1998	0.1001	0.6766	0.08
0.1002	0.1332	0.6674	0.08
0.5993	0	0.6961	0.08
0.4798	0.04	0.6703	0.08
0.3596	0.0799	0.6518	0.08
0.2399	0.1199	0.6363	0.08
0.1202	0.1599	0.6337	0.08
0.6995	0	0.6591	0.08
0.5587	0.0466	0.6361	0.08
0.4195	0.0933	0.6116	0.08
0.2798	0.1399	0.5939	0.08
0.1399	0.1865	0.5878	0.08
0.7996	0	0.6385	0.08
0.6386	0.0531	0.6083	0.08
0.4795	0.1066	0.5848	0.08
0.3193	0.1598	0.5717	0.08
0.159	0.2132	0.5619	0.08
0.899	0	0.6194	0.08
0.7173	0.0597	0.5918	0.08
0.5396	0.12	0.569	0.08
0.3599	0.18	0.5586	0.08
0.18	0.2399	0.5509	0.08
0.9997	0	0.5963	0.08
0.7996	0.0666	0.5736	0.08
0.5995	0.1333	0.5491	0.08
0.3996	0.1999	0.5386	0.08
0.1999	0.2666	0.5287	0.08

System: sodium chloride + water; phases: Liquid
Fixed: Temperature, K = 308
Fixed: Pressure, kPa = 100
Property: Activity coefficient of sodium chloride (Liquid); method: Calculated from EMF cell potential
Molality, mol/kg of sodium chloride	Activity coefficient of sodium chloride	uncertainty
0.0101	0.9523	0.082
0.05	0.9032	0.0822
0.1001	0.8596	0.0823
0.2	0.8085	0.0824
0.2997	0.7621	0.0825
0.4995	0.7221	0.0826
0.5993	0.6961	0.0827
0.6995	0.6591	0.0828
0.7996	0.6385	0.0828
0.899	0.6194	0.0829
0.9997	0.5963	0.083
