Measured thermophysical data. Accurate Density Measurements on Ternary Mixtures (Carbon Dioxide + Nitrogen + Argon) at Temperatures from (323.15 to 423.15) K with Pressures from (3 to 31) MPa using a Single-Sinker Densimeter
Source: J. Chem. Eng. Data, 2015, 10.1021/acs.jced.5b00625
Compound 1: carbon dioxide, CO2, InChI=1S/CO2/c2-1-3, purity 99.9995%
Compound 2: nitrogen, N2, InChI=1S/N2/c1-2, purity 99.9999%
Compound 3: argon, Ar, InChI=1S/Ar, purity 99.9999%

System: carbon dioxide + argon + nitrogen; phases: Gas
Property: Mass density, kg/m3 (Gas); method: Buoyancy - hydrostatic balance with magnetic suspension - one sinker
Pressure, kPa	Temperature, K	Mole fraction of carbon dioxide	Mole fraction of nitrogen	Mass density, kg/m3	uncertainty
2981.7	323.194	0.9	0.05	53.258	0.105
4982.7	323.192	0.9	0.05	97.439	0.163
6979	323.187	0.9	0.05	152.258	0.254
8973.2	323.211	0.9	0.05	224.124	0.471
10968.6	323.178	0.9	0.05	321.525	0.953
12965.8	323.156	0.9	0.05	435.991	1.545
14963.9	323.186	0.9	0.05	532.421	1.62
16961.5	323.21	0.9	0.05	600.95	1.528
18961.1	323.208	0.9	0.05	650.492	1.393
20962.5	323.188	0.9	0.05	688.379	1.333
22960.6	323.21	0.9	0.05	718.489	1.246
24959.4	323.195	0.9	0.05	743.731	1.214
26957.5	323.203	0.9	0.05	765.242	1.171
28955.7	323.189	0.9	0.05	784.142	1.197
30950.7	323.14	0.9	0.05	801.107	1.147
2983.8	348.158	0.9	0.05	48.116	0.1
4981.9	348.178	0.9	0.05	85.47	0.14
6980.6	348.195	0.9	0.05	128.168	0.2
8974.6	348.185	0.9	0.05	177.446	0.288
10969.6	348.189	0.9	0.05	234.503	0.424
12966.9	348.223	0.9	0.05	298.981	0.599
14964.1	348.222	0.9	0.05	367.686	0.803
16963.8	348.191	0.9	0.05	434.488	0.984
18961.9	348.188	0.9	0.05	493.689	1.063
20971.5	348.166	0.9	0.05	544.109	1.112
22960.7	348.124	0.9	0.05	585.877	1.078
24961.1	348.172	0.9	0.05	620.769	1.078
26965.3	348.169	0.9	0.05	650.73	1.063
28954.9	348.182	0.9	0.05	676.399	1.102
30951.6	348.211	0.9	0.05	698.964	1.069
2984.5	373.192	0.9	0.05	44.033	0.09
4981.3	373.206	0.9	0.05	76.841	0.118
6976.9	373.153	0.9	0.05	112.757	0.164
8974.9	373.164	0.9	0.05	152.135	0.216
10969.7	373.166	0.9	0.05	195.039	0.291
12968.1	373.145	0.9	0.05	241.384	0.381
14964.5	373.165	0.9	0.05	290.096	0.485
16962.9	373.21	0.9	0.05	339.657	0.598
18962.7	373.144	0.9	0.05	388.502	0.682
20964	373.206	0.9	0.05	434.148	0.759
22960	373.171	0.9	0.05	476.123	0.83
24963.1	373.156	0.9	0.05	513.914	0.843
26956.3	373.141	0.9	0.05	547.435	0.895
28963.9	373.192	0.9	0.05	577.252	0.885
30950.3	373.16	0.9	0.05	603.883	0.925
2986.7	398.217	0.9	0.05	40.711	0.083
4984.5	398.211	0.9	0.05	70.238	0.106
6980.3	398.193	0.9	0.05	101.687	0.137
8976.1	398.186	0.9	0.05	135.145	0.177
10971.9	398.167	0.9	0.05	170.58	0.236
12970.6	398.167	0.9	0.05	207.803	0.285
14968.2	398.178	0.9	0.05	246.325	0.36
16967.3	398.197	0.9	0.05	285.568	0.416
18965.9	398.191	0.9	0.05	324.752	0.503
20969	398.176	0.9	0.05	363.178	0.561
22966.5	398.205	0.9	0.05	399.808	0.616
24962.7	398.196	0.9	0.05	434.409	0.668
26960.1	398.211	0.9	0.05	466.609	0.716
28957.5	398.19	0.9	0.05	496.469	0.76
30953	398.178	0.9	0.05	523.915	0.751
2994.3	423.117	0.9	0.05	38.004	0.077
4982.8	423.119	0.9	0.05	64.842	0.098
6980.8	423.128	0.9	0.05	93.086	0.124
8975	423.117	0.9	0.05	122.541	0.159
10971.7	423.107	0.9	0.05	153.214	0.195
12968.9	423.123	0.9	0.05	184.877	0.234
14967.3	423.116	0.9	0.05	217.328	0.294
16967	423.139	0.9	0.05	250.186	0.337
18968.1	423.176	0.9	0.05	283.056	0.381
20966.2	423.183	0.9	0.05	315.541	0.424
22966.8	423.186	0.9	0.05	347.3	0.499
24963.2	423.184	0.9	0.05	377.891	0.542
26962.4	423.198	0.9	0.05	407.15	0.583
28956	423.186	0.9	0.05	434.872	0.622
30953.6	423.195	0.9	0.05	461.033	0.659
2979.6	323.185	0.95	0.04	54.08	0.119
4982.8	323.182	0.95	0.04	100.144	0.171
6978.9	323.183	0.95	0.04	159.616	0.669
8972	323.175	0.95	0.04	244.568	2.434
10968.8	323.167	0.95	0.04	375.296	4.665
12965.7	323.188	0.95	0.04	516.776	3.407
14964.3	323.184	0.95	0.04	607.677	2.678
16966.9	323.19	0.95	0.04	664.847	5.518
18963	323.198	0.95	0.04	705.14	7.4
20964.1	323.199	0.95	0.04	736.284	8.651
22963.3	323.181	0.95	0.04	761.704	9.554
24961.6	323.187	0.95	0.04	783.039	10.258
26958.9	323.183	0.95	0.04	801.57	10.83
28955.5	323.175	0.95	0.04	817.986	11.297
30950.6	323.12	0.95	0.04	832.92	11.523
2984.9	348.217	0.95	0.04	48.816	0.103
4985.5	348.195	0.95	0.04	87.381	0.178
6980.2	348.196	0.95	0.04	132.201	0.244
8973.8	348.16	0.95	0.04	185.567	0.343
10969.8	348.156	0.95	0.04	249.68	0.658
12966.9	348.196	0.95	0.04	324.501	1.116
14965.1	348.195	0.95	0.04	404.366	1.606
16962.3	348.19	0.95	0.04	478.045	2.608
18962.6	348.187	0.95	0.04	539.173	4.137
20962.8	348.177	0.95	0.04	588.1	5.675
22964.5	348.189	0.95	0.04	627.462	6.973
24960.6	348.227	0.95	0.04	659.694	8.026
26958.2	348.173	0.95	0.04	687.343	8.867
28955.6	348.165	0.95	0.04	710.99	9.559
30951	348.17	0.95	0.04	731.66	9.838
2981.3	373.16	0.95	0.04	44.555	0.093
4983.8	373.165	0.95	0.04	78.266	0.179
6981	373.2	0.95	0.04	115.488	0.323
8972.7	373.166	0.95	0.04	156.839	0.503
10969.1	373.151	0.95	0.04	202.791	0.779
12967	373.156	0.95	0.04	253.145	1.212
14965.2	373.166	0.95	0.04	306.812	1.81
16964	373.167	0.95	0.04	361.55	2.527
18962.1	373.106	0.95	0.04	414.69	3.349
20964.5	373.157	0.95	0.04	463.318	4.278
22961.1	373.187	0.95	0.04	506.593	5.264
24959.4	373.179	0.95	0.04	544.704	6.215
26959	373.185	0.95	0.04	577.986	7.084
28954.3	373.159	0.95	0.04	607.237	7.236
29926.8	373.164	0.95	0.04	620.187	11.011
2985.8	398.221	0.95	0.04	41.17	0.097
4981.5	398.197	0.95	0.04	71.26	0.165
6981.7	398.188	0.95	0.04	103.674	0.344
8976.2	398.174	0.95	0.04	138.405	0.565
10970.7	398.133	0.95	0.04	175.543	0.843
12968.5	398.185	0.95	0.04	214.869	1.208
14967.2	398.188	0.95	0.04	255.989	1.676
16967.6	398.179	0.95	0.04	298.124	2.251
18964.8	398.209	0.95	0.04	340.028	2.906
20966.2	398.169	0.95	0.04	381.054	3.609
22962.5	398.171	0.95	0.04	419.843	4.359
24960.1	398.167	0.95	0.04	456.021	5.11
26962.9	398.174	0.95	0.04	489.349	5.846
28955.3	398.198	0.95	0.04	519.572	6.553
30950.4	398.204	0.95	0.04	547.177	5.903
2987	423.151	0.95	0.04	38.329	0.105
4983.9	423.144	0.95	0.04	65.754	0.14
6977.4	423.134	0.95	0.04	94.602	0.356
8973	423.129	0.95	0.04	124.971	0.633
10969.8	423.208	0.95	0.04	156.723	0.973
12970.1	423.258	0.95	0.04	189.756	1.39
14966.2	423.188	0.95	0.04	223.792	1.884
16962.1	423.195	0.95	0.04	258.339	2.451
18965.6	423.214	0.95	0.04	293.083	3.073
20964.9	423.264	0.95	0.04	327.295	3.724
22960.9	423.22	0.95	0.04	360.723	4.384
24958.8	423.201	0.95	0.04	392.827	5.025
26959.3	423.198	0.95	0.04	423.342	5.641
28955.6	423.195	0.95	0.04	452.019	6.23
30950.8	423.139	0.95	0.04	478.983	6.501
