Measured thermophysical data. Vapor-Phase (p, , T, x) Behavior and Virial Coefficients for the Binary Mixture (0.05 Argon + 0.95 Carbon Dioxide) over the Temperature Range from (273.15 to 323.15) K with Pressures up to 9 MPa
Source: J. Chem. Eng. Data, 2016, 10.1021/acs.jced.6b00120
Compound 1: argon, Ar, InChI=1S/Ar, purity 99.999%
Compound 2: carbon dioxide, CO2, InChI=1S/CO2/c2-1-3, purity 99.9995%

System: argon + carbon dioxide; phases: Gas
Fixed: Mole fraction of argon = 0.05049
Property: Mass density, kg/m3 (Gas); method: Buoyancy - hydrostatic balance with magnetic suspension - two sinkers
Temperature, K	Pressure, kPa	Mass density, kg/m3	uncertainty
273.15	2948.15	72.995	0.0166
273.15	2521.58	59.4639	0.0136
273.15	2054.59	46.254	0.0108
273.15	1045.68	21.6518	0.0059
273.15	526.54	10.5097	0.0037
283.15	4058.42	105.393	0.024
283.15	3054.11	70.7119	0.0162
283.15	2045.59	43.428	0.0102
283.15	1034.04	20.4562	0.0056
283.15	487.17	9.32016	0.0035
293.15	5530.47	157.768	0.038
293.15	5045.18	133.561	0.031
293.15	4032.74	95.0463	0.0217
293.15	3031.07	65.5032	0.0149
293.15	2033.46	40.9568	0.0097
293.15	1009.89	19.1313	0.0053
293.15	501.22	9.23865	0.00349
308.15	7793.44	248.529	0.066
308.15	7418.35	221.117	0.056
308.15	6991.78	195.441	0.047
308.15	6005.31	149.364	0.035
308.15	5012.95	113.924	0.026
308.15	4005.82	84.4871	0.019
308.15	3004.53	59.5083	0.0135
308.15	2002.49	37.5504	0.009
308.15	996.02	17.7876	0.0051
308.15	493.91	8.62503	0.00341
323.15	8987.97	249.635	0.061
323.15	8533.45	226.233	0.056
323.15	8023.8	202.754	0.049
323.15	7032.66	163.762	0.038
323.15	6032.43	130.908	0.03
323.15	5045.62	103.062	0.023
323.15	4030.33	77.9178	0.0174
323.15	3012.39	55.4385	0.0126
323.15	2009.83	35.3997	0.0085
323.15	1030.15	17.4463	0.005
323.15	521.21	8.65936	0.00341
