Measured thermophysical data. The Solubility of Carbon Dioxide and Density for Binary Mixtures of 1-Butyl-3-methylimidazolium Acetate and 1-Butyl-3-methylimidazolium Tetrafluoroborate
Source: J. Chem. Eng. Data, 2019, 10.1021/acs.jced.8b00784
Compound 1: 1-butyl-3-methylimidazolium acetate, C10H18N2O2, InChI=1S/C8H15N2.C2H4O2/c1-3-4-5-10-7-6-9(2)8-10;1-2(3)4/h6-8H,3-5H2,1-2H3;1H3,(H,3,4)/q+1;/p-1, purity 96%
Compound 2: 1-butyl-3-methylimidazolium tetrafluoroborate, C8H15BF4N2, InChI=1S/C8H15N2.BF4/c1-3-4-5-10-7-6-9(2)8-10;2-1(3,4)5/h6-8H,3-5H2,1-2H3;/q+1;-1, purity 97%
Compound 3: carbon dioxide, CO2, InChI=1S/CO2/c2-1-3, purity 99.95%

System: 1-butyl-3-methylimidazolium acetate; phases: Liquid
Fixed: Pressure, kPa = 100
Property: Mass density, kg/m3 (Liquid); method: Vibrating tube method
Temperature, K	Mass density, kg/m3	uncertainty
308.15	1043.1	6.9
318.15	1037	6.9
298.15	1052.1	6.9

System: 1-butyl-3-methylimidazolium tetrafluoroborate; phases: Liquid
Fixed: Pressure, kPa = 100
Property: Mass density, kg/m3 (Liquid); method: Vibrating tube method
Temperature, K	Mass density, kg/m3	uncertainty
308.15	1193	6.5
318.15	1186.4	6.5
298.15	1201.2	6.5

System: 1-butyl-3-methylimidazolium tetrafluoroborate + 1-butyl-3-methylimidazolium acetate + carbon dioxide; phases: Liquid, Gas
Property: Mole fraction of carbon dioxide (Liquid); method: Phase equilibration
Temperature, K	Solvent: Mass fraction of 1-butyl-3-methylimidazolium tetrafluoroborate	Pressure, kPa	Mole fraction of carbon dioxide	uncertainty
298.15	0	99	0.273	0.03
298.15	0	983	0.374	0.03
298.15	0	2147	0.458	0.03
298.15	0	3512	0.521	0.031
298.15	0	4785	0.558	0.03
298.15	0.25	99	0.21	0.03
298.15	0.25	1018	0.315	0.03
298.15	0.25	2494	0.416	0.03
298.15	0.25	3681	0.488	0.03
298.15	0.25	4509	0.525	0.03
298.15	0.5	96	0.138	0.03
298.15	0.5	1134	0.279	0.03
298.15	0.5	2307	0.384	0.03
298.15	0.5	3522	0.47	0.03
298.15	0.5	4665	0.496	0.03
298.15	0.75	102	0.081	0.03
298.15	0.75	1112	0.233	0.03
298.15	0.75	2085	0.334	0.03
298.15	0.75	3463	0.44	0.03
298.15	0.75	4695	0.481	0.03
298.15	1	101	0.015	0.015
298.15	1	1059	0.182	0.03
298.15	1	2228	0.31	0.03
298.15	1	3207	0.41	0.03
298.15	1	4719	0.467	0.03
308.15	0	97	0.236	0.03
308.15	0	871	0.323	0.03
308.15	0	2427	0.417	0.03
308.15	0	3503	0.452	0.03
308.15	0	4409	0.511	0.03
308.15	0.25	98	0.174	0.03
308.15	0.25	1331	0.288	0.03
308.15	0.25	2410	0.377	0.03
308.15	0.25	3196	0.406	0.03
308.15	0.25	4472	0.469	0.03
308.15	0.5	100	0.121	0.03
308.15	0.5	1355	0.243	0.03
308.15	0.5	2574	0.349	0.03
308.15	0.5	3608	0.406	0.03
308.15	0.5	4823	0.468	0.03
308.15	0.75	99.2	0.073	0.03
308.15	0.75	1406	0.211	0.03
308.15	0.75	2578	0.308	0.03
308.15	0.75	3744	0.369	0.03
308.15	0.75	4565	0.433	0.03
308.15	1	98	0.009	0.009
308.15	1	1443	0.168	0.03
308.15	1	2860	0.285	0.03
308.15	1	3620	0.334	0.03
308.15	1	4910	0.421	0.03
318.15	0	108	0.176	0.03
318.15	0	1107	0.26	0.03
318.15	0	2614	0.349	0.03
318.15	0	3742	0.418	0.03
318.15	0	4831	0.445	0.03
318.15	0.25	99	0.13	0.03
318.15	0.25	1427	0.238	0.03
318.15	0.25	2506	0.294	0.03
318.15	0.25	3611	0.375	0.03
318.15	0.25	4665	0.408	0.03
318.15	0.5	107	0.088	0.03
318.15	0.5	1092	0.167	0.03
318.15	0.5	2635	0.28	0.03
318.15	0.5	3419	0.335	0.03
318.15	0.5	4540	0.383	0.03
318.15	0.75	98	0.042	0.03
318.15	0.75	1236	0.136	0.03
318.15	0.75	2304	0.235	0.03
318.15	0.75	3499	0.291	0.03
318.15	0.75	4881	0.377	0.03
318.15	1	118	0.006	0.006
318.15	1	1131	0.091	0.03
318.15	1	2428	0.208	0.03
318.15	1	3610	0.282	0.03
318.15	1	4667	0.341	0.03

System: 1-butyl-3-methylimidazolium tetrafluoroborate + 1-butyl-3-methylimidazolium acetate; phases: Liquid
Fixed: Pressure, kPa = 100
Property: Mass density, kg/m3 (Liquid); method: Vibrating tube method
Temperature, K	Mole fraction of 1-butyl-3-methylimidazolium tetrafluoroborate	Mass density, kg/m3	uncertainty
298.15	0.1	1066.3	7.4
298.15	0.2	1080.4	7.4
298.15	0.3	1094.3	7.3
298.15	0.4	1107.9	7.3
298.15	0.5	1122.1	7.3
298.15	0.6	1137	7.3
298.15	0.7	1152.6	7.3
298.15	0.8	1168.1	7.3
298.15	0.9	1184.2	7.3
308.15	0	1043.1	6.9
308.15	0.1	1057.2	7.4
308.15	0.2	1071.5	7.4
308.15	0.3	1085.6	7.3
308.15	0.4	1099.2	7.3
308.15	0.5	1113.3	7.3
308.15	0.6	1128.4	7.3
308.15	0.7	1144.2	7.3
308.15	0.8	1159.7	7.3
308.15	0.9	1175.9	7.3
308.15	1	1193	6.5
318.15	0	1037	6.9
318.15	0.1	1051.1	7.4
318.15	0.2	1065.3	7.4
318.15	0.3	1079.3	7.3
318.15	0.4	1092.9	7.3
318.15	0.5	1107.1	7.3
318.15	0.6	1122.1	7.3
318.15	0.7	1137.7	7.3
318.15	0.8	1153.4	7.3
318.15	0.9	1169.2	7.3
318.15	1	1186.4	6.5
298.15	0	1052.1	6.9
298.15	1	1201.2	6.5

System: 1-butyl-3-methylimidazolium acetate + carbon dioxide; phases: Liquid, Gas
Property: Boiling temperature at pressure P, K (Liquid); method: Phase equilibration
Mole fraction of carbon dioxide	Pressure, kPa	Boiling temperature at pressure P, K	uncertainty
0.273	99	298.15	8.15
0.374	983	298.15	6.51
0.458	2147	298.15	6.08
0.521	3512	298.15	5.09
0.558	4785	298.15	5.58
0.236	97	308.15	6.04
0.323	871	308.15	6.51
0.417	2427	308.15	4.05
0.452	3503	308.15	4.75
0.511	4409	308.15	4.34
0.176	108	318.15	4.94
0.26	1107	318.15	3.11
0.349	2614	318.15	4.13
0.418	3742	318.15	5.76
0.445	4831	318.15	5.79

System: 1-butyl-3-methylimidazolium tetrafluoroborate + carbon dioxide; phases: Liquid, Gas
Property: Boiling temperature at pressure P, K (Liquid); method: Phase equilibration
Mole fraction of carbon dioxide	Pressure, kPa	Boiling temperature at pressure P, K	uncertainty
0.015	101	298.15	25.19
0.182	1059	298.15	6.34
0.31	2228	298.15	5.58
0.41	3207	298.15	3.36
0.467	4719	298.15	6.21
0.009	98	308.15	14.08
0.168	1443	308.15	6.49
0.285	2860	308.15	4.5
0.334	3620	308.15	6.49
0.421	4910	308.15	6.25
0.006	118	318.15	10.4
0.091	1131	318.15	6.51
0.208	2428	318.15	5.83
0.282	3610	318.15	6.82
0.341	4667	318.15	6.08
