Measured thermophysical data. Liquid-Liquid-Solid Equilibria in the Ternary System Water-Phosphoric Acid-Cyclohexane at 25 and 35 deg.C: Stability Domain of Hemihydrate and Anhydrous Phosphoric Acid
Source: J. Chem. Eng. Data, 2019, 10.1021/acs.jced.8b00666
Compound 1: water, H2O, InChI=1S/H2O/h1H2, purity 99.9%
Compound 2: cyclohexane, C6H12, InChI=1S/C6H12/c1-2-4-6-5-3-1/h1-6H2, purity 99%
Compound 3: phosphoric acid, H3O4P, InChI=1S/H3O4P/c1-5(2,3)4/h(H3,1,2,3,4), purity 99%
Compound 4: phosphoric acid hemihydrate, H8O9P2, InChI=1S/2H3O4P.H2O/c2*1-5(2,3)4;/h2*(H3,1,2,3,4);1H2, purity 99%

System: cyclohexane; phases: Crystal, Liquid, Air at 1 atmosphere
Property: Normal melting temperature, K (Crystal); method: Heating/Cooling curves
Normal melting temperature, K	uncertainty
279.95	0.2

System: phosphoric acid hemihydrate; phases: Crystal, Liquid, Air at 1 atmosphere
Property: Normal melting temperature, K (Crystal); method: Heating/Cooling curves
Normal melting temperature, K	uncertainty
302.4	0.21

System: water + cyclohexane + phosphoric acid; phases: Liquid mixture 1, Liquid mixture 2
Fixed: Pressure, kPa = 100
Property: Mass fraction of phosphoric acid (Liquid mixture 1); method: Titration method
Temperature, K	Mass fraction of water	Mass fraction of phosphoric acid	uncertainty
298.15	0.95	0.0348	0.0082
298.15	0.9132	0.0683	0.0088
298.15	0.8529	0.1327	0.0093
298.15	0.7904	0.1922	0.01
298.15	0.7345	0.2486	0.0111
298.15	0.6841	0.3027	0.0121
298.15	0.6343	0.353	0.013
298.15	0.5853	0.3992	0.0141
298.15	0.5425	0.4454	0.0152
298.15	0.5003	0.4879	0.0163
298.15	0.4602	0.5284	0.0158
298.15	0.4209	0.5652	0.015
298.15	0.3857	0.6033	0.0141
298.15	0.3503	0.6364	0.0133
298.15	0.3183	0.6713	0.0126
298.15	0.2868	0.703	0.012
298.15	0.2567	0.7333	0.0114
298.15	0.228	0.7623	0.0109
298.15	0.2004	0.7901	0.0104
298.15	0.1736	0.8148	0.01
298.15	0.1483	0.8403	0.0096
298.15	0.1096	0.875	0.0092
308.15	0.9448	0.0412	0.0088
308.15	0.9228	0.0642	0.0086
308.15	0.8609	0.1241	0.0091
308.15	0.7318	0.2512	0.0111
308.15	0.6579	0.3281	0.0127
308.15	0.6342	0.3522	0.013
308.15	0.5828	0.401	0.0142
308.15	0.5298	0.4572	0.0156
308.15	0.4962	0.4926	0.0163
308.15	0.4397	0.5453	0.0154
308.15	0.376	0.612	0.0139
308.15	0.3449	0.6421	0.0132
308.15	0.3287	0.6602	0.0129
308.15	0.274	0.7151	0.0117
308.15	0.2568	0.732	0.0113
308.15	0.235	0.7529	0.011
308.15	0.1876	0.8004	0.0104
308.15	0.1772	0.8114	0.01
308.15	0.1367	0.8517	0.0093
308.15	0.0596	0.925	0.0088
308.15	0.0058	0.985	0.0088

System: water + cyclohexane + phosphoric acid; phases: Liquid mixture 2, Liquid mixture 1
Fixed: Pressure, kPa = 100
Property: Mass fraction of phosphoric acid (Liquid mixture 2); method: Titration method
Temperature, K	Mass fraction of water	Mass fraction of phosphoric acid	uncertainty
298.15	0.0079	0.002	0.002
298.15	0.0062	0.0018	0.0018
298.15	0.0067	0.0012	0.0012
298.15	0.007	0.002	0.002
298.15	0.006	0.001	0.001
308.15	0.008	0.001	0.001
308.15	0.0078	0.001	0.001
308.15	0.0075	0.001	0.001
308.15	0.0074	0.0009	0.0009
308.15	0.0071	0.0008	0.0008

System: water + cyclohexane + phosphoric acid; phases: Liquid mixture 3, Liquid mixture 2
Fixed: Temperature, K = 308.15
Fixed: Pressure, kPa = 100
Property: Mass fraction of phosphoric acid (Liquid mixture 3); method: Titration method
Mass fraction of water	Mass fraction of phosphoric acid	uncertainty
0.0596	0.925	0.0092
0.01	0.98	0.009

System: water + cyclohexane + phosphoric acid; phases: Liquid mixture 1, Crystal of intercomponent compound 1, Liquid mixture 2
Property: Mass fraction of phosphoric acid (Liquid mixture 1); method: Titration method
Temperature, K	Pressure, kPa	Mass fraction of phosphoric acid	uncertainty
298.15	100	0.875	0.0063

System: water + cyclohexane + phosphoric acid; phases: Liquid mixture 3, Crystal of intercomponent compound 1, Liquid mixture 2
Property: Mass fraction of phosphoric acid (Liquid mixture 3); method: Titration method
Temperature, K	Pressure, kPa	Mass fraction of phosphoric acid	uncertainty
298.15	100	0.925	0.0063

System: water + cyclohexane + phosphoric acid; phases: Liquid mixture 3, Crystal, Liquid mixture 2
Fixed: Pressure, kPa = 100
Property: Mass fraction of phosphoric acid (Liquid mixture 3); method: Titration method
Temperature, K	Mass fraction of phosphoric acid	uncertainty
298.15	0.98	0.0064
308.15	0.985	0.0064

System: water + cyclohexane + phosphoric acid; phases: Liquid mixture 2, Liquid mixture 1
Fixed: Pressure, kPa = 100
Property: Mass fraction of phosphoric acid (Liquid mixture 2); method: OTHER
Property: Mass fraction of phosphoric acid (Liquid mixture 1); method: OTHER
Property: Mass fraction of water (Liquid mixture 1); method: OTHER
Temperature, K	Mass fraction of water	Mass fraction of phosphoric acid	uncertainty	Mass fraction of phosphoric acid	uncertainty	Mass fraction of water	uncertainty
298.15	0.0075	0.01	0.01	0.102	0.009	0.8826	
298.15	0.003	0.011	0.006	0.211	0.01	0.773	
298.15	0.0028	0.0092	0.006	0.351	0.011	0.634	
298.15	0.002	0.009	0.006	0.451	0.013	0.5345	
308.15	0.008	0.01	0.01	0.101	0.009	0.883	
308.15	0.0045	0.0105	0.006	0.21	0.01	0.774	
308.15	0.0033	0.0097	0.006	0.361	0.011	0.624	
308.15	0.0027	0.0093	0.006	0.453	0.013	0.533	
