Measured thermophysical data. Thermodynamics of 1,3-dimethylurea in eight alcohols
Source: J. Chem. Eng. Data, 2016, 10.1021/acs.jced.5b00882
Compound 1: 1,3-dimethylurea, C3H8N2O, InChI=1S/C3H8N2O/c1-4-3(6)5-2/h1-2H3,(H2,4,5,6), purity 99.8%
Compound 2: methanol, CH4O, InChI=1S/CH4O/c1-2/h2H,1H3, purity 99.5%
Compound 3: ethanol, C2H6O, InChI=1S/C2H6O/c1-2-3/h3H,2H2,1H3, purity 99.5%
Compound 4: propan-1-ol, C3H8O, InChI=1S/C3H8O/c1-2-3-4/h4H,2-3H2,1H3, purity 99.5%
Compound 5: butan-1-ol, C4H10O, InChI=1S/C4H10O/c1-2-3-4-5/h5H,2-4H2,1H3, purity 99.5%
Compound 6: pentan-1-ol, C5H12O, InChI=1S/C5H12O/c1-2-3-4-5-6/h6H,2-5H2,1H3, purity 99.5%
Compound 7: hexan-1-ol, C6H14O, InChI=1S/C6H14O/c1-2-3-4-5-6-7/h7H,2-6H2,1H3, purity 99.5%
Compound 8: heptan-1-ol, C7H16O, InChI=1S/C7H16O/c1-2-3-4-5-6-7-8/h8H,2-7H2,1H3, purity 99.5%
Compound 9: octan-1-ol, C8H18O, InChI=1S/C8H18O/c1-2-3-4-5-6-7-8-9/h9H,2-8H2,1H3, purity 99.5%

System: 1,3-dimethylurea; phases: Crystal, Liquid, Air at 1 atmosphere
Property: Triple point temperature, K (Crystal); method: DSC
Triple point temperature, K	uncertainty
376.35	0.93

System: 1,3-dimethylurea; phases: Crystal, Liquid, Air at 1 atmosphere
Property: Molar enthalpy of transition or fusion, kJ/mol (Crystal); method: DSC
Molar enthalpy of transition or fusion, kJ/mol	uncertainty
12.76	0.39

System: methanol; phases: Liquid
Property: Mass density, kg/m3 (Liquid); method: Pycnometric method
Temperature, K	Pressure, kPa	Mass density, kg/m3	uncertainty
298.15	101.325	786.6	0.6

System: ethanol; phases: Liquid
Property: Mass density, kg/m3 (Liquid); method: Pycnometric method
Temperature, K	Pressure, kPa	Mass density, kg/m3	uncertainty
298.15	101.325	785.3	1.5

System: propan-1-ol; phases: Liquid
Property: Mass density, kg/m3 (Liquid); method: Pycnometric method
Temperature, K	Pressure, kPa	Mass density, kg/m3	uncertainty
298.15	101.325	799.7	1.5

System: butan-1-ol; phases: Liquid
Property: Mass density, kg/m3 (Liquid); method: Pycnometric method
Temperature, K	Pressure, kPa	Mass density, kg/m3	uncertainty
298.15	101.325	806	1.5

System: pentan-1-ol; phases: Liquid
Property: Mass density, kg/m3 (Liquid); method: Pycnometric method
Temperature, K	Pressure, kPa	Mass density, kg/m3	uncertainty
298.15	101.325	811.4	1.5

System: hexan-1-ol; phases: Liquid
Property: Mass density, kg/m3 (Liquid); method: Pycnometric method
Temperature, K	Pressure, kPa	Mass density, kg/m3	uncertainty
298.15	101.325	815.7	1.5

System: heptan-1-ol; phases: Liquid
Property: Mass density, kg/m3 (Liquid); method: Pycnometric method
Temperature, K	Pressure, kPa	Mass density, kg/m3	uncertainty
298.15	101.325	819.2	1.5

System: octan-1-ol; phases: Liquid
Property: Mass density, kg/m3 (Liquid); method: Pycnometric method
Temperature, K	Pressure, kPa	Mass density, kg/m3	uncertainty
298.15	101.325	821.6	1.5

System: methanol + 1,3-dimethylurea; phases: Liquid, Crystal
Fixed: Pressure, kPa = 101.3
Property: Mole fraction of 1,3-dimethylurea (Liquid); method: Titration method
Temperature, K	Mole fraction of 1,3-dimethylurea	uncertainty
288.15	0.384	0.015
293.15	0.413	0.017
298.15	0.448	0.018
303.15	0.49	0.02
308.15	0.53	0.021
313.15	0.571	0.023
318.15	0.627	0.025
323.15	0.674	0.027
328.15	0.719	0.029

System: pentan-1-ol + 1,3-dimethylurea; phases: Liquid, Crystal
Fixed: Pressure, kPa = 101.3
Property: Mole fraction of 1,3-dimethylurea (Liquid); method: Titration method
Temperature, K	Mole fraction of 1,3-dimethylurea	uncertainty
288.15	0.3	0.012
293.15	0.325	0.013
298.15	0.361	0.014
303.15	0.392	0.016
308.15	0.425	0.017
313.15	0.465	0.019
318.15	0.487	0.02
323.15	0.529	0.021
328.15	0.568	0.023

System: ethanol + 1,3-dimethylurea; phases: Liquid, Crystal
Fixed: Pressure, kPa = 101.3
Property: Mole fraction of 1,3-dimethylurea (Liquid); method: Titration method
Temperature, K	Mole fraction of 1,3-dimethylurea	uncertainty
288.15	0.336	0.013
293.15	0.359	0.014
298.15	0.396	0.016
303.15	0.438	0.018
308.15	0.468	0.019
313.15	0.526	0.021
318.15	0.57	0.023
323.15	0.621	0.025
328.15	0.666	0.027

System: 1,3-dimethylurea + hexan-1-ol; phases: Liquid, Crystal
Fixed: Pressure, kPa = 101.3
Property: Mole fraction of 1,3-dimethylurea (Liquid); method: Titration method
Temperature, K	Mole fraction of 1,3-dimethylurea	uncertainty
288.15	0.296	0.012
293.15	0.321	0.013
298.15	0.358	0.014
303.15	0.382	0.015
308.15	0.419	0.017
313.15	0.457	0.018
318.15	0.481	0.019
323.15	0.521	0.021
328.15	0.56	0.022

System: propan-1-ol + 1,3-dimethylurea; phases: Liquid, Crystal
Fixed: Pressure, kPa = 101.3
Property: Mole fraction of 1,3-dimethylurea (Liquid); method: Titration method
Temperature, K	Mole fraction of 1,3-dimethylurea	uncertainty
288.15	0.317	0.013
293.15	0.339	0.014
298.15	0.373	0.015
303.15	0.416	0.017
308.15	0.463	0.019
313.15	0.498	0.02
318.15	0.55	0.022
323.15	0.59	0.024
328.15	0.629	0.025

System: 1,3-dimethylurea + heptan-1-ol; phases: Liquid, Crystal
Fixed: Pressure, kPa = 101.3
Property: Mole fraction of 1,3-dimethylurea (Liquid); method: Titration method
Temperature, K	Mole fraction of 1,3-dimethylurea	uncertainty
288.15	0.277	0.011
293.15	0.32	0.013
298.15	0.345	0.014
303.15	0.376	0.015
308.15	0.417	0.017
313.15	0.444	0.018
318.15	0.474	0.019
323.15	0.507	0.02
328.15	0.544	0.022

System: butan-1-ol + 1,3-dimethylurea; phases: Liquid, Crystal
Fixed: Pressure, kPa = 101.3
Property: Mole fraction of 1,3-dimethylurea (Liquid); method: Titration method
Temperature, K	Mole fraction of 1,3-dimethylurea	uncertainty
288.15	0.308	0.012
293.15	0.328	0.013
298.15	0.369	0.015
303.15	0.407	0.016
308.15	0.434	0.017
313.15	0.471	0.019
318.15	0.518	0.021
323.15	0.568	0.023
328.15	0.615	0.025

System: 1,3-dimethylurea + octan-1-ol; phases: Liquid, Crystal
Fixed: Pressure, kPa = 101.3
Property: Mole fraction of 1,3-dimethylurea (Liquid); method: Titration method
Temperature, K	Mole fraction of 1,3-dimethylurea	uncertainty
288.15	0.242	0.01
293.15	0.268	0.011
298.15	0.303	0.012
303.15	0.331	0.013
308.15	0.373	0.015
313.15	0.403	0.016
318.15	0.444	0.018
323.15	0.479	0.019
328.15	0.519	0.021
