Measured thermophysical data. P-rho-T Data for 2-Butanol and tert-Butanol from (283.15 to 363.15) K and (303.15 to 363.15) at pressures up to 66 MPa
Source: J. Chem. Eng. Data, 2016, 10.1021/acs.jced.5b00934
Compound 1: butan-2-ol, C4H10O, InChI=1S/C4H10O/c1-3-4(2)5/h4-5H,3H2,1-2H3, purity 99%
Compound 2: 2-methylpropan-2-ol, C4H10O, InChI=1S/C4H10O/c1-4(2,3)5/h5H,1-3H3, purity 99.7%

System: butan-2-ol; phases: Liquid
Property: Mass density, kg/m3 (Liquid); method: Vibrating tube method
Temperature, K	Pressure, kPa	Mass density, kg/m3	uncertainty
323.16	83	780.1	0.8
343.15	90	760.2	0.8
358.15	94	744.2	0.8
298.15	96	802.3	0.8
313.15	97	789.4	0.8
328.15	97	775.5	0.8
303.15	98	798.2	0.8
288.15	99	810.8	0.8
293.15	99	806.7	0.8
308.15	99	793.9	0.8
283.15	99	814.7	0.8
338.15	99	765.5	0.8
348.15	99	755	0.8
363.15	99	738.7	0.8
333.15	100	770.5	0.8
353.15	101	749.7	0.8
318.15	102	784.8	0.8
308.15	284	794.1	0.8
318.15	288	785	0.8
303.15	290	798.3	0.8
343.15	290	760.5	0.8
298.15	291	802.5	0.8
338.15	292	765.7	0.8
348.15	293	755.2	0.8
288.15	298	811	0.8
293.16	304	806.8	0.8
283.15	306	814.8	0.8
353.15	309	749.9	0.8
323.16	310	780.3	0.8
358.15	317	744.5	0.8
328.16	325	775.7	0.8
313.15	331	789.6	0.8
363.15	349	739	0.8
333.15	350	770.7	0.8
303.16	469	798.5	0.8
343.15	469	760.6	0.8
318.16	476	785.1	0.8
298.15	488	802.7	0.8
353.15	488	750.2	0.8
333.15	494	770.9	0.8
308.15	499	794.3	0.8
293.16	505	807	0.8
288.15	511	811.1	0.8
363.15	512	739.3	0.8
313.15	521	789.8	0.8
283.15	529	815	0.8
358.15	531	744.8	0.8
323.15	539	780.5	0.8
338.15	539	766	0.8
328.15	549	775.9	0.8
348.15	632	755.6	0.8
293.15	891	807.3	0.8
338.15	892	766.4	0.8
333.15	901	771.3	0.8
323.16	904	780.9	0.8
298.16	906	803	0.8
283.15	909	815.3	0.8
318.15	909	785.5	0.8
328.16	909	776.3	0.8
343.15	910	761.1	0.8
363.15	910	739.8	0.8
288.15	912	811.4	0.8
358.15	912	745.3	0.8
303.15	914	798.8	0.8
308.16	919	794.6	0.8
313.15	925	790.2	0.8
348.15	926	756	0.8
353.15	937	750.7	0.8
288.15	993	811.5	0.8
298.15	995	803.1	0.8
353.15	997	750.8	0.8
358.16	997	745.3	0.8
318.16	1004	785.6	0.8
338.15	1007	766.5	0.8
348.15	1007	756	0.8
333.15	1016	771.5	0.8
303.15	1019	798.9	0.8
328.16	1025	776.4	0.8
293.16	1026	807.4	0.8
323.15	1027	781	0.8
308.15	1030	794.8	0.8
283.15	1030	815.4	0.8
343.15	1032	761.3	0.8
363.16	1038	739.9	0.8
313.16	1053	790.3	0.8
313.15	1936	791	0.8
348.15	1961	757.1	0.8
318.16	1987	786.5	0.8
293.16	1994	808.2	0.8
343.15	1994	762.3	0.8
333.15	2000	772.4	0.8
358.15	2002	746.6	0.8
283.15	2005	816.1	0.8
303.15	2009	799.7	0.8
308.15	2012	795.6	0.8
363.16	2013	741.2	0.8
298.15	2020	803.9	0.8
323.16	2023	781.9	0.8
328.16	2032	777.5	0.8
353.15	2036	752	0.8
288.15	2048	812.3	0.8
338.16	2082	767.6	0.8
358.16	2956	747.8	0.8
343.16	2963	763.4	0.8
313.15	2964	791.9	0.8
323.16	2969	782.8	0.8
348.15	2971	758.2	0.8
353.16	2973	753.1	0.8
328.15	2980	778.3	0.8
283.15	2987	816.8	0.8
303.15	3007	800.5	0.8
293.16	3011	808.9	0.8
308.15	3016	796.4	0.8
288.15	3020	813	0.8
333.15	3021	773.4	0.8
318.16	3033	787.4	0.8
298.16	3037	804.7	0.8
363.15	3038	742.5	0.8
338.15	3160	768.7	0.8
358.16	4886	750.1	0.8
348.15	4887	760.3	0.8
338.15	4911	770.5	0.8
303.15	4968	802.1	0.8
283.15	4975	818.2	0.8
343.15	4978	765.5	0.8
293.16	4984	810.4	0.8
328.16	4986	780.3	0.8
313.16	5002	793.7	0.8
333.15	5004	775.4	0.8
323.15	5007	784.7	0.8
308.16	5009	798.1	0.8
318.16	5011	789.2	0.8
353.15	5052	755.5	0.8
298.16	5064	806.3	0.8
363.16	5065	745	0.8
288.15	5097	814.5	0.8
348.15	6901	762.5	0.8
338.16	6964	772.5	0.8
318.16	6978	790.9	0.8
358.15	6978	752.5	0.8
313.16	6986	795.3	0.8
328.15	6989	782.1	0.8
288.16	6990	815.8	0.8
283.15	6996	819.6	0.8
293.16	7001	811.9	0.8
308.16	7020	799.7	0.8
303.16	7034	803.7	0.8
353.15	7035	757.6	0.8
363.16	7039	747.4	0.9
343.15	7040	767.6	0.8
323.15	7056	786.5	0.8
298.16	7065	807.8	0.8
333.15	7066	777.4	0.8
353.15	8919	759.7	0.9
303.15	8967	805.2	0.8
293.16	8967	813.4	0.8
363.16	8975	749.7	0.9
313.16	8976	797	0.8
338.16	8976	774.5	0.9
348.15	8976	764.6	0.9
333.15	8994	779.1	0.9
358.15	8996	754.7	0.9
283.15	9019	821	0.8
298.15	9025	809.3	0.8
328.15	9026	784	0.9
308.16	9036	801.3	0.8
343.15	9056	769.6	0.9
323.15	9085	788.3	0.9
288.16	9100	817.3	0.8
318.15	9293	792.8	0.9
303.16	9943	806	0.9
363.16	10001	750.8	0.9
288.15	10002	818	0.8
318.16	10006	793.4	0.9
308.15	10011	802	0.9
293.15	10027	814.1	0.8
333.15	10031	780	0.9
283.15	10037	821.7	0.8
338.15	10039	775.5	0.9
348.15	10049	765.7	0.9
298.15	10078	810	0.9
313.15	10109	797.8	0.9
358.16	10124	755.9	0.9
343.15	10137	770.7	0.9
353.15	10172	761	0.9
328.15	10174	785	0.9
323.15	10245	789.3	0.9
303.16	11919	807.5	0.9
288.15	11924	819.3	0.9
358.16	11961	757.9	0.9
308.16	11963	803.6	0.9
333.15	11980	781.8	0.9
338.15	12002	777.3	0.9
293.15	12006	815.5	0.9
283.15	12013	823	0.9
298.16	12017	811.4	0.9
318.15	12039	795.1	0.9
313.15	12051	799.4	0.9
328.16	12064	786.6	0.9
353.16	12072	762.9	0.9
343.15	12089	772.5	0.9
323.15	12118	790.8	0.9
348.15	12159	767.9	0.9
363.15	12190	753.3	0.9
343.15	14318	774.6	0.9
363.16	14664	755.9	0.9
358.15	14843	760.9	0.9
283.15	14917	824.9	0.9
293.15	14925	817.5	0.9
353.15	14941	765.8	0.9
318.15	14977	797.4	0.9
313.16	14996	801.7	0.9
328.15	15005	789.1	0.9
308.16	15014	805.8	0.9
333.15	15020	784.5	0.9
323.15	15027	793.2	0.9
303.16	15070	809.8	0.9
288.15	15086	821.4	0.9
348.15	15134	770.8	0.9
338.15	15149	780.1	0.9
343.15	15186	775.4	0.9
298.16	15244	813.7	0.9
363.16	17691	759	0.9
293.16	17912	819.5	0.9
308.15	17937	808	0.9
298.15	17949	815.6	0.9
283.15	17956	826.9	0.9
328.15	17974	791.5	0.9
313.16	17980	803.9	0.9
303.15	17980	811.8	0.9
333.15	17985	786.9	0.9
288.15	17992	823.4	0.9
358.16	17993	764.1	0.9
343.15	17997	777.9	0.9
318.15	17998	799.8	0.9
348.15	18029	773.4	0.9
323.15	18033	795.6	0.9
338.15	18051	782.6	0.9
353.16	18090	768.8	0.9
298.15	19932	817	0.9
308.16	19942	809.4	0.9
343.15	19975	779.7	0.9
288.15	19982	824.6	0.9
338.15	19986	784.2	0.9
313.16	20012	805.4	0.9
318.15	20024	801.3	0.9
283.15	20028	828.2	0.9
348.15	20029	775.3	0.9
303.15	20032	813.3	0.9
293.16	20060	821	0.9
328.16	20081	793.3	0.9
358.15	20099	766.2	0.9
363.16	20116	761.4	0.9
323.15	20133	797.2	0.9
353.15	20147	770.7	0.9
333.16	20151	788.8	0.9
303.15	21980	814.6	0.9
288.15	21991	825.9	0.9
283.15	21997	829.4	0.9
338.15	21999	785.9	0.9
358.15	22025	767.9	0.9
293.15	22039	822.3	0.9
313.15	22039	806.9	0.9
318.16	22040	802.8	0.9
333.15	22042	790.2	0.9
343.15	22054	781.5	0.9
298.15	22061	818.4	0.9
323.16	22069	798.7	0.9
363.16	22089	763.4	0.9
348.15	22105	777.1	0.9
328.15	22112	794.8	0.9
308.16	22125	810.9	0.9
353.15	22188	772.6	0.9
318.15	24907	804.9	0.9
348.15	24943	779.5	0.9
293.15	24969	824.2	0.9
283.15	24984	831.2	0.9
313.15	24988	809	0.9
338.16	24990	788.3	0.9
298.15	24991	820.3	0.9
308.16	25007	813	0.9
328.16	25008	797.1	0.9
358.15	25009	770.7	0.9
323.15	25015	800.9	0.9
353.15	25053	775.1	0.9
333.15	25059	792.7	0.9
303.15	25089	816.7	0.9
363.15	25101	766.2	0.9
343.15	25145	784.1	0.9
288.15	25200	827.9	0.9
298.15	27926	822.2	0.9
348.15	27937	782.1	0.9
358.16	27942	773.3	0.9
338.16	27960	790.7	0.9
313.15	27962	811	0.9
343.15	27969	786.3	0.9
318.15	27973	807.1	0.9
303.15	27989	818.6	0.9
283.15	27996	833	0.9
293.15	28001	826	0.9
308.16	28001	815	0.9
363.16	28014	768.8	0.9
353.15	28045	777.7	0.9
333.15	28048	794.9	0.9
328.15	28057	799.3	0.9
323.15	28096	803.1	0.9
288.15	28149	829.7	0.9
283.15	29889	834.1	0.9
348.15	29922	783.7	0.9
333.15	29961	796.3	0.9
318.15	30001	808.5	0.9
293.15	30012	827.2	0.9
313.15	30012	812.4	0.9
303.15	30014	819.9	0.9
328.15	30020	800.7	0.9
323.16	30034	804.5	0.9
363.15	30034	770.6	0.9
308.16	30046	816.3	0.9
288.15	30056	830.8	0.9
338.16	30065	792.3	0.9
358.16	30089	775.1	0.9
298.15	30121	823.6	0.9
353.15	30122	779.4	0.9
343.15	30130	788.1	0.9
343.15	31848	789.4	0.9
338.16	31895	793.7	0.9
283.15	31914	835.3	0.9
353.15	31946	780.9	0.9
308.15	31948	817.5	0.9
293.15	31992	828.4	0.9
303.16	31992	821.1	0.9
288.15	32010	832	0.9
323.16	32030	805.9	0.9
313.15	32043	813.7	0.9
348.15	32051	785.4	0.9
298.15	32061	824.8	0.9
318.16	32063	809.9	0.9
358.16	32063	776.8	0.9
363.16	32089	772.4	0.9
328.15	32096	802.2	0.9
333.15	32126	798	0.9
333.15	32780	798.4	0.9
353.15	32790	781.6	0.9
353.15	32795	781.5	0.9
333.15	32804	798.4	0.9
318.15	32873	810.4	0.9
343.15	32904	790.1	0.9
288.15	32915	832.4	0.9
303.15	32951	821.7	0.9
308.15	32957	818.2	0.9
338.15	32975	794.4	0.9
288.15	32978	832.5	0.9
338.16	32982	794.5	0.9
363.15	33002	773.1	0.9
303.15	33007	821.7	0.9
343.15	33014	790.3	0.9
308.15	33017	818.2	0.9
318.15	33033	810.4	0.9
313.15	33039	814.4	0.9
298.15	33040	825.4	0.9
363.15	33042	773.2	0.9
283.15	33047	835.9	0.9
358.15	33055	777.5	0.9
283.15	33065	835.9	0.9
293.15	33079	829.1	0.9
313.15	33084	814.4	0.9
298.15	33088	825.4	0.9
348.15	33089	786.2	0.9
328.15	33090	802.9	0.9
358.15	33103	777.7	0.9
293.16	33109	829	0.9
323.15	33113	806.7	0.9
348.15	33156	786.2	0.9
323.16	33179	806.7	0.9
328.16	33187	802.9	0.9
288.15	33919	833	0.9
343.15	33950	790.9	0.9
338.16	33953	795.1	0.9
333.15	33981	799.2	0.9
318.16	33988	811.1	0.9
303.15	33998	822.3	0.9
283.15	34001	836.4	0.9
308.15	34003	818.8	0.9
298.16	34019	825.9	0.9
353.15	34025	782.5	0.9
293.15	34051	829.6	0.9
363.15	34072	774	0.9
323.16	34081	807.3	0.9
348.15	34089	786.8	0.9
313.16	34096	815	0.9
328.15	34106	803.6	0.9
358.15	34173	778.4	0.9
283.15	34979	836.9	0.9
318.16	34997	811.8	0.9
293.16	35005	830.2	0.9
343.15	35008	791.7	0.9
298.15	35034	826.5	0.9
353.15	35037	783.3	0.9
313.16	35045	815.6	0.9
288.16	35048	833.7	0.9
308.16	35061	819.4	0.9
303.16	35073	823	0.9
333.15	35081	800	0.9
363.16	35096	775	0.9
348.15	35121	787.6	0.9
338.15	35130	796	0.9
323.16	35135	808	0.9
328.16	35148	804.3	0.9
358.15	35154	779.2	0.9
313.15	37907	817.5	0.9
283.16	37912	838.6	0.9
338.16	37933	798	0.9
293.15	37933	831.9	0.9
363.16	37960	777.4	1
288.15	37967	835.3	0.9
348.15	37976	789.8	0.9
323.15	37980	809.9	0.9
308.15	38001	821.3	0.9
328.15	38003	806.3	0.9
358.15	38016	781.5	1
298.15	38020	828.3	0.9
318.16	38029	813.7	0.9
333.15	38040	802.1	0.9
303.15	38048	824.8	0.9
353.16	38061	785.7	0.9
343.15	38168	794.1	0.9
343.15	39957	795.4	0.9
353.15	39961	787.1	1
318.16	39963	815	0.9
333.15	39970	803.4	0.9
283.15	40002	839.7	0.9
303.15	40020	826	0.9
298.16	40026	829.5	0.9
348.15	40028	791.3	1
358.15	40036	783.1	1
363.15	40041	779	1
308.16	40051	822.5	0.9
323.15	40058	811.2	0.9
288.15	40071	836.5	0.9
338.15	40077	799.5	0.9
293.15	40088	833.1	0.9
313.16	40135	818.9	0.9
328.15	40189	807.7	0.9
308.16	41974	823.7	0.9
338.16	41987	800.8	1
343.15	42001	796.8	1
303.15	42004	827.1	0.9
288.15	42013	837.6	0.9
298.16	42019	830.7	0.9
323.15	42026	812.5	0.9
313.15	42039	820	0.9
353.15	42055	788.7	1
293.15	42062	834.2	0.9
358.15	42070	784.7	1
283.15	42074	840.9	0.9
333.16	42099	804.9	0.9
348.15	42107	792.9	1
318.16	42133	816.4	0.9
328.15	42227	809.1	0.9
363.15	42237	780.7	1
348.15	44933	794.9	1
338.15	44943	802.8	1
358.15	44944	786.8	1
363.15	44948	782.8	1
323.16	44962	814.4	0.9
343.15	44975	798.9	1
283.15	44993	842.4	0.9
298.16	44993	832.3	0.9
303.15	44999	828.9	0.9
313.16	45006	821.8	0.9
308.15	45022	825.5	0.9
353.15	45025	790.9	1
293.15	45052	835.9	0.9
288.15	45099	839.3	0.9
333.15	45112	806.9	1
328.16	45203	811.1	1
318.15	45210	818.3	0.9
303.15	45386	829.1	0.9
353.15	47906	793	1
358.15	47921	789	1
298.16	47933	834	0.9
333.15	47953	808.7	1
288.15	47977	840.8	0.9
343.15	47992	801	1
308.16	47997	827.2	0.9
323.16	48021	816.3	1
338.15	48022	804.9	1
283.15	48024	844	0.9
363.15	48033	785.1	1
348.15	48043	797.1	1
318.15	48072	820.1	1
313.16	48081	823.7	1
293.15	48098	837.6	0.9
328.16	48119	812.8	1
303.15	48182	830.7	0.9
298.15	49981	835.1	0.9
343.15	49990	802.3	1
318.15	49996	821.2	1
353.16	49998	794.4	1
293.15	50000	838.6	0.9
313.15	50005	824.8	1
308.15	50010	828.4	1
363.15	50015	786.6	1
328.16	50027	814	1
338.16	50029	806.2	1
323.15	50034	817.5	1
358.15	50038	790.5	1
283.15	50047	845.1	0.9
333.15	50048	810.1	1
288.16	50052	842	0.9
303.15	50063	831.8	1
348.15	50077	798.4	1
303.15	51975	832.8	1
288.15	51983	842.9	0.9
318.16	51984	822.4	1
353.15	51988	795.8	1
293.15	51999	839.7	0.9
343.15	52005	803.6	1
308.15	52016	829.5	1
313.16	52025	826	1
283.15	52032	846.1	0.9
298.16	52047	836.3	1
338.15	52052	807.5	1
333.15	52052	811.3	1
323.15	52055	818.7	1
358.15	52069	792	1
348.15	52078	799.8	1
363.15	52088	788.1	1
328.16	52217	815.4	1
348.15	54947	801.7	1
288.16	54961	844.5	1
298.16	54969	837.8	1
353.16	54972	797.7	1
318.16	54987	824.1	1
308.15	54994	831.2	1
333.15	55007	813.2	1
323.16	55018	820.5	1
313.16	55030	827.7	1
363.15	55038	790.2	1
283.15	55041	847.6	0.9
343.15	55047	805.7	1
303.16	55053	834.5	1
293.15	55060	841.3	1
358.15	55065	794.1	1
338.15	55069	809.5	1
328.16	55140	817.1	1
283.15	57909	849.1	1
318.15	57926	825.8	1
343.15	57941	807.5	1
323.15	57941	822.2	1
303.16	57971	836.1	1
288.15	57976	846	1
298.15	57978	839.4	1
363.15	57996	792.2	1
333.16	58002	815	1
353.15	58003	799.9	1
348.15	58004	803.6	1
308.15	58005	832.8	1
328.16	58016	818.7	1
358.15	58024	796.1	1
313.15	58031	829.3	1
338.15	58033	811.3	1
293.15	58191	842.9	1
303.16	59945	837.1	1
288.16	59961	847	1
328.16	59968	819.8	1
343.15	59985	808.8	1
313.16	60001	830.4	1
318.16	60004	827	1
333.16	60019	816.2	1
308.15	60029	833.9	1
283.15	60034	850.1	1
353.16	60035	801.2	1
298.15	60039	840.5	1
323.16	60048	823.4	1
358.15	60060	797.4	1
293.16	60071	843.8	1
363.15	60085	793.7	1
348.15	60105	805.1	1
338.15	60108	812.6	1
343.15	61963	810	1
328.16	61968	820.9	1
308.16	61986	835	1
318.16	62005	828.1	1
303.16	62023	838.2	1
333.15	62024	817.4	1
283.15	62037	851.1	1
288.15	62043	848	1
338.15	62047	813.7	1
298.15	62048	841.5	1
293.15	62049	844.8	1
313.16	62068	831.6	1
363.15	62081	795	1
323.16	62109	824.6	1
353.15	62118	802.6	1
348.15	62134	806.4	1
358.15	62217	798.9	1
303.16	64910	839.7	1
348.15	64952	808.1	1
293.15	64958	846.3	1
333.15	64970	819.1	1
343.15	64974	811.9	1
308.16	64977	836.6	1
288.15	64998	849.5	1
338.15	65005	815.5	1
318.16	65012	829.7	1
328.16	65013	822.7	1
353.15	65015	804.4	1
363.15	65016	796.9	1.1
298.16	65037	843.1	1
323.15	65042	826.2	1
358.15	65051	800.7	1
313.16	65053	833.2	1
283.15	65102	852.6	1
363.15	66010	797.6	1.1
298.15	66054	843.6	1
313.16	66058	833.7	1
358.15	66079	801.3	1.1
283.15	66079	853	1
318.16	66081	830.3	1
348.15	66089	808.8	1
303.16	66100	840.3	1
333.15	66117	819.8	1
338.15	66128	816.2	1
308.16	66129	837.2	1
343.16	66132	812.5	1
328.16	66143	823.3	1
288.15	66143	850	1
293.15	66185	846.9	1
323.16	66222	826.9	1
353.15	66227	805.2	1

System: 2-methylpropan-2-ol; phases: Liquid
Property: Mass density, kg/m3 (Liquid); method: Vibrating tube method
Temperature, K	Pressure, kPa	Mass density, kg/m3	uncertainty
308.15	97	770.2	0.8
348.15	98	725.1	0.8
303.15	99	775.3	0.8
313.15	99	764.8	0.8
323.15	99	753.9	0.8
343.15	99	731	0.8
353.15	99	719	0.8
318.15	100	759.4	0.8
338.15	100	737.1	0.8
328.15	101	748.4	0.8
333.15	103	742.8	0.8
358.15	103	712.8	0.8
358.15	293	713.1	0.8
348.15	295	725.3	0.8
313.15	298	765	0.8
318.15	298	759.6	0.8
323.15	298	754.1	0.8
328.15	298	748.7	0.8
303.15	298	775.5	0.8
308.15	298	770.4	0.8
363.15	299	706.4	0.8
353.15	300	719.3	0.8
343.15	305	731.3	0.8
333.15	307	743.1	0.8
338.15	309	737.3	0.8
318.15	498	759.8	0.8
348.15	498	725.7	0.8
358.15	498	713.4	0.8
328.15	499	748.9	0.8
303.15	499	775.7	0.8
308.15	500	770.6	0.8
353.15	501	719.6	0.8
313.15	502	765.2	0.8
323.15	502	754.4	0.8
333.15	502	743.3	0.8
363.15	502	706.8	0.8
343.15	503	731.6	0.8
338.15	505	737.6	0.8
308.15	897	771	0.8
353.15	897	720.2	0.8
328.15	898	749.4	0.8
338.15	898	738.1	0.8
348.15	898	726.2	0.8
303.15	898	776.1	0.8
358.15	899	714	0.8
318.15	901	760.3	0.8
323.15	901	754.9	0.8
343.15	901	732.1	0.8
363.15	901	707.4	0.8
313.15	904	765.7	0.8
333.15	915	743.8	0.8
353.15	1000	720.3	0.8
303.15	1002	776.2	0.8
308.15	1002	771.1	0.8
343.15	1002	732.2	0.8
363.15	1002	707.6	0.8
338.15	1003	738.2	0.8
358.15	1003	714.2	0.8
323.15	1004	755	0.8
348.15	1004	726.4	0.8
328.15	1005	749.5	0.8
318.15	1006	760.4	0.8
333.15	1007	744	0.8
313.15	1009	765.8	0.8
343.15	2000	733.6	0.8
353.15	2000	721.8	0.8
328.15	2001	750.7	0.8
338.15	2001	739.5	0.8
318.15	2001	761.5	0.8
363.15	2001	709.2	0.8
323.15	2003	756.1	0.8
348.15	2006	727.8	0.8
303.15	2007	777.1	0.8
358.15	2008	715.7	0.8
308.15	2009	772.1	0.8
333.15	2013	745.2	0.8
313.15	2016	766.8	0.8
353.15	2999	723.2	0.8
308.15	3000	773.1	0.8
328.15	3001	751.9	0.8
343.15	3001	734.9	0.8
348.15	3001	729.2	0.8
323.15	3002	757.2	0.8
318.15	3003	762.6	0.8
358.15	3003	717.3	0.8
338.15	3005	740.8	0.8
363.15	3005	710.8	0.8
333.15	3006	746.4	0.8
313.15	3006	767.8	0.8
303.15	3007	778.1	0.8
303.15	4999	780	0.8
353.15	4999	726.1	0.8
328.15	5001	754.1	0.8
318.15	5002	764.7	0.8
333.15	5002	748.8	0.8
363.15	5002	713.9	0.8
338.15	5003	743.2	0.8
358.15	5003	720.2	0.8
323.15	5004	759.4	0.8
343.15	5005	737.5	0.8
348.15	5005	731.9	0.8
308.15	5006	775.1	0.8
313.15	5010	769.9	0.8
348.15	6999	734.5	0.8
353.15	6999	728.8	0.8
328.15	7001	756.3	0.8
323.15	7002	761.5	0.8
303.15	7003	781.9	0.8
358.15	7003	723	0.8
343.15	7004	740	0.8
333.15	7005	751.1	0.8
318.15	7005	766.7	0.8
308.16	7005	777	0.8
313.15	7006	771.8	0.8
338.15	7014	745.6	0.8
363.15	7023	716.9	0.8
303.15	8992	783.7	0.8
353.15	8998	731.4	0.8
318.15	8999	768.7	0.8
333.15	9001	753.3	0.8
358.15	9001	725.8	0.8
363.15	9001	719.7	0.8
323.15	9002	763.5	0.8
328.15	9004	758.5	0.8
338.15	9004	747.9	0.8
313.15	9005	773.7	0.8
308.15	9006	778.8	0.8
348.15	9012	737	0.8
343.15	9033	742.4	0.8
358.15	9998	727.1	0.8
328.15	9999	759.5	0.8
333.15	9999	754.3	0.8
338.15	10002	749	0.8
323.15	10002	764.5	0.8
318.15	10002	769.7	0.8
353.15	10003	732.6	0.8
303.15	10005	784.6	0.8
313.15	10007	774.7	0.8
308.15	10007	779.7	0.8
363.15	10009	721.1	0.8
348.15	10014	738.2	0.8
343.15	10020	743.6	0.8
353.15	11997	735.1	0.8
338.15	11998	751.2	0.8
328.15	11999	761.6	0.8
318.15	11999	771.6	0.8
303.15	11999	786.3	0.8
323.15	12000	766.5	0.8
343.15	12001	745.8	0.8
333.15	12003	756.5	0.8
348.15	12003	740.6	0.8
308.15	12005	781.5	0.8
313.15	12005	776.5	0.8
358.15	12010	729.7	0.8
363.15	12038	723.8	0.8
363.15	14998	727.6	0.8
338.15	14999	754.4	0.8
348.15	14999	744	0.8
323.15	14999	769.3	0.8
358.15	14999	733.3	0.8
333.15	15000	759.6	0.8
353.15	15001	738.7	0.8
343.15	15002	749.1	0.8
328.15	15004	764.5	0.8
313.15	15005	779.2	0.8
318.15	15010	774.4	0.8
308.15	15021	784.1	0.8
333.15	17995	762.5	0.8
338.15	17997	757.5	0.8
318.15	17998	777	0.8
323.15	17998	772.1	0.8
348.15	17999	747.3	0.9
353.15	17999	742.1	0.9
363.15	18000	731.3	0.9
343.15	18001	752.3	0.9
313.15	18003	781.8	0.8
328.15	18006	767.4	0.8
308.16	18006	786.6	0.8
358.15	18040	736.9	0.9
328.15	19995	769.2	0.9
333.15	19997	764.4	0.9
358.15	19997	739.1	0.9
308.15	19998	788.2	0.8
323.15	20000	773.9	0.8
348.15	20000	749.4	0.9
353.15	20000	744.2	0.9
318.15	20006	778.8	0.8
338.15	20007	759.4	0.9
313.15	20015	783.5	0.8
343.15	20018	754.4	0.9
363.15	20033	733.7	0.9
343.15	21994	756.4	0.9
358.15	21995	741.3	0.9
333.15	21996	766.2	0.9
348.15	21998	751.5	0.9
338.15	21999	761.4	0.9
318.15	21999	780.5	0.9
353.15	21999	746.4	0.9
328.15	22000	771	0.9
323.15	22000	775.7	0.9
313.15	22002	785.1	0.9
308.15	22003	789.8	0.8
363.15	22005	735.9	0.9
308.15	24990	792.2	0.9
318.15	24994	782.9	0.9
333.15	24994	768.9	0.9
328.15	24996	773.6	0.9
348.15	24996	754.4	0.9
353.15	24997	749.4	0.9
338.15	25000	764.2	0.9
323.15	25000	778.2	0.9
363.15	25000	739.2	0.9
313.15	25007	787.5	0.9
358.15	25017	744.5	0.9
343.15	25026	759.3	0.9
343.15	27993	762.1	0.9
333.15	27993	771.6	0.9
338.15	27994	766.9	0.9
358.15	27994	747.6	0.9
323.15	27995	780.7	0.9
348.15	27995	757.3	0.9
328.15	27998	776.2	0.9
353.15	27999	752.5	0.9
313.15	28002	789.9	0.9
318.15	28005	785.4	0.9
308.15	28006	794.5	0.9
363.15	28009	742.4	0.9
358.15	29991	749.6	0.9
313.15	30000	791.4	0.9
318.15	30001	787	0.9
323.15	30002	782.4	0.9
333.15	30003	773.3	0.9
343.15	30004	763.9	0.9
353.15	30004	754.4	0.9
328.15	30005	777.9	0.9
308.15	30005	796	0.9
338.15	30011	768.6	0.9
363.15	30011	744.4	0.9
348.15	30045	759.3	0.9
343.15	32000	765.7	0.9
348.15	32000	761	0.9
323.15	32000	784	0.9
318.15	32001	788.5	0.9
313.16	32001	792.9	0.9
358.15	32001	751.5	0.9
353.15	32003	756.3	0.9
333.15	32004	775	0.9
328.15	32005	779.5	0.9
338.15	32005	770.4	0.9
363.15	32033	746.5	0.9
333.15	32850	775.7	0.9
333.15	32871	775.7	0.9
348.15	32878	761.8	0.9
343.15	32963	766.6	0.9
363.15	32982	747.4	0.9
353.15	32985	757.1	0.9
318.15	32993	789.3	0.9
358.15	32997	752.5	0.9
338.15	32998	771.2	0.9
323.15	33000	784.7	0.9
343.15	33001	766.6	0.9
313.15	33001	793.7	0.9
323.15	33001	784.7	0.9
353.15	33002	757.2	0.9
318.15	33002	789.3	0.9
348.15	33012	761.9	0.9
313.15	33012	793.6	0.9
363.15	33012	747.4	0.9
358.15	33015	752.5	0.9
328.15	33023	780.3	0.9
338.15	33033	771.2	0.9
328.15	33038	780.4	0.9
333.15	34000	776.6	0.9
348.15	34000	762.8	0.9
353.15	34000	758.1	0.9
323.15	34000	785.5	0.9
343.15	34002	767.5	0.9
313.15	34006	794.4	0.9
338.15	34007	772	0.9
318.15	34010	790	0.9
328.15	34013	781.1	0.9
363.15	34035	748.4	0.9
358.15	34056	753.5	0.9
333.15	34990	777.4	0.9
363.15	34999	749.3	0.9
338.15	35000	772.9	0.9
348.15	35001	763.7	0.9
318.15	35001	790.8	0.9
343.15	35003	768.3	0.9
353.15	35004	759	0.9
328.15	35004	781.9	0.9
323.15	35004	786.2	0.9
313.15	35008	795.1	0.9
358.15	35075	754.4	0.9
358.15	37998	757	0.9
363.15	37998	752.1	0.9
318.15	38000	793	0.9
323.15	38000	788.5	0.9
348.15	38001	766.3	0.9
328.15	38002	784.3	0.9
333.15	38004	779.8	0.9
313.15	38012	797.2	0.9
343.15	38027	770.8	0.9
338.15	38031	775.3	0.9
363.16	38458	752.5	0.9
353.15	38477	762.2	0.9
363.15	39147	753.2	0.9
333.15	39997	781.4	0.9
343.15	39998	772.5	0.9
323.15	39998	790	0.9
348.15	39999	768	0.9
358.15	40001	758.8	0.9
313.15	40002	798.6	0.9
353.15	40002	763.4	0.9
363.15	40009	753.9	0.9
318.15	40010	794.4	0.9
338.15	40024	776.9	0.9
328.15	40024	785.8	0.9
348.15	41997	769.6	0.9
323.15	41998	791.5	0.9
338.15	41998	778.5	0.9
333.15	41998	782.9	0.9
363.15	41998	755.7	0.9
328.15	41999	787.2	0.9
343.15	42000	774.1	0.9
358.15	42007	760.6	0.9
313.15	42007	800	0.9
318.15	42021	795.9	0.9
353.15	42035	765.1	0.9
338.15	43195	779.4	0.9
338.15	44574	780.4	0.9
333.15	44909	785.1	0.9
313.15	44997	802	0.9
348.15	44999	772	0.9
363.15	44999	758.4	0.9
323.15	45000	793.6	0.9
358.15	45002	763.1	0.9
328.15	45002	789.4	0.9
318.15	45005	797.9	0.9
353.15	45022	767.6	0.9
338.15	46152	781.6	0.9
358.15	47995	765.5	1
323.15	47996	795.7	0.9
363.15	47996	760.9	1
328.15	47997	791.6	0.9
318.15	47997	799.9	0.9
353.15	48092	770.1	1
333.15	48119	787.4	0.9
338.15	48333	783.3	0.9
353.15	49989	771.5	1
328.15	49992	793	0.9
318.15	49998	801.3	0.9
363.15	49998	762.5	1
333.15	50000	788.7	0.9
323.15	50000	797.1	0.9
358.15	50001	767	1
338.15	50050	784.5	0.9
328.16	51996	794.3	0.9
323.15	51998	798.4	0.9
363.15	52002	764.2	1
318.15	52004	802.6	0.9
333.15	52050	790.2	0.9
338.15	52462	786.3	1
328.15	55000	796.4	0.9
318.15	55002	804.6	0.9
363.15	55003	766.6	1
323.15	55006	800.5	0.9
333.15	55010	792.3	1
338.15	56690	789.2	1
318.15	57994	806.5	0.9
323.15	57995	802.4	1
328.15	57995	798.3	1
333.15	57996	794.3	1
363.15	57998	768.9	1
363.15	59999	770.4	1
323.15	60000	803.7	1
318.15	60002	807.7	1
328.15	60003	799.6	1
333.15	60003	795.6	1
338.15	60003	791.5	1
