Measured thermophysical data. Electrical Conductivity of Lithium Chloride, Lithium Bromide, and Lithium Iodide Electrolytes in Methanol, Water, and Their Binary Mixtures
Source: J. Chem. Eng. Data, 2019, 10.1021/acs.jced.9b00405
Compound 1: lithium chloride, ClLi, InChI=1S/ClH.Li/h1H;/q;+1/p-1, purity 99%
Compound 2: lithium bromide, BrLi, InChI=1S/BrH.Li/h1H;/q;+1/p-1, purity 99%
Compound 3: lithium iodide, ILi, InChI=1S/HI.Li/h1H;/q;+1/p-1, purity 99.5%
Compound 4: methanol, CH4O, InChI=1S/CH4O/c1-2/h2H,1H3
Compound 5: water, H2O, InChI=1S/H2O/h1H2, purity 99.9%

System: lithium chloride + methanol + water; phases: Liquid
Fixed: Temperature, K = 293.15
Fixed: Pressure, kPa = 100
Property: Electrical conductivity, S/m (Liquid); method: Alternating current cell with electrodes
Solvent: Mass fraction of methanol	Molality, mol/kg of lithium chloride	Electrical conductivity, S/m	uncertainty
0	0.05	0.3731	0.0101
0	0.1	0.8005	0.0197
0	0.3	2.182	0.054
0	0.5	3.444	0.085
0	0.81	5.319	0.13
0	1	6.277	0.146
0	1.5	8.572	0.201
0	2	10.61	0.24
0	2.5	12.21	0.27
0	3	13.42	0.29
0	3.49	14.49	0.31
0	4	15.31	0.32
0	5	16.51	0.34
0	6	16.77	0.34
0	7.01	16.88	0.34
0	9.01	15.44	0.33
0	10	14.3	0.34
0.2	0.05	0.2511	0.0065
0.2	0.1	0.505	0.0128
0.2	0.3	1.354	0.035
0.2	0.5	2.075	0.053
0.2	0.81	3.152	0.084
0.2	1	3.714	0.091
0.2	1.49	5.002	1.945
0.2	2	6	0.148
0.2	2.42	6.576	0.159
0.2	2.99	7.726	2.688
0.2	3.49	8.224	0.195
0.2	4	8.66	0.199
0.2	4.99	9.085	0.213
0.2	6	9.119	0.215
0.2	7	8.858	0.225
0.2	9	7.754	0.232
0.4	0.05	0.2012	0.005
0.4	0.1	0.388	0.0093
0.4	0.3	0.986	0.024
0.4	0.5	1.49	0.036
0.4	0.8	2.184	0.054
0.4	1	2.59	0.061
0.4	1.5	3.509	0.083
0.4	2	4.176	0.096
0.4	2.5	4.732	0.106
0.4	3	5.141	0.115
0.4	3.5	5.392	0.119
0.4	4	5.56	0.121
0.4	5.01	5.601	0.124
0.4	6.01	5.359	0.125
0.4	7	4.984	0.133
0.6	0.05	0.1804	0.0043
0.6	0.1	0.3325	0.0079
0.6	0.3	0.8691	0.0209
0.6	0.49	1.274	0.03
0.6	0.79	1.841	0.043
0.6	1	2.148	0.048
0.6	1.5	2.781	0.062
0.6	2	3.224	0.071
0.6	2.5	3.539	0.077
0.6	3	3.737	0.08
0.6	3.5	3.86	0.082
0.6	4	3.911	0.083
0.6	5	3.808	0.086
0.6	6	3.488	0.085
0.8	0.06	0.2137	0.005
0.8	0.12	0.3937	0.0092
0.8	0.29	0.8129	0.0191
0.8	0.47	1.153	0.026
0.8	0.79	1.65	0.038
0.8	0.99	1.897	0.041
0.8	1.5	2.349	0.051
0.8	1.97	2.603	0.055
0.8	2.68	2.797	0.059
0.8	2.99	2.813	0.059
0.8	3.49	2.797	0.06
0.8	4	2.712	0.06
1	0.05	0.2372	0.0052
1	0.1	0.3774	0.0085
1	0.29	0.8395	0.0191
1	0.51	1.187	0.026
1	0.79	1.503	0.032
1	1	1.658	0.034
1	1.5	1.868	0.038
1	2	1.931	0.039
1	2.4	1.921	0.039
1	2.7	1.881	0.038

System: lithium chloride + methanol + water; phases: Liquid
Fixed: Pressure, kPa = 100
Property: Electrical conductivity, S/m (Liquid); method: Alternating current cell with electrodes
Temperature, K	Solvent: Mass fraction of methanol	Molality, mol/kg of lithium chloride	Electrical conductivity, S/m	uncertainty
303.15	1	0.05	0.2481	0.0057
303.15	1	0.1	0.4243	0.0096
303.15	1	0.3	0.953	0.0224
303.15	1	0.5	1.326	0.029
303.15	1	0.8	1.712	0.037
303.15	1	1	1.888	0.039
303.15	1	1.5	2.132	0.044
303.15	1	2	2.241	0.045
303.15	1	2.5	2.253	0.045
303.15	1	3	2.187	0.045
303.15	1	3.3	2.125	0.044
313.15	1	0.05	0.2721	0.0064
313.15	1	0.1	0.4762	0.0108
313.15	1	0.3	1.09	0.026
313.15	1	0.5	1.512	0.033
313.15	1	0.8	1.978	0.044
313.15	1	1	2.215	0.046
313.15	1	1.5	2.549	0.053
313.15	1	1.8	2.647	0.054
313.15	1	2	2.68	0.054
313.15	1	2.4	2.707	0.054
313.15	1	2.8	2.642	0.054
313.15	1	3	2.602	0.053
313.15	1	4	2.321	0.05
303.15	0.8	0.05	0.2181	0.0056
303.15	0.8	0.09	0.3876	0.0113
303.15	0.8	0.3	1.001	0.024
303.15	0.8	0.5	1.445	0.033
303.15	0.8	0.79	2.005	0.046
303.15	0.8	1	2.307	0.051
303.15	0.8	1.49	2.834	0.062
303.15	0.8	2	3.189	0.069
303.15	0.8	2.49	3.424	0.073
303.15	0.8	3.01	3.494	0.092
303.15	0.8	3.48	3.474	0.101
303.15	0.8	4.01	3.395	0.119
303.15	0.8	5.01	3.065	0.107
313.15	0.8	0.05	0.2588	0.0063
313.15	0.8	0.1	0.4784	0.0111
313.15	0.8	0.3	1.153	0.027
313.15	0.8	0.49	1.682	0.042
313.15	0.8	0.81	2.377	0.055
313.15	0.8	0.99	2.703	0.06
313.15	0.8	1.49	3.386	0.085
313.15	0.8	2	3.816	0.082
313.15	0.8	2.5	4.049	0.104
313.15	0.8	3	4.174	0.089
313.15	0.8	3.49	4.147	0.137
313.15	0.8	4	4.072	0.09
313.15	0.8	5	3.764	0.166
303.15	0	0.07	0.7369	0.0173
303.15	0	0.11	1.058	0.026
303.15	0	0.55	4.53	0.112
303.15	0	1	7.536	0.18
303.15	0	1.55	10.61	0.25
303.15	0	2.04	12.84	0.29
303.15	0	2.55	14.74	0.33
303.15	0	3	16.09	0.35
303.15	0	3.6	17.6	0.38
303.15	0	4.03	18.34	0.38
303.15	0	4.48	19.04	0.39
303.15	0	5.08	19.67	0.4
303.15	0	5.53	19.96	0.4
303.15	0	6	20.22	0.41
303.15	0	6.53	20.17	0.41
303.15	0	7.02	20.07	0.41
303.15	0	8.01	19.6	0.4
303.15	0	9	18.78	0.4
303.15	0	10	17.61	0.4
303.15	0	11	16.42	0.43
313.15	0	0.07	0.884	0.0216
313.15	0	0.14	1.654	0.041
313.15	0	0.52	5.303	0.13
313.15	0	0.73	6.845	0.166
313.15	0	1.03	9.366	0.222
313.15	0	1.51	12.5	0.29
313.15	0	2.04	15.35	0.35
313.15	0	2.55	17.76	0.4
313.15	0	3.03	19.5	0.42
313.15	0	3.48	20.78	0.44
313.15	0	4.03	21.99	0.46
313.15	0	4.41	22.68	0.47
313.15	0	5.04	23.49	0.48
313.15	0	5.54	23.95	0.48
313.15	0	6.04	24.16	0.49
313.15	0	6.52	24.22	0.49
313.15	0	7.03	24.09	0.48
313.15	0	7.52	23.91	0.48
313.15	0	8.01	23.59	0.49
313.15	0	9.04	22.64	0.48
313.15	0	10	21.54	0.48
313.15	0	11	20.14	0.47
313.15	0	11.5	19.51	0.47
313.15	0	12.4	18.26	0.46

System: lithium bromide + methanol + water; phases: Liquid
Fixed: Temperature, K = 293.15
Fixed: Pressure, kPa = 100
Property: Electrical conductivity, S/m (Liquid); method: Alternating current cell with electrodes
Solvent: Mass fraction of methanol	Molality, mol/kg of lithium bromide	Electrical conductivity, S/m	uncertainty
0	0.05	0.4155	0.0108
0	0.1	0.8503	0.0212
0	0.29	2.333	0.057
0	0.5	3.745	0.093
0	0.66	4.922	0.118
0	1	6.881	0.164
0	1.26	8.263	0.195
0	1.5	9.433	0.217
0	1.75	10.45	0.24
0	2	11.53	0.26
0	2.5	13.23	0.3
0	3	14.82	0.33
0	3.5	16.15	0.35
0	4	17.15	0.36
0	4.99	18.56	0.38
0	6	19.28	0.39
0	7	19.43	0.39
0	8	19.13	0.39
0	9.06	18.34	0.38
0.2	0.05	0.2782	0.0069
0.2	0.1	0.5256	0.0137
0.2	0.3	1.413	0.037
0.2	0.5	2.173	0.057
0.2	0.7	2.905	0.074
0.2	1	3.945	0.105
0.2	1.25	4.782	0.124
0.2	1.5	5.501	0.139
0.2	1.75	6.14	0.153
0.2	2	6.739	0.162
0.2	2.5	7.903	0.173
0.2	3	8.795	0.205
0.2	3.99	10.09	0.24
0.2	4.99	10.81	0.25
0.2	6	11.04	0.25
0.2	6.99	10.93	0.47
0.2	8	10.6	0.26
0.2	8.99	10.02	0.27
0.4	0.05	0.219	0.0048
0.4	0.11	0.3631	0.0093
0.4	0.31	1.067	0.027
0.4	0.5	1.636	0.041
0.4	0.7	2.193	0.053
0.4	1	2.92	0.071
0.4	1.25	3.469	0.083
0.4	1.5	3.953	0.094
0.4	1.74	4.379	0.103
0.4	2	4.79	0.106
0.4	2.97	5.906	0.133
0.4	3.98	6.633	0.146
0.4	4.98	6.884	0.151
0.4	5.99	6.899	0.153
0.4	7	6.613	0.163
0.4	7.97	6.198	0.162
0.6	0.05	0.1955	0.0046
0.6	0.1	0.3598	0.0085
0.6	0.3	0.9199	0.0224
0.6	0.5	1.418	0.034
0.6	0.7	1.855	0.044
0.6	1.01	2.463	0.058
0.6	1.25	2.859	0.066
0.6	1.5	3.21	0.072
0.6	1.74	3.464	0.077
0.6	2.01	3.754	0.08
0.6	3.01	4.51	0.097
0.6	3.99	4.759	0.101
0.6	4.99	4.734	0.102
0.6	5.99	4.462	0.098
0.8	0.05	0.2015	0.0049
0.8	0.11	0.4126	0.0096
0.8	0.3	0.9156	0.0217
0.8	0.5	1.366	0.032
0.8	0.7	1.73	0.039
0.8	0.99	2.164	0.049
0.8	1.25	2.482	0.055
0.8	1.49	2.723	0.06
0.8	1.75	2.942	0.064
0.8	1.99	3.095	0.065
0.8	2.51	3.265	0.068
0.8	3.01	3.399	0.071
0.8	4	3.416	0.073
0.8	4.98	3.218	0.075
0.8	6	2.883	0.073
1	0.1	0.4532	0.01
1	0.29	0.9518	0.0217
1	0.49	1.331	0.029
1	0.71	1.63	0.035
1	1.01	1.915	0.041
1	1.25	2.09	0.044
1	1.49	2.212	0.045
1	1.75	2.299	0.047
1	2	2.353	0.047
1	2.5	2.427	0.049
1	3	2.398	0.048
1	3.99	2.222	0.046

System: lithium iodide + methanol + water; phases: Liquid
Fixed: Temperature, K = 293.15
Fixed: Pressure, kPa = 100
Property: Electrical conductivity, S/m (Liquid); method: Alternating current cell with electrodes
Solvent: Mass fraction of methanol	Molality, mol/kg of lithium iodide	Electrical conductivity, S/m	uncertainty
0	0.05	0.502	0.012
0	0.1	0.927	0.023
0	0.26	2.271	0.056
0	0.46	3.752	0.092
0	0.64	5.037	0.122
0	0.92	6.862	0.162
0	1.36	9.256	0.218
0	1.83	11.64	0.27
0	2.28	13.49	0.31
0	2.74	15.21	0.33
0	3.19	16.32	0.35
0	3.64	17.49	0.38
0	3.86	17.88	0.38
0	4.55	19.18	0.4
0	5.01	19.6	0.4
0	5.49	19.92	0.4
0	6.38	20.16	0.4
0	6.84	20.14	0.4
0	7.28	19.85	0.4
0	7.73	19.76	0.4
0	8.19	19.33	0.41
0.2	0.05	0.273	0.007
0.2	0.1	0.532	0.014
0.2	0.3	1.446	0.038
0.2	0.5	2.296	0.06
0.2	0.7	3.077	0.078
0.2	1	4.169	0.105
0.2	1.52	5.873	0.147
0.2	2	7.273	0.177
0.2	2.51	8.539	0.201
0.2	3	9.498	0.239
0.2	3.51	10.48	0.26
0.2	4.01	11.17	0.25
0.2	4.51	11.65	0.27
0.2	5.01	12.19	0.28
0.2	5.51	12.57	0.28
0.2	6.01	12.78	0.27
0.2	6.84	12.9	0.28
0.2	7.49	12.87	0.28
0.2	8.01	12.7	0.28
0.2	8.51	12.51	0.27
0.2	9.01	12.32	0.27
0.4	0.03	0.139	0.003
0.4	0.1	0.397	0.01
0.4	0.31	1.111	0.028
0.4	0.51	1.727	0.043
0.4	0.7	2.285	0.056
0.4	1.01	3.109	0.074
0.4	1.51	4.246	0.102
0.4	2	5.238	0.124
0.4	2.5	6.102	0.14
0.4	3	6.707	0.152
0.4	3.5	7.3	0.164
0.4	4	7.706	0.17
0.4	4.5	8.05	0.176
0.4	5.01	8.275	0.178
0.4	5.5	8.347	0.18
0.4	6	8.472	0.183
0.4	6.86	8.494	0.186
0.4	7.5	8.372	0.207
0.4	8	7.856	0.195
0.4	8.5	7.678	0.188
0.6	0.05	0.195	0.005
0.6	0.1	0.377	0.009
0.6	0.3	1	0.024
0.6	0.5	1.532	0.037
0.6	0.7	2.008	0.047
0.6	1	2.652	0.062
0.6	1.5	3.577	0.082
0.6	2	4.285	0.096
0.6	2.5	4.872	0.107
0.6	3	5.294	0.114
0.6	3.5	5.623	0.12
0.6	4	5.823	0.122
0.6	4.5	5.96	0.125
0.6	5	6.012	0.126
0.6	5.5	5.972	0.126
0.6	6	5.912	0.135
0.6	7	5.376	0.127
0.6	8	5.045	0.123
0.8	0.05	0.204	0.005
0.8	0.1	0.381	0.009
0.8	0.3	0.979	0.024
0.8	0.5	1.477	0.035
0.8	0.7	1.907	0.044
0.8	1	2.46	0.055
0.8	1.5	3.176	0.07
0.8	2	3.692	0.079
0.8	2.5	4.074	0.087
0.8	3	4.337	0.091
0.8	3.5	4.502	0.094
0.8	4	4.596	0.096
0.8	4.5	4.627	0.096
0.8	5	4.594	0.096
0.8	5.5	4.527	0.096
0.8	6	4.414	0.097
0.8	7	4.107	0.093
1	0.04	0.246	0.006
1	0.09	0.445	0.01
1	0.27	1.063	0.025
1	0.45	1.532	0.035
1	0.63	1.904	0.042
1	0.9	2.331	0.05
1	1.35	2.822	0.06
1	1.8	3.131	0.065
1	2.25	3.307	0.067
1	2.7	3.399	0.068
1	3.15	3.431	0.069
1	3.6	3.422	0.068
1	4.5	3.368	0.068
1	5	3.219	0.069

System: lithium chloride + water; phases: Liquid
Fixed: Pressure, kPa = 100
Property: Electrical conductivity, S/m (Liquid); method: Alternating current cell with electrodes
Temperature, K	Molality, mol/kg of lithium chloride	Electrical conductivity, S/m	uncertainty
293.15	0.05	0.3731	0.0103
293.15	0.1	0.8005	0.0198
293.15	0.3	2.182	0.054
293.15	0.5	3.444	0.085
293.15	0.81	5.319	0.13
293.15	1	6.277	0.147
293.15	1.5	8.572	0.201
293.15	2	10.61	0.24
293.15	2.5	12.21	0.27
293.15	3	13.42	0.29
293.15	3.49	14.49	0.31
293.15	4	15.31	0.32
293.15	5	16.51	0.34
293.15	6	16.77	0.34
293.15	7.01	16.88	0.34
293.15	9.01	15.44	0.33
293.15	10	14.3	0.34
303.15	0.07	0.7369	0.0176
303.15	0.11	1.058	0.027
303.15	0.55	4.53	0.111
303.15	1	7.536	0.18
303.15	1.55	10.61	0.25
303.15	2.04	12.84	0.29
303.15	2.55	14.74	0.33
303.15	3	16.09	0.35
303.15	3.6	17.6	0.37
303.15	4.03	18.34	0.38
303.15	4.48	19.04	0.39
303.15	5.08	19.67	0.4
303.15	5.53	19.96	0.41
303.15	6	20.22	0.41
303.15	6.53	20.17	0.41
303.15	7.02	20.07	0.41
303.15	8.01	19.6	0.41
303.15	9	18.78	0.4
303.15	10	17.61	0.4
303.15	11	16.42	0.39
313.15	0.07	0.884	0.0216
313.15	0.14	1.654	0.041
313.15	0.52	5.303	0.13
313.15	0.73	6.845	0.166
313.15	1.03	9.366	0.222
313.15	1.51	12.5	0.29
313.15	2.04	15.35	0.35
313.15	2.55	17.76	0.4
313.15	3.03	19.5	0.42
313.15	3.48	20.78	0.44
313.15	4.03	21.99	0.46
313.15	4.41	22.68	0.47
313.15	5.04	23.49	0.48
313.15	5.54	23.95	0.48
313.15	6.04	24.16	0.49
313.15	6.52	24.22	0.49
313.15	7.03	24.09	0.48
313.15	7.52	23.91	0.48
313.15	8.01	23.59	0.49
313.15	9.04	22.64	0.48
313.15	10	21.54	0.48
313.15	11	20.14	0.47
313.15	11.5	19.51	0.46
313.15	12.4	18.26	0.46

System: lithium chloride + methanol; phases: Liquid
Fixed: Pressure, kPa = 100
Property: Electrical conductivity, S/m (Liquid); method: Alternating current cell with electrodes
Temperature, K	Molality, mol/kg of lithium chloride	Electrical conductivity, S/m	uncertainty
293.15	0.05	0.2372	0.0052
293.15	0.1	0.3774	0.0086
293.15	0.29	0.8395	0.0192
293.15	0.51	1.187	0.026
293.15	0.79	1.503	0.033
293.15	1	1.658	0.034
293.15	1.5	1.868	0.038
293.15	2	1.931	0.039
293.15	2.4	1.921	0.039
293.15	2.7	1.881	0.038
303.15	0.05	0.2481	0.0057
303.15	0.1	0.4243	0.0096
303.15	0.3	0.953	0.0219
303.15	0.5	1.326	0.029
303.15	0.8	1.712	0.037
303.15	1	1.888	0.039
303.15	1.5	2.132	0.044
303.15	2	2.241	0.045
303.15	2.5	2.253	0.045
303.15	3	2.187	0.045
303.15	3.3	2.125	0.044
313.15	0.05	0.2721	0.0064
313.15	0.1	0.4762	0.0108
313.15	0.3	1.09	0.025
313.15	0.5	1.512	0.033
313.15	0.8	1.978	0.044
313.15	1	2.215	0.046
313.15	1.5	2.549	0.053
313.15	1.8	2.647	0.054
313.15	2	2.68	0.054
313.15	2.4	2.707	0.054
313.15	2.8	2.642	0.054
313.15	3	2.602	0.053
313.15	4	2.321	0.05

System: lithium bromide + water; phases: Liquid
Fixed: Temperature, K = 293.15
Fixed: Pressure, kPa = 100
Property: Electrical conductivity, S/m (Liquid); method: Alternating current cell with electrodes
Molality, mol/kg of lithium bromide	Electrical conductivity, S/m	uncertainty
0.05	0.4155	0.0083
0.1	0.8503	0.0212
0.29	2.333	0.057
0.5	3.745	0.093
0.66	4.922	0.118
1	6.881	0.164
1.26	8.263	0.195
1.5	9.433	0.217
1.75	10.45	0.24
2	11.53	0.26
2.5	13.23	0.3
3	14.82	0.33
3.5	16.15	0.35
4	17.15	0.36
4.99	18.56	0.38
6	19.28	0.39
7	19.43	0.39
8	19.13	0.39
9.06	18.34	0.37

System: lithium bromide + methanol; phases: Liquid
Fixed: Temperature, K = 293.15
Fixed: Pressure, kPa = 100
Property: Electrical conductivity, S/m (Liquid); method: Alternating current cell with electrodes
Molality, mol/kg of lithium bromide	Electrical conductivity, S/m	uncertainty
0.1	0.4532	0.0091
0.29	0.9518	0.0217
0.49	1.331	0.029
0.71	1.63	0.035
1.01	1.915	0.041
1.25	2.09	0.044
1.49	2.212	0.045
1.75	2.299	0.047
2	2.353	0.047
2.5	2.427	0.049
3	2.398	0.048
3.99	2.222	0.044

System: lithium iodide + water; phases: Liquid
Fixed: Temperature, K = 293.15
Fixed: Pressure, kPa = 100
Property: Electrical conductivity, S/m (Liquid); method: Alternating current cell with electrodes
Molality, mol/kg of lithium iodide	Electrical conductivity, S/m	uncertainty
0.05	0.502	0.01
0.1	0.927	0.023
0.26	2.271	0.056
0.46	3.752	0.092
0.64	5.037	0.122
0.92	6.862	0.162
1.36	9.256	0.218
1.83	11.64	0.27
2.28	13.49	0.31
2.74	15.21	0.33
3.19	16.32	0.35
3.64	17.49	0.38
3.86	17.88	0.38
4.55	19.18	0.4
5.01	19.6	0.4
5.49	19.92	0.4
6.38	20.16	0.4
6.84	20.14	0.4
7.28	19.85	0.4
7.73	19.76	0.4
8.19	19.33	0.39

System: lithium iodide + methanol; phases: Liquid
Fixed: Temperature, K = 293.15
Fixed: Pressure, kPa = 100
Property: Electrical conductivity, S/m (Liquid); method: Alternating current cell with electrodes
Molality, mol/kg of lithium iodide	Electrical conductivity, S/m	uncertainty
0.04	0.246	0.005
0.09	0.445	0.01
0.27	1.063	0.025
0.45	1.532	0.035
0.63	1.904	0.042
0.9	2.331	0.05
1.35	2.822	0.06
1.8	3.131	0.065
2.25	3.307	0.067
2.7	3.399	0.068
3.15	3.431	0.069
3.6	3.422	0.068
4.5	3.368	0.068
5	3.219	0.064
