Measured thermophysical data. Experimental Determination of Isobaric Vapor-Liquid Equilibrium and Isothermal Interfacial Tensions for the Binary Ethanol + Cyclopentyl Methyl Ether Mixture
Source: J. Chem. Eng. Data, 2019, 10.1021/acs.jced.8b01000
Compound 1: ethanol, C2H6O, InChI=1S/C2H6O/c1-2-3/h3H,2H2,1H3, purity 99.9%
Compound 2: methoxycyclopentane, C6H12O, InChI=1S/C6H12O/c1-7-6-4-2-3-5-6/h6H,2-5H2,1H3, purity 99.9%

System: ethanol; phases: Liquid
Property: Refractive index (Na D-line) (Liquid); method: Standard Abbe refractometry
Temperature, K	Pressure, kPa	Refractive index (Na D-line)	uncertainty
298.15	101.3	1.36068	0.00085

System: ethanol; phases: Liquid
Property: Mass density, kg/m3 (Liquid); method: Vibrating tube method
Temperature, K	Pressure, kPa	Mass density, kg/m3	uncertainty
298.15	101.3	785.06	0.21

System: ethanol; phases: Liquid, Gas
Property: Boiling temperature at pressure P, K (Liquid); method: Ebulliometric method (Recirculating still)
Pressure, kPa	Boiling temperature at pressure P, K	uncertainty
101.3	351.44	0.02

System: ethanol; phases: Liquid, Gas
Property: Vapor or sublimation pressure, kPa (Liquid); method: Ebulliometric method (Recirculating still)
Temperature, K	Vapor or sublimation pressure, kPa	uncertainty
323.52	30.01	0.07
326.77	35.01	0.07
329.65	40.01	0.07
332.24	45.01	0.07
334.6	50.01	0.08
336.76	55.01	0.08
338.75	60.01	0.08
340.61	65.01	0.08
342.37	70.01	0.09
344.02	75.01	0.09
345.58	80.01	0.09
347.06	85.01	0.09
348.47	90.01	0.1
349.82	95.01	0.1
351.35	100.97	0.1
334.58	50	0.08
344.02	75	0.09
349.55	94	0.1

System: ethanol; phases: Liquid, Gas
Property: Surface tension liquid-gas, N/m (Liquid); method: Maximal bubble pressure
Temperature, K	Surface tension liquid-gas, N/m	uncertainty
298.15	0.0221	0.00019

System: methoxycyclopentane; phases: Liquid
Property: Refractive index (Na D-line) (Liquid); method: Standard Abbe refractometry
Temperature, K	Pressure, kPa	Refractive index (Na D-line)	uncertainty
298.15	101.3	1.41992	0.00085

System: methoxycyclopentane; phases: Liquid
Property: Mass density, kg/m3 (Liquid); method: Vibrating tube method
Temperature, K	Pressure, kPa	Mass density, kg/m3	uncertainty
298.15	101.3	858.16	0.13

System: methoxycyclopentane; phases: Liquid, Gas
Property: Boiling temperature at pressure P, K (Liquid); method: Ebulliometric method (Recirculating still)
Pressure, kPa	Boiling temperature at pressure P, K	uncertainty
101.3	378.32	0.02

System: methoxycyclopentane; phases: Liquid, Gas
Property: Vapor or sublimation pressure, kPa (Liquid); method: Ebulliometric method (Recirculating still)
Temperature, K	Vapor or sublimation pressure, kPa	uncertainty
341.31	30.01	0.07
345.52	35.01	0.07
349.27	40.01	0.07
352.67	45.01	0.07
355.77	50.01	0.06
358.62	55.01	0.07
361.31	60.01	0.07
363.85	65.01	0.07
366.22	70.01	0.08
368.43	75.01	0.06
370.53	80.01	0.08
372.39	85.01	0.08
374.32	90.01	0.08
376.17	95.01	0.08
378.4	101.65	0.09
355.81	50	0.06
368.37	75	0.06
375.79	94	0.08

System: methoxycyclopentane; phases: Liquid, Gas
Property: Surface tension liquid-gas, N/m (Liquid); method: Maximal bubble pressure
Temperature, K	Surface tension liquid-gas, N/m	uncertainty
283.15	0.02753	0.00021
293.15	0.02612	0.00021
298.15	0.02533	0.00021
303.15	0.02481	0.0002
313.15	0.02401	0.0002
323.15	0.02256	0.0002
333.15	0.02143	0.00019
343.15	0.0203	0.00019
353.15	0.01931	0.00018
298.15	0.0253	0.00021

System: ethanol + methoxycyclopentane; phases: Liquid, Gas
Property: Boiling temperature at pressure P, K (Liquid); method: Ebulliometric method (Recirculating still)
Mole fraction of ethanol	Pressure, kPa	Boiling temperature at pressure P, K	uncertainty
0	50	355.81	0.12
0.065	50	346.42	0.26
0.11	50	342.82	0.16
0.161	50	340.41	0.13
0.203	50	338.95	0.12
0.253	50	337.78	0.11
0.301	50	336.95	0.1
0.351	50	336.29	0.1
0.402	50	335.72	0.1
0.446	50	335.3	0.1
0.497	50	334.92	0.1
0.541	50	334.61	0.1
0.588	50	334.35	0.1
0.643	50	334.09	0.1
0.689	50	333.92	0.09
0.743	50	333.79	0.09
0.785	50	333.72	0.09
0.837	50	333.72	0.09
0.893	50	333.81	0.09
0.947	50	334.06	0.09
1	50	334.58	0.09
0	75	368.37	0.15
0.066	75	358.29	0.31
0.109	75	354.27	0.2
0.154	75	351.57	0.17
0.202	75	349.79	0.15
0.25	75	348.46	0.14
0.296	75	347.41	0.13
0.343	75	346.63	0.13
0.398	75	345.97	0.13
0.449	75	345.45	0.13
0.496	75	344.99	0.12
0.543	75	344.63	0.12
0.591	75	344.3	0.12
0.642	75	344	0.12
0.688	75	343.77	0.12
0.735	75	343.58	0.12
0.784	75	343.45	0.12
0.836	75	343.4	0.12
0.892	75	343.42	0.12
0.943	75	343.59	0.12
1	75	344.02	0.11
0	94	375.79	0.16
0.065	94	365.27	0.33
0.105	94	361.2	0.22
0.151	94	358.25	0.18
0.197	94	356.21	0.16
0.242	94	354.85	0.15
0.291	94	353.64	0.14
0.343	94	352.77	0.14
0.39	94	352.03	0.13
0.443	94	351.43	0.13
0.491	94	350.92	0.13
0.545	94	350.49	0.13
0.588	94	350.15	0.13
0.643	94	349.81	0.13
0.686	94	349.55	0.12
0.737	94	349.32	0.12
0.784	94	349.16	0.12
0.831	94	349.06	0.12
0.89	94	349.06	0.12
0.942	94	349.17	0.12
1	94	349.55	0.12

System: ethanol + methoxycyclopentane; phases: Gas, Liquid
Property: Mole fraction of ethanol (Gas); method: Chromatography
Mole fraction of ethanol	Pressure, kPa	Mole fraction of ethanol	uncertainty
0	50	0	
0.065	50	0.302	0.008
0.11	50	0.411	0.005
0.161	50	0.48	0.005
0.203	50	0.527	0.005
0.253	50	0.567	0.004
0.301	50	0.592	0.004
0.351	50	0.614	0.004
0.402	50	0.642	0.004
0.446	50	0.657	0.004
0.497	50	0.678	0.004
0.541	50	0.694	0.003
0.588	50	0.71	0.003
0.643	50	0.737	0.003
0.689	50	0.753	0.003
0.743	50	0.781	0.003
0.785	50	0.801	0.003
0.837	50	0.837	0.003
0.893	50	0.883	0.003
0.947	50	0.929	0.003
1	50	1	
0	75	0	
0.066	75	0.3	0.1
0.109	75	0.418	0.006
0.154	75	0.487	0.005
0.202	75	0.544	0.005
0.25	75	0.576	0.004
0.296	75	0.603	0.004
0.343	75	0.633	0.004
0.398	75	0.656	0.004
0.449	75	0.675	0.004
0.496	75	0.695	0.003
0.543	75	0.713	0.003
0.591	75	0.728	0.003
0.642	75	0.746	0.003
0.688	75	0.77	0.01
0.735	75	0.787	0.003
0.784	75	0.818	0.003
0.836	75	0.849	0.003
0.892	75	0.888	0.003
0.943	75	0.936	0.003
1	75	1	
0	94	0	
0.065	94	0.302	0.009
0.105	94	0.421	0.006
0.151	94	0.495	0.005
0.197	94	0.541	0.005
0.242	94	0.581	0.004
0.291	94	0.614	0.004
0.343	94	0.642	0.004
0.39	94	0.666	0.004
0.443	94	0.685	0.003
0.491	94	0.702	0.003
0.545	94	0.718	0.003
0.588	94	0.733	0.003
0.643	94	0.759	0.003
0.686	94	0.774	0.003
0.737	94	0.789	0.003
0.784	94	0.822	0.003
0.831	94	0.851	0.003
0.89	94	0.889	0.003
0.942	94	0.937	0.003
1	94	1	

System: ethanol + methoxycyclopentane; phases: Liquid, Gas
Fixed: Temperature, K = 298.15
Property: Surface tension liquid-gas, N/m (Liquid); method: Maximal bubble pressure
Mole fraction of ethanol	Surface tension liquid-gas, N/m	uncertainty
0	0.0253	0.00021
0.095	0.02523	0.00021
0.192	0.02505	0.0002
0.29	0.0248	0.0002
0.39	0.02459	0.0002
0.49	0.02434	0.0002
0.594	0.02396	0.0002
0.69	0.02367	0.0002
0.789	0.02325	0.0002
0.891	0.02282	0.0002
0.946	0.02251	0.00019
1	0.0221	0.00019
