Measured thermophysical data. Experimental and Computational Studies of Binary Mixtures of Isobutanol + Cyclohexylamine
Source: J. Chem. Eng. Data, 2016, 10.1021/acs.jced.6b00158
Compound 1: 2-methyl-1-propanol, C4H10O, InChI=1S/C4H10O/c1-4(2)3-5/h4-5H,3H2,1-2H3, purity 99%
Compound 2: cyclohexylamine, C6H13N, InChI=1S/C6H13N/c7-6-4-2-1-3-5-6/h6H,1-5,7H2, purity 99%

System: 2-methyl-1-propanol; phases: Liquid
Fixed: Pressure, kPa = 100
Property: Mass density, kg/m3 (Liquid); method: Vibrating tube method
Temperature, K	Mass density, kg/m3	uncertainty
293.15	801.96	2.01
298.15	798.12	2.01
303.15	794.22	2.01
308.15	790.27	2.01
313.15	786.27	2.01

System: 2-methyl-1-propanol; phases: Liquid
Fixed: Pressure, kPa = 100
Property: Viscosity, Pa*s (Liquid); method: Falling or rolling sphere viscometry
Temperature, K	Viscosity, Pa*s	uncertainty
293.15	0.004023	6.95e-05
298.15	0.003404	6.69e-05
303.15	0.002882	6.5e-05
308.15	0.0024755	6.38e-05
313.15	0.0020972	6.27e-05

System: cyclohexylamine; phases: Liquid
Fixed: Pressure, kPa = 100
Property: Mass density, kg/m3 (Liquid); method: Vibrating tube method
Temperature, K	Mass density, kg/m3	uncertainty
293.15	866.85	2.01
298.15	862.31	2.01
303.15	857.79	2.01
308.15	853.24	2.01
313.15	848.71	2.01

System: cyclohexylamine; phases: Liquid
Fixed: Pressure, kPa = 100
Property: Viscosity, Pa*s (Liquid); method: Falling or rolling sphere viscometry
Temperature, K	Viscosity, Pa*s	uncertainty
293.15	0.002134	6.28e-05
298.15	0.0019438	6.23e-05
303.15	0.0017864	6.2e-05
308.15	0.0015725	6.15e-05
313.15	0.0014174	6.13e-05

System: 2-methyl-1-propanol + cyclohexylamine; phases: Liquid
Fixed: Pressure, kPa = 100
Property: Mass density, kg/m3 (Liquid); method: Vibrating tube method
Temperature, K	Mole fraction of 2-methyl-1-propanol	Mass density, kg/m3	uncertainty
293.15	0	866.85	2.01
293.15	0.06096	865.7	2.01
293.15	0.12054	865.02	2.01
293.15	0.2357	861.79	2.01
293.15	0.34583	856.98	2.01
293.15	0.45126	850.89	2.01
293.15	0.55228	847.01	2.01
293.15	0.64916	839.36	2.01
293.15	0.74215	830.79	2.01
293.15	0.83148	820.81	2.01
293.15	0.91737	814.12	2.01
293.15	1	801.96	2.01
298.15	0	862.31	2.01
298.15	0.06096	861.18	2.01
298.15	0.12054	860.59	2.01
298.15	0.2357	857.37	2.01
298.15	0.34583	852.62	2.01
298.15	0.45126	846.55	2.01
298.15	0.55228	842.76	2.01
298.15	0.64916	835.13	2.01
298.15	0.74215	826.7	2.01
298.15	0.83148	816.78	2.01
298.15	0.91737	810.19	2.01
298.15	1	798.12	2.01
303.15	0	857.79	2.01
303.15	0.06096	856.68	2.01
303.15	0.12054	856.11	2.01
303.15	0.2357	852.93	2.01
303.15	0.34583	848.23	2.01
303.15	0.45126	842.2	2.01
303.15	0.55228	838.46	2.01
303.15	0.64916	830.89	2.01
303.15	0.74215	822.55	2.01
303.15	0.83148	812.73	2.01
303.15	0.91737	806.19	2.01
303.15	1	794.22	2.01
308.15	0	853.24	2.01
308.15	0.06096	852.18	2.01
308.15	0.12054	851.64	2.01
308.15	0.2357	848.49	2.01
308.15	0.34583	843.79	2.01
308.15	0.45126	837.83	2.01
308.15	0.55228	834.13	2.01
308.15	0.64916	826.62	2.01
308.15	0.74215	818.36	2.01
308.15	0.83148	808.63	2.01
308.15	0.91737	802.09	2.01
308.15	1	790.27	2.01
313.15	0	848.71	2.01
313.15	0.06096	847.71	2.01
313.15	0.12054	847.15	2.01
313.15	0.2357	844.09	2.01
313.15	0.34583	839.39	2.01
313.15	0.45126	833.46	2.01
313.15	0.55228	829.78	2.01
313.15	0.64916	822.37	2.01
313.15	0.74215	814.15	2.01
313.15	0.83148	804.54	2.01
313.15	0.91737	798	2.01
313.15	1	786.27	2.01

System: 2-methyl-1-propanol + cyclohexylamine; phases: Liquid
Fixed: Pressure, kPa = 100
Property: Viscosity, Pa*s (Liquid); method: Falling or rolling sphere viscometry
Temperature, K	Mole fraction of 2-methyl-1-propanol	Viscosity, Pa*s	uncertainty
293.15	0	0.002134	6.28e-05
293.15	0.06096	0.0024077	6.35e-05
293.15	0.12054	0.0025746	6.4e-05
293.15	0.2357	0.0028384	6.49e-05
293.15	0.34583	0.003048	6.56e-05
293.15	0.45126	0.0032461	6.63e-05
293.15	0.55228	0.0034025	6.69e-05
293.15	0.64916	0.0035215	6.74e-05
293.15	0.74215	0.0035344	6.74e-05
293.15	0.83148	0.0036055	6.77e-05
293.15	0.91737	0.0036682	6.8e-05
293.15	1	0.004023	6.95e-05
298.15	0	0.0019438	6.23e-05
298.15	0.06096	0.0021462	6.28e-05
298.15	0.12054	0.0022793	6.32e-05
298.15	0.2357	0.0024737	6.37e-05
298.15	0.34583	0.0026436	6.43e-05
298.15	0.45126	0.0028052	6.48e-05
298.15	0.55228	0.0029374	6.52e-05
298.15	0.64916	0.0030369	6.56e-05
298.15	0.74215	0.0030465	6.56e-05
298.15	0.83148	0.0030884	6.57e-05
298.15	0.91737	0.00313	6.59e-05
298.15	1	0.003404	6.69e-05
303.15	0	0.0017864	6.2e-05
303.15	0.06096	0.0019477	6.23e-05
303.15	0.12054	0.002055	6.26e-05
303.15	0.2357	0.0022036	6.3e-05
303.15	0.34583	0.0023337	6.33e-05
303.15	0.45126	0.0024541	6.37e-05
303.15	0.55228	0.0025584	6.4e-05
303.15	0.64916	0.002626	6.42e-05
303.15	0.74215	0.0026289	6.42e-05
303.15	0.83148	0.0026456	6.43e-05
303.15	0.91737	0.0026765	6.44e-05
303.15	1	0.002882	6.5e-05
308.15	0	0.0015725	6.15e-05
308.15	0.06096	0.0016966	6.18e-05
308.15	0.12054	0.0017913	6.2e-05
308.15	0.2357	0.0019165	6.23e-05
308.15	0.34583	0.0020217	6.25e-05
308.15	0.45126	0.0021229	6.28e-05
308.15	0.55228	0.0022118	6.3e-05
308.15	0.64916	0.0022747	6.32e-05
308.15	0.74215	0.0023029	6.33e-05
308.15	0.83148	0.0023088	6.33e-05
308.15	0.91737	0.0023448	6.34e-05
308.15	1	0.0024755	6.38e-05
313.15	0	0.0014174	6.13e-05
313.15	0.06096	0.0015155	6.14e-05
313.15	0.12054	0.0015784	6.16e-05
313.15	0.2357	0.0016777	6.18e-05
313.15	0.34583	0.0017607	6.19e-05
313.15	0.45126	0.0018395	6.21e-05
313.15	0.55228	0.0019019	6.22e-05
313.15	0.64916	0.0019599	6.24e-05
313.15	0.74215	0.001998	6.25e-05
313.15	0.83148	0.0019985	6.25e-05
313.15	0.91737	0.0020149	6.25e-05
313.15	1	0.0020972	6.27e-05
