Measured thermophysical data. Solubility of Acetoguanamine in Twelve Neat Solvents from 283.15 to 323.15 K
Source: J. Chem. Eng. Data, 2019, 10.1021/acs.jced.9b00593
Compound 1: 6-methyl-1,3,5-triazine-2,4-diamine, C4H7N5, InChI=1S/C4H7N5/c1-2-7-3(5)9-4(6)8-2/h1H3,(H4,5,6,7,8,9), purity 98.2%
Compound 2: methanol, CH4O, InChI=1S/CH4O/c1-2/h2H,1H3, purity 99.7%
Compound 3: ethanol, C2H6O, InChI=1S/C2H6O/c1-2-3/h3H,2H2,1H3, purity 99.4%
Compound 4: propan-2-ol, C3H8O, InChI=1S/C3H8O/c1-3(2)4/h3-4H,1-2H3, purity 99.5%
Compound 5: 2-methyl-1-propanol, C4H10O, InChI=1S/C4H10O/c1-4(2)3-5/h4-5H,3H2,1-2H3, purity 99.4%
Compound 6: propan-1-ol, C3H8O, InChI=1S/C3H8O/c1-2-3-4/h4H,2-3H2,1H3, purity 99.5%
Compound 7: butan-1-ol, C4H10O, InChI=1S/C4H10O/c1-2-3-4-5/h5H,2-4H2,1H3, purity 99.4%
Compound 8: dimethylformamide, C3H7NO, InChI=1S/C3H7NO/c1-4(2)3-5/h3H,1-2H3, purity 99.5%
Compound 9: acetonitrile, C2H3N, InChI=1S/C2H3N/c1-2-3/h1H3, purity 99.6%
Compound 10: 1,4-dioxane, C4H8O2, InChI=1S/C4H8O2/c1-2-6-4-3-5-1/h1-4H2, purity 99.5%
Compound 11: ethyl acetate, C4H8O2, InChI=1S/C4H8O2/c1-3-6-4(2)5/h3H2,1-2H3, purity 99.4%
Compound 12: 1,2-ethanediol, C2H6O2, InChI=1S/C2H6O2/c3-1-2-4/h3-4H,1-2H2, purity 99.5%
Compound 13: water, H2O, InChI=1S/H2O/h1H2, purity 99.9%

System: 6-methyl-1,3,5-triazine-2,4-diamine + methanol; phases: Liquid, Crystal
Fixed: Pressure, kPa = 101.2
Property: Mole fraction of 6-methyl-1,3,5-triazine-2,4-diamine (Liquid); method: Chromatography
Temperature, K	Mole fraction of 6-methyl-1,3,5-triazine-2,4-diamine	uncertainty
283.15	0.0001591	7.3e-06
288.15	0.0001916	8.8e-06
293.15	0.0002346	1.07e-05
298.15	0.0002893	1.32e-05
303.15	0.000365	1.67e-05
308.15	0.0004344	1.98e-05
313.15	0.0005525	2.52e-05
318.15	0.0006361	2.91e-05
323.15	0.0007824	3.57e-05

System: 6-methyl-1,3,5-triazine-2,4-diamine + ethanol; phases: Liquid, Crystal
Fixed: Pressure, kPa = 101.2
Property: Mole fraction of 6-methyl-1,3,5-triazine-2,4-diamine (Liquid); method: Chromatography
Temperature, K	Mole fraction of 6-methyl-1,3,5-triazine-2,4-diamine	uncertainty
283.15	0.000226	1.03e-05
288.15	0.0002577	1.18e-05
293.15	0.0003145	1.44e-05
298.15	0.0003861	1.76e-05
303.15	0.0004849	2.22e-05
308.15	0.0005919	2.7e-05
313.15	0.0006878	3.14e-05
318.15	0.0008449	3.86e-05
323.15	0.0009991	4.56e-05

System: 6-methyl-1,3,5-triazine-2,4-diamine + propan-1-ol; phases: Liquid, Crystal
Fixed: Pressure, kPa = 101.2
Property: Mole fraction of 6-methyl-1,3,5-triazine-2,4-diamine (Liquid); method: Chromatography
Temperature, K	Mole fraction of 6-methyl-1,3,5-triazine-2,4-diamine	uncertainty
283.15	0.000321	1.47e-05
288.15	0.0003849	1.76e-05
293.15	0.0004518	2.06e-05
298.15	0.0005403	2.47e-05
303.15	0.0006889	3.15e-05
308.15	0.0008364	3.82e-05
313.15	0.0009849	4.5e-05
318.15	0.001154	5.3e-05
323.15	0.001316	6e-05

System: 6-methyl-1,3,5-triazine-2,4-diamine + propan-2-ol; phases: Liquid, Crystal
Fixed: Pressure, kPa = 101.2
Property: Mole fraction of 6-methyl-1,3,5-triazine-2,4-diamine (Liquid); method: Chromatography
Temperature, K	Mole fraction of 6-methyl-1,3,5-triazine-2,4-diamine	uncertainty
283.15	0.00027	1.23e-05
288.15	0.0003246	1.48e-05
293.15	0.0003926	1.79e-05
298.15	0.0004697	2.15e-05
303.15	0.0005869	2.68e-05
308.15	0.000698	3.19e-05
313.15	0.0008082	3.69e-05
318.15	0.000973	4.44e-05
323.15	0.001151	5.3e-05

System: 6-methyl-1,3,5-triazine-2,4-diamine + butan-1-ol; phases: Liquid, Crystal
Fixed: Pressure, kPa = 101.2
Property: Mole fraction of 6-methyl-1,3,5-triazine-2,4-diamine (Liquid); method: Chromatography
Temperature, K	Mole fraction of 6-methyl-1,3,5-triazine-2,4-diamine	uncertainty
283.15	0.0004767	2.18e-05
288.15	0.0005361	2.45e-05
293.15	0.0006397	2.92e-05
298.15	0.0007643	3.49e-05
303.15	0.000919	4.2e-05
308.15	0.001107	5.1e-05
313.15	0.001306	6e-05
318.15	0.001503	6.9e-05
323.15	0.00177	8.1e-05

System: 6-methyl-1,3,5-triazine-2,4-diamine + 2-methyl-1-propanol; phases: Liquid, Crystal
Fixed: Pressure, kPa = 101.2
Property: Mole fraction of 6-methyl-1,3,5-triazine-2,4-diamine (Liquid); method: Chromatography
Temperature, K	Mole fraction of 6-methyl-1,3,5-triazine-2,4-diamine	uncertainty
283.15	0.0003916	1.79e-05
288.15	0.0004538	2.07e-05
293.15	0.0005513	2.52e-05
298.15	0.0006626	3.03e-05
303.15	0.0007923	3.62e-05
308.15	0.0009311	4.25e-05
313.15	0.001103	5e-05
318.15	0.001266	5.8e-05
323.15	0.001535	7e-05

System: 6-methyl-1,3,5-triazine-2,4-diamine + acetonitrile; phases: Liquid, Crystal
Fixed: Pressure, kPa = 101.2
Property: Mole fraction of 6-methyl-1,3,5-triazine-2,4-diamine (Liquid); method: Chromatography
Temperature, K	Mole fraction of 6-methyl-1,3,5-triazine-2,4-diamine	uncertainty
283.15	9.523e-05	4.35e-06
288.15	0.0001167	5.3e-06
293.15	0.0001406	6.4e-06
298.15	0.0001798	8.2e-06
303.15	0.0002285	1.04e-05
308.15	0.0002871	1.31e-05
313.15	0.0003453	1.58e-05
318.15	0.000426	1.95e-05
323.15	0.0005234	2.39e-05

System: 6-methyl-1,3,5-triazine-2,4-diamine + 1,2-ethanediol; phases: Liquid, Crystal of intercomponent compound 1
Fixed: Pressure, kPa = 101.2
Property: Mole fraction of 6-methyl-1,3,5-triazine-2,4-diamine (Liquid); method: Chromatography
Temperature, K	Mole fraction of 6-methyl-1,3,5-triazine-2,4-diamine	uncertainty
283.15	0.0007965	3.64e-05
288.15	0.0009354	4.27e-05
293.15	0.001089	5e-05
298.15	0.001213	5.5e-05
303.15	0.001446	6.6e-05
308.15	0.00164	7.5e-05
313.15	0.001934	8.8e-05
318.15	0.002245	0.000103
323.15	0.002593	0.000118

System: 6-methyl-1,3,5-triazine-2,4-diamine + dimethylformamide; phases: Liquid, Crystal of intercomponent compound 1
Fixed: Pressure, kPa = 101.2
Property: Mole fraction of 6-methyl-1,3,5-triazine-2,4-diamine (Liquid); method: Chromatography
Temperature, K	Mole fraction of 6-methyl-1,3,5-triazine-2,4-diamine	uncertainty
283.15	0.001025	4.7e-05
288.15	0.001196	5.5e-05
293.15	0.001334	6.1e-05
298.15	0.001505	6.9e-05
303.15	0.001796	8.2e-05
308.15	0.002093	9.6e-05
313.15	0.002474	0.000113
318.15	0.002833	0.000129
323.15	0.003251	0.000148

System: 6-methyl-1,3,5-triazine-2,4-diamine + 1,4-dioxane; phases: Liquid, Crystal
Fixed: Pressure, kPa = 101.2
Property: Mole fraction of 6-methyl-1,3,5-triazine-2,4-diamine (Liquid); method: Chromatography
Temperature, K	Mole fraction of 6-methyl-1,3,5-triazine-2,4-diamine	uncertainty
283.15	0.0005839	2.67e-05
288.15	0.0006759	3.09e-05
293.15	0.0007821	3.57e-05
298.15	0.0008987	4.1e-05
303.15	0.001074	4.9e-05
308.15	0.00126	5.8e-05
313.15	0.00152	6.9e-05
318.15	0.001771	8.1e-05
323.15	0.002048	9.4e-05

System: 6-methyl-1,3,5-triazine-2,4-diamine + ethyl acetate; phases: Liquid, Crystal
Fixed: Pressure, kPa = 101.2
Property: Mole fraction of 6-methyl-1,3,5-triazine-2,4-diamine (Liquid); method: Chromatography
Temperature, K	Mole fraction of 6-methyl-1,3,5-triazine-2,4-diamine	uncertainty
283.15	0.0006706	3.06e-05
288.15	0.0007803	3.56e-05
293.15	0.0009279	4.24e-05
298.15	0.001044	4.8e-05
303.15	0.001254	5.7e-05
308.15	0.00142	6.5e-05
313.15	0.001707	7.8e-05
318.15	0.001977	9e-05
323.15	0.002294	0.000105

System: 6-methyl-1,3,5-triazine-2,4-diamine + water; phases: Liquid, Crystal
Fixed: Pressure, kPa = 101.2
Property: Mole fraction of 6-methyl-1,3,5-triazine-2,4-diamine (Liquid); method: Chromatography
Temperature, K	Mole fraction of 6-methyl-1,3,5-triazine-2,4-diamine	uncertainty
283.15	0.0001218	5.6e-06
288.15	0.0001459	6.7e-06
293.15	0.0001821	8.3e-06
298.15	0.000228	1.04e-05
303.15	0.000285	1.3e-05
308.15	0.0003615	1.65e-05
313.15	0.0004261	1.95e-05
318.15	0.0005212	2.38e-05
323.15	0.0006325	2.89e-05
