Measured thermophysical data. Solubility Measurement and Correlation of (+)-Biotin Intermediate Lactone in Different Organic Solvents from (287.15 to 323.75) K
Source: J. Chem. Eng. Data, 2016, 10.1021/acs.jced.5b00857
Compound 1: (3aS,6aR)-1,3-dibenzyltetrahydro-1H-furo[3,4-d]imidazole-2,4-dione, C19H18N2O3, InChI=1S/C19H18N2O3/c22-18-17-16(13-24-18)20(11-14-7-3-1-4-8-14)19(23)21(17)12-15-9-5-2-6-10-15/h1-10,16-17H,11-13H2/t16-,17-/m0/s1
Compound 2: methanol, CH4O, InChI=1S/CH4O/c1-2/h2H,1H3
Compound 3: toluene, C7H8, InChI=1S/C7H8/c1-7-5-3-2-4-6-7/h2-6H,1H3
Compound 4: ethyl acetate, C4H8O2, InChI=1S/C4H8O2/c1-3-6-4(2)5/h3H2,1-2H3
Compound 5: tetrahydrofuran, C4H8O, InChI=1S/C4H8O/c1-2-4-5-3-1/h1-4H2
Compound 6: dichloromethane, CH2Cl2, InChI=1S/CH2Cl2/c2-1-3/h1H2
Compound 7: dimethylformamide, C3H7NO, InChI=1S/C3H7NO/c1-4(2)3-5/h3H,1-2H3

System: (3aS,6aR)-1,3-dibenzyltetrahydro-1H-furo[3,4-d]imidazole-2,4-dione; phases: Crystal, Liquid, Air at 1 atmosphere
Property: Normal melting temperature, K (Crystal); method: DTA
Normal melting temperature, K	uncertainty
391.85	1.1

System: (3aS,6aR)-1,3-dibenzyltetrahydro-1H-furo[3,4-d]imidazole-2,4-dione; phases: Crystal, Liquid, Air at 1 atmosphere
Property: Molar enthalpy of transition or fusion, kJ/mol (Crystal); method: DSC
Molar enthalpy of transition or fusion, kJ/mol	uncertainty
30.29	1.92

System: methanol + (3aS,6aR)-1,3-dibenzyltetrahydro-1H-furo[3,4-d]imidazole-2,4-dione; phases: Liquid, Crystal
Fixed: Pressure, kPa = 100
Property: Mole fraction of (3aS,6aR)-1,3-dibenzyltetrahydro-1H-furo[3,4-d]imidazole-2,4-dione (Liquid); method: Titration method
Temperature, K	Mole fraction of (3aS,6aR)-1,3-dibenzyltetrahydro-1H-furo[3,4-d]imidazole-2,4-dione	uncertainty
287.15	0.0034	0.0001
293.15	0.0049	0.0001
298.15	0.0067	0.0001
303.25	0.0088	0.0002
308.05	0.0119	0.0002
313.45	0.016	0.0003
318.15	0.0211	0.0004

System: toluene + (3aS,6aR)-1,3-dibenzyltetrahydro-1H-furo[3,4-d]imidazole-2,4-dione; phases: Liquid, Crystal
Fixed: Pressure, kPa = 100
Property: Mole fraction of (3aS,6aR)-1,3-dibenzyltetrahydro-1H-furo[3,4-d]imidazole-2,4-dione (Liquid); method: Titration method
Temperature, K	Mole fraction of (3aS,6aR)-1,3-dibenzyltetrahydro-1H-furo[3,4-d]imidazole-2,4-dione	uncertainty
291.15	0.0073	0.0002
298.15	0.0101	0.0002
303.05	0.0125	0.0003
308.65	0.0157	0.0003
313.25	0.0197	0.0004
317.95	0.0242	0.0005
323.75	0.0316	0.0006

System: ethyl acetate + (3aS,6aR)-1,3-dibenzyltetrahydro-1H-furo[3,4-d]imidazole-2,4-dione; phases: Liquid, Crystal
Fixed: Pressure, kPa = 100
Property: Mole fraction of (3aS,6aR)-1,3-dibenzyltetrahydro-1H-furo[3,4-d]imidazole-2,4-dione (Liquid); method: Titration method
Temperature, K	Mole fraction of (3aS,6aR)-1,3-dibenzyltetrahydro-1H-furo[3,4-d]imidazole-2,4-dione	uncertainty
293.65	0.0221	0.0004
298.35	0.0271	0.0005
304.15	0.0332	0.0007
308.25	0.0391	0.0008
314.15	0.0487	0.001
318.15	0.0576	0.0012
323.75	0.0716	0.0014

System: tetrahydrofuran + (3aS,6aR)-1,3-dibenzyltetrahydro-1H-furo[3,4-d]imidazole-2,4-dione; phases: Liquid, Crystal
Fixed: Pressure, kPa = 100
Property: Mole fraction of (3aS,6aR)-1,3-dibenzyltetrahydro-1H-furo[3,4-d]imidazole-2,4-dione (Liquid); method: Titration method
Temperature, K	Mole fraction of (3aS,6aR)-1,3-dibenzyltetrahydro-1H-furo[3,4-d]imidazole-2,4-dione	uncertainty
293.35	0.074	0.0015
298.15	0.0845	0.0017
303.15	0.0971	0.002
308.15	0.1106	0.0022
313.05	0.1258	0.0025
318.15	0.1425	0.0029
323.25	0.1649	0.0033

System: dichloromethane + (3aS,6aR)-1,3-dibenzyltetrahydro-1H-furo[3,4-d]imidazole-2,4-dione; phases: Liquid, Crystal
Fixed: Pressure, kPa = 100
Property: Mole fraction of (3aS,6aR)-1,3-dibenzyltetrahydro-1H-furo[3,4-d]imidazole-2,4-dione (Liquid); method: Titration method
Temperature, K	Mole fraction of (3aS,6aR)-1,3-dibenzyltetrahydro-1H-furo[3,4-d]imidazole-2,4-dione	uncertainty
293.25	0.1213	0.0024
296.45	0.1271	0.0026
299.35	0.1322	0.0027
302.25	0.1375	0.0028
305.45	0.1438	0.0029
308.15	0.149	0.003
311.35	0.1555	0.0031

System: dimethylformamide + (3aS,6aR)-1,3-dibenzyltetrahydro-1H-furo[3,4-d]imidazole-2,4-dione; phases: Liquid, Crystal
Fixed: Pressure, kPa = 100
Property: Mole fraction of (3aS,6aR)-1,3-dibenzyltetrahydro-1H-furo[3,4-d]imidazole-2,4-dione (Liquid); method: Titration method
Temperature, K	Mole fraction of (3aS,6aR)-1,3-dibenzyltetrahydro-1H-furo[3,4-d]imidazole-2,4-dione	uncertainty
293.15	0.1503	0.003
298.15	0.1632	0.0033
303.15	0.1795	0.0036
308.15	0.1957	0.0039
312.65	0.2112	0.0042
316.05	0.2235	0.0045
320.35	0.2417	0.0049
