Measured thermophysical data. Density, Viscosity, and CO2 Solubility in the Ionic Liquid Mixtures of [bmim][PF6] and [bmim][TFSA] at 313.15 K
Source: J. Chem. Eng. Data, 2018, 10.1021/acs.jced.7b00786
Compound 1: 1-butyl-3-methylimidazolium hexafluorophosphate, C8H15F6N2P, InChI=1S/C8H15N2.F6P/c1-3-4-5-10-7-6-9(2)8-10;1-7(2,3,4,5)6/h6-8H,3-5H2,1-2H3;/q+1;-1, purity 99%
Compound 2: 1-butyl-3-methylimidazolium bis(trifluoromethylsulfonyl)imide, C10H15F6N3O4S2, InChI=1S/C8H15N2.C2F6NO4S2/c1-3-4-5-10-7-6-9(2)8-10;3-1(4,5)14(10,11)9-15(12,13)2(6,7)8/h6-8H,3-5H2,1-2H3;/q+1;-1, purity 99%
Compound 3: carbon dioxide, CO2, InChI=1S/CO2/c2-1-3

System: 1-butyl-3-methylimidazolium hexafluorophosphate; phases: Liquid
Property: Mass density, kg/m3 (Liquid); method: Vibrating tube method
Temperature, K	Pressure, kPa	Mass density, kg/m3	uncertainty
313.15	101.325	1354.66	1.44

System: 1-butyl-3-methylimidazolium hexafluorophosphate; phases: Liquid
Property: Viscosity, Pa*s (Liquid); method: Concentric cylinders viscometry
Temperature, K	Pressure, kPa	Viscosity, Pa*s	uncertainty
313.15	101.325	0.1207	0.0028

System: 1-butyl-3-methylimidazolium bis(trifluoromethylsulfonyl)imide; phases: Liquid
Property: Mass density, kg/m3 (Liquid); method: Vibrating tube method
Temperature, K	Pressure, kPa	Mass density, kg/m3	uncertainty
313.15	101.325	1421.74	1.52

System: 1-butyl-3-methylimidazolium bis(trifluoromethylsulfonyl)imide; phases: Liquid
Property: Viscosity, Pa*s (Liquid); method: Concentric cylinders viscometry
Temperature, K	Pressure, kPa	Viscosity, Pa*s	uncertainty
313.15	101.325	0.02856	0.0006

System: carbon dioxide; phases: Gas
Fixed: Temperature, K = 313.15
Property: Mass density, kg/m3 (Gas); method: Vibrating tube method
Pressure, kPa	Mass density, kg/m3	uncertainty
2167	39.8	2
2929	56.5	2
3745	75.9	2
4269	90.1	2
4959	110.5	2
5841	142.5	2
6517	171.7	2
7334	218.9	2
8243	309.5	2
2078	38.1	2
2775	53.5	2
3531	71.7	2
4011	84.7	2
4650	102	2
5721	137.9	2
6520	172.2	2
7344	219	2
8477	348.9	2.1
1990	36.5	2
2649	51.9	2
3164	62.5	2
4151	88.2	2
5114	116.6	2
5861	143.6	2
6587	175.5	2
7234	212.7	2
8247	310.8	2
2035	37.5	2
2694	52.2	2
3479	70.4	2
3936	82.1	2
4538	98.9	2
5712	137.4	2
6490	170.5	2
7470	228.6	2
8560	371.5	2.1
1303	22.6	2
1712	30.6	2
2409	47.3	2
3151	64	2
3531	70.1	2
4832	107.1	2
6055	151	2
7364	220.1	2
8487	345.8	2.1

System: 1-butyl-3-methylimidazolium hexafluorophosphate + 1-butyl-3-methylimidazolium bis(trifluoromethylsulfonyl)imide; phases: Liquid
Fixed: Pressure, kPa = 100
Fixed: Temperature, K = 313.15
Property: Mass density, kg/m3 (Liquid); method: Vibrating tube method
Mole fraction of 1-butyl-3-methylimidazolium hexafluorophosphate	Mass density, kg/m3	uncertainty
0.75	1375.92	1.47
0.5	1393.67	1.49
0.25	1408.71	1.51

System: 1-butyl-3-methylimidazolium hexafluorophosphate + 1-butyl-3-methylimidazolium bis(trifluoromethylsulfonyl)imide; phases: Liquid
Fixed: Pressure, kPa = 100
Fixed: Temperature, K = 313.15
Property: Viscosity, Pa*s (Liquid); method: Concentric cylinders viscometry
Mole fraction of 1-butyl-3-methylimidazolium hexafluorophosphate	Viscosity, Pa*s	uncertainty
0.75	0.07317	0.00156
0.5	0.04977	0.00104
0.25	0.03648	0.00076

System: 1-butyl-3-methylimidazolium hexafluorophosphate + 1-butyl-3-methylimidazolium bis(trifluoromethylsulfonyl)imide + carbon dioxide; phases: Liquid, Gas
Fixed: Temperature, K = 313.15
Property: Mole fraction of carbon dioxide (Liquid); method: Phase equilibration
Solvent: Mole fraction of 1-butyl-3-methylimidazolium hexafluorophosphate	Pressure, kPa	Mole fraction of carbon dioxide	uncertainty
1	2167	0.236	0.005
1	2929	0.294	0.006
1	3745	0.353	0.007
1	4269	0.383	0.008
1	4959	0.42	0.009
1	5841	0.455	0.01
1	6517	0.487	0.01
1	7334	0.519	0.01
1	8243	0.548	0.009
0.75	2078	0.258	0.005
0.75	2775	0.318	0.007
0.75	3531	0.373	0.008
0.75	4011	0.404	0.008
0.75	4650	0.449	0.009
0.75	5721	0.501	0.01
0.75	6520	0.537	0.01
0.75	7344	0.568	0.009
0.75	8477	0.611	0.008
0.5	1990	0.274	0.006
0.5	2649	0.33	0.007
0.5	3164	0.38	0.008
0.5	4151	0.452	0.009
0.5	5114	0.51	0.01
0.5	5861	0.549	0.009
0.5	6587	0.579	0.009
0.5	7234	0.605	0.008
0.5	8247	0.642	0.008
0.25	2035	0.296	0.006
0.25	2694	0.36	0.008
0.25	3479	0.431	0.009
0.25	3936	0.468	0.01
0.25	4538	0.51	0.01
0.25	5712	0.568	0.009
0.25	6490	0.604	0.008
0.25	7470	0.643	0.008
0.25	8560	0.675	0.007
0	1303	0.222	0.005
0	1712	0.276	0.006
0	2409	0.364	0.008
0	3151	0.441	0.009
0	3531	0.472	0.01
0	4832	0.55	0.009
0	6055	0.616	0.008
0	7364	0.664	0.007
0	8487	0.712	0.006

System: 1-butyl-3-methylimidazolium hexafluorophosphate + 1-butyl-3-methylimidazolium bis(trifluoromethylsulfonyl)imide + carbon dioxide; phases: Liquid
Fixed: Temperature, K = 313.15
Property: Mass density, kg/m3 (Liquid); method: Vibrating tube method
Solvent: Mole fraction of 1-butyl-3-methylimidazolium hexafluorophosphate	Pressure, kPa	Mole fraction of carbon dioxide	Mass density, kg/m3	uncertainty
1	2167	0.236	1341.5	2.7
1	2929	0.294	1338	2.7
1	3745	0.353	1334.9	2.7
1	4269	0.383	1332.5	2.7
1	4959	0.42	1329.4	2.7
1	5841	0.455	1327.2	2.7
1	6517	0.487	1324.3	2.7
1	7334	0.519	1321.3	2.7
1	8243	0.548	1318.4	2.7
0.75	2078	0.258	1362.1	2.7
0.75	2775	0.318	1357.6	2.7
0.75	3531	0.373	1353.2	2.7
0.75	4011	0.404	1350.2	2.7
0.75	4650	0.449	1345.9	2.7
0.75	5721	0.501	1334.9	2.7
0.75	6520	0.537	1332.8	2.7
0.75	7344	0.568	1328.8	2.7
0.75	8477	0.611	1325	2.7
0.5	1990	0.274	1378.1	2.8
0.5	2649	0.33	1372.7	2.8
0.5	3164	0.38	1369.1	2.8
0.5	4151	0.452	1361	2.7
0.5	5114	0.51	1352.3	2.7
0.5	5861	0.549	1343.6	2.7
0.5	6587	0.579	1339	2.7
0.5	7234	0.605	1334.9	2.7
0.5	8247	0.642	1330.6	2.7
0.25	2035	0.296	1390.5	2.8
0.25	2694	0.36	1384.2	2.8
0.25	3479	0.431	1376	2.8
0.25	3936	0.468	1371.3	2.8
0.25	4538	0.51	1365.6	2.8
0.25	5712	0.568	1354.2	2.7
0.25	6490	0.604	1345.9	2.7
0.25	7470	0.643	1339.5	2.7
0.25	8560	0.675	1332.9	2.7
0	1303	0.222	1409.1	2.8
0	1712	0.276	1404.9	2.8
0	2409	0.364	1397.4	2.8
0	3151	0.441	1389.7	2.8
0	3531	0.472	1386.2	2.8
0	4832	0.55	1372.4	2.8
0	6055	0.616	1357.8	2.7
0	7364	0.664	1345.9	2.7
0	8487	0.712	1336.8	2.7

System: 1-butyl-3-methylimidazolium hexafluorophosphate + carbon dioxide; phases: Liquid, Gas
Fixed: Temperature, K = 313.15
Property: Vapor or sublimation pressure, kPa (Liquid); method: Closed cell (Static) method
Mole fraction of carbon dioxide	Vapor or sublimation pressure, kPa	uncertainty
0.236	2167	63
0.294	2929	80
0.353	3745	106
0.383	4269	140
0.42	4959	184
0.455	5841	213
0.487	6517	228
0.519	7334	273
0.548	8243	285

System: 1-butyl-3-methylimidazolium hexafluorophosphate + carbon dioxide; phases: Liquid
Fixed: Temperature, K = 313.15
Property: Mass density, kg/m3 (Liquid); method: Vibrating tube method
Pressure, kPa	Mole fraction of carbon dioxide	Mass density, kg/m3	uncertainty
2167	0.236	1341.5	2.7
2929	0.294	1338	2.7
3745	0.353	1334.9	2.7
4269	0.383	1332.5	2.7
4959	0.42	1329.4	2.7
5841	0.455	1327.2	2.7
6517	0.487	1324.3	2.7
7334	0.519	1321.3	2.7
8243	0.548	1318.4	2.7

System: 1-butyl-3-methylimidazolium bis(trifluoromethylsulfonyl)imide + carbon dioxide; phases: Liquid, Gas
Fixed: Temperature, K = 313.15
Property: Vapor or sublimation pressure, kPa (Liquid); method: Closed cell (Static) method
Mole fraction of carbon dioxide	Vapor or sublimation pressure, kPa	uncertainty
0.222	1303	34
0.276	1712	43
0.364	2409	64
0.441	3151	91
0.472	3531	148
0.55	4832	158
0.616	6055	170
0.664	7364	172
0.712	8487	138

System: 1-butyl-3-methylimidazolium bis(trifluoromethylsulfonyl)imide + carbon dioxide; phases: Liquid
Fixed: Temperature, K = 313.15
Property: Mass density, kg/m3 (Liquid); method: Vibrating tube method
Pressure, kPa	Mole fraction of carbon dioxide	Mass density, kg/m3	uncertainty
1303	0.222	1409.1	2.8
1712	0.276	1404.9	2.8
2409	0.364	1397.4	2.8
3151	0.441	1389.7	2.8
3531	0.472	1386.2	2.8
4832	0.55	1372.4	2.8
6055	0.616	1357.8	2.7
7364	0.664	1345.9	2.7
8487	0.712	1336.8	2.7
