Measured thermophysical data. Experimental Phase Equilibrium Data for Rotenone in Supercritical Carbon Dioxide
Source: J. Chem. Eng. Data, 2019, 10.1021/acs.jced.8b01165
Compound 1: 2,6a,12,12a-tetrahydro-8,9-dimethoxy-2-(1-methylethenyl)-[1]benzopyrano[3,4-b]furo[2,3-h][1]benzopyran-6(1H)-one, C23H22O6, InChI=1S/C23H22O6/c1-11(2)16-8-14-15(28-16)6-5-12-22(24)21-13-7-18(25-3)19(26-4)9-17(13)27-10-20(21)29-23(12)14/h5-7,9,16,20-21H,1,8,10H2,2-4H3, purity 95%
Compound 2: carbon dioxide, CO2, InChI=1S/CO2/c2-1-3, purity 99.9%
Compound 3: water, H2O, InChI=1S/H2O/h1H2, purity 99.9%

System: 2,6a,12,12a-tetrahydro-8,9-dimethoxy-2-(1-methylethenyl)-[1]benzopyrano[3,4-b]furo[2,3-h][1]benzopyran-6(1H)-one; phases: Crystal, Liquid, Air at 1 atmosphere
Property: Molar enthalpy of transition or fusion, kJ/mol (Crystal); method: DSC
Molar enthalpy of transition or fusion, kJ/mol	uncertainty
28.457199537	0.847996937

System: 2,6a,12,12a-tetrahydro-8,9-dimethoxy-2-(1-methylethenyl)-[1]benzopyrano[3,4-b]furo[2,3-h][1]benzopyran-6(1H)-one; phases: Crystal, Liquid, Air at 1 atmosphere
Property: Triple point temperature, K (Crystal); method: DSC
Triple point temperature, K	uncertainty
435.89	1

System: 2,6a,12,12a-tetrahydro-8,9-dimethoxy-2-(1-methylethenyl)-[1]benzopyrano[3,4-b]furo[2,3-h][1]benzopyran-6(1H)-one + water + carbon dioxide; phases: Fluid (supercritical or subcritical phases), Crystal
Fixed: Solvent: Mole fraction of water = 0.41
Property: Vapor or sublimation pressure, kPa (Fluid (supercritical or subcritical phases)); method: Closed cell (Static) method
Temperature, K	Mole fraction of 2,6a,12,12a-tetrahydro-8,9-dimethoxy-2-(1-methylethenyl)-[1]benzopyrano[3,4-b]furo[2,3-h][1]benzopyran-6(1H)-one	Vapor or sublimation pressure, kPa	uncertainty
303	1.01e-05	8530	180
303	1.49e-05	10540	250
303	2e-05	12160	350
303	2.5e-05	13930	280
303	2.75e-05	14600	160
313	1.01e-05	10050	190
313	1.49e-05	11750	270
313	2e-05	13610	200
313	2.5e-05	14550	260
313	2.75e-05	15530	180
323	1.01e-05	11950	370
323	1.49e-05	13430	400
323	2e-05	15180	270
323	2.5e-05	16240	250
323	2.75e-05	16910	210
333	1.01e-05	13850	220
333	1.49e-05	14980	200
333	2e-05	16390	190
333	2.5e-05	17270	220
333	2.75e-05	17920	190
343	1.01e-05	15340	210
343	1.49e-05	16390	200
343	2e-05	17450	220
343	2.5e-05	18260	340
343	2.75e-05	18910	210
