Measured thermophysical data. Investigation of Molecular Interactions in Binary Mixtures of n-Butyl Acetate and (C6 - C10) 1-Alkanol: PC-SAFT Model
Source: J. Chem. Eng. Data, 2018, 10.1021/acs.jced.8b00524
Compound 1: butyl ethanoate, C6H12O2, InChI=1S/C6H12O2/c1-3-4-5-8-6(2)7/h3-5H2,1-2H3, purity 99.5%
Compound 2: hexan-1-ol, C6H14O, InChI=1S/C6H14O/c1-2-3-4-5-6-7/h7H,2-6H2,1H3, purity 99.5%
Compound 3: heptan-1-ol, C7H16O, InChI=1S/C7H16O/c1-2-3-4-5-6-7-8/h8H,2-7H2,1H3, purity 99.5%
Compound 4: octan-1-ol, C8H18O, InChI=1S/C8H18O/c1-2-3-4-5-6-7-8-9/h9H,2-8H2,1H3, purity 99.6%
Compound 5: nonan-1-ol, C9H20O, InChI=1S/C9H20O/c1-2-3-4-5-6-7-8-9-10/h10H,2-9H2,1H3, purity 99.7%
Compound 6: decan-1-ol, C10H22O, InChI=1S/C10H22O/c1-2-3-4-5-6-7-8-9-10-11/h11H,2-10H2,1H3, purity 99.5%

System: butyl ethanoate; phases: Liquid
Fixed: Pressure, kPa = 100
Property: Mass density, kg/m3 (Liquid); method: Vibrating tube method
Temperature, K	Mass density, kg/m3	uncertainty
293.15	881.1	10
298.15	876	10
303.15	870.9	10
308.15	865.7	10
313.15	860.5	10
318.15	855.3	10
323.15	850.1	10

System: butyl ethanoate; phases: Liquid
Fixed: Pressure, kPa = 100
Property: Viscosity, Pa*s (Liquid); method: Concentric cylinders viscometry
Temperature, K	Viscosity, Pa*s	uncertainty
293.15	0.000732	3.7e-05
298.15	0.000677	3.4e-05
303.15	0.000628	3.2e-05
308.15	0.000585	3e-05
313.15	0.000546	2.8e-05
318.15	0.000512	2.6e-05
323.15	0.000485	2.5e-05

System: hexan-1-ol; phases: Liquid
Fixed: Pressure, kPa = 100
Property: Mass density, kg/m3 (Liquid); method: Vibrating tube method
Temperature, K	Mass density, kg/m3	uncertainty
293.15	818.7	10
298.15	815.1	10
303.15	811.5	10
308.15	807.9	10
313.15	804.2	10
318.15	800.6	10
323.15	796.8	10

System: hexan-1-ol; phases: Liquid
Fixed: Pressure, kPa = 100
Property: Viscosity, Pa*s (Liquid); method: Concentric cylinders viscometry
Temperature, K	Viscosity, Pa*s	uncertainty
293.15	0.00537	0.00027
298.15	0.00458	0.00023
303.15	0.00394	0.0002
308.15	0.0034	0.00017
313.15	0.00295	0.00015
318.15	0.00258	0.00013
323.15	0.00226	0.00011

System: heptan-1-ol; phases: Liquid
Fixed: Pressure, kPa = 100
Property: Mass density, kg/m3 (Liquid); method: Vibrating tube method
Temperature, K	Mass density, kg/m3	uncertainty
293.15	822.2	10
298.15	818.7	10
303.15	815.2	10
308.15	811.6	10
313.15	808	10
318.15	804.4	10
323.15	800.7	10

System: heptan-1-ol; phases: Liquid
Fixed: Pressure, kPa = 100
Property: Viscosity, Pa*s (Liquid); method: Concentric cylinders viscometry
Temperature, K	Viscosity, Pa*s	uncertainty
293.15	0.00703	0.00035
298.15	0.00592	0.0003
303.15	0.00503	0.00025
308.15	0.0043	0.00022
313.15	0.00371	0.00019
318.15	0.00321	0.00016
323.15	0.00279	0.00014

System: octan-1-ol; phases: Liquid
Fixed: Pressure, kPa = 100
Property: Mass density, kg/m3 (Liquid); method: Vibrating tube method
Temperature, K	Mass density, kg/m3	uncertainty
293.15	824.9	10
298.15	821.4	10
303.15	817.9	10
308.15	814.4	10
313.15	810.9	10
318.15	807.3	10
323.15	803.7	10

System: octan-1-ol; phases: Liquid
Fixed: Pressure, kPa = 100
Property: Viscosity, Pa*s (Liquid); method: Concentric cylinders viscometry
Temperature, K	Viscosity, Pa*s	uncertainty
293.15	0.00913	0.00046
298.15	0.00762	0.00038
303.15	0.00641	0.00032
308.15	0.00543	0.00027
313.15	0.00463	0.00023
318.15	0.00398	0.0002
323.15	0.00344	0.00017

System: nonan-1-ol; phases: Liquid
Fixed: Pressure, kPa = 100
Property: Mass density, kg/m3 (Liquid); method: Vibrating tube method
Temperature, K	Mass density, kg/m3	uncertainty
293.15	827.5	10
298.15	824	10
303.15	820.5	10
308.15	817.1	10
313.15	813.6	10
318.15	810.1	10
323.15	806.5	10

System: nonan-1-ol; phases: Liquid
Fixed: Pressure, kPa = 100
Property: Viscosity, Pa*s (Liquid); method: Concentric cylinders viscometry
Temperature, K	Viscosity, Pa*s	uncertainty
293.15	0.01141	0.00057
298.15	0.00943	0.00047
303.15	0.00786	0.00039
308.15	0.00661	0.00033
313.15	0.00559	0.00028
318.15	0.00478	0.00024
323.15	0.0041	0.00021

System: decan-1-ol; phases: Liquid
Fixed: Pressure, kPa = 100
Property: Mass density, kg/m3 (Liquid); method: Vibrating tube method
Temperature, K	Mass density, kg/m3	uncertainty
293.15	829.5	10
298.15	826.1	10
303.15	822.7	10
308.15	819.3	10
313.15	815.8	10
318.15	812.4	10
323.15	808.9	10

System: decan-1-ol; phases: Liquid
Fixed: Pressure, kPa = 100
Property: Viscosity, Pa*s (Liquid); method: Concentric cylinders viscometry
Temperature, K	Viscosity, Pa*s	uncertainty
293.15	0.01442	0.00072
298.15	0.0118	0.00059
303.15	0.00976	0.00049
308.15	0.00814	0.00041
313.15	0.00684	0.00034
318.15	0.0058	0.00029
323.15	0.00496	0.00025

System: butyl ethanoate + hexan-1-ol; phases: Liquid
Fixed: Pressure, kPa = 100
Property: Mass density, kg/m3 (Liquid); method: Vibrating tube method
Temperature, K	Mole fraction of butyl ethanoate	Mass density, kg/m3	uncertainty
293.15	0	818.7	10
293.15	0.0811	823.6	10
293.15	0.1602	828.4	10
293.15	0.2398	833.3	10
293.15	0.3507	840.1	10
293.15	0.4402	845.7	10
293.15	0.5596	853.1	10
293.15	0.6504	858.9	10
293.15	0.7398	864.5	10
293.15	0.8507	871.6	10
293.15	0.9397	877.2	10
293.15	1	881.1	10
298.15	0	815.1	10
298.15	0.0811	819.8	10
298.15	0.1602	824.4	10
298.15	0.2398	829.1	10
298.15	0.3507	835.8	10
298.15	0.4402	841.2	10
298.15	0.5596	848.5	10
298.15	0.6504	854	10
298.15	0.7398	859.6	10
298.15	0.8507	866.5	10
298.15	0.9397	872.1	10
298.15	1	876	10
303.15	0	811.5	10
303.15	0.0811	815.9	10
303.15	0.1602	820.3	10
303.15	0.2398	824.8	10
303.15	0.3507	831.2	10
303.15	0.4402	836.5	10
303.15	0.5596	843.6	10
303.15	0.6504	849.1	10
303.15	0.7398	854.5	10
303.15	0.8507	861.3	10
303.15	0.9397	866.9	10
303.15	1	870.9	10
308.15	0	807.9	10
308.15	0.0811	812	10
308.15	0.1602	816.2	10
308.15	0.2398	820.6	10
308.15	0.3507	826.7	10
308.15	0.4402	831.8	10
308.15	0.5596	838.7	10
308.15	0.6504	844	10
308.15	0.7398	849.4	10
308.15	0.8507	856.2	10
308.15	0.9397	861.7	10
308.15	1	865.7	10
313.15	0	804.2	10
313.15	0.0811	808	10
313.15	0.1602	811.9	10
313.15	0.2398	816	10
313.15	0.3507	821.8	10
313.15	0.4402	826.7	10
313.15	0.5596	833.5	10
313.15	0.6504	838.8	10
313.15	0.7398	844.1	10
313.15	0.8507	850.9	10
313.15	0.9397	856.4	10
313.15	1	860.5	10
318.15	0	800.6	10
318.15	0.0811	804.2	10
318.15	0.1602	807.9	10
318.15	0.2398	811.7	10
318.15	0.3507	817.4	10
318.15	0.4402	822.1	10
318.15	0.5596	828.6	10
318.15	0.6504	833.8	10
318.15	0.7398	839	10
318.15	0.8507	845.7	10
318.15	0.9397	851.2	10
318.15	1	855.3	10
323.15	0	796.8	10
323.15	0.0811	800.1	10
323.15	0.1602	803.5	10
323.15	0.2398	807.2	10
323.15	0.3507	812.5	10
323.15	0.4402	817.1	10
323.15	0.5596	823.5	10
323.15	0.6504	828.6	10
323.15	0.7398	833.8	10
323.15	0.8507	840.4	10
323.15	0.9397	846	10
323.15	1	850.1	10

System: butyl ethanoate + hexan-1-ol; phases: Liquid
Fixed: Pressure, kPa = 100
Property: Viscosity, Pa*s (Liquid); method: Concentric cylinders viscometry
Temperature, K	Mole fraction of butyl ethanoate	Viscosity, Pa*s	uncertainty
293.15	0	0.00537	0.00027
293.15	0.0811	0.0047	0.00024
293.15	0.1602	0.00414	0.00021
293.15	0.2398	0.00364	0.00018
293.15	0.3507	0.00304	0.00015
293.15	0.4402	0.00263	0.00013
293.15	0.5596	0.00216	0.00011
293.15	0.6504	0.00184	9e-05
293.15	0.7398	0.00155	8e-05
293.15	0.8507	0.0012	6e-05
293.15	0.9397	0.00092	5e-05
293.15	1	0.000732	3.7e-05
298.15	0	0.00458	0.00023
298.15	0.0811	0.00399	0.0002
298.15	0.1602	0.0035	0.00018
298.15	0.2398	0.00306	0.00015
298.15	0.3507	0.00256	0.00013
298.15	0.4402	0.00222	0.00011
298.15	0.5596	0.00182	9e-05
298.15	0.6504	0.00156	8e-05
298.15	0.7398	0.00132	7e-05
298.15	0.8507	0.00105	5e-05
298.15	0.9397	0.00083	4e-05
298.15	1	0.000677	3.4e-05
303.15	0	0.00394	0.0002
303.15	0.0811	0.00341	0.00017
303.15	0.1602	0.00299	0.00015
303.15	0.2398	0.00261	0.00013
303.15	0.3507	0.00218	0.00011
303.15	0.4402	0.00189	0.0001
303.15	0.5596	0.00156	8e-05
303.15	0.6504	0.00134	7e-05
303.15	0.7398	0.00115	6e-05
303.15	0.8507	0.00093	5e-05
303.15	0.9397	0.00076	4e-05
303.15	1	0.000628	3.2e-05
308.15	0	0.0034	0.00017
308.15	0.0811	0.00294	0.00015
308.15	0.1602	0.00257	0.00013
308.15	0.2398	0.00224	0.00011
308.15	0.3507	0.00186	9e-05
308.15	0.4402	0.00161	8e-05
308.15	0.5596	0.00133	7e-05
308.15	0.6504	0.00116	6e-05
308.15	0.7398	0.001	5e-05
308.15	0.8507	0.00082	4e-05
308.15	0.9397	0.00069	4e-05
308.15	1	0.000585	3e-05
313.15	0	0.00295	0.00015
313.15	0.0811	0.00254	0.00013
313.15	0.1602	0.00221	0.00011
313.15	0.2398	0.00193	0.0001
313.15	0.3507	0.00161	8e-05
313.15	0.4402	0.00141	7e-05
313.15	0.5596	0.00118	6e-05
313.15	0.6504	0.00104	5e-05
313.15	0.7398	0.00092	5e-05
313.15	0.8507	0.00076	4e-05
313.15	0.9397	0.00063	3e-05
313.15	1	0.000546	2.8e-05
318.15	0	0.00258	0.00013
318.15	0.0811	0.00221	0.00011
318.15	0.1602	0.00192	0.0001
318.15	0.2398	0.00168	8e-05
318.15	0.3507	0.0014	7e-05
318.15	0.4402	0.00123	6e-05
318.15	0.5596	0.00105	5e-05
318.15	0.6504	0.00093	5e-05
318.15	0.7398	0.00083	4e-05
318.15	0.8507	0.0007	4e-05
318.15	0.9397	0.00059	3e-05
318.15	1	0.000512	2.6e-05
323.15	0	0.00226	0.00011
323.15	0.0811	0.00196	0.0001
323.15	0.1602	0.00171	9e-05
323.15	0.2398	0.00149	8e-05
323.15	0.3507	0.00125	6e-05
323.15	0.4402	0.00109	6e-05
323.15	0.5596	0.00093	5e-05
323.15	0.6504	0.00083	4e-05
323.15	0.7398	0.00075	4e-05
323.15	0.8507	0.00065	3e-05
323.15	0.9397	0.00056	3e-05
323.15	1	0.000485	2.5e-05

System: butyl ethanoate + heptan-1-ol; phases: Liquid
Fixed: Pressure, kPa = 100
Property: Mass density, kg/m3 (Liquid); method: Vibrating tube method
Temperature, K	Mole fraction of butyl ethanoate	Mass density, kg/m3	uncertainty
293.15	0	822.2	10
293.15	0.0819	826.3	10
293.15	0.1604	830.3	10
293.15	0.2399	834.5	10
293.15	0.3497	840.6	10
293.15	0.4399	845.7	10
293.15	0.5743	853.6	10
293.15	0.6496	858.2	10
293.15	0.7391	863.8	10
293.15	0.8491	870.9	10
293.15	0.9385	876.8	10
293.15	1	881.1	10
298.15	0	818.7	10
298.15	0.0819	822.6	10
298.15	0.1604	826.4	10
298.15	0.2399	830.5	10
298.15	0.3497	836.3	10
298.15	0.4399	841.3	10
298.15	0.5743	849	10
298.15	0.6496	853.5	10
298.15	0.7391	859	10
298.15	0.8491	865.9	10
298.15	0.9385	871.8	10
298.15	1	876	10
303.15	0	815.2	10
303.15	0.0819	818.8	10
303.15	0.1604	822.5	10
303.15	0.2399	826.3	10
303.15	0.3497	831.9	10
303.15	0.4399	836.7	10
303.15	0.5743	844.2	10
303.15	0.6496	848.6	10
303.15	0.7391	853.9	10
303.15	0.8491	860.8	10
303.15	0.9385	866.6	10
303.15	1	870.9	10
308.15	0	811.6	10
308.15	0.0819	815	10
308.15	0.1604	818.4	10
308.15	0.2399	822.1	10
308.15	0.3497	827.4	10
308.15	0.4399	832.1	10
308.15	0.5743	839.3	10
308.15	0.6496	843.6	10
308.15	0.7391	848.9	10
308.15	0.8491	855.7	10
308.15	0.9385	861.4	10
308.15	1	865.7	10
313.15	0	808	10
313.15	0.0819	811	10
313.15	0.1604	814.2	10
313.15	0.2399	817.6	10
313.15	0.3497	822.7	10
313.15	0.4399	827.1	10
313.15	0.5743	834.1	10
313.15	0.6496	838.3	10
313.15	0.7391	843.5	10
313.15	0.8491	850.3	10
313.15	0.9385	856	10
313.15	1	860.5	10
318.15	0	804.4	10
318.15	0.0819	807.2	10
318.15	0.1604	810.1	10
318.15	0.2399	813.3	10
318.15	0.3497	818.1	10
318.15	0.4399	822.3	10
318.15	0.5743	829.2	10
318.15	0.6496	833.3	10
318.15	0.7391	838.4	10
318.15	0.8491	845.1	10
318.15	0.9385	850.9	10
318.15	1	855.3	10
323.15	0	800.7	10
323.15	0.0819	803.2	10
323.15	0.1604	806	10
323.15	0.2399	808.9	10
323.15	0.3497	813.5	10
323.15	0.4399	817.6	10
323.15	0.5743	824.2	10
323.15	0.6496	828.2	10
323.15	0.7391	833.2	10
323.15	0.8491	839.9	10
323.15	0.9385	845.7	10
323.15	1	850.1	10

System: butyl ethanoate + heptan-1-ol; phases: Liquid
Fixed: Pressure, kPa = 100
Property: Viscosity, Pa*s (Liquid); method: Concentric cylinders viscometry
Temperature, K	Mole fraction of butyl ethanoate	Viscosity, Pa*s	uncertainty
293.15	0	0.00703	0.00035
293.15	0.0819	0.00617	0.00031
293.15	0.1604	0.00546	0.00027
293.15	0.2399	0.00481	0.00024
293.15	0.3497	0.00403	0.0002
293.15	0.4399	0.00347	0.00017
293.15	0.5743	0.00272	0.00014
293.15	0.6496	0.00234	0.00012
293.15	0.7391	0.00192	0.0001
293.15	0.8491	0.00141	7e-05
293.15	0.9385	0.00101	5e-05
293.15	1	0.000732	3.7e-05
298.15	0	0.00592	0.0003
298.15	0.0819	0.00517	0.00026
298.15	0.1604	0.00456	0.00023
298.15	0.2399	0.00399	0.0002
298.15	0.3497	0.00333	0.00017
298.15	0.4399	0.00286	0.00014
298.15	0.5743	0.00225	0.00011
298.15	0.6496	0.00195	0.0001
298.15	0.7391	0.00161	8e-05
298.15	0.8491	0.00122	6e-05
298.15	0.9385	0.0009	5e-05
298.15	1	0.000677	3.4e-05
303.15	0	0.00503	0.00025
303.15	0.0819	0.00437	0.00022
303.15	0.1604	0.00384	0.00019
303.15	0.2399	0.00335	0.00017
303.15	0.3497	0.00278	0.00014
303.15	0.4399	0.0024	0.00012
303.15	0.5743	0.00189	0.0001
303.15	0.6496	0.00165	8e-05
303.15	0.7391	0.00138	7e-05
303.15	0.8491	0.00106	5e-05
303.15	0.9385	0.00081	4e-05
303.15	1	0.000628	3.2e-05
308.15	0	0.0043	0.00022
308.15	0.0819	0.00373	0.00019
308.15	0.1604	0.00326	0.00016
308.15	0.2399	0.00284	0.00014
308.15	0.3497	0.00236	0.00012
308.15	0.4399	0.00203	0.0001
308.15	0.5743	0.00161	8e-05
308.15	0.6496	0.00141	7e-05
308.15	0.7391	0.00119	6e-05
308.15	0.8491	0.00094	5e-05
308.15	0.9385	0.00073	4e-05
308.15	1	0.000585	3e-05
313.15	0	0.00371	0.00019
313.15	0.0819	0.00319	0.00016
313.15	0.1604	0.00278	0.00014
313.15	0.2399	0.00242	0.00012
313.15	0.3497	0.00201	0.0001
313.15	0.4399	0.00174	9e-05
313.15	0.5743	0.0014	7e-05
313.15	0.6496	0.00123	6e-05
313.15	0.7391	0.00106	5e-05
313.15	0.8491	0.00085	4e-05
313.15	0.9385	0.00067	3e-05
313.15	1	0.000546	2.8e-05
318.15	0	0.00321	0.00016
318.15	0.0819	0.00275	0.00014
318.15	0.1604	0.0024	0.00012
318.15	0.2399	0.00208	0.0001
318.15	0.3497	0.00173	9e-05
318.15	0.4399	0.00149	8e-05
318.15	0.5743	0.00122	6e-05
318.15	0.6496	0.00109	6e-05
318.15	0.7391	0.00094	5e-05
318.15	0.8491	0.00077	4e-05
318.15	0.9385	0.00062	3e-05
318.15	1	0.000512	2.6e-05
323.15	0	0.00279	0.00014
323.15	0.0819	0.0024	0.00012
323.15	0.1604	0.00209	0.00011
323.15	0.2399	0.00181	9e-05
323.15	0.3497	0.0015	8e-05
323.15	0.4399	0.0013	7e-05
323.15	0.5743	0.00106	5e-05
323.15	0.6496	0.00095	5e-05
323.15	0.7391	0.00083	4e-05
323.15	0.8491	0.0007	4e-05
323.15	0.9385	0.00058	3e-05
323.15	1	0.000485	2.5e-05

System: butyl ethanoate + octan-1-ol; phases: Liquid
Fixed: Pressure, kPa = 100
Property: Mass density, kg/m3 (Liquid); method: Vibrating tube method
Temperature, K	Mole fraction of butyl ethanoate	Mass density, kg/m3	uncertainty
293.15	0	824.9	10
293.15	0.0809	828.3	10
293.15	0.1595	831.8	10
293.15	0.2399	835.5	10
293.15	0.3499	840.9	10
293.15	0.4399	845.6	10
293.15	0.5626	852.5	10
293.15	0.6499	857.6	10
293.15	0.7401	863.2	10
293.15	0.8499	870.4	10
293.15	0.9395	876.6	10
293.15	1	881.1	10
298.15	0	821.4	10
298.15	0.0809	824.6	10
298.15	0.1595	827.9	10
298.15	0.2399	831.5	10
298.15	0.3499	836.7	10
298.15	0.4399	841.3	10
298.15	0.5626	847.9	10
298.15	0.6499	853	10
298.15	0.7401	858.4	10
298.15	0.8499	865.5	10
298.15	0.9395	871.6	10
298.15	1	876	10
303.15	0	817.9	10
303.15	0.0809	820.8	10
303.15	0.1595	823.9	10
303.15	0.2399	827.4	10
303.15	0.3499	832.4	10
303.15	0.4399	836.8	10
303.15	0.5626	843.2	10
303.15	0.6499	848.1	10
303.15	0.7401	853.4	10
303.15	0.8499	860.3	10
303.15	0.9395	866.4	10
303.15	1	870.9	10
308.15	0	814.4	10
308.15	0.0809	817.1	10
308.15	0.1595	820.1	10
308.15	0.2399	823.4	10
308.15	0.3499	828.1	10
308.15	0.4399	832.3	10
308.15	0.5626	838.5	10
308.15	0.6499	843.2	10
308.15	0.7401	848.4	10
308.15	0.8499	855.3	10
308.15	0.9395	861.2	10
308.15	1	865.7	10
313.15	0	810.9	10
313.15	0.0809	813.3	10
313.15	0.1595	815.9	10
313.15	0.2399	818.9	10
313.15	0.3499	823.3	10
313.15	0.4399	827.3	10
313.15	0.5626	833.3	10
313.15	0.6499	838	10
313.15	0.7401	843.1	10
313.15	0.8499	849.9	10
313.15	0.9395	855.8	10
313.15	1	860.5	10
318.15	0	807.3	10
318.15	0.0809	809.4	10
318.15	0.1595	811.9	10
318.15	0.2399	814.6	10
318.15	0.3499	818.8	10
318.15	0.4399	822.6	10
318.15	0.5626	828.4	10
318.15	0.6499	832.9	10
318.15	0.7401	838	10
318.15	0.8499	844.7	10
318.15	0.9395	850.7	10
318.15	1	855.3	10
323.15	0	803.7	10
323.15	0.0809	805.6	10
323.15	0.1595	807.8	10
323.15	0.2399	810.4	10
323.15	0.3499	814.3	10
323.15	0.4399	817.9	10
323.15	0.5626	823.5	10
323.15	0.6499	828	10
323.15	0.7401	832.9	10
323.15	0.8499	839.5	10
323.15	0.9395	845.5	10
323.15	1	850.1	10

System: butyl ethanoate + octan-1-ol; phases: Liquid
Fixed: Pressure, kPa = 100
Property: Viscosity, Pa*s (Liquid); method: Concentric cylinders viscometry
Temperature, K	Mole fraction of butyl ethanoate	Viscosity, Pa*s	uncertainty
293.15	0	0.00913	0.00046
293.15	0.0809	0.00807	0.00041
293.15	0.1595	0.00717	0.00036
293.15	0.2399	0.00632	0.00032
293.15	0.3499	0.00529	0.00027
293.15	0.4399	0.00454	0.00023
293.15	0.5626	0.00359	0.00018
293.15	0.6499	0.00297	0.00015
293.15	0.7401	0.00237	0.00012
293.15	0.8499	0.00169	9e-05
293.15	0.9395	0.00112	6e-05
293.15	1	0.000732	3.7e-05
298.15	0	0.00762	0.00038
298.15	0.0809	0.00669	0.00034
298.15	0.1595	0.0059	0.0003
298.15	0.2399	0.00519	0.00026
298.15	0.3499	0.00432	0.00022
298.15	0.4399	0.0037	0.00019
298.15	0.5626	0.00293	0.00015
298.15	0.6499	0.00243	0.00012
298.15	0.7401	0.00196	0.0001
298.15	0.8499	0.00143	7e-05
298.15	0.9395	0.00099	5e-05
298.15	1	0.000677	3.4e-05
303.15	0	0.00641	0.00032
303.15	0.0809	0.00559	0.00028
303.15	0.1595	0.00492	0.00025
303.15	0.2399	0.0043	0.00022
303.15	0.3499	0.00357	0.00018
303.15	0.4399	0.00306	0.00015
303.15	0.5626	0.00242	0.00012
303.15	0.6499	0.00201	0.0001
303.15	0.7401	0.00163	8e-05
303.15	0.8499	0.00122	6e-05
303.15	0.9395	0.00088	5e-05
303.15	1	0.000628	3.2e-05
308.15	0	0.00543	0.00027
308.15	0.0809	0.00472	0.00024
308.15	0.1595	0.00415	0.00021
308.15	0.2399	0.00361	0.00018
308.15	0.3499	0.00299	0.00015
308.15	0.4399	0.00256	0.00013
308.15	0.5626	0.00205	0.0001
308.15	0.6499	0.00173	9e-05
308.15	0.7401	0.00142	7e-05
308.15	0.8499	0.00108	6e-05
308.15	0.9395	0.00079	4e-05
308.15	1	0.000585	3e-05
313.15	0	0.00463	0.00023
313.15	0.0809	0.00401	0.0002
313.15	0.1595	0.00352	0.00018
313.15	0.2399	0.00306	0.00015
313.15	0.3499	0.00253	0.00013
313.15	0.4399	0.00217	0.00011
313.15	0.5626	0.00175	9e-05
313.15	0.6499	0.00148	7e-05
313.15	0.7401	0.00124	6e-05
313.15	0.8499	0.00095	5e-05
313.15	0.9395	0.00071	4e-05
313.15	1	0.000546	2.8e-05
318.15	0	0.00398	0.0002
318.15	0.0809	0.00344	0.00017
318.15	0.1595	0.00301	0.00015
318.15	0.2399	0.00262	0.00013
318.15	0.3499	0.00217	0.00011
318.15	0.4399	0.00187	9e-05
318.15	0.5626	0.00151	8e-05
318.15	0.6499	0.0013	7e-05
318.15	0.7401	0.00108	5e-05
318.15	0.8499	0.00084	4e-05
318.15	0.9395	0.00065	3e-05
318.15	1	0.000512	2.6e-05
323.15	0	0.00344	0.00017
323.15	0.0809	0.00297	0.00015
323.15	0.1595	0.0026	0.00013
323.15	0.2399	0.00226	0.00011
323.15	0.3499	0.00186	9e-05
323.15	0.4399	0.0016	8e-05
323.15	0.5626	0.0013	7e-05
323.15	0.6499	0.00112	6e-05
323.15	0.7401	0.00096	5e-05
323.15	0.8499	0.00076	4e-05
323.15	0.9395	0.0006	3e-05
323.15	1	0.000485	2.5e-05

System: butyl ethanoate + nonan-1-ol; phases: Liquid
Fixed: Pressure, kPa = 100
Property: Mass density, kg/m3 (Liquid); method: Vibrating tube method
Temperature, K	Mole fraction of butyl ethanoate	Mass density, kg/m3	uncertainty
293.15	0	827.5	10
293.15	0.0812	830.4	10
293.15	0.1601	833.4	10
293.15	0.2399	836.7	10
293.15	0.3499	841.6	10
293.15	0.4399	845.9	10
293.15	0.5599	852.2	10
293.15	0.6501	857.3	10
293.15	0.7399	862.7	10
293.15	0.8499	870	10
293.15	0.9452	876.8	10
293.15	1	881.1	10
298.15	0	824	10
298.15	0.0812	826.7	10
298.15	0.1601	829.6	10
298.15	0.2399	832.8	10
298.15	0.3499	837.4	10
298.15	0.4399	841.6	10
298.15	0.5599	847.7	10
298.15	0.6501	852.7	10
298.15	0.7399	858	10
298.15	0.8499	865.1	10
298.15	0.9452	871.8	10
298.15	1	876	10
303.15	0	820.5	10
303.15	0.0812	822.9	10
303.15	0.1601	825.7	10
303.15	0.2399	828.7	10
303.15	0.3499	833.1	10
303.15	0.4399	837.2	10
303.15	0.5599	843.1	10
303.15	0.6501	847.9	10
303.15	0.7399	853	10
303.15	0.8499	860	10
303.15	0.9452	866.5	10
303.15	1	870.9	10
308.15	0	817.1	10
308.15	0.0812	819.4	10
308.15	0.1601	821.9	10
308.15	0.2399	824.7	10
308.15	0.3499	828.9	10
308.15	0.4399	832.8	10
308.15	0.5599	838.4	10
308.15	0.6501	843.1	10
308.15	0.7399	848.1	10
308.15	0.8499	854.9	10
308.15	0.9452	861.4	10
308.15	1	865.7	10
313.15	0	813.6	10
313.15	0.0812	815.5	10
313.15	0.1601	817.7	10
313.15	0.2399	820.2	10
313.15	0.3499	824.2	10
313.15	0.4399	827.8	10
313.15	0.5599	833.2	10
313.15	0.6501	837.8	10
313.15	0.7399	842.8	10
313.15	0.8499	849.5	10
313.15	0.9452	856	10
313.15	1	860.5	10
318.15	0	810.1	10
318.15	0.0812	811.8	10
318.15	0.1601	813.8	10
318.15	0.2399	816.1	10
318.15	0.3499	819.7	10
318.15	0.4399	823	10
318.15	0.5599	828.3	10
318.15	0.6501	832.7	10
318.15	0.7399	837.5	10
318.15	0.8499	844.3	10
318.15	0.9452	850.8	10
318.15	1	855.3	10
323.15	0	806.5	10
323.15	0.0812	807.9	10
323.15	0.1601	809.7	10
323.15	0.2399	811.8	10
323.15	0.3499	815.2	10
323.15	0.4399	818.4	10
323.15	0.5599	823.5	10
323.15	0.6501	827.8	10
323.15	0.7399	832.6	10
323.15	0.8499	839.1	10
323.15	0.9452	845.6	10
323.15	1	850.1	10

System: butyl ethanoate + nonan-1-ol; phases: Liquid
Fixed: Pressure, kPa = 100
Property: Viscosity, Pa*s (Liquid); method: Concentric cylinders viscometry
Temperature, K	Mole fraction of butyl ethanoate	Viscosity, Pa*s	uncertainty
293.15	0	0.01141	0.00057
293.15	0.0812	0.01009	0.00051
293.15	0.1601	0.00895	0.00045
293.15	0.2399	0.00789	0.0004
293.15	0.3499	0.0066	0.00033
293.15	0.4399	0.00565	0.00028
293.15	0.5599	0.00446	0.00022
293.15	0.6501	0.00365	0.00018
293.15	0.7399	0.00289	0.00015
293.15	0.8499	0.00197	0.0001
293.15	0.9452	0.00118	6e-05
293.15	1	0.000732	3.7e-05
298.15	0	0.00943	0.00047
298.15	0.0812	0.00831	0.00042
298.15	0.1601	0.00735	0.00037
298.15	0.2399	0.00649	0.00033
298.15	0.3499	0.0054	0.00027
298.15	0.4399	0.00462	0.00023
298.15	0.5599	0.00364	0.00018
298.15	0.6501	0.00299	0.00015
298.15	0.7399	0.00237	0.00012
298.15	0.8499	0.00165	8e-05
298.15	0.9452	0.00103	5e-05
298.15	1	0.000677	3.4e-05
303.15	0	0.00786	0.00039
303.15	0.0812	0.00689	0.00035
303.15	0.1601	0.00607	0.00031
303.15	0.2399	0.00533	0.00027
303.15	0.3499	0.00443	0.00022
303.15	0.4399	0.00379	0.00019
303.15	0.5599	0.003	0.00015
303.15	0.6501	0.00246	0.00012
303.15	0.7399	0.00197	0.0001
303.15	0.8499	0.0014	7e-05
303.15	0.9452	0.00091	5e-05
303.15	1	0.000628	3.2e-05
308.15	0	0.00661	0.00033
308.15	0.0812	0.00578	0.00029
308.15	0.1601	0.00508	0.00026
308.15	0.2399	0.00444	0.00022
308.15	0.3499	0.00368	0.00019
308.15	0.4399	0.00314	0.00016
308.15	0.5599	0.00249	0.00013
308.15	0.6501	0.00207	0.0001
308.15	0.7399	0.00167	8e-05
308.15	0.8499	0.00121	6e-05
308.15	0.9452	0.00081	4e-05
308.15	1	0.000585	3e-05
313.15	0	0.00559	0.00028
313.15	0.0812	0.00487	0.00024
313.15	0.1601	0.00426	0.00021
313.15	0.2399	0.00372	0.00019
313.15	0.3499	0.00308	0.00016
313.15	0.4399	0.00263	0.00013
313.15	0.5599	0.00211	0.00011
313.15	0.6501	0.00177	9e-05
313.15	0.7399	0.00145	7e-05
313.15	0.8499	0.00107	5e-05
313.15	0.9452	0.00074	4e-05
313.15	1	0.000546	2.8e-05
318.15	0	0.00478	0.00024
318.15	0.0812	0.00415	0.00021
318.15	0.1601	0.00362	0.00018
318.15	0.2399	0.00316	0.00016
318.15	0.3499	0.00261	0.00013
318.15	0.4399	0.00224	0.00011
318.15	0.5599	0.0018	9e-05
318.15	0.6501	0.0015	8e-05
318.15	0.7399	0.00124	6e-05
318.15	0.8499	0.00093	5e-05
318.15	0.9452	0.00067	3e-05
318.15	1	0.000512	2.6e-05
323.15	0	0.0041	0.00021
323.15	0.0812	0.00356	0.00018
323.15	0.1601	0.00311	0.00016
323.15	0.2399	0.00271	0.00014
323.15	0.3499	0.00224	0.00011
323.15	0.4399	0.00191	0.0001
323.15	0.5599	0.00154	8e-05
323.15	0.6501	0.00129	7e-05
323.15	0.7399	0.00108	5e-05
323.15	0.8499	0.00083	4e-05
323.15	0.9452	0.00061	3e-05
323.15	1	0.000485	2.5e-05

System: butyl ethanoate + decan-1-ol; phases: Liquid
Fixed: Pressure, kPa = 100
Property: Mass density, kg/m3 (Liquid); method: Vibrating tube method
Temperature, K	Mole fraction of butyl ethanoate	Mass density, kg/m3	uncertainty
293.15	0	829.5	10
293.15	0.0809	832	10
293.15	0.1599	834.6	10
293.15	0.2401	837.6	10
293.15	0.3499	842	10
293.15	0.4401	846	10
293.15	0.5598	851.9	10
293.15	0.6499	856.8	10
293.15	0.7401	862.3	10
293.15	0.8499	869.6	10
293.15	0.9399	876.2	10
293.15	1	881.1	10
298.15	0	826.1	10
298.15	0.0809	828.4	10
298.15	0.1599	830.9	10
298.15	0.2401	833.7	10
298.15	0.3499	838	10
298.15	0.4401	841.8	10
298.15	0.5598	847.5	10
298.15	0.6499	852.3	10
298.15	0.7401	857.5	10
298.15	0.8499	864.7	10
298.15	0.9399	871.1	10
298.15	1	876	10
303.15	0	822.7	10
303.15	0.0809	824.8	10
303.15	0.1599	827.1	10
303.15	0.2401	829.7	10
303.15	0.3499	833.8	10
303.15	0.4401	837.5	10
303.15	0.5598	843	10
303.15	0.6499	847.6	10
303.15	0.7401	852.7	10
303.15	0.8499	859.6	10
303.15	0.9399	866	10
303.15	1	870.9	10
308.15	0	819.3	10
308.15	0.0809	821.2	10
308.15	0.1599	823.4	10
308.15	0.2401	825.8	10
308.15	0.3499	829.6	10
308.15	0.4401	833.1	10
308.15	0.5598	838.5	10
308.15	0.6499	842.9	10
308.15	0.7401	847.9	10
308.15	0.8499	854.6	10
308.15	0.9399	860.8	10
308.15	1	865.7	10
313.15	0	815.8	10
313.15	0.0809	817.3	10
313.15	0.1599	819.2	10
313.15	0.2401	821.4	10
313.15	0.3499	824.9	10
313.15	0.4401	828.2	10
313.15	0.5598	833.2	10
313.15	0.6499	837.5	10
313.15	0.7401	842.4	10
313.15	0.8499	849.1	10
313.15	0.9399	855.3	10
313.15	1	860.5	10
318.15	0	812.4	10
318.15	0.0809	813.7	10
318.15	0.1599	815.3	10
318.15	0.2401	817.2	10
318.15	0.3499	820.3	10
318.15	0.4401	823.4	10
318.15	0.5598	828.2	10
318.15	0.6499	832.4	10
318.15	0.7401	837.2	10
318.15	0.8499	843.9	10
318.15	0.9399	850.2	10
318.15	1	855.3	10
323.15	0	808.9	10
323.15	0.0809	809.9	10
323.15	0.1599	811.3	10
323.15	0.2401	813	10
323.15	0.3499	815.9	10
323.15	0.4401	818.8	10
323.15	0.5598	823.4	10
323.15	0.6499	827.3	10
323.15	0.7401	832.1	10
323.15	0.8499	838.7	10
323.15	0.9399	844.9	10
323.15	1	850.1	10

System: butyl ethanoate + decan-1-ol; phases: Liquid
Fixed: Pressure, kPa = 100
Property: Viscosity, Pa*s (Liquid); method: Concentric cylinders viscometry
Temperature, K	Mole fraction of butyl ethanoate	Viscosity, Pa*s	uncertainty
293.15	0	0.01442	0.00072
293.15	0.0809	0.0128	0.00064
293.15	0.1599	0.01141	0.00057
293.15	0.2401	0.01007	0.00051
293.15	0.3499	0.00841	0.00042
293.15	0.4401	0.00718	0.00036
293.15	0.5598	0.00567	0.00029
293.15	0.6499	0.00462	0.00023
293.15	0.7401	0.0036	0.00018
293.15	0.8499	0.00238	0.00012
293.15	0.9399	0.00138	7e-05
293.15	1	0.000732	3.7e-05
298.15	0	0.0118	0.00059
298.15	0.0809	0.01044	0.00052
298.15	0.1599	0.00929	0.00047
298.15	0.2401	0.0082	0.00041
298.15	0.3499	0.00686	0.00035
298.15	0.4401	0.00587	0.0003
298.15	0.5598	0.00461	0.00023
298.15	0.6499	0.00375	0.00019
298.15	0.7401	0.00294	0.00015
298.15	0.8499	0.00197	0.0001
298.15	0.9399	0.00119	6e-05
298.15	1	0.000677	3.4e-05
303.15	0	0.00976	0.00049
303.15	0.0809	0.00861	0.00043
303.15	0.1599	0.00762	0.00038
303.15	0.2401	0.00671	0.00034
303.15	0.3499	0.00559	0.00028
303.15	0.4401	0.00478	0.00024
303.15	0.5598	0.00375	0.00019
303.15	0.6499	0.00306	0.00015
303.15	0.7401	0.0024	0.00012
303.15	0.8499	0.00164	8e-05
303.15	0.9399	0.00104	5e-05
303.15	1	0.000628	3.2e-05
308.15	0	0.00814	0.00041
308.15	0.0809	0.00715	0.00036
308.15	0.1599	0.00631	0.00032
308.15	0.2401	0.00554	0.00028
308.15	0.3499	0.00461	0.00023
308.15	0.4401	0.00393	0.0002
308.15	0.5598	0.00311	0.00016
308.15	0.6499	0.00254	0.00013
308.15	0.7401	0.00202	0.0001
308.15	0.8499	0.0014	7e-05
308.15	0.9399	0.0009	5e-05
308.15	1	0.000585	3e-05
313.15	0	0.00684	0.00034
313.15	0.0809	0.00599	0.0003
313.15	0.1599	0.00527	0.00027
313.15	0.2401	0.00462	0.00023
313.15	0.3499	0.00383	0.00019
313.15	0.4401	0.00328	0.00017
313.15	0.5598	0.00259	0.00013
313.15	0.6499	0.00215	0.00011
313.15	0.7401	0.00171	9e-05
313.15	0.8499	0.00122	6e-05
313.15	0.9399	0.00081	4e-05
313.15	1	0.000546	2.8e-05
318.15	0	0.0058	0.00029
318.15	0.0809	0.00506	0.00025
318.15	0.1599	0.00445	0.00022
318.15	0.2401	0.00389	0.0002
318.15	0.3499	0.00322	0.00016
318.15	0.4401	0.00275	0.00014
318.15	0.5598	0.00218	0.00011
318.15	0.6499	0.0018	9e-05
318.15	0.7401	0.00145	7e-05
318.15	0.8499	0.00105	5e-05
318.15	0.9399	0.00073	4e-05
318.15	1	0.000512	2.6e-05
323.15	0	0.00496	0.00025
323.15	0.0809	0.00431	0.00022
323.15	0.1599	0.00379	0.00019
323.15	0.2401	0.0033	0.00017
323.15	0.3499	0.00272	0.00014
323.15	0.4401	0.00232	0.00012
323.15	0.5598	0.00184	9e-05
323.15	0.6499	0.00153	8e-05
323.15	0.7401	0.00125	6e-05
323.15	0.8499	0.00092	5e-05
323.15	0.9399	0.00066	3e-05
323.15	1	0.000485	2.5e-05
