Measured thermophysical data. Solubility Modeling and Solution Thermodynamics of 4-Amino-2,6-Dimethoxypyrimidine in Cosolvent Mixtures of Methanol, Ethanol, Isopropanol, and N,N-Dimethylformamide + Water
Source: J. Chem. Eng. Data, 2018, 10.1021/acs.jced.8b00719
Compound 1: 4-amino-2,6-dimethoxypyrimidine, C6H9N3O2, InChI=1S/C6H9N3O2/c1-10-5-3-4(7)8-6(9-5)11-2/h3H,1-2H3,(H2,7,8,9), purity 98.5%
Compound 2: methanol, CH4O, InChI=1S/CH4O/c1-2/h2H,1H3, purity 99.5%
Compound 3: ethanol, C2H6O, InChI=1S/C2H6O/c1-2-3/h3H,2H2,1H3, purity 99.4%
Compound 4: propan-2-ol, C3H8O, InChI=1S/C3H8O/c1-3(2)4/h3-4H,1-2H3, purity 99.4%
Compound 5: dimethylformamide, C3H7NO, InChI=1S/C3H7NO/c1-4(2)3-5/h3H,1-2H3, purity 99.5%
Compound 6: water, H2O, InChI=1S/H2O/h1H2, purity 99.9%

System: 4-amino-2,6-dimethoxypyrimidine + methanol + water; phases: Liquid, Crystal
Fixed: Pressure, kPa = 101.1
Property: Mole fraction of 4-amino-2,6-dimethoxypyrimidine (Liquid); method: Chromatography
Temperature, K	Solvent: Mass fraction of methanol	Mole fraction of 4-amino-2,6-dimethoxypyrimidine	uncertainty
283.15	1	0.01808	0.00163
288.15	1	0.02139	0.00193
293.15	1	0.02539	0.00229
298.15	1	0.03006	0.00271
303.15	1	0.03522	0.00317
308.15	1	0.04136	0.00372
313.15	1	0.04823	0.00434
318.15	1	0.05591	0.00503
323.15	1	0.06431	0.00579
283.15	0.9	0.01638	0.00147
288.15	0.9	0.01932	0.00174
293.15	0.9	0.02305	0.00208
298.15	0.9	0.02751	0.00248
303.15	0.9	0.03199	0.00288
308.15	0.9	0.0373	0.00336
313.15	0.9	0.04334	0.0039
318.15	0.9	0.05004	0.00451
323.15	0.9	0.05811	0.00523
283.15	0.8	0.01306	0.00118
288.15	0.8	0.01538	0.00138
293.15	0.8	0.01829	0.00165
298.15	0.8	0.02171	0.00195
303.15	0.8	0.02546	0.00229
308.15	0.8	0.02966	0.00267
313.15	0.8	0.03424	0.00308
318.15	0.8	0.03944	0.00355
323.15	0.8	0.04514	0.00406
283.15	0.7	0.0104	0.00094
288.15	0.7	0.01205	0.00108
293.15	0.7	0.01428	0.00129
298.15	0.7	0.01694	0.00153
303.15	0.7	0.02	0.0018
308.15	0.7	0.02325	0.00209
313.15	0.7	0.02686	0.00242
318.15	0.7	0.03072	0.00277
323.15	0.7	0.03552	0.0032
283.15	0.6	0.007995	0.00072
288.15	0.6	0.009623	0.000866
293.15	0.6	0.01141	0.00103
298.15	0.6	0.01352	0.00122
303.15	0.6	0.01576	0.00142
308.15	0.6	0.01815	0.00163
313.15	0.6	0.02084	0.00188
318.15	0.6	0.02388	0.00215
323.15	0.6	0.02707	0.00244
283.15	0.5	0.006716	0.000605
288.15	0.5	0.007895	0.000711
293.15	0.5	0.009407	0.000847
298.15	0.5	0.01121	0.00101
303.15	0.5	0.01311	0.00118
308.15	0.5	0.01501	0.00135
313.15	0.5	0.01715	0.00154
318.15	0.5	0.01959	0.00176
323.15	0.5	0.02227	0.00201
283.15	0.4	0.005609	0.000505
288.15	0.4	0.006563	0.000591
293.15	0.4	0.007723	0.000695
298.15	0.4	0.009089	0.000818
303.15	0.4	0.01069	0.00096
308.15	0.4	0.01228	0.00111
313.15	0.4	0.01395	0.00126
318.15	0.4	0.01593	0.00143
323.15	0.4	0.01812	0.00163
283.15	0.3	0.00436	0.000393
288.15	0.3	0.00508	0.000457
293.15	0.3	0.005954	0.000536
298.15	0.3	0.00697	0.000628
303.15	0.3	0.008087	0.000728
308.15	0.3	0.009342	0.000841
313.15	0.3	0.01064	0.00096
318.15	0.3	0.01217	0.0011
323.15	0.3	0.01376	0.00124
283.15	0.2	0.002791	0.000251
288.15	0.2	0.003197	0.000288
293.15	0.2	0.003695	0.000333
298.15	0.2	0.004298	0.000387
303.15	0.2	0.005035	0.000453
308.15	0.2	0.005786	0.000521
313.15	0.2	0.006602	0.000594
318.15	0.2	0.007496	0.000675
323.15	0.2	0.008454	0.000761
283.15	0.1	0.001257	0.000113
288.15	0.1	0.001436	0.000129
293.15	0.1	0.001648	0.000148
298.15	0.1	0.001908	0.000172
303.15	0.1	0.002209	0.000199
308.15	0.1	0.002559	0.00023
313.15	0.1	0.002907	0.000262
318.15	0.1	0.003313	0.000298
323.15	0.1	0.003744	0.000337
283.15	0	0.000298	2.68e-05
288.15	0	0.0003469	3.12e-05
293.15	0	0.0004047	3.64e-05
298.15	0	0.0004642	4.18e-05
303.15	0	0.0005339	4.81e-05
308.15	0	0.0006142	5.53e-05
313.15	0	0.0006951	6.26e-05
318.15	0	0.0007877	7.09e-05
323.15	0	0.0008972	8.08e-05

System: 4-amino-2,6-dimethoxypyrimidine + ethanol + water; phases: Liquid, Crystal
Fixed: Pressure, kPa = 101.1
Property: Mole fraction of 4-amino-2,6-dimethoxypyrimidine (Liquid); method: Chromatography
Temperature, K	Solvent: Mass fraction of ethanol	Mole fraction of 4-amino-2,6-dimethoxypyrimidine	uncertainty
283.15	1	0.01009	0.00091
288.15	1	0.01301	0.00117
293.15	1	0.01643	0.00148
298.15	1	0.0205	0.00185
303.15	1	0.02533	0.00228
308.15	1	0.03126	0.00281
313.15	1	0.03832	0.00345
318.15	1	0.04633	0.00417
323.15	1	0.05614	0.00505
283.15	0.9	0.008967	0.000807
288.15	0.9	0.01067	0.00096
293.15	0.9	0.01405	0.00127
298.15	0.9	0.01661	0.0015
303.15	0.9	0.02104	0.00189
308.15	0.9	0.02498	0.00225
313.15	0.9	0.03101	0.00279
318.15	0.9	0.03643	0.00328
323.15	0.9	0.0443	0.00399
283.15	0.8	0.006688	0.000602
288.15	0.8	0.008603	0.000775
293.15	0.8	0.01093	0.00098
298.15	0.8	0.01291	0.00116
303.15	0.8	0.01623	0.00146
308.15	0.8	0.01907	0.00172
313.15	0.8	0.02348	0.00211
318.15	0.8	0.02743	0.00247
323.15	0.8	0.03312	0.00298
283.15	0.7	0.005638	0.000508
288.15	0.7	0.006779	0.00061
293.15	0.7	0.008505	0.000766
298.15	0.7	0.009968	0.000898
303.15	0.7	0.01239	0.00112
308.15	0.7	0.01444	0.0013
313.15	0.7	0.01759	0.00158
318.15	0.7	0.02031	0.00183
323.15	0.7	0.02433	0.00219
283.15	0.6	0.004422	0.000398
288.15	0.6	0.005561	0.000501
293.15	0.6	0.006531	0.000588
298.15	0.6	0.008088	0.000728
303.15	0.6	0.009336	0.000841
308.15	0.6	0.01139	0.00103
313.15	0.6	0.01312	0.00118
318.15	0.6	0.0156	0.0014
323.15	0.6	0.0182	0.00164
283.15	0.5	0.003799	0.000342
288.15	0.5	0.004377	0.000394
293.15	0.5	0.005461	0.000492
298.15	0.5	0.006241	0.000562
303.15	0.5	0.007564	0.000681
308.15	0.5	0.008698	0.000783
313.15	0.5	0.01034	0.00093
318.15	0.5	0.01176	0.00106
323.15	0.5	0.01384	0.00125
283.15	0.4	0.003098	0.000279
288.15	0.4	0.00354	0.000319
293.15	0.4	0.004357	0.000392
298.15	0.4	0.004938	0.000445
303.15	0.4	0.005916	0.000533
308.15	0.4	0.006747	0.000607
313.15	0.4	0.007937	0.000715
318.15	0.4	0.008957	0.000806
323.15	0.4	0.01048	0.00094
283.15	0.3	0.002306	0.000208
288.15	0.3	0.002725	0.000245
293.15	0.3	0.00328	0.000295
298.15	0.3	0.003689	0.000332
303.15	0.3	0.004375	0.000394
308.15	0.3	0.004955	0.000446
313.15	0.3	0.005767	0.000519
318.15	0.3	0.006463	0.000582
323.15	0.3	0.007504	0.000676
283.15	0.2	0.001575	0.000142
288.15	0.2	0.001782	0.00016
293.15	0.2	0.002008	0.000181
298.15	0.2	0.002357	0.000212
303.15	0.2	0.00272	0.000245
308.15	0.2	0.003129	0.000282
313.15	0.2	0.003651	0.000329
318.15	0.2	0.004218	0.00038
323.15	0.2	0.004895	0.000441
283.15	0.1	0.0008224	7.4e-05
288.15	0.1	0.0009404	8.47e-05
293.15	0.1	0.00112	0.000101
298.15	0.1	0.001273	0.000115
303.15	0.1	0.001483	0.000134
308.15	0.1	0.001641	0.000148
313.15	0.1	0.001906	0.000172
318.15	0.1	0.00212	0.000191
323.15	0.1	0.002441	0.00022
283.15	0	0.000298	2.68e-05
288.15	0	0.0003469	3.12e-05
293.15	0	0.0004047	3.64e-05
298.15	0	0.0004642	4.18e-05
303.15	0	0.0005339	4.81e-05
308.15	0	0.0006142	5.53e-05
313.15	0	0.0006951	6.26e-05
318.15	0	0.0007877	7.09e-05
323.15	0	0.0008972	8.08e-05

System: 4-amino-2,6-dimethoxypyrimidine + propan-2-ol + water; phases: Liquid, Crystal
Fixed: Pressure, kPa = 101.1
Property: Mole fraction of 4-amino-2,6-dimethoxypyrimidine (Liquid); method: Chromatography
Temperature, K	Solvent: Mass fraction of propan-2-ol	Mole fraction of 4-amino-2,6-dimethoxypyrimidine	uncertainty
283.15	1	0.00553	0.000498
288.15	1	0.007417	0.000668
293.15	1	0.01008	0.00091
298.15	1	0.01333	0.0012
303.15	1	0.01754	0.00158
308.15	1	0.02301	0.00207
313.15	1	0.02967	0.00267
318.15	1	0.03803	0.00342
323.15	1	0.04839	0.00436
283.15	0.9	0.00429	0.000386
288.15	0.9	0.005859	0.000528
293.15	0.9	0.007834	0.000705
298.15	0.9	0.01035	0.00093
303.15	0.9	0.01322	0.00119
308.15	0.9	0.01696	0.00153
313.15	0.9	0.02203	0.00198
318.15	0.9	0.02722	0.00245
323.15	0.9	0.03458	0.00311
283.15	0.8	0.003218	0.00029
288.15	0.8	0.004489	0.000404
293.15	0.8	0.006251	0.000563
298.15	0.8	0.007651	0.000689
303.15	0.8	0.01002	0.0009
308.15	0.8	0.01285	0.00116
313.15	0.8	0.01574	0.00142
318.15	0.8	0.01967	0.00177
323.15	0.8	0.02435	0.00219
283.15	0.7	0.002706	0.000244
288.15	0.7	0.003507	0.000316
293.15	0.7	0.004644	0.000418
298.15	0.7	0.006092	0.000549
303.15	0.7	0.00743	0.000669
308.15	0.7	0.009563	0.000861
313.15	0.7	0.01152	0.00104
318.15	0.7	0.01449	0.0013
323.15	0.7	0.01747	0.00157
283.15	0.6	0.002228	0.000201
288.15	0.6	0.003035	0.000273
293.15	0.6	0.00378	0.00034
298.15	0.6	0.00459	0.000413
303.15	0.6	0.005659	0.00051
308.15	0.6	0.007234	0.000651
313.15	0.6	0.008595	0.000774
318.15	0.6	0.01066	0.00096
323.15	0.6	0.0127	0.00114
283.15	0.5	0.001853	0.000167
288.15	0.5	0.002453	0.000221
293.15	0.5	0.002914	0.000262
298.15	0.5	0.003717	0.000335
303.15	0.5	0.004391	0.000395
308.15	0.5	0.005516	0.000497
313.15	0.5	0.006472	0.000583
318.15	0.5	0.007907	0.000712
323.15	0.5	0.009315	0.000839
283.15	0.4	0.001523	0.000137
288.15	0.4	0.00197	0.000177
293.15	0.4	0.002312	0.000208
298.15	0.4	0.002894	0.000261
303.15	0.4	0.003377	0.000304
308.15	0.4	0.004174	0.000376
313.15	0.4	0.004832	0.000435
318.15	0.4	0.005821	0.000524
323.15	0.4	0.006774	0.00061
283.15	0.3	0.001221	0.00011
288.15	0.3	0.001507	0.000136
293.15	0.3	0.001786	0.000161
298.15	0.3	0.002156	0.000194
303.15	0.3	0.002505	0.000226
308.15	0.3	0.003047	0.000274
313.15	0.3	0.003484	0.000314
318.15	0.3	0.004139	0.000373
323.15	0.3	0.004763	0.000429
283.15	0.2	0.0008879	7.99e-05
288.15	0.2	0.001079	9.7e-05
293.15	0.2	0.001262	0.000114
298.15	0.2	0.001501	0.000135
303.15	0.2	0.001735	0.000156
308.15	0.2	0.002057	0.000185
313.15	0.2	0.002335	0.00021
318.15	0.2	0.00273	0.000246
323.15	0.2	0.003121	0.000281
283.15	0.1	0.0005657	5.09e-05
288.15	0.1	0.0006771	6.1e-05
293.15	0.1	0.0007839	7.06e-05
298.15	0.1	0.0009262	8.34e-05
303.15	0.1	0.001047	9.4e-05
308.15	0.1	0.001234	0.000111
313.15	0.1	0.001389	0.000125
318.15	0.1	0.001611	0.000145
323.15	0.1	0.00182	0.000164
283.15	0	0.000298	2.68e-05
288.15	0	0.0003469	3.12e-05
293.15	0	0.0004047	3.64e-05
298.15	0	0.0004642	4.18e-05
303.15	0	0.0005339	4.81e-05
308.15	0	0.0006142	5.53e-05
313.15	0	0.0006951	6.26e-05
318.15	0	0.0007877	7.09e-05
323.15	0	0.0008972	8.08e-05

System: 4-amino-2,6-dimethoxypyrimidine + dimethylformamide + water; phases: Liquid, Crystal
Fixed: Pressure, kPa = 101.1
Property: Mole fraction of 4-amino-2,6-dimethoxypyrimidine (Liquid); method: Chromatography
Temperature, K	Solvent: Mass fraction of dimethylformamide	Mole fraction of 4-amino-2,6-dimethoxypyrimidine	uncertainty
283.15	1	0.05504	0.00496
288.15	1	0.07261	0.00654
293.15	1	0.09488	0.00854
298.15	1	0.1229	0.0111
303.15	1	0.1578	0.0142
308.15	1	0.201	0.0181
313.15	1	0.254	0.0229
318.15	1	0.3187	0.0287
323.15	1	0.397	0.0357
283.15	0.9	0.0483	0.00435
288.15	0.9	0.06522	0.00587
293.15	0.9	0.08338	0.00751
298.15	0.9	0.1056	0.0095
303.15	0.9	0.1304	0.0117
308.15	0.9	0.1663	0.015
313.15	0.9	0.2038	0.0184
318.15	0.9	0.2543	0.0229
323.15	0.9	0.3095	0.0279
283.15	0.8	0.03533	0.00318
288.15	0.8	0.04516	0.00407
293.15	0.8	0.05879	0.00529
298.15	0.8	0.0719	0.00647
303.15	0.8	0.09115	0.00821
308.15	0.8	0.111	0.01
313.15	0.8	0.1377	0.0124
318.15	0.8	0.1661	0.015
323.15	0.8	0.2016	0.0182
283.15	0.7	0.02614	0.00235
288.15	0.7	0.03159	0.00284
293.15	0.7	0.04056	0.00365
298.15	0.7	0.04879	0.00439
303.15	0.7	0.05997	0.0054
308.15	0.7	0.07332	0.0066
313.15	0.7	0.08979	0.00808
318.15	0.7	0.1068	0.0096
323.15	0.7	0.1283	0.0116
283.15	0.6	0.01997	0.0018
288.15	0.6	0.0239	0.00215
293.15	0.6	0.03004	0.0027
298.15	0.6	0.03571	0.00322
303.15	0.6	0.04387	0.00395
308.15	0.6	0.05208	0.00469
313.15	0.6	0.06272	0.00565
318.15	0.6	0.07371	0.00664
323.15	0.6	0.08801	0.00792
283.15	0.5	0.01694	0.00153
288.15	0.5	0.02017	0.00182
293.15	0.5	0.02459	0.00221
298.15	0.5	0.02873	0.00259
303.15	0.5	0.0347	0.00312
308.15	0.5	0.04056	0.00365
313.15	0.5	0.04805	0.00433
318.15	0.5	0.05562	0.00501
323.15	0.5	0.06551	0.0059
283.15	0.4	0.015	0.00135
288.15	0.4	0.01758	0.00158
293.15	0.4	0.02099	0.00189
298.15	0.4	0.02418	0.00218
303.15	0.4	0.02862	0.00258
308.15	0.4	0.03299	0.00297
313.15	0.4	0.03835	0.00345
318.15	0.4	0.04374	0.00394
323.15	0.4	0.05039	0.00454
283.15	0.3	0.01161	0.00105
288.15	0.3	0.01348	0.00121
293.15	0.3	0.01578	0.00142
298.15	0.3	0.01857	0.00167
303.15	0.3	0.02195	0.00198
308.15	0.3	0.02504	0.00225
313.15	0.3	0.0287	0.00258
318.15	0.3	0.03268	0.00294
323.15	0.3	0.03714	0.00334
283.15	0.2	0.006492	0.000584
288.15	0.2	0.007575	0.000682
293.15	0.2	0.008949	0.000806
298.15	0.2	0.01052	0.00095
303.15	0.2	0.01224	0.0011
308.15	0.2	0.014	0.00126
313.15	0.2	0.0158	0.00142
318.15	0.2	0.01813	0.00163
323.15	0.2	0.02052	0.00185
283.15	0.1	0.002139	0.000193
288.15	0.1	0.002492	0.000224
293.15	0.1	0.002939	0.000265
298.15	0.1	0.00345	0.000311
303.15	0.1	0.004006	0.000361
308.15	0.1	0.004591	0.000413
313.15	0.1	0.00519	0.000467
318.15	0.1	0.005843	0.000526
323.15	0.1	0.006618	0.000596
283.15	0	0.000298	2.68e-05
288.15	0	0.0003469	3.12e-05
293.15	0	0.0004047	3.64e-05
298.15	0	0.0004642	4.18e-05
303.15	0	0.0005339	4.81e-05
308.15	0	0.0006142	5.53e-05
313.15	0	0.0006951	6.26e-05
318.15	0	0.0007877	7.09e-05
323.15	0	0.0008972	8.08e-05

System: 4-amino-2,6-dimethoxypyrimidine + methanol; phases: Liquid, Crystal
Fixed: Pressure, kPa = 101.1
Property: Mole fraction of 4-amino-2,6-dimethoxypyrimidine (Liquid); method: Chromatography
Temperature, K	Mole fraction of 4-amino-2,6-dimethoxypyrimidine	uncertainty
283.15	0.01808	0.00163
288.15	0.02139	0.00193
293.15	0.02539	0.00229
298.15	0.03006	0.00271
303.15	0.03522	0.00317
308.15	0.04136	0.00372
313.15	0.04823	0.00434
318.15	0.05591	0.00503
323.15	0.06431	0.00579

System: 4-amino-2,6-dimethoxypyrimidine + water; phases: Liquid, Crystal
Fixed: Pressure, kPa = 101.1
Property: Mole fraction of 4-amino-2,6-dimethoxypyrimidine (Liquid); method: Chromatography
Temperature, K	Mole fraction of 4-amino-2,6-dimethoxypyrimidine	uncertainty
283.15	0.000298	2.68e-05
288.15	0.0003469	3.12e-05
293.15	0.0004047	3.64e-05
298.15	0.0004642	4.18e-05
303.15	0.0005339	4.81e-05
308.15	0.0006142	5.53e-05
313.15	0.0006951	6.26e-05
318.15	0.0007877	7.09e-05
323.15	0.0008972	8.08e-05

System: 4-amino-2,6-dimethoxypyrimidine + ethanol; phases: Liquid, Crystal
Fixed: Pressure, kPa = 101.1
Property: Mole fraction of 4-amino-2,6-dimethoxypyrimidine (Liquid); method: Chromatography
Temperature, K	Mole fraction of 4-amino-2,6-dimethoxypyrimidine	uncertainty
283.15	0.01009	0.00091
288.15	0.01301	0.00117
293.15	0.01643	0.00148
298.15	0.0205	0.00185
303.15	0.02533	0.00228
308.15	0.03126	0.00281
313.15	0.03832	0.00345
318.15	0.04633	0.00417
323.15	0.05614	0.00505

System: 4-amino-2,6-dimethoxypyrimidine + propan-2-ol; phases: Liquid, Crystal
Fixed: Pressure, kPa = 101.1
Property: Mole fraction of 4-amino-2,6-dimethoxypyrimidine (Liquid); method: Chromatography
Temperature, K	Mole fraction of 4-amino-2,6-dimethoxypyrimidine	uncertainty
283.15	0.00553	0.000498
288.15	0.007417	0.000668
293.15	0.01008	0.00091
298.15	0.01333	0.0012
303.15	0.01754	0.00158
308.15	0.02301	0.00207
313.15	0.02967	0.00267
318.15	0.03803	0.00342
323.15	0.04839	0.00436

System: 4-amino-2,6-dimethoxypyrimidine + dimethylformamide; phases: Liquid, Crystal
Fixed: Pressure, kPa = 101.1
Property: Mole fraction of 4-amino-2,6-dimethoxypyrimidine (Liquid); method: Chromatography
Temperature, K	Mole fraction of 4-amino-2,6-dimethoxypyrimidine	uncertainty
283.15	0.05504	0.00496
288.15	0.07261	0.00654
293.15	0.09488	0.00854
298.15	0.1229	0.0111
303.15	0.1578	0.0142
308.15	0.201	0.0181
313.15	0.254	0.0229
318.15	0.3187	0.0287
323.15	0.397	0.0357
