Measured thermophysical data. Volumetric Properties of Protic Ionic Liquids Based on Alkylammonium Cations at T = (293.15-353.15) K and Atmospheric Pressure
Source: J. Chem. Eng. Data, 2019, 10.1021/acs.jced.8b00725
Compound 1: triethylammonium dihydrogen phosphate, C6H18NO4P, InChI=1S/C6H15N.H3O4P/c1-4-7(5-2)6-3;1-5(2,3)4/h4-6H2,1-3H3;(H3,1,2,3,4)
Compound 2: triethylammonium acetate, C8H19NO2, InChI=1S/C6H15N.C2H4O2/c1-4-7(5-2)6-3;1-2(3)4/h4-6H2,1-3H3;1H3,(H,3,4)
Compound 3: triethylammonium trifluoroacetate, C8H16F3NO2, InChI=1S/C6H15N.C2HF3O2/c1-4-7(5-2)6-3;3-2(4,5)1(6)7/h4-6H2,1-3H3;(H,6,7)
Compound 4: triethylammonium methanesulfonate, C7H19NO3S, InChI=1S/C6H15N.CH4O3S/c1-4-7(5-2)6-3;1-5(2,3)4/h4-6H2,1-3H3;1H3,(H,2,3,4)
Compound 5: triethylammonium trifluoromethanesulfonate, C7H16F3NO3S, InChI=1S/C6H15N.CHF3O3S/c1-4-7(5-2)6-3;2-1(3,4)8(5,6)7/h4-6H2,1-3H3;(H,5,6,7)
Compound 6: triethylammonium benzoate, C13H21NO2, InChI=1S/C7H6O2.C6H15N/c8-7(9)6-4-2-1-3-5-6;1-4-7(5-2)6-3/h1-5H,(H,8,9);4-6H2,1-3H3
Compound 7: triethylammonium salicylate, C13H21NO3, InChI=1S/C7H6O3.C6H15N/c8-6-4-2-1-3-5(6)7(9)10;1-4-7(5-2)6-3/h1-4,8H,(H,9,10);4-6H2,1-3H3
Compound 8: triethanolammonium propanoate, C9H21NO5, InChI=1S/C6H15NO3.C3H6O2/c8-4-1-7(2-5-9)3-6-10;1-2-3(4)5/h8-10H,1-6H2;2H2,1H3,(H,4,5)
Compound 9: triethanolammonium hydrogen sulfate, C6H17NO7S, InChI=1S/C6H15NO3.H2O4S/c8-4-1-7(2-5-9)3-6-10;1-5(2,3)4/h8-10H,1-6H2;(H2,1,2,3,4)
Compound 10: triethanolammonium trifluoromethanesulfonate, C7H16F3NO6S, InChI=1S/C6H15NO3.CHF3O3S/c8-4-1-7(2-5-9)3-6-10;2-1(3,4)8(5,6)7/h8-10H,1-6H2;(H,5,6,7)
Compound 11: triethanolammonium metanilate, C12H22N2O6S, InChI=1S/C6H7NO3S.C6H15NO3/c7-5-2-1-3-6(4-5)11(8,9)10;8-4-1-7(2-5-9)3-6-10/h1-4H,7H2,(H,8,9,10);8-10H,1-6H2
Compound 12: triethanolammonium 3-nitrobenzenesulfonate, C12H20N2O8S, InChI=1S/C6H5NO5S.C6H15NO3/c8-7(9)5-2-1-3-6(4-5)13(10,11)12;8-4-1-7(2-5-9)3-6-10/h1-4H,(H,10,11,12);8-10H,1-6H2
Compound 13: triethanolammonium 2-carboxybenzenesulfonate, C13H21NO8S, InChI=1S/C7H6O5S.C6H15NO3/c8-7(9)5-3-1-2-4-6(5)13(10,11)12;8-4-1-7(2-5-9)3-6-10/h1-4H,(H,8,9)(H,10,11,12);8-10H,1-6H2
Compound 14: triethanolammonium salicylate, C13H21NO6, InChI=1S/C7H6O3.C6H15NO3/c8-6-4-2-1-3-5(6)7(9)10;8-4-1-7(2-5-9)3-6-10/h1-4,8H,(H,9,10);8-10H,1-6H2
Compound 15: triethanolammonium bis((trifluoromethyl)sulfonyl)amide, C8H16F6N2O7S2, InChI=1S/C6H15NO3.C2F6NO4S2/c8-4-1-7(2-5-9)3-6-10;3-1(4,5)14(10,11)9-15(12,13)2(6,7)8/h8-10H,1-6H2;/q;-1/p+1
Compound 16: diethylammonium hydrogen sulfate, C4H13NO4S, InChI=1S/C4H11N.H2O4S/c1-3-5-4-2;1-5(2,3)4/h5H,3-4H2,1-2H3;(H2,1,2,3,4)
Compound 17: diethylammonium methanesulfonate, C5H15NO3S, InChI=1S/C4H11N.CH4O3S/c1-3-5-4-2;1-5(2,3)4/h5H,3-4H2,1-2H3;1H3,(H,2,3,4)
Compound 18: diethylammonium trifluoroacetate, C6H12F3NO2, InChI=1S/C4H11N.C2HF3O2/c1-3-5-4-2;3-2(4,5)1(6)7/h5H,3-4H2,1-2H3;(H,6,7)
Compound 19: N,N-dimethyl-N-ethylammonium trifluoroacetate, C6H12F3NO2, InChI=1S/C4H11N.C2HF3O2/c1-4-5(2)3;3-2(4,5)1(6)7/h4H2,1-3H3;(H,6,7)
Compound 20: triethanolammonium 4-carboxy-3-hydroxybenzenesulfonate, C13H21NO9S, InChI=1S/C7H6O6S.C6H15NO3/c8-6-3-4(14(11,12)13)1-2-5(6)7(9)10;8-4-1-7(2-5-9)3-6-10/h1-3,8H,(H,9,10)(H,11,12,13);8-10H,1-6H2

System: triethylammonium dihydrogen phosphate; phases: Liquid
Fixed: Pressure, kPa = 100
Property: Mass density, kg/m3 (Liquid); method: Vibrating tube method
Temperature, K	Mass density, kg/m3	uncertainty
338.15	1329.48	12.45
343.15	1327.08	12.4
348.15	1324.69	12.36
353.15	1322.31	12.31

System: triethylammonium acetate; phases: Liquid
Fixed: Pressure, kPa = 100
Property: Mass density, kg/m3 (Liquid); method: Vibrating tube method
Temperature, K	Mass density, kg/m3	uncertainty
293.15	1013.29	7.16
298.15	1009.63	7.1
303.15	1005.87	7.05
308.15	1002.1	7
313.15	998.33	6.94
318.15	994.55	6.89
323.15	990.75	6.84
328.15	986.96	6.79
333.15	983.14	6.74
338.15	979.32	6.69
343.15	975.48	6.64
348.15	971.62	6.59
353.15	967.74	6.54

System: triethylammonium trifluoroacetate; phases: Liquid
Fixed: Pressure, kPa = 100
Property: Mass density, kg/m3 (Liquid); method: Vibrating tube method
Temperature, K	Mass density, kg/m3	uncertainty
293.15	1165.69	9.53
298.15	1161.57	9.47
303.15	1157.44	9.4
308.15	1153.32	9.33
313.15	1149.21	9.26
318.15	1145.1	9.19
323.15	1141	9.13
328.15	1136.91	9.06
333.15	1132.82	8.99
338.15	1128.74	8.93
343.15	1124.67	8.86
348.15	1120.6	8.8
353.15	1116.54	8.73

System: triethylammonium methanesulfonate; phases: Liquid
Fixed: Pressure, kPa = 100
Property: Mass density, kg/m3 (Liquid); method: Vibrating tube method
Temperature, K	Mass density, kg/m3	uncertainty
293.15	1120.47	8.8
298.15	1117.11	8.74
303.15	1113.77	8.69
308.15	1110.44	8.64
313.15	1107.13	8.58
318.15	1103.83	8.53
323.15	1100.54	8.48
328.15	1097.26	8.43
333.15	1093.99	8.38
338.15	1090.72	8.32
343.15	1087.47	8.27
348.15	1084.22	8.22
353.15	1080.98	8.17

System: triethylammonium trifluoromethanesulfonate; phases: Liquid
Fixed: Pressure, kPa = 100
Property: Mass density, kg/m3 (Liquid); method: Vibrating tube method
Temperature, K	Mass density, kg/m3	uncertainty
293.15	1268.63	11.32
298.15	1264.56	11.25
303.15	1260.51	11.17
308.15	1256.47	11.1
313.15	1252.45	11.03
318.15	1248.45	10.96
323.15	1244.46	10.89
328.15	1240.48	10.82
333.15	1236.53	10.75
338.15	1232.58	10.68
343.15	1228.65	10.61
348.15	1224.73	10.54
353.15	1220.84	10.47

System: triethylammonium benzoate; phases: Liquid
Fixed: Pressure, kPa = 100
Property: Mass density, kg/m3 (Liquid); method: Vibrating tube method
Temperature, K	Mass density, kg/m3	uncertainty
293.15	1101.47	8.49
298.15	1098.02	8.44
303.15	1094.65	8.39
308.15	1091.27	8.33
313.15	1087.87	8.28
318.15	1084.47	8.23
323.15	1081.07	8.17
328.15	1077.68	8.12
333.15	1074.3	8.07
338.15	1070.92	8.02
343.15	1067.55	7.97
348.15	1064.18	7.92
353.15	1060.82	7.86

System: triethylammonium salicylate; phases: Liquid
Fixed: Pressure, kPa = 100
Property: Mass density, kg/m3 (Liquid); method: Vibrating tube method
Temperature, K	Mass density, kg/m3	uncertainty
293.15	1099.07	8.46
298.15	1095.79	8.4
303.15	1092.57	8.35
308.15	1089.33	8.3
313.15	1086.08	8.25
318.15	1082.83	8.2
323.15	1079.58	8.15
328.15	1076.35	8.1
333.15	1073.13	8.05
338.15	1069.93	8
343.15	1066.73	7.95
348.15	1063.54	7.91
353.15	1060.36	7.86

System: triethanolammonium propanoate; phases: Liquid
Fixed: Pressure, kPa = 100
Property: Mass density, kg/m3 (Liquid); method: Vibrating tube method
Temperature, K	Mass density, kg/m3	uncertainty
293.15	1139.53	7.05
298.15	1136.51	7.01
303.15	1133.47	6.97
308.15	1130.43	6.94
313.15	1127.31	6.9
318.15	1124.25	6.86
323.15	1121.15	6.82
328.15	1118.01	6.78
333.15	1114.84	6.74
338.15	1111.68	6.7
343.15	1108.5	6.66
348.15	1105.29	6.63
353.15	1102.06	6.59

System: triethanolammonium hydrogen sulfate; phases: Liquid
Fixed: Pressure, kPa = 100
Property: Mass density, kg/m3 (Liquid); method: Vibrating tube method
Temperature, K	Mass density, kg/m3	uncertainty
323.15	1421.3	14.24
328.15	1418.8	14.19
333.15	1416.33	14.14
338.15	1413.85	14.09
343.15	1411.31	14.04
348.15	1408.87	13.99
353.15	1406.37	13.94

System: triethanolammonium trifluoromethanesulfonate; phases: Liquid
Fixed: Pressure, kPa = 100
Property: Mass density, kg/m3 (Liquid); method: Vibrating tube method
Temperature, K	Mass density, kg/m3	uncertainty
293.15	1464.95	15.14
298.15	1461.34	15.06
303.15	1457.8	14.99
308.15	1454.25	14.92
313.15	1450.66	14.84
318.15	1447.23	14.77
323.15	1443.82	14.7
328.15	1440.3	14.63
333.15	1436.96	14.56
338.15	1433.53	14.49
343.15	1430.19	14.42
348.15	1426.88	14.36
353.15	1423.6	14.29

System: triethanolammonium metanilate; phases: Liquid
Fixed: Pressure, kPa = 100
Property: Mass density, kg/m3 (Liquid); method: Vibrating tube method
Temperature, K	Mass density, kg/m3	uncertainty
333.15	1335.07	12.55
338.15	1332.43	12.5
343.15	1329.79	12.45
348.15	1327.17	12.4
353.15	1324.57	12.35

System: triethanolammonium 3-nitrobenzenesulfonate; phases: Liquid
Fixed: Pressure, kPa = 100
Property: Mass density, kg/m3 (Liquid); method: Vibrating tube method
Temperature, K	Mass density, kg/m3	uncertainty
333.15	1386.46	13.55
338.15	1383.15	13.48
343.15	1379.88	13.42
348.15	1376.81	13.36
353.15	1373.71	13.3

System: triethanolammonium 2-carboxybenzenesulfonate; phases: Liquid
Fixed: Pressure, kPa = 100
Property: Mass density, kg/m3 (Liquid); method: Vibrating tube method
Temperature, K	Mass density, kg/m3	uncertainty
333.15	1373.12	10.29
338.15	1370.19	10.25
343.15	1367.25	10.2
348.15	1364.28	10.16
353.15	1361.32	10.11

System: triethanolammonium salicylate; phases: Liquid
Fixed: Pressure, kPa = 100
Property: Mass density, kg/m3 (Liquid); method: Vibrating tube method
Temperature, K	Mass density, kg/m3	uncertainty
328.15	1248.43	10.96
333.15	1245.42	10.91
338.15	1242.4	10.85
343.15	1239.42	10.8
348.15	1236.44	10.75
353.15	1233.42	10.69

System: triethanolammonium bis((trifluoromethyl)sulfonyl)amide; phases: Liquid
Fixed: Pressure, kPa = 100
Property: Mass density, kg/m3 (Liquid); method: Vibrating tube method
Temperature, K	Mass density, kg/m3	uncertainty
293.15	1422.64	14.27
298.15	1418.67	14.19
303.15	1414.68	14.11
308.15	1410.69	14.03
313.15	1406.74	13.95
318.15	1402.75	13.87
323.15	1398.81	13.79
328.15	1394.88	13.71
333.15	1390.89	13.63
338.15	1386.92	13.56
343.15	1382.99	13.48
348.15	1379.05	13.4
353.15	1375.11	13.32

System: diethylammonium hydrogen sulfate; phases: Liquid
Fixed: Pressure, kPa = 100
Property: Mass density, kg/m3 (Liquid); method: Vibrating tube method
Temperature, K	Mass density, kg/m3	uncertainty
293.15	1382.76	13.47
298.15	1379.53	13.41
303.15	1376.33	13.35
308.15	1373.15	13.29
313.15	1369.99	13.22
318.15	1366.85	13.16
323.15	1363.73	13.1
328.15	1360.62	13.04
333.15	1357.53	12.98
338.15	1354.45	12.92
343.15	1351.38	12.86
348.15	1348.31	12.81
353.15	1345.25	12.75

System: diethylammonium methanesulfonate; phases: Liquid
Fixed: Pressure, kPa = 100
Property: Mass density, kg/m3 (Liquid); method: Vibrating tube method
Temperature, K	Mass density, kg/m3	uncertainty
333.15	1117.5	8.75
338.15	1114.27	8.7
343.15	1111.06	8.65
348.15	1107.86	8.59
353.15	1104.68	8.54

System: diethylammonium trifluoroacetate; phases: Liquid
Fixed: Pressure, kPa = 100
Property: Mass density, kg/m3 (Liquid); method: Vibrating tube method
Temperature, K	Mass density, kg/m3	uncertainty
323.15	1158.82	9.42
328.15	1154.74	9.35
333.15	1150.69	9.29
338.15	1146.65	9.22
343.15	1142.62	9.15
348.15	1138.55	9.09
353.15	1134.5	9.02

System: N,N-dimethyl-N-ethylammonium trifluoroacetate; phases: Liquid
Fixed: Pressure, kPa = 100
Property: Mass density, kg/m3 (Liquid); method: Vibrating tube method
Temperature, K	Mass density, kg/m3	uncertainty
293.15	1212.41	10.33
298.15	1208.11	10.25
303.15	1203.82	10.18
308.15	1199.56	10.11
313.15	1195.28	10.03
318.15	1191.03	9.96
323.15	1186.78	9.89
328.15	1182.54	9.82
333.15	1178.33	9.75
338.15	1174.09	9.67
343.15	1169.9	9.6
348.15	1165.69	9.53
353.15	1161.51	9.46

System: triethanolammonium 4-carboxy-3-hydroxybenzenesulfonate; phases: Liquid
Fixed: Pressure, kPa = 100
Property: Mass density, kg/m3 (Liquid); method: Vibrating tube method
Temperature, K	Mass density, kg/m3	uncertainty
333.15	1382.14	13.46
338.15	1379.1	13.4
343.15	1376.03	13.34
348.15	1372.88	13.28
353.15	1369.83	13.22
