Measured thermophysical data. Densities, Viscosities, Refractive Indices, and Excess Properties of Aqueous 1,2-Etanediol, 1,3-Propanediol, 1,4-Butanediol, and 1,5-Pentanediol Binary Mixtures
Source: J. Chem. Eng. Data, 2017, 10.1021/acs.jced.6b00526
Compound 1: 1,2-ethanediol, C2H6O2, InChI=1S/C2H6O2/c3-1-2-4/h3-4H,1-2H2
Compound 2: propan-1,3-diol, C3H8O2, InChI=1S/C3H8O2/c4-2-1-3-5/h4-5H,1-3H2
Compound 3: 1,4-butanediol, C4H10O2, InChI=1S/C4H10O2/c5-3-1-2-4-6/h5-6H,1-4H2
Compound 4: 1,5-pentanediol, C5H12O2, InChI=1S/C5H12O2/c6-4-2-1-3-5-7/h6-7H,1-5H2
Compound 5: water, H2O, InChI=1S/H2O/h1H2, purity 99.8%

System: 1,2-ethanediol; phases: Liquid
Fixed: Pressure, kPa = 100
Property: Mass density, kg/m3 (Liquid); method: Vibrating tube method
Temperature, K	Mass density, kg/m3	uncertainty
288.15	1116.8	4.5
293.15	1113.3	4.5
298.15	1110.3	4.4
303.15	1106.8	4.4
308.15	1102.9	4.4
313.15	1099.1	4.4
318.15	1096.3	4.4

System: 1,2-ethanediol; phases: Liquid
Fixed: Pressure, kPa = 100
Property: Refractive index (Na D-line) (Liquid); method: Standard Abbe refractometry
Temperature, K	Refractive index (Na D-line)	uncertainty
288.15	1.432	0.0286
293.15	1.4306	0.0286
298.15	1.4294	0.0286
303.15	1.4282	0.0286
308.15	1.4269	0.0285
313.15	1.4257	0.0285
318.15	1.4244	0.0285

System: 1,2-ethanediol; phases: Liquid
Fixed: Pressure, kPa = 100
Property: Viscosity, Pa*s (Liquid); method: Falling or rolling sphere viscometry
Temperature, K	Viscosity, Pa*s	uncertainty
293.15	0.02113	0.003385
298.15	0.01724	0.002761
303.15	0.01423	0.002279

System: propan-1,3-diol; phases: Liquid
Fixed: Pressure, kPa = 100
Property: Mass density, kg/m3 (Liquid); method: Vibrating tube method
Temperature, K	Mass density, kg/m3	uncertainty
288.15	1056.2	4.3
293.15	1053.2	4.3
298.15	1049.9	4.3
303.15	1046.7	4.3
308.15	1043.5	4.3
313.15	1040.4	4.2
318.15	1037.9	4.2

System: propan-1,3-diol; phases: Liquid
Fixed: Pressure, kPa = 100
Property: Refractive index (Na D-line) (Liquid); method: Standard Abbe refractometry
Temperature, K	Refractive index (Na D-line)	uncertainty
288.15	1.4407	0.0288
293.15	1.4393	0.0288
298.15	1.438	0.0288
303.15	1.4367	0.0287
308.15	1.4353	0.0287
313.15	1.434	0.0287
318.15	1.4327	0.0287

System: propan-1,3-diol; phases: Liquid
Fixed: Pressure, kPa = 100
Property: Viscosity, Pa*s (Liquid); method: Falling or rolling sphere viscometry
Temperature, K	Viscosity, Pa*s	uncertainty
293.15	0.05155	0.008264
298.15	0.0408	0.006547
303.15	0.03274	0.005254

System: 1,4-butanediol; phases: Metastable liquid
Fixed: Pressure, kPa = 100
Property: Mass density, kg/m3 (Metastable liquid); method: Vibrating tube method
Temperature, K	Mass density, kg/m3	uncertainty
288.15	1018.6	4.1
293.15	1016.3	4.1
298.15	1012.9	4.1
303.15	1009.9	4
308.15	1006.9	4
313.15	1003.2	4
318.15	1000.8	4

System: 1,4-butanediol; phases: Metastable liquid
Fixed: Pressure, kPa = 100
Property: Refractive index (Na D-line) (Metastable liquid); method: Standard Abbe refractometry
Temperature, K	Refractive index (Na D-line)	uncertainty
288.15	1.447	0.0289
293.15	1.4455	0.0289
298.15	1.4441	0.0289
303.15	1.4426	0.0289
308.15	1.4412	0.0288
313.15	1.4398	0.0288
318.15	1.4384	0.0288

System: 1,4-butanediol; phases: Metastable liquid
Fixed: Pressure, kPa = 100
Property: Viscosity, Pa*s (Metastable liquid); method: Falling or rolling sphere viscometry
Temperature, K	Viscosity, Pa*s	uncertainty
293.15	0.0907	0.014614
298.15	0.06989	0.011211
303.15	0.05524	0.008845

System: 1,5-pentanediol; phases: Liquid
Fixed: Pressure, kPa = 100
Property: Mass density, kg/m3 (Liquid); method: Vibrating tube method
Temperature, K	Mass density, kg/m3	uncertainty
288.15	992.2	4
293.15	989.2	4
298.15	986.2	4
303.15	983.2	4
308.15	980.3	4
313.15	977.4	4
318.15	974.8	4

System: 1,5-pentanediol; phases: Liquid
Fixed: Pressure, kPa = 100
Property: Refractive index (Na D-line) (Liquid); method: Standard Abbe refractometry
Temperature, K	Refractive index (Na D-line)	uncertainty
288.15	1.4503	0.029
293.15	1.449	0.029
298.15	1.4478	0.029
303.15	1.4466	0.0289
308.15	1.4454	0.0289
313.15	1.4441	0.0289
318.15	1.443	0.0289

System: 1,5-pentanediol; phases: Liquid
Fixed: Pressure, kPa = 100
Property: Viscosity, Pa*s (Liquid); method: Falling or rolling sphere viscometry
Temperature, K	Viscosity, Pa*s	uncertainty
293.15	0.1187	0.019289
298.15	0.08679	0.013991
303.15	0.0683	0.010969

System: water; phases: Liquid
Fixed: Pressure, kPa = 100
Property: Mass density, kg/m3 (Liquid); method: Vibrating tube method
Temperature, K	Mass density, kg/m3	uncertainty
288.15	999.2	4
293.15	998.3	4
298.15	997.1	4
303.15	995.7	4
308.15	994	4
313.15	992.2	4
318.15	990.8	4

System: water; phases: Liquid
Fixed: Pressure, kPa = 100
Property: Refractive index (Na D-line) (Liquid); method: Standard Abbe refractometry
Temperature, K	Refractive index (Na D-line)	uncertainty
288.15	1.3338	0.0267
293.15	1.3331	0.0267
298.15	1.3325	0.0267
303.15	1.3318	0.0266
308.15	1.3312	0.0266
313.15	1.3305	0.0266
318.15	1.3299	0.0266

System: water; phases: Liquid
Fixed: Pressure, kPa = 100
Property: Viscosity, Pa*s (Liquid); method: Falling or rolling sphere viscometry
Temperature, K	Viscosity, Pa*s	uncertainty
293.15	0.000949	0.000152
298.15	0.000843	0.000135
303.15	0.000755	0.000121

System: 1,2-ethanediol + water; phases: Liquid
Fixed: Pressure, kPa = 100
Property: Mass density, kg/m3 (Liquid); method: Vibrating tube method
Temperature, K	Mole fraction of water	Mass density, kg/m3	uncertainty
288.15	0	1116.8	4.5
288.15	0.1037	1114.7	4.5
288.15	0.1593	1113.6	4.5
288.15	0.2189	1111.9	4.4
288.15	0.2669	1110.3	4.4
288.15	0.3165	1108.3	4.4
288.15	0.3496	1106.8	4.4
288.15	0.3994	1104.4	4.4
288.15	0.4449	1101.8	4.4
288.15	0.5061	1098	4.4
288.15	0.5563	1094.5	4.4
288.15	0.6055	1090.6	4.4
288.15	0.6518	1085.7	4.3
288.15	0.7001	1079.8	4.3
288.15	0.7482	1072.6	4.3
288.15	0.8015	1063	4.3
288.15	0.8444	1052.6	4.2
288.15	0.901	1036.4	4.1
288.15	1	999.2	4
293.15	0	1113.3	4.5
293.15	0.1037	1111.1	4.4
293.15	0.1593	1110	4.4
293.15	0.2189	1108.3	4.4
293.15	0.2669	1106.8	4.4
293.15	0.3165	1104.8	4.4
293.15	0.3496	1103.4	4.4
293.15	0.3994	1101.1	4.4
293.15	0.4449	1098.5	4.4
293.15	0.5061	1094.8	4.4
293.15	0.5563	1091.4	4.4
293.15	0.6055	1087.4	4.4
293.15	0.6518	1082.6	4.3
293.15	0.7001	1076.8	4.3
293.15	0.7482	1069.7	4.3
293.15	0.8015	1060.1	4.2
293.15	0.8444	1050.2	4.2
293.15	0.901	1034.6	4.1
293.15	1	998.3	4
298.15	0	1110.3	4.4
298.15	0.1037	1108	4.4
298.15	0.1593	1106.9	4.4
298.15	0.2189	1105.2	4.4
298.15	0.2669	1103.6	4.4
298.15	0.3165	1101.7	4.4
298.15	0.3496	1100.3	4.4
298.15	0.3994	1098	4.4
298.15	0.4449	1095.6	4.4
298.15	0.5061	1091.8	4.4
298.15	0.5563	1088.4	4.4
298.15	0.6055	1084.5	4.3
298.15	0.6518	1079.7	4.3
298.15	0.7001	1073.7	4.3
298.15	0.7482	1066.7	4.3
298.15	0.8015	1057.4	4.2
298.15	0.8444	1048	4.2
298.15	0.901	1032.8	4.1
298.15	1	997.1	4
303.15	0	1106.8	4.4
303.15	0.1037	1104.4	4.4
303.15	0.1593	1103.3	4.4
303.15	0.2189	1101.6	4.4
303.15	0.2669	1100.1	4.4
303.15	0.3165	1098.2	4.4
303.15	0.3496	1096.8	4.4
303.15	0.3994	1094.4	4.4
303.15	0.4449	1092.2	4.4
303.15	0.5061	1088.5	4.4
303.15	0.5563	1085.1	4.3
303.15	0.6055	1081.3	4.3
303.15	0.6518	1076.5	4.3
303.15	0.7001	1070.6	4.3
303.15	0.7482	1063.7	4.3
303.15	0.8015	1054.5	4.2
303.15	0.8444	1045.5	4.2
303.15	0.901	1030.7	4.1
303.15	1	995.7	4
308.15	0	1102.9	4.4
308.15	0.1037	1100.5	4.4
308.15	0.1593	1099.3	4.4
308.15	0.2189	1097.6	4.4
308.15	0.2669	1096	4.4
308.15	0.3165	1094.2	4.4
308.15	0.3496	1092.9	4.4
308.15	0.3994	1090.6	4.4
308.15	0.4449	1088.4	4.4
308.15	0.5061	1084.7	4.3
308.15	0.5563	1081.3	4.3
308.15	0.6055	1077.6	4.3
308.15	0.6518	1072.9	4.3
308.15	0.7001	1067.3	4.3
308.15	0.7482	1060.6	4.2
308.15	0.8015	1051.5	4.2
308.15	0.8444	1042.6	4.2
308.15	0.901	1028	4.1
308.15	1	994	4
313.15	0	1099.1	4.4
313.15	0.1037	1096.7	4.4
313.15	0.1593	1095.4	4.4
313.15	0.2189	1093.7	4.4
313.15	0.2669	1092.1	4.4
313.15	0.3165	1090.3	4.4
313.15	0.3496	1089.1	4.4
313.15	0.3994	1086.9	4.3
313.15	0.4449	1084.6	4.3
313.15	0.5061	1081.1	4.3
313.15	0.5563	1077.8	4.3
313.15	0.6055	1074	4.3
313.15	0.6518	1069.5	4.3
313.15	0.7001	1064	4.3
313.15	0.7482	1057.4	4.2
313.15	0.8015	1048.4	4.2
313.15	0.8444	1039.6	4.2
313.15	0.901	1025.4	4.1
313.15	1	992.2	4
318.15	0	1096.3	4.4
318.15	0.1037	1093.8	4.4
318.15	0.1593	1092.4	4.4
318.15	0.2189	1090.7	4.4
318.15	0.2669	1088.9	4.4
318.15	0.3165	1087.3	4.4
318.15	0.3496	1086	4.3
318.15	0.3994	1083.9	4.3
318.15	0.4449	1081.6	4.3
318.15	0.5061	1078.1	4.3
318.15	0.5563	1074.6	4.3
318.15	0.6055	1071.1	4.3
318.15	0.6518	1066.3	4.3
318.15	0.7001	1060.7	4.2
318.15	0.7482	1054.3	4.2
318.15	0.8015	1045.6	4.2
318.15	0.8444	1037.1	4.2
318.15	0.901	1023.5	4.1
318.15	1	990.8	4

System: 1,2-ethanediol + water; phases: Liquid
Fixed: Pressure, kPa = 100
Property: Refractive index (Na D-line) (Liquid); method: Standard Abbe refractometry
Temperature, K	Mole fraction of water	Refractive index (Na D-line)	uncertainty
288.15	0	1.432	0.0286
288.15	0.1593	1.4278	0.0286
288.15	0.2669	1.4239	0.0285
288.15	0.3496	1.4202	0.0284
288.15	0.4449	1.4152	0.0283
288.15	0.5563	1.408	0.0282
288.15	0.6518	1.3996	0.028
288.15	0.7482	1.3881	0.0278
288.15	0.8444	1.3724	0.0274
288.15	1	1.3338	0.0267
293.15	0	1.4306	0.0286
293.15	0.1593	1.4263	0.0285
293.15	0.2669	1.4225	0.0285
293.15	0.3496	1.4188	0.0284
293.15	0.4449	1.4138	0.0283
293.15	0.5563	1.4067	0.0281
293.15	0.6518	1.3984	0.028
293.15	0.7482	1.387	0.0277
293.15	0.8444	1.3714	0.0274
293.15	1	1.3331	0.0267
298.15	0	1.4294	0.0286
298.15	0.1593	1.4251	0.0285
298.15	0.2669	1.4212	0.0284
298.15	0.3496	1.4176	0.0284
298.15	0.4449	1.4126	0.0283
298.15	0.5563	1.4055	0.0281
298.15	0.6518	1.3973	0.0279
298.15	0.7482	1.386	0.0277
298.15	0.8444	1.3705	0.0274
298.15	1	1.3325	0.0267
303.15	0	1.4282	0.0286
303.15	0.1593	1.4239	0.0285
303.15	0.2669	1.42	0.0284
303.15	0.3496	1.4163	0.0283
303.15	0.4449	1.4114	0.0282
303.15	0.5563	1.4043	0.0281
303.15	0.6518	1.3961	0.0279
303.15	0.7482	1.3849	0.0277
303.15	0.8444	1.3696	0.0274
303.15	1	1.3318	0.0266
308.15	0	1.4269	0.0285
308.15	0.1593	1.4225	0.0285
308.15	0.2669	1.4187	0.0284
308.15	0.3496	1.415	0.0283
308.15	0.4449	1.4102	0.0282
308.15	0.5563	1.4031	0.0281
308.15	0.6518	1.3949	0.0279
308.15	0.7482	1.3838	0.0277
308.15	0.8444	1.3687	0.0274
308.15	1	1.3312	0.0266
313.15	0	1.4257	0.0285
313.15	0.1593	1.4213	0.0284
313.15	0.2669	1.4174	0.0283
313.15	0.3496	1.4138	0.0283
313.15	0.4449	1.409	0.0282
313.15	0.5563	1.4019	0.028
313.15	0.6518	1.3938	0.0279
313.15	0.7482	1.3827	0.0277
313.15	0.8444	1.3677	0.0274
313.15	1	1.3305	0.0266
318.15	0	1.4244	0.0285
318.15	0.1593	1.42	0.0284
318.15	0.2669	1.4161	0.0283
318.15	0.3496	1.4125	0.0283
318.15	0.4449	1.4077	0.0282
318.15	0.5563	1.4006	0.028
318.15	0.6518	1.3926	0.0279
318.15	0.7482	1.3816	0.0276
318.15	0.8444	1.3668	0.0273
318.15	1	1.3299	0.0266

System: 1,2-ethanediol + water; phases: Liquid
Fixed: Pressure, kPa = 100
Property: Viscosity, Pa*s (Liquid); method: Falling or rolling sphere viscometry
Temperature, K	Mole fraction of water	Viscosity, Pa*s	uncertainty
293.15	0	0.02113	0.003385
293.15	0.1105	0.01758	0.002816
293.15	0.2014	0.01495	0.002395
293.15	0.3002	0.0124	0.001986
293.15	0.4011	0.01005	0.00161
293.15	0.4969	0.008185	0.001311
293.15	0.6022	0.006297	0.001009
293.15	0.6995	0.004584	0.000734
293.15	0.7994	0.003122	0.0005
293.15	0.8997	0.001918	0.000307
293.15	1	0.000949	0.000152
298.15	0	0.01724	0.002761
298.15	0.1105	0.01433	0.002295
298.15	0.2014	0.01219	0.001953
298.15	0.3002	0.01018	0.001631
298.15	0.4011	0.00831	0.001331
298.15	0.4969	0.006791	0.001088
298.15	0.6022	0.005208	0.000834
298.15	0.6995	0.003884	0.000622
298.15	0.7994	0.002682	0.00043
298.15	0.8997	0.001664	0.000267
298.15	1	0.000843	0.000135
303.15	0	0.01423	0.002279
303.15	0.1105	0.01186	0.0019
303.15	0.2014	0.01014	0.001624
303.15	0.3002	0.00845	0.001353
303.15	0.4011	0.006968	0.001116
303.15	0.4969	0.005653	0.000905
303.15	0.6022	0.004396	0.000704
303.15	0.6995	0.003345	0.000536
303.15	0.7994	0.002328	0.000373
303.15	0.8997	0.001446	0.000232
303.15	1	0.000755	0.000121

System: propan-1,3-diol + water; phases: Liquid
Fixed: Pressure, kPa = 100
Property: Mass density, kg/m3 (Liquid); method: Vibrating tube method
Temperature, K	Mole fraction of water	Mass density, kg/m3	uncertainty
288.15	0	1056.2	4.3
288.15	0.1625	1056.2	4.3
288.15	0.1737	1056.2	4.3
288.15	0.2386	1056.4	4.3
288.15	0.2519	1056.5	4.3
288.15	0.3216	1056.6	4.3
288.15	0.3669	1056.4	4.2
288.15	0.4238	1056	4.2
288.15	0.4553	1055.6	4.2
288.15	0.5075	1054.7	4.2
288.15	0.5501	1053.7	4.2
288.15	0.6009	1052.1	4.2
288.15	0.653	1049.9	4.2
288.15	0.7146	1046.3	4.2
288.15	0.7532	1043.2	4.2
288.15	0.804	1038.3	4.2
288.15	0.8508	1032.1	4.1
288.15	0.9021	1023.5	4.1
288.15	1	999.2	4
293.15	0	1053.2	4.3
293.15	0.1625	1053.1	4.3
293.15	0.1737	1053.1	4.3
293.15	0.2386	1053.3	4.2
293.15	0.2519	1053.4	4.2
293.15	0.3216	1053.5	4.2
293.15	0.3669	1053.3	4.2
293.15	0.4238	1053	4.2
293.15	0.4553	1052.6	4.2
293.15	0.5075	1051.8	4.2
293.15	0.5501	1050.8	4.2
293.15	0.6009	1049.2	4.2
293.15	0.653	1047.1	4.2
293.15	0.7146	1043.5	4.2
293.15	0.7532	1040.5	4.2
293.15	0.804	1035.5	4.1
293.15	0.8508	1029.6	4.1
293.15	0.9021	1021.3	4.1
293.15	1	998.3	4
298.15	0	1049.9	4.3
298.15	0.1625	1049.7	4.2
298.15	0.1737	1049.7	4.2
298.15	0.2386	1049.9	4.2
298.15	0.2519	1049.9	4.2
298.15	0.3216	1050.1	4.2
298.15	0.3669	1050	4.2
298.15	0.4238	1049.6	4.2
298.15	0.4553	1049.3	4.2
298.15	0.5075	1048.5	4.2
298.15	0.5501	1047.6	4.2
298.15	0.6009	1046.1	4.2
298.15	0.653	1043.9	4.2
298.15	0.7146	1040.4	4.2
298.15	0.7532	1037.4	4.2
298.15	0.804	1032.6	4.1
298.15	0.8508	1026.9	4.1
298.15	0.9021	1018.9	4.1
298.15	1	997.1	4
303.15	0	1046.7	4.3
303.15	0.1625	1046.4	4.2
303.15	0.1737	1046.4	4.2
303.15	0.2386	1046.6	4.2
303.15	0.2519	1046.6	4.2
303.15	0.3216	1046.8	4.2
303.15	0.3669	1046.7	4.2
303.15	0.4238	1046.4	4.2
303.15	0.4553	1046.1	4.2
303.15	0.5075	1045.3	4.2
303.15	0.5501	1044.4	4.2
303.15	0.6009	1042.9	4.2
303.15	0.653	1040.8	4.2
303.15	0.7146	1037.2	4.2
303.15	0.7532	1034.3	4.1
303.15	0.804	1029.6	4.1
303.15	0.8508	1024.1	4.1
303.15	0.9021	1016.6	4.1
303.15	1	995.7	4
308.15	0	1043.5	4.3
308.15	0.1625	1043.1	4.2
308.15	0.1737	1043.1	4.2
308.15	0.2386	1043.2	4.2
308.15	0.2519	1043.3	4.2
308.15	0.3216	1043.5	4.2
308.15	0.3669	1043.3	4.2
308.15	0.4238	1043.1	4.2
308.15	0.4553	1042.8	4.2
308.15	0.5075	1042.1	4.2
308.15	0.5501	1041.2	4.2
308.15	0.6009	1039.7	4.2
308.15	0.653	1037.6	4.2
308.15	0.7146	1034	4.1
308.15	0.7532	1031.1	4.1
308.15	0.804	1026.6	4.1
308.15	0.8508	1021.3	4.1
308.15	0.9021	1014	4.1
308.15	1	994	4
313.15	0	1040.4	4.2
313.15	0.1625	1039.9	4.2
313.15	0.1737	1040	4.2
313.15	0.2386	1040.1	4.2
313.15	0.2519	1040.1	4.2
313.15	0.3216	1040.2	4.2
313.15	0.3669	1040.1	4.2
313.15	0.4238	1039.9	4.2
313.15	0.4553	1039.6	4.2
313.15	0.5075	1038.9	4.2
313.15	0.5501	1038	4.2
313.15	0.6009	1036.5	4.2
313.15	0.653	1034.4	4.1
313.15	0.7146	1030.9	4.1
313.15	0.7532	1028.1	4.1
313.15	0.804	1023.5	4.1
313.15	0.8508	1018.4	4.1
313.15	0.9021	1011.4	4
313.15	1	992.2	4
318.15	0	1037.9	4.2
318.15	0.1625	1037.4	4.2
318.15	0.1737	1037.4	4.2
318.15	0.2386	1037.5	4.2
318.15	0.2519	1037.5	4.2
318.15	0.3216	1037.6	4.2
318.15	0.3669	1037.5	4.2
318.15	0.4238	1037.3	4.2
318.15	0.4553	1037	4.2
318.15	0.5075	1036.2	4.2
318.15	0.5501	1035.4	4.1
318.15	0.6009	1033.9	4.1
318.15	0.653	1031.8	4.1
318.15	0.7146	1028.4	4.1
318.15	0.7532	1025.5	4.1
318.15	0.804	1021.1	4.1
318.15	0.8508	1016.1	4.1
318.15	0.9021	1009.2	4
318.15	1	990.8	4

System: propan-1,3-diol + water; phases: Liquid
Fixed: Pressure, kPa = 100
Property: Refractive index (Na D-line) (Liquid); method: Standard Abbe refractometry
Temperature, K	Mole fraction of water	Refractive index (Na D-line)	uncertainty
288.15	0	1.4407	0.0288
288.15	0.1737	1.4361	0.0287
288.15	0.2519	1.4335	0.0287
288.15	0.3669	1.429	0.0286
288.15	0.4553	1.4248	0.0285
288.15	0.5501	1.419	0.0284
288.15	0.6509	1.4107	0.0282
288.15	0.7532	1.3985	0.028
288.15	0.8508	1.381	0.0276
288.15	1	1.3338	0.0267
293.15	0	1.4393	0.0288
293.15	0.1737	1.4347	0.0287
293.15	0.2519	1.4321	0.0286
293.15	0.3669	1.4276	0.0286
293.15	0.4553	1.4234	0.0285
293.15	0.5501	1.4177	0.0284
293.15	0.6509	1.4095	0.0282
293.15	0.7532	1.3973	0.0279
293.15	0.8508	1.38	0.0276
293.15	1	1.3331	0.0267
298.15	0	1.438	0.0288
298.15	0.1737	1.4334	0.0287
298.15	0.2519	1.4308	0.0286
298.15	0.3669	1.4263	0.0285
298.15	0.4553	1.4221	0.0284
298.15	0.5501	1.4165	0.0283
298.15	0.6509	1.4083	0.0282
298.15	0.7532	1.3962	0.0279
298.15	0.8508	1.379	0.0276
298.15	1	1.3325	0.0267
303.15	0	1.4367	0.0287
303.15	0.1737	1.432	0.0286
303.15	0.2519	1.4295	0.0286
303.15	0.3669	1.425	0.0285
303.15	0.4553	1.4208	0.0284
303.15	0.5501	1.4152	0.0283
303.15	0.6509	1.4071	0.0281
303.15	0.7532	1.3951	0.0279
303.15	0.8508	1.378	0.0276
303.15	1	1.3318	0.0266
308.15	0	1.4353	0.0287
308.15	0.1737	1.4306	0.0286
308.15	0.2519	1.4281	0.0286
308.15	0.3669	1.4236	0.0285
308.15	0.4553	1.4194	0.0284
308.15	0.5501	1.4139	0.0283
308.15	0.6509	1.4059	0.0281
308.15	0.7532	1.3939	0.0279
308.15	0.8508	1.3771	0.0275
308.15	1	1.3312	0.0266
313.15	0	1.434	0.0287
313.15	0.1737	1.4294	0.0286
313.15	0.2519	1.4268	0.0285
313.15	0.3669	1.4223	0.0284
313.15	0.4553	1.4181	0.0284
313.15	0.5501	1.4127	0.0283
313.15	0.6509	1.4047	0.0281
313.15	0.7532	1.3929	0.0279
313.15	0.8508	1.3761	0.0275
313.15	1	1.3305	0.0266
318.15	0	1.4327	0.0287
318.15	0.1737	1.4281	0.0286
318.15	0.2519	1.4255	0.0285
318.15	0.3669	1.421	0.0284
318.15	0.4553	1.4169	0.0283
318.15	0.5501	1.4115	0.0282
318.15	0.6509	1.4036	0.0281
318.15	0.7532	1.3918	0.0278
318.15	0.8508	1.3752	0.0275
318.15	1	1.3299	0.0266

System: propan-1,3-diol + water; phases: Liquid
Fixed: Pressure, kPa = 100
Property: Viscosity, Pa*s (Liquid); method: Falling or rolling sphere viscometry
Temperature, K	Mole fraction of water	Viscosity, Pa*s	uncertainty
293.15	0	0.05155	0.008264
293.15	0.0749	0.04634	0.007434
293.15	0.1625	0.04076	0.006537
293.15	0.239	0.03586	0.00575
293.15	0.3361	0.02972	0.004764
293.15	0.4223	0.02446	0.00392
293.15	0.5134	0.01925	0.003085
293.15	0.6309	0.01316	0.002109
293.15	0.7446	0.00799	0.00128
293.15	0.872	0.00372	0.000596
293.15	1	0.000949	0.000152
298.15	0	0.0408	0.006547
298.15	0.0749	0.03693	0.005925
298.15	0.1625	0.03258	0.005225
298.15	0.239	0.02901	0.004652
298.15	0.3361	0.02427	0.003891
298.15	0.4223	0.02006	0.003215
298.15	0.5134	0.01564	0.002506
298.15	0.6309	0.01059	0.001697
298.15	0.7446	0.00643	0.00103
298.15	0.872	0.00313	0.000501
298.15	1	0.000843	0.000135
303.15	0	0.03274	0.005254
303.15	0.0749	0.02967	0.00476
303.15	0.1625	0.02638	0.004231
303.15	0.239	0.02345	0.00376
303.15	0.3361	0.01997	0.003201
303.15	0.4223	0.01666	0.00267
303.15	0.5134	0.01318	0.002112
303.15	0.6309	0.00895	0.001434
303.15	0.7446	0.00546	0.000875
303.15	0.872	0.00278	0.000445
303.15	1	0.000755	0.000121

System: 1,4-butanediol + water; phases: Liquid
Fixed: Pressure, kPa = 100
Property: Mass density, kg/m3 (Liquid); method: Vibrating tube method
Temperature, K	Mole fraction of water	Mass density, kg/m3	uncertainty
288.15	0	1018.6	4.1
288.15	0.0992	1020.8	4.1
288.15	0.152	1021.8	4.1
288.15	0.2039	1022.8	4.1
288.15	0.2513	1023.6	4.1
288.15	0.3003	1024.5	4.1
288.15	0.3534	1025.3	4.1
288.15	0.4399	1026.2	4.1
288.15	0.4482	1026.6	4.1
288.15	0.5011	1027.2	4.1
288.15	0.5515	1027.6	4.1
288.15	0.6114	1027.7	4.1
288.15	0.6527	1027.6	4.1
288.15	0.7005	1027.2	4.1
288.15	0.7501	1026.3	4.1
288.15	0.7998	1024.2	4.1
288.15	0.8492	1021.3	4.1
288.15	0.9001	1015.9	4.1
288.15	0.9488	1008.1	4
288.15	1	999.2	4
293.15	0	1016.3	4.1
293.15	0.0992	1018.3	4.1
293.15	0.152	1019.3	4.1
293.15	0.2039	1020.3	4.1
293.15	0.2513	1021.1	4.1
293.15	0.3003	1021.9	4.1
293.15	0.3534	1022.7	4.1
293.15	0.4399	1023.6	4.1
293.15	0.4482	1024	4.1
293.15	0.5011	1024.5	4.1
293.15	0.5515	1025	4.1
293.15	0.6114	1025.1	4.1
293.15	0.6527	1025	4.1
293.15	0.7005	1024.5	4.1
293.15	0.7501	1023.6	4.1
293.15	0.7998	1021.5	4.1
293.15	0.8492	1018.9	4.1
293.15	0.9001	1014.1	4.1
293.15	0.9488	1006.7	4
293.15	1	998.3	4
298.15	0	1012.9	4.1
298.15	0.0992	1014.8	4.1
298.15	0.152	1015.8	4.1
298.15	0.2039	1016.7	4.1
298.15	0.2513	1017.6	4.1
298.15	0.3003	1018.3	4.1
298.15	0.3534	1019.1	4.1
298.15	0.4399	1020	4.1
298.15	0.4482	1020.3	4.1
298.15	0.5011	1020.8	4.1
298.15	0.5515	1021.1	4.1
298.15	0.6114	1021.3	4.1
298.15	0.6527	1021.3	4.1
298.15	0.7005	1021	4.1
298.15	0.7501	1020.1	4.1
298.15	0.7998	1018.3	4.1
298.15	0.8492	1015.8	4.1
298.15	0.9001	1011.7	4
298.15	0.9488	1004.7	4
298.15	1	997.1	4
303.15	0	1009.9	4
303.15	0.0992	1011.8	4.1
303.15	0.152	1012.8	4.1
303.15	0.2039	1013.7	4.1
303.15	0.2513	1014.5	4.1
303.15	0.3003	1015.2	4.1
303.15	0.3534	1015.9	4.1
303.15	0.4399	1016.8	4.1
303.15	0.4482	1017.1	4.1
303.15	0.5011	1017.7	4.1
303.15	0.5515	1017.9	4.1
303.15	0.6114	1018.2	4.1
303.15	0.6527	1018.1	4.1
303.15	0.7005	1017.8	4.1
303.15	0.7501	1016.9	4.1
303.15	0.7998	1015.3	4.1
303.15	0.8492	1012.9	4.1
303.15	0.9001	1009.2	4
303.15	0.9488	1003.3	4
303.15	1	995.7	4
308.15	0	1006.9	4
308.15	0.0992	1008.9	4
308.15	0.152	1009.8	4
308.15	0.2039	1010.6	4
308.15	0.2513	1011.4	4
308.15	0.3003	1012.1	4.1
308.15	0.3534	1012.8	4.1
308.15	0.4399	1013.6	4.1
308.15	0.4482	1013.9	4.1
308.15	0.5011	1014.5	4.1
308.15	0.5515	1014.8	4.1
308.15	0.6114	1015.1	4.1
308.15	0.6527	1015.1	4.1
308.15	0.7005	1014.8	4.1
308.15	0.7501	1013.9	4.1
308.15	0.7998	1012.5	4.1
308.15	0.8492	1010.2	4
308.15	0.9001	1006.7	4
308.15	0.9488	1001.1	4
308.15	1	994	4
313.15	0	1003.2	4
313.15	0.0992	1005.2	4
313.15	0.152	1006.1	4
313.15	0.2039	1006.9	4
313.15	0.2513	1007.6	4
313.15	0.3003	1008.3	4
313.15	0.3534	1009	4
313.15	0.4399	1009.8	4
313.15	0.4482	1010.1	4
313.15	0.5011	1010.6	4
313.15	0.5515	1010.9	4
313.15	0.6114	1011.2	4
313.15	0.6527	1011.2	4
313.15	0.7005	1011	4
313.15	0.7501	1010.3	4
313.15	0.7998	1008.9	4
313.15	0.8492	1007.1	4
313.15	0.9001	1003.6	4
313.15	0.9488	998.7	4
313.15	1	992.2	4
318.15	0	1000.8	4
318.15	0.0992	1002.6	4
318.15	0.152	1003.4	4
318.15	0.2039	1004.2	4
318.15	0.2513	1004.9	4
318.15	0.3003	1005.6	4
318.15	0.3534	1006.3	4
318.15	0.4399	1007.1	4
318.15	0.4482	1007.3	4
318.15	0.5011	1007.8	4
318.15	0.5515	1008.1	4
318.15	0.6114	1008.3	4
318.15	0.6527	1008.4	4
318.15	0.7005	1008.3	4
318.15	0.7501	1007.4	4
318.15	0.7998	1006.2	4
318.15	0.8492	1004	4
318.15	0.9001	1000.9	4
318.15	0.9488	996.2	4
318.15	1	990.8	4

System: 1,4-butanediol + water; phases: Liquid
Fixed: Pressure, kPa = 100
Property: Refractive index (Na D-line) (Liquid); method: Standard Abbe refractometry
Temperature, K	Mole fraction of water	Refractive index (Na D-line)	uncertainty
288.15	0	1.447	0.0289
288.15	0.152	1.4441	0.0289
288.15	0.2513	1.4413	0.0288
288.15	0.3534	1.4376	0.0288
288.15	0.4482	1.4332	0.0287
288.15	0.5515	1.4277	0.0286
288.15	0.6527	1.4203	0.0284
288.15	0.7501	1.4097	0.0282
288.15	0.8492	1.3913	0.0278
288.15	0.9488	1.3596	0.0272
288.15	1	1.3338	0.0267
293.15	0	1.4455	0.0289
293.15	0.152	1.4425	0.0289
293.15	0.2513	1.4397	0.0288
293.15	0.3534	1.436	0.0287
293.15	0.4482	1.4317	0.0286
293.15	0.5515	1.4262	0.0285
293.15	0.6527	1.4188	0.0284
293.15	0.7501	1.4082	0.0282
293.15	0.8492	1.39	0.028
293.15	0.9488	1.3586	0.0272
293.15	1	1.3331	0.0267
298.15	0	1.4441	0.0289
298.15	0.152	1.4411	0.0288
298.15	0.2513	1.4383	0.0288
298.15	0.3534	1.4346	0.0287
298.15	0.4482	1.4304	0.0286
298.15	0.5515	1.4247	0.0285
298.15	0.6527	1.4174	0.0283
298.15	0.7501	1.4069	0.0281
298.15	0.8492	1.3888	0.0278
298.15	0.9488	1.3577	0.0272
298.15	1	1.3325	0.0267
303.15	0	1.4426	0.0289
303.15	0.152	1.4395	0.0288
303.15	0.2513	1.4368	0.0287
303.15	0.3534	1.4331	0.0287
303.15	0.4482	1.4289	0.0286
303.15	0.5515	1.4232	0.0285
303.15	0.6527	1.416	0.0283
303.15	0.7501	1.4056	0.0281
303.15	0.8492	1.3876	0.0278
303.15	0.9488	1.3569	0.0271
303.15	1	1.3318	0.0266
308.15	0	1.4412	0.0288
308.15	0.152	1.4381	0.0288
308.15	0.2513	1.4353	0.0287
308.15	0.3534	1.4316	0.0286
308.15	0.4482	1.4274	0.0285
308.15	0.5515	1.4219	0.0284
308.15	0.6527	1.4147	0.0283
308.15	0.7501	1.4044	0.0281
308.15	0.8492	1.3865	0.0277
308.15	0.9488	1.356	0.0271
308.15	1	1.3312	0.0266
313.15	0	1.4398	0.0288
313.15	0.152	1.4367	0.0287
313.15	0.2513	1.4339	0.0287
313.15	0.3534	1.4302	0.0286
313.15	0.4482	1.426	0.0285
313.15	0.5515	1.4205	0.0284
313.15	0.6527	1.4134	0.0283
313.15	0.7501	1.4031	0.0281
313.15	0.8492	1.3853	0.0277
313.15	0.9488	1.3552	0.0271
313.15	1	1.3305	0.0266
318.15	0	1.4384	0.0288
318.15	0.152	1.4352	0.0287
318.15	0.2513	1.4324	0.0286
318.15	0.3534	1.4288	0.0286
318.15	0.4482	1.4246	0.0285
318.15	0.5515	1.4191	0.0284
318.15	0.6527	1.412	0.0282
318.15	0.7501	1.4018	0.028
318.15	0.8492	1.3842	0.0277
318.15	0.9488	1.3543	0.0271
318.15	1	1.3299	0.0266

System: 1,4-butanediol + water; phases: Liquid
Fixed: Pressure, kPa = 100
Property: Viscosity, Pa*s (Liquid); method: Falling or rolling sphere viscometry
Temperature, K	Mole fraction of water	Viscosity, Pa*s	uncertainty
293.15	0	0.0907	0.014614
293.15	0.1257	0.07528	0.012087
293.15	0.2783	0.05811	0.009305
293.15	0.3033	0.05465	0.008748
293.15	0.4009	0.04404	0.007055
293.15	0.5008	0.03385	0.005422
293.15	0.6662	0.01958	0.003136
293.15	0.7003	0.016598	0.002659
293.15	0.8013	0.009634	0.001543
293.15	0.8979	0.004127	0.000661
293.15	1	0.000949	0.000152
298.15	0	0.06989	0.011211
298.15	0.1257	0.05795	0.00928
298.15	0.2783	0.04452	0.007133
298.15	0.3033	0.042	0.006729
298.15	0.4009	0.03394	0.005437
298.15	0.5008	0.02534	0.004059
298.15	0.6662	0.0139	0.002227
298.15	0.7003	0.01157	0.001853
298.15	0.8013	0.006814	0.001092
298.15	0.8979	0.003267	0.000523
298.15	1	0.000843	0.000135
303.15	0	0.05524	0.008845
303.15	0.1257	0.04505	0.007218
303.15	0.2783	0.03359	0.005382
303.15	0.3033	0.03163	0.005067
303.15	0.4009	0.02507	0.004016
303.15	0.5008	0.01865	0.002988
303.15	0.6662	0.01011	0.00162
303.15	0.7003	0.008774	0.001405
303.15	0.8013	0.005035	0.000807
303.15	0.8979	0.002369	0.00038
303.15	1	0.000755	0.000121

System: 1,5-pentanediol + water; phases: Liquid
Fixed: Pressure, kPa = 100
Property: Mass density, kg/m3 (Liquid); method: Vibrating tube method
Temperature, K	Mole fraction of water	Mass density, kg/m3	uncertainty
288.15	0	992.2	4
288.15	0.1326	995.2	4
288.15	0.2201	997	4
288.15	0.2345	997.3	4
288.15	0.3001	998.6	4
288.15	0.406	1000.7	4
288.15	0.4969	1002.6	4
288.15	0.5262	1003.2	4
288.15	0.5488	1003.7	4
288.15	0.6032	1004.8	4
288.15	0.7012	1006.6	4
288.15	0.7745	1007.1	4
288.15	0.8051	1007	4
288.15	0.8998	1005.3	4
288.15	1	999.2	4
293.15	0	989.2	4
293.15	0.1326	992.1	4
293.15	0.2201	993.9	4
293.15	0.2345	994.2	4
293.15	0.3001	995.5	4
293.15	0.406	997.6	4
293.15	0.4969	999.5	4
293.15	0.5262	1000.2	4
293.15	0.5488	1000.7	4
293.15	0.6032	1001.9	4
293.15	0.7012	1003.8	4
293.15	0.7745	1004.6	4
293.15	0.8051	1004.6	4
293.15	0.8998	1003.2	4
293.15	1	998.3	4
298.15	0	986.2	4
298.15	0.1326	989	4
298.15	0.2201	990.8	4
298.15	0.2345	991	4
298.15	0.3001	992.4	4
298.15	0.406	994.5	4
298.15	0.4969	996.4	4
298.15	0.5262	997.1	4
298.15	0.5488	997.7	4
298.15	0.6032	998.9	4
298.15	0.7012	1000.9	4
298.15	0.7745	1001.9	4
298.15	0.8051	1002.1	4
298.15	0.8998	1000.9	4
298.15	1	997.1	4
303.15	0	983.2	4
303.15	0.1326	985.9	4
303.15	0.2201	987.7	4
303.15	0.2345	988	4
303.15	0.3001	989.3	4
303.15	0.406	991.4	4
303.15	0.4969	993.4	4
303.15	0.5262	994.1	4
303.15	0.5488	994.7	4
303.15	0.6032	996	4
303.15	0.7012	998	4
303.15	0.7745	999.1	4
303.15	0.8051	999.5	4
303.15	0.8998	998.6	4
303.15	1	995.7	4
308.15	0	980.3	4
308.15	0.1326	982.9	4
308.15	0.2201	984.7	4
308.15	0.2345	985	4
308.15	0.3001	986.3	4
308.15	0.406	988.5	4
308.15	0.4969	990.5	4
308.15	0.5262	991.2	4
308.15	0.5488	991.8	4
308.15	0.6032	993.1	4
308.15	0.7012	995.2	4
308.15	0.7745	996.4	4
308.15	0.8051	996.7	4
308.15	0.8998	996.3	4
308.15	1	994	4
313.15	0	977.4	4
313.15	0.1326	979.9	4
313.15	0.2201	981.7	4
313.15	0.2345	982	4
313.15	0.3001	983.3	4
313.15	0.406	985.5	4
313.15	0.4969	987.6	4
313.15	0.5262	988.3	4
313.15	0.5488	988.9	4
313.15	0.6032	990.2	4
313.15	0.7012	992.3	4
313.15	0.7745	993.7	4
313.15	0.8051	994.1	4
313.15	0.8998	993.9	4
313.15	1	992.2	4
318.15	0	974.8	4
318.15	0.1326	977.3	4
318.15	0.2201	979	3.9
318.15	0.2345	979.3	3.9
318.15	0.3001	980.6	3.9
318.15	0.406	982.8	3.9
318.15	0.4969	985	3.9
318.15	0.5262	985.7	3.9
318.15	0.5488	986.3	4
318.15	0.6032	987.6	4
318.15	0.7012	989.8	4
318.15	0.7745	991.2	4
318.15	0.8051	991.6	4
318.15	0.8998	992	4
318.15	1	990.8	4

System: 1,5-pentanediol + water; phases: Liquid
Fixed: Pressure, kPa = 100
Property: Refractive index (Na D-line) (Liquid); method: Standard Abbe refractometry
Temperature, K	Mole fraction of water	Refractive index (Na D-line)	uncertainty
288.15	0	1.4503	0.029
288.15	0.1235	1.4493	0.029
288.15	0.2586	1.4477	0.029
288.15	0.3455	1.4463	0.0289
288.15	0.4864	1.4425	0.0289
288.15	0.5755	1.4401	0.0288
288.15	0.6777	1.4342	0.0287
288.15	0.7611	1.4253	0.0285
288.15	0.8474	1.4085	0.0282
288.15	0.9205	1.3851	0.0277
288.15	1	1.3338	0.0267
293.15	0	1.449	0.029
293.15	0.1235	1.4477	0.029
293.15	0.2586	1.4462	0.0289
293.15	0.3455	1.4447	0.0289
293.15	0.4864	1.4411	0.0288
293.15	0.5755	1.4386	0.0288
293.15	0.6777	1.4328	0.0287
293.15	0.7611	1.4239	0.0285
293.15	0.8474	1.4073	0.0281
293.15	0.9205	1.384	0.0277
293.15	1	1.3331	0.0267
298.15	0	1.4478	0.029
298.15	0.1235	1.4464	0.0289
298.15	0.2586	1.4447	0.0289
298.15	0.3455	1.4432	0.0289
298.15	0.4864	1.4396	0.0288
298.15	0.5755	1.4371	0.0287
298.15	0.6777	1.4315	0.0286
298.15	0.7611	1.4225	0.0285
298.15	0.8474	1.406	0.0281
298.15	0.9205	1.3828	0.0277
298.15	1	1.3325	0.0267
303.15	0	1.4466	0.0289
303.15	0.1235	1.4448	0.0289
303.15	0.2586	1.4431	0.0289
303.15	0.3455	1.4416	0.0288
303.15	0.4864	1.438	0.0288
303.15	0.5755	1.4355	0.0287
303.15	0.6777	1.43	0.0286
303.15	0.7611	1.4211	0.0284
303.15	0.8474	1.4048	0.0281
303.15	0.9205	1.3816	0.0276
303.15	1	1.3318	0.0266
308.15	0	1.4454	0.0289
308.15	0.1235	1.4434	0.0289
308.15	0.2586	1.4416	0.0288
308.15	0.3455	1.4402	0.0288
308.15	0.4864	1.4367	0.0287
308.15	0.5755	1.4341	0.0287
308.15	0.6777	1.4286	0.0286
308.15	0.7611	1.4197	0.0284
308.15	0.8474	1.4035	0.0281
308.15	0.9205	1.3804	0.0276
308.15	1	1.3312	0.0266
313.15	0	1.4441	0.0289
313.15	0.1235	1.4419	0.0288
313.15	0.2586	1.44	0.0288
313.15	0.3455	1.4386	0.0288
313.15	0.4864	1.4352	0.0287
313.15	0.5755	1.4326	0.0287
313.15	0.6777	1.4271	0.0285
313.15	0.7611	1.4183	0.0284
313.15	0.8474	1.4022	0.028
313.15	0.9205	1.3793	0.0276
313.15	1	1.3305	0.0266
318.15	0	1.443	0.0289
318.15	0.1235	1.4408	0.0288
318.15	0.2586	1.4386	0.0288
318.15	0.3455	1.4373	0.0287
318.15	0.4864	1.434	0.0287
318.15	0.5755	1.4313	0.0286
318.15	0.6777	1.4259	0.0285
318.15	0.7611	1.4171	0.0283
318.15	0.8474	1.401	0.028
318.15	0.9205	1.3781	0.0276
318.15	1	1.3299	0.0266

System: 1,5-pentanediol + water; phases: Liquid
Fixed: Pressure, kPa = 100
Property: Viscosity, Pa*s (Liquid); method: Falling or rolling sphere viscometry
Temperature, K	Mole fraction of water	Viscosity, Pa*s	uncertainty
293.15	0	0.1187	0.019289
293.15	0.2586	0.09252	0.014923
293.15	0.3	0.08543	0.013755
293.15	0.4864	0.05143	0.008234
293.15	0.4969	0.04966	0.007959
293.15	0.6777	0.02501	0.004007
293.15	0.7611	0.0161	0.002579
293.15	0.8474	0.008205	0.001315
293.15	0.9205	0.003733	0.000598
293.15	1	0.000949	0.000152
298.15	0	0.08679	0.013991
298.15	0.2586	0.07036	0.011295
298.15	0.3	0.06559	0.01052
298.15	0.4864	0.03951	0.006332
298.15	0.4969	0.03856	0.006179
298.15	0.6777	0.01975	0.003164
298.15	0.7611	0.01271	0.002036
298.15	0.8474	0.006627	0.001062
298.15	0.9205	0.003103	0.000497
298.15	1	0.000843	0.000135
303.15	0	0.0683	0.010969
303.15	0.2586	0.05461	0.008749
303.15	0.3	0.05103	0.008174
303.15	0.4864	0.031	0.004968
303.15	0.4969	0.03024	0.004846
303.15	0.6777	0.01578	0.002528
303.15	0.7611	0.01016	0.001628
303.15	0.8474	0.005439	0.000871
303.15	0.9205	0.002615	0.000419
303.15	1	0.000755	0.000121
