Measured thermophysical data. Experiment and Computation of Solubility and Dissolution Properties for Enalapril Maleate and Its Intermediate in Pure Solvents
Source: J. Chem. Eng. Data, 2018, 10.1021/acs.jced.8b00333
Compound 1: ((S)-1-ethoxy-1-oxo-4-phenylbutan-2-yl)-L-alanine, C15H21NO4, InChI=1S/C15H21NO4/c1-3-20-15(19)13(16-11(2)14(17)18)10-9-12-7-5-4-6-8-12/h4-8,11,13,16H,3,9-10H2,1-2H3,(H,17,18)/t11-,13-/m0/s1, purity 98.2%
Compound 2: enalapril maleate, C24H32N2O9, InChI=1S/C20H28N2O5.C4H4O4/c1-3-27-20(26)16(12-11-15-8-5-4-6-9-15)21-14(2)18(23)22-13-7-10-17(22)19(24)25;5-3(6)1-2-4(7)8/h4-6,8-9,14,16-17,21H,3,7,10-13H2,1-2H3,(H,24,25);1-2H,(H,5,6)(H,7,8)/b;2-1-/t14-,16-,17-;/m0./s1, purity 97.4%
Compound 3: ethanol, C2H6O, InChI=1S/C2H6O/c1-2-3/h3H,2H2,1H3, purity 99.4%
Compound 4: propan-2-ol, C3H8O, InChI=1S/C3H8O/c1-3(2)4/h3-4H,1-2H3, purity 99.4%
Compound 5: ethyl acetate, C4H8O2, InChI=1S/C4H8O2/c1-3-6-4(2)5/h3H2,1-2H3, purity 99.5%
Compound 6: acetone, C3H6O, InChI=1S/C3H6O/c1-3(2)4/h1-2H3, purity 99.5%
Compound 7: acetonitrile, C2H3N, InChI=1S/C2H3N/c1-2-3/h1H3, purity 99.5%
Compound 8: octan-1-ol, C8H18O, InChI=1S/C8H18O/c1-2-3-4-5-6-7-8-9/h9H,2-8H2,1H3, purity 99.5%
Compound 9: benzoic acid, C7H6O2, InChI=1S/C7H6O2/c8-7(9)6-4-2-1-3-5-6/h1-5H,(H,8,9), purity 99.5%
Compound 10: toluene, C7H8, InChI=1S/C7H8/c1-7-5-3-2-4-6-7/h2-6H,1H3, purity 99.6%

System: ((S)-1-ethoxy-1-oxo-4-phenylbutan-2-yl)-L-alanine; phases: Crystal, Liquid, Air at 1 atmosphere
Property: Normal melting temperature, K (Crystal); method: DTA
Normal melting temperature, K	uncertainty
426.51	1.06

System: ((S)-1-ethoxy-1-oxo-4-phenylbutan-2-yl)-L-alanine; phases: Crystal, Liquid, Air at 1 atmosphere
Property: Molar enthalpy of transition or fusion, kJ/mol (Crystal); method: DSC
Molar enthalpy of transition or fusion, kJ/mol	uncertainty
57.97	1.36

System: ((S)-1-ethoxy-1-oxo-4-phenylbutan-2-yl)-L-alanine + ethanol; phases: Liquid, Crystal
Fixed: Pressure, kPa = 101.3
Property: Mole fraction of ((S)-1-ethoxy-1-oxo-4-phenylbutan-2-yl)-L-alanine (Liquid); method: Chromatography
Temperature, K	Mole fraction of ((S)-1-ethoxy-1-oxo-4-phenylbutan-2-yl)-L-alanine	uncertainty
273.15	0.002728	0.000546
278.15	0.002813	0.000563
283.15	0.002942	0.000588
288.15	0.003122	0.000624
293.15	0.003343	0.000669
298.15	0.003602	0.00072
303.15	0.003961	0.000792
308.15	0.004381	0.000876
313.15	0.004893	0.000979
318.15	0.005446	0.001089

System: ((S)-1-ethoxy-1-oxo-4-phenylbutan-2-yl)-L-alanine + acetonitrile; phases: Liquid, Crystal
Fixed: Pressure, kPa = 101.3
Property: Mole fraction of ((S)-1-ethoxy-1-oxo-4-phenylbutan-2-yl)-L-alanine (Liquid); method: Chromatography
Temperature, K	Mole fraction of ((S)-1-ethoxy-1-oxo-4-phenylbutan-2-yl)-L-alanine	uncertainty
273.15	0.0001005	2.01e-05
278.15	0.0001819	3.64e-05
283.15	0.0002864	5.73e-05
288.15	0.0004409	8.82e-05
293.15	0.000651	0.0001302
298.15	0.0009529	0.0001906
303.15	0.001356	0.000271
308.15	0.001946	0.000389
313.15	0.002637	0.000527
318.15	0.00346	0.000692

System: ((S)-1-ethoxy-1-oxo-4-phenylbutan-2-yl)-L-alanine + propan-2-ol; phases: Liquid, Crystal
Fixed: Pressure, kPa = 101.3
Property: Mole fraction of ((S)-1-ethoxy-1-oxo-4-phenylbutan-2-yl)-L-alanine (Liquid); method: Chromatography
Temperature, K	Mole fraction of ((S)-1-ethoxy-1-oxo-4-phenylbutan-2-yl)-L-alanine	uncertainty
273.15	0.0009209	0.0001842
278.15	0.001047	0.000209
283.15	0.001198	0.00024
288.15	0.001408	0.000282
293.15	0.001642	0.000328
298.15	0.001913	0.000383
303.15	0.002214	0.000443
308.15	0.002565	0.000513
313.15	0.003011	0.000602
318.15	0.003604	0.000721

System: ((S)-1-ethoxy-1-oxo-4-phenylbutan-2-yl)-L-alanine + acetone; phases: Liquid, Crystal
Fixed: Pressure, kPa = 101.3
Property: Mole fraction of ((S)-1-ethoxy-1-oxo-4-phenylbutan-2-yl)-L-alanine (Liquid); method: Chromatography
Temperature, K	Mole fraction of ((S)-1-ethoxy-1-oxo-4-phenylbutan-2-yl)-L-alanine	uncertainty
273.15	0.003875	0.000775
278.15	0.004261	0.000852
283.15	0.004681	0.000936
288.15	0.005147	0.001029
293.15	0.005682	0.001136
298.15	0.00627	0.001254
303.15	0.006999	0.0014
308.15	0.0078	0.00156
313.15	0.00868	0.001736
318.15	0.009697	0.00194

System: ((S)-1-ethoxy-1-oxo-4-phenylbutan-2-yl)-L-alanine + ethyl acetate; phases: Liquid, Crystal
Fixed: Pressure, kPa = 101.3
Property: Mole fraction of ((S)-1-ethoxy-1-oxo-4-phenylbutan-2-yl)-L-alanine (Liquid); method: Chromatography
Temperature, K	Mole fraction of ((S)-1-ethoxy-1-oxo-4-phenylbutan-2-yl)-L-alanine	uncertainty
273.15	0.008977	0.001796
278.15	0.009197	0.00184
283.15	0.009508	0.001902
288.15	0.009912	0.001983
293.15	0.01039	0.00208
298.15	0.01094	0.00219
303.15	0.01155	0.00231
308.15	0.01225	0.00245
313.15	0.01309	0.00262
318.15	0.01397	0.00279

System: ((S)-1-ethoxy-1-oxo-4-phenylbutan-2-yl)-L-alanine + octan-1-ol; phases: Liquid, Crystal
Fixed: Pressure, kPa = 101.3
Property: Mole fraction of ((S)-1-ethoxy-1-oxo-4-phenylbutan-2-yl)-L-alanine (Liquid); method: Chromatography
Temperature, K	Mole fraction of ((S)-1-ethoxy-1-oxo-4-phenylbutan-2-yl)-L-alanine	uncertainty
273.15	0.002152	0.00043
278.15	0.002227	0.000445
283.15	0.002327	0.000465
288.15	0.002464	0.000493
293.15	0.002628	0.000526
298.15	0.002844	0.000569
303.15	0.003098	0.00062
308.15	0.003428	0.000686
313.15	0.003777	0.000755
318.15	0.004199	0.00084

System: enalapril maleate + ethanol; phases: Liquid, Crystal
Fixed: Pressure, kPa = 101.3
Property: Mole fraction of enalapril maleate (Liquid); method: Chromatography
Temperature, K	Mole fraction of enalapril maleate	uncertainty
273.15	0.0006165	0.0001233
278.15	0.0007611	0.0001522
283.15	0.000998	0.0001996
288.15	0.001331	0.000266
293.15	0.001768	0.000354
298.15	0.002259	0.000452
303.15	0.002917	0.000583
308.15	0.003659	0.000732
313.15	0.00449	0.000898
318.15	0.005355	0.001071

System: enalapril maleate + acetonitrile; phases: Liquid, Crystal
Fixed: Pressure, kPa = 101.3
Property: Mole fraction of enalapril maleate (Liquid); method: Chromatography
Temperature, K	Mole fraction of enalapril maleate	uncertainty
273.15	0.000394	7.88e-05
278.15	0.0005007	0.0001002
283.15	0.0006303	0.0001261
288.15	0.0008077	0.0001616
293.15	0.001032	0.000206
298.15	0.001304	0.000261
303.15	0.001637	0.000327
308.15	0.002032	0.000406
313.15	0.002546	0.000509
318.15	0.003107	0.000621

System: enalapril maleate + propan-2-ol; phases: Liquid, Crystal
Fixed: Pressure, kPa = 101.3
Property: Mole fraction of enalapril maleate (Liquid); method: Chromatography
Temperature, K	Mole fraction of enalapril maleate	uncertainty
273.15	0.0001302	2.6e-05
278.15	0.0001666	3.33e-05
283.15	0.0002316	4.63e-05
288.15	0.0003258	6.52e-05
293.15	0.0004557	9.12e-05
298.15	0.0006287	0.0001258
303.15	0.0008449	0.000169
308.15	0.001104	0.000221
313.15	0.001407	0.000281
318.15	0.001752	0.00035

System: enalapril maleate + acetone; phases: Liquid, Crystal
Fixed: Pressure, kPa = 101.3
Property: Mole fraction of enalapril maleate (Liquid); method: Chromatography
Temperature, K	Mole fraction of enalapril maleate	uncertainty
273.15	0.001126	0.000225
278.15	0.001364	0.000273
283.15	0.001681	0.000336
288.15	0.002055	0.000411
293.15	0.002532	0.000506
298.15	0.003098	0.00062
303.15	0.003796	0.000759
308.15	0.00454	0.000908
313.15	0.005428	0.001086
318.15	0.006513	0.001303

System: enalapril maleate + ethyl acetate; phases: Liquid, Crystal
Fixed: Pressure, kPa = 101.3
Property: Mole fraction of enalapril maleate (Liquid); method: Chromatography
Temperature, K	Mole fraction of enalapril maleate	uncertainty
273.15	0.001344	0.000269
278.15	0.001756	0.000351
283.15	0.002309	0.000462
288.15	0.002957	0.000591
293.15	0.003662	0.000732
298.15	0.004499	0.0009
303.15	0.005425	0.001085
308.15	0.006517	0.001304
313.15	0.007708	0.001542
318.15	0.008947	0.00179

System: enalapril maleate + octan-1-ol; phases: Liquid, Crystal
Fixed: Pressure, kPa = 101.3
Property: Mole fraction of enalapril maleate (Liquid); method: Chromatography
Temperature, K	Mole fraction of enalapril maleate	uncertainty
273.15	0.0002379	4.76e-05
278.15	0.0003337	6.67e-05
283.15	0.0004574	9.15e-05
288.15	0.0006218	0.0001244
293.15	0.0008198	0.000164
298.15	0.001051	0.00021
303.15	0.001311	0.000262
308.15	0.001664	0.000333
313.15	0.002063	0.000413
318.15	0.002562	0.000512

System: benzoic acid + toluene; phases: Liquid, Crystal
Fixed: Pressure, kPa = 101.3
Property: Mole fraction of benzoic acid (Liquid); method: Chromatography
Temperature, K	Mole fraction of benzoic acid	uncertainty
273.15	0.03267	0.00653
278.15	0.03594	0.00719
283.15	0.04329	0.00866
288.15	0.05213	0.01043
293.15	0.06189	0.01238
298.15	0.07491	0.01498
303.15	0.09067	0.01814
308.15	0.109	0.0218
313.15	0.1312	0.0262
318.15	0.158	0.0316
