Measured thermophysical data. High-Pressure Vapor-Liquid Equilibria for a CO2 + p-Cymene Binary System at Temperatures from 313.15 to 353.15 K
Source: J. Chem. Eng. Data, 2019, 10.1021/acs.jced.9b00664
Compound 1: carbon dioxide, CO2, InChI=1S/CO2/c2-1-3, purity 99.9%
Compound 2: 1-(1-methylethyl)-4-methylbenzene, C10H14, InChI=1S/C10H14/c1-8(2)10-6-4-9(3)5-7-10/h4-8H,1-3H3, purity 99%

System: carbon dioxide + 1-(1-methylethyl)-4-methylbenzene; phases: Liquid, Gas
Property: Vapor or sublimation pressure, kPa (Liquid); method: Closed cell (Static) method
Mole fraction of carbon dioxide	Temperature, K	Vapor or sublimation pressure, kPa	uncertainty
0.7411	313.15	6000	1400
0.7895	313.15	6800	1100
0.8429	313.15	7400	1400
0.9043	313.15	8000	1100
0.9415	313.15	8400	700
0.5071	333.15	6000	1200
0.709	333.15	8200	1200
0.7682	333.15	9200	1300
0.8361	333.15	10000	1500
0.9017	333.15	11000	1400
0.9459	333.15	11600	900
0.4154	353.15	6000	1500
0.5846	353.15	8400	1500
0.6517	353.15	9000	1500
0.6948	353.15	10000	1700
0.7538	353.15	11000	2000
0.8059	353.15	12000	1800

System: carbon dioxide + 1-(1-methylethyl)-4-methylbenzene; phases: Gas, Liquid
Property: Mole fraction of carbon dioxide (Gas); method: Chromatography
Mole fraction of carbon dioxide	Temperature, K	Mole fraction of carbon dioxide	uncertainty
0.7411	313.15	0.9991	0.0009
0.7895	313.15	0.9989	0.0011
0.8429	313.15	0.9985	0.0015
0.9043	313.15	0.9979	0.0021
0.9415	313.15	0.997	0.0021
0.5071	333.15	0.998	0.002
0.709	333.15	0.9976	0.0024
0.7682	333.15	0.995	0.0027
0.8361	333.15	0.9929	0.0053
0.9017	333.15	0.9904	0.0039
0.9459	333.15	0.9856	0.0041
0.4154	353.15	0.9976	0.0024
0.5846	353.15	0.9954	0.0026
0.6517	353.15	0.9945	0.0029
0.6948	353.15	0.9927	0.0044
0.7538	353.15	0.9898	0.005
0.8059	353.15	0.9867	0.0058
