Measured thermophysical data. Solubility Measurements at 296 and 310 K and Physicochemical Characterization of Abiraterone and Abiraterone Acetate
Source: J. Chem. Eng. Data, 2018, 10.1021/acs.jced.8b00566
Compound 1: abiraterone, C24H31NO, InChI=1S/C24H31NO/c1-23-11-9-18(26)14-17(23)5-6-19-21-8-7-20(16-4-3-13-25-15-16)24(21,2)12-10-22(19)23/h3-5,7,13,15,18-19,21-22,26H,6,8-12,14H2,1-2H3/t18-,19-,21-,22-,23-,24+/m0/s1, purity 99.5%
Compound 2: abiraterone acetate, C26H33NO2, InChI=1S/C26H33NO2/c1-17(28)29-20-10-12-25(2)19(15-20)6-7-21-23-9-8-22(18-5-4-14-27-16-18)26(23,3)13-11-24(21)25/h4-6,8,14,16,20-21,23-24H,7,9-13,15H2,1-3H3/t20-,21-,23-,24-,25-,26+/m0/s1, purity 99.4%
Compound 3: methanol, CH4O, InChI=1S/CH4O/c1-2/h2H,1H3, purity 99.9%
Compound 4: ethanol, C2H6O, InChI=1S/C2H6O/c1-2-3/h3H,2H2,1H3, purity 99.9%
Compound 5: propan-2-ol, C3H8O, InChI=1S/C3H8O/c1-3(2)4/h3-4H,1-2H3, purity 99.9%
Compound 6: propan-1-ol, C3H8O, InChI=1S/C3H8O/c1-2-3-4/h4H,2-3H2,1H3, purity 99.9%
Compound 7: acetone, C3H6O, InChI=1S/C3H6O/c1-3(2)4/h1-2H3, purity 99.9%
Compound 8: acetonitrile, C2H3N, InChI=1S/C2H3N/c1-2-3/h1H3, purity 99.9%
Compound 9: tetrahydrofuran, C4H8O, InChI=1S/C4H8O/c1-2-4-5-3-1/h1-4H2, purity 99.9%

System: abiraterone; phases: Crystal, Liquid, Air at 1 atmosphere
Property: Triple point temperature, K (Crystal); method: DSC
Triple point temperature, K	uncertainty
501.4	0.8

System: abiraterone; phases: Crystal, Liquid, Air at 1 atmosphere
Property: Molar enthalpy of transition or fusion, kJ/mol (Crystal); method: DSC
Molar enthalpy of transition or fusion, kJ/mol	uncertainty
45.121622228	1.153379964

System: abiraterone acetate; phases: Crystal, Liquid, Air at 1 atmosphere
Property: Triple point temperature, K (Crystal); method: DSC
Triple point temperature, K	uncertainty
419.3	0.8

System: abiraterone acetate; phases: Crystal, Liquid, Air at 1 atmosphere
Property: Molar enthalpy of transition or fusion, kJ/mol (Crystal); method: DSC
Molar enthalpy of transition or fusion, kJ/mol	uncertainty
25.802865584	1.018018976

System: abiraterone + methanol; phases: Liquid, Crystal
Fixed: Pressure, kPa = 100
Property: Mole fraction of abiraterone (Liquid); method: UV spectroscopy
Temperature, K	Mole fraction of abiraterone	uncertainty
296	0.00050516	7.778e-05
310	0.00062685	0.00011374

System: abiraterone + ethanol; phases: Liquid, Crystal
Fixed: Pressure, kPa = 100
Property: Mole fraction of abiraterone (Liquid); method: OTHER
Temperature, K	Mole fraction of abiraterone	uncertainty
296	0.00094483	5.673e-05
310	0.00122608	5.92e-05

System: abiraterone + propan-1-ol; phases: Liquid, Crystal
Fixed: Pressure, kPa = 100
Property: Mole fraction of abiraterone (Liquid); method: OTHER
Temperature, K	Mole fraction of abiraterone	uncertainty
296	0.00173896	0.00010725
310	0.00231078	8.231e-05

System: abiraterone + propan-2-ol; phases: Liquid, Crystal
Fixed: Pressure, kPa = 100
Property: Mole fraction of abiraterone (Liquid); method: OTHER
Temperature, K	Mole fraction of abiraterone	uncertainty
296	0.00157658	0.00038489
310	0.00152493	3.029e-05

System: abiraterone + acetonitrile; phases: Liquid, Crystal
Fixed: Pressure, kPa = 100
Property: Mole fraction of abiraterone (Liquid); method: OTHER
Temperature, K	Mole fraction of abiraterone	uncertainty
296	4.322e-05	8.62e-06
310	6.182e-05	6.182e-05

System: abiraterone + tetrahydrofuran; phases: Liquid, Crystal
Fixed: Pressure, kPa = 100
Property: Mole fraction of abiraterone (Liquid); method: OTHER
Temperature, K	Mole fraction of abiraterone	uncertainty
296	0.0023359	0.00017539
310	0.00356181	0.00017962

System: abiraterone acetate + methanol; phases: Liquid, Crystal
Fixed: Pressure, kPa = 100
Property: Mole fraction of abiraterone acetate (Liquid); method: OTHER
Temperature, K	Mole fraction of abiraterone acetate	uncertainty
296	0.00500179	0.00016121
310	0.00590945	0.00015393

System: abiraterone acetate + ethanol; phases: Liquid, Crystal
Fixed: Pressure, kPa = 100
Property: Mole fraction of abiraterone acetate (Liquid); method: OTHER
Temperature, K	Mole fraction of abiraterone acetate	uncertainty
296	0.00984327	0.00022023
310	0.0113511	0.00021965

System: abiraterone acetate + propan-1-ol; phases: Liquid, Crystal
Fixed: Pressure, kPa = 100
Property: Mole fraction of abiraterone acetate (Liquid); method: OTHER
Temperature, K	Mole fraction of abiraterone acetate	uncertainty
296	0.02140667	0.00045764
310	0.02443949	0.00044744

System: abiraterone acetate + propan-2-ol; phases: Liquid, Crystal
Fixed: Pressure, kPa = 100
Property: Mole fraction of abiraterone acetate (Liquid); method: OTHER
Temperature, K	Mole fraction of abiraterone acetate	uncertainty
296	0.01256525	0.0002084
310	0.01400107	0.00021697

System: abiraterone acetate + acetone; phases: Liquid, Crystal
Fixed: Pressure, kPa = 100
Property: Mole fraction of abiraterone acetate (Liquid); method: OTHER
Temperature, K	Mole fraction of abiraterone acetate	uncertainty
296	0.01144174	0.00055822
310	0.01529576	0.00056291

System: abiraterone acetate + acetonitrile; phases: Liquid, Crystal
Fixed: Pressure, kPa = 100
Property: Mole fraction of abiraterone acetate (Liquid); method: OTHER
Temperature, K	Mole fraction of abiraterone acetate	uncertainty
296	0.00200192	0.00015755
310	0.00245462	0.00011209
