Measured thermophysical data. Salting Effect of Sodium Hydroxide and Sodium Formate on the Liquid-Liquid Equilibrium of Polyoxymethylene Dimethyl Ethers in Aqueous Solution
Source: J. Chem. Eng. Data, 2019, 10.1021/acs.jced.9b00081
Compound 1: dimethoxymethane, C3H8O2, InChI=1S/C3H8O2/c1-4-3-5-2/h3H2,1-2H3, purity 99%
Compound 2: 2,4,6-trioxaheptane, C4H10O3, InChI=1S/C4H10O3/c1-5-3-7-4-6-2/h3-4H2,1-2H3, purity 99%
Compound 3: sodium hydroxide, HNaO, InChI=1S/Na.H2O/h;1H2/q+1;/p-1, purity 98%
Compound 4: sodium methanoate, CHNaO2, InChI=1S/CH2O2.Na/c2-1-3;/h1H,(H,2,3);/q;+1/p-1, purity 99.5%
Compound 5: water, H2O, InChI=1S/H2O/h1H2, purity 99.9%

System: dimethoxymethane + water + sodium methanoate; phases: Liquid mixture 2, Liquid mixture 1
Fixed: Pressure, kPa = 100
Property: Mass fraction of water (Liquid mixture 2); method: OTHER
Property: Mass fraction of water (Liquid mixture 1); method: OTHER
Property: Mass fraction of dimethoxymethane (Liquid mixture 1); method: OTHER
Temperature, K	Mass fraction of dimethoxymethane	Mass fraction of water	uncertainty	Mass fraction of water	uncertainty	Mass fraction of dimethoxymethane	uncertainty
293.15	0.3523	0.6477	0.0407	0.0418	0.003	0.9582	
293.15	0.2662	0.6755	0.0406	0.0383	0.0029	0.9617	
293.15	0.1696	0.7146	0.0405	0.0319	0.0029	0.9681	
308.15	0.3361	0.6639	0.0407	0.045	0.003	0.955	
293.15	0.115	0.7176	0.0405	0.0264	0.0029	0.9736	
308.15	0.3409	0.6591	0.0407	0.0444	0.003	0.9556	
308.15	0.1558	0.7336	0.0404	0.0366	0.0029	0.9634	
308.15	0.0554	0.738	0.0405	0.0287	0.0029	0.9713	
308.15	0.0364	0.6723	0.0412	0.0244	0.0029	0.9756	
308.15	0.206	0.7186	0.0404	0.0376	0.0029	0.9624	
293.15	0.2556	0.673	0.0406	0.0344	0.0029	0.9656	
293.15	0.1687	0.6971	0.0405	0.028	0.0029	0.972	
308.15	0.1185	0.733	0.0404	0.0331	0.0029	0.9669	
308.15	0.0688	0.7183	0.0404	0.0307	0.0029	0.9693	
308.15	0.2284	0.7135	0.0405	0.0409	0.003	0.9591	
308.15	0.1542	0.7304	0.0404	0.0362	0.0029	0.9638	
308.15	0.1041	0.7255	0.0404	0.034	0.0029	0.966	
293.15	0.1054	0.6932	0.0408	0.0235	0.0029	0.9765	
293.15	0.1198	0.6655	0.0461	0.0236	0.0029	0.9764	
293.15	0.0483	0.6597	0.0407	0.0201	0.0029	0.9799	
293.15	0.3483	0.6517	0.0407	0.0421	0.003	0.9579	
293.15	0.2685	0.6731	0.0406	0.035	0.0029	0.965	
293.15	0.198	0.6889	0.0406	0.0309	0.0029	0.9691	
293.15	0.1426	0.6914	0.0406	0.0264	0.0029	0.9736	

System: dimethoxymethane + water + sodium hydroxide; phases: Liquid mixture 2, Liquid mixture 1
Fixed: Pressure, kPa = 100
Property: Mass fraction of water (Liquid mixture 2); method: OTHER
Property: Mass fraction of water (Liquid mixture 1); method: OTHER
Property: Mass fraction of dimethoxymethane (Liquid mixture 1); method: OTHER
Temperature, K	Mass fraction of dimethoxymethane	Mass fraction of water	uncertainty	Mass fraction of water	uncertainty	Mass fraction of dimethoxymethane	uncertainty
293.15	0.9711	0.0289	0.0029	0.8084	0.0402	0.105	
308.15	0.9685	0.0315	0.0029	0.8439	0.0403	0.044	
308.15	0.9795	0.0205	0.0029	0.7959	0.0434	0.0053	
308.15	0.9884	0.0116	0.0028	0.7291	0.0421	0.0008	
308.15	0.9655	0.0345	0.0029	0.8464	0.0401	0.0804	
308.15	0.9737	0.0263	0.0029	0.8383	0.0402	0.0196	
308.15	0.9811	0.0189	0.0029	0.7898	0.0436	0.0059	
308.15	0.9612	0.0388	0.0029	0.8237	0.0402	0.1243	
308.15	0.9681	0.0319	0.0029	0.852	0.0403	0.0398	
308.15	0.9771	0.0229	0.0029	0.8238	0.0408	0.012	
293.15	0.9796	0.0204	0.0029	0.8296	0.0402	0.0188	
293.15	0.9841	0.0159	0.0028	0.767	0.0434	0.0078	
293.15	0.9704	0.0296	0.0029	0.7925	0.0402	0.1575	
293.15	0.9739	0.0261	0.0029	0.8333	0.0402	0.0604	
293.15	0.9802	0.0198	0.0029	0.8271	0.042	0.0159	
293.15	0.9711	0.0289	0.0029	0.8096	0.0402	0.1367	
293.15	0.9759	0.0241	0.0029	0.8336	0.0402	0.0487	
293.15	0.9803	0.0197	0.0029	0.8225	0.0419	0.0147	

System: 2,4,6-trioxaheptane + water + sodium methanoate; phases: Liquid mixture 1, Liquid mixture 2
Fixed: Pressure, kPa = 100
Property: Mass fraction of water (Liquid mixture 1); method: OTHER
Property: Mass fraction of water (Liquid mixture 2); method: OTHER
Property: Mass fraction of 2,4,6-trioxaheptane (Liquid mixture 2); method: OTHER
Temperature, K	Mass fraction of 2,4,6-trioxaheptane	Mass fraction of water	uncertainty	Mass fraction of water	uncertainty	Mass fraction of 2,4,6-trioxaheptane	uncertainty
293.15	0.3217	0.6783	0.0406	0.0428	0.003	0.9572	
293.15	0.1302	0.7764	0.0403	0.0347	0.0029	0.9653	
293.15	0.0557	0.7557	0.0464	0.0249	0.0029	0.9751	
293.15	0.0288	0.7069	0.0405	0.0222	0.0029	0.9778	
293.15	0.323	0.677	0.0406	0.043	0.003	0.957	
293.15	0.1851	0.7378	0.0404	0.0349	0.0029	0.9651	
293.15	0.1064	0.7455	0.0404	0.0271	0.0029	0.9729	
293.15	0.0529	0.7236	0.0465	0.0236	0.0029	0.9764	
293.15	0.2132	0.7415	0.0404	0.0392	0.0029	0.9608	
293.15	0.132	0.7715	0.0403	0.0332	0.0029	0.9668	
293.15	0.0841	0.7619	0.0403	0.0289	0.0029	0.9711	
308.15	0.3131	0.6869	0.0406	0.0542	0.0031	0.9458	
308.15	0.1184	0.786	0.0403	0.0389	0.0029	0.9611	
308.15	0.0488	0.757	0.0404	0.0294	0.0029	0.9706	
308.15	0.0242	0.7019	0.0408	0.0233	0.0029	0.9767	
308.15	0.3179	0.6821	0.0406	0.0539	0.0031	0.9461	
308.15	0.1664	0.7648	0.0403	0.0449	0.003	0.9551	
308.15	0.0871	0.7801	0.0403	0.0383	0.0029	0.9617	
308.15	0.0466	0.7545	0.0404	0.0335	0.0029	0.9665	
308.15	0.2015	0.7464	0.0404	0.0489	0.003	0.9511	
308.15	0.1254	0.7775	0.0404	0.0421	0.003	0.9579	
308.15	0.075	0.7718	0.0403	0.0376	0.0029	0.9624	

System: 2,4,6-trioxaheptane + water + sodium hydroxide; phases: Liquid mixture 1, Liquid mixture 2
Fixed: Pressure, kPa = 100
Property: Mass fraction of water (Liquid mixture 1); method: OTHER
Property: Mass fraction of water (Liquid mixture 2); method: OTHER
Property: Mass fraction of 2,4,6-trioxaheptane (Liquid mixture 2); method: OTHER
Temperature, K	Mass fraction of 2,4,6-trioxaheptane	Mass fraction of water	uncertainty	Mass fraction of water	uncertainty	Mass fraction of 2,4,6-trioxaheptane	uncertainty
293.15	0.0294	0.8683	0.0401	0.0263	0.0029	0.9737	
293.15	0.0021	0.7992	0.0417	0.0174	0.0029	0.9826	
293.15	0.0005	0.7353	0.041	0.0098	0.0028	0.9902	
293.15	0.0683	0.8631	0.0401	0.0326	0.0029	0.9674	
293.15	0.0135	0.8518	0.0402	0.0227	0.0029	0.9773	
293.15	0.0018	0.7951	0.0417	0.0165	0.0029	0.9835	
293.15	0.1069	0.8406	0.0401	0.034	0.0029	0.966	
293.15	0.0292	0.8639	0.0401	0.028	0.0029	0.972	
293.15	0.0074	0.8288	0.0412	0.0197	0.0029	0.9803	
308.15	0.027	0.8693	0.0401	0.0318	0.0029	0.9682	
308.15	0.0029	0.8055	0.0529	0.0203	0.0029	0.9797	
308.15	0.0005	0.7396	0.0426	0.0122	0.0028	0.9878	
308.15	0.06	0.8727	0.0401	0.0419	0.003	0.9581	
308.15	0.0107	0.8506	0.0403	0.0285	0.0029	0.9715	
308.15	0.0019	0.7978	0.0438	0.019	0.0029	0.981	
308.15	0.0912	0.8573	0.0401	0.0441	0.003	0.9559	
308.15	0.0256	0.8709	0.0401	0.0335	0.0029	0.9665	
308.15	0.0059	0.834	0.0417	0.0262	0.0029	0.9738	

System: dimethoxymethane + 2,4,6-trioxaheptane + water; phases: Liquid mixture 1, Liquid mixture 2
Fixed: Pressure, kPa = 100
Property: Mass fraction of dimethoxymethane (Liquid mixture 1); method: OTHER
Property: Mass fraction of water (Liquid mixture 2); method: OTHER
Property: Mass fraction of dimethoxymethane (Liquid mixture 2); method: OTHER
Temperature, K	Mass fraction of water	Mass fraction of dimethoxymethane	uncertainty	Mass fraction of water	uncertainty	Mass fraction of dimethoxymethane	uncertainty
293.15	0.6714	0.2447	0.0407	0.0418	0.0022	0.619	
293.15	0.6589	0.2798	0.0408	0.042	0.0022	0.7039	
308.15	0.0483	0.6264	0.0408	0.0483	0.0022	0.6264	
308.15	0.6683	0.2696	0.0404	0.0484	0.0022	0.7051	

System: dimethoxymethane + water; phases: Liquid mixture 1, Liquid mixture 2
Fixed: Pressure, kPa = 100
Property: Mass fraction of water (Liquid mixture 1); method: OTHER
Temperature, K	Mass fraction of water	uncertainty
293.15	0.0418	0.0022
308.15	0.045	0.0022
308.15	0.0444	0.0022
293.15	0.0421	0.0022

System: dimethoxymethane + water; phases: Liquid mixture 2, Liquid mixture 1
Fixed: Pressure, kPa = 100
Property: Mass fraction of water (Liquid mixture 2); method: OTHER
Temperature, K	Mass fraction of water	uncertainty
293.15	0.6477	0.0407
308.15	0.6639	0.0406
308.15	0.6591	0.0406
293.15	0.6517	0.0407

System: 2,4,6-trioxaheptane + water; phases: Liquid mixture 1, Liquid mixture 2
Fixed: Pressure, kPa = 100
Property: Mass fraction of water (Liquid mixture 1); method: OTHER
Temperature, K	Mass fraction of water	uncertainty
293.15	0.6783	0.0406
308.15	0.6869	0.0405
308.15	0.6821	0.0406
293.15	0.677	0.0406

System: 2,4,6-trioxaheptane + water; phases: Liquid mixture 2, Liquid mixture 1
Fixed: Pressure, kPa = 100
Property: Mass fraction of water (Liquid mixture 2); method: OTHER
Temperature, K	Mass fraction of water	uncertainty
293.15	0.0428	0.0022
308.15	0.0542	0.0023
308.15	0.0539	0.0023
293.15	0.043	0.0022
