Measured thermophysical data. Liquid-Liquid Equilibria in Binary Mixtures of Dihydroxy Alcohols and Imidazolium-Based Ionic Liquids
Source: J. Chem. Eng. Data, 2019, 10.1021/acs.jced.9b00283
Compound 1: 1-ethyl-3-methylimidazolium tetrafluoroborate, C6H11BF4N2, InChI=1S/C6H11N2.BF4/c1-3-8-5-4-7(2)6-8;2-1(3,4)5/h4-6H,3H2,1-2H3;/q+1;-1, purity 98.5%
Compound 2: 1-ethyl-3-methylimidazolium bis((trifluoromethyl)sulfonyl)imide, C8H11F6N3O4S2, InChI=1S/C6H11N2.C2F6NO4S2/c1-3-8-5-4-7(2)6-8;3-1(4,5)14(10,11)9-15(12,13)2(6,7)8/h4-6H,3H2,1-2H3;/q+1;-1, purity 99%
Compound 3: butan-2-ol, C4H10O, InChI=1S/C4H10O/c1-3-4(2)5/h4-5H,3H2,1-2H3, purity 99.5%
Compound 4: propan-1,3-diol, C3H8O2, InChI=1S/C3H8O2/c4-2-1-3-5/h4-5H,1-3H2, purity 98%
Compound 5: 1,4-butanediol, C4H10O2, InChI=1S/C4H10O2/c5-3-1-2-4-6/h5-6H,1-4H2, purity 99%
Compound 6: 1,5-pentanediol, C5H12O2, InChI=1S/C5H12O2/c6-4-2-1-3-5-7/h6-7H,1-5H2, purity 98%
Compound 7: water, H2O, InChI=1S/H2O/h1H2, purity 99.9%

System: 1,4-butanediol + 1-ethyl-3-methylimidazolium tetrafluoroborate; phases: Liquid mixture 1, Liquid mixture 2
Fixed: Pressure, kPa = 100
Property: Mole fraction of 1,4-butanediol (Liquid mixture 1); method: Phase equilibration
Temperature, K	Mole fraction of 1,4-butanediol	uncertainty
298.15	0.19	0.009
303.15	0.24	0.015
308.15	0.251	0.011
313.15	0.326	0.012

System: 1,4-butanediol + 1-ethyl-3-methylimidazolium tetrafluoroborate; phases: Liquid
Fixed: Pressure, kPa = 100
Property: Molar volume, m3/mol (Liquid); method: Pycnometric method
Temperature, K	Mole fraction of 1,4-butanediol	Molar volume, m3/mol	uncertainty
298.15	0.19	0.0001368	6e-07
303.15	0.24	0.0001346	6e-07
308.15	0.251	0.0001345	6e-07
313.15	0.326	0.0001286	8e-07
298.15	0.978	9.18e-05	4e-07
303.15	0.962	9.26e-05	4e-07
308.15	0.957	9.33e-05	4e-07
313.15	0.944	9.04e-05	4e-07

System: 1,4-butanediol + 1-ethyl-3-methylimidazolium tetrafluoroborate; phases: Liquid mixture 1, Liquid mixture 2
Property: Liquid-liquid equilibrium temperature, K (Liquid mixture 1); method: VISOBS
Mole fraction of 1,4-butanediol	Pressure, kPa	Liquid-liquid equilibrium temperature, K	uncertainty
0.702	100	327.5	2

System: 1,4-butanediol + 1-ethyl-3-methylimidazolium tetrafluoroborate; phases: Liquid mixture 2, Liquid mixture 1
Fixed: Pressure, kPa = 100
Property: Mole fraction of 1,4-butanediol (Liquid mixture 2); method: Phase equilibration
Temperature, K	Mole fraction of 1,4-butanediol	uncertainty
298.15	0.978	0.006
303.15	0.962	0.004
308.15	0.957	0.002
313.15	0.944	0.004

System: 1,5-pentanediol + 1-ethyl-3-methylimidazolium tetrafluoroborate; phases: Liquid mixture 1, Liquid mixture 2
Fixed: Pressure, kPa = 100
Property: Mole fraction of 1,5-pentanediol (Liquid mixture 1); method: Phase equilibration
Temperature, K	Mole fraction of 1,5-pentanediol	uncertainty
303.15	0.129	0.01
308.15	0.151	0.011
313.15	0.183	0.007
318.15	0.231	0.019

System: 1,5-pentanediol + 1-ethyl-3-methylimidazolium tetrafluoroborate; phases: Liquid
Fixed: Pressure, kPa = 100
Property: Molar volume, m3/mol (Liquid); method: Pycnometric method
Temperature, K	Mole fraction of 1,5-pentanediol	Molar volume, m3/mol	uncertainty
303.15	0.129	0.0001423	4e-07
308.15	0.151	0.0001416	4e-07
313.15	0.183	0.0001412	4e-07
318.15	0.231	0.0001381	6e-07
303.15	0.982	0.0001069	8e-07
308.15	0.977	0.0001075	8e-07
313.15	0.97	0.0001062	8e-07
318.15	0.969	0.0001064	8e-07

System: 1,5-pentanediol + 1-ethyl-3-methylimidazolium tetrafluoroborate; phases: Liquid mixture 1, Liquid mixture 2
Property: Liquid-liquid equilibrium temperature, K (Liquid mixture 1); method: VISOBS
Mole fraction of 1,5-pentanediol	Pressure, kPa	Liquid-liquid equilibrium temperature, K	uncertainty
0.674	100	344.8	2

System: 1,5-pentanediol + 1-ethyl-3-methylimidazolium tetrafluoroborate; phases: Liquid mixture 2, Liquid mixture 1
Fixed: Pressure, kPa = 100
Property: Mole fraction of 1,5-pentanediol (Liquid mixture 2); method: Phase equilibration
Temperature, K	Mole fraction of 1,5-pentanediol	uncertainty
303.15	0.982	0.002
308.15	0.977	0.002
313.15	0.97	0.002
318.15	0.969	0.002

System: propan-1,3-diol + 1-ethyl-3-methylimidazolium bis((trifluoromethyl)sulfonyl)imide; phases: Liquid mixture 1, Liquid mixture 2
Fixed: Pressure, kPa = 100
Property: Mole fraction of propan-1,3-diol (Liquid mixture 1); method: Phase equilibration
Temperature, K	Mole fraction of propan-1,3-diol	uncertainty
298.15	0.208	0.024
303.15	0.226	0.024
308.15	0.234	0.017
313.15	0.259	0.027

System: propan-1,3-diol + 1-ethyl-3-methylimidazolium bis((trifluoromethyl)sulfonyl)imide; phases: Liquid
Fixed: Pressure, kPa = 100
Property: Molar volume, m3/mol (Liquid); method: Pycnometric method
Temperature, K	Mole fraction of propan-1,3-diol	Molar volume, m3/mol	uncertainty
298.15	0.208	0.0002153	4e-07
303.15	0.226	0.0002124	4e-07
308.15	0.234	0.0002114	4e-07
313.15	0.259	0.0002063	6e-07
298.15	0.977	7.48e-05	6e-07
303.15	0.974	7.55e-05	6e-07
308.15	0.971	7.61e-05	6e-07
313.15	0.971	7.6e-05	8e-07

System: propan-1,3-diol + 1-ethyl-3-methylimidazolium bis((trifluoromethyl)sulfonyl)imide; phases: Liquid mixture 1, Liquid mixture 2
Property: Liquid-liquid equilibrium temperature, K (Liquid mixture 1); method: VISOBS
Mole fraction of propan-1,3-diol	Pressure, kPa	Liquid-liquid equilibrium temperature, K	uncertainty
0.703	100	354.7	2

System: propan-1,3-diol + 1-ethyl-3-methylimidazolium bis((trifluoromethyl)sulfonyl)imide; phases: Liquid mixture 2, Liquid mixture 1
Fixed: Pressure, kPa = 100
Property: Mole fraction of propan-1,3-diol (Liquid mixture 2); method: Phase equilibration
Temperature, K	Mole fraction of propan-1,3-diol	uncertainty
298.15	0.977	0.002
303.15	0.974	0.002
308.15	0.971	0.004
313.15	0.971	0.014

System: 1,4-butanediol + 1-ethyl-3-methylimidazolium bis((trifluoromethyl)sulfonyl)imide; phases: Liquid mixture 1, Liquid mixture 2
Fixed: Pressure, kPa = 100
Property: Mole fraction of 1,4-butanediol (Liquid mixture 1); method: Phase equilibration
Temperature, K	Mole fraction of 1,4-butanediol	uncertainty
298.15	0.177	0.02
303.15	0.189	0.028
308.15	0.217	0.036
313.15	0.233	0.015

System: 1,4-butanediol + 1-ethyl-3-methylimidazolium bis((trifluoromethyl)sulfonyl)imide; phases: Liquid
Fixed: Pressure, kPa = 100
Property: Molar volume, m3/mol (Liquid); method: Pycnometric method
Temperature, K	Mole fraction of 1,4-butanediol	Molar volume, m3/mol	uncertainty
298.15	0.177	0.0002253	4e-07
303.15	0.189	0.0002241	6e-07
308.15	0.217	0.00022	6e-07
313.15	0.233	0.0002181	4e-07
298.15	0.971	9.23e-05	6e-07
303.15	0.968	9.31e-05	1.4e-06
308.15	0.962	9.36e-05	1.4e-06
313.15	0.958	9.29e-05	1.4e-06

System: 1,4-butanediol + 1-ethyl-3-methylimidazolium bis((trifluoromethyl)sulfonyl)imide; phases: Liquid mixture 1, Liquid mixture 2
Fixed: Pressure, kPa = 100
Property: Liquid-liquid equilibrium temperature, K (Liquid mixture 1); method: VISOBS
Mole fraction of 1,4-butanediol	Liquid-liquid equilibrium temperature, K	uncertainty
0.503	341.2	2
0.701	352.6	2

System: 1,4-butanediol + 1-ethyl-3-methylimidazolium bis((trifluoromethyl)sulfonyl)imide; phases: Liquid mixture 2, Liquid mixture 1
Fixed: Pressure, kPa = 100
Property: Mole fraction of 1,4-butanediol (Liquid mixture 2); method: Phase equilibration
Temperature, K	Mole fraction of 1,4-butanediol	uncertainty
298.15	0.971	0.002
303.15	0.968	0.008
308.15	0.962	0.004
313.15	0.958	0.002

System: 1,5-pentanediol + 1-ethyl-3-methylimidazolium bis((trifluoromethyl)sulfonyl)imide; phases: Liquid mixture 1, Liquid mixture 2
Fixed: Pressure, kPa = 100
Property: Mole fraction of 1,5-pentanediol (Liquid mixture 1); method: Phase equilibration
Temperature, K	Mole fraction of 1,5-pentanediol	uncertainty
298.15	0.142	0.032
303.15	0.16	0.011
308.15	0.175	0.013
313.15	0.193	0.007

System: 1,5-pentanediol + 1-ethyl-3-methylimidazolium bis((trifluoromethyl)sulfonyl)imide; phases: Liquid
Fixed: Pressure, kPa = 100
Property: Molar volume, m3/mol (Liquid); method: Pycnometric method
Temperature, K	Mole fraction of 1,5-pentanediol	Molar volume, m3/mol	uncertainty
298.15	0.142	0.0002297	1e-06
303.15	0.16	0.0002253	1e-06
308.15	0.175	0.0002251	1e-06
313.15	0.193	0.0002239	1e-06
298.15	0.995	0.0001075	3.6e-06
303.15	0.992	0.0001086	3.6e-06
308.15	0.987	0.0001088	3.6e-06
313.15	0.982	0.0001095	3.6e-06

System: 1,5-pentanediol + 1-ethyl-3-methylimidazolium bis((trifluoromethyl)sulfonyl)imide; phases: Liquid mixture 1, Liquid mixture 2
Property: Liquid-liquid equilibrium temperature, K (Liquid mixture 1); method: VISOBS
Mole fraction of 1,5-pentanediol	Pressure, kPa	Liquid-liquid equilibrium temperature, K	uncertainty
0.75	100	361.1	2

System: 1,5-pentanediol + 1-ethyl-3-methylimidazolium bis((trifluoromethyl)sulfonyl)imide; phases: Liquid mixture 2, Liquid mixture 1
Fixed: Pressure, kPa = 100
Property: Mole fraction of 1,5-pentanediol (Liquid mixture 2); method: Phase equilibration
Temperature, K	Mole fraction of 1,5-pentanediol	uncertainty
298.15	0.995	0.002
303.15	0.992	0.002
308.15	0.987	0.004
313.15	0.982	0.002

System: butan-2-ol + water; phases: Liquid mixture 1, Liquid mixture 2
Property: Mole fraction of butan-2-ol (Liquid mixture 1); method: Phase equilibration
Temperature, K	Pressure, kPa	Mole fraction of butan-2-ol	uncertainty
298.15	100	0.0591	0.0018

System: butan-2-ol + water; phases: Liquid mixture 2, Liquid mixture 1
Property: Mole fraction of butan-2-ol (Liquid mixture 2); method: Phase equilibration
Temperature, K	Pressure, kPa	Mole fraction of butan-2-ol	uncertainty
298.15	100	0.3036	0.0091
