Measured thermophysical data. Measurement and Correlation for Acoustic, Transport, Refractive, and High-Temperature Volumetric Data of Substituted Benzylamines
Source: J. Chem. Eng. Data, 2017, 10.1021/acs.jced.6b00667
Compound 1: benzylamine, C7H9N, InChI=1S/C7H9N/c8-6-7-4-2-1-3-5-7/h1-5H,6,8H2
Compound 2: N-methyl-1-phenylmethanamine, C8H11N, InChI=1S/C8H11N/c1-9-7-8-5-3-2-4-6-8/h2-6,9H,7H2,1H3
Compound 3: N,N-dimethylbenzylamine, C9H13N, InChI=1S/C9H13N/c1-10(2)8-9-6-4-3-5-7-9/h3-7H,8H2,1-2H3
Compound 4: dibenzylamine, C14H15N, InChI=1S/C14H15N/c1-3-7-13(8-4-1)11-15-12-14-9-5-2-6-10-14/h1-10,15H,11-12H2

System: benzylamine; phases: Liquid
Fixed: Pressure, kPa = 101.325
Property: Mass density, kg/m3 (Liquid); method: Vibrating tube method
Temperature, K	Mass density, kg/m3	uncertainty
293.15	983.4	2
298.15	978.9	2
303.15	974.4	2
308.15	970	2
313.15	965.7	2
318.15	961.3	2
323.15	956.9	2
328.15	952.5	2
333.15	948.2	2
338.15	943.7	2
343.15	939.4	2
348.15	935	2
353.15	930.6	2
358.15	926.2	2
363.15	921.8	2
368.15	917.3	2
373.15	912.9	2
378.15	908.5	2
383.15	904	2
388.15	899.7	2
393.15	895.2	2
398.15	890.6	2
403.15	886.2	2
408.15	881.6	2
413.15	877.1	2
418.15	872.5	2
423.15	867.9	2
428.15	863.3	2
433.15	858.7	2
438.15	854	2
443.15	849.3	2
293.15	983.66	2
298.15	979.35	2
303.15	975.01	2
308.15	970.67	2
313.15	966.33	2
318.15	961.98	2
323.15	957.63	2
328.15	953.27	2
333.15	948.9	2
338.15	944.53	2
343.15	940.14	2

System: benzylamine; phases: Liquid
Fixed: Pressure, kPa = 101.325
Property: Speed of sound, m/s (Liquid); method: Sing-around technique in a fixed-path interferometer
Temperature, K	Speed of sound, m/s	uncertainty
293.15	1580.59	1.32
298.15	1561.06	1.32
303.15	1541.2	1.31
308.15	1521.44	1.31
313.15	1501.89	1.31
318.15	1482.42	1.3
323.15	1462.9	1.3
328.15	1443.46	1.3
333.15	1424.09	1.29
338.15	1404.8	1.29
343.15	1385.58	1.29

System: benzylamine; phases: Liquid
Fixed: Pressure, kPa = 101.325
Property: Viscosity, Pa*s (Liquid); method: Falling or rolling sphere viscometry
Temperature, K	Viscosity, Pa*s	uncertainty
293.15	0.00203	0.00014
298.15	0.00183	0.00014
303.15	0.00165	0.00014
308.15	0.0015	0.00014
313.15	0.00137	0.00014
318.15	0.00126	0.00014
323.15	0.00117	0.00014
328.15	0.00108	0.00014
333.15	0.001	0.00014
338.15	0.00094	0.00014
343.15	0.00087	0.00014

System: benzylamine; phases: Liquid
Fixed: Pressure, kPa = 101.325
Property: Refractive index (Na D-line) (Liquid); method: Standard Abbe refractometry
Temperature, K	Refractive index (Na D-line)	uncertainty
293.15	1.54271	0.00041
298.15	1.53875	0.00041
303.15	1.53518	0.00041
308.15	1.53226	0.00041
313.15	1.52948	0.00041
318.15	1.52706	0.00041
323.15	1.525	0.00041
328.15	1.523	0.00041
333.15	1.52068	0.00041
338.15	1.51906	0.00041
343.15	1.51728	0.00041

System: N-methyl-1-phenylmethanamine; phases: Liquid
Fixed: Pressure, kPa = 101.325
Property: Mass density, kg/m3 (Liquid); method: Vibrating tube method
Temperature, K	Mass density, kg/m3	uncertainty
283.15	952.8	6.2
288.15	948.4	6.2
293.15	944	6.2
298.15	939.6	6.2
303.15	935.1	6.2
308.15	930.7	6.2
313.15	926.4	6.2
318.15	922	6.2
323.15	917.6	6.2
328.15	913.3	6.2
333.15	908.9	6.2
338.15	904.5	6.2
343.15	900	6.2
348.15	895.6	6.2
353.15	891.2	6.2
358.15	886.7	6.2
363.15	882.3	6.2
368.15	877.8	6.2
373.15	873.4	6.2
378.15	868.9	6.2
383.15	864.4	6.1
388.15	860	6.1
393.15	855.4	6.1
398.15	851	6.1
403.15	846.4	6.1
408.15	841.8	6.1
413.15	837.3	6.1
418.15	832.6	6.1
293.15	944.55	6.2
298.15	940.23	6.2
303.15	935.9	6.19
308.15	931.57	6.19
313.15	927.24	6.19
318.15	922.9	6.18
323.15	918.55	6.18
328.15	914.19	6.18
333.15	909.83	6.18
338.15	905.5	6.17
343.15	901.19	6.17

System: N-methyl-1-phenylmethanamine; phases: Liquid
Fixed: Pressure, kPa = 101.325
Property: Speed of sound, m/s (Liquid); method: Sing-around technique in a fixed-path interferometer
Temperature, K	Speed of sound, m/s	uncertainty
293.15	1472.73	3.23
298.15	1452.86	3.23
303.15	1433.1	3.23
308.15	1413.47	3.23
313.15	1393.98	3.23
318.15	1374.57	3.22
323.15	1355.29	3.22
328.15	1336.13	3.22
333.15	1317.13	3.22
338.15	1298.4	3.22
343.15	1280.2	3.22

System: N-methyl-1-phenylmethanamine; phases: Liquid
Fixed: Pressure, kPa = 101.325
Property: Viscosity, Pa*s (Liquid); method: Falling or rolling sphere viscometry
Temperature, K	Viscosity, Pa*s	uncertainty
293.15	0.00176	0.00014
298.15	0.00158	0.00014
303.15	0.0014	0.00014
308.15	0.00127	0.00014
313.15	0.00116	0.00014
318.15	0.00107	0.00014
323.15	0.00099	0.00014
328.15	0.00091	0.00014
333.15	0.00085	0.00014
338.15	0.00079	0.00014
343.15	0.00074	0.00014

System: N-methyl-1-phenylmethanamine; phases: Liquid
Fixed: Pressure, kPa = 101.325
Property: Refractive index (Na D-line) (Liquid); method: Standard Abbe refractometry
Temperature, K	Refractive index (Na D-line)	uncertainty
293.15	1.52243	0.00072
298.15	1.51947	0.00072
303.15	1.51678	0.00072
308.15	1.51432	0.00072
313.15	1.51211	0.00072
318.15	1.51003	0.00072
323.15	1.50783	0.00072
328.15	1.50565	0.00072
333.15	1.50339	0.00072
338.15	1.50103	0.00072
343.15	1.49856	0.00072

System: N,N-dimethylbenzylamine; phases: Liquid
Fixed: Pressure, kPa = 101.325
Property: Mass density, kg/m3 (Liquid); method: Vibrating tube method
Temperature, K	Mass density, kg/m3	uncertainty
283.15	907.6	2
288.15	903.2	2
293.15	898.9	2
298.15	894.6	2
303.15	890.2	2
308.15	885.9	2
313.15	881.7	2
318.15	877.4	2
323.15	873.2	2
328.15	868.9	2
333.15	864.6	2
338.15	860.4	2
343.15	856	2
348.15	851.8	2
353.15	847.5	2
358.15	843.2	2
363.15	838.9	2
368.15	834.6	2
373.15	830.2	2
378.15	825.9	2
383.15	821.5	2
388.15	817.1	2
393.15	812.7	2
398.15	808.2	2
403.15	803.7	2
408.15	799.2	2
413.15	794.7	2
418.15	790.1	2
293.15	899.32	2.01
298.15	895.1	2.01
303.15	890.88	2.01
308.15	886.65	2.01
313.15	882.42	2.01
318.15	878.18	2.01
323.15	873.94	2.01
328.15	869.68	2.01
333.15	865.43	2.01
338.15	861.16	2.01
343.15	856.89	2.01

System: N,N-dimethylbenzylamine; phases: Liquid
Fixed: Pressure, kPa = 101.325
Property: Speed of sound, m/s (Liquid); method: Sing-around technique in a fixed-path interferometer
Temperature, K	Speed of sound, m/s	uncertainty
293.15	1348.15	1.55
298.15	1329	1.54
303.15	1309.58	1.54
308.15	1290.3	1.54
313.15	1271.18	1.53
318.15	1252.23	1.53
323.15	1233.46	1.53
328.15	1214.83	1.53
333.15	1196.38	1.52
338.15	1178.08	1.52
343.15	1159.94	1.52

System: N,N-dimethylbenzylamine; phases: Liquid
Fixed: Pressure, kPa = 101.325
Property: Viscosity, Pa*s (Liquid); method: Falling or rolling sphere viscometry
Temperature, K	Viscosity, Pa*s	uncertainty
293.15	0.00131	0.00014
298.15	0.00119	0.00014
303.15	0.00109	0.00014
308.15	0.00101	0.00014
313.15	0.00093	0.00014
318.15	0.00087	0.00014
323.15	0.00081	0.00014
328.15	0.00076	0.00014
333.15	0.00071	0.00014
338.15	0.00067	0.00014
343.15	0.00063	0.00014

System: N,N-dimethylbenzylamine; phases: Liquid
Fixed: Pressure, kPa = 101.325
Property: Refractive index (Na D-line) (Liquid); method: Standard Abbe refractometry
Temperature, K	Refractive index (Na D-line)	uncertainty
293.15	1.50236	0.00045
298.15	1.49986	0.00045
303.15	1.49733	0.00045
308.15	1.49523	0.00045
313.15	1.4927	0.00045
318.15	1.49036	0.00045
323.15	1.48799	0.00045
328.15	1.48559	0.00045
333.15	1.48321	0.00045
338.15	1.48088	0.00045
343.15	1.47851	0.00045

System: dibenzylamine; phases: Liquid
Fixed: Pressure, kPa = 101.325
Property: Mass density, kg/m3 (Liquid); method: Vibrating tube method
Temperature, K	Mass density, kg/m3	uncertainty
283.15	1034.3	6.3
288.15	1030.3	6.3
293.15	1026.2	6.3
298.15	1022.2	6.3
303.15	1018.1	6.3
308.15	1014.2	6.3
313.15	1010.2	6.3
318.15	1006.3	6.2
323.15	1002.4	6.2
328.15	998.5	6.2
333.15	994.6	6.2
338.15	990.8	6.2
343.15	986.9	6.2
348.15	983.1	6.2
353.15	979.3	6.2
358.15	975.4	6.2
363.15	971.6	6.2
368.15	967.8	6.2
373.15	964	6.2
378.15	960.2	6.2
383.15	956.4	6.2
388.15	952.6	6.2
393.15	948.8	6.2
398.15	945	6.2
403.15	941.2	6.2
408.15	937.4	6.2
413.15	933.6	6.2
418.15	929.8	6.2
423.15	926	6.2
428.15	922.2	6.2
433.15	918.5	6.2
438.15	914.6	6.2
443.15	910.8	6.2
448.15	907	6.2
293.15	1026.48	6.27
298.15	1022.59	6.27
303.15	1018.7	6.26
308.15	1014.82	6.26
313.15	1010.94	6.25
318.15	1007.07	6.25
323.15	1003.2	6.24
328.15	999.34	6.24
333.15	995.48	6.24
338.15	991.63	6.23
343.15	987.79	6.23

System: dibenzylamine; phases: Liquid
Fixed: Pressure, kPa = 101.325
Property: Speed of sound, m/s (Liquid); method: Sing-around technique in a fixed-path interferometer
Temperature, K	Speed of sound, m/s	uncertainty
293.15	1575.43	3.24
298.15	1557.24	3.24
303.15	1538.83	3.24
308.15	1520.57	3.24
313.15	1502.43	3.23
318.15	1484.47	3.23
323.15	1466.36	3.23
328.15	1448.75	3.23
333.15	1431.32	3.23
338.15	1414.03	3.23
343.15	1397.25	3.23

System: dibenzylamine; phases: Liquid
Fixed: Pressure, kPa = 101.325
Property: Viscosity, Pa*s (Liquid); method: Falling or rolling sphere viscometry
Temperature, K	Viscosity, Pa*s	uncertainty
293.15	0.0092	0.00021
298.15	0.0076	0.00019
303.15	0.00646	0.00018
308.15	0.00565	0.00017
313.15	0.00482	0.00016
318.15	0.00417	0.00016
323.15	0.00366	0.00015
328.15	0.00321	0.00015
333.15	0.00287	0.00015
338.15	0.00259	0.00015
343.15	0.00239	0.00015

System: dibenzylamine; phases: Liquid
Fixed: Pressure, kPa = 101.325
Property: Refractive index (Na D-line) (Liquid); method: Standard Abbe refractometry
Temperature, K	Refractive index (Na D-line)	uncertainty
293.15	1.57402	0.00072
298.15	1.57173	0.00072
303.15	1.56948	0.00072
308.15	1.56723	0.00072
313.15	1.56505	0.00072
318.15	1.56287	0.00072
323.15	1.56075	0.00072
328.15	1.55865	0.00072
333.15	1.55656	0.00072
338.15	1.55446	0.00072
343.15	1.55234	0.00072
