Measured thermophysical data. Thermodynamic Speed of Sound Data for Liquid and Supercritical Alcohols
Source: J. Chem. Eng. Data, 2019, 10.1021/acs.jced.8b00938
Compound 1: methanol, CH4O, InChI=1S/CH4O/c1-2/h2H,1H3
Compound 2: propan-1-ol, C3H8O, InChI=1S/C3H8O/c1-2-3-4/h4H,2-3H2,1H3
Compound 3: propan-2-ol, C3H8O, InChI=1S/C3H8O/c1-3(2)4/h3-4H,1-2H3
Compound 4: butan-1-ol, C4H10O, InChI=1S/C4H10O/c1-2-3-4-5/h5H,2-4H2,1H3

System: methanol; phases: Liquid
Fixed: Frequency, MHz = 8
Property: Speed of sound, m/s (Liquid); method: Pulse-echo method
Temperature, K	Pressure, kPa	Speed of sound, m/s	uncertainty
299.95	99	1096.3	1
220.38	100	1387.9	1.3
244.25	125	1294.5	1.2
349.98	201	935.8	0.9
244.27	761	1297.5	1.2
399.94	798	770.2	0.8
299.94	963	1101.7	1
349.98	970	941.9	0.9
399.94	1015	772.5	0.8
220.41	1023	1391.8	1.3
244.28	1200	1299.5	1.2
220.39	1839	1395.3	1.3
244.3	1980	1303.2	1.2
349.98	1998	949.9	0.9
399.94	2112	784.4	0.8
299.94	2240	1109.5	1
450.22	2562	568.3	0.7
349.98	4864	971.5	0.9
450.19	4910	608.8	0.7
244.31	5110	1317.8	1.2
399.93	5110	815	0.8
299.95	5128	1126.7	1
399.92	9339	854.2	0.8
500.06	9535	412.8	0.7
244.32	9712	1338.5	1.2
349.97	9858	1006.8	0.9
299.95	9896	1153.8	1.1
220.96	10454	1428.5	1.4
450.22	14312	730.4	1.3
499.98	19828	611.1	1.5
349.99	19881	1070.5	1.1
220.46	20095	1467.9	1.3
450.2	20347	794.1	1
299.96	21093	1212.5	1.2
399.92	21337	948.3	1
499.94	28092	708.5	1.2
500.06	30612	733.2	1
450.18	39568	943.1	1
499.94	40326	818.5	1
220.39	40357	1540.1	1.4
299.96	40780	1302.9	1.2
350	41608	1186.3	1.2
399.89	42375	1078.3	1.1
299.95	58877	1375.6	1.2
450.17	59905	1062.6	1.1
499.94	60313	955.4	1
349.95	60336	1270.3	1.2
220.26	60890	1606.5	1.5
399.9	61164	1172.4	1.1
220.38	69376	1631.5	1.5
220.37	69581	1632.2	1.5
450.2	72355	1124.9	1.1
299.94	80229	1452.1	1.3
399.91	81158	1258.6	1.1
349.96	82312	1356.2	1.2
399.93	84741	1273.4	1.2
399.73	98358	1325.1	1.2
299.95	98460	1511.3	1.4
349.96	99275	1415.9	1.3
220.37	111490	1746.8	1.7
399.91	122977	1409.6	1.5
299.96	123414	1585.5	1.7
349.97	124114	1495.1	1.6

System: propan-1-ol; phases: Liquid
Fixed: Frequency, MHz = 8
Property: Speed of sound, m/s (Liquid); method: Pulse-echo method
Temperature, K	Pressure, kPa	Speed of sound, m/s	uncertainty
249.99	100	1382.6	1.3
218.2	102	1512	1.4
299.97	138	1199.6	1.1
249.99	177	1383	1.3
350.05	270	1030.8	1
400.05	307	847.6	0.8
218.26	875	1515.2	1.4
400.05	947	854.9	0.8
350.07	997	1036.3	1
450.12	1081	636.4	0.7
249.99	1128	1387.7	1.3
299.96	1174	1206	1.1
350.07	2073	1044.4	1
218.21	2111	1520.8	1.4
400.05	2155	867	0.8
450.12	2181	653.9	0.7
250.01	2296	1393.4	1.3
299.96	2560	1214.3	1.1
500.31	4798	438.4	0.7
400.03	4879	893.3	0.9
218.26	5018	1533.1	1.4
299.98	5042	1228.8	1.1
450.11	5172	697	0.7
350.07	5244	1067.5	1
249.97	5362	1408.3	1.3
249.94	9322	1427.1	1.3
218.32	9465	1551	1.4
299.98	9515	1254.1	1.1
500.32	9558	542.3	0.6
350.06	9697	1098.3	1
400.07	9768	936.6	0.9
450.11	9782	754.2	0.8
218.35	19810	1591.6	1.5
299.96	19849	1308.7	1.3
500.32	19968	690.2	1.2
400.07	19974	1015.3	1.1
350.08	20259	1164.3	1.2
450.1	20385	860	1.1
249.9	20903	1478.7	1.4
400.06	27823	1068.3	1.1
218.34	29071	1626.6	1.5
450.11	30113	938.6	1.1
399.98	30784	1087.2	1.1
500.31	30851	799.1	1.1
299.96	39521	1400.6	1.3
249.93	39564	1553.9	1.4
500.28	39800	870	1.1
450.13	40189	1008.7	1.1
399.96	40232	1142.9	1.2
350.04	40537	1273	1.3
218.31	49499	1698.1	1.5
299.96	49960	1444.6	1.4
450.13	50091	1069.5	1.1
399.98	50284	1196.8	1.2
500.3	50346	946.6	1
350.03	52186	1327.6	1.2
249.94	59448	1625.8	1.5
399.97	59616	1242.9	1.2
500.31	60509	1009.7	1.1
350.04	60588	1364.3	1.3
218.32	61345	1736.4	1.6
500.31	77533	1102.4	1.1

System: propan-2-ol; phases: Liquid
Fixed: Frequency, MHz = 8
Property: Speed of sound, m/s (Liquid); method: Pulse-echo method
Temperature, K	Pressure, kPa	Speed of sound, m/s	uncertainty
299.79	86	1132.8	1
349.93	138	950.4	0.9
217.77	143	1445.1	1.3
249.84	159	1317.8	1.2
399.64	492	745	0.8
299.8	865	1138.2	1.1
249.86	992	1322.3	1.2
217.84	1031	1449	1.3
399.63	1090	752.7	0.8
349.94	1099	958.9	0.9
450.06	1639	499.2	0.7
349.97	1915	966	0.9
399.63	1986	764.1	0.8
249.87	2039	1328	1.2
299.81	2097	1146.6	1.1
450.04	2190	512	0.7
217.84	2256	1454.8	1.3
249.85	4937	1343.6	1.2
349.97	5044	992.5	0.9
299.81	5133	1166.5	1.1
399.62	5275	802.7	0.8
217.88	6084	1472.2	1.3
500.17	7568	371.1	0.6
217	8951	1489.1	1.3
249.85	9128	1365.3	1.2
500.15	9582	424	0.7
299.79	9677	1195.1	1.1
349.97	9682	1029.2	1
399.62	9782	850	0.8
249.86	10803	1373.6	1.3
249.85	19905	1417.6	1.3
299.8	20194	1256.1	1.3
399.61	20985	948.9	1.1
349.98	21490	1111.7	1.1
450.02	22115	792.1	1.2
500.11	22653	636.6	1.2
216.95	24689	1556.1	1.5
399.63	38384	1071.2	1.1
299.8	39488	1353.7	1.3
500.25	40483	812.4	1
216.87	41140	1619.7	1.5
249.85	41768	1512.2	1.4
349.98	42396	1232.7	1.2
449.97	42419	957.3	1
249.85	59235	1579.4	1.4
216.89	60566	1688.1	1.5
299.81	60935	1447.1	1.3
349.97	61179	1324	1.2
449.98	61580	1076.2	1.1
500.27	61769	961.8	1
399.63	61965	1203.3	1.2
216.9	78557	1746.2	1.6
249.85	80375	1653.1	1.5
500.27	80461	1067	1.1
399.61	80647	1291.3	1.2
349.97	81377	1409.9	1.3
299.89	81993	1527.9	1.4
449.99	82381	1183.6	1.1
249.85	96644	1705.5	1.5
349.97	96752	1469	1.3
299.88	97237	1581.4	1.4
399.6	97607	1362.4	1.2
450	97646	1252.6	1.1
500.27	98305	1153.8	1.1
216.97	98400	1805.5	1.6
216.96	121241	1868.7	1.8
399.66	122092	1454.2	1.6
450	122429	1352.4	1.6
299.85	123509	1665.9	1.8
349.94	123510	1562	1.7
500.28	123715	1261.3	1.6
249.85	124462	1787.6	1.9

System: butan-1-ol; phases: Liquid
Fixed: Frequency, MHz = 8
Property: Speed of sound, m/s (Liquid); method: Pulse-echo method
Temperature, K	Pressure, kPa	Speed of sound, m/s	uncertainty
250	67	1411.8	1.3
218.17	100	1536.6	1.4
249.99	100	1412	1.3
300.04	101	1234.1	1.1
350.11	104	1067.1	1
400.14	145	891.2	0.9
449.96	576	696.4	0.7
350.11	911	1073.1	1
400.14	933	898.8	0.9
300.03	1100	1240	1.1
218.25	1111	1540.5	1.4
449.96	1176	704.8	0.7
499.96	1636	472.8	0.7
400.14	1839	907.3	0.9
449.96	2010	716	0.7
249.99	2060	1421.4	1.3
350.11	2067	1081.4	1
218.26	2129	1544.8	1.4
300.03	2196	1246.4	1.1
499.96	2336	490	0.7
350.11	4569	1099	1
400.14	4864	934.6	0.9
499.96	4923	544	0.7
249.99	5075	1435.7	1.3
300.03	5369	1264.5	1.2
218.31	5399	1558.2	1.4
499.96	7243	586.7	0.6
249.98	9057	1453.9	1.3
350.11	9077	1129.2	1
400.12	9483	973.3	0.9
449.96	9527	803.9	0.8
218.28	9570	1575.2	1.4
300.03	9681	1288.1	1.2
499.96	9870	626.9	0.7
499.95	19314	741.4	1.2
218.22	19695	1614.9	1.5
300.03	20060	1341.4	1.3
350.11	20660	1199.6	1.2
400.14	20722	1055.9	1.1
449.96	21165	910.4	1.1
249.98	22437	1511.7	1.4
499.91	25968	806.2	1
400.14	36029	1150.7	1.2
217.92	39005	1685.4	1.5
449.96	39912	1043.3	1.1
300.03	40032	1432.5	1.3
499.95	40048	918.1	1
250.01	40124	1581.1	1.4
350.1	40651	1303.9	1.2
249.98	58985	1648.4	1.5
400.14	59027	1269.1	1.2
300.02	59057	1509	1.4
350.1	59555	1388.7	1.3
218.12	59881	1753.2	1.6
449.96	59899	1156.8	1.2
499.96	60162	1045.7	1.1
400.14	79223	1357.8	1.2
249.98	79282	1714.5	1.6
300.02	79463	1582.8	1.4
449.96	79678	1251.8	1.2
218.18	79839	1813.2	1.6
499.96	80004	1149.3	1.1
350.09	80590	1472.2	1.3
