Measured thermophysical data. Mean activity coefficients for NaCl in the mixtures containing ionic liquids [Emim] [MeSO3] + H2O and [Emim] [EtSO4] + H2O at 298.15 K
Source: J. Chem. Eng. Data, 2017, 10.1021/acs.jced.6b00820
Compound 1: sodium chloride, ClNa, InChI=1S/ClH.Na/h1H;/q;+1/p-1
Compound 2: water, H2O, InChI=1S/H2O/h1H2, purity 99.9%
Compound 3: 1-ethyl-3-methylimidazolium ethyl sulfate, C8H16N2O4S, InChI=1S/C6H11N2.C2H6O4S/c1-3-8-5-4-7(2)6-8;1-2-6-7(3,4)5/h4-6H,3H2,1-2H3;2H2,1H3,(H,3,4,5)/q+1;/p-1
Compound 4: 1-ethyl-3-methylimidazolium methanesulfonate, C7H14N2O3S, InChI=1S/C6H11N2.CH4O3S/c1-3-8-5-4-7(2)6-8;1-5(2,3)4/h4-6H,3H2,1-2H3;1H3,(H,2,3,4)/q+1;/p-1

System: sodium chloride + water + 1-ethyl-3-methylimidazolium ethyl sulfate; phases: Liquid
Fixed: Pressure, kPa = 101
Fixed: Temperature, K = 298.15
Property: Mean ionic activity coefficient of sodium chloride (Liquid); method: Calculated from EMF cell potential
Molality, mol/kg of sodium chloride	Solvent: Mass fraction of 1-ethyl-3-methylimidazolium ethyl sulfate	Mean ionic activity coefficient of sodium chloride	uncertainty
0.1723	0.01	0.8128	0.0282
0.3464	0.01	0.8009	0.0286
0.5208	0.01	0.7968	0.0288
0.6936	0.01	0.7946	0.0288
0.8641	0.01	0.7933	0.0289
1.0388	0.01	0.7927	0.0289
1.3942	0.01	0.7937	0.0289
1.7324	0.01	0.7979	0.0288
2.0713	0.01	0.8058	0.0279
2.4159	0.01	0.8178	0.0277
2.7629	0.01	0.8342	0.0275
3.1005	0.01	0.8545	0.0272
3.4407	0.01	0.8797	0.0268
3.7849	0.01	0.9101	0.0263
4.1206	0.01	0.945	0.0258
0.1094	0.05	0.7988	0.028
0.3303	0.05	0.7603	0.0286
0.5483	0.05	0.7511	0.0287
0.7689	0.05	0.7494	0.0288
0.9826	0.05	0.7513	0.0287
1.1967	0.05	0.7556	0.0287
1.4131	0.05	0.7618	0.0286
1.6292	0.05	0.7697	0.0285
1.8427	0.05	0.7791	0.0283
2.0576	0.05	0.7899	0.0282
2.2748	0.05	0.8023	0.028
2.7077	0.05	0.8313	0.0275
3.1326	0.05	0.8652	0.027
3.5431	0.05	0.9034	0.0264
3.9661	0.05	0.9483	0.0258
0.1092	0.1	0.785	0.0282
0.3269	0.1	0.7382	0.0289
0.541	0.1	0.7235	0.0291
0.7559	0.1	0.7173	0.0292
0.9665	0.1	0.7155	0.0293
1.1791	0.1	0.7164	0.0293
1.394	0.1	0.7197	0.0292
1.6194	0.1	0.7251	0.0291
1.8316	0.1	0.732	0.029
2.0483	0.1	0.7406	0.0289
2.2678	0.1	0.751	0.0287
2.4769	0.1	0.7624	0.0286
2.9013	0.1	0.7898	0.0282
3.3338	0.1	0.8238	0.0276
3.7446	0.1	0.862	0.0271
0.2092	0.2	0.695	0.0296
0.431	0.2	0.6608	0.0301
0.6412	0.2	0.6533	0.0302
0.8567	0.2	0.6558	0.0302
1.0649	0.2	0.6634	0.03
1.2793	0.2	0.6744	0.0299
1.4973	0.2	0.6877	0.0297
1.7156	0.2	0.7023	0.0295
1.9331	0.2	0.7177	0.0292
2.1459	0.2	0.7332	0.029
2.3605	0.2	0.7489	0.0288
2.568	0.2	0.7638	0.0285
2.7798	0.2	0.7788	0.0283
2.9844	0.2	0.7926	0.0281
3.3431	0.2	0.8152	0.0278
0.1056	0.3	0.6428	0.0304
0.3225	0.3	0.5291	0.0321
0.5374	0.3	0.4998	0.0325
0.7505	0.3	0.4963	0.0326
0.9654	0.3	0.5045	0.0324
1.1828	0.3	0.5191	0.0322
1.4012	0.3	0.5369	0.0319
1.6167	0.3	0.5556	0.0317
1.8266	0.3	0.5735	0.0314
2.0325	0.3	0.5895	0.0312
2.2455	0.3	0.6038	0.0309
2.4491	0.3	0.6144	0.0308
2.6696	0.3	0.622	0.0307
2.7756	0.3	0.624	0.0306
2.8735	0.3	0.6249	0.0306
0.1084	0.4	0.5764	0.0314
0.3254	0.4	0.4445	0.0333
0.4324	0.4	0.4217	0.0337
0.5466	0.4	0.4089	0.0339
0.6532	0.4	0.4035	0.0339
0.7609	0.4	0.4023	0.034
0.8674	0.4	0.4039	0.0339
0.9822	0.4	0.4079	0.0339
1.0886	0.4	0.4129	0.0338
1.1945	0.4	0.4189	0.0337
1.3008	0.4	0.4253	0.0336
1.5387	0.4	0.4402	0.0334
1.786	0.4	0.4541	0.0332
2.0258	0.4	0.4641	0.033
2.471	0.4	0.4686	0.033

System: sodium chloride + water + 1-ethyl-3-methylimidazolium methanesulfonate; phases: Liquid
Fixed: Pressure, kPa = 101
Fixed: Temperature, K = 298.15
Property: Mean ionic activity coefficient of sodium chloride (Liquid); method: Calculated from EMF cell potential
Molality, mol/kg of sodium chloride	Solvent: Mass fraction of 1-ethyl-3-methylimidazolium methanesulfonate	Mean ionic activity coefficient of sodium chloride	uncertainty
0.0955	0.01	0.7166	0.0293
0.3159	0.01	0.6092	0.0309
0.5316	0.01	0.5837	0.0312
0.7433	0.01	0.5828	0.0313
0.9631	0.01	0.5936	0.0311
1.1826	0.01	0.6107	0.0308
1.3976	0.01	0.6305	0.0305
1.6152	0.01	0.6517	0.0302
1.8357	0.01	0.6729	0.0299
2.0492	0.01	0.692	0.0296
2.2694	0.01	0.7095	0.0294
2.4854	0.01	0.7235	0.0291
2.7031	0.01	0.7339	0.029
2.9195	0.01	0.7401	0.0289
3.1343	0.01	0.7417	0.0289
0.1081	0.05	0.7017	0.0295
0.3223	0.05	0.6056	0.0309
0.5413	0.05	0.5804	0.0313
0.761	0.05	0.5788	0.0313
0.9765	0.05	0.5879	0.0312
1.2002	0.05	0.6029	0.031
1.4165	0.05	0.6199	0.0307
1.6384	0.05	0.6382	0.0304
1.8531	0.05	0.6551	0.0302
2.0693	0.05	0.6706	0.0299
2.284	0.05	0.6835	0.0297
2.4992	0.05	0.6933	0.0296
2.7164	0.05	0.6995	0.0295
2.9319	0.05	0.7016	0.0295
3.151	0.05	0.6992	0.0295
0.1049	0.1	0.6991	0.0295
0.3264	0.1	0.6004	0.031
0.5398	0.1	0.576	0.0314
0.7573	0.1	0.5737	0.0314
0.9747	0.1	0.5819	0.0313
1.1904	0.1	0.5955	0.0311
1.4063	0.1	0.6117	0.0308
1.618	0.1	0.6285	0.0306
1.8515	0.1	0.6467	0.0303
2.0683	0.1	0.6622	0.0301
2.2835	0.1	0.6755	0.0299
2.4983	0.1	0.6861	0.0297
2.7079	0.1	0.6933	0.0296
2.9189	0.1	0.6972	0.0295
3.1336	0.1	0.6972	0.0295
0.1026	0.2	0.6889	0.0297
0.3199	0.2	0.5934	0.0311
0.5446	0.2	0.5691	0.0315
0.7645	0.2	0.5675	0.0315
0.974	0.2	0.5751	0.0314
1.1871	0.2	0.5875	0.0312
1.4034	0.2	0.6025	0.031
1.6187	0.2	0.618	0.0307
1.8299	0.2	0.6329	0.0305
2.0509	0.2	0.6471	0.0303
2.2627	0.2	0.6587	0.0301
2.4911	0.2	0.6683	0.03
2.71	0.2	0.6742	0.0299
2.9267	0.2	0.6766	0.0299
3.1449	0.2	0.6751	0.0299
0.1165	0.3	0.6612	0.0301
0.2212	0.3	0.6068	0.0309
0.4294	0.3	0.5664	0.0315
0.6467	0.3	0.557	0.0316
0.8621	0.3	0.5609	0.0316
1.0786	0.3	0.5714	0.0314
1.2939	0.3	0.585	0.0312
1.5099	0.3	0.6002	0.031
1.7244	0.3	0.6155	0.0308
1.9388	0.3	0.63	0.0306
2.1487	0.3	0.6429	0.0304
2.3598	0.3	0.654	0.0302
2.5719	0.3	0.6627	0.0301
2.7805	0.3	0.6686	0.03
2.9947	0.3	0.6715	0.0299
0.104	0.4	0.6433	0.0304
0.2065	0.4	0.5839	0.0312
0.3239	0.4	0.5526	0.0317
0.4295	0.4	0.5384	0.0319
0.5377	0.4	0.5312	0.032
0.6454	0.4	0.5286	0.0321
0.8669	0.4	0.5318	0.032
1.0875	0.4	0.5416	0.0319
1.3077	0.4	0.555	0.0317
1.5256	0.4	0.57	0.0315
1.7403	0.4	0.5855	0.0312
1.9575	0.4	0.6011	0.031
2.172	0.4	0.6158	0.0308
2.3815	0.4	0.629	0.0306
2.5919	0.4	0.6406	0.0304

System: water + 1-ethyl-3-methylimidazolium ethyl sulfate; phases: Liquid
Fixed: Temperature, K = 298.15
Fixed: Pressure, kPa = 101
Property: Mass density, kg/m3 (Liquid); method: Vibrating tube method
Mass fraction of 1-ethyl-3-methylimidazolium ethyl sulfate	Mass density, kg/m3	uncertainty
0.01	998.74	0.13
0.05	1005.44	0.13
0.1	1014.6	0.14
0.2	1034.17	0.14
0.3	1056.73	0.15
0.4	1081.98	0.17

System: water + 1-ethyl-3-methylimidazolium methanesulfonate; phases: Liquid
Fixed: Temperature, K = 298.15
Fixed: Pressure, kPa = 101
Property: Mass density, kg/m3 (Liquid); method: Vibrating tube method
Mass fraction of 1-ethyl-3-methylimidazolium methanesulfonate	Mass density, kg/m3	uncertainty
0.01	997.29	0.13
0.05	998.2	0.13
0.1	999.48	0.13
0.2	1002.39	0.13
0.3	1005.93	0.14
0.4	1010.63	0.14
