Measured thermophysical data. Solid-Liquid Phase Equilibrium in the Ternary System MgSO4 + MgCl2 + H2O at 263.15 K
Source: J. Chem. Eng. Data, 2018, 10.1021/acs.jced.7b00894
Compound 1: magnesium chloride, Cl2Mg, InChI=1S/2ClH.Mg/h2*1H;/q;;+2/p-2, purity 99%
Compound 2: magnesium sulfate, MgO4S, InChI=1S/Mg.H2O4S/c;1-5(2,3)4/h;(H2,1,2,3,4)/q+2;/p-2, purity 99.5%
Compound 3: water, H2O, InChI=1S/H2O/h1H2, purity 99.9%

System: magnesium chloride + magnesium sulfate + water; phases: Liquid, Crystal of intercomponent compound 1
Fixed: Temperature, K = 263.15
Fixed: Pressure, kPa = 100
Property: Mass fraction of magnesium sulfate (Liquid); method: Titration method
Mass fraction of magnesium chloride	Mass fraction of magnesium sulfate	uncertainty
0.3411	0	
0.3356	0.0086	0.0031

System: magnesium chloride + magnesium sulfate + water; phases: Liquid, Crystal of intercomponent compound 2
Fixed: Temperature, K = 263.15
Fixed: Pressure, kPa = 100
Property: Mass fraction of magnesium sulfate (Liquid); method: Titration method
Mass fraction of magnesium chloride	Mass fraction of magnesium sulfate	uncertainty
0.3356	0.0086	0.0002
0.3201	0.0074	0.0001
0.3105	0.0089	0.0002
0.2948	0.0104	0.0001
0.2594	0.0113	0.0002
0.208	0.021	0.0003
0.1859	0.0278	0.0005
0.1272	0.0543	0.0006
0.0696	0.099	0.0007

System: magnesium chloride + magnesium sulfate + water; phases: Liquid, Crystal
Fixed: Temperature, K = 263.15
Fixed: Pressure, kPa = 100
Property: Mass fraction of magnesium sulfate (Liquid); method: Titration method
Mass fraction of magnesium chloride	Mass fraction of magnesium sulfate	uncertainty
0.0696	0.099	0.0011
0.0843	0.0656	0.0012
0.1012	0.028	0.0014
0.1139	0	

System: magnesium chloride + water; phases: Liquid, Crystal of intercomponent compound 1
Property: Mass fraction of magnesium chloride (Liquid); method: Titration method
Temperature, K	Pressure, kPa	Mass fraction of magnesium chloride	uncertainty
263.15	100	0.3411	0.0022

System: magnesium chloride + water; phases: Liquid, Crystal
Property: Mass fraction of magnesium chloride (Liquid); method: Titration method
Temperature, K	Pressure, kPa	Mass fraction of magnesium chloride	uncertainty
263.15	100	0.1139	0.0007
