Measured thermophysical data. Measurement and Correlation of Citronellal and Methyl Anthranilate Solubilities in Supercritical Carbon Dioxide
Source: J. Chem. Eng. Data, 2016, 10.1021/acs.jced.5b00423
Compound 1: (.+-.)-citronellal, C10H18O, InChI=1S/C10H18O/c1-9(2)5-4-6-10(3)7-8-11/h5,8,10H,4,6-7H2,1-3H3, purity 99%
Compound 2: carbon dioxide, CO2, InChI=1S/CO2/c2-1-3

System: (.+-.)-citronellal + carbon dioxide; phases: Liquid, Fluid (supercritical or subcritical phases)
Property: Vapor or sublimation pressure, kPa (Liquid); method: Closed cell (Static) method
Mole fraction of (.+-.)-citronellal	Temperature, K	Vapor or sublimation pressure, kPa	uncertainty
0.257	313.15	9130	290
0.279	313.15	9170	290
0.258	313.15	9210	300
0.242	313.15	9520	300
0.234	313.15	9700	310
0.242	313.15	9710	310
0.224	313.15	10150	320
0.179	313.15	11870	370
0.208	313.15	10940	340
0.195	313.15	11510	360
0.306	333.15	11940	370
0.333	333.15	10250	320
0.326	333.15	10920	340
0.289	333.15	12640	390
0.279	333.15	12950	400
0.264	333.15	12630	390
0.229	333.15	13000	400
0.237	333.15	13480	420
0.224	333.15	13930	430

System: (.+-.)-citronellal + carbon dioxide; phases: Fluid (supercritical or subcritical phases), Liquid
Property: Mole fraction of (.+-.)-citronellal (Fluid (supercritical or subcritical phases)); method: Chromatography
Mole fraction of (.+-.)-citronellal	Temperature, K	Mole fraction of (.+-.)-citronellal	uncertainty
0.257	313.15	0.051	0.012
0.279	313.15	0.047	0.012
0.258	313.15	0.056	0.012
0.242	313.15	0.061	0.012
0.234	313.15	0.07	0.012
0.242	313.15	0.064	0.012
0.224	313.15	0.078	0.012
0.179	313.15	0.098	0.012
0.208	313.15	0.081	0.012
0.195	313.15	0.091	0.012
0.306	333.15	0.022	0.012
0.333	333.15	0.009	0.009
0.326	333.15	0.013	0.012
0.289	333.15	0.028	0.012
0.279	333.15	0.038	0.012
0.264	333.15	0.037	0.012
0.229	333.15	0.041	0.012
0.237	333.15	0.058	0.012
0.224	333.15	0.058	0.012
