Measured thermophysical data. Experimental Study on Reactive Extraction of Malonic Acid with Validation by Fourier Transform Infrared Spectroscopy
Source: J. Chem. Eng. Data, 2019, 10.1021/acs.jced.8b00972
Compound 1: propanedioic acid, C3H4O4, InChI=1S/C3H4O4/c4-2(5)1-3(6)7/h1H2,(H,4,5)(H,6,7)
Compound 2: heptane, C7H16, InChI=1S/C7H16/c1-3-5-7-6-4-2/h3-7H2,1-2H3
Compound 3: octan-1-ol, C8H18O, InChI=1S/C8H18O/c1-2-3-4-5-6-7-8-9/h9H,2-8H2,1H3
Compound 4: 4-methylpentan-2-one, C6H12O, InChI=1S/C6H12O/c1-5(2)4-6(3)7/h5H,4H2,1-3H3
Compound 5: water, H2O, InChI=1S/H2O/h1H2, purity 99.9%

System: propanedioic acid + water + octan-1-ol; phases: Liquid mixture 1, Liquid mixture 2
Fixed: Temperature, K = 300
Fixed: Pressure, kPa = 101.325
Property: Molality, mol/kg of propanedioic acid (Liquid mixture 1); method: spectroscopy
Molality, mol/kg of propanedioic acid	Molality, mol/kg of propanedioic acid	uncertainty
0.3013	0.0166	0.0029
0.3521	0.0403	0.0027
0.4522	0.0704	0.0036
0.5376	0.1006	0.0057
0.6055	0.1412	0.0083

System: propanedioic acid + water + 4-methylpentan-2-one; phases: Liquid mixture 1, Liquid mixture 2
Fixed: Temperature, K = 300
Fixed: Pressure, kPa = 101.325
Property: Molality, mol/kg of propanedioic acid (Liquid mixture 1); method: spectroscopy
Molality, mol/kg of propanedioic acid	Molality, mol/kg of propanedioic acid	uncertainty
0.335	0.0201	0.0018
0.4559	0.0515	0.0028
0.6507	0.1006	0.0049
0.8036	0.1567	0.0083
0.9077	0.2128	0.0116

System: propanedioic acid + water + heptane; phases: Liquid mixture 1, Liquid mixture 2
Fixed: Temperature, K = 300
Fixed: Pressure, kPa = 101.325
Property: Molality, mol/kg of propanedioic acid (Liquid mixture 1); method: spectroscopy
Molality, mol/kg of propanedioic acid	Molality, mol/kg of propanedioic acid	uncertainty
0.2511	0.0138	0.001
0.4053	0.041	0.002
0.5546	0.0761	0.0039
0.6585	0.116	0.007
0.7594	0.1707	0.0096
