Measured thermophysical data. Speed of Sound Measurements and a Fundamental Equation of State for Hydrogen Chloride
Source: J. Chem. Eng. Data, 2018, 10.1021/acs.jced.7b01031
Compound 1: hydrogen chloride, ClH, InChI=1S/ClH/h1H

System: hydrogen chloride; phases: Liquid, Gas
Property: Speed of sound, m/s (Liquid); method: Pulse-echo method
Temperature, K	Speed of sound, m/s	uncertainty
218.3	940	3
224.3	910	3
229.2	887	3
233.1	865	3
243	814	3
248	790	4
252.9	762	4
258	734	4
263	705	4
268	676	5
273	646	5

System: hydrogen chloride; phases: Fluid (supercritical or subcritical phases)
Property: Speed of sound, m/s (Fluid (supercritical or subcritical phases)); method: Pulse-echo method
Temperature, K	Pressure, kPa	Speed of sound, m/s	uncertainty
267	7500	735	6
269.9	9700	740	6
274.8	13900	751	5
279.8	18000	761	5
284.8	22200	773	4
289.8	26500	783	4
294.8	30800	794	4
300	35100	805	4
303.1	37700	810	4
305	39300	814	4
279.8	5500	634	7
284.8	8500	640	7
289.7	11800	652	7
294.8	15600	666	6
299.8	19200	678	6
305	22900	690	6
310	26300	700	5
315	30000	712	5
320	33600	722	4
325	37200	732	4
328	39300	738	4
292.9	6900	564	9
295	8000	567	9
320	10800	425	15
325	12900	441	9
330	15100	456	9
335	17200	469	9
340	19300	482	10
345	21500	494	8
350	23700	506	7
355	25900	517	6
360	28000	527	8
365	30200	537	7
370	32400	547	5
374.9	34600	556	5
379.9	36800	565	6
385.9	39400	575	7
359.9	21500	433	9
369.9	24900	454	8
379.9	28400	473	6
389.9	31800	491	6
399.9	35300	508	6
411.9	39500	526	6
394.9	22700	371	6
404.9	24800	386	5
414.9	26900	400	6
424.9	29000	414	6
434.9	31000	426	5
444.9	33100	438	5
460	36100	456	4
474.9	39200	472	4
409.9	21600	356	5
419.9	23100	368	3
439.9	26100	390	3
459.9	29100	411	3
479.9	32000	430	3
300	11100	582	9
305	14200	595	8
310	17300	608	7
315	20400	621	7
320	23500	632	6
325	26600	643	6
330	29800	654	5
335	32900	665	5
340	36000	675	5
345	39200	685	5
399.9	12100	324	2
419.9	13200	339	2
439.9	14300	355	2
460	15500	369	2
479.9	16500	383	2
