Measured thermophysical data. Total Pressure Phase Equilibrium Measurements for the Binary Systems of n-Pentane + Cyclohexane and 1-Hexene + 2-Propanol
Source: J. Chem. Eng. Data, 2018, 10.1021/acs.jced.8b00765
Compound 1: pentane, C5H12, InChI=1S/C5H12/c1-3-5-4-2/h3-5H2,1-2H3, purity 99%
Compound 2: cyclohexane, C6H12, InChI=1S/C6H12/c1-2-4-6-5-3-1/h1-6H2, purity 99.5%
Compound 3: hex-1-ene, C6H12, InChI=1S/C6H12/c1-3-5-6-4-2/h3H,1,4-6H2,2H3, purity 98%
Compound 4: propan-2-ol, C3H8O, InChI=1S/C3H8O/c1-3(2)4/h3-4H,1-2H3, purity 99%

System: pentane; phases: Liquid
Property: Mass density, kg/m3 (Liquid); method: Vibrating tube method
Temperature, K	Pressure, kPa	Mass density, kg/m3	uncertainty
293.15	101.325	626	1

System: pentane; phases: Liquid
Property: Refractive index (Na D-line) (Liquid); method: Standard Abbe refractometry
Temperature, K	Pressure, kPa	Refractive index (Na D-line)	uncertainty
293.15	101.325	1.358	0.001

System: pentane; phases: Liquid, Gas
Property: Vapor or sublimation pressure, kPa (Liquid); method: Closed cell (Static) method
Temperature, K	Vapor or sublimation pressure, kPa	uncertainty
288.18	46.5	0.3
293.18	56.6	0.4
298.19	68.5	0.4
303.17	82.2	0.4
308.17	97.9	0.4
293.2	56.6	0.4
298.18	68.5	0.4
303.18	82.2	0.4

System: cyclohexane; phases: Liquid
Property: Mass density, kg/m3 (Liquid); method: Vibrating tube method
Temperature, K	Pressure, kPa	Mass density, kg/m3	uncertainty
308.15	101.325	765	1

System: cyclohexane; phases: Liquid
Property: Refractive index (Na D-line) (Liquid); method: Standard Abbe refractometry
Temperature, K	Pressure, kPa	Refractive index (Na D-line)	uncertainty
293.15	101.325	1.426	0.001

System: cyclohexane; phases: Liquid, Gas
Property: Vapor or sublimation pressure, kPa (Liquid); method: Closed cell (Static) method
Temperature, K	Vapor or sublimation pressure, kPa	uncertainty
293.17	10.4	0.3
298.19	13.1	0.3
303.16	16.4	0.3
308.15	20.3	0.3
313.17	24.9	0.3
293.21	10.6	0.3
298.18	13.4	0.3
303.18	16.4	0.3

System: hex-1-ene; phases: Liquid
Property: Mass density, kg/m3 (Liquid); method: Vibrating tube method
Temperature, K	Pressure, kPa	Mass density, kg/m3	uncertainty
313.15	101.325	655	1

System: hex-1-ene; phases: Liquid
Property: Refractive index (Na D-line) (Liquid); method: Standard Abbe refractometry
Temperature, K	Pressure, kPa	Refractive index (Na D-line)	uncertainty
293.15	101.325	1.388	0.001

System: hex-1-ene; phases: Liquid, Gas
Property: Vapor or sublimation pressure, kPa (Liquid); method: Closed cell (Static) method
Temperature, K	Vapor or sublimation pressure, kPa	uncertainty
293.18	19.9	0.3
298.18	24.8	0.3
303.16	30.5	0.3
308.16	37.2	0.3
313.15	45.1	0.3
293.18	20	0.3
303.17	30.6	0.3
313.16	45.1	0.3

System: propan-2-ol; phases: Liquid
Property: Mass density, kg/m3 (Liquid); method: Vibrating tube method
Temperature, K	Pressure, kPa	Mass density, kg/m3	uncertainty
313.15	101.325	768	1

System: propan-2-ol; phases: Liquid
Property: Refractive index (Na D-line) (Liquid); method: Standard Abbe refractometry
Temperature, K	Pressure, kPa	Refractive index (Na D-line)	uncertainty
293.15	101.325	1.377	0.001

System: propan-2-ol; phases: Liquid, Gas
Property: Vapor or sublimation pressure, kPa (Liquid); method: Closed cell (Static) method
Temperature, K	Vapor or sublimation pressure, kPa	uncertainty
293.16	4.2	0.3
298.17	5.8	0.3
303.15	7.8	0.3
308.15	10.5	0.3
313.14	13.9	0.3
293.18	4.2	0.3
303.16	7.9	0.3
313.16	14	0.3

System: pentane + cyclohexane; phases: Liquid, Gas
Property: Vapor or sublimation pressure, kPa (Liquid); method: Closed cell (Static) method
Temperature, K	Mole fraction of pentane	Vapor or sublimation pressure, kPa	uncertainty
293.21	0	10.6	0.3
293.2	0.0508	13.5	0.3
293.2	0.1411	18.3	0.3
293.2	0.1891	20.7	0.3
293.2	0.2466	23.4	0.4
293.2	0.2963	25.8	0.4
293.2	0.3544	28.5	0.4
293.2	0.4007	30.6	0.4
293.2	0.4505	32.9	0.4
293.2	0.5033	35.2	0.4
293.2	0.5512	37.1	0.4
293.2	0.6002	39.2	0.4
293.2	0.646	41.1	0.4
293.2	0.7	43.4	0.4
293.2	0.7483	45.5	0.4
293.2	0.8024	47.9	0.4
293.19	0.8466	49.8	0.4
293.2	0.9041	52.3	0.4
293.2	0.9512	54.4	0.4
293.2	1	56.6	0.4
298.18	0	13.4	0.3
298.17	0.0462	16.6	0.3
298.17	0.1018	20.2	0.3
298.17	0.1529	23.3	0.4
298.17	0.2029	26.3	0.4
298.16	0.2541	29.2	0.4
298.17	0.3047	32.1	0.4
298.17	0.3579	35.1	0.4
298.17	0.4017	37.5	0.4
298.18	0.4464	40.3	0.4
298.17	0.5013	42.9	0.4
298.18	0.5509	45.4	0.4
298.18	0.599	47.7	0.4
298.18	0.6498	50.3	0.4
298.18	0.6996	52.8	0.4
298.18	0.7483	55.3	0.4
298.18	0.8013	58	0.4
298.18	0.8523	60.7	0.4
298.19	0.9019	63.3	0.4
298.18	0.9527	66	0.4
298.18	1	68.5	0.4
303.18	0	16.4	0.3
303.18	0.0517	20.6	0.3
303.18	0.0986	24.1	0.3
303.18	0.1515	27.9	0.4
303.18	0.2049	31.7	0.4
303.18	0.2549	35.2	0.4
303.18	0.2982	38.1	0.4
303.18	0.3514	41.7	0.4
303.18	0.4007	44.9	0.5
303.18	0.4443	47.8	0.5
303.18	0.4924	50.8	0.5
303.18	0.5491	54.1	0.5
303.18	0.601	57.3	0.5
303.18	0.6541	60.6	0.5
303.18	0.7053	63.7	0.5
303.18	0.7504	66.5	0.5
303.18	0.8103	70.2	0.4
303.18	0.8529	72.9	0.4
303.18	0.9033	76.1	0.4
303.18	0.9485	78.9	0.4
303.18	1	82.2	0.4

System: hex-1-ene + propan-2-ol; phases: Liquid, Gas
Property: Vapor or sublimation pressure, kPa (Liquid); method: Closed cell (Static) method
Temperature, K	Mole fraction of hex-1-ene	Vapor or sublimation pressure, kPa	uncertainty
293.18	0	4.2	0.3
293.18	0.0558	9.4	0.3
293.18	0.1018	12.3	0.3
293.18	0.149	14.5	0.3
293.18	0.2011	16.3	0.3
293.18	0.2551	17.6	0.3
293.18	0.3029	18.4	0.3
293.18	0.3542	19.1	0.3
293.18	0.4	19.6	0.3
293.18	0.4499	20.1	0.3
293.18	0.4998	20.3	0.3
293.18	0.5521	20.6	0.3
293.18	0.5999	20.8	0.3
293.18	0.6488	21	0.3
293.18	0.7008	21.1	0.3
293.18	0.7421	21.2	0.3
293.18	0.8025	21.4	0.3
293.18	0.8525	21.5	0.3
293.18	0.9044	21.5	0.3
293.18	0.9319	21.4	0.3
293.18	1	20	0.3
303.16	0	7.9	0.3
303.16	0.0563	15.5	0.3
303.16	0.1007	19.7	0.3
303.16	0.1563	23.4	0.4
303.16	0.2025	25.7	0.3
303.16	0.2536	27.5	0.3
303.16	0.3014	28.8	0.3
303.16	0.3541	29.8	0.3
303.16	0.4021	30.6	0.3
303.17	0.4519	31.5	0.3
303.16	0.5006	31.7	0.3
303.17	0.5495	32.1	0.3
303.17	0.5976	32.4	0.5
303.17	0.6504	32.7	0.3
303.17	0.702	32.9	0.3
303.17	0.749	33.1	0.3
303.17	0.7966	33.2	0.3
303.17	0.8489	33.3	0.3
303.17	0.9004	33.3	0.3
303.17	0.946	33	0.3
303.17	1	30.6	0.3
313.16	0	14	0.3
313.16	0.0481	23.4	0.4
313.16	0.1044	30.9	0.4
313.16	0.1551	35.7	0.4
313.16	0.1952	38.5	0.4
313.16	0.2503	41.4	0.4
313.16	0.3044	43.5	0.4
313.16	0.3537	44.9	0.4
313.16	0.4034	46	0.4
313.16	0.4507	46.9	0.4
313.16	0.4681	47.2	0.4
313.16	0.504	47.7	0.4
313.16	0.5512	48.2	0.4
313.16	0.5999	48.7	0.4
313.16	0.6539	49.2	0.4
313.16	0.6963	49.5	0.4
313.16	0.7463	49.7	0.4
313.16	0.7952	49.9	0.4
313.16	0.8505	50	0.4
313.16	0.8964	49.8	0.4
313.16	0.9517	49.1	0.4
313.16	1	45.1	0.4
