Measured thermophysical data. Saturated Liquid Dynamic Viscosity and Surface Tension of trans-1-Chloro-3,3,3-trifluoropropene and Dodecafluoro-2-methylpentan-3-one
Source: J. Chem. Eng. Data, 2018, 10.1021/acs.jced.7b00902
Compound 1: (E)-1-chloro-3,3,3-trifluoroprop-1-ene, C3H2ClF3, InChI=1S/C3H2ClF3/c4-2-1-3(5,6)7/h1-2H/b2-1+, purity 99.9%
Compound 2: dodecafluoro-2-methylpentan-3-one, C6F12O, InChI=1S/C6F12O/c7-2(4(10,11)12,5(13,14)15)1(19)3(8,9)6(16,17)18, purity 99.5%

System: (E)-1-chloro-3,3,3-trifluoroprop-1-ene; phases: Liquid, Gas
Property: Viscosity, Pa*s (Liquid); method: Surface laser light scattering (SLLS)
Temperature, K	Viscosity, Pa*s	uncertainty
303.14	0.0002857	1.57e-05
313.15	0.0002504	1.45e-05
323.19	0.0002265	1.37e-05
333.18	0.0002079	1.31e-05
343.16	0.0001891	1.25e-05
353.19	0.0001695	1.18e-05
363.15	0.0001595	1.15e-05
373.14	0.0001406	1.1e-05
373.17	0.0001448	1.11e-05
383.15	0.0001318	1.08e-05
393.17	0.0001191	1.05e-05
403.15	0.0001047	1.02e-05

System: (E)-1-chloro-3,3,3-trifluoroprop-1-ene; phases: Liquid, Gas
Property: Surface tension liquid-gas, N/m (Liquid); method: Surface laser light scattering (SLLS)
Temperature, K	Surface tension liquid-gas, N/m	uncertainty
303.14	0.0133	0.0002
313.15	0.01237	0.00019
323.19	0.01089	0.00016
333.18	0.00974	0.00015
343.16	0.00862	0.00013
353.19	0.00758	0.00011
363.15	0.0064	0.0001
373.14	0.00538	8e-05
373.17	0.00538	8e-05
383.15	0.00437	7e-05
393.17	0.00341	5e-05
403.15	0.00245	4e-05

System: dodecafluoro-2-methylpentan-3-one; phases: Liquid, Gas
Property: Viscosity, Pa*s (Liquid); method: Surface laser light scattering (SLLS)
Temperature, K	Viscosity, Pa*s	uncertainty
303.16	0.000585	2.63e-05
313.12	0.0004939	2.3e-05
313.18	0.0005033	2.33e-05
323.15	0.0004357	2.09e-05
333.12	0.0003776	1.89e-05
343.15	0.000329	1.72e-05
353.16	0.0002907	1.59e-05
363.14	0.0002569	1.47e-05
373.14	0.000228	1.37e-05
383.13	0.0001998	1.28e-05
393.15	0.0001719	1.19e-05
403.17	0.0001471	1.12e-05
413.18	0.0001309	1.08e-05
423.15	0.000104	1.02e-05
433.02	7.68e-05	9.5e-06

System: dodecafluoro-2-methylpentan-3-one; phases: Liquid, Gas
Property: Surface tension liquid-gas, N/m (Liquid); method: Surface laser light scattering (SLLS)
Temperature, K	Surface tension liquid-gas, N/m	uncertainty
303.16	0.01009	0.00015
313.12	0.00926	0.00014
313.18	0.00924	0.00014
323.15	0.00843	0.00013
333.12	0.00756	0.00012
343.15	0.0067	0.0001
353.16	0.00584	9e-05
363.14	0.00499	8e-05
373.14	0.00419	6e-05
383.13	0.00344	5e-05
393.15	0.00271	4e-05
403.17	0.00202	3e-05
413.18	0.00137	2e-05
423.15	0.00078	1e-05
433.02	0.00027	1e-05
