Measured thermophysical data. Density, Viscosity, Refractive Index, and Electrical Conductivity of Degraded Monoethanolamine Solutions at Standard Temperatures
Source: J. Chem. Eng. Data, 2018, 10.1021/acs.jced.7b01101
Compound 1: water, H2O, InChI=1S/H2O/h1H2, purity 99.8%
Compound 2: 2-aminoethan-1-ol, C2H7NO, InChI=1S/C2H7NO/c3-1-2-4/h4H,1-3H2
Compound 3: carbon dioxide, CO2, InChI=1S/CO2/c2-1-3

System: water; phases: Liquid
Property: Mass density, kg/m3 (Liquid); method: Vibrating tube method
Temperature, K	Pressure, kPa	Mass density, kg/m3	uncertainty
298.15	100	997	1

System: water; phases: Liquid
Property: Viscosity, Pa*s (Liquid); method: Concentric cylinders viscometry
Temperature, K	Pressure, kPa	Viscosity, Pa*s	uncertainty
298.15	100	0.00089	0.00013

System: water; phases: Liquid
Property: Refractive index (Na D-line) (Liquid); method: Standard Abbe refractometry
Temperature, K	Pressure, kPa	Refractive index (Na D-line)	uncertainty
293.15	100	1.333	0.002

System: 2-aminoethan-1-ol; phases: Liquid
Property: Mass density, kg/m3 (Liquid); method: Vibrating tube method
Temperature, K	Pressure, kPa	Mass density, kg/m3	uncertainty
298.15	100	1012	1

System: 2-aminoethan-1-ol; phases: Liquid
Property: Viscosity, Pa*s (Liquid); method: Concentric cylinders viscometry
Temperature, K	Pressure, kPa	Viscosity, Pa*s	uncertainty
298.15	100	0.01875	0.00281

System: 2-aminoethan-1-ol; phases: Liquid
Property: Refractive index (Na D-line) (Liquid); method: Standard Abbe refractometry
Temperature, K	Pressure, kPa	Refractive index (Na D-line)	uncertainty
293.15	100	1.456	0.002

System: 2-aminoethan-1-ol; phases: Liquid
Property: Electrical conductivity, S/m (Liquid); method: Alternating current cell with electrodes
Temperature, K	Pressure, kPa	Electrical conductivity, S/m	uncertainty
293.15	100	0.0031	0.0003

System: 2-aminoethan-1-ol + water; phases: Liquid
Fixed: Temperature, K = 298.15
Fixed: Pressure, kPa = 100
Property: Mass density, kg/m3 (Liquid); method: Vibrating tube method
Mass fraction of 2-aminoethan-1-ol	Mass density, kg/m3	uncertainty
0	997	1
0.3	1012.9	1.5
0.4	1018.3	1.4
0.5	1022.1	1.2
0.6	1025.1	1.1
0.7	1026.5	1
0.8	1024.7	1.2
0.9	1020.4	1.6
1	1012	1
0.2	1007.1	1.5

System: 2-aminoethan-1-ol + water; phases: Liquid
Fixed: Temperature, K = 298.15
Fixed: Pressure, kPa = 100
Property: Viscosity, Pa*s (Liquid); method: Concentric cylinders viscometry
Mass fraction of 2-aminoethan-1-ol	Viscosity, Pa*s	uncertainty
0	0.00089	0.00013
0.3	0.0026	0.00043
0.4	0.0035	0.0006
0.5	0.0054	0.00102
0.6	0.00967	0.00161
0.7	0.01226	0.00213
0.8	0.02039	0.00314
0.9	0.01945	0.00292
1	0.01875	0.00281
0.2	0.0017	0.00028

System: 2-aminoethan-1-ol + water; phases: Liquid
Fixed: Temperature, K = 293.15
Fixed: Pressure, kPa = 100
Property: Refractive index (Na D-line) (Liquid); method: Standard Abbe refractometry
Mass fraction of 2-aminoethan-1-ol	Refractive index (Na D-line)	uncertainty
0	1.333	0.002
0.3	1.3718	0.0033
0.4	1.3852	0.0033
0.5	1.3975	0.0034
0.6	1.4126	0.0033
0.7	1.423	0.0032
0.8	1.4368	0.0029
0.9	1.4444	0.0028
1	1.456	0.002
0.2	1.3587	0.0033

System: 2-aminoethan-1-ol + water; phases: Liquid
Fixed: Temperature, K = 293.15
Fixed: Pressure, kPa = 100
Property: Electrical conductivity, S/m (Liquid); method: Alternating current cell with electrodes
Mass fraction of 2-aminoethan-1-ol	Electrical conductivity, S/m	uncertainty
0.3	0.072	0.0091
0.4	0.0461	0.0063
0.5	0.029	0.0045
0.6	0.0111	0.0023
0.7	0.0089	0.0012
0.8	0.0034	0.0007
0.9	0.0032	0.0003
1	0.0031	0.0003
0.2	0.102	0.012

System: 2-aminoethan-1-ol + water; phases: Liquid
Fixed: Temperature, K = 298.15
Fixed: Pressure, kPa = 100
Property: Mass density, kg/m3 (Liquid); method: Vibrating tube method
Mass ratio of solute to solvent of water	Mass density, kg/m3	uncertainty
4	1007.1	1
2.333	1012.9	1
1.5	1018.3	1

System: 2-aminoethan-1-ol + water; phases: Liquid
Fixed: Temperature, K = 298.15
Fixed: Pressure, kPa = 100
Property: Viscosity, Pa*s (Liquid); method: Concentric cylinders viscometry
Mass ratio of solute to solvent of water	Viscosity, Pa*s	uncertainty
4	0.0017	0.00026
2.333	0.0026	0.00039
1.5	0.0035	0.00053

System: 2-aminoethan-1-ol + water; phases: Liquid
Fixed: Temperature, K = 293.15
Fixed: Pressure, kPa = 100
Property: Refractive index (Na D-line) (Liquid); method: Standard Abbe refractometry
Mass ratio of solute to solvent of water	Refractive index (Na D-line)	uncertainty
4	1.3587	0.002
2.333	1.372	0.002
1.5	1.3854	0.002

System: 2-aminoethan-1-ol + water; phases: Liquid
Fixed: Temperature, K = 293.15
Fixed: Pressure, kPa = 100
Property: Electrical conductivity, S/m (Liquid); method: Alternating current cell with electrodes
Mass ratio of solute to solvent of water	Electrical conductivity, S/m	uncertainty
4	0.102	0.01
2.333	0.072	0.007
1.5	0.046	0.005

System: 2-aminoethan-1-ol + water + carbon dioxide; phases: Liquid
Fixed: Temperature, K = 298.15
Fixed: Pressure, kPa = 100
Property: Mass density, kg/m3 (Liquid); method: Vibrating tube method
Amount ratio of solute to solvent of carbon dioxide	Mass ratio of solute to solvent of water	Mass density, kg/m3	uncertainty
0	4	1007.1	3.1
0.15	4	1029	3.3
0.25	4	1045.9	3.2
0.35	4	1059	3
0.5	4	1081	3.1
0	2.333	1012.9	4.2
0.15	2.333	1044.2	4.3
0.25	2.333	1065	4.2
0.35	2.333	1085.1	3.2
0.5	2.333	1105	4
0	1.5	1018.3	5.5
0.15	1.5	1058.9	5.6
0.25	1.5	1086.6	5.5
0.35	1.5	1112.3	4.2
0.5	1.5	1138.2	3.7

System: 2-aminoethan-1-ol + water + carbon dioxide; phases: Liquid
Fixed: Temperature, K = 298.15
Fixed: Pressure, kPa = 100
Property: Viscosity, Pa*s (Liquid); method: Concentric cylinders viscometry
Amount ratio of solute to solvent of carbon dioxide	Mass ratio of solute to solvent of water	Viscosity, Pa*s	uncertainty
0	4	0.0017	0.00026
0.15	4	0.0018	0.00027
0.25	4	0.0019	0.00029
0.35	4	0.0021	0.00032
0.5	4	0.0022	0.00033
0	2.333	0.0026	0.00039
0.15	2.333	0.0029	0.00044
0.25	2.333	0.0031	0.00047
0.35	2.333	0.0033	0.0005
0.5	2.333	0.0039	0.00062
0	1.5	0.0035	0.00053
0.15	1.5	0.0042	0.00064
0.25	1.5	0.0047	0.00072
0.35	1.5	0.0057	0.00087
0.5	1.5	0.0067	0.00102

System: 2-aminoethan-1-ol + water + carbon dioxide; phases: Liquid
Fixed: Temperature, K = 293.15
Fixed: Pressure, kPa = 100
Property: Refractive index (Na D-line) (Liquid); method: Standard Abbe refractometry
Amount ratio of solute to solvent of carbon dioxide	Mass ratio of solute to solvent of water	Refractive index (Na D-line)	uncertainty
0	4	1.3587	0.0022
0.15	4	1.3642	0.0022
0.25	4	1.3676	0.0021
0.35	4	1.3709	0.0021
0.5	4	1.3752	0.0021
0	2.333	1.372	0.0022
0.15	2.333	1.3809	0.0024
0.25	2.333	1.3863	0.0023
0.35	2.333	1.3913	0.0022
0.5	2.333	1.3978	0.0025
0	1.5	1.3854	0.0025
0.15	1.5	1.396	0.0025
0.25	1.5	1.4029	0.0025
0.35	1.5	1.4101	0.0024
0.5	1.5	1.418	0.0023

System: 2-aminoethan-1-ol + water + carbon dioxide; phases: Liquid
Fixed: Temperature, K = 293.15
Fixed: Pressure, kPa = 100
Property: Electrical conductivity, S/m (Liquid); method: Alternating current cell with electrodes
Amount ratio of solute to solvent of carbon dioxide	Mass ratio of solute to solvent of water	Electrical conductivity, S/m	uncertainty
0	4	0.102	0.145
0.15	4	1.19	0.181
0.25	4	1.804	0.215
0.35	4	2.354	0.256
0.5	4	3.08	0.323
0	2.333	0.072	0.148
0.15	2.333	1.175	0.181
0.25	2.333	1.771	0.204
0.35	2.333	2.193	0.233
0.5	2.333	2.74	0.28
0	1.5	0.046	0.15
0.15	1.5	1.171	0.177
0.25	1.5	1.68	0.188
0.35	1.5	2.024	0.209
0.5	1.5	2.333	0.237
