Measured thermophysical data. Evidences for a Null Molar Volume Contribution by Hydroxyl Groups in Ammonium Bistriflimide-Based Ionic Liquids
Source: J. Chem. Eng. Data, 2019, 10.1021/acs.jced.9b00442
Compound 1: N-3-hydroxypropyl-N,N-dimethyl-N-ethylammonium bis(trifluoromethanesulfonyl)amide, C9H18F6N2O5S2, InChI=1S/C7H18NO.C2F6NO4S2/c1-4-8(2,3)6-5-7-9;3-1(4,5)14(10,11)9-15(12,13)2(6,7)8/h9H,4-7H2,1-3H3;/q+1;-1, purity 99%
Compound 2: N-ethyl-N,N-dimethyl-2-methoxyethylammonium bis(trifluoromethylsulfonyl)imide, C9H18F6N2O5S2, InChI=1S/C7H18NO.C2F6NO4S2/c1-5-8(2,3)6-7-9-4;3-1(4,5)14(10,11)9-15(12,13)2(6,7)8/h5-7H2,1-4H3;/q+1;-1, purity 99%
Compound 3: N-butyl-N,N-dimethyl-N-ethylammonium bis(trifluoromethanesulfonyl)amide, C10H20F6N2O4S2, InChI=1S/C8H20N.C2F6NO4S2/c1-5-7-8-9(3,4)6-2;3-1(4,5)14(10,11)9-15(12,13)2(6,7)8/h5-8H2,1-4H3;/q+1;-1, purity 99%
Compound 4: N-ethyl-N-methyl-N,N-bis(2- hydroxyethyl)ammonium bis(trifluoromethanesulfonyl)amide, C9H18F6N2O6S2, InChI=1S/C7H18NO2.C2F6NO4S2/c1-3-8(2,4-6-9)5-7-10;3-1(4,5)14(10,11)9-15(12,13)2(6,7)8/h9-10H,3-7H2,1-2H3;/q+1;-1, purity 99%
Compound 5: N-methyl-N,N,N-tris(2-hydroxyethyl)ammonium bis(trifluoromethanesulfonyl)amide, C9H18F6N2O7S2, InChI=1S/C7H18NO3.C2F6NO4S2/c1-8(2-5-9,3-6-10)4-7-11;3-1(4,5)14(10,11)9-15(12,13)2(6,7)8/h9-11H,2-7H2,1H3;/q+1;-1, purity 99%
Compound 6: N-ethyl-N,N,N-tris(2-hydroxyethyl)ammonium bis(trifluoromethanesulfonyl)amide, C10H20F6N2O7S2, InChI=1S/C8H20NO3.C2F6NO4S2/c1-2-9(3-6-10,4-7-11)5-8-12;3-1(4,5)14(10,11)9-15(12,13)2(6,7)8/h10-12H,2-8H2,1H3;/q+1;-1, purity 99%
Compound 7: N-butyl-N,N,N-tris(2-hydroxyethyl)ammonium bis(trifluoromethanesulfonyl)amide, C12H24F6N2O7S2, InChI=1S/C10H24NO3.C2F6NO4S2/c1-2-3-4-11(5-8-12,6-9-13)7-10-14;3-1(4,5)14(10,11)9-15(12,13)2(6,7)8/h12-14H,2-10H2,1H3;/q+1;-1, purity 99%

System: N-3-hydroxypropyl-N,N-dimethyl-N-ethylammonium bis(trifluoromethanesulfonyl)amide; phases: Liquid
Fixed: Pressure, kPa = 100
Property: Mass density, kg/m3 (Liquid); method: Vibrating tube method
Temperature, K	Mass density, kg/m3	uncertainty
288.15	1472.2	1.2
289.15	1471.4	1.2
290.15	1470.5	1.2
291.15	1469.6	1.2
292.15	1468.7	1.2
293.15	1467.8	1.2
294.15	1466.9	1.2
295.15	1466.1	1.2
296.15	1465.2	1.2
297.15	1464.3	1.2
298.15	1463.4	1.2
299.16	1462.5	1.2
300.16	1461.7	1.2
301.15	1460.8	1.2
302.15	1459.9	1.2
303.15	1459	1.2
304.15	1458.2	1.2
305.15	1457.3	1.2
306.15	1456.4	1.2
307.15	1455.5	1.2
308.15	1454.7	1.2
309.15	1453.8	1.2
310.15	1452.9	1.2
311.15	1452	1.2
312.15	1451.2	1.2
313.15	1450.3	1.2
314.15	1449.4	1.2
315.15	1448.6	1.2
316.15	1447.7	1.2
317.15	1446.8	1.2
318.15	1446	1.2
319.15	1445.1	1.1
320.15	1444.2	1.1
321.15	1443.4	1.1
322.15	1442.5	1.1
323.15	1441.6	1.1
324.15	1440.8	1.1
325.15	1439.9	1.1
326.15	1439	1.1
327.15	1438.2	1.1
328.15	1437.3	1.1
329.15	1436.4	1.1
330.15	1435.6	1.1
331.15	1434.7	1.1
332.15	1433.9	1.1
333.15	1433	1.1
334.15	1432.1	1.1
335.16	1431.3	1.1
336.15	1430.4	1.1
337.15	1429.6	1.1
338.15	1428.7	1.1
339.15	1427.8	1.1
340.15	1427	1.1
341.15	1426.1	1.1
342.15	1425.3	1.1
343.15	1424.4	1.1
344.15	1423.6	1.1
345.15	1422.7	1.1
346.15	1421.9	1.1
347.15	1421	1.1
348.15	1420.1	1.1
349.15	1419.3	1.1
350.15	1418.4	1.1
351.15	1417.6	1.1
352.15	1416.7	1.1
353.15	1415.9	1.1
354.15	1415	1.1
355.15	1414.2	1.1
356.15	1413.3	1.1
357.15	1412.5	1.1
358.15	1411.7	1.1
359.15	1410.8	1.1
360.15	1410	1.1
361.15	1409.1	1.1
362.16	1408.3	1.1
363.15	1407.4	1.1

System: N-3-hydroxypropyl-N,N-dimethyl-N-ethylammonium bis(trifluoromethanesulfonyl)amide; phases: Liquid
Fixed: Pressure, kPa = 100
Property: Viscosity, Pa*s (Liquid); method: Concentric cylinders viscometry
Temperature, K	Viscosity, Pa*s	uncertainty
288.15	0.314	0.0145
293.15	0.2201	0.0098
298.15	0.166	0.0071
303.15	0.1254	0.0053
308.15	0.0967	0.004
313.15	0.0768	0.0031
318.15	0.0609	0.0025
323.15	0.0495	0.002
328.15	0.0408	0.0017
333.15	0.0345	0.0014
338.15	0.0288	0.0012
343.15	0.0246	0.001
348.15	0.0212	0.0009
353.15	0.0187	0.0008
358.15	0.0162	0.0007
363.15	0.0143	0.0006

System: N-3-hydroxypropyl-N,N-dimethyl-N-ethylammonium bis(trifluoromethanesulfonyl)amide; phases: Liquid
Fixed: Pressure, kPa = 100
Fixed: Frequency, MHz = 0.0006
Property: Electrical conductivity, S/m (Liquid); method: Alternating current cell with electrodes
Temperature, K	Electrical conductivity, S/m	uncertainty
283.15	0.049	0.001
288.15	0.069	0.001
293.15	0.095	0.002
298.15	0.125	0.003
303.15	0.162	0.003
308.15	0.204	0.004
313.15	0.253	0.005
318.15	0.309	0.006
323.15	0.371	0.007

System: N-3-hydroxypropyl-N,N-dimethyl-N-ethylammonium bis(trifluoromethanesulfonyl)amide; phases: Liquid
Fixed: Pressure, kPa = 100
Property: Refractive index (Na D-line) (Liquid); method: Standard Abbe refractometry
Temperature, K	Refractive index (Na D-line)	uncertainty
283.15	1.4253	0.0017
288.15	1.4241	0.0017
293.15	1.4228	0.0017
298.15	1.4215	0.0017
303.15	1.4203	0.0017
308.15	1.419	0.0017
313.15	1.4176	0.0017
318.15	1.4164	0.0017
323.15	1.4151	0.0017
328.15	1.4139	0.0017
333.15	1.4126	0.0017
338.15	1.4114	0.0017
343.15	1.4101	0.0017
348.15	1.4089	0.0017
353.15	1.4076	0.0017
358.15	1.4064	0.0017

System: N-ethyl-N,N-dimethyl-2-methoxyethylammonium bis(trifluoromethylsulfonyl)imide; phases: Liquid
Fixed: Pressure, kPa = 100
Property: Mass density, kg/m3 (Liquid); method: Vibrating tube method
Temperature, K	Mass density, kg/m3	uncertainty
288.15	1440.5	1.1
289.15	1439.5	1.1
290.15	1438.6	1.1
291.15	1437.6	1.1
292.15	1436.7	1.1
293.15	1435.7	1.1
294.15	1434.8	1.1
295.15	1433.8	1.1
296.15	1432.8	1.1
297.15	1431.9	1.1
298.15	1431	1.1
299.16	1430	1.1
300.16	1429.1	1.1
301.15	1428.1	1.1
302.15	1427.2	1.1
303.15	1426.2	1.1
304.15	1425.3	1.1
305.15	1424.4	1.1
306.15	1423.4	1.1
307.15	1422.5	1.1
308.15	1421.6	1.1
309.15	1420.6	1.1
310.15	1419.7	1.1
311.15	1418.8	1.1
312.15	1417.8	1.1
313.15	1416.9	1.1
314.15	1416	1.1
315.15	1415.1	1.1
316.15	1414.1	1.1
317.15	1413.2	1.1
318.15	1412.3	1.1
319.15	1411.4	1.1
320.15	1410.4	1.1
321.15	1409.5	1.1
322.15	1408.6	1.1
323.15	1407.7	1.1
324.15	1406.8	1.1
325.15	1405.9	1.1
326.15	1404.9	1.1
327.15	1404	1.1
328.15	1403.1	1.1
329.15	1402.2	1.1
330.15	1401.3	1.1
331.15	1400.4	1.1
332.15	1399.4	1.1
333.15	1398.5	1.1
334.15	1397.6	1.1
335.16	1396.7	1.1
336.15	1395.8	1.1
337.15	1394.9	1.1
338.15	1394	1.1
339.15	1393.1	1.1
340.15	1392.2	1.1
341.15	1391.3	1.1
342.15	1390.4	1.1
343.15	1389.5	1.1
344.15	1388.6	1.1
345.15	1387.7	1.1
346.15	1386.7	1.1
347.15	1385.8	1.1
348.15	1384.9	1.1
349.15	1384	1.1
350.15	1383.1	1.1
351.15	1382.2	1.1
352.15	1381.3	1.1
353.15	1380.4	1.1
354.15	1379.5	1.1
355.15	1378.6	1.1
356.15	1377.7	1.1
357.15	1376.9	1.1
358.15	1376	1.1
359.15	1375.1	1.1
360.15	1374.2	1.1
361.15	1373.3	1.1
362.16	1372.4	1.1
363.15	1371.5	1.1

System: N-ethyl-N,N-dimethyl-2-methoxyethylammonium bis(trifluoromethylsulfonyl)imide; phases: Liquid
Fixed: Pressure, kPa = 100
Property: Viscosity, Pa*s (Liquid); method: Concentric cylinders viscometry
Temperature, K	Viscosity, Pa*s	uncertainty
288.15	0.1004	0.0041
293.15	0.0783	0.0032
298.15	0.0615	0.0025
303.15	0.0495	0.002
308.15	0.0405	0.0016
313.15	0.0339	0.0014
318.15	0.0282	0.0011
323.15	0.024	0.001
328.15	0.0206	0.0008
333.15	0.018	0.0007
338.15	0.0156	0.0006
343.15	0.0137	0.0006
348.15	0.0122	0.0005
353.15	0.011	0.0004
358.15	0.0097	0.0004
363.15	0.0088	0.0004

System: N-ethyl-N,N-dimethyl-2-methoxyethylammonium bis(trifluoromethylsulfonyl)imide; phases: Liquid
Fixed: Pressure, kPa = 100
Fixed: Frequency, MHz = 0.0006
Property: Electrical conductivity, S/m (Liquid); method: Alternating current cell with electrodes
Temperature, K	Electrical conductivity, S/m	uncertainty
283.15	0.141	0.003
288.15	0.182	0.004
293.15	0.23	0.005
298.15	0.285	0.006
303.15	0.347	0.007
308.15	0.415	0.008
313.15	0.489	0.01
318.15	0.57	0.011
323.15	0.659	0.013

System: N-ethyl-N,N-dimethyl-2-methoxyethylammonium bis(trifluoromethylsulfonyl)imide; phases: Liquid
Fixed: Pressure, kPa = 100
Property: Refractive index (Na D-line) (Liquid); method: Standard Abbe refractometry
Temperature, K	Refractive index (Na D-line)	uncertainty
283.15	1.4164	0.0017
288.15	1.415	0.0017
293.15	1.4136	0.0017
298.15	1.4121	0.0017
303.15	1.4107	0.0017
308.15	1.4092	0.0017
313.15	1.4078	0.0017
318.15	1.4065	0.0017
323.15	1.4051	0.0017
328.15	1.4037	0.0017
333.15	1.4024	0.0017
338.15	1.4011	0.0017
343.15	1.3998	0.0017
348.15	1.3985	0.0017
353.15	1.3972	0.0017
358.15	1.3959	0.0017

System: N-butyl-N,N-dimethyl-N-ethylammonium bis(trifluoromethanesulfonyl)amide; phases: Liquid
Fixed: Pressure, kPa = 100
Property: Mass density, kg/m3 (Liquid); method: Vibrating tube method
Temperature, K	Mass density, kg/m3	uncertainty
288.15	1380.6	1.1
289.15	1379.7	1.1
290.15	1378.8	1.1
291.15	1377.9	1.1
292.15	1377	1.1
293.15	1376.1	1.1
294.15	1375.2	1.1
295.15	1374.3	1.1
296.15	1373.4	1.1
297.15	1372.5	1.1
298.15	1371.6	1.1
299.16	1370.8	1.1
300.16	1369.9	1.1
301.15	1369	1.1
302.15	1368.1	1.1
303.15	1367.2	1.1
304.15	1366.3	1.1
305.15	1365.4	1.1
306.15	1364.6	1.1
307.15	1363.7	1.1
308.15	1362.8	1.1
309.15	1361.9	1.1
310.15	1361.1	1.1
311.15	1360.2	1.1
312.15	1359.3	1.1
313.15	1358.4	1.1
314.15	1357.6	1.1
315.15	1356.7	1.1
316.15	1355.8	1.1
317.15	1355	1.1
318.15	1354.1	1.1
319.15	1353.2	1.1
320.15	1352.3	1.1
321.15	1351.5	1.1
322.15	1350.6	1.1
323.15	1349.7	1.1
324.15	1348.9	1.1
325.15	1348	1.1
326.15	1347.2	1.1
327.15	1346.3	1.1
328.15	1345.5	1.1
329.15	1344.6	1.1
330.15	1343.7	1.1
331.15	1342.9	1.1
332.15	1342	1.1
333.15	1341.2	1.1
334.15	1340.3	1.1
335.16	1339.5	1.1
336.15	1338.6	1.1
337.15	1337.8	1.1
338.15	1336.9	1.1
339.15	1336	1.1
340.15	1335.2	1.1
341.15	1334.3	1.1
342.15	1333.5	1.1
343.15	1332.6	1.1
344.15	1331.8	1.1
345.15	1330.9	1.1
346.15	1330.1	1.1
347.15	1329.2	1.1
348.15	1328.4	1.1
349.15	1327.5	1.1
350.15	1326.7	1.1
351.15	1325.9	1.1
352.15	1325	1.1
353.15	1324.2	1.1
354.15	1323.3	1.1
355.15	1322.5	1.1
356.15	1321.6	1.1
357.15	1320.8	1.1
358.15	1319.9	1.1
359.15	1319.1	1.1
360.15	1318.3	1.1
361.15	1317.4	1.1
362.16	1316.6	1.1
363.15	1315.7	1.1

System: N-butyl-N,N-dimethyl-N-ethylammonium bis(trifluoromethanesulfonyl)amide; phases: Liquid
Fixed: Pressure, kPa = 100
Property: Viscosity, Pa*s (Liquid); method: Concentric cylinders viscometry
Temperature, K	Viscosity, Pa*s	uncertainty
288.15	0.1761	0.0076
293.15	0.1324	0.0056
298.15	0.1005	0.0042
303.15	0.0784	0.0032
308.15	0.0623	0.0025
313.15	0.0509	0.0021
318.15	0.0412	0.0017
323.15	0.0342	0.0014
328.15	0.0288	0.0012
333.15	0.0248	0.001
338.15	0.021	0.0009
343.15	0.0182	0.0007
348.15	0.0159	0.0006
353.15	0.0142	0.0006
358.15	0.0124	0.0005
363.15	0.011	0.0004

System: N-butyl-N,N-dimethyl-N-ethylammonium bis(trifluoromethanesulfonyl)amide; phases: Liquid
Fixed: Pressure, kPa = 100
Fixed: Frequency, MHz = 0.0006
Property: Electrical conductivity, S/m (Liquid); method: Alternating current cell with electrodes
Temperature, K	Electrical conductivity, S/m	uncertainty
283.15	0.082	0.002
288.15	0.11	0.002
293.15	0.143	0.003
298.15	0.182	0.004
303.15	0.228	0.005
308.15	0.279	0.006
313.15	0.337	0.007
318.15	0.401	0.008
323.15	0.473	0.009

System: N-butyl-N,N-dimethyl-N-ethylammonium bis(trifluoromethanesulfonyl)amide; phases: Liquid
Fixed: Pressure, kPa = 100
Property: Refractive index (Na D-line) (Liquid); method: Standard Abbe refractometry
Temperature, K	Refractive index (Na D-line)	uncertainty
283.15	1.4174	0.0017
288.15	1.416	0.0017
293.15	1.4147	0.0017
298.15	1.4133	0.0017
303.15	1.412	0.0017
308.15	1.4106	0.0017
313.15	1.4092	0.0017
318.15	1.4078	0.0017
323.15	1.4064	0.0017
328.15	1.4051	0.0017
333.15	1.4038	0.0017
338.15	1.4024	0.0017
343.15	1.4012	0.0017
348.15	1.3998	0.0017
353.15	1.3985	0.0017
358.15	1.3973	0.0017

System: N-ethyl-N-methyl-N,N-bis(2- hydroxyethyl)ammonium bis(trifluoromethanesulfonyl)amide; phases: Liquid
Fixed: Pressure, kPa = 100
Property: Mass density, kg/m3 (Liquid); method: Vibrating tube method
Temperature, K	Mass density, kg/m3	uncertainty
288.15	1524.5	1.2
289.15	1523.6	1.2
290.15	1522.7	1.2
291.15	1521.7	1.2
292.15	1520.8	1.2
293.15	1519.9	1.2
294.15	1519	1.2
295.15	1518	1.2
296.15	1517.1	1.2
297.15	1516.2	1.2
298.15	1515.3	1.2
299.16	1514.4	1.2
300.16	1513.4	1.2
301.15	1512.5	1.2
302.15	1511.6	1.2
303.15	1510.7	1.2
304.15	1509.8	1.2
305.15	1508.9	1.2
306.15	1508	1.2
307.15	1507.1	1.2
308.15	1506.2	1.2
309.15	1505.3	1.2
310.15	1504.4	1.2
311.15	1503.5	1.2
312.15	1502.6	1.2
313.15	1501.7	1.2
314.15	1500.8	1.2
315.15	1499.9	1.2
316.15	1499	1.2
317.15	1498.1	1.2
318.15	1497.2	1.2
319.15	1496.3	1.2
320.15	1495.4	1.2
321.15	1494.6	1.2
322.15	1493.7	1.2
323.15	1492.8	1.2
324.15	1491.9	1.2
325.15	1491	1.2
326.15	1490.2	1.2
327.15	1489.3	1.2
328.15	1488.4	1.2
329.15	1487.5	1.2
330.15	1486.7	1.2
331.15	1485.8	1.2
332.15	1484.9	1.2
333.15	1484.1	1.2
334.15	1483.2	1.2
335.16	1482.3	1.2
336.15	1481.5	1.2
337.15	1480.6	1.2
338.15	1479.7	1.2
339.15	1478.9	1.2
340.15	1478	1.2
341.15	1477.1	1.2
342.15	1476.3	1.2
343.15	1475.4	1.2
344.15	1474.6	1.2
345.15	1473.7	1.2
346.15	1472.8	1.2
347.15	1472	1.2
348.15	1471.1	1.2
349.15	1470.3	1.2
350.15	1469.4	1.2
351.15	1468.6	1.2
352.15	1467.7	1.2
353.15	1466.8	1.2
354.15	1466	1.2
355.15	1465.1	1.2
356.15	1464.3	1.2
357.15	1463.5	1.2
358.15	1462.6	1.2
359.15	1461.8	1.2
360.15	1460.9	1.2
361.15	1460.1	1.2
362.16	1459.2	1.2
363.15	1458.4	1.2

System: N-ethyl-N-methyl-N,N-bis(2- hydroxyethyl)ammonium bis(trifluoromethanesulfonyl)amide; phases: Liquid
Fixed: Pressure, kPa = 100
Property: Viscosity, Pa*s (Liquid); method: Concentric cylinders viscometry
Temperature, K	Viscosity, Pa*s	uncertainty
288.15	0.5362	0.0267
298.15	0.2683	0.0122
303.15	0.1977	0.0087
308.15	0.149	0.0063
313.15	0.1126	0.0047
318.15	0.0899	0.0037
323.15	0.0717	0.0029
328.15	0.0581	0.0023
333.15	0.0473	0.0019
338.15	0.0397	0.0016
343.15	0.0334	0.0014
348.15	0.0284	0.0011
353.15	0.0243	0.001
358.15	0.0211	0.0009
363.15	0.0184	0.0007

System: N-ethyl-N-methyl-N,N-bis(2- hydroxyethyl)ammonium bis(trifluoromethanesulfonyl)amide; phases: Liquid
Fixed: Pressure, kPa = 100
Fixed: Frequency, MHz = 0.0006
Property: Electrical conductivity, S/m (Liquid); method: Alternating current cell with electrodes
Temperature, K	Electrical conductivity, S/m	uncertainty
283.15	0.027	0.001
288.15	0.04	0.001
293.15	0.056	0.001
298.15	0.076	0.002
303.15	0.101	0.002
308.15	0.13	0.003
313.15	0.165	0.003
318.15	0.206	0.004
323.15	0.253	0.005

System: N-methyl-N,N,N-tris(2-hydroxyethyl)ammonium bis(trifluoromethanesulfonyl)amide; phases: Liquid
Fixed: Pressure, kPa = 100
Property: Mass density, kg/m3 (Liquid); method: Vibrating tube method
Temperature, K	Mass density, kg/m3	uncertainty
289.15	1574.9	1.2
290.15	1574	1.2
291.15	1573.1	1.2
292.15	1572.2	1.2
293.15	1571.3	1.2
294.15	1570.4	1.2
295.15	1569.5	1.2
296.15	1568.6	1.2
297.15	1567.7	1.2
298.15	1566.8	1.2
299.16	1565.9	1.2
300.16	1565	1.2
301.15	1564.1	1.2
302.15	1563.2	1.2
303.15	1562.3	1.2
304.15	1561.4	1.2
305.15	1560.5	1.2
306.15	1559.6	1.2
307.15	1558.7	1.2
308.15	1557.8	1.2
309.15	1556.9	1.2
310.15	1556	1.2
311.15	1555.1	1.2
312.15	1554.2	1.2
313.15	1553.3	1.2
314.15	1552.4	1.2
315.15	1551.5	1.2
316.15	1550.6	1.2
317.15	1549.7	1.2
318.15	1548.8	1.2
319.15	1547.9	1.2
320.15	1547	1.2
321.15	1546.1	1.2
322.15	1545.2	1.2
323.15	1544.3	1.2
324.15	1543.4	1.2
325.15	1542.5	1.2
326.15	1541.6	1.2
327.15	1540.7	1.2
328.15	1539.8	1.2
329.15	1538.9	1.2
330.15	1538.1	1.2
331.15	1537.2	1.2
332.15	1536.3	1.2
333.15	1535.4	1.2
334.15	1534.5	1.2
335.16	1533.6	1.2
336.15	1532.8	1.2
337.15	1531.9	1.2
338.15	1531	1.2
339.15	1530.1	1.2
340.15	1529.2	1.2
341.15	1528.4	1.2
342.15	1527.5	1.2
343.15	1526.6	1.2
344.15	1525.8	1.2
345.15	1524.9	1.2
346.15	1524	1.2
347.15	1523.1	1.2
348.15	1522.3	1.2
349.15	1521.4	1.2
350.15	1520.5	1.2
351.15	1519.7	1.2
352.15	1518.8	1.2
353.15	1518	1.2
354.15	1517.1	1.2
355.15	1516.2	1.2
356.15	1515.4	1.2
357.15	1514.5	1.2
358.15	1513.6	1.2
359.15	1512.8	1.2
360.15	1511.9	1.2
361.15	1511.1	1.2
362.16	1510.2	1.2
363.15	1509.3	1.2

System: N-methyl-N,N,N-tris(2-hydroxyethyl)ammonium bis(trifluoromethanesulfonyl)amide; phases: Liquid
Fixed: Pressure, kPa = 100
Property: Viscosity, Pa*s (Liquid); method: Concentric cylinders viscometry
Temperature, K	Viscosity, Pa*s	uncertainty
288.15	1.2831	0.0729
293.15	0.8385	0.0447
298.15	0.5688	0.0286
303.15	0.3978	0.019
308.15	0.2859	0.0131
313.15	0.2111	0.0093
318.15	0.1587	0.0068
323.15	0.122	0.0051
328.15	0.0956	0.0039
333.15	0.0765	0.0031
338.15	0.0617	0.0025
343.15	0.0506	0.002
348.15	0.0421	0.0017
353.15	0.0356	0.0014
358.15	0.0301	0.0012
363.15	0.0258	0.001

System: N-methyl-N,N,N-tris(2-hydroxyethyl)ammonium bis(trifluoromethanesulfonyl)amide; phases: Liquid
Fixed: Pressure, kPa = 100
Fixed: Frequency, MHz = 0.0006
Property: Electrical conductivity, S/m (Liquid); method: Alternating current cell with electrodes
Temperature, K	Electrical conductivity, S/m	uncertainty
283.15	0.01	0.001
288.15	0.017	0.001
293.15	0.025	0.001
298.15	0.036	0.001
303.15	0.05	0.001
308.15	0.068	0.001
313.15	0.09	0.002
318.15	0.117	0.002
323.15	0.149	0.003

System: N-ethyl-N,N,N-tris(2-hydroxyethyl)ammonium bis(trifluoromethanesulfonyl)amide; phases: Liquid
Fixed: Pressure, kPa = 100
Property: Mass density, kg/m3 (Liquid); method: Vibrating tube method
Temperature, K	Mass density, kg/m3	uncertainty
288.15	1538.5	1.2
289.15	1537.6	1.2
290.15	1536.7	1.2
291.15	1535.9	1.2
292.15	1535	1.2
293.15	1534.1	1.2
294.15	1533.2	1.2
295.15	1532.4	1.2
296.15	1531.5	1.2
297.15	1530.6	1.2
298.15	1529.7	1.2
299.16	1528.9	1.2
300.16	1528	1.2
301.15	1527.1	1.2
302.15	1526.2	1.2
303.15	1525.4	1.2
304.15	1524.5	1.2
305.15	1523.6	1.2
306.15	1522.7	1.2
307.15	1521.9	1.2
308.15	1521	1.2
309.15	1520.1	1.2
310.15	1519.2	1.2
311.15	1518.4	1.2
312.15	1517.5	1.2
313.15	1516.6	1.2
314.15	1515.7	1.2
315.15	1514.9	1.2
316.15	1514	1.2
317.15	1513.1	1.2
318.15	1512.2	1.2
319.15	1511.3	1.2
320.15	1510.5	1.2
321.15	1509.6	1.2
322.15	1508.7	1.2
323.15	1507.8	1.2
324.15	1507	1.2
325.15	1506.1	1.2
326.15	1505.2	1.2
327.15	1504.4	1.2
328.15	1503.5	1.2
329.15	1502.6	1.2
330.15	1501.8	1.2
331.15	1500.9	1.2
332.15	1500	1.2
333.15	1499.2	1.2
334.15	1498.3	1.2
335.16	1497.4	1.2
336.15	1496.6	1.2
337.15	1495.7	1.2
338.15	1494.9	1.2
339.15	1494	1.2
340.15	1493.2	1.2
341.15	1492.3	1.2
342.15	1491.4	1.2
343.15	1490.6	1.2
344.15	1489.7	1.2
345.15	1488.9	1.2
346.15	1488	1.2
347.15	1487.2	1.2
348.15	1486.3	1.2
349.15	1485.5	1.2
350.15	1484.6	1.2
351.15	1483.8	1.2
352.15	1483	1.2
353.15	1482.1	1.2
354.15	1481.3	1.2
355.15	1480.4	1.2
356.15	1479.6	1.2
357.15	1478.7	1.2
358.15	1477.9	1.2
359.15	1477.1	1.2
360.15	1476.2	1.2
361.15	1475.4	1.2
362.16	1474.6	1.2
363.15	1473.7	1.2

System: N-ethyl-N,N,N-tris(2-hydroxyethyl)ammonium bis(trifluoromethanesulfonyl)amide; phases: Liquid
Fixed: Pressure, kPa = 100
Property: Viscosity, Pa*s (Liquid); method: Concentric cylinders viscometry
Temperature, K	Viscosity, Pa*s	uncertainty
288.15	2.0417	0.1244
293.15	1.2754	0.0724
298.15	0.8406	0.0448
303.15	0.5694	0.0286
308.15	0.3978	0.019
313.15	0.2803	0.0128
318.15	0.2105	0.0093
323.15	0.1586	0.0068
328.15	0.122	0.0051
333.15	0.0947	0.0039
338.15	0.0761	0.0031
343.15	0.0616	0.0025
348.15	0.0506	0.002
353.15	0.0419	0.0017
358.15	0.0353	0.0014
363.15	0.03	0.0012

System: N-ethyl-N,N,N-tris(2-hydroxyethyl)ammonium bis(trifluoromethanesulfonyl)amide; phases: Liquid
Fixed: Pressure, kPa = 100
Fixed: Frequency, MHz = 0.0006
Property: Electrical conductivity, S/m (Liquid); method: Alternating current cell with electrodes
Temperature, K	Electrical conductivity, S/m	uncertainty
283.15	0.007	0.001
288.15	0.011	0.001
293.15	0.018	0.001
298.15	0.026	0.001
303.15	0.037	0.001
308.15	0.052	0.001
313.15	0.07	0.002
318.15	0.092	0.002
323.15	0.118	0.002

System: N-butyl-N,N,N-tris(2-hydroxyethyl)ammonium bis(trifluoromethanesulfonyl)amide; phases: Liquid
Fixed: Pressure, kPa = 100
Property: Mass density, kg/m3 (Liquid); method: Vibrating tube method
Temperature, K	Mass density, kg/m3	uncertainty
289.15	1464.4	1.2
290.15	1463.6	1.2
291.15	1462.7	1.2
292.15	1461.8	1.2
293.15	1461	1.2
294.15	1460.1	1.2
295.15	1459.2	1.2
296.15	1458.3	1.2
297.15	1457.5	1.2
298.15	1456.6	1.2
299.16	1455.7	1.2
300.16	1454.9	1.2
301.15	1454	1.2
302.15	1453.1	1.2
303.15	1452.3	1.2
304.15	1451.4	1.2
305.15	1450.5	1.2
306.15	1449.7	1.2
307.15	1448.8	1.2
308.15	1447.9	1.2
309.15	1447.1	1.2
310.15	1446.2	1.2
311.15	1445.4	1.1
312.15	1444.5	1.1
313.15	1443.6	1.1
314.15	1442.8	1.1
315.15	1441.9	1.1
316.15	1441	1.1
317.15	1440.2	1.1
318.15	1439.3	1.1
319.15	1438.4	1.1
320.15	1437.6	1.1
321.15	1436.7	1.1
322.15	1435.8	1.1
323.15	1435	1.1
324.15	1434.1	1.1
325.15	1433.2	1.1
326.15	1432.4	1.1
327.15	1431.5	1.1
328.15	1430.6	1.1
329.15	1429.8	1.1
330.15	1428.9	1.1
331.15	1428.1	1.1
332.15	1427.2	1.1
333.15	1426.3	1.1
334.15	1425.5	1.1
335.16	1424.6	1.1
336.15	1423.8	1.1
337.15	1422.9	1.1
338.15	1422.1	1.1
339.15	1421.2	1.1
340.15	1420.4	1.1
341.15	1419.5	1.1
342.15	1418.7	1.1
343.15	1417.8	1.1
344.15	1417	1.1
345.15	1416.1	1.1
346.15	1415.3	1.1
347.15	1414.5	1.1
348.15	1413.6	1.1
349.15	1412.8	1.1
350.15	1411.9	1.1
351.15	1411.1	1.1
352.15	1410.3	1.1
353.15	1409.4	1.1
354.15	1408.6	1.1
355.15	1407.7	1.1
356.15	1406.9	1.1
357.15	1406.1	1.1
358.15	1405.2	1.1
359.15	1404.4	1.1
360.15	1403.6	1.1
361.15	1402.8	1.1
362.16	1401.9	1.1
363.15	1401.1	1.1

System: N-butyl-N,N,N-tris(2-hydroxyethyl)ammonium bis(trifluoromethanesulfonyl)amide; phases: Liquid
Fixed: Pressure, kPa = 100
Property: Viscosity, Pa*s (Liquid); method: Concentric cylinders viscometry
Temperature, K	Viscosity, Pa*s	uncertainty
288.15	2.7526	0.1754
293.15	1.6844	0.0998
298.15	1.072	0.0593
303.15	0.7087	0.0368
308.15	0.4845	0.0238
313.15	0.3408	0.016
318.15	0.2459	0.011
323.15	0.182	0.0079
328.15	0.1377	0.0058
333.15	0.1066	0.0044
338.15	0.0835	0.0034
343.15	0.0667	0.0027
348.15	0.0541	0.0022
353.15	0.0447	0.0018
358.15	0.037	0.0015
363.15	0.0311	0.0013

System: N-butyl-N,N,N-tris(2-hydroxyethyl)ammonium bis(trifluoromethanesulfonyl)amide; phases: Liquid
Fixed: Pressure, kPa = 100
Fixed: Frequency, MHz = 0.0006
Property: Electrical conductivity, S/m (Liquid); method: Alternating current cell with electrodes
Temperature, K	Electrical conductivity, S/m	uncertainty
283.15	0.004	0.001
288.15	0.007	0.001
293.15	0.011	0.001
298.15	0.016	0.001
303.15	0.024	0.001
308.15	0.034	0.001
313.15	0.046	0.001
318.15	0.062	0.001
323.15	0.082	0.002
