Measured thermophysical data. Experimental Procedure for Measuring Solid Liquid Gas Equilibrium in Carbon Dioxide + Solute
Source: J. Chem. Eng. Data, 2016, 10.1021/acs.jced.6b00348
Compound 1: carbon dioxide, CO2, InChI=1S/CO2/c2-1-3, purity 99.9999%
Compound 2: dodecanoic acid, C12H24O2, InChI=1S/C12H24O2/c1-2-3-4-5-6-7-8-9-10-11-12(13)14/h2-11H2,1H3,(H,13,14), purity 99.7%
Compound 3: tetradecanoic acid, C14H28O2, InChI=1S/C14H28O2/c1-2-3-4-5-6-7-8-9-10-11-12-13-14(15)16/h2-13H2,1H3,(H,15,16), purity 99.9%
Compound 4: hexadecanoic acid, C16H32O2, InChI=1S/C16H32O2/c1-2-3-4-5-6-7-8-9-10-11-12-13-14-15-16(17)18/h2-15H2,1H3,(H,17,18), purity 99%
Compound 5: octadecanoic acid, C18H36O2, InChI=1S/C18H36O2/c1-2-3-4-5-6-7-8-9-10-11-12-13-14-15-16-17-18(19)20/h2-17H2,1H3,(H,19,20), purity 99.3%

System: carbon dioxide + dodecanoic acid; phases: Crystal, Liquid mixture 1, Liquid mixture 2, Gas
Property: Quadruple (quintuple) point temperature, K (Crystal); method: Visual
Quadruple (quintuple) point temperature, K	uncertainty
296.6	1.25

System: carbon dioxide + dodecanoic acid; phases: Liquid, Crystal, Gas
Property: Triple point temperature, K (Liquid); method: Large-sample thermal analysis
Pressure, kPa	Triple point temperature, K	uncertainty
1280	313.99	1.29
2750	309.86	1.4
4620	303.9	1.87
5470	298.41	2.64
5940	296.5	2.16

System: carbon dioxide + dodecanoic acid; phases: Liquid, Crystal, Gas
Property: Triple point temperature, K (Liquid); method: VISOBS
Pressure, kPa	Triple point temperature, K	uncertainty
720	315.43	1.4
1200	313.14	1.3
1710	312.45	1.25
2040	311.51	1.27
2480	310.84	1.29
2890	309.67	1.42
3050	309.06	1.49
3280	308.33	1.55
3460	307.58	1.54
3690	306.91	1.53
3990	305.89	1.57
4260	305.08	1.61
4530	304.14	1.83
4580	303.97	1.82
4730	303.22	1.91
4950	302.44	1.82
5190	301.55	1.97
5420	300.57	2.31
5550	299.78	2.71
5690	299	2.33
5830	298.47	3.02
5950	297.33	4.48

System: carbon dioxide + tetradecanoic acid; phases: Liquid, Crystal, Gas
Property: Triple point temperature, K (Liquid); method: Large-sample thermal analysis
Pressure, kPa	Triple point temperature, K	uncertainty
5790	314.79	1.59
7770	310.05	1.59
8570	310.07	1.2
11780	310.15	1.2
25370	311.19	1.2
37390	311.53	1.2

System: carbon dioxide + tetradecanoic acid; phases: Liquid, Crystal, Gas
Property: Triple point temperature, K (Liquid); method: VISOBS
Pressure, kPa	Triple point temperature, K	uncertainty
620	326.63	1.27
2060	322.54	1.27
3350	321.25	1.31
4980	317.19	1.53
6520	313.29	1.64
7930	310.38	1.63
8360	309.85	1.22
10020	309.55	1.21
11260	309.26	1.2
14990	309.68	1.2
20600	309.13	1.2
24490	309.62	1.23
27370	310.21	1.22
30800	310.41	1.21
32920	310.54	1.28
36030	311.38	1.37
37930	311.84	1.36

System: hexadecanoic acid + carbon dioxide; phases: Liquid, Crystal, Gas
Property: Triple point temperature, K (Liquid); method: Large-sample thermal analysis
Pressure, kPa	Triple point temperature, K	uncertainty
4980	327.99	1.34
7960	323.37	1.43
9700	321.77	1.33
11420	320.59	1.33
20790	321.23	1.21
33880	322.47	1.22

System: octadecanoic acid + carbon dioxide; phases: Liquid, Crystal, Gas
Property: Triple point temperature, K (Liquid); method: Large-sample thermal analysis
Pressure, kPa	Triple point temperature, K	uncertainty
4690	336.61	1.31
8470	331.04	1.36
11970	329	1.22
17330	328.62	1.2
23120	329.15	1.21
32780	330.08	1.22

System: octadecanoic acid + carbon dioxide; phases: Liquid, Crystal, Gas
Property: Triple point temperature, K (Liquid); method: VISOBS
Pressure, kPa	Triple point temperature, K	uncertainty
490	341.72	1.22
990	341.05	1.22
1500	340.31	1.23
1980	339.66	1.23
2470	338.94	1.24
3000	338.18	1.25
3510	337.48	1.26
4000	336.78	1.27
4430	336.31	1.29
4960	335.49	1.29
5520	334.96	1.33
5870	334.2	1.41
6390	333.47	1.4
6960	332.55	1.36
7840	331.64	1.35
8450	330.93	1.33
9190	330.38	1.37
9730	329.65	1.33
10670	329.11	1.25
11730	328.73	1.27
12290	328.27	1.32
12650	328.18	1.23
12760	328.13	1.27
14060	328.4	1.21
15430	328.49	1.2
18560	328.56	1.2
25300	328.62	1.2
31030	329.09	1.21
34340	329.18	1.59
34830	328.97	1.2
35770	329.14	1.21
37480	328.85	1.28
