Measured thermophysical data. A Comparison among Viscosity, Density, Conductivity, and Electrochemical Windows of N-n-Butyl-N-methylpyrrolidinium and Triethyl-n-pentylphosphonium Bis(fluorosulfonyl imide) Ionic Liquids and Their Analogues Containing Bis(trifluoromethylsulfonyl) Imide Anion
Source: J. Chem. Eng. Data, 2017, 10.1021/acs.jced.7b00458
Compound 1: 1-butyl-1-methylpyrrolidinium bis(fluorosulfonyl)amide, C9H20F2N2O4S2, InChI=1S/C9H20N.F2NO4S2/c1-3-4-7-10(2)8-5-6-9-10;1-8(4,5)3-9(2,6)7/h3-9H2,1-2H3;/q+1;-1
Compound 2: 1-butyl-1-methylpyrrolidinium bis[(trifluoromethyl)sulfonyl]imide, C11H20F6N2O4S2, InChI=1S/C9H20N.C2F6NO4S2/c1-3-4-7-10(2)8-5-6-9-10;3-1(4,5)14(10,11)9-15(12,13)2(6,7)8/h3-9H2,1-2H3;/q+1;-1
Compound 3: triethyl(pentyl)phosphonium bis(fluorosulfonyl)amide, C11H26F2NO4PS2, InChI=1S/C11H26P.F2NO4S2/c1-5-9-10-11-12(6-2,7-3)8-4;1-8(4,5)3-9(2,6)7/h5-11H2,1-4H3;/q+1;-1
Compound 4: 1-butyl-1-methylpiperidinium bis(trifluoromethanesulfonyl)imide, C12H22F6N2O4S2, InChI=1S/C10H22N.C2F6NO4S2/c1-3-4-8-11(2)9-6-5-7-10-11;3-1(4,5)14(10,11)9-15(12,13)2(6,7)8/h3-10H2,1-2H3;/q+1;-1
Compound 5: triethyl(pentyl)phosphonium bis((trifluoromethyl)sulfonyl)amide, C13H26F6NO4PS2, InChI=1S/C11H26P.C2F6NO4S2/c1-5-9-10-11-12(6-2,7-3)8-4;3-1(4,5)14(10,11)9-15(12,13)2(6,7)8/h5-11H2,1-4H3;/q+1;-1
Compound 6: triethyl(2-methoxyethyl)phosphonium bis((trifluoromethyl)sulfonyl)amide, C11H22F6NO5PS2, InChI=1S/C9H22OP.C2F6NO4S2/c1-5-11(6-2,7-3)9-8-10-4;3-1(4,5)14(10,11)9-15(12,13)2(6,7)8/h5-9H2,1-4H3;/q+1;-1

System: 1-butyl-1-methylpyrrolidinium bis(fluorosulfonyl)amide; phases: Liquid
Fixed: Pressure, kPa = 100
Property: Mass density, kg/m3 (Liquid); method: Vibrating tube method
Temperature, K	Mass density, kg/m3	uncertainty
298.15	1307	1
300.15	1306	1
306.15	1301	1
312.15	1296	1
318.15	1292	1
324.15	1287	1
330.15	1283	1
336.15	1278	1
341.15	1274	1
348.15	1269	1
355.15	1264	1
361.15	1259	1
373.15	1251	1

System: 1-butyl-1-methylpyrrolidinium bis(fluorosulfonyl)amide; phases: Liquid
Fixed: Pressure, kPa = 100
Property: Viscosity, Pa*s (Liquid); method: Concentric cylinders viscometry
Temperature, K	Viscosity, Pa*s	uncertainty
298.15	0.05324	0.00035
300.15	0.04974	0.00035
306.15	0.04074	0.00029
312.15	0.03383	0.00024
318.15	0.02842	0.0002
324.15	0.02415	0.00017
330.15	0.02073	0.00015
336.15	0.01794	0.00013
341.15	0.01601	0.00011
348.15	0.01377	0.0001
355.15	0.01195	9e-05
361.15	0.01065	8e-05
373.15	0.00861	6.2e-05

System: 1-butyl-1-methylpyrrolidinium bis(fluorosulfonyl)amide; phases: Liquid
Fixed: Pressure, kPa = 100
Property: Electrical conductivity, S/m (Liquid); method: Alternating current cell with electrodes
Temperature, K	Electrical conductivity, S/m	uncertainty
298.15	0.866	0.087
300.15	0.917	0.092
306.15	1.09	0.11
312.15	1.27	0.13
318.15	1.47	0.15
324.15	1.68	0.17
330.15	1.91	0.19
336.15	2.16	0.22
348.15	2.69	0.27
361.15	3.31	0.33

System: 1-butyl-1-methylpyrrolidinium bis[(trifluoromethyl)sulfonyl]imide; phases: Liquid
Fixed: Pressure, kPa = 100
Property: Mass density, kg/m3 (Liquid); method: Vibrating tube method
Temperature, K	Mass density, kg/m3	uncertainty
298.15	1395	1
300.15	1393	1
306.15	1388	1
312.15	1382	1
318.15	1377	1
324.15	1372	1
330.15	1367	1
336.15	1361	1
341.15	1357	1
348.15	1351	1
355.15	1345	1
361.15	1340	1
373.15	1330	1

System: 1-butyl-1-methylpyrrolidinium bis[(trifluoromethyl)sulfonyl]imide; phases: Liquid
Fixed: Pressure, kPa = 100
Property: Viscosity, Pa*s (Liquid); method: Concentric cylinders viscometry
Temperature, K	Viscosity, Pa*s	uncertainty
298.15	0.07776	0.00066
300.15	0.07111	0.00056
306.15	0.05497	0.00036
312.15	0.04341	0.00031
318.15	0.03492	0.00025
324.15	0.02856	0.0002
330.15	0.02369	0.00017
336.15	0.01991	0.00014
341.15	0.01737	0.00012
348.15	0.01453	0.0001
355.15	0.01231	9e-05
361.15	0.01078	8e-05
373.15	0.008272	6e-05

System: 1-butyl-1-methylpyrrolidinium bis[(trifluoromethyl)sulfonyl]imide; phases: Liquid
Fixed: Pressure, kPa = 100
Property: Electrical conductivity, S/m (Liquid); method: Alternating current cell with electrodes
Temperature, K	Electrical conductivity, S/m	uncertainty
298.15	0.393	0.039
300.15	0.423	0.042
306.15	0.52	0.052
312.15	0.638	0.064
318.15	0.772	0.077
324.15	0.924	0.092
330.15	1.08	0.11
336.15	1.26	0.13
348.15	1.64	0.16
361.15	2.11	0.21

System: triethyl(pentyl)phosphonium bis(fluorosulfonyl)amide; phases: Liquid
Fixed: Pressure, kPa = 100
Property: Mass density, kg/m3 (Liquid); method: Vibrating tube method
Temperature, K	Mass density, kg/m3	uncertainty
298.15	1219	1
300.15	1217	1
306.15	1213	1
312.15	1208	1
318.15	1204	1
324.15	1199	1
330.15	1195	1
336.15	1191	1
341.15	1187	1
348.15	1182	1
355.15	1177	1
361.15	1173	1
373.15	1165	1

System: triethyl(pentyl)phosphonium bis(fluorosulfonyl)amide; phases: Liquid
Fixed: Pressure, kPa = 100
Property: Viscosity, Pa*s (Liquid); method: Concentric cylinders viscometry
Temperature, K	Viscosity, Pa*s	uncertainty
298.15	0.06938	0.00053
300.15	0.06402	0.00046
306.15	0.05072	0.00033
312.15	0.04086	0.00029
318.15	0.0334	0.00024
324.15	0.02765	0.0002
330.15	0.02317	0.00016
336.15	0.01966	0.00014
341.15	0.01725	0.00012
348.15	0.01452	0.0001
355.15	0.01237	9e-05
361.15	0.01086	8e-05
373.15	0.008543	6.1e-05

System: triethyl(pentyl)phosphonium bis(fluorosulfonyl)amide; phases: Liquid
Fixed: Pressure, kPa = 100
Property: Electrical conductivity, S/m (Liquid); method: Alternating current cell with electrodes
Temperature, K	Electrical conductivity, S/m	uncertainty
298.15	0.463	0.056
300.15	0.495	0.059
306.15	0.602	0.072
312.15	0.723	0.087
318.15	0.861	0.103
324.15	1.02	0.12
330.15	1.19	0.14
336.15	1.37	0.16
348.15	1.76	0.21
361.15	2.23	0.27

System: 1-butyl-1-methylpiperidinium bis(trifluoromethanesulfonyl)imide; phases: Liquid
Fixed: Pressure, kPa = 100
Property: Mass density, kg/m3 (Liquid); method: Vibrating tube method
Temperature, K	Mass density, kg/m3	uncertainty
298.15	1382	1
300.15	1380	1
306.15	1375	1
312.15	1370	1
318.15	1365	1
324.15	1360	1
330.15	1355	1
336.15	1349	1
341.15	1345	1
348.15	1339	1
355.15	1333	1
361.15	1329	1
373.15	1319	1

System: 1-butyl-1-methylpiperidinium bis(trifluoromethanesulfonyl)imide; phases: Liquid
Fixed: Pressure, kPa = 100
Property: Viscosity, Pa*s (Liquid); method: Concentric cylinders viscometry
Temperature, K	Viscosity, Pa*s	uncertainty
298.15	0.1889	0.0035
300.15	0.168	0.0029
306.15	0.1202	0.0016
312.15	0.08867	0.00085
318.15	0.06713	0.0005
324.15	0.05201	0.00034
330.15	0.04112	0.00029
336.15	0.03312	0.00023
341.15	0.02798	0.0002
348.15	0.02251	0.00016
355.15	0.01836	0.00013
361.15	0.01562	0.00011
373.15	0.01162	8e-05

System: 1-butyl-1-methylpiperidinium bis(trifluoromethanesulfonyl)imide; phases: Liquid
Fixed: Pressure, kPa = 100
Property: Electrical conductivity, S/m (Liquid); method: Alternating current cell with electrodes
Temperature, K	Electrical conductivity, S/m	uncertainty
298.15	0.139	0.017
300.15	0.153	0.018
306.15	0.202	0.024
312.15	0.264	0.032
318.15	0.337	0.04
324.15	0.424	0.051
330.15	0.519	0.062
336.15	0.626	0.075
348.15	0.876	0.105
361.15	1.19	0.14

System: triethyl(pentyl)phosphonium bis((trifluoromethyl)sulfonyl)amide; phases: Liquid
Fixed: Pressure, kPa = 100
Property: Mass density, kg/m3 (Liquid); method: Vibrating tube method
Temperature, K	Mass density, kg/m3	uncertainty
298.15	1304	1
300.15	1302	1
306.15	1297	1
312.15	1292	1
318.15	1287	1
324.15	1282	1
330.15	1277	1
336.15	1272	1
341.15	1268	1
348.15	1262	1
355.15	1256	1
361.15	1251	1
373.15	1241	1

System: triethyl(pentyl)phosphonium bis((trifluoromethyl)sulfonyl)amide; phases: Liquid
Fixed: Pressure, kPa = 100
Property: Viscosity, Pa*s (Liquid); method: Concentric cylinders viscometry
Temperature, K	Viscosity, Pa*s	uncertainty
298.15	0.0853	0.00079
300.15	0.07743	0.00065
306.15	0.05868	0.0004
312.15	0.04542	0.00032
318.15	0.03582	0.00025
324.15	0.02879	0.0002
330.15	0.0235	0.00017
336.15	0.01946	0.00014
341.15	0.01679	0.00012
348.15	0.01386	0.0001
355.15	0.01158	8e-05
361.15	0.01002	7e-05
373.15	0.007531	5.4e-05

System: triethyl(pentyl)phosphonium bis((trifluoromethyl)sulfonyl)amide; phases: Liquid
Fixed: Pressure, kPa = 100
Property: Electrical conductivity, S/m (Liquid); method: Alternating current cell with electrodes
Temperature, K	Electrical conductivity, S/m	uncertainty
298.15	0.21	0.025
300.15	0.223	0.027
306.15	0.286	0.034
312.15	0.358	0.043
318.15	0.435	0.052
324.15	0.521	0.063
330.15	0.612	0.073
336.15	0.711	0.085
348.15	0.917	0.11
361.15	1.17	0.14

System: triethyl(2-methoxyethyl)phosphonium bis((trifluoromethyl)sulfonyl)amide; phases: Liquid
Fixed: Pressure, kPa = 100
Property: Mass density, kg/m3 (Liquid); method: Vibrating tube method
Temperature, K	Mass density, kg/m3	uncertainty
298.15	1378	1
300.15	1376	1
306.15	1370	1
312.15	1365	1
318.15	1360	1
324.15	1354	1
330.15	1349	1
336.15	1344	1
341.15	1339	1
348.15	1333	1
355.15	1327	1
361.15	1322	1
373.15	1311	1

System: triethyl(2-methoxyethyl)phosphonium bis((trifluoromethyl)sulfonyl)amide; phases: Liquid
Fixed: Pressure, kPa = 100
Property: Viscosity, Pa*s (Liquid); method: Concentric cylinders viscometry
Temperature, K	Viscosity, Pa*s	uncertainty
298.15	0.04814	0.00034
300.15	0.04428	0.00031
306.15	0.03495	0.00025
312.15	0.0281	0.0002
318.15	0.02297	0.00016
324.15	0.01904	0.00014
330.15	0.01601	0.00011
336.15	0.01362	0.0001
341.15	0.01198	9e-05
348.15	0.01015	7e-05
355.15	0.008692	6.2e-05
361.15	0.007672	5.5e-05
373.15	0.00599	4.4e-05

System: triethyl(2-methoxyethyl)phosphonium bis((trifluoromethyl)sulfonyl)amide; phases: Liquid
Fixed: Pressure, kPa = 100
Property: Electrical conductivity, S/m (Liquid); method: Alternating current cell with electrodes
Temperature, K	Electrical conductivity, S/m	uncertainty
298.15	0.384	0.046
300.15	0.411	0.049
306.15	0.498	0.06
312.15	0.608	0.073
318.15	0.719	0.086
324.15	0.848	0.102
330.15	0.987	0.118
336.15	1.13	0.14
348.15	1.45	0.17
361.15	1.84	0.22
