Measured thermophysical data. Activity and Osmotic Coefficients of Binary Mixtures of NTf2  Ionic Liquids with a Primary Alcohol
Source: J. Chem. Eng. Data, 2016, 10.1021/acs.jced.6b00556
Compound 1: 1-ethyl-3-methylimidazolium bis((trifluoromethyl)sulfonyl)imide, C8H11F6N3O4S2, InChI=1S/C6H11N2.C2F6NO4S2/c1-3-8-5-4-7(2)6-8;3-1(4,5)14(10,11)9-15(12,13)2(6,7)8/h4-6H,3H2,1-2H3;/q+1;-1, purity 99%
Compound 2: 1-butyl-3-methylimidazolium bis(trifluoromethylsulfonyl)imide, C10H15F6N3O4S2, InChI=1S/C8H15N2.C2F6NO4S2/c1-3-4-5-10-7-6-9(2)8-10;3-1(4,5)14(10,11)9-15(12,13)2(6,7)8/h6-8H,3-5H2,1-2H3;/q+1;-1, purity 99%
Compound 3: 1-hexyl-3-methylimidazolium bis[(trifluoromethyl)sulfonyl]imide, C12H19F6N3O4S2, InChI=1S/C10H19N2.C2F6NO4S2/c1-3-4-5-6-7-12-9-8-11(2)10-12;3-1(4,5)14(10,11)9-15(12,13)2(6,7)8/h8-10H,3-7H2,1-2H3;/q+1;-1, purity 99%
Compound 4: 1-ethyl-3-methylpyridinium bis((trifluoromethyl)sulfonyl)amide, C10H12F6N2O4S2, InChI=1S/C8H12N.C2F6NO4S2/c1-3-9-6-4-5-8(2)7-9;3-1(4,5)14(10,11)9-15(12,13)2(6,7)8/h4-7H,3H2,1-2H3;/q+1;-1, purity 99%
Compound 5: 1-butyl-3-methylpyridinium 1,1,1-trifluoro-N-[(trifluoromethyl)sulfonyl]methanesulfonamide, C12H16F6N2O4S2, InChI=1S/C10H16N.C2F6NO4S2/c1-3-4-7-11-8-5-6-10(2)9-11;3-1(4,5)14(10,11)9-15(12,13)2(6,7)8/h5-6,8-9H,3-4,7H2,1-2H3;/q+1;-1, purity 99%
Compound 6: propan-1-ol, C3H8O, InChI=1S/C3H8O/c1-2-3-4/h4H,2-3H2,1H3, purity 99.9%

System: propan-1-ol + 1-ethyl-3-methylimidazolium bis((trifluoromethyl)sulfonyl)imide + 1-hexyl-3-methylimidazolium bis[(trifluoromethyl)sulfonyl]imide; phases: Liquid
Fixed: Pressure, kPa = 100
Fixed: Temperature, K = 323.15
Property: (Relative) activity of propan-1-ol (Liquid); method: Vapor Pressure Osmometer
Molality, mol/kg of 1-ethyl-3-methylimidazolium bis((trifluoromethyl)sulfonyl)imide	Molality, mol/kg of 1-hexyl-3-methylimidazolium bis[(trifluoromethyl)sulfonyl]imide	(Relative) activity of propan-1-ol	uncertainty
0.0394	0.0394	0.993	0.039
0.0671	0.0671	0.99	0.039
0.1287	0.1287	0.982	0.039
0.208	0.208	0.976	0.039
0.2794	0.2794	0.971	0.039
0.5003	0.5003	0.962	0.039
0.7403	0.7403	0.952	0.039
1.0087	1.0087	0.941	0.039
1.2374	1.2374	0.934	0.039
1.4902	1.4902	0.928	0.039
1.775	1.775	0.921	0.039

System: propan-1-ol + 1-ethyl-3-methylimidazolium bis((trifluoromethyl)sulfonyl)imide + 1-butyl-3-methylimidazolium bis(trifluoromethylsulfonyl)imide; phases: Liquid
Fixed: Pressure, kPa = 100
Fixed: Temperature, K = 323.15
Property: (Relative) activity of propan-1-ol (Liquid); method: Vapor Pressure Osmometer
Molality, mol/kg of 1-ethyl-3-methylimidazolium bis((trifluoromethyl)sulfonyl)imide	Molality, mol/kg of 1-butyl-3-methylimidazolium bis(trifluoromethylsulfonyl)imide	(Relative) activity of propan-1-ol	uncertainty
0.0166	0.0166	0.997	0.039
0.0396	0.0396	0.993	0.039
0.0687	0.0687	0.989	0.039
0.1282	0.1282	0.983	0.039
0.2065	0.2065	0.977	0.039
0.2837	0.2837	0.973	0.039
0.5073	0.5073	0.963	0.039
0.7611	0.7611	0.954	0.039
0.9725	0.9725	0.951	0.039
1.2603	1.2603	0.944	0.039
1.4959	1.4959	0.939	0.039
1.8133	1.8133	0.931	0.039

System: propan-1-ol + 1-butyl-3-methylpyridinium 1,1,1-trifluoro-N-[(trifluoromethyl)sulfonyl]methanesulfonamide + 1-ethyl-3-methylpyridinium bis((trifluoromethyl)sulfonyl)amide; phases: Liquid
Fixed: Pressure, kPa = 100
Fixed: Temperature, K = 323.15
Property: (Relative) activity of propan-1-ol (Liquid); method: Vapor Pressure Osmometer
Molality, mol/kg of 1-butyl-3-methylpyridinium 1,1,1-trifluoro-N-[(trifluoromethyl)sulfonyl]methanesulfonamide	Molality, mol/kg of 1-ethyl-3-methylpyridinium bis((trifluoromethyl)sulfonyl)amide	(Relative) activity of propan-1-ol	uncertainty
0.0267	0.0267	0.995	0.039
0.0615	0.0615	0.99	0.039
0.1285	0.1285	0.983	0.039
0.1994	0.1994	0.98	0.039
0.2809	0.2809	0.976	0.039
0.5068	0.5068	0.966	0.039
0.7589	0.7589	0.958	0.039
1.011	1.011	0.952	0.039
1.2608	1.2608	0.948	0.039
1.5069	1.5069	0.942	0.039

System: propan-1-ol + 1-hexyl-3-methylimidazolium bis[(trifluoromethyl)sulfonyl]imide + 1-ethyl-3-methylpyridinium bis((trifluoromethyl)sulfonyl)amide; phases: Liquid
Fixed: Pressure, kPa = 100
Fixed: Temperature, K = 323.15
Property: (Relative) activity of propan-1-ol (Liquid); method: Vapor Pressure Osmometer
Molality, mol/kg of 1-hexyl-3-methylimidazolium bis[(trifluoromethyl)sulfonyl]imide	Molality, mol/kg of 1-ethyl-3-methylpyridinium bis((trifluoromethyl)sulfonyl)amide	(Relative) activity of propan-1-ol	uncertainty
0.0253	0.0253	0.995	0.039
0.0654	0.0654	0.99	0.039
0.1313	0.1313	0.983	0.039
0.2794	0.2794	0.973	0.039
0.5141	0.5141	0.961	0.039
0.7381	0.7381	0.957	0.039
1.0193	1.0193	0.948	0.039
1.2748	1.2748	0.938	0.039
1.492	1.492	0.934	0.039
1.7567	1.7567	0.924	0.039
