Measured thermophysical data. Effect of Salt Type and Alkyl Chain Length on the Binodal Curve of an Aqueous Two-Phase System Composed of Imidazolium Ionic Liquids
Source: J. Chem. Eng. Data, 2018, 10.1021/acs.jced.8b00188
Compound 1: 1-ethyl-3-methylimidazolium tetrafluoroborate, C6H11BF4N2, InChI=1S/C6H11N2.BF4/c1-3-8-5-4-7(2)6-8;2-1(3,4)5/h4-6H,3H2,1-2H3;/q+1;-1, purity 99%
Compound 2: 1-propyl-3-methylimidazolium tetrafluoroborate, C7H13BF4N2, InChI=1S/C7H13N2.BF4/c1-3-4-9-6-5-8(2)7-9;2-1(3,4)5/h5-7H,3-4H2,1-2H3;/q+1;-1, purity 99%
Compound 3: 1-butyl-3-methylimidazolium tetrafluoroborate, C8H15BF4N2, InChI=1S/C8H15N2.BF4/c1-3-4-5-10-7-6-9(2)8-10;2-1(3,4)5/h6-8H,3-5H2,1-2H3;/q+1;-1, purity 99%
Compound 4: 1-ethyl-3-methylimidazolium chloride, C6H11ClN2, InChI=1S/C6H11N2.ClH/c1-3-8-5-4-7(2)6-8;/h4-6H,3H2,1-2H3;1H/q+1;/p-1, purity 99%
Compound 5: 1-butyl-3-methylimidazolium chloride, C8H15ClN2, InChI=1S/C8H15N2.ClH/c1-3-4-5-10-7-6-9(2)8-10;/h6-8H,3-5H2,1-2H3;1H/q+1;/p-1, purity 99%
Compound 6: dipotassium hydrogen phosphate, HK2O4P, InChI=1S/2K.H3O4P/c;;1-5(2,3)4/h;;(H3,1,2,3,4)/q2*+1;/p-2, purity 99%
Compound 7: sodium dihydrogen phosphate, H2NaO4P, InChI=1S/Na.H3O4P/c;1-5(2,3)4/h;(H3,1,2,3,4)/q+1;/p-1, purity 99%
Compound 8: ammonium sulfate, H8N2O4S, InChI=1S/2H3N.H2O4S/c;;1-5(2,3)4/h2*1H3;(H2,1,2,3,4), purity 99%
Compound 9: sodium chloride, ClNa, InChI=1S/ClH.Na/h1H;/q;+1/p-1, purity 99.5%
Compound 10: trisodium citrate, C6H5Na3O7, InChI=1S/C6H8O7.3Na/c7-3(8)1-6(13,5(11)12)2-4(9)10;;;/h13H,1-2H2,(H,7,8)(H,9,10)(H,11,12);;;/q;3*+1/p-3, purity 99%
Compound 11: disodium L-tartrate, C4H4Na2O6, InChI=1S/C4H6O6.2Na/c5-1(3(7)8)2(6)4(9)10;;/h1-2,5-6H,(H,7,8)(H,9,10);;/q;2*+1/p-2/t1-,2-;;/m1../s1, purity 99%
Compound 12: sodium ethanoate, C2H3NaO2, InChI=1S/C2H4O2.Na/c1-2(3)4;/h1H3,(H,3,4);/q;+1/p-1, purity 99%
Compound 13: water, H2O, InChI=1S/H2O/h1H2, purity 99.9%
Compound 14: 1-hexyl-3-methylimidazolium chloride, C10H19ClN2, InChI=1S/C10H19N2.ClH/c1-3-4-5-6-7-12-9-8-11(2)10-12;/h8-10H,3-7H2,1-2H3;1H/q+1;/p-1, purity 99%
Compound 15: 1-methyl-3-octylimidazolium chloride, C12H23ClN2, InChI=1S/C12H23N2.ClH/c1-3-4-5-6-7-8-9-14-11-10-13(2)12-14;/h10-12H,3-9H2,1-2H3;1H/q+1;/p-1, purity 99%
Compound 16: 1-decyl-3-methylimidazolium chloride, C14H27ClN2, InChI=1S/C14H27N2.ClH/c1-3-4-5-6-7-8-9-10-11-16-13-12-15(2)14-16;/h12-14H,3-11H2,1-2H3;1H/q+1;/p-1, purity 99%

System: trisodium citrate + 1-ethyl-3-methylimidazolium tetrafluoroborate + water; phases: Liquid mixture 1, Liquid mixture 2
Fixed: Pressure, kPa = 100
Fixed: Temperature, K = 298.15
Property: Mass fraction of 1-ethyl-3-methylimidazolium tetrafluoroborate (Liquid mixture 1); method: Titration method
Mass fraction of trisodium citrate	Mass fraction of 1-ethyl-3-methylimidazolium tetrafluoroborate	uncertainty
0.0089	0.7149	0.0741
0.0124	0.6799	0.0739
0.0204	0.6206	0.0668
0.024	0.5956	0.0629
0.0377	0.5248	0.0475
0.0531	0.4659	0.0376
0.0539	0.4612	0.0376
0.0617	0.4372	0.0381
0.0692	0.4185	0.0346
0.0735	0.402	0.034
0.0772	0.3886	0.0332
0.0783	0.3852	0.0332
0.0833	0.3701	0.0344
0.0857	0.3646	0.0349
0.0954	0.337	0.0345
0.1127	0.2778	0.0346
0.1264	0.2377	0.0236
0.1435	0.2146	0.019
0.1623	0.1842	0.0195
0.1686	0.1726	0.0194
0.1863	0.1541	0.0154
0.1841	0.1502	0.0153
0.2038	0.1342	0.0147
0.2213	0.1189	0.0134
0.2441	0.1008	0.0121
0.2794	0.0829	0.0115

System: trisodium citrate + 1-propyl-3-methylimidazolium tetrafluoroborate + water; phases: Liquid mixture 1, Liquid mixture 2
Fixed: Pressure, kPa = 100
Fixed: Temperature, K = 298.15
Property: Mass fraction of 1-propyl-3-methylimidazolium tetrafluoroborate (Liquid mixture 1); method: Titration method
Mass fraction of trisodium citrate	Mass fraction of 1-propyl-3-methylimidazolium tetrafluoroborate	uncertainty
0.0166	0.6155	0.0788
0.0185	0.5987	0.073
0.0206	0.5832	0.0726
0.0227	0.5661	0.0791
0.0248	0.5502	0.0695
0.0268	0.5366	0.0743
0.0282	0.5271	0.0716
0.0309	0.5101	0.0757
0.0334	0.4832	0.0703
0.0522	0.382	0.045
0.0583	0.357	0.041
0.0649	0.3307	0.0375
0.0735	0.2998	0.0375
0.0822	0.2766	0.0331
0.0849	0.2639	0.0311
0.0872	0.2614	0.0303
0.0913	0.2491	0.0303
0.0953	0.2379	0.0268
0.1236	0.1812	0.0192
0.1266	0.1789	0.0189
0.1293	0.1739	0.0208
0.1326	0.169	0.018
0.1352	0.1648	0.0173
0.1381	0.1612	0.0178
0.1424	0.1563	0.0178
0.1453	0.1523	0.0165
0.1408	0.1518	0.0178
0.1524	0.1414	0.0153
0.155	0.1403	0.0154
0.1557	0.1394	0.0151
0.1577	0.1374	0.0151
0.1607	0.1346	0.0133
0.168	0.128	0.013
0.1685	0.1265	0.0126
0.1804	0.1218	0.0116
0.1995	0.1122	0.0112
0.037	0.4678	0.0628
0.0398	0.4539	0.0626
0.0409	0.4334	0.0619
0.0425	0.4224	0.0572
0.046	0.4066	0.053
0.1017	0.2219	0.0258
0.1057	0.214	0.023
0.1094	0.206	0.023
0.1128	0.1997	0.0219
0.1173	0.193	0.02
0.1465	0.1507	0.0163
0.1482	0.1488	0.016
0.1507	0.1459	0.016
0.1531	0.1431	0.0154
0.154	0.1418	0.0154
0.2225	0.1052	0.0109
0.2341	0.1017	0.0108
0.2449	0.099	0.01
0.2542	0.0982	0.0105
0.2644	0.0973	0.0104

System: trisodium citrate + 1-butyl-3-methylimidazolium tetrafluoroborate + water; phases: Liquid mixture 1, Liquid mixture 2
Fixed: Pressure, kPa = 100
Fixed: Temperature, K = 298.15
Property: Mass fraction of 1-butyl-3-methylimidazolium tetrafluoroborate (Liquid mixture 1); method: Titration method
Mass fraction of trisodium citrate	Mass fraction of 1-butyl-3-methylimidazolium tetrafluoroborate	uncertainty
0.0027	0.759	0.068
0.003	0.7525	0.0751
0.0035	0.7423	0.0832
0.004	0.732	0.095
0.0042	0.718	0.096
0.0043	0.704	0.094
0.0047	0.686	0.089
0.005	0.659	0.086
0.007	0.609	0.105
0.0081	0.5837	0.115
0.0099	0.5578	0.1099
0.0109	0.5389	0.1071
0.0117	0.5255	0.1046
0.0125	0.5167	0.1044
0.013	0.5054	0.1476
0.0144	0.486	0.139
0.0162	0.4698	0.1279
0.0168	0.4587	0.1283
0.0191	0.429	0.113
0.0307	0.3293	0.0744
0.0321	0.3196	0.0748
0.0335	0.3071	0.0684
0.0346	0.2975	0.0688
0.0369	0.283	0.07
0.0385	0.2701	0.0703
0.043	0.254	0.051
0.0486	0.2307	0.0377
0.0514	0.2191	0.036
0.0528	0.2104	0.0363
0.056	0.201	0.034
0.059	0.1967	0.0294
0.0632	0.1863	0.026
0.0678	0.1757	0.0237
0.0749	0.1587	0.0231
0.077	0.1567	0.0206
0.0799	0.1511	0.0198
0.086	0.14	0.017
0.0922	0.1354	0.0162
0.097	0.13	0.02
0.097	0.129	0.015
0.1024	0.1238	0.0149
0.108	0.117	0.015
0.1152	0.1113	0.0136
0.118	0.108	0.013
0.126	0.1035	0.0128
0.1321	0.0986	0.0125
0.1376	0.0947	0.0125
0.1442	0.0896	0.0121
0.1512	0.0859	0.0117
0.1581	0.0821	0.0114
0.1651	0.0791	0.0115
0.1722	0.0756	0.0115
0.1786	0.0715	0.0114
0.1872	0.0665	0.0115
0.2026	0.0596	0.0108
0.2115	0.0576	0.0108
0.2229	0.0534	0.0107
0.2328	0.0505	0.0107
0.2435	0.0467	0.0106
0.2511	0.0455	0.0106
0.2614	0.0411	0.0106
0.2717	0.0387	0.0104
0.282	0.036	0.01

System: disodium L-tartrate + 1-ethyl-3-methylimidazolium tetrafluoroborate + water; phases: Liquid mixture 1, Liquid mixture 2
Fixed: Pressure, kPa = 100
Fixed: Temperature, K = 298.15
Property: Mass fraction of 1-ethyl-3-methylimidazolium tetrafluoroborate (Liquid mixture 1); method: Titration method
Mass fraction of disodium L-tartrate	Mass fraction of 1-ethyl-3-methylimidazolium tetrafluoroborate	uncertainty
0.0073	0.7524	0.0705
0.0085	0.7305	0.0743
0.0103	0.7086	0.073
0.0117	0.6994	0.0736
0.0154	0.6722	0.0733
0.017	0.6579	0.0637
0.0201	0.6306	0.0755
0.0258	0.5973	0.061
0.027	0.5957	0.0591
0.0296	0.5812	0.0505
0.0318	0.5701	0.0479
0.0305	0.5681	0.0473
0.0339	0.559	0.048
0.0382	0.5367	0.047
0.0572	0.4612	0.0407
0.0649	0.4349	0.0407
0.0766	0.3935	0.0406
0.083	0.3556	0.0377
0.0898	0.341	0.032
0.0985	0.3185	0.0258
0.1104	0.2954	0.0223
0.1215	0.277	0.0236
0.13	0.2566	0.0229
0.1383	0.2403	0.0234
0.1473	0.2241	0.0219
0.1523	0.2155	0.0218
0.1581	0.205	0.0212
0.1638	0.1934	0.0203
0.1689	0.1856	0.0191
0.1738	0.1796	0.0189
0.1794	0.1723	0.0185
0.1868	0.1586	0.0186
0.1929	0.1504	0.0177
0.1988	0.1422	0.0174
0.205	0.1368	0.0155

System: disodium L-tartrate + 1-propyl-3-methylimidazolium tetrafluoroborate + water; phases: Liquid mixture 1, Liquid mixture 2
Fixed: Pressure, kPa = 100
Fixed: Temperature, K = 298.15
Property: Mass fraction of 1-propyl-3-methylimidazolium tetrafluoroborate (Liquid mixture 1); method: Titration method
Mass fraction of disodium L-tartrate	Mass fraction of 1-propyl-3-methylimidazolium tetrafluoroborate	uncertainty
0.0149	0.6398	0.0838
0.0177	0.6129	0.0756
0.0202	0.5912	0.0718
0.0222	0.5753	0.0697
0.0243	0.5589	0.0632
0.0268	0.5415	0.0719
0.0299	0.5225	0.0671
0.1495	0.1291	0.0156
0.1453	0.1335	0.0156
0.1352	0.1466	0.0176
0.1273	0.1579	0.018
0.1234	0.1638	0.0191
0.1156	0.176	0.021
0.1108	0.1847	0.0225
0.0941	0.2228	0.042
0.0993	0.2109	0.0262
0.1039	0.1986	0.0255
0.1108	0.1847	0.0225
0.1156	0.176	0.021
0.1234	0.1638	0.0191
0.1273	0.1579	0.018
0.1664	0.1128	0.0137
0.1693	0.1103	0.0138
0.1726	0.1071	0.0135
0.1767	0.1039	0.0121
0.1823	0.0987	0.0121
0.1911	0.0972	0.0117
0.1862	0.0954	0.0118
0.0316	0.5112	0.0649
0.0332	0.5006	0.0701
0.0364	0.4849	0.0535
0.039	0.471	0.053
0.0427	0.4504	0.0517
0.1039	0.1986	0.0255
0.0993	0.2109	0.0262
0.0941	0.2228	0.042
0.0861	0.2427	0.0453
0.0843	0.2504	0.0452
0.1352	0.1466	0.0176
0.1453	0.1335	0.0156
0.1495	0.1291	0.0156
0.1546	0.1235	0.0152
0.1618	0.1163	0.0142
0.1957	0.0938	0.0114
0.2009	0.0908	0.0112
0.2227	0.0794	0.0115

System: disodium L-tartrate + 1-butyl-3-methylimidazolium tetrafluoroborate + water; phases: Liquid mixture 1, Liquid mixture 2
Fixed: Pressure, kPa = 100
Fixed: Temperature, K = 298.15
Property: Mass fraction of 1-butyl-3-methylimidazolium tetrafluoroborate (Liquid mixture 1); method: Titration method
Mass fraction of disodium L-tartrate	Mass fraction of 1-butyl-3-methylimidazolium tetrafluoroborate	uncertainty
0.005	0.7839	0.1204
0.0058	0.734	0.118
0.0066	0.7106	0.1228
0.0071	0.6948	0.1276
0.0075	0.6788	0.1281
0.008	0.6643	0.1223
0.0096	0.638	0.155
0.0101	0.6199	0.1515
0.0108	0.6072	0.1281
0.0122	0.5878	0.1267
0.0134	0.5734	0.1186
0.0139	0.5592	0.1113
0.0144	0.5517	0.1095
0.0152	0.5395	0.1739
0.0162	0.5242	0.1546
0.0175	0.5089	0.1364
0.0191	0.4957	0.1275
0.0205	0.4843	0.1196
0.0202	0.4676	0.1193
0.0229	0.4532	0.1089
0.0252	0.4347	0.1014
0.0262	0.4211	0.0982
0.0275	0.4082	0.0975
0.0294	0.3947	0.0938
0.0307	0.376	0.095
0.0313	0.3682	0.0814
0.0335	0.3586	0.0772
0.0343	0.3438	0.0774
0.0359	0.332	0.077
0.0373	0.3194	0.0728
0.0378	0.3134	0.0709
0.0409	0.2936	0.0598
0.0459	0.278	0.055
0.0479	0.2663	0.0444
0.0491	0.2488	0.0424
0.0537	0.2402	0.0342
0.0586	0.2248	0.0324
0.0563	0.223	0.034
0.063	0.2099	0.0265
0.0709	0.1965	0.0263
0.0906	0.149	0.023
0.0967	0.1418	0.022
0.101	0.1354	0.0159
0.107	0.129	0.016
0.1139	0.1216	0.0143
0.1177	0.1177	0.0141
0.1283	0.1092	0.013
0.133	0.1045	0.0131
0.1436	0.0975	0.0121
0.1511	0.0932	0.0121
0.1598	0.0877	0.012
0.1703	0.0808	0.0118
0.1773	0.0758	0.0115
0.1865	0.0722	0.0112
0.194	0.0696	0.0108
0.2028	0.0657	0.0107
0.2156	0.0625	0.0105
0.2319	0.058	0.011

System: sodium ethanoate + 1-ethyl-3-methylimidazolium tetrafluoroborate + water; phases: Liquid mixture 1, Liquid mixture 2
Fixed: Pressure, kPa = 100
Fixed: Temperature, K = 298.15
Property: Mass fraction of 1-ethyl-3-methylimidazolium tetrafluoroborate (Liquid mixture 1); method: Titration method
Mass fraction of sodium ethanoate	Mass fraction of 1-ethyl-3-methylimidazolium tetrafluoroborate	uncertainty
0.0507	0.6653	0.0419
0.0599	0.6308	0.055
0.0632	0.6159	0.0416
0.0662	0.5971	0.0416
0.072	0.5666	0.042
0.0877	0.5211	0.0336
0.1007	0.483	0.031
0.1068	0.4687	0.0314
0.1116	0.4586	0.0302
0.1163	0.4534	0.0303
0.1165	0.4455	0.0302
0.1214	0.4314	0.0304
0.1254	0.4206	0.0306
0.1323	0.4024	0.0286
0.1371	0.3916	0.0283
0.1459	0.3717	0.0281
0.1495	0.3625	0.028
0.153	0.3549	0.0279
0.1586	0.3391	0.0263
0.165	0.3245	0.0267
0.1686	0.3213	0.0244
0.1711	0.3111	0.0242
0.1766	0.3044	0.0225
0.1764	0.3012	0.0222
0.1825	0.2909	0.0216
0.184	0.2893	0.0216
0.2002	0.2607	0.0191
0.2159	0.2429	0.017
0.2428	0.2103	0.0147
0.2477	0.2035	0.0147
0.2964	0.1688	0.0132

System: sodium ethanoate + 1-propyl-3-methylimidazolium tetrafluoroborate + water; phases: Liquid mixture 1, Liquid mixture 2
Fixed: Pressure, kPa = 100
Fixed: Temperature, K = 298.15
Property: Mass fraction of 1-propyl-3-methylimidazolium tetrafluoroborate (Liquid mixture 1); method: Titration method
Mass fraction of sodium ethanoate	Mass fraction of 1-propyl-3-methylimidazolium tetrafluoroborate	uncertainty
0.0356	0.6402	0.0607
0.0543	0.5298	0.0545
0.0604	0.5058	0.0544
0.0676	0.4756	0.0457
0.0765	0.4302	0.046
0.0905	0.3761	0.0411
0.0938	0.36	0.04
0.1011	0.3357	0.0325
0.1168	0.2975	0.0305
0.1179	0.2921	0.0323
0.1216	0.284	0.03
0.12	0.2828	0.0299
0.1225	0.2789	0.03
0.1273	0.268	0.027
0.1282	0.2612	0.0256
0.1327	0.2546	0.0247
0.1371	0.2448	0.0239
0.1428	0.2355	0.0204
0.1458	0.2297	0.0206
0.1499	0.2227	0.0196
0.1614	0.2069	0.0164
0.1832	0.1837	0.0148
0.2058	0.164	0.014
0.2212	0.1535	0.0149
0.2572	0.1224	0.0113
0.2692	0.1163	0.0113
0.2837	0.1114	0.0112
0.2985	0.105	0.011
0.3095	0.1016	0.0108
0.3193	0.0987	0.0108
0.3241	0.0973	0.0108
0.1066	0.3251	0.0304
0.1332	0.2544	0.0244
0.2429	0.1271	0.0139

System: sodium ethanoate + 1-butyl-3-methylimidazolium tetrafluoroborate + water; phases: Liquid mixture 1, Liquid mixture 2
Fixed: Pressure, kPa = 100
Fixed: Temperature, K = 298.15
Property: Mass fraction of 1-butyl-3-methylimidazolium tetrafluoroborate (Liquid mixture 1); method: Titration method
Mass fraction of sodium ethanoate	Mass fraction of 1-butyl-3-methylimidazolium tetrafluoroborate	uncertainty
0.0231	0.5083	0.1215
0.0247	0.4898	0.1209
0.0254	0.4798	0.1108
0.0265	0.4668	0.1099
0.028	0.4498	0.1131
0.029	0.4372	0.105
0.0302	0.4241	0.0928
0.0319	0.4091	0.0932
0.0324	0.3958	0.0852
0.0336	0.382	0.0976
0.0347	0.3701	0.0963
0.0367	0.356	0.074
0.0376	0.3421	0.0744
0.0386	0.3312	0.0721
0.0401	0.322	0.071
0.0432	0.3052	0.0584
0.0457	0.289	0.054
0.0527	0.2711	0.0388
0.0569	0.2542	0.0317
0.0632	0.2375	0.0272
0.0674	0.2257	0.0249
0.0721	0.2144	0.0262
0.0804	0.2023	0.0224
0.0819	0.1943	0.0223
0.0858	0.1866	0.0192
0.0948	0.1732	0.0178
0.1071	0.1594	0.0146
0.1253	0.1436	0.0139
0.1408	0.1301	0.0132
0.1445	0.1272	0.0129
0.1489	0.125	0.013
0.1533	0.1217	0.0123
0.1635	0.1158	0.0117
0.1698	0.1127	0.0117
0.1726	0.1117	0.0116
0.1779	0.1092	0.0112
0.181	0.1075	0.0109
0.1849	0.1064	0.0109
0.188	0.1059	0.0108
0.1952	0.1047	0.0106
0.1973	0.1038	0.0107
0.2022	0.1021	0.0108
0.206	0.1019	0.0109
0.2078	0.1004	0.0109
0.2127	0.099	0.011
0.22	0.0965	0.0109
0.2294	0.0928	0.0108
0.2353	0.0914	0.0107
0.2425	0.0896	0.011
0.2522	0.0869	0.0108
0.2589	0.0813	0.0108
0.2907	0.073	0.011

System: sodium dihydrogen phosphate + 1-ethyl-3-methylimidazolium tetrafluoroborate + water; phases: Liquid mixture 1, Liquid mixture 2
Fixed: Pressure, kPa = 100
Fixed: Temperature, K = 298.15
Property: Mass fraction of 1-ethyl-3-methylimidazolium tetrafluoroborate (Liquid mixture 1); method: Titration method
Mass fraction of sodium dihydrogen phosphate	Mass fraction of 1-ethyl-3-methylimidazolium tetrafluoroborate	uncertainty
0.0414	0.5625	0.0371
0.0435	0.5544	0.0363
0.0477	0.5428	0.037
0.0551	0.5166	0.0348
0.0592	0.5046	0.0351
0.062	0.4975	0.0352
0.0677	0.4808	0.0319
0.072	0.4685	0.0316
0.0774	0.4541	0.0309
0.084	0.4383	0.0284
0.0894	0.4258	0.0277
0.0937	0.4158	0.0276
0.0977	0.408	0.025
0.1058	0.3891	0.0261
0.1112	0.3842	0.0264
0.1145	0.3671	0.0266
0.1152	0.3747	0.0263
0.1173	0.3651	0.0259
0.1213	0.3557	0.0286
0.1234	0.3484	0.0282
0.1258	0.3455	0.0283
0.1315	0.3337	0.0257
0.1358	0.3241	0.0246
0.14	0.3147	0.0246
0.1448	0.3046	0.0241
0.154	0.2874	0.0226
0.1588	0.2787	0.0218
0.1654	0.2675	0.0214
0.1721	0.2563	0.021
0.1782	0.2455	0.0205
0.1846	0.2348	0.0195
0.1929	0.2222	0.0182
0.1967	0.2184	0.0178
0.2001	0.2128	0.0177
0.2023	0.2099	0.0177
0.2161	0.1928	0.0168
0.2192	0.1891	0.0166
0.2229	0.1843	0.0165
0.2276	0.1786	0.0157
0.2318	0.1743	0.0155
0.2356	0.1701	0.015
0.2376	0.1692	0.0148
0.2405	0.1655	0.0147
0.2455	0.1606	0.0144
0.253	0.1538	0.0142
0.267	0.1413	0.014

System: sodium dihydrogen phosphate + 1-propyl-3-methylimidazolium tetrafluoroborate + water; phases: Liquid mixture 1, Liquid mixture 2
Fixed: Pressure, kPa = 100
Fixed: Temperature, K = 298.15
Property: Mass fraction of 1-propyl-3-methylimidazolium tetrafluoroborate (Liquid mixture 1); method: Titration method
Mass fraction of sodium dihydrogen phosphate	Mass fraction of 1-propyl-3-methylimidazolium tetrafluoroborate	uncertainty
0.0307	0.5799	0.0572
0.0344	0.5569	0.0531
0.0371	0.5439	0.0516
0.0411	0.5226	0.0525
0.0757	0.3819	0.0395
0.0778	0.3743	0.0395
0.0798	0.3672	0.0377
0.0814	0.362	0.037
0.109	0.2779	0.0293
0.1121	0.2703	0.0276
0.1143	0.2645	0.0276
0.1177	0.2563	0.0271
0.1508	0.1923	0.0191
0.1547	0.1869	0.0192
0.1591	0.1798	0.0177
0.1623	0.1767	0.0173
0.0448	0.5042	0.0492
0.0489	0.4862	0.0471
0.0525	0.4713	0.0447
0.0559	0.4576	0.0435
0.0623	0.4329	0.0419
0.0681	0.4102	0.0408
0.073	0.3928	0.0398
0.0846	0.3507	0.0369
0.0882	0.3379	0.0358
0.0911	0.33	0.04
0.0956	0.3158	0.0327
0.0992	0.3036	0.0311
0.102	0.2956	0.0313
0.1054	0.2872	0.0306
0.1217	0.2471	0.0261
0.1251	0.2388	0.0247
0.1286	0.2312	0.0236
0.1332	0.2222	0.0224
0.137	0.2155	0.0215
0.1416	0.2076	0.0206
0.1458	0.2011	0.02
0.1655	0.1706	0.0171
0.1787	0.1555	0.0147
0.1879	0.146	0.015
0.2038	0.1326	0.0136
0.2162	0.1223	0.0129
0.2392	0.1062	0.0126

System: sodium dihydrogen phosphate + 1-butyl-3-methylimidazolium tetrafluoroborate + water; phases: Liquid mixture 1, Liquid mixture 2
Fixed: Pressure, kPa = 100
Fixed: Temperature, K = 298.15
Property: Mass fraction of 1-butyl-3-methylimidazolium tetrafluoroborate (Liquid mixture 1); method: Titration method
Mass fraction of sodium dihydrogen phosphate	Mass fraction of 1-butyl-3-methylimidazolium tetrafluoroborate	uncertainty
0.0142	0.7737	0.2263
0.0144	0.8106	0.1894
0.0178	0.688	0.276
0.018	0.674	0.267
0.0188	0.586	0.193
0.019	0.614	0.223
0.0193	0.5113	0.1297
0.0201	0.4914	0.086
0.0222	0.4609	0.0793
0.0243	0.4432	0.1612
0.0275	0.4158	0.1848
0.0282	0.4018	0.1518
0.0295	0.3802	0.0906
0.0413	0.3127	0.0596
0.0421	0.3025	0.0596
0.0427	0.2979	0.0597
0.0453	0.2857	0.0583
0.0468	0.2722	0.0417
0.0495	0.2589	0.0422
0.053	0.2437	0.0328
0.0558	0.2314	0.0316
0.0741	0.1975	0.0207
0.0817	0.1835	0.0205
0.088	0.176	0.018
0.091	0.174	0.018
0.0918	0.1708	0.0169
0.0983	0.1625	0.0178
0.104	0.155	0.017
0.1139	0.14	0.02
0.1207	0.132	0.016
0.1268	0.1288	0.0139
0.136	0.1189	0.0132
0.1422	0.1149	0.0134
0.1514	0.1078	0.0122
0.1589	0.1023	0.012
0.1686	0.0982	0.012
0.1766	0.0945	0.0118
0.1881	0.0856	0.0122
0.2002	0.079	0.011
0.2098	0.0757	0.011
0.2173	0.0729	0.0107
0.2244	0.071	0.011
0.2348	0.0675	0.0108
0.2447	0.0637	0.0107
0.2543	0.0599	0.0107
0.2644	0.0575	0.0104
0.2719	0.0553	0.0105

System: ammonium sulfate + 1-ethyl-3-methylimidazolium tetrafluoroborate + water; phases: Liquid mixture 1, Liquid mixture 2
Fixed: Pressure, kPa = 100
Fixed: Temperature, K = 298.15
Property: Mass fraction of 1-ethyl-3-methylimidazolium tetrafluoroborate (Liquid mixture 1); method: Titration method
Mass fraction of ammonium sulfate	Mass fraction of 1-ethyl-3-methylimidazolium tetrafluoroborate	uncertainty
0.0353	0.5194	0.0447
0.0401	0.497	0.042
0.047	0.471	0.043
0.0545	0.4417	0.041
0.0622	0.414	0.04
0.0657	0.4005	0.0392
0.073	0.374	0.038
0.078	0.3567	0.0373
0.0815	0.3451	0.0363
0.0852	0.3328	0.0354
0.0906	0.3147	0.0344
0.0952	0.3017	0.0331
0.0989	0.29	0.03
0.1032	0.2768	0.0302
0.108	0.2636	0.0301
0.1119	0.2538	0.0288
0.1191	0.2365	0.0261
0.1237	0.2256	0.0252
0.1295	0.2138	0.0231
0.1346	0.2034	0.0216
0.1356	0.2022	0.0217
0.1407	0.1934	0.0209
0.1438	0.188	0.02
0.1448	0.1872	0.0197
0.1487	0.1795	0.0198
0.1531	0.1725	0.0194
0.1593	0.1637	0.018
0.1627	0.1594	0.0175
0.1639	0.1567	0.0171
0.1702	0.149	0.016
0.1771	0.1409	0.0158
0.182	0.1364	0.0153
0.188	0.1289	0.0144
0.1943	0.1227	0.0145
0.1967	0.1211	0.0145
0.2082	0.1103	0.0135
0.2138	0.1058	0.0128
0.2231	0.0986	0.0125
0.2423	0.0866	0.012

System: ammonium sulfate + 1-propyl-3-methylimidazolium tetrafluoroborate + water; phases: Liquid mixture 1, Liquid mixture 2
Fixed: Pressure, kPa = 100
Fixed: Temperature, K = 298.15
Property: Mass fraction of 1-propyl-3-methylimidazolium tetrafluoroborate (Liquid mixture 1); method: Titration method
Mass fraction of ammonium sulfate	Mass fraction of 1-propyl-3-methylimidazolium tetrafluoroborate	uncertainty
0.0068	0.7012	0.0764
0.0093	0.6667	0.0921
0.0117	0.639	0.082
0.013	0.6221	0.0774
0.0146	0.6005	0.0694
0.018	0.5772	0.0918
0.0428	0.4204	0.0593
0.0445	0.4055	0.0579
0.0464	0.3984	0.0552
0.0479	0.3857	0.0545
0.0496	0.3749	0.0541
0.0515	0.3647	0.0543
0.1017	0.1917	0.0244
0.1068	0.1807	0.0222
0.1124	0.167	0.022
0.1176	0.1593	0.0187
0.1225	0.1526	0.0166
0.1273	0.1474	0.0166
0.1968	0.0788	0.0118
0.2188	0.0686	0.0116
0.2302	0.0598	0.0115
0.2316	0.0615	0.0115
0.238	0.0576	0.0112
0.2451	0.0542	0.0108
0.0204	0.558	0.084
0.0261	0.5226	0.0702
0.0287	0.5034	0.0691
0.0319	0.4806	0.0638
0.0342	0.4647	0.0656
0.0366	0.4505	0.0648
0.0388	0.4381	0.0635
0.0525	0.3545	0.0546
0.0555	0.3456	0.0493
0.0634	0.3094	0.0417
0.0694	0.2872	0.0427
0.0822	0.2369	0.036
0.0881	0.2196	0.0322
0.0935	0.2056	0.0255
0.1318	0.1425	0.016
0.1374	0.1356	0.015
0.142	0.1304	0.0149
0.1471	0.1248	0.0149
0.161	0.1119	0.0145
0.1768	0.0949	0.0138
0.1837	0.0893	0.0139
0.2516	0.0532	0.0106
0.2611	0.0503	0.0104
0.2711	0.0475	0.0105
0.2816	0.0446	0.0105

System: ammonium sulfate + 1-butyl-3-methylimidazolium tetrafluoroborate + water; phases: Liquid mixture 1, Liquid mixture 2
Fixed: Pressure, kPa = 100
Fixed: Temperature, K = 298.15
Property: Mass fraction of 1-butyl-3-methylimidazolium tetrafluoroborate (Liquid mixture 1); method: Titration method
Mass fraction of ammonium sulfate	Mass fraction of 1-butyl-3-methylimidazolium tetrafluoroborate	uncertainty
0.0038	0.7378	0.1004
0.0052	0.6764	0.1176
0.0065	0.636	0.134
0.0076	0.6003	0.1399
0.009	0.5693	0.1544
0.0112	0.529	0.1717
0.0125	0.503	0.1647
0.0134	0.4821	0.1488
0.0144	0.4599	0.2018
0.0159	0.436	0.177
0.0171	0.4194	0.1674
0.0188	0.3953	0.1493
0.0202	0.3782	0.1451
0.0211	0.3583	0.1251
0.0219	0.3461	0.1193
0.0227	0.3359	0.1148
0.024	0.3254	0.111
0.0249	0.3136	0.0904
0.0258	0.3027	0.0912
0.0269	0.294	0.087
0.0276	0.2844	0.0847
0.0287	0.2746	0.086
0.0302	0.2643	0.0708
0.0348	0.2461	0.0573
0.0401	0.2241	0.0396
0.0437	0.2102	0.0315
0.0465	0.199	0.03
0.0526	0.184	0.026
0.061	0.173	0.02
0.0663	0.1633	0.0181
0.0709	0.1559	0.018
0.076	0.1484	0.0181
0.1014	0.1139	0.0165
0.1115	0.1042	0.0132
0.1355	0.0859	0.0125
0.1411	0.0802	0.0124
0.1683	0.0642	0.0113
0.2045	0.0487	0.0109
0.2116	0.0461	0.0109
0.2192	0.0433	0.0107

System: sodium chloride + 1-butyl-3-methylimidazolium tetrafluoroborate + water; phases: Liquid mixture 1, Liquid mixture 2
Fixed: Pressure, kPa = 100
Fixed: Temperature, K = 298.15
Property: Mass fraction of 1-butyl-3-methylimidazolium tetrafluoroborate (Liquid mixture 1); method: Titration method
Mass fraction of sodium chloride	Mass fraction of 1-butyl-3-methylimidazolium tetrafluoroborate	uncertainty
0.0348	0.6079	0.0919
0.0359	0.5961	0.0894
0.0369	0.5847	0.0869
0.0385	0.5696	0.0782
0.0418	0.5431	0.0773
0.042	0.5397	0.0755
0.0436	0.5287	0.0758
0.0437	0.5278	0.0757
0.045	0.5154	0.0799
0.0454	0.5124	0.08
0.0472	0.4966	0.0771
0.0473	0.4991	0.0771
0.0495	0.4853	0.0746
0.0506	0.4765	0.0739
0.0525	0.4623	0.0699
0.0547	0.4466	0.0669
0.0576	0.4291	0.0589
0.0596	0.4165	0.0584
0.0618	0.4021	0.0577
0.0645	0.3866	0.0565
0.0672	0.3749	0.0515
0.0757	0.336	0.043
0.0757	0.3349	0.0426
0.084	0.3009	0.0372
0.0879	0.2922	0.0332
0.0911	0.2824	0.0314
0.0937	0.2771	0.0316
0.0986	0.2662	0.0259
0.1052	0.2518	0.0238
0.111	0.2398	0.022
0.1164	0.2308	0.0192
0.1223	0.2228	0.0168
0.127	0.2191	0.0161
0.1317	0.2134	0.0163
0.1337	0.2127	0.0147

System: 1-ethyl-3-methylimidazolium chloride + dipotassium hydrogen phosphate + water; phases: Liquid mixture 1, Liquid mixture 2
Fixed: Pressure, kPa = 100
Fixed: Temperature, K = 298.15
Property: Mass fraction of dipotassium hydrogen phosphate (Liquid mixture 1); method: Titration method
Mass fraction of 1-ethyl-3-methylimidazolium chloride	Mass fraction of dipotassium hydrogen phosphate	uncertainty
0.3398	0.0898	0.0126
0.3307	0.096	0.0131
0.3223	0.1025	0.0128
0.3142	0.1091	0.0132
0.3063	0.115	0.013
0.2996	0.121	0.014
0.2931	0.1263	0.014
0.2871	0.1321	0.0142
0.2796	0.1392	0.0141
0.2735	0.1455	0.0147
0.2696	0.1475	0.0149
0.267	0.1521	0.0149
0.2617	0.1574	0.0143
0.2536	0.1632	0.0145
0.2549	0.1644	0.0145
0.2501	0.1669	0.0147
0.2459	0.1717	0.0149
0.2475	0.1727	0.0157
0.2429	0.1748	0.0157
0.2391	0.1792	0.0158
0.241	0.1799	0.0157
0.2356	0.1837	0.0162
0.2362	0.1857	0.0151
0.2274	0.1921	0.0164
0.2261	0.194	0.015
0.2158	0.2066	0.017
0.2113	0.212	0.017
0.2086	0.2152	0.0172
0.1995	0.2269	0.0177
0.1977	0.2298	0.0179
0.1903	0.2389	0.0179
0.1873	0.2435	0.0179
0.1841	0.2477	0.0181
0.1826	0.2495	0.0182
0.1761	0.2582	0.0185
0.1701	0.2661	0.0188
0.1705	0.2663	0.0188
0.164	0.2756	0.0191
0.1613	0.2793	0.0193
0.1572	0.2851	0.0195
0.1556	0.2871	0.0195
0.1535	0.2905	0.0194
0.1514	0.2939	0.0195
0.1496	0.2966	0.0196
0.1485	0.2973	0.0196
0.1465	0.3007	0.02
0.1416	0.3079	0.02
0.1384	0.3127	0.0202
0.1357	0.3175	0.0202
0.1325	0.3222	0.0203
0.1321	0.3224	0.0203
0.1182	0.3434	0.0208
0.1064	0.3621	0.0219
0.0984	0.3752	0.022
0.0865	0.3958	0.0238
0.0801	0.4082	0.024
0.0771	0.414	0.024
0.0732	0.4218	0.025
0.0681	0.4313	0.0249

System: 1-butyl-3-methylimidazolium chloride + dipotassium hydrogen phosphate + water; phases: Liquid mixture 1, Liquid mixture 2
Fixed: Pressure, kPa = 100
Fixed: Temperature, K = 298.15
Property: Mass fraction of dipotassium hydrogen phosphate (Liquid mixture 1); method: Titration method
Mass fraction of 1-butyl-3-methylimidazolium chloride	Mass fraction of dipotassium hydrogen phosphate	uncertainty
0.494	0.006	0.006
0.2291	0.1566	0.0142
0.1579	0.2367	0.0176
0.0931	0.3284	0.0208
0.4435	0.0326	0.0109
0.355	0.067	0.011
0.34	0.0739	0.012
0.331	0.082	0.012
0.305	0.098	0.012
0.2916	0.108	0.012
0.2862	0.1084	0.0122
0.2731	0.1182	0.0131
0.27	0.124	0.013
0.2674	0.1244	0.0132
0.2552	0.1327	0.013
0.254	0.1363	0.013
0.2418	0.1432	0.0139
0.2414	0.147	0.014
0.2374	0.148	0.014
0.2308	0.1566	0.0138
0.22	0.1649	0.0152
0.22	0.166	0.0152
0.2105	0.1748	0.0156
0.2064	0.1819	0.0163
0.2028	0.1833	0.0162
0.2005	0.1883	0.0167
0.1947	0.1928	0.0158
0.1952	0.1941	0.0152
0.1895	0.2007	0.0156
0.1849	0.2034	0.0158
0.1856	0.2046	0.0161
0.1803	0.2104	0.0163
0.1787	0.2112	0.0157
0.1751	0.2168	0.0165
0.1678	0.2235	0.0177
0.1653	0.2295	0.0172
0.1578	0.2387	0.0183
0.1505	0.2461	0.0178
0.1492	0.2498	0.0178
0.1412	0.2588	0.0176
0.1422	0.2589	0.0177
0.1342	0.2697	0.018
0.1304	0.2732	0.0192
0.1284	0.2777	0.0192
0.1253	0.2818	0.019
0.121	0.2859	0.0189
0.121	0.288	0.019
0.1157	0.2956	0.0197
0.1118	0.3	0.0199
0.1076	0.3067	0.0206
0.1062	0.3095	0.0206
0.0953	0.3264	0.0208
0.0867	0.3404	0.0217
0.0819	0.3477	0.0222
0.081	0.3518	0.0222
0.0733	0.3647	0.0241
0.0725	0.37	0.0241
0.0668	0.3735	0.0244
0.0657	0.3768	0.0244
0.0584	0.395	0.027
0.0497	0.4129	0.0274
0.0428	0.4355	0.0298
0.036	0.444	0.029
0.0322	0.4608	0.0272
0.0243	0.4757	0.0372
0.015	0.4962	0.0268
0.009	0.533	0.038
0.006	0.569	0.034

System: 1-hexyl-3-methylimidazolium chloride + dipotassium hydrogen phosphate + water; phases: Liquid mixture 1, Liquid mixture 2
Fixed: Pressure, kPa = 100
Fixed: Temperature, K = 298.15
Property: Mass fraction of dipotassium hydrogen phosphate (Liquid mixture 1); method: Titration method
Mass fraction of 1-hexyl-3-methylimidazolium chloride	Mass fraction of dipotassium hydrogen phosphate	uncertainty
0.5283	0.0269	0.0104
0.5176	0.0297	0.0103
0.5072	0.0321	0.0104
0.4919	0.0363	0.0104
0.4655	0.0435	0.0105
0.4435	0.0504	0.0106
0.3973	0.0674	0.0111
0.3803	0.0755	0.0112
0.369	0.0802	0.0115
0.3522	0.0897	0.0117
0.3219	0.1058	0.0121
0.3217	0.1071	0.0121
0.2396	0.165	0.014
0.1956	0.2056	0.015
0.1798	0.2223	0.0155
0.1666	0.2348	0.0158
0.1597	0.2432	0.0159
0.1441	0.2588	0.0171
0.0776	0.346	0.021
0.0583	0.3789	0.0233
0.0433	0.4083	0.0283
0.0254	0.4569	0.0317
0.0217	0.4806	0.0375
0.4334	0.0537	0.0107
0.4183	0.0589	0.0108
0.2927	0.1261	0.0124
0.2754	0.1367	0.013
0.1372	0.268	0.017
0.1059	0.3059	0.0186

System: 1-methyl-3-octylimidazolium chloride + dipotassium hydrogen phosphate + water; phases: Liquid mixture 1, Liquid mixture 2
Fixed: Pressure, kPa = 100
Fixed: Temperature, K = 298.15
Property: Mass fraction of dipotassium hydrogen phosphate (Liquid mixture 1); method: Titration method
Mass fraction of 1-methyl-3-octylimidazolium chloride	Mass fraction of dipotassium hydrogen phosphate	uncertainty
0.4212	0.0152	0.0116
0.3953	0.0306	0.0117
0.3578	0.0535	0.0119
0.3216	0.0769	0.0122
0.3022	0.0901	0.0124
0.2861	0.1015	0.0127
0.2588	0.122	0.013
0.2392	0.1387	0.0136
0.2196	0.1546	0.0137
0.199	0.172	0.014
0.1736	0.1952	0.0148
0.1459	0.2218	0.0154
0.1284	0.24	0.02
0.1115	0.2594	0.0171
0.1	0.2737	0.0178
0.0939	0.2811	0.0183
0.0871	0.2901	0.019
0.0778	0.3036	0.0232
0.0757	0.3075	0.0242
0.0681	0.3322	0.0242
0.0512	0.3614	0.0242
0.0319	0.4027	0.0296
0.0215	0.4386	0.038
0.0192	0.4518	0.0419
0.014	0.4848	0.0489

System: 1-decyl-3-methylimidazolium chloride + dipotassium hydrogen phosphate + water; phases: Liquid mixture 1, Liquid mixture 2
Fixed: Pressure, kPa = 100
Fixed: Temperature, K = 298.15
Property: Mass fraction of dipotassium hydrogen phosphate (Liquid mixture 1); method: Titration method
Mass fraction of 1-decyl-3-methylimidazolium chloride	Mass fraction of dipotassium hydrogen phosphate	uncertainty
0.4083	0.1101	0.0119
0.3857	0.1227	0.0122
0.3535	0.1433	0.0128
0.3309	0.1608	0.0131
0.302	0.1804	0.0133
0.262	0.2098	0.0139
0.2218	0.2421	0.0146
0.2005	0.2597	0.0152
0.1787	0.2802	0.0155
0.1572	0.2979	0.0163
0.1537	0.3043	0.0164
0.1402	0.3179	0.017
0.1244	0.3348	0.0175
0.1128	0.3476	0.0182
0.1065	0.3551	0.0186
0.1051	0.3554	0.0185
0.0982	0.3651	0.019
0.0868	0.3798	0.0204
0.0832	0.3855	0.0204
0.0773	0.3938	0.0208
0.0714	0.4029	0.022
0.0648	0.4138	0.0244
0.0613	0.4204	0.0251
0.0457	0.4531	0.0265
