Measured thermophysical data. Measurement of Vapor Pressures and Melting Properties of Five Polybrominated Aromatic Flame Retardants
Source: J. Chem. Eng. Data, 2018, 10.1021/acs.jced.7b01040
Compound 1: 1,2,4,5-tetrabromodimethylbenzene, C8H6Br4, InChI=1S/C8H6Br4/c1-3-5(9)7(11)4(2)8(12)6(3)10/h1-2H3
Compound 2: pentabromomethylbenzene, C7H3Br5, InChI=1S/C7H3Br5/c1-2-3(8)5(10)7(12)6(11)4(2)9/h1H3
Compound 3: pentabromoethylbenzene, C8H5Br5, InChI=1S/C8H5Br5/c1-2-3-4(9)6(11)8(13)7(12)5(3)10/h2H2,1H3
Compound 4: pentabromophenol, C6HBr5O, InChI=1S/C6HBr5O/c7-1-2(8)4(10)6(12)5(11)3(1)9/h12H, purity 99%
Compound 5: 1,3,5-tribromo(2,3-dibromopropoxy)benzene, C9H7Br5O, InChI=1S/C9H7Br5O/c10-3-6(12)4-15-9-7(13)1-5(11)2-8(9)14/h1-2,6H,3-4H2, purity 99%

System: 1,2,4,5-tetrabromodimethylbenzene; phases: Crystal, Liquid, Air at 1 atmosphere
Property: Normal melting temperature, K (Crystal); method: DTA
Normal melting temperature, K	uncertainty
527.4	0.7

System: 1,2,4,5-tetrabromodimethylbenzene; phases: Crystal, Liquid, Air at 1 atmosphere
Property: Molar enthalpy of transition or fusion, kJ/mol (Crystal); method: DSC
Molar enthalpy of transition or fusion, kJ/mol	uncertainty
23.9	6

System: 1,2,4,5-tetrabromodimethylbenzene; phases: Crystal, Gas
Property: Vapor or sublimation pressure, kPa (Crystal); method: Transpiration method
Temperature, K	Vapor or sublimation pressure, kPa	uncertainty
322.8	2.4e-06	6e-07
327.7	4.2e-06	5e-07
332.7	7.2e-06	9e-07
337.5	1.25e-05	8e-07
342.5	2.1e-05	2e-06
347.5	3.6e-05	1.2e-05
352.4	5.9e-05	1.4e-05
357.5	0.0001	2e-05
362.4	0.00016	4e-05
367.4	0.00025	2e-05

System: pentabromomethylbenzene; phases: Crystal, Liquid, Air at 1 atmosphere
Property: Normal melting temperature, K (Crystal); method: DTA
Normal melting temperature, K	uncertainty
559	0.7

System: pentabromomethylbenzene; phases: Crystal, Liquid, Air at 1 atmosphere
Property: Molar enthalpy of transition or fusion, kJ/mol (Crystal); method: DSC
Molar enthalpy of transition or fusion, kJ/mol	uncertainty
29.3	6

System: pentabromomethylbenzene; phases: Crystal, Gas
Property: Vapor or sublimation pressure, kPa (Crystal); method: Transpiration method
Temperature, K	Vapor or sublimation pressure, kPa	uncertainty
322.9	2.7e-07	1.1e-07
327.8	5.1e-07	1.3e-07
332.9	9.1e-07	2.3e-07
337.6	1.62e-06	5.9e-07
342.7	2.9e-06	8e-07
347.6	5.5e-06	1e-06
352.6	9e-06	7e-07
357.6	1.5e-05	4e-06
362.5	2.7e-05	4e-06
367.6	4.2e-05	8e-06

System: pentabromoethylbenzene; phases: Crystal, Liquid, Air at 1 atmosphere
Property: Normal melting temperature, K (Crystal); method: DTA
Normal melting temperature, K	uncertainty
408.9	0.7

System: pentabromoethylbenzene; phases: Crystal, Liquid, Air at 1 atmosphere
Property: Molar enthalpy of transition or fusion, kJ/mol (Crystal); method: DSC
Molar enthalpy of transition or fusion, kJ/mol	uncertainty
13.4	6

System: pentabromoethylbenzene; phases: Crystal, Gas
Property: Vapor or sublimation pressure, kPa (Crystal); method: Transpiration method
Temperature, K	Vapor or sublimation pressure, kPa	uncertainty
322.7	3.7e-06	1e-06
327.6	6.1e-06	2.2e-06
332.6	1.04e-05	1.3e-06
337.5	1.7e-05	8e-06
342.4	3.2e-05	1e-05
347.4	4.9e-05	1.8e-05
352.3	8.3e-05	2.6e-05
357.4	0.00013	2e-05
362.3	0.00021	2e-05
367.3	0.00032	8e-05

System: pentabromophenol; phases: Crystal 2, Crystal 1, Air at 1 atmosphere
Property: Triple point temperature, K (Crystal 2); method: DSC
Triple point temperature, K	uncertainty
416.2	0.9

System: pentabromophenol; phases: Crystal 1, Liquid, Air at 1 atmosphere
Property: Triple point temperature, K (Crystal 1); method: DSC
Triple point temperature, K	uncertainty
496.3	0.9

System: pentabromophenol; phases: Crystal 2, Crystal 1, Air at 1 atmosphere
Property: Molar enthalpy of transition or fusion, kJ/mol (Crystal 2); method: DSC
Molar enthalpy of transition or fusion, kJ/mol	uncertainty
11.8	6

System: pentabromophenol; phases: Crystal 1, Liquid, Air at 1 atmosphere
Property: Molar enthalpy of transition or fusion, kJ/mol (Crystal 1); method: DSC
Molar enthalpy of transition or fusion, kJ/mol	uncertainty
18.5	6

System: pentabromophenol; phases: Crystal 2, Gas
Property: Vapor or sublimation pressure, kPa (Crystal 2); method: Transpiration method
Temperature, K	Vapor or sublimation pressure, kPa	uncertainty
322.9	1.9e-07	9e-08
327.8	3.6e-07	1e-07
332.8	6.7e-07	1.4e-07
337.7	1.2e-06	2e-07
342.6	2.3e-06	4e-07
347.6	4.2e-06	6e-07
352.6	7.8e-06	1.1e-06
357.6	1.4e-05	4e-06
362.6	2.7e-05	4e-06
367.4	4.5e-05	8e-06

System: 1,3,5-tribromo(2,3-dibromopropoxy)benzene; phases: Crystal 2, Crystal 1, Air at 1 atmosphere
Property: Triple point temperature, K (Crystal 2); method: DSC
Triple point temperature, K	uncertainty
307.9	0.9

System: 1,3,5-tribromo(2,3-dibromopropoxy)benzene; phases: Crystal 1, Liquid, Air at 1 atmosphere
Property: Triple point temperature, K (Crystal 1); method: DSC
Triple point temperature, K	uncertainty
313.7	0.9

System: 1,3,5-tribromo(2,3-dibromopropoxy)benzene; phases: Crystal 2, Crystal 1, Air at 1 atmosphere
Property: Molar enthalpy of transition or fusion, kJ/mol (Crystal 2); method: DSC
Molar enthalpy of transition or fusion, kJ/mol	uncertainty
17.1	6

System: 1,3,5-tribromo(2,3-dibromopropoxy)benzene; phases: Crystal 1, Liquid, Air at 1 atmosphere
Property: Molar enthalpy of transition or fusion, kJ/mol (Crystal 1); method: DSC
Molar enthalpy of transition or fusion, kJ/mol	uncertainty
2.56	6

System: 1,3,5-tribromo(2,3-dibromopropoxy)benzene; phases: Liquid, Gas
Property: Vapor or sublimation pressure, kPa (Liquid); method: Transpiration method
Temperature, K	Vapor or sublimation pressure, kPa	uncertainty
322.9	1.9e-06	4e-07
327.8	3.2e-06	8e-07
332.7	5.5e-06	8e-07
337.7	9.6e-06	2.4e-06
342.7	1.7e-05	4e-06
347.7	2.7e-05	2e-06
352.7	4.3e-05	1e-05
357.7	6.7e-05	1.4e-05
362.7	0.00013	2e-05
367.7	0.00016	4e-05
