Measured thermophysical data. Volumetric and Viscometric Properties of Alcohol Amines + Ethanol Binary Mixtures
Source: J. Chem. Eng. Data, 2017, 10.1021/acs.jced.7b00321
Compound 1: 1-amino-2-propanol, C3H9NO, InChI=1S/C3H9NO/c1-3(5)2-4/h3,5H,2,4H2,1H3, purity 99%
Compound 2: N-(2-aminoethyl)ethanolamine, C4H12N2O, InChI=1S/C4H12N2O/c5-1-2-6-3-4-7/h6-7H,1-5H2, purity 99%
Compound 3: 3-amino-1-propanol, C3H9NO, InChI=1S/C3H9NO/c4-2-1-3-5/h5H,1-4H2, purity 99%
Compound 4: di(2-aminoethyl)amine, C4H13N3, InChI=1S/C4H13N3/c5-1-3-7-4-2-6/h7H,1-6H2, purity 99%
Compound 5: ethanol, C2H6O, InChI=1S/C2H6O/c1-2-3/h3H,2H2,1H3, purity 99.8%

System: 1-amino-2-propanol; phases: Liquid
Fixed: Pressure, kPa = 101
Property: Mass density, kg/m3 (Liquid); method: Vibrating tube method
Temperature, K	Mass density, kg/m3	uncertainty
293.15	960.81	1.03
303.15	952.25	1.02
313.15	944.43	1.02
323.15	936.21	1.02

System: 1-amino-2-propanol; phases: Liquid
Fixed: Pressure, kPa = 101
Property: Viscosity, Pa*s (Liquid); method: Capillary tube (Ostwald; Ubbelohde) method
Temperature, K	Viscosity, Pa*s	uncertainty
293.15	0.03044	0.00065
303.15	0.01787	0.00039
313.15	0.01079	0.00023
323.15	0.00699	0.00015

System: N-(2-aminoethyl)ethanolamine; phases: Liquid
Fixed: Pressure, kPa = 101
Property: Mass density, kg/m3 (Liquid); method: Vibrating tube method
Temperature, K	Mass density, kg/m3	uncertainty
293.15	1029.14	1.03
303.15	1021.45	1.03
313.15	1014.18	1.03
323.15	1006.54	1.03

System: N-(2-aminoethyl)ethanolamine; phases: Liquid
Fixed: Pressure, kPa = 101
Property: Viscosity, Pa*s (Liquid); method: Capillary tube (Ostwald; Ubbelohde) method
Temperature, K	Viscosity, Pa*s	uncertainty
293.15	0.13619	0.00358
303.15	0.07164	0.00161
313.15	0.03959	0.00086
323.15	0.02341	0.00052

System: 3-amino-1-propanol; phases: Liquid
Fixed: Pressure, kPa = 101
Property: Mass density, kg/m3 (Liquid); method: Vibrating tube method
Temperature, K	Mass density, kg/m3	uncertainty
293.15	987.5	1.02
303.15	979.45	1.02
313.15	971.67	1.02
323.15	963.36	1.02

System: 3-amino-1-propanol; phases: Liquid
Fixed: Pressure, kPa = 101
Property: Viscosity, Pa*s (Liquid); method: Capillary tube (Ostwald; Ubbelohde) method
Temperature, K	Viscosity, Pa*s	uncertainty
293.15	0.04026	0.00086
303.15	0.02403	0.00052
313.15	0.01508	0.00032
323.15	0.01001	0.00022

System: di(2-aminoethyl)amine; phases: Liquid
Fixed: Pressure, kPa = 101
Property: Mass density, kg/m3 (Liquid); method: Vibrating tube method
Temperature, K	Mass density, kg/m3	uncertainty
293.15	951.16	1.03
303.15	942.19	1.03
313.15	933.93	1.03
323.15	925.42	1.03

System: di(2-aminoethyl)amine; phases: Liquid
Fixed: Pressure, kPa = 101
Property: Viscosity, Pa*s (Liquid); method: Capillary tube (Ostwald; Ubbelohde) method
Temperature, K	Viscosity, Pa*s	uncertainty
293.15	0.00699	0.00015
303.15	0.00479	0.0001
313.15	0.00345	7e-05
323.15	0.0026	6e-05

System: ethanol; phases: Liquid
Fixed: Pressure, kPa = 101
Property: Mass density, kg/m3 (Liquid); method: Vibrating tube method
Temperature, K	Mass density, kg/m3	uncertainty
293.15	788.88	1.01
303.15	781.69	1.01
313.15	772.3	1.01
323.15	765.29	1.01

System: ethanol; phases: Liquid
Fixed: Pressure, kPa = 101
Property: Viscosity, Pa*s (Liquid); method: Capillary tube (Ostwald; Ubbelohde) method
Temperature, K	Viscosity, Pa*s	uncertainty
293.15	0.00117	2e-05
303.15	0.00097	2e-05
313.15	0.00081	2e-05
323.15	0.00069	2e-05

System: 1-amino-2-propanol + ethanol; phases: Liquid
Fixed: Pressure, kPa = 101
Property: Mass density, kg/m3 (Liquid); method: Vibrating tube method
Temperature, K	Mole fraction of 1-amino-2-propanol	Mass density, kg/m3	uncertainty
293.15	0.1009	815.54	2.08
293.15	0.2	839.35	2.03
293.15	0.3015	860.99	2.08
293.15	0.3999	879.64	2.09
293.15	0.4999	896.77	2.11
293.15	0.5992	912.21	2.08
293.15	0.6996	926.22	2.08
293.15	0.7998	938.83	2.06
293.15	0.8995	950.36	2.09
303.15	0.1009	807.78	2.24
303.15	0.2	830.91	2.27
303.15	0.3015	852.05	2.26
303.15	0.3999	870.63	2.24
303.15	0.4999	887.58	2.22
303.15	0.5992	903.08	2.2
303.15	0.6996	917.08	2.16
303.15	0.7998	929.86	2.09
303.15	0.8995	941.55	2.04
313.15	0.1009	798.04	2.19
313.15	0.2	821.03	2.22
313.15	0.3015	842.37	2.21
313.15	0.3999	860.91	2.19
313.15	0.4999	878.08	2.16
313.15	0.5992	893.58	2.15
313.15	0.6996	907.84	2.09
313.15	0.7998	921.21	2.04
313.15	0.8995	933.29	2
323.15	0.1009	790.57	2.02
323.15	0.2	813.16	2.17
323.15	0.3015	834.09	2.19
323.15	0.3999	852.56	2.17
323.15	0.4999	869.65	2.15
323.15	0.5992	885.11	2.12
323.15	0.6996	899.63	2.07
323.15	0.7998	912.9	2.07
323.15	0.8995	924.97	2.01

System: 1-amino-2-propanol + ethanol; phases: Liquid
Fixed: Pressure, kPa = 101
Property: Viscosity, Pa*s (Liquid); method: Capillary tube (Ostwald; Ubbelohde) method
Temperature, K	Mole fraction of 1-amino-2-propanol	Viscosity, Pa*s	uncertainty
293.15	0.1009	0.00169	5e-05
293.15	0.2	0.00238	6e-05
293.15	0.3015	0.00339	9e-05
293.15	0.3999	0.00474	0.00012
293.15	0.4999	0.00661	0.00016
293.15	0.5992	0.00915	0.00023
293.15	0.6996	0.01264	0.00031
293.15	0.7998	0.0173	0.00043
293.15	0.8995	0.02342	0.00056
303.15	0.1009	0.00135	3e-05
303.15	0.2	0.00183	5e-05
303.15	0.3015	0.00251	6e-05
303.15	0.3999	0.00338	8e-05
303.15	0.4999	0.00453	0.00011
303.15	0.5992	0.00604	0.00015
303.15	0.6996	0.00801	0.00019
303.15	0.7998	0.01053	0.00025
303.15	0.8995	0.0138	0.00035
313.15	0.1009	0.0011	3e-05
313.15	0.2	0.00145	3e-05
313.15	0.3015	0.00191	5e-05
313.15	0.3999	0.00249	6e-05
313.15	0.4999	0.00323	8e-05
313.15	0.5992	0.00417	0.0001
313.15	0.6996	0.00535	0.00013
313.15	0.7998	0.00684	0.00016
313.15	0.8995	0.00864	0.00021
323.15	0.1009	0.0009	2e-05
323.15	0.2	0.00116	3e-05
323.15	0.3015	0.00149	3e-05
323.15	0.3999	0.00189	4e-05
323.15	0.4999	0.00239	6e-05
323.15	0.5992	0.00301	7e-05
323.15	0.6996	0.00376	9e-05
323.15	0.7998	0.0047	0.00011
323.15	0.8995	0.00575	0.00013

System: N-(2-aminoethyl)ethanolamine + ethanol; phases: Liquid
Fixed: Pressure, kPa = 101
Property: Mass density, kg/m3 (Liquid); method: Vibrating tube method
Temperature, K	Mole fraction of N-(2-aminoethyl)ethanolamine	Mass density, kg/m3	uncertainty
293.15	0.1003	836.01	2.52
293.15	0.2	876.03	2.26
293.15	0.3	908.63	2.27
293.15	0.4	935.65	2.29
293.15	0.4997	957.92	2.27
293.15	0.5996	976.58	2.2
293.15	0.6992	992.84	2.13
293.15	0.7994	1007.09	2.05
293.15	0.9007	1019.25	2.08
303.15	0.1003	827.72	2.62
303.15	0.2	866.47	2.65
303.15	0.3	898.53	2.57
303.15	0.4	925.07	2.49
303.15	0.4997	947.38	2.41
303.15	0.5996	966.68	2.28
303.15	0.6992	983.3	2.2
303.15	0.7994	997.81	2.1
303.15	0.9007	1010.53	2
313.15	0.1003	817.72	2.53
313.15	0.2	856.04	2.54
313.15	0.3	888.11	2.41
313.15	0.4	915.04	2.32
313.15	0.4997	937.71	2.2
313.15	0.5996	957.44	2.15
313.15	0.6992	974.42	2.07
313.15	0.7994	989.49	2
313.15	0.9007	1002.88	1.92
323.15	0.1003	810.06	2.38
323.15	0.2	847.84	2.66
323.15	0.3	880.03	2.52
323.15	0.4	906.65	2.38
323.15	0.4997	929.72	2.27
323.15	0.5996	949.14	2.19
323.15	0.6992	966.36	2.13
323.15	0.7994	981.48	2.07
323.15	0.9007	995.08	1.94

System: N-(2-aminoethyl)ethanolamine + ethanol; phases: Liquid
Fixed: Pressure, kPa = 101
Property: Viscosity, Pa*s (Liquid); method: Capillary tube (Ostwald; Ubbelohde) method
Temperature, K	Mole fraction of N-(2-aminoethyl)ethanolamine	Viscosity, Pa*s	uncertainty
293.15	0.1003	0.00227	9e-05
293.15	0.2	0.00421	0.00015
293.15	0.3	0.00822	0.00027
293.15	0.4	0.01462	0.00044
293.15	0.4997	0.02418	0.00068
293.15	0.5996	0.03692	0.001
293.15	0.6992	0.05546	0.00143
293.15	0.7994	0.07897	0.00203
293.15	0.9007	0.10709	0.00282
303.15	0.1003	0.00178	6e-05
303.15	0.2	0.00309	0.0001
303.15	0.3	0.00537	0.00017
303.15	0.4	0.00908	0.00026
303.15	0.4997	0.01441	0.00039
303.15	0.5996	0.02151	0.00057
303.15	0.6992	0.03116	0.00079
303.15	0.7994	0.04247	0.00105
303.15	0.9007	0.05614	0.00151
313.15	0.1003	0.00141	5e-05
313.15	0.2	0.00235	7e-05
313.15	0.3	0.00376	0.00011
313.15	0.4	0.00608	0.00017
313.15	0.4997	0.00937	0.00025
313.15	0.5996	0.01345	0.00034
313.15	0.6992	0.01874	0.00045
313.15	0.7994	0.02416	0.00058
313.15	0.9007	0.03176	0.00082
323.15	0.1003	0.00113	4e-05
323.15	0.2	0.00179	5e-05
323.15	0.3	0.00274	8e-05
323.15	0.4	0.00422	0.00011
323.15	0.4997	0.00619	0.00016
323.15	0.5996	0.00875	0.00022
323.15	0.6992	0.01165	0.00028
323.15	0.7994	0.01494	0.00035
323.15	0.9007	0.0188	0.00044

System: 3-amino-1-propanol + ethanol; phases: Liquid
Fixed: Pressure, kPa = 101
Property: Mass density, kg/m3 (Liquid); method: Vibrating tube method
Temperature, K	Mole fraction of 3-amino-1-propanol	Mass density, kg/m3	uncertainty
293.15	0.101	820.04	2.15
293.15	0.2008	847.98	1.99
293.15	0.3001	871.99	2.04
293.15	0.4006	894.28	2.01
293.15	0.4999	914.13	2.02
293.15	0.5994	932.46	2.03
293.15	0.6993	948.72	2
293.15	0.7999	963.35	1.97
293.15	0.8998	975.98	2
303.15	0.101	812.33	2.29
303.15	0.2008	839.91	2.29
303.15	0.3001	863.77	2.24
303.15	0.4006	885.95	2.22
303.15	0.4999	905.74	2.18
303.15	0.5994	923.63	2.18
303.15	0.6993	940.08	2.11
303.15	0.7999	954.73	2.04
303.15	0.8998	967.76	1.98
313.15	0.101	802.78	2.27
313.15	0.2008	830.23	2.28
313.15	0.3001	854.17	2.23
313.15	0.4006	876.32	2.23
313.15	0.4999	896.28	2.19
313.15	0.5994	914.45	2.14
313.15	0.6993	931.32	2.1
313.15	0.7999	946.49	2.01
313.15	0.8998	959.83	2
323.15	0.101	795.11	2.13
323.15	0.2008	822.21	2.31
323.15	0.3001	846.08	2.23
323.15	0.4006	867.97	2.21
323.15	0.4999	887.91	2.2
323.15	0.5994	906.05	2.16
323.15	0.6993	922.79	2.16
323.15	0.7999	938.29	2.14
323.15	0.8998	951.35	2.05

System: 3-amino-1-propanol + ethanol; phases: Liquid
Fixed: Pressure, kPa = 101
Property: Viscosity, Pa*s (Liquid); method: Capillary tube (Ostwald; Ubbelohde) method
Temperature, K	Mole fraction of 3-amino-1-propanol	Viscosity, Pa*s	uncertainty
293.15	0.101	0.00177	5e-05
293.15	0.2008	0.0027	7e-05
293.15	0.3001	0.00406	0.00011
293.15	0.4006	0.00622	0.00017
293.15	0.4999	0.00934	0.00025
293.15	0.5994	0.01388	0.00036
293.15	0.6993	0.01955	0.00048
293.15	0.7999	0.02629	0.00062
293.15	0.8998	0.0329	0.00075
303.15	0.101	0.00141	4e-05
303.15	0.2008	0.00205	5e-05
303.15	0.3001	0.00297	8e-05
303.15	0.4006	0.00443	0.00011
303.15	0.4999	0.00631	0.00016
303.15	0.5994	0.00889	0.00022
303.15	0.6993	0.01209	0.00029
303.15	0.7999	0.01591	0.00038
303.15	0.8998	0.01996	0.00049
313.15	0.101	0.00118	3e-05
313.15	0.2008	0.00163	4e-05
313.15	0.3001	0.00229	6e-05
313.15	0.4006	0.00325	8e-05
313.15	0.4999	0.00453	0.00011
313.15	0.5994	0.00617	0.00015
313.15	0.6993	0.00808	0.00019
313.15	0.7999	0.01018	0.00024
313.15	0.8998	0.01286	0.00031
323.15	0.101	0.00097	3e-05
323.15	0.2008	0.00132	3e-05
323.15	0.3001	0.00179	4e-05
323.15	0.4006	0.00249	6e-05
323.15	0.4999	0.00333	8e-05
323.15	0.5994	0.00435	0.0001
323.15	0.6993	0.00552	0.00013
323.15	0.7999	0.00682	0.00016
323.15	0.8998	0.00829	0.00019

System: di(2-aminoethyl)amine + ethanol; phases: Liquid
Fixed: Pressure, kPa = 101
Property: Mass density, kg/m3 (Liquid); method: Vibrating tube method
Temperature, K	Mole fraction of di(2-aminoethyl)amine	Mass density, kg/m3	uncertainty
293.15	0.1	831.18	2.65
293.15	0.1999	864.18	2.39
293.15	0.3001	888.74	2.56
293.15	0.4	905.98	2.67
293.15	0.4998	918.77	2.69
293.15	0.6001	928.75	2.67
293.15	0.6992	936.55	2.48
293.15	0.7998	943.08	2.37
293.15	0.9007	948.15	2.32
303.15	0.1	820.88	2.71
303.15	0.1999	852.13	2.92
303.15	0.3001	875.32	2.94
303.15	0.4	892.48	2.87
303.15	0.4998	905.55	2.78
303.15	0.6001	915.84	2.65
303.15	0.6992	924.86	2.52
303.15	0.7998	931.95	2.4
303.15	0.9007	937.76	2.24
313.15	0.1	809.43	2.54
313.15	0.1999	839.06	2.79
313.15	0.3001	862.26	2.85
313.15	0.4	879.84	2.81
313.15	0.4998	893.25	2.67
313.15	0.6001	904.57	2.54
313.15	0.6992	913.73	2.43
313.15	0.7998	921.49	2.31
313.15	0.9007	928.32	2.16
323.15	0.1	800.56	2.32
323.15	0.1999	828.38	2.92
323.15	0.3001	849.95	3.04
323.15	0.4	866.96	3
323.15	0.4998	881.28	2.82
323.15	0.6001	892.92	2.66
323.15	0.6992	903.03	2.51
323.15	0.7998	911.41	2.33
323.15	0.9007	918.94	2.15

System: di(2-aminoethyl)amine + ethanol; phases: Liquid
Fixed: Pressure, kPa = 101
Property: Viscosity, Pa*s (Liquid); method: Capillary tube (Ostwald; Ubbelohde) method
Temperature, K	Mole fraction of di(2-aminoethyl)amine	Viscosity, Pa*s	uncertainty
293.15	0.1	0.00238	6e-05
293.15	0.1999	0.0034	8e-05
293.15	0.3001	0.00431	0.0001
293.15	0.4	0.00506	0.00011
293.15	0.4998	0.00559	0.00012
293.15	0.6001	0.00605	0.00013
293.15	0.6992	0.00639	0.00014
293.15	0.7998	0.00661	0.00014
293.15	0.9007	0.0068	0.00014
303.15	0.1	0.00182	5e-05
303.15	0.1999	0.00252	6e-05
303.15	0.3001	0.00311	7e-05
303.15	0.4	0.00357	8e-05
303.15	0.4998	0.00393	8e-05
303.15	0.6001	0.00419	9e-05
303.15	0.6992	0.00438	9e-05
303.15	0.7998	0.00453	0.0001
303.15	0.9007	0.00465	0.0001
313.15	0.1	0.00143	4e-05
313.15	0.1999	0.00195	4e-05
313.15	0.3001	0.00233	5e-05
313.15	0.4	0.00264	6e-05
313.15	0.4998	0.00289	6e-05
313.15	0.6001	0.00306	7e-05
313.15	0.6992	0.00315	7e-05
313.15	0.7998	0.00326	7e-05
313.15	0.9007	0.00331	7e-05
323.15	0.1	0.00116	3e-05
323.15	0.1999	0.00154	4e-05
323.15	0.3001	0.00181	4e-05
323.15	0.4	0.00203	4e-05
323.15	0.4998	0.0022	5e-05
323.15	0.6001	0.00231	5e-05
323.15	0.6992	0.00237	5e-05
323.15	0.7998	0.00245	5e-05
323.15	0.9007	0.0025	5e-05
