Measured thermophysical data. Phase Equilibria of the Reciprocal Quaternary System (Na+, Ca2+//Cl-, Borate-H2O) at 288.15 K and 0.1 MPa
Source: J. Chem. Eng. Data, 2018, 10.1021/acs.jced.8b00234
Compound 1: water, H2O, InChI=1S/H2O/h1H2, purity 99.9%
Compound 2: sodium chloride, ClNa, InChI=1S/ClH.Na/h1H;/q;+1/p-1, purity 99%
Compound 3: calcium hexaborate, B6CaO10, InChI=1S/B6O10.Ca/c7-1-10-4-12-2(8)14-6-15-3(9)13-5(11-1)16(4)6;/q-2;+2
Compound 4: calcium chloride, CaCl2, InChI=1S/Ca.2ClH/h;2*1H/q+2;;/p-2, purity 99%
Compound 5: sodium tetraborate, B4Na2O7, InChI=1S/B4O7.2Na/c5-1-9-3(7)11-4(8)10-2-6;;/q-2;2*+1, purity 99%

System: sodium chloride + calcium chloride + water; phases: Liquid, Crystal
Property: Mass fraction of calcium chloride (Liquid); method: titration and chemical analysis
Mass fraction of sodium chloride	Pressure, kPa	Temperature, K	Mass fraction of calcium chloride	uncertainty
0.0078	100	288.15	0.4191	0.0061

System: sodium chloride + calcium chloride + water; phases: Liquid, Crystal of intercomponent compound 1
Property: Mass fraction of calcium chloride (Liquid); method: titration and chemical analysis
Mass fraction of sodium chloride	Pressure, kPa	Temperature, K	Mass fraction of calcium chloride	uncertainty
0.0078	100	288.15	0.4191	0.0061

System: sodium chloride + calcium chloride + water; phases: Liquid
Property: Refractive index (Na D-line) (Liquid); method: Standard Abbe refractometry
Mass fraction of sodium chloride	Mass fraction of calcium chloride	Temperature, K	Pressure, kPa	Refractive index (Na D-line)	uncertainty
0.0078	0.4191	288.15	100	1.4458	0.0007

System: sodium chloride + calcium chloride + water; phases: Liquid
Property: Mass density, kg/m3 (Liquid); method: Vibrating tube method
Mass fraction of sodium chloride	Mass fraction of calcium chloride	Temperature, K	Pressure, kPa	Mass density, kg/m3	uncertainty
0.0078	0.4191	288.15	100	1410.46	3.15

System: sodium chloride + calcium chloride + water; phases: Liquid
Property: Viscosity, Pa*s (Liquid); method: Capillary tube (Ostwald; Ubbelohde) method
Mass fraction of sodium chloride	Mass fraction of calcium chloride	Temperature, K	Pressure, kPa	Viscosity, Pa*s	uncertainty
0.0078	0.4191	288.15	100	0.0124	0.00029

System: calcium chloride + calcium hexaborate + water; phases: Liquid, Crystal of intercomponent compound 1
Property: Mass fraction of calcium hexaborate (Liquid); method: titration and chemical analysis
Mass fraction of calcium chloride	Pressure, kPa	Temperature, K	Mass fraction of calcium hexaborate	uncertainty
0.4082	100	288.15	0.0002	0.0002

System: calcium chloride + calcium hexaborate + water; phases: Liquid, Crystal of intercomponent compound 2
Property: Mass fraction of calcium hexaborate (Liquid); method: titration and chemical analysis
Mass fraction of calcium chloride	Pressure, kPa	Temperature, K	Mass fraction of calcium hexaborate	uncertainty
0.4082	100	288.15	0.0002	0.0002

System: calcium chloride + calcium hexaborate + water; phases: Liquid
Property: Refractive index (Na D-line) (Liquid); method: Standard Abbe refractometry
Mass fraction of calcium chloride	Mass fraction of calcium hexaborate	Temperature, K	Pressure, kPa	Refractive index (Na D-line)	uncertainty
0.4082	0.0002	288.15	100	1.4493	0.0007

System: calcium chloride + calcium hexaborate + water; phases: Liquid
Property: Mass density, kg/m3 (Liquid); method: Vibrating tube method
Mass fraction of calcium chloride	Mass fraction of calcium hexaborate	Temperature, K	Pressure, kPa	Mass density, kg/m3	uncertainty
0.4082	0.0002	288.15	100	1411.02	2.95

System: sodium chloride + sodium tetraborate + water; phases: Liquid, Crystal
Property: Mass fraction of sodium tetraborate (Liquid); method: titration and chemical analysis
Mass fraction of sodium chloride	Pressure, kPa	Temperature, K	Mass fraction of sodium tetraborate	uncertainty
0.2597	100	288.15	0.0047	0.001

System: sodium chloride + sodium tetraborate + water; phases: Liquid, Crystal of intercomponent compound 1
Property: Mass fraction of sodium tetraborate (Liquid); method: titration and chemical analysis
Mass fraction of sodium chloride	Pressure, kPa	Temperature, K	Mass fraction of sodium tetraborate	uncertainty
0.2597	100	288.15	0.0047	0.001

System: sodium chloride + sodium tetraborate + water; phases: Liquid
Property: Refractive index (Na D-line) (Liquid); method: Standard Abbe refractometry
Mass fraction of sodium chloride	Mass fraction of sodium tetraborate	Temperature, K	Pressure, kPa	Refractive index (Na D-line)	uncertainty
0.2597	0.0047	288.15	100	1.3818	0.0007

System: sodium chloride + sodium tetraborate + water; phases: Liquid
Property: Mass density, kg/m3 (Liquid); method: Vibrating tube method
Mass fraction of sodium chloride	Mass fraction of sodium tetraborate	Temperature, K	Pressure, kPa	Mass density, kg/m3	uncertainty
0.2597	0.0047	288.15	100	1195.97	3.06

System: sodium chloride + sodium tetraborate + water; phases: Liquid
Property: Viscosity, Pa*s (Liquid); method: Capillary tube (Ostwald; Ubbelohde) method
Mass fraction of sodium chloride	Mass fraction of sodium tetraborate	Temperature, K	Pressure, kPa	Viscosity, Pa*s	uncertainty
0.2597	0.0047	288.15	100	0.00186	4e-05
