Measured thermophysical data. Isobaric Vapor Liquid Equilibrium for Two Binary Systems, (3-Methyl-1-butanol + 1,4-Butanediol) and (Hexylene Glycol + 1,4-Butanediol), at p = 40.0, 60.0, and 80.0 kPa
Source: J. Chem. Eng. Data, 2016, 10.1021/acs.jced.6b00092
Compound 1: 1,4-butanediol, C4H10O2, InChI=1S/C4H10O2/c5-3-1-2-4-6/h5-6H,1-4H2, purity 99%
Compound 2: 3-methylbutan-1-ol, C5H12O, InChI=1S/C5H12O/c1-5(2)3-4-6/h5-6H,3-4H2,1-2H3, purity 99.8%
Compound 3: 2-methyl-2,4-pentanediol, C6H14O2, InChI=1S/C6H14O2/c1-5(7)4-6(2,3)8/h5,7-8H,4H2,1-3H3, purity 99%

System: 1,4-butanediol; phases: Liquid
Property: Mass density, kg/m3 (Liquid); method: Vibrating tube method
Temperature, K	Pressure, kPa	Mass density, kg/m3	uncertainty
298.15	101.325	1012.96	10

System: 1,4-butanediol; phases: Liquid
Property: Refractive index (Na D-line) (Liquid); method: Standard Abbe refractometry
Temperature, K	Pressure, kPa	Refractive index (Na D-line)	uncertainty
298.15	101.325	1.4447	0.0004

System: 1,4-butanediol; phases: Liquid, Gas
Property: Normal boiling temperature, K (Liquid); method: Ebulliometric method (Recirculating still)
Normal boiling temperature, K	uncertainty
501.08	4

System: 1,4-butanediol; phases: Liquid, Gas
Property: Vapor or sublimation pressure, kPa (Liquid); method: Ebulliometric method (Recirculating still)
Temperature, K	Vapor or sublimation pressure, kPa	uncertainty
473.44	40	7
485.11	60	8
493.78	80	9

System: 3-methylbutan-1-ol; phases: Liquid
Property: Mass density, kg/m3 (Liquid); method: Vibrating tube method
Temperature, K	Pressure, kPa	Mass density, kg/m3	uncertainty
298.15	101.325	807.3	10

System: 3-methylbutan-1-ol; phases: Liquid
Property: Refractive index (Na D-line) (Liquid); method: Standard Abbe refractometry
Temperature, K	Pressure, kPa	Refractive index (Na D-line)	uncertainty
298.15	101.325	1.4055	0.0004

System: 3-methylbutan-1-ol; phases: Liquid, Gas
Property: Normal boiling temperature, K (Liquid); method: Ebulliometric method (Recirculating still)
Normal boiling temperature, K	uncertainty
403.85	4

System: 3-methylbutan-1-ol; phases: Liquid, Gas
Property: Vapor or sublimation pressure, kPa (Liquid); method: Ebulliometric method (Recirculating still)
Temperature, K	Vapor or sublimation pressure, kPa	uncertainty
379.01	40	8
389.52	60	12
397.48	80	16

System: 2-methyl-2,4-pentanediol; phases: Liquid
Property: Mass density, kg/m3 (Liquid); method: Vibrating tube method
Temperature, K	Pressure, kPa	Mass density, kg/m3	uncertainty
298.15	101.325	915.6	10

System: 2-methyl-2,4-pentanediol; phases: Liquid
Property: Refractive index (Na D-line) (Liquid); method: Standard Abbe refractometry
Temperature, K	Pressure, kPa	Refractive index (Na D-line)	uncertainty
298.15	101.325	1.4265	0.0004

System: 2-methyl-2,4-pentanediol; phases: Liquid, Gas
Property: Normal boiling temperature, K (Liquid); method: Ebulliometric method (Recirculating still)
Normal boiling temperature, K	uncertainty
470.45	4

System: 2-methyl-2,4-pentanediol; phases: Liquid, Gas
Property: Vapor or sublimation pressure, kPa (Liquid); method: Ebulliometric method (Recirculating still)
Temperature, K	Vapor or sublimation pressure, kPa	uncertainty
442.09	40	7
453.84	60	8
462.67	80	9

System: 1,4-butanediol + 3-methylbutan-1-ol; phases: Liquid, Gas
Property: Boiling temperature at pressure P, K (Liquid); method: Ebulliometric method (Recirculating still)
Mole fraction of 3-methylbutan-1-ol	Pressure, kPa	Boiling temperature at pressure P, K	uncertainty
0	40	473.44	4.01
0.05	40	453.48	4.23
0.103	40	438.77	4.12
0.154	40	428.38	4.07
0.208	40	420.25	4.05
0.25	40	415.3	4.04
0.276	40	412.5	4.03
0.319	40	408.61	4.02
0.378	40	403.96	4.02
0.396	40	402.7	4.02
0.454	40	399.07	4.01
0.488	40	397.19	4.01
1	40	379.01	4.01
0	60	485.11	4.01
0.051	60	466.76	4.2
0.102	60	452.91	4.12
0.154	60	442.41	4.07
0.207	60	434.05	4.05
0.249	60	428.73	4.04
0.276	60	425.74	4.03
0.319	60	421.58	4.02
0.378	60	416.57	4.02
0.396	60	415.21	4.01
0.455	60	411.28	4.02
0.489	60	409.23	4.02
1	60	389.52	4.01
0	80	493.78	4.01
0.05	80	477.27	4.18
0.103	80	463.64	4.12
0.154	80	453.16	4.08
0.208	80	444.51	4.05
0.25	80	439.09	4.04
0.276	80	435.97	4.03
0.319	80	431.59	4.03
0.378	80	426.3	4.02
0.396	80	424.85	4.02
0.454	80	420.68	4.02
0.488	80	418.48	4.01
1	80	397.48	4

System: 1,4-butanediol + 3-methylbutan-1-ol; phases: Gas, Liquid
Property: Mole fraction of 3-methylbutan-1-ol (Gas); method: Chromatography
Mole fraction of 3-methylbutan-1-ol	Pressure, kPa	Mole fraction of 3-methylbutan-1-ol	uncertainty
0	40	0	
0.05	40	0.548	0.032
0.103	40	0.767	0.016
0.154	40	0.854	0.011
0.208	40	0.905	0.011
0.25	40	0.93	0.01
0.276	40	0.942	0.01
0.319	40	0.956	0.01
0.378	40	0.97	0.01
0.396	40	0.974	0.01
0.454	40	0.983	0.01
0.488	40	0.986	0.01
1	40	1	
0	60	0	
0.051	60	0.497	0.03
0.102	60	0.718	0.017
0.154	60	0.833	0.012
0.207	60	0.894	0.011
0.249	60	0.921	0.01
0.276	60	0.934	0.01
0.319	60	0.949	0.01
0.378	60	0.964	0.01
0.396	60	0.967	0.01
0.455	60	0.976	0.01
0.489	60	0.982	0.01
1	60	1	
0	80	0	
0.05	80	0.456	0.029
0.103	80	0.681	0.017
0.154	80	0.802	0.012
0.208	80	0.869	0.011
0.25	80	0.9	0.01
0.276	80	0.916	0.01
0.319	80	0.934	0.01
0.378	80	0.952	0.01
0.396	80	0.957	0.01
0.454	80	0.968	0.01
0.488	80	0.972	0.01
1	80	1	

System: 2-methyl-2,4-pentanediol + 1,4-butanediol; phases: Liquid, Gas
Property: Boiling temperature at pressure P, K (Liquid); method: Ebulliometric method (Recirculating still)
Mole fraction of 2-methyl-2,4-pentanediol	Pressure, kPa	Boiling temperature at pressure P, K	uncertainty
0	40	473.44	4.01
0.055	40	469.53	4.02
0.105	40	466.85	4.01
0.169	40	463.75	4.01
0.251	40	460.18	4.01
0.35	40	456.69	4.01
0.401	40	455.05	4.01
0.452	40	453.54	4.01
0.507	40	452.04	4.01
0.578	40	450.31	4.01
0.685	40	448.27	4.01
0.803	40	445.69	4.01
1	40	442.09	4.01
0	60	485.11	4.01
0.057	60	481.98	4.01
0.107	60	479.39	4.01
0.171	60	476.4	4.01
0.253	60	473.02	4.01
0.352	60	469.47	4.01
0.403	60	467.83	4.01
0.454	60	466.29	4.01
0.509	60	464.74	4.01
0.58	60	462.87	4.01
0.687	60	460.29	4.01
0.805	60	457.71	4.01
1	60	453.84	4.01
0	80	493.78	4.01
0.058	80	491.32	4.01
0.108	80	489.19	4.01
0.172	80	486.69	4.01
0.254	80	483.57	4.01
0.353	80	480.07	4.01
0.404	80	478.39	4.01
0.455	80	476.75	4.01
0.51	80	475.14	4.01
0.581	80	473.12	4.01
0.688	80	470.07	4.01
0.806	80	467.14	4.01
1	80	462.67	4.01

System: 2-methyl-2,4-pentanediol + 1,4-butanediol; phases: Gas, Liquid
Property: Mole fraction of 2-methyl-2,4-pentanediol (Gas); method: Chromatography
Mole fraction of 2-methyl-2,4-pentanediol	Pressure, kPa	Mole fraction of 2-methyl-2,4-pentanediol	uncertainty
0	40	0	
0.055	40	0.177	0.015
0.105	40	0.293	0.013
0.169	40	0.411	0.012
0.251	40	0.529	0.012
0.35	40	0.639	0.011
0.401	40	0.687	0.011
0.452	40	0.726	0.011
0.507	40	0.763	0.011
0.578	40	0.806	0.01
0.685	40	0.863	0.01
0.803	40	0.917	0.01
1	40	1	
0	60	0	
0.057	60	0.155	0.014
0.107	60	0.267	0.013
0.171	60	0.385	0.012
0.253	60	0.505	0.012
0.352	60	0.617	0.011
0.403	60	0.665	0.011
0.454	60	0.708	0.011
0.509	60	0.75	0.011
0.58	60	0.798	0.01
0.687	60	0.86	0.01
0.805	60	0.917	0.01
1	60	1	
0	80	0	
0.058	80	0.132	0.013
0.108	80	0.233	0.013
0.172	80	0.347	0.012
0.254	80	0.47	0.012
0.353	80	0.592	0.012
0.404	80	0.647	0.011
0.455	80	0.695	0.011
0.51	80	0.742	0.011
0.581	80	0.795	0.011
0.688	80	0.863	0.01
0.806	80	0.922	0.01
1	80	1	
