Measured thermophysical data. Solubility and Modeling of Hesperidin in Cosolvent Mixtures of Ethanol, Isopropanol, Propylene Glycol, and n-Propanol + Water
Source: J. Chem. Eng. Data, 2018, 10.1021/acs.jced.7b00948
Compound 1: (S)-5-hydroxy-2-(3-hydroxy-4-methoxyphenyl)-7-(((2S,3R,4S,5S,6R)-3,4,5-trihydroxy-6-((((2R,3R,4R,5R,6S)-3,4,5-trihydroxy-6-methyltetrahydro-2H-pyran-2-yl)oxy)methyl)tetrahydro-2H-pyran-2-yl)oxy)chroman-4-one, C28H34O15, InChI=1S/C28H34O15/c1-10-21(32)23(34)25(36)27(40-10)39-9-19-22(33)24(35)26(37)28(43-19)41-12-6-14(30)20-15(31)8-17(42-18(20)7-12)11-3-4-16(38-2)13(29)5-11/h3-7,10,17,19,21-30,32-37H,8-9H2,1-2H3/t10-,17-,19+,21-,22+,23+,24-,25+,26+,27+,28+/m0/s1, purity 98.1%
Compound 2: ethanol, C2H6O, InChI=1S/C2H6O/c1-2-3/h3H,2H2,1H3, purity 99.5%
Compound 3: propan-2-ol, C3H8O, InChI=1S/C3H8O/c1-3(2)4/h3-4H,1-2H3, purity 99.4%
Compound 4: 1,2-propanediol, C3H8O2, InChI=1S/C3H8O2/c1-3(5)2-4/h3-5H,2H2,1H3, purity 99.4%
Compound 5: propan-1-ol, C3H8O, InChI=1S/C3H8O/c1-2-3-4/h4H,2-3H2,1H3, purity 99.5%
Compound 6: water, H2O, InChI=1S/H2O/h1H2, purity 99.8%

System: (S)-5-hydroxy-2-(3-hydroxy-4-methoxyphenyl)-7-(((2S,3R,4S,5S,6R)-3,4,5-trihydroxy-6-((((2R,3R,4R,5R,6S)-3,4,5-trihydroxy-6-methyltetrahydro-2H-pyran-2-yl)oxy)methyl)tetrahydro-2H-pyran-2-yl)oxy)chroman-4-one + ethanol + water; phases: Liquid, Crystal
Fixed: Pressure, kPa = 101.1
Property: Mole fraction of (S)-5-hydroxy-2-(3-hydroxy-4-methoxyphenyl)-7-(((2S,3R,4S,5S,6R)-3,4,5-trihydroxy-6-((((2R,3R,4R,5R,6S)-3,4,5-trihydroxy-6-methyltetrahydro-2H-pyran-2-yl)oxy)methyl)tetrahydro-2H-pyran-2-yl)oxy)chroman-4-one (Liquid); method: Chromatography
Mass fraction of ethanol	Temperature, K	Mole fraction of (S)-5-hydroxy-2-(3-hydroxy-4-methoxyphenyl)-7-(((2S,3R,4S,5S,6R)-3,4,5-trihydroxy-6-((((2R,3R,4R,5R,6S)-3,4,5-trihydroxy-6-methyltetrahydro-2H-pyran-2-yl)oxy)methyl)tetrahydro-2H-pyran-2-yl)oxy)chroman-4-one	uncertainty
0.1006	293.15	2.8e-07	1.9e-08
0.1006	298.15	2.9e-07	2e-08
0.1006	303.15	3.01e-07	2.1e-08
0.1006	308.15	3.13e-07	2.1e-08
0.1006	313.15	3.25e-07	2.2e-08
0.1006	318.15	3.39e-07	2.3e-08
0.1006	323.15	3.51e-07	2.4e-08
0.1006	328.15	3.67e-07	2.5e-08
0.1006	333.15	3.82e-07	2.6e-08
0.2001	293.15	6.71e-07	4.6e-08
0.2001	298.15	7.01e-07	4.8e-08
0.2001	303.15	7.34e-07	5e-08
0.2001	308.15	7.7e-07	5.3e-08
0.2001	313.15	8.03e-07	5.5e-08
0.2001	318.15	8.35e-07	5.7e-08
0.2001	323.15	8.68e-07	6e-08
0.2001	328.15	9.03e-07	6.2e-08
0.2001	333.15	9.38e-07	6.5e-08
0.3003	293.15	1.68e-06	1.2e-07
0.3003	298.15	1.76e-06	1.2e-07
0.3003	303.15	1.85e-06	1.3e-07
0.3003	308.15	1.95e-06	1.3e-07
0.3003	313.15	2.04e-06	1.4e-07
0.3003	318.15	2.14e-06	1.5e-07
0.3003	323.15	2.22e-06	1.5e-07
0.3003	328.15	2.34e-06	1.6e-07
0.3003	333.15	2.45e-06	1.7e-07
0.4005	293.15	3.91e-06	2.7e-07
0.4005	298.15	4.1e-06	2.8e-07
0.4005	303.15	4.32e-06	3e-07
0.4005	308.15	4.58e-06	3.1e-07
0.4005	313.15	4.82e-06	3.3e-07
0.4005	318.15	5.08e-06	3.5e-07
0.4005	323.15	5.32e-06	3.7e-07
0.4005	328.15	5.65e-06	3.9e-07
0.4005	333.15	5.93e-06	4.1e-07
0.4988	293.15	7.67e-06	5.3e-07
0.4988	298.15	8.09e-06	5.6e-07
0.4988	303.15	8.61e-06	5.9e-07
0.4988	308.15	9.26e-06	6.4e-07
0.4988	313.15	9.83e-06	6.7e-07
0.4988	318.15	1.05e-05	7e-07
0.4988	323.15	1.1e-05	8e-07
0.4988	328.15	1.18e-05	8e-07
0.4988	333.15	1.25e-05	9e-07
0.5994	293.15	1.29e-05	9e-07
0.5994	298.15	1.38e-05	9e-07
0.5994	303.15	1.48e-05	1e-06
0.5994	308.15	1.6e-05	1.1e-06
0.5994	313.15	1.72e-05	1.2e-06
0.5994	318.15	1.86e-05	1.3e-06
0.5994	323.15	1.98e-05	1.4e-06
0.5994	328.15	2.11e-05	1.4e-06
0.5994	333.15	2.26e-05	1.6e-06
0.7011	293.15	1.81e-05	1.2e-06
0.7011	298.15	1.97e-05	1.4e-06
0.7011	303.15	2.15e-05	1.5e-06
0.7011	308.15	2.35e-05	1.6e-06
0.7011	313.15	2.56e-05	1.8e-06
0.7011	318.15	2.8e-05	1.9e-06
0.7011	323.15	3.01e-05	2.1e-06
0.7011	328.15	3.24e-05	2.2e-06
0.7011	333.15	3.47e-05	2.4e-06
0.8001	293.15	2.26e-05	1.6e-06
0.8001	298.15	2.45e-05	1.7e-06
0.8001	303.15	2.71e-05	1.9e-06
0.8001	308.15	3.01e-05	2.1e-06
0.8001	313.15	3.34e-05	2.3e-06
0.8001	318.15	3.69e-05	2.5e-06
0.8001	323.15	4.03e-05	2.8e-06
0.8001	328.15	4.38e-05	3e-06
0.8001	333.15	4.73e-05	3.2e-06
0.8997	293.15	2.6e-05	1.8e-06
0.8997	298.15	2.88e-05	2e-06
0.8997	303.15	3.24e-05	2.2e-06
0.8997	308.15	3.69e-05	2.5e-06
0.8997	313.15	4.1e-05	2.8e-06
0.8997	318.15	4.62e-05	3.2e-06
0.8997	323.15	5.2e-05	3.6e-06
0.8997	328.15	5.88e-05	4e-06
0.8997	333.15	6.51e-05	4.5e-06

System: (S)-5-hydroxy-2-(3-hydroxy-4-methoxyphenyl)-7-(((2S,3R,4S,5S,6R)-3,4,5-trihydroxy-6-((((2R,3R,4R,5R,6S)-3,4,5-trihydroxy-6-methyltetrahydro-2H-pyran-2-yl)oxy)methyl)tetrahydro-2H-pyran-2-yl)oxy)chroman-4-one + propan-2-ol + water; phases: Liquid, Crystal
Fixed: Pressure, kPa = 101.1
Property: Mole fraction of (S)-5-hydroxy-2-(3-hydroxy-4-methoxyphenyl)-7-(((2S,3R,4S,5S,6R)-3,4,5-trihydroxy-6-((((2R,3R,4R,5R,6S)-3,4,5-trihydroxy-6-methyltetrahydro-2H-pyran-2-yl)oxy)methyl)tetrahydro-2H-pyran-2-yl)oxy)chroman-4-one (Liquid); method: Chromatography
Mass fraction of propan-2-ol	Temperature, K	Mole fraction of (S)-5-hydroxy-2-(3-hydroxy-4-methoxyphenyl)-7-(((2S,3R,4S,5S,6R)-3,4,5-trihydroxy-6-((((2R,3R,4R,5R,6S)-3,4,5-trihydroxy-6-methyltetrahydro-2H-pyran-2-yl)oxy)methyl)tetrahydro-2H-pyran-2-yl)oxy)chroman-4-one	uncertainty
0.1008	293.15	9.67e-07	6.7e-08
0.1008	298.15	9.87e-07	6.8e-08
0.1008	303.15	1.01e-06	7e-08
0.1008	308.15	1.03e-06	7e-08
0.1008	313.15	1.06e-06	7e-08
0.1008	318.15	1.08e-06	7e-08
0.1008	323.15	1.11e-06	8e-08
0.1008	328.15	1.14e-06	8e-08
0.1008	333.15	1.18e-06	8e-08
0.1991	293.15	2.88e-06	2e-07
0.1991	298.15	2.95e-06	2e-07
0.1991	303.15	3.02e-06	2.1e-07
0.1991	308.15	3.1e-06	2.1e-07
0.1991	313.15	3.19e-06	2.2e-07
0.1991	318.15	3.28e-06	2.3e-07
0.1991	323.15	3.38e-06	2.3e-07
0.1991	328.15	3.52e-06	2.4e-07
0.1991	333.15	3.66e-06	2.5e-07
0.3007	293.15	5.31e-06	3.6e-07
0.3007	298.15	5.51e-06	3.8e-07
0.3007	303.15	5.74e-06	3.9e-07
0.3007	308.15	5.95e-06	4.1e-07
0.3007	313.15	6.22e-06	4.3e-07
0.3007	318.15	6.44e-06	4.4e-07
0.3007	323.15	6.76e-06	4.6e-07
0.3007	328.15	7.08e-06	4.9e-07
0.3007	333.15	7.52e-06	5.2e-07
0.4001	293.15	6.93e-06	4.8e-07
0.4001	298.15	7.3e-06	5e-07
0.4001	303.15	7.74e-06	5.3e-07
0.4001	308.15	8.2e-06	5.6e-07
0.4001	313.15	8.67e-06	6e-07
0.4001	318.15	9.18e-06	6.3e-07
0.4001	323.15	9.82e-06	6.7e-07
0.4001	328.15	1.05e-05	7e-07
0.4001	333.15	1.12e-05	8e-07
0.5012	293.15	7.79e-06	5.3e-07
0.5012	298.15	8.37e-06	5.7e-07
0.5012	303.15	9.02e-06	6.2e-07
0.5012	308.15	9.64e-06	6.6e-07
0.5012	313.15	1.05e-05	7e-07
0.5012	318.15	1.13e-05	8e-07
0.5012	323.15	1.24e-05	9e-07
0.5012	328.15	1.35e-05	9e-07
0.5012	333.15	1.51e-05	1e-06
0.5997	293.15	8.32e-06	5.7e-07
0.5997	298.15	9.12e-06	6.3e-07
0.5997	303.15	1.02e-05	7e-07
0.5997	308.15	1.09e-05	8e-07
0.5997	313.15	1.22e-05	8e-07
0.5997	318.15	1.34e-05	9e-07
0.5997	323.15	1.51e-05	1e-06
0.5997	328.15	1.68e-05	1.2e-06
0.5997	333.15	1.93e-05	1.3e-06
0.7004	293.15	9.47e-06	6.5e-07
0.7004	298.15	1.06e-05	7e-07
0.7004	303.15	1.2e-05	8e-07
0.7004	308.15	1.32e-05	9e-07
0.7004	313.15	1.51e-05	1e-06
0.7004	318.15	1.69e-05	1.2e-06
0.7004	323.15	1.94e-05	1.3e-06
0.7004	328.15	2.2e-05	1.5e-06
0.7004	333.15	2.59e-05	1.8e-06
0.8002	293.15	1.13e-05	8e-07
0.8002	298.15	1.29e-05	9e-07
0.8002	303.15	1.49e-05	1e-06
0.8002	308.15	1.7e-05	1.2e-06
0.8002	313.15	1.94e-05	1.3e-06
0.8002	318.15	2.22e-05	1.5e-06
0.8002	323.15	2.61e-05	1.8e-06
0.8002	328.15	3.02e-05	2.1e-06
0.8002	333.15	3.64e-05	2.5e-06
0.9009	293.15	1.22e-05	8e-07
0.9009	298.15	1.43e-05	1e-06
0.9009	303.15	1.67e-05	1.1e-06
0.9009	308.15	2.02e-05	1.4e-06
0.9009	313.15	2.41e-05	1.7e-06
0.9009	318.15	2.76e-05	1.9e-06
0.9009	323.15	3.31e-05	2.3e-06
0.9009	328.15	3.92e-05	2.7e-06
0.9009	333.15	4.85e-05	3.3e-06

System: (S)-5-hydroxy-2-(3-hydroxy-4-methoxyphenyl)-7-(((2S,3R,4S,5S,6R)-3,4,5-trihydroxy-6-((((2R,3R,4R,5R,6S)-3,4,5-trihydroxy-6-methyltetrahydro-2H-pyran-2-yl)oxy)methyl)tetrahydro-2H-pyran-2-yl)oxy)chroman-4-one + 1,2-propanediol + water; phases: Liquid, Crystal
Fixed: Pressure, kPa = 101.1
Property: Mole fraction of (S)-5-hydroxy-2-(3-hydroxy-4-methoxyphenyl)-7-(((2S,3R,4S,5S,6R)-3,4,5-trihydroxy-6-((((2R,3R,4R,5R,6S)-3,4,5-trihydroxy-6-methyltetrahydro-2H-pyran-2-yl)oxy)methyl)tetrahydro-2H-pyran-2-yl)oxy)chroman-4-one (Liquid); method: Chromatography
Mass fraction of 1,2-propanediol	Temperature, K	Mole fraction of (S)-5-hydroxy-2-(3-hydroxy-4-methoxyphenyl)-7-(((2S,3R,4S,5S,6R)-3,4,5-trihydroxy-6-((((2R,3R,4R,5R,6S)-3,4,5-trihydroxy-6-methyltetrahydro-2H-pyran-2-yl)oxy)methyl)tetrahydro-2H-pyran-2-yl)oxy)chroman-4-one	uncertainty
0.1004	293.15	1.26e-06	9e-08
0.1004	298.15	1.29e-06	9e-08
0.1004	303.15	1.31e-06	9e-08
0.1004	308.15	1.34e-06	9e-08
0.1004	313.15	1.37e-06	9e-08
0.1004	318.15	1.4e-06	1e-07
0.1004	323.15	1.43e-06	1e-07
0.1004	328.15	1.46e-06	1e-07
0.1004	333.15	1.5e-06	1.1e-07
0.1997	293.15	6.68e-06	4.7e-07
0.1997	298.15	6.82e-06	4.7e-07
0.1997	303.15	6.95e-06	4.8e-07
0.1997	308.15	7.07e-06	4.9e-07
0.1997	313.15	7.23e-06	5e-07
0.1997	318.15	7.37e-06	5.1e-07
0.1997	323.15	7.53e-06	5.2e-07
0.1997	328.15	7.72e-06	5.3e-07
0.1997	333.15	7.95e-06	5.6e-07
0.3009	293.15	2.43e-05	1.7e-06
0.3009	298.15	2.49e-05	1.7e-06
0.3009	303.15	2.55e-05	1.8e-06
0.3009	308.15	2.61e-05	1.8e-06
0.3009	313.15	2.68e-05	1.8e-06
0.3009	318.15	2.75e-05	1.9e-06
0.3009	323.15	2.83e-05	1.9e-06
0.3009	328.15	2.9e-05	2e-06
0.3009	333.15	3.01e-05	2.1e-06
0.4005	293.15	6.11e-05	4.2e-06
0.4005	298.15	6.34e-05	4.4e-06
0.4005	303.15	6.54e-05	4.5e-06
0.4005	308.15	6.79e-05	4.7e-06
0.4005	313.15	7.05e-05	4.8e-06
0.4005	318.15	7.36e-05	5.1e-06
0.4005	323.15	7.63e-05	5.2e-06
0.4005	328.15	7.89e-05	5.4e-06
0.4005	333.15	8.27e-05	5.7e-06
0.5001	293.15	0.000118	8e-06
0.5001	298.15	0.000125	9e-06
0.5001	303.15	0.000131	9e-06
0.5001	308.15	0.000138	9e-06
0.5001	313.15	0.000146	1e-05
0.5001	318.15	0.000153	1.1e-05
0.5001	323.15	0.000161	1.1e-05
0.5001	328.15	0.00017	1.2e-05
0.5001	333.15	0.000181	1.2e-05
0.5998	293.15	0.000187	1.3e-05
0.5998	298.15	0.000202	1.4e-05
0.5998	303.15	0.000214	1.5e-05
0.5998	308.15	0.000231	1.6e-05
0.5998	313.15	0.000248	1.7e-05
0.5998	318.15	0.000267	1.8e-05
0.5998	323.15	0.000284	2e-05
0.5998	328.15	0.000303	2.1e-05
0.5998	333.15	0.000328	2.3e-05
0.7005	293.15	0.000256	1.8e-05
0.7005	298.15	0.000286	2e-05
0.7005	303.15	0.00031	2.1e-05
0.7005	308.15	0.000336	2.3e-05
0.7005	313.15	0.00037	2.5e-05
0.7005	318.15	0.000405	2.8e-05
0.7005	323.15	0.000441	3e-05
0.7005	328.15	0.000478	3.3e-05
0.7005	333.15	0.000532	3.7e-05
0.8011	293.15	0.000318	2.2e-05
0.8011	298.15	0.000365	2.5e-05
0.8011	303.15	0.000405	2.8e-05
0.8011	308.15	0.000453	3.1e-05
0.8011	313.15	0.000509	3.5e-05
0.8011	318.15	0.000563	3.9e-05
0.8011	323.15	0.000625	4.3e-05
0.8011	328.15	0.000691	4.7e-05
0.8011	333.15	0.000779	5.4e-05
0.9002	293.15	0.000376	2.6e-05
0.9002	298.15	0.000443	3e-05
0.9002	303.15	0.000511	3.5e-05
0.9002	308.15	0.000574	3.9e-05
0.9002	313.15	0.000656	4.5e-05
0.9002	318.15	0.000745	5.1e-05
0.9002	323.15	0.000846	5.8e-05
0.9002	328.15	0.000953	6.5e-05
0.9002	333.15	0.0011	8e-05

System: (S)-5-hydroxy-2-(3-hydroxy-4-methoxyphenyl)-7-(((2S,3R,4S,5S,6R)-3,4,5-trihydroxy-6-((((2R,3R,4R,5R,6S)-3,4,5-trihydroxy-6-methyltetrahydro-2H-pyran-2-yl)oxy)methyl)tetrahydro-2H-pyran-2-yl)oxy)chroman-4-one + propan-1-ol + water; phases: Liquid, Crystal
Fixed: Pressure, kPa = 101.1
Property: Mole fraction of (S)-5-hydroxy-2-(3-hydroxy-4-methoxyphenyl)-7-(((2S,3R,4S,5S,6R)-3,4,5-trihydroxy-6-((((2R,3R,4R,5R,6S)-3,4,5-trihydroxy-6-methyltetrahydro-2H-pyran-2-yl)oxy)methyl)tetrahydro-2H-pyran-2-yl)oxy)chroman-4-one (Liquid); method: Chromatography
Mass fraction of propan-1-ol	Temperature, K	Mole fraction of (S)-5-hydroxy-2-(3-hydroxy-4-methoxyphenyl)-7-(((2S,3R,4S,5S,6R)-3,4,5-trihydroxy-6-((((2R,3R,4R,5R,6S)-3,4,5-trihydroxy-6-methyltetrahydro-2H-pyran-2-yl)oxy)methyl)tetrahydro-2H-pyran-2-yl)oxy)chroman-4-one	uncertainty
0.1007	293.15	2e-06	1.4e-07
0.1007	298.15	2.02e-06	1.4e-07
0.1007	303.15	2.04e-06	1.4e-07
0.1007	308.15	2.06e-06	1.4e-07
0.1007	313.15	2.08e-06	1.4e-07
0.1007	318.15	2.11e-06	1.4e-07
0.1007	323.15	2.13e-06	1.5e-07
0.1007	328.15	2.16e-06	1.5e-07
0.1007	333.15	2.19e-06	1.6e-07
0.1997	293.15	9.42e-06	6.5e-07
0.1997	298.15	9.5e-06	6.5e-07
0.1997	303.15	9.58e-06	6.6e-07
0.1997	308.15	9.66e-06	6.6e-07
0.1997	313.15	9.74e-06	6.7e-07
0.1997	318.15	9.82e-06	6.7e-07
0.1997	323.15	9.9e-06	6.8e-07
0.1997	328.15	1e-05	7e-07
0.1997	333.15	1.01e-05	7e-07
0.3001	293.15	2.25e-05	1.5e-06
0.3001	298.15	2.29e-05	1.6e-06
0.3001	303.15	2.32e-05	1.6e-06
0.3001	308.15	2.36e-05	1.6e-06
0.3001	313.15	2.4e-05	1.6e-06
0.3001	318.15	2.44e-05	1.7e-06
0.3001	323.15	2.48e-05	1.7e-06
0.3001	328.15	2.53e-05	1.7e-06
0.3001	333.15	2.57e-05	1.8e-06
0.4003	293.15	3.45e-05	2.4e-06
0.4003	298.15	3.56e-05	2.4e-06
0.4003	303.15	3.68e-05	2.5e-06
0.4003	308.15	3.81e-05	2.6e-06
0.4003	313.15	3.91e-05	2.7e-06
0.4003	318.15	4.05e-05	2.8e-06
0.4003	323.15	4.15e-05	2.8e-06
0.4003	328.15	4.29e-05	2.9e-06
0.4003	333.15	4.44e-05	3e-06
0.5011	293.15	4.29e-05	2.9e-06
0.5011	298.15	4.46e-05	3.1e-06
0.5011	303.15	4.76e-05	3.3e-06
0.5011	308.15	4.92e-05	3.4e-06
0.5011	313.15	5.27e-05	3.6e-06
0.5011	318.15	5.46e-05	3.7e-06
0.5011	323.15	5.79e-05	4e-06
0.5011	328.15	6.02e-05	4.1e-06
0.5011	333.15	6.36e-05	4.4e-06
0.5988	293.15	4.98e-05	3.4e-06
0.5988	298.15	5.39e-05	3.7e-06
0.5988	303.15	5.71e-05	3.9e-06
0.5988	308.15	6.17e-05	4.2e-06
0.5988	313.15	6.56e-05	4.5e-06
0.5988	318.15	7.04e-05	4.8e-06
0.5988	323.15	7.46e-05	5.1e-06
0.5988	328.15	8e-05	5.5e-06
0.5988	333.15	8.55e-05	5.9e-06
0.7002	293.15	6.02e-05	4.1e-06
0.7002	298.15	6.54e-05	4.5e-06
0.7002	303.15	7.24e-05	5e-06
0.7002	308.15	7.88e-05	5.4e-06
0.7002	313.15	8.75e-05	6e-06
0.7002	318.15	9.31e-05	6.4e-06
0.7002	323.15	0.000102	7e-06
0.7002	328.15	0.000111	8e-06
0.7002	333.15	0.00012	8e-06
0.8007	293.15	8.01e-05	5.5e-06
0.8007	298.15	8.94e-05	6.1e-06
0.8007	303.15	9.67e-05	6.6e-06
0.8007	308.15	0.000109	8e-06
0.8007	313.15	0.00012	8e-06
0.8007	318.15	0.000136	9e-06
0.8007	323.15	0.000146	1e-05
0.8007	328.15	0.000165	1.1e-05
0.8007	333.15	0.000181	1.2e-05
0.9005	293.15	0.000111	8e-06
0.9005	298.15	0.000122	8e-06
0.9005	303.15	0.000138	9e-06
0.9005	308.15	0.000156	1.1e-05
0.9005	313.15	0.00018	1.2e-05
0.9005	318.15	0.000199	1.4e-05
0.9005	323.15	0.000227	1.6e-05
0.9005	328.15	0.000249	1.7e-05
0.9005	333.15	0.000282	1.9e-05
1	293.15	0.000142	1e-05
1	298.15	0.000166	1.1e-05
1	303.15	0.00019	1.3e-05
1	308.15	0.000218	1.5e-05
1	313.15	0.000252	1.7e-05
1	318.15	0.000289	2e-05
1	323.15	0.000329	2.3e-05
1	328.15	0.000375	2.6e-05
1	333.15	0.000425	2.9e-05
