Measured thermophysical data. Vapor Liquid Equilibria Measurement of (Methanol + Ethanenitrile + Bis(trifluoromethylsulfonyl) Imide)-Based Ionic Liquids at 101.3 kPa
Source: J. Chem. Eng. Data, 2016, 10.1021/acs.jced.5b00796
Compound 1: methanol, CH4O, InChI=1S/CH4O/c1-2/h2H,1H3, purity 99.5%
Compound 2: acetonitrile, C2H3N, InChI=1S/C2H3N/c1-2-3/h1H3, purity 99.5%
Compound 3: 1-ethyl-3-methylimidazolium bis((trifluoromethyl)sulfonyl)imide, C8H11F6N3O4S2, InChI=1S/C6H11N2.C2F6NO4S2/c1-3-8-5-4-7(2)6-8;3-1(4,5)14(10,11)9-15(12,13)2(6,7)8/h4-6H,3H2,1-2H3;/q+1;-1, purity 99%
Compound 4: 1-butyl-3-methylimidazolium bis(trifluoromethylsulfonyl)imide, C10H15F6N3O4S2, InChI=1S/C8H15N2.C2F6NO4S2/c1-3-4-5-10-7-6-9(2)8-10;3-1(4,5)14(10,11)9-15(12,13)2(6,7)8/h6-8H,3-5H2,1-2H3;/q+1;-1, purity 99%

System: methanol; phases: Liquid, Gas
Property: Vapor or sublimation pressure, kPa (Liquid); method: Ebulliometric method (Recirculating still)
Temperature, K	Vapor or sublimation pressure, kPa	uncertainty
337.85	101.32	1.03

System: acetonitrile; phases: Liquid, Gas
Property: Vapor or sublimation pressure, kPa (Liquid); method: Ebulliometric method (Recirculating still)
Temperature, K	Vapor or sublimation pressure, kPa	uncertainty
354.25	101.32	1.03

System: methanol + acetonitrile; phases: Liquid, Gas
Fixed: Pressure, kPa = 101.32
Property: Boiling temperature at pressure P, K (Liquid); method: Ebulliometric method (Recirculating still)
Mole fraction of methanol	Boiling temperature at pressure P, K	uncertainty
0	354.25	0.22
0.086	347.85	0.31
0.19	343.45	0.26
0.284	341.15	0.23
0.386	339.35	0.23
0.498	338.2	0.22
0.548	337.8	0.22
0.598	337.45	0.22
0.646	337.15	0.22
0.7	336.85	0.22
0.748	336.65	0.22
0.802	336.55	0.22
0.854	336.7	0.22
0.902	337	0.22
0.948	337.45	0.22
1	337.85	0.22

System: methanol + acetonitrile; phases: Gas, Liquid
Fixed: Pressure, kPa = 101.32
Property: Mole fraction of methanol (Gas); method: Chromatography
Mole fraction of methanol	Mole fraction of methanol	uncertainty
0	0	
0.086	0.252	0.01
0.19	0.414	0.008
0.284	0.508	0.007
0.386	0.576	0.006
0.498	0.638	0.006
0.548	0.658	0.006
0.598	0.688	0.006
0.646	0.714	0.005
0.7	0.742	0.005
0.748	0.768	0.005
0.802	0.804	0.005
0.854	0.838	0.005
0.902	0.884	0.006
0.948	0.934	0.006
1	1	

System: methanol + acetonitrile + 1-ethyl-3-methylimidazolium bis((trifluoromethyl)sulfonyl)imide; phases: Liquid, Gas
Fixed: Pressure, kPa = 101.32
Property: Boiling temperature at pressure P, K (Liquid); method: Ebulliometric method (Recirculating still)
Mole fraction of 1-ethyl-3-methylimidazolium bis((trifluoromethyl)sulfonyl)imide	Solvent: Mole fraction of methanol	Boiling temperature at pressure P, K	uncertainty
0.05	0.043	352.75	0.35
0.05	0.148	346.85	0.3
0.048	0.255	343.75	0.27
0.05	0.378	341.25	0.25
0.05	0.466	340.35	0.25
0.05	0.58	339.35	0.24
0.05	0.691	338.68	0.24
0.05	0.792	338.35	0.24
0.05	0.894	338.5	0.23
0.1	0.051	356.25	0.4
0.1	0.145	350.7	0.33
0.1	0.257	346.95	0.29
0.1	0.36	344.35	0.28
0.1	0.458	343.05	0.26
0.1	0.562	341.85	0.25
0.1	0.67	341.05	0.25
0.1	0.777	340.65	0.24
0.1	0.886	340.55	0.24
0.15	0.03	363.75	0.51
0.15	0.087	357.95	0.39
0.15	0.199	352.85	0.32
0.15	0.307	350.25	0.3
0.15	0.426	347.25	0.28
0.15	0.53	345.55	0.27
0.15	0.632	344.45	0.26
0.15	0.773	343.65	0.25
0.15	0.87	343.15	0.24

System: methanol + acetonitrile + 1-ethyl-3-methylimidazolium bis((trifluoromethyl)sulfonyl)imide; phases: Gas, Liquid
Property: Mole fraction of methanol (Gas); method: Chromatography
Temperature, K	Solvent: Mole fraction of methanol	Mole fraction of 1-ethyl-3-methylimidazolium bis((trifluoromethyl)sulfonyl)imide	Mole fraction of methanol	uncertainty
352.75	0.043	0.05	0.155	0.011
346.85	0.148	0.05	0.386	0.011
343.75	0.255	0.048	0.51	0.013
341.25	0.378	0.05	0.605	0.009
340.35	0.466	0.05	0.666	0.009
339.35	0.58	0.05	0.715	0.006
338.68	0.691	0.05	0.776	0.006
338.35	0.792	0.05	0.839	0.006
338.5	0.894	0.05	0.91	0.005
356.25	0.051	0.1	0.191	0.012
350.7	0.145	0.1	0.402	0.012
346.95	0.257	0.1	0.532	0.009
344.35	0.36	0.1	0.628	0.009
343.05	0.458	0.1	0.691	0.011
341.85	0.562	0.1	0.734	0.009
341.05	0.67	0.1	0.8	0.007
340.65	0.777	0.1	0.861	0.006
340.55	0.886	0.1	0.927	0.005
363.75	0.03	0.15	0.131	0.008
357.95	0.087	0.15	0.293	0.008
352.85	0.199	0.15	0.464	0.008
350.25	0.307	0.15	0.588	0.008
347.25	0.426	0.15	0.676	0.006
345.55	0.53	0.15	0.746	0.006
344.45	0.632	0.15	0.813	0.006
343.65	0.773	0.15	0.875	0.005
343.15	0.87	0.15	0.933	0.005

System: methanol + acetonitrile + 1-butyl-3-methylimidazolium bis(trifluoromethylsulfonyl)imide; phases: Liquid, Gas
Fixed: Pressure, kPa = 101.32
Property: Boiling temperature at pressure P, K (Liquid); method: Ebulliometric method (Recirculating still)
Mole fraction of 1-butyl-3-methylimidazolium bis(trifluoromethylsulfonyl)imide	Solvent: Mole fraction of methanol	Boiling temperature at pressure P, K	uncertainty
0.053	0.065	352.15	0.31
0.053	0.157	347.45	0.28
0.053	0.258	344.25	0.26
0.053	0.373	341.85	0.25
0.053	0.476	340.4	0.24
0.053	0.582	339.35	0.23
0.053	0.687	338.75	0.23
0.053	0.793	338.55	0.23
0.053	0.896	338.65	0.23
0.106	0.041	355.65	0.35
0.106	0.149	350.35	0.32
0.106	0.249	347	0.3
0.106	0.359	344.55	0.27
0.107	0.46	343.1	0.26
0.106	0.56	341.55	0.26
0.106	0.673	340.65	0.25
0.106	0.78	340.35	0.23
0.106	0.888	340.25	0.23
0.159	0.052	360.45	0.35
0.159	0.113	357.65	0.36
0.159	0.193	354.55	0.35
0.159	0.325	349.75	0.31
0.159	0.414	348.15	0.29
0.159	0.553	346.25	0.28
0.159	0.642	344.7	0.27
0.158	0.776	342.85	0.25
0.159	0.893	342.75	0.24

System: methanol + acetonitrile + 1-butyl-3-methylimidazolium bis(trifluoromethylsulfonyl)imide; phases: Gas, Liquid
Property: Mole fraction of methanol (Gas); method: Chromatography
Temperature, K	Solvent: Mole fraction of methanol	Mole fraction of 1-butyl-3-methylimidazolium bis(trifluoromethylsulfonyl)imide	Mole fraction of methanol	uncertainty
352.15	0.065	0.053	0.217	0.008
347.45	0.157	0.053	0.376	0.008
344.25	0.258	0.053	0.499	0.01
341.85	0.373	0.053	0.595	0.01
340.4	0.476	0.053	0.656	0.008
339.35	0.582	0.053	0.721	0.006
338.75	0.687	0.053	0.778	0.006
338.55	0.793	0.053	0.844	0.006
338.65	0.896	0.053	0.91	0.005
355.65	0.041	0.106	0.182	0.009
350.35	0.149	0.106	0.39	0.01
347	0.249	0.106	0.493	0.007
344.55	0.359	0.106	0.595	0.009
343.1	0.46	0.107	0.668	0.009
341.55	0.56	0.106	0.734	0.007
340.65	0.673	0.106	0.802	0.005
340.35	0.78	0.106	0.864	0.005
340.25	0.888	0.106	0.924	0.009
360.45	0.052	0.159	0.238	0.009
357.65	0.113	0.159	0.343	0.015
354.55	0.193	0.159	0.464	0.015
349.75	0.325	0.159	0.587	0.007
348.15	0.414	0.159	0.66	0.008
346.25	0.553	0.159	0.748	0.007
344.7	0.642	0.159	0.806	0.007
342.85	0.776	0.158	0.876	0.006
342.75	0.893	0.159	0.937	0.006
