Measured thermophysical data. Investigation of Solid-Liquid Equilibria on the Na+//Cl-, NO3-, SO42--H2O System and the Na+//NO3-, SO42--H2O System at 313.15 K
Source: J. Chem. Eng. Data, 2019, 10.1021/acs.jced.8b01110
Compound 1: sodium nitrate, NNaO3, InChI=1S/NO3.Na/c2-1(3)4;/q-1;+1, purity 99%
Compound 2: sodium sulfate, Na2O4S, InChI=1S/2Na.H2O4S/c;;1-5(2,3)4/h;;(H2,1,2,3,4)/q2*+1;/p-2, purity 99%
Compound 3: sodium chloride, ClNa, InChI=1S/ClH.Na/h1H;/q;+1/p-1, purity 99.5%
Compound 4: water, H2O, InChI=1S/H2O/h1H2, purity 99.9%

System: sodium sulfate + sodium chloride + water; phases: Liquid, Crystal
Property: Mass fraction of sodium chloride (Liquid); method: Titration method
Mass fraction of sodium sulfate	Pressure, kPa	Temperature, K	Mass fraction of sodium chloride	uncertainty
0.058	88.4	313.15	0.2373	0.01

System: sodium sulfate + sodium chloride + water; phases: Liquid
Property: Mass density, kg/m3 (Liquid); method: Pycnometric method
Mass fraction of sodium sulfate	Mass fraction of sodium chloride	Pressure, kPa	Temperature, K	Mass density, kg/m3	uncertainty
0.058	0.2373	88.4	313.15	1225.8	10.4

System: sodium sulfate + sodium chloride + water; phases: Liquid
Property: Viscosity, Pa*s (Liquid); method: Capillary tube (Ostwald; Ubbelohde) method
Mass fraction of sodium sulfate	Mass fraction of sodium chloride	Pressure, kPa	Temperature, K	Viscosity, Pa*s	uncertainty
0.058	0.2373	88.4	313.15	0.001507	0.0003015

System: sodium sulfate + sodium chloride + water; phases: Liquid
Property: Refractive index (Na D-line) (Liquid); method: Standard Abbe refractometry
Mass fraction of sodium sulfate	Mass fraction of sodium chloride	Pressure, kPa	Temperature, K	Refractive index (Na D-line)	uncertainty
0.058	0.2373	88.4	313.15	1.38132	0.00085

System: sodium sulfate + sodium chloride + water; phases: Liquid, Crystal
Property: Mass fraction of sodium chloride (Liquid); method: Titration method
Mass fraction of sodium sulfate	Pressure, kPa	Temperature, K	Mass fraction of sodium chloride	uncertainty
0.058	88.4	313.15	0.2373	0.01

System: sodium sulfate + sodium nitrate + water; phases: Liquid, Crystal
Fixed: Pressure, kPa = 88.4
Fixed: Temperature, K = 313.15
Property: Mass fraction of sodium nitrate (Liquid); method: Titration method
Mass fraction of sodium sulfate	Mass fraction of sodium nitrate	uncertainty
0.3289	0	
0.288	0.0486	0.0245
0.2467	0.0975	0.0248
0.2105	0.1439	0.0257
0.177	0.191	0.0262
0.1489	0.2305	0.0271
0.1256	0.2694	0.0293
0.1066	0.3061	0.0325
0.0916	0.3423	0.0352
0.0799	0.3582	0.0308
0.0796	0.3575	0.0304

System: sodium sulfate + sodium nitrate + water; phases: Liquid, Crystal of intercomponent compound 1
Fixed: Pressure, kPa = 88.4
Fixed: Temperature, K = 313.15
Property: Mass fraction of sodium nitrate (Liquid); method: Titration method
Mass fraction of sodium sulfate	Mass fraction of sodium nitrate	uncertainty
0.0799	0.3582	0.02
0.0796	0.3575	0.02
0.072	0.3823	0.02
0.0662	0.3952	0.02
0.0526	0.4174	0.02
0.045	0.4256	0.02
0.0353	0.4504	0.02
0.0248	0.4897	0.02
0.0248	0.4901	0.02

System: sodium sulfate + sodium nitrate + water; phases: Liquid, Crystal
Fixed: Pressure, kPa = 88.4
Fixed: Temperature, K = 313.15
Property: Mass fraction of sodium nitrate (Liquid); method: Titration method
Mass fraction of sodium sulfate	Mass fraction of sodium nitrate	uncertainty
0.0248	0.4897	0.02
0.0248	0.4901	0.02
0.0128	0.4978	0.02
0	0.5082	0.02

System: sodium sulfate + sodium nitrate + water; phases: Liquid
Fixed: Pressure, kPa = 88.4
Fixed: Temperature, K = 313.15
Property: Mass density, kg/m3 (Liquid); method: Pycnometric method
Mass fraction of sodium sulfate	Mass fraction of sodium nitrate	Mass density, kg/m3	uncertainty
0.3289	0	1317	10.1
0.288	0.0486	1309.4	10.5
0.2467	0.0975	1304.5	10.5
0.2105	0.1439	1302.2	10.5
0.177	0.191	1308.9	10.5
0.1489	0.2305	1318.2	10.5
0.1256	0.2694	1329.3	10.5
0.1066	0.3061	1341.1	10.5
0.0916	0.3423	1351.1	10.5
0.0799	0.3582	1361.5	10.5
0.0796	0.3575	1362.6	10.5
0.072	0.3823	1364.7	10.5
0.0662	0.3952	1369.1	10.5
0.0526	0.4174	1381.1	10.5
0.045	0.4256	1388	10.5
0.0353	0.4504	1400.3	10.5
0.0248	0.4897	1427	10.6
0.0248	0.4901	1426.8	10.6
0.0128	0.4978	1417.5	10.5
0	0.5082	1408.4	10.4
0.0247	0.4885	1423.5	10.6
0.08	0.3579	1358.4	10.5

System: sodium sulfate + sodium nitrate + water; phases: Liquid
Fixed: Pressure, kPa = 88.4
Fixed: Temperature, K = 313.15
Property: Viscosity, Pa*s (Liquid); method: Capillary tube (Ostwald; Ubbelohde) method
Mass fraction of sodium sulfate	Mass fraction of sodium nitrate	Viscosity, Pa*s	uncertainty
0.3289	0	0.0027029	0.0005408
0.288	0.0486	0.0023877	0.0004777
0.2467	0.0975	0.0021812	0.0004364
0.2105	0.1439	0.0020019	0.0004006
0.177	0.191	0.0018937	0.0003789
0.1489	0.2305	0.0019072	0.0003816
0.1256	0.2694	0.0018875	0.0003777
0.1066	0.3061	0.0019311	0.0003864
0.0916	0.3423	0.0019483	0.0003898
0.0799	0.3582	0.0019835	0.0003969
0.0796	0.3575	0.0019898	0.0003981
0.072	0.3823	0.0020191	0.000404
0.0662	0.3952	0.0020374	0.0004077
0.0526	0.4174	0.0020841	0.000417
0.045	0.4256	0.0020873	0.0004177
0.0353	0.4504	0.002149	0.00043
0.0248	0.4897	0.0023643	0.0004731
0.0248	0.4901	0.0023424	0.0004687
0.0128	0.4978	0.0022501	0.0004502
0	0.5082	0.00214	0.0004282
0.0247	0.4885	0.0023485	0.0004699
0.08	0.3579	0.0019786	0.0003959

System: sodium sulfate + sodium nitrate + water; phases: Liquid
Fixed: Pressure, kPa = 88.4
Fixed: Temperature, K = 313.15
Property: Refractive index (Na D-line) (Liquid); method: Standard Abbe refractometry
Mass fraction of sodium sulfate	Mass fraction of sodium nitrate	Refractive index (Na D-line)	uncertainty
0.3289	0	1.37791	0.0009
0.288	0.0486	1.37695	0.09643
0.2467	0.0975	1.37667	0.00176
0.2105	0.1439	1.37664	0.00379
0.177	0.191	1.37722	0.00096
0.1489	0.2305	1.37824	0.00279
0.1256	0.2694	1.37977	0.00267
0.1066	0.3061	1.38155	0.00113
0.0916	0.3423	1.38313	0.0015
0.0799	0.3582	1.38434	0.00594
0.0796	0.3575	1.38438	0.00525
0.072	0.3823	1.38256	0.00928
0.0662	0.3952	1.38532	0.00254
0.0526	0.4174	1.38715	0.00171
0.045	0.4256	1.38802	0.00218
0.0353	0.4504	1.38899	0.00343
0.0248	0.4897	1.39289	0.00348
0.0248	0.4901	1.3929	0.00343
0.0128	0.4978	1.39233	0.0039
0	0.5082	1.39164	0.00276
0.0247	0.4885	1.39327	0.00422
0.08	0.3579	1.3846	0.00687

System: sodium nitrate + sodium chloride + water; phases: Liquid, Crystal
Property: Mass fraction of sodium chloride (Liquid); method: Titration method
Mass fraction of sodium nitrate	Pressure, kPa	Temperature, K	Mass fraction of sodium chloride	uncertainty
0.3782	88.4	313.15	0.1102	0.01

System: sodium nitrate + sodium chloride + water; phases: Liquid, Crystal
Property: Mass fraction of sodium chloride (Liquid); method: Titration method
Mass fraction of sodium nitrate	Pressure, kPa	Temperature, K	Mass fraction of sodium chloride	uncertainty
0.3782	88.4	313.15	0.1102	0.01

System: sodium nitrate + sodium chloride + water; phases: Liquid
Property: Mass density, kg/m3 (Liquid); method: Pycnometric method
Mass fraction of sodium nitrate	Mass fraction of sodium chloride	Pressure, kPa	Temperature, K	Mass density, kg/m3	uncertainty
0.3782	0.1102	88.4	313.15	1393.6	10.2

System: sodium nitrate + sodium chloride + water; phases: Liquid
Property: Viscosity, Pa*s (Liquid); method: Capillary tube (Ostwald; Ubbelohde) method
Mass fraction of sodium nitrate	Mass fraction of sodium chloride	Pressure, kPa	Temperature, K	Viscosity, Pa*s	uncertainty
0.3782	0.1102	88.4	313.15	0.002407	0.0004816

System: sodium nitrate + sodium chloride + water; phases: Liquid
Property: Refractive index (Na D-line) (Liquid); method: Standard Abbe refractometry
Mass fraction of sodium nitrate	Mass fraction of sodium chloride	Pressure, kPa	Temperature, K	Refractive index (Na D-line)	uncertainty
0.3782	0.1102	88.4	313.15	1.3964	0.00086

System: sodium sulfate + water; phases: Liquid, Crystal
Property: Mass fraction of sodium sulfate (Liquid); method: Titration method
Pressure, kPa	Temperature, K	Mass fraction of sodium sulfate	uncertainty
88.4	313.15	0.3289	0.012

System: sodium sulfate + water; phases: Liquid
Property: Mass density, kg/m3 (Liquid); method: Pycnometric method
Mass fraction of sodium sulfate	Pressure, kPa	Temperature, K	Mass density, kg/m3	uncertainty
0.3289	88.4	313.15	1317	10.1

System: sodium sulfate + water; phases: Liquid
Property: Viscosity, Pa*s (Liquid); method: Capillary tube (Ostwald; Ubbelohde) method
Mass fraction of sodium sulfate	Pressure, kPa	Temperature, K	Viscosity, Pa*s	uncertainty
0.3289	88.4	313.15	0.0027029	0.0005408

System: sodium sulfate + water; phases: Liquid
Property: Refractive index (Na D-line) (Liquid); method: Standard Abbe refractometry
Mass fraction of sodium sulfate	Pressure, kPa	Temperature, K	Refractive index (Na D-line)	uncertainty
0.3289	88.4	313.15	1.37791	0.00085

System: sodium nitrate + water; phases: Liquid, Crystal
Property: Mass fraction of sodium nitrate (Liquid); method: Titration method
Pressure, kPa	Temperature, K	Mass fraction of sodium nitrate	uncertainty
88.4	313.15	0.5082	0.02

System: sodium nitrate + water; phases: Liquid
Property: Mass density, kg/m3 (Liquid); method: Pycnometric method
Mass fraction of sodium nitrate	Pressure, kPa	Temperature, K	Mass density, kg/m3	uncertainty
0.5082	88.4	313.15	1408.4	10.4

System: sodium nitrate + water; phases: Liquid
Property: Viscosity, Pa*s (Liquid); method: Capillary tube (Ostwald; Ubbelohde) method
Mass fraction of sodium nitrate	Pressure, kPa	Temperature, K	Viscosity, Pa*s	uncertainty
0.5082	88.4	313.15	0.00214	0.0004282

System: sodium nitrate + water; phases: Liquid
Property: Refractive index (Na D-line) (Liquid); method: Standard Abbe refractometry
Mass fraction of sodium nitrate	Pressure, kPa	Temperature, K	Refractive index (Na D-line)	uncertainty
0.5082	88.4	313.15	1.39164	0.00086
