Measured thermophysical data. Solubility Determination and Modeling for Artesunate in Binary Solvent Mixtures of Methanol, Ethanol, Isopropanol, and Propylene Glycol + Water
Source: J. Chem. Eng. Data, 2019, 10.1021/acs.jced.8b00988
Compound 1: artesunate, C19H28O8, InChI=1S/C19H28O8/c1-10-4-5-13-11(2)16(23-15(22)7-6-14(20)21)24-17-19(13)12(10)8-9-18(3,25-17)26-27-19/h10-13,16-17H,4-9H2,1-3H3,(H,20,21)/t10-,11-,12+,13+,16-,17-,18-,19-/m1/s1, purity 98.9%
Compound 2: methanol, CH4O, InChI=1S/CH4O/c1-2/h2H,1H3, purity 99.5%
Compound 3: ethanol, C2H6O, InChI=1S/C2H6O/c1-2-3/h3H,2H2,1H3, purity 99.4%
Compound 4: propan-2-ol, C3H8O, InChI=1S/C3H8O/c1-3(2)4/h3-4H,1-2H3, purity 99.4%
Compound 5: 1,2-propanediol, C3H8O2, InChI=1S/C3H8O2/c1-3(5)2-4/h3-5H,2H2,1H3, purity 99.5%
Compound 6: water, H2O, InChI=1S/H2O/h1H2, purity 99.9%

System: artesunate + methanol + water; phases: Liquid, Crystal
Fixed: Pressure, kPa = 101.1
Property: Mole fraction of artesunate (Liquid); method: Chromatography
Temperature, K	Solvent: Mass fraction of methanol	Mole fraction of artesunate	uncertainty
278.15	1	0.004971	0.000448
283.15	1	0.005383	0.000485
288.15	1	0.00606	0.000546
293.15	1	0.006765	0.000609
298.15	1	0.007469	0.000672
303.15	1	0.008174	0.000736
308.15	1	0.009057	0.000815
313.15	1	0.009941	0.000895
318.15	1	0.01082	0.00097
278.15	0.9008	0.004183	0.000377
283.15	0.9008	0.004593	0.000414
288.15	0.9008	0.005205	0.000469
293.15	0.9008	0.005883	0.00053
298.15	0.9008	0.006526	0.000588
303.15	0.9008	0.007211	0.000649
308.15	0.9008	0.008038	0.000724
313.15	0.9008	0.008876	0.000799
318.15	0.9008	0.009705	0.000874
278.15	0.8001	0.003278	0.000295
283.15	0.8001	0.003681	0.000331
288.15	0.8001	0.004149	0.000374
293.15	0.8001	0.004765	0.000429
298.15	0.8001	0.005319	0.000479
303.15	0.8001	0.005942	0.000535
308.15	0.8001	0.006674	0.000601
313.15	0.8001	0.007398	0.000666
318.15	0.8001	0.008185	0.000737
278.15	0.6992	0.002475	0.000223
283.15	0.6992	0.002804	0.000252
288.15	0.6992	0.003229	0.000291
293.15	0.6992	0.003703	0.000333
298.15	0.6992	0.004165	0.000375
303.15	0.6992	0.004709	0.000424
308.15	0.6992	0.005335	0.00048
313.15	0.6992	0.005984	0.000539
318.15	0.6992	0.006682	0.000602
278.15	0.6003	0.001825	0.000164
283.15	0.6003	0.002119	0.000191
288.15	0.6003	0.002457	0.000221
293.15	0.6003	0.002845	0.000256
298.15	0.6003	0.003221	0.00029
303.15	0.6003	0.003683	0.000332
308.15	0.6003	0.004204	0.000378
313.15	0.6003	0.004754	0.000428
318.15	0.6003	0.00534	0.000481
278.15	0.5001	0.001278	0.000115
283.15	0.5001	0.001511	0.000136
288.15	0.5001	0.00177	0.000159
293.15	0.5001	0.00207	0.000186
298.15	0.5001	0.002364	0.000213
303.15	0.5001	0.002736	0.000246
308.15	0.5001	0.003153	0.000284
313.15	0.5001	0.003583	0.000323
318.15	0.5001	0.004081	0.000367
278.15	0.3998	0.000816	7.35e-05
283.15	0.3998	0.0009746	8.78e-05
288.15	0.3998	0.001156	0.000104
293.15	0.3998	0.001371	0.000123
298.15	0.3998	0.001581	0.000142
303.15	0.3998	0.001858	0.000167
308.15	0.3998	0.002166	0.000195
313.15	0.3998	0.002497	0.000225
318.15	0.3998	0.002877	0.000259
278.15	0.2999	0.0004447	4e-05
283.15	0.2999	0.0005428	4.89e-05
288.15	0.2999	0.0006526	5.88e-05
293.15	0.2999	0.0007859	7.08e-05
298.15	0.2999	0.0009175	8.26e-05
303.15	0.2999	0.001097	9.9e-05
308.15	0.2999	0.001294	0.000117
313.15	0.2999	0.001512	0.000136
318.15	0.2999	0.001766	0.000159
278.15	0.2003	0.0001886	1.7e-05
283.15	0.2003	0.0002395	2.16e-05
288.15	0.2003	0.0002924	2.63e-05
293.15	0.2003	0.0003584	3.23e-05
298.15	0.2003	0.0004247	3.82e-05
303.15	0.2003	0.0005171	4.66e-05
308.15	0.2003	0.0006201	5.58e-05
313.15	0.2003	0.0007323	6.59e-05
318.15	0.2003	0.0008702	7.84e-05
278.15	0.1001	5.477e-05	4.93e-06
283.15	0.1001	7.091e-05	6.39e-06
288.15	0.1001	8.899e-05	8.01e-06
293.15	0.1001	0.0001121	1.01e-05
298.15	0.1001	0.0001359	1.22e-05
303.15	0.1001	0.0001702	1.53e-05
308.15	0.1001	0.000209	1.88e-05
313.15	0.1001	0.0002535	2.28e-05
318.15	0.1001	0.0003081	2.78e-05
278.15	0	9.48e-06	8.54e-07
283.15	0	1.28e-05	1.15e-06
288.15	0	1.661e-05	1.5e-06
293.15	0	2.164e-05	1.95e-06
298.15	0	2.706e-05	2.44e-06
303.15	0	3.507e-05	3.16e-06
308.15	0	4.436e-05	3.99e-06
313.15	0	5.54e-05	4.99e-06
318.15	0	6.937e-05	6.25e-06

System: artesunate + ethanol + water; phases: Liquid, Crystal
Fixed: Pressure, kPa = 101.1
Property: Mole fraction of artesunate (Liquid); method: Chromatography
Temperature, K	Solvent: Mass fraction of ethanol	Mole fraction of artesunate	uncertainty
278.15	1	0.005281	0.000475
283.15	1	0.005748	0.000517
288.15	1	0.006361	0.000573
293.15	1	0.007089	0.000638
298.15	1	0.007816	0.000704
303.15	1	0.008543	0.000769
308.15	1	0.009392	0.000846
313.15	1	0.01024	0.00092
318.15	1	0.01109	0.001
278.15	0.9005	0.004366	0.000393
283.15	0.9005	0.004817	0.000434
288.15	0.9005	0.005375	0.000484
293.15	0.9005	0.006067	0.000546
298.15	0.9005	0.006723	0.000605
303.15	0.9005	0.007421	0.000668
308.15	0.9005	0.008217	0.00074
313.15	0.9005	0.00902	0.00081
318.15	0.9005	0.009822	0.000884
278.15	0.8001	0.003408	0.000307
283.15	0.8001	0.003817	0.000344
288.15	0.8001	0.004299	0.000387
293.15	0.8001	0.0049	0.000441
298.15	0.8001	0.005465	0.000492
303.15	0.8001	0.0061	0.000549
308.15	0.8001	0.006809	0.000613
313.15	0.8001	0.00749	0.000674
318.15	0.8001	0.008279	0.000745
278.15	0.6999	0.002585	0.000233
283.15	0.6999	0.00294	0.000265
288.15	0.6999	0.003323	0.000299
293.15	0.6999	0.00381	0.000343
298.15	0.6999	0.004304	0.000387
303.15	0.6999	0.004883	0.00044
308.15	0.6999	0.0055	0.000495
313.15	0.6999	0.006138	0.000553
318.15	0.6999	0.006806	0.000613
278.15	0.6001	0.001921	0.000173
283.15	0.6001	0.002219	0.0002
288.15	0.6001	0.002568	0.000231
293.15	0.6001	0.002967	0.000267
298.15	0.6001	0.003356	0.000302
303.15	0.6001	0.003835	0.000345
308.15	0.6001	0.004357	0.000392
313.15	0.6001	0.004904	0.000442
318.15	0.6001	0.005492	0.000494
278.15	0.5002	0.001355	0.000122
283.15	0.5002	0.001605	0.000145
288.15	0.5002	0.001862	0.000168
293.15	0.5002	0.002176	0.000196
298.15	0.5002	0.002482	0.000223
303.15	0.5002	0.002871	0.000258
308.15	0.5002	0.003281	0.000295
313.15	0.5002	0.00373	0.000336
318.15	0.5002	0.004236	0.000381
278.15	0.3998	0.0008682	7.82e-05
283.15	0.3998	0.001038	9.3e-05
288.15	0.3998	0.001222	0.00011
293.15	0.3998	0.001448	0.00013
298.15	0.3998	0.001668	0.00015
303.15	0.3998	0.001958	0.000176
308.15	0.3998	0.002274	0.000205
313.15	0.3998	0.002613	0.000235
318.15	0.3998	0.003003	0.00027
278.15	0.3001	0.0004717	4.25e-05
283.15	0.3001	0.0005762	5.19e-05
288.15	0.3001	0.0006888	6.2e-05
293.15	0.3001	0.0008284	7.46e-05
298.15	0.3001	0.0009661	8.7e-05
303.15	0.3001	0.001153	0.000104
308.15	0.3001	0.001358	0.000122
313.15	0.3001	0.001581	0.000142
318.15	0.3001	0.001843	0.000166
278.15	0.2008	0.0001979	1.78e-05
283.15	0.2008	0.000248	2.23e-05
288.15	0.2008	0.0003024	2.72e-05
293.15	0.2008	0.0003709	3.34e-05
298.15	0.2008	0.0004396	3.96e-05
303.15	0.2008	0.0005359	4.83e-05
308.15	0.2008	0.0006419	5.78e-05
313.15	0.2008	0.0007604	6.85e-05
318.15	0.2008	0.0009023	8.13e-05
278.15	0.1003	5.634e-05	5.07e-06
283.15	0.1003	7.295e-05	6.57e-06
288.15	0.1003	9.136e-05	8.23e-06
293.15	0.1003	0.000115	1.04e-05
298.15	0.1003	0.0001394	1.26e-05
303.15	0.1003	0.0001745	1.57e-05
308.15	0.1003	0.000214	1.93e-05
313.15	0.1003	0.0002593	2.33e-05
318.15	0.1003	0.0003149	2.84e-05
278.15	0	9.48e-06	8.54e-07
283.15	0	1.28e-05	1.15e-06
288.15	0	1.661e-05	1.5e-06
293.15	0	2.164e-05	1.95e-06
298.15	0	2.706e-05	2.44e-06
303.15	0	3.507e-05	3.16e-06
308.15	0	4.436e-05	3.99e-06
313.15	0	5.54e-05	4.99e-06
318.15	0	6.937e-05	6.25e-06

System: artesunate + propan-2-ol + water; phases: Liquid, Crystal
Fixed: Pressure, kPa = 101.1
Property: Mole fraction of artesunate (Liquid); method: Chromatography
Temperature, K	Solvent: Mass fraction of propan-2-ol	Mole fraction of artesunate	uncertainty
278.15	1	0.002854	0.000257
283.15	1	0.00336	0.000303
288.15	1	0.003917	0.000353
293.15	1	0.004606	0.000415
298.15	1	0.005268	0.000474
303.15	1	0.006092	0.000548
308.15	1	0.006975	0.000628
313.15	1	0.007964	0.000717
318.15	1	0.008981	0.000809
278.15	0.9001	0.002367	0.000213
283.15	0.9001	0.002806	0.000253
288.15	0.9001	0.003285	0.000296
293.15	0.9001	0.003904	0.000351
298.15	0.9001	0.004474	0.000403
303.15	0.9001	0.005199	0.000468
308.15	0.9001	0.005973	0.000538
313.15	0.9001	0.006839	0.000616
318.15	0.9001	0.007722	0.000695
278.15	0.8001	0.00192	0.000173
283.15	0.8001	0.002315	0.000208
288.15	0.8001	0.002718	0.000245
293.15	0.8001	0.003219	0.00029
298.15	0.8001	0.003699	0.000333
303.15	0.8001	0.004324	0.000389
308.15	0.8001	0.004991	0.000449
313.15	0.8001	0.005716	0.000515
318.15	0.8001	0.006514	0.000586
278.15	0.6999	0.001516	0.000137
283.15	0.6999	0.001825	0.000164
288.15	0.6999	0.002157	0.000194
293.15	0.6999	0.002588	0.000233
298.15	0.6999	0.002986	0.000269
303.15	0.6999	0.003511	0.000316
308.15	0.6999	0.004054	0.000365
313.15	0.6999	0.004682	0.000422
318.15	0.6999	0.005367	0.000483
278.15	0.6004	0.001153	0.000104
283.15	0.6004	0.001399	0.000126
288.15	0.6004	0.001663	0.00015
293.15	0.6004	0.002007	0.000181
298.15	0.6004	0.002325	0.000209
303.15	0.6004	0.002753	0.000248
308.15	0.6004	0.00321	0.000289
313.15	0.6004	0.003722	0.000335
318.15	0.6004	0.004276	0.000385
278.15	0.5003	0.000814	7.33e-05
283.15	0.5003	0.001009	9.1e-05
288.15	0.5003	0.001206	0.000109
293.15	0.5003	0.001451	0.000131
298.15	0.5003	0.001701	0.000153
303.15	0.5003	0.002016	0.000182
308.15	0.5003	0.002367	0.000213
313.15	0.5003	0.002749	0.000248
318.15	0.5003	0.003195	0.000288
278.15	0.3999	0.0005156	4.64e-05
283.15	0.3999	0.0006476	5.83e-05
288.15	0.3999	0.0007798	7.02e-05
293.15	0.3999	0.0009465	8.52e-05
298.15	0.3999	0.00111	0.0001
303.15	0.3999	0.001337	0.00012
308.15	0.3999	0.001575	0.000142
313.15	0.3999	0.001851	0.000167
318.15	0.3999	0.00217	0.000195
278.15	0.3003	0.0002802	2.52e-05
283.15	0.3003	0.0003525	3.17e-05
288.15	0.3003	0.0004305	3.88e-05
293.15	0.3003	0.0005291	4.76e-05
298.15	0.3003	0.0006272	5.65e-05
303.15	0.3003	0.0007655	6.89e-05
308.15	0.3003	0.0009167	8.25e-05
313.15	0.3003	0.001088	9.8e-05
318.15	0.3003	0.00129	0.000116
278.15	0.2001	0.0001235	1.11e-05
283.15	0.2001	0.0001582	1.42e-05
288.15	0.2001	0.0001961	1.77e-05
293.15	0.2001	0.0002445	2.2e-05
298.15	0.2001	0.0002936	2.64e-05
303.15	0.2001	0.0003639	3.28e-05
308.15	0.2001	0.0004417	3.98e-05
313.15	0.2001	0.0005308	4.78e-05
318.15	0.2001	0.000638	5.75e-05
278.15	0.1002	4.092e-05	3.68e-06
283.15	0.1002	5.364e-05	4.83e-06
288.15	0.1002	6.783e-05	6.11e-06
293.15	0.1002	8.619e-05	7.76e-06
298.15	0.1002	0.0001053	9.5e-06
303.15	0.1002	0.0001331	1.2e-05
308.15	0.1002	0.0001645	1.48e-05
313.15	0.1002	0.000201	1.81e-05
318.15	0.1002	0.000246	2.22e-05
278.15	0	9.48e-06	8.54e-07
283.15	0	1.28e-05	1.15e-06
288.15	0	1.661e-05	1.5e-06
293.15	0	2.164e-05	1.95e-06
298.15	0	2.706e-05	2.44e-06
303.15	0	3.507e-05	3.16e-06
308.15	0	4.436e-05	3.99e-06
313.15	0	5.54e-05	4.99e-06
318.15	0	6.937e-05	6.25e-06

System: artesunate + 1,2-propanediol + water; phases: Liquid, Crystal
Fixed: Pressure, kPa = 101.1
Property: Mole fraction of artesunate (Liquid); method: Chromatography
Temperature, K	Solvent: Mass fraction of 1,2-propanediol	Mole fraction of artesunate	uncertainty
278.15	1	0.001001	9e-05
283.15	1	0.001232	0.000111
288.15	1	0.001477	0.000133
293.15	1	0.001759	0.000158
298.15	1	0.002054	0.000185
303.15	1	0.002374	0.000214
308.15	1	0.002789	0.000251
313.15	1	0.003205	0.000289
318.15	1	0.003657	0.000329
278.15	0.9008	0.0008601	7.74e-05
283.15	0.9008	0.001063	9.6e-05
288.15	0.9008	0.001277	0.000115
293.15	0.9008	0.001538	0.000138
298.15	0.9008	0.001798	0.000162
303.15	0.9008	0.00209	0.000188
308.15	0.9008	0.002459	0.000221
313.15	0.9008	0.002835	0.000255
318.15	0.9008	0.003238	0.000292
278.15	0.8001	0.0007289	6.56e-05
283.15	0.8001	0.0009041	8.14e-05
288.15	0.8001	0.0011	9.9e-05
293.15	0.8001	0.001318	0.000119
298.15	0.8001	0.001544	0.000139
303.15	0.8001	0.001807	0.000163
308.15	0.8001	0.002133	0.000192
313.15	0.8001	0.002468	0.000222
318.15	0.8001	0.002832	0.000255
278.15	0.6995	0.0005856	5.27e-05
283.15	0.6995	0.0007388	6.65e-05
288.15	0.6995	0.0008916	8.03e-05
293.15	0.6995	0.001074	9.7e-05
298.15	0.6995	0.001261	0.000114
303.15	0.6995	0.001487	0.000134
308.15	0.6995	0.001761	0.000159
313.15	0.6995	0.002049	0.000184
318.15	0.6995	0.002365	0.000213
278.15	0.6001	0.0004356	3.92e-05
283.15	0.6001	0.0005529	4.98e-05
288.15	0.6001	0.0006709	6.04e-05
293.15	0.6001	0.0008128	7.32e-05
298.15	0.6001	0.0009583	8.63e-05
303.15	0.6001	0.00114	0.000103
308.15	0.6001	0.001357	0.000122
313.15	0.6001	0.001588	0.000143
318.15	0.6001	0.001846	0.000166
278.15	0.5001	0.0002918	2.63e-05
283.15	0.5001	0.000369	3.32e-05
288.15	0.5001	0.0004517	4.07e-05
293.15	0.5001	0.0005526	4.98e-05
298.15	0.5001	0.0006516	5.87e-05
303.15	0.5001	0.000785	7.07e-05
308.15	0.5001	0.0009424	8.49e-05
313.15	0.5001	0.001112	0.0001
318.15	0.5001	0.001314	0.000118
278.15	0.3998	0.0001751	1.58e-05
283.15	0.3998	0.0002236	2.01e-05
288.15	0.3998	0.0002761	2.49e-05
293.15	0.3998	0.0003411	3.07e-05
298.15	0.3998	0.0004114	3.7e-05
303.15	0.3998	0.0005004	4.51e-05
308.15	0.3998	0.0006044	5.44e-05
313.15	0.3998	0.0007183	6.47e-05
318.15	0.3998	0.0008501	7.65e-05
278.15	0.2999	9.459e-05	8.52e-06
283.15	0.2999	0.0001223	1.1e-05
288.15	0.2999	0.0001526	1.37e-05
293.15	0.2999	0.0001906	1.72e-05
298.15	0.2999	0.0002302	2.07e-05
303.15	0.2999	0.0002843	2.56e-05
308.15	0.2999	0.000347	3.12e-05
313.15	0.2999	0.0004172	3.76e-05
318.15	0.2999	0.0005017	4.52e-05
278.15	0.2003	4.666e-05	4.2e-06
283.15	0.2003	6.113e-05	5.5e-06
288.15	0.2003	7.72e-05	6.95e-06
293.15	0.2003	9.772e-05	8.8e-06
298.15	0.2003	0.0001193	1.07e-05
303.15	0.2003	0.0001495	1.35e-05
308.15	0.2003	0.0001846	1.66e-05
313.15	0.2003	0.0002245	2.02e-05
318.15	0.2003	0.0002734	2.46e-05
278.15	0.1001	2.139e-05	1.93e-06
283.15	0.1001	2.844e-05	2.56e-06
288.15	0.1001	3.639e-05	3.28e-06
293.15	0.1001	4.672e-05	4.21e-06
298.15	0.1001	5.771e-05	5.2e-06
303.15	0.1001	7.354e-05	6.62e-06
308.15	0.1001	9.186e-05	8.27e-06
313.15	0.1001	0.0001132	1.02e-05
318.15	0.1001	0.0001398	1.26e-05
278.15	0	9.48e-06	8.54e-07
283.15	0	1.28e-05	1.15e-06
288.15	0	1.661e-05	1.5e-06
293.15	0	2.164e-05	1.95e-06
298.15	0	2.706e-05	2.44e-06
303.15	0	3.507e-05	3.16e-06
308.15	0	4.436e-05	3.99e-06
313.15	0	5.54e-05	4.99e-06
318.15	0	6.937e-05	6.25e-06

System: artesunate + methanol; phases: Liquid, Crystal
Fixed: Pressure, kPa = 101.1
Property: Mole fraction of artesunate (Liquid); method: Chromatography
Temperature, K	Mole fraction of artesunate	uncertainty
278.15	0.004971	0.000448
283.15	0.005383	0.000485
288.15	0.00606	0.000546
293.15	0.006765	0.000609
298.15	0.007469	0.000672
303.15	0.008174	0.000736
308.15	0.009057	0.000815
313.15	0.009941	0.000895
318.15	0.01082	0.00097

System: artesunate + water; phases: Liquid, Crystal
Fixed: Pressure, kPa = 101.1
Property: Mole fraction of artesunate (Liquid); method: Chromatography
Temperature, K	Mole fraction of artesunate	uncertainty
278.15	9.48e-06	8.54e-07
283.15	1.28e-05	1.15e-06
288.15	1.661e-05	1.5e-06
293.15	2.164e-05	1.95e-06
298.15	2.706e-05	2.44e-06
303.15	3.507e-05	3.16e-06
308.15	4.436e-05	3.99e-06
313.15	5.54e-05	4.99e-06
318.15	6.937e-05	6.25e-06

System: artesunate + ethanol; phases: Liquid, Crystal
Fixed: Pressure, kPa = 101.1
Property: Mole fraction of artesunate (Liquid); method: Chromatography
Temperature, K	Mole fraction of artesunate	uncertainty
278.15	0.005281	0.000475
283.15	0.005748	0.000517
288.15	0.006361	0.000573
293.15	0.007089	0.000638
298.15	0.007816	0.000704
303.15	0.008543	0.000769
308.15	0.009392	0.000846
313.15	0.01024	0.00092
318.15	0.01109	0.001

System: artesunate + propan-2-ol; phases: Liquid, Crystal
Fixed: Pressure, kPa = 101.1
Property: Mole fraction of artesunate (Liquid); method: Chromatography
Temperature, K	Mole fraction of artesunate	uncertainty
278.15	0.002854	0.000257
283.15	0.00336	0.000303
288.15	0.003917	0.000353
293.15	0.004606	0.000415
298.15	0.005268	0.000474
303.15	0.006092	0.000548
308.15	0.006975	0.000628
313.15	0.007964	0.000717
318.15	0.008981	0.000809

System: artesunate + 1,2-propanediol; phases: Liquid, Crystal
Fixed: Pressure, kPa = 101.1
Property: Mole fraction of artesunate (Liquid); method: Chromatography
Temperature, K	Mole fraction of artesunate	uncertainty
278.15	0.001001	9e-05
283.15	0.001232	0.000111
288.15	0.001477	0.000133
293.15	0.001759	0.000158
298.15	0.002054	0.000185
303.15	0.002374	0.000214
308.15	0.002789	0.000251
313.15	0.003205	0.000289
318.15	0.003657	0.000329
