Measured thermophysical data. Solubility of Vitamin E Acetate in Supercritical Carbon Dioxide: Measurement and Correlation
Source: J. Chem. Eng. Data, 2017, 10.1021/acs.jced.7b00550
Compound 1: DL-.alpha.-tocopherol acetate, C31H52O3, InChI=1S/C31H52O3/c1-21(2)13-10-14-22(3)15-11-16-23(4)17-12-19-31(9)20-18-28-26(7)29(33-27(8)32)24(5)25(6)30(28)34-31/h21-23H,10-20H2,1-9H3/t22-,23-,31-/m1/s1, purity 96%
Compound 2: hexadecanoic acid, C16H32O2, InChI=1S/C16H32O2/c1-2-3-4-5-6-7-8-9-10-11-12-13-14-15-16(17)18/h2-15H2,1H3,(H,17,18), purity 98%
Compound 3: carbon dioxide, CO2, InChI=1S/CO2/c2-1-3, purity 99.9%

System: DL-.alpha.-tocopherol acetate + carbon dioxide; phases: Fluid (supercritical or subcritical phases), Crystal
Property: Mole fraction of DL-.alpha.-tocopherol acetate (Fluid (supercritical or subcritical phases)); method: visual
Temperature, K	Pressure, kPa	Mole fraction of DL-.alpha.-tocopherol acetate	uncertainty
308.15	8410	0.000283	2.8e-05
308.15	8620	0.000387	3.5e-05
308.15	8790	0.000506	3.9e-05
308.15	8800	0.000637	3.9e-05
308.15	9140	0.000724	4e-05
313.15	9640	0.000276	3.1e-05
313.15	9920	0.000384	3.8e-05
313.15	10120	0.000505	4.8e-05
313.15	10190	0.000633	8e-05
313.15	10520	0.000722	4.4e-05
318.15	10860	0.000276	3.4e-05
318.15	11130	0.000384	3e-05
318.15	11400	0.000501	4.2e-05
318.15	11510	0.000632	4.2e-05
318.15	11870	0.000723	5e-05
323.15	11960	0.000276	3.3e-05
323.15	12250	0.000384	3.8e-05
323.15	12580	0.000502	4.2e-05
323.15	12710	0.000636	4.3e-05
323.15	13060	0.000726	5e-05
328.15	13030	0.000275	3.6e-05
328.15	13340	0.000384	4.1e-05
328.15	13730	0.0005	4.9e-05
328.15	13840	0.00065	5e-05
328.15	14190	0.000726	4.7e-05

System: hexadecanoic acid + carbon dioxide; phases: Fluid (supercritical or subcritical phases), Crystal
Fixed: Temperature, K = 313.15
Property: Mole fraction of hexadecanoic acid (Fluid (supercritical or subcritical phases)); method: visual
Pressure, kPa	Mole fraction of hexadecanoic acid	uncertainty
8680	8e-05	5e-06
9440	0.000178	5e-06
10030	0.000288	9e-06
10400	0.000335	1.2e-05
10850	0.000415	1.6e-05
10900	0.000416	1.6e-05
12130	0.000444	2.4e-05
14720	0.00056	4.2e-05
