Measured thermophysical data. Excess Properties and Phase Equilibria for the Potential Biofuel System of Propan-2-ol and 2-Methyl-propan-1-ol at 333.15, 343.15, and 353.15 K
Source: J. Chem. Eng. Data, 2018, 10.1021/acs.jced.8b00103
Compound 1: propan-2-ol, C3H8O, InChI=1S/C3H8O/c1-3(2)4/h3-4H,1-2H3, purity 99%
Compound 2: 2-methyl-1-propanol, C4H10O, InChI=1S/C4H10O/c1-4(2)3-5/h4-5H,3H2,1-2H3, purity 99%

System: propan-2-ol; phases: Liquid
Property: Refractive index (Na D-line) (Liquid); method: Standard Abbe refractometry
Temperature, K	Pressure, kPa	Refractive index (Na D-line)	uncertainty
293.15	101.325	1.3774	0.0004

System: propan-2-ol; phases: Liquid
Fixed: Pressure, kPa = 101
Property: Mass density, kg/m3 (Liquid); method: Vibrating tube method
Temperature, K	Mass density, kg/m3	uncertainty
333.15	749.23	0.16
343.15	739.46	0.17
353.15	729.1	0.17

System: propan-2-ol; phases: Liquid, Gas
Property: Vapor or sublimation pressure, kPa (Liquid); method: Ebulliometric method (Recirculating still)
Temperature, K	Vapor or sublimation pressure, kPa	uncertainty
333.15	38.5	0.3
343.15	61.1	0.3
353.15	92.3	0.4

System: 2-methyl-1-propanol; phases: Liquid
Property: Refractive index (Na D-line) (Liquid); method: Standard Abbe refractometry
Temperature, K	Pressure, kPa	Refractive index (Na D-line)	uncertainty
293.15	101.325	1.3962	0.0004

System: 2-methyl-1-propanol; phases: Liquid
Fixed: Pressure, kPa = 101
Property: Mass density, kg/m3 (Liquid); method: Vibrating tube method
Temperature, K	Mass density, kg/m3	uncertainty
333.15	769.49	0.15
343.15	760.79	0.16
353.15	751.86	0.16

System: 2-methyl-1-propanol; phases: Liquid, Gas
Property: Vapor or sublimation pressure, kPa (Liquid); method: Ebulliometric method (Recirculating still)
Temperature, K	Vapor or sublimation pressure, kPa	uncertainty
333.15	12.3	0.2
343.15	21	0.2
353.15	32.7	0.2

System: propan-2-ol + 2-methyl-1-propanol; phases: Liquid
Fixed: Pressure, kPa = 101
Property: Mass density, kg/m3 (Liquid); method: Vibrating tube method
Temperature, K	Mole fraction of propan-2-ol	Mass density, kg/m3	uncertainty
333.15	0	769.49	0.15
333.15	0.042	768.8	0.15
333.15	0.1428	767.1	0.16
333.15	0.1913	766.26	0.16
333.15	0.2906	764.49	0.16
333.15	0.3911	762.62	0.16
333.15	0.4444	761.6	0.16
333.15	0.4993	760.52	0.16
333.15	0.5485	759.52	0.16
333.15	0.594	758.58	0.16
333.15	0.6911	756.5	0.16
333.15	0.7445	755.31	0.16
333.15	0.8481	752.91	0.16
333.15	0.8925	751.85	0.16
333.15	0.9491	750.48	0.17
333.15	1	749.23	0.16
343.15	0	760.79	0.16
343.15	0.042	760.07	0.16
343.15	0.1428	758.28	0.16
343.15	0.1913	757.39	0.16
343.15	0.2906	755.53	0.16
343.15	0.3911	753.57	0.16
343.15	0.4444	752.49	0.16
343.15	0.4993	751.36	0.16
343.15	0.5485	750.32	0.16
343.15	0.594	749.33	0.16
343.15	0.6911	747.14	0.17
343.15	0.7445	745.88	0.17
343.15	0.8481	743.36	0.17
343.15	0.8925	742.24	0.17
343.15	0.9491	740.78	0.17
343.15	1	739.46	0.17
353.15	0	751.86	0.16
353.15	0.042	751.1	0.16
353.15	0.1428	749.19	0.16
353.15	0.1913	748.25	0.16
353.15	0.2906	746.26	0.16
353.15	0.3911	744.18	0.17
353.15	0.4444	743.03	0.17
353.15	0.4993	741.83	0.17
353.15	0.5485	740.72	0.17
353.15	0.594	739.66	0.17
353.15	0.6911	737.33	0.17
353.15	0.7445	735.99	0.17
353.15	0.8481	733.3	0.17
353.15	0.8925	732.1	0.17
353.15	0.9491	730.53	0.17
353.15	1	729.1	0.17

System: propan-2-ol + 2-methyl-1-propanol; phases: Liquid, Gas
Property: Vapor or sublimation pressure, kPa (Liquid); method: Ebulliometric method (Recirculating still)
Mole fraction of propan-2-ol	Temperature, K	Vapor or sublimation pressure, kPa	uncertainty
0	333.15	12.3	0.2
0.0515	333.15	14.1	0.4
0.1299	333.15	16.6	0.4
0.1698	333.15	17.8	0.4
0.2192	333.15	19.3	0.4
0.2598	333.15	20.5	0.4
0.3117	333.15	21.9	0.4
0.3546	333.15	23	0.4
0.3895	333.15	23.9	0.4
0.4605	333.15	25.7	0.4
0.5803	333.15	28.5	0.4
0.7187	333.15	31.6	0.4
0.7909	333.15	33.5	0.4
0.839	333.15	34.6	0.4
0.8731	333.15	35.5	0.4
0.938	333.15	37	0.4
1	333.15	38.5	0.4
0	343.15	21	0.3
0.0494	343.15	23.7	0.6
0.1298	343.15	27.8	0.6
0.1873	343.15	30.6	0.6
0.237	343.15	33	0.6
0.2803	343.15	34.8	0.4
0.3087	343.15	35.9	0.5
0.3485	343.15	37.3	0.5
0.4145	343.15	40.1	0.4
0.5098	343.15	43.4	0.5
0.635	343.15	47.8	0.5
0.6991	343.15	50	0.7
0.7638	343.15	52.5	0.6
0.8175	343.15	54.5	0.6
0.887	343.15	57.1	0.5
0.9507	343.15	59.4	0.6
1	343.15	61.1	0.4
0	353.15	32.7	0.3
0.0571	353.15	38.1	0.9
0.1481	353.15	45.4	0.9
0.1958	353.15	49	0.8
0.2678	353.15	53.7	0.7
0.3099	353.15	56.3	0.7
0.361	353.15	59.5	0.7
0.3944	353.15	61	0.6
0.547	353.15	68.5	0.7
0.6403	353.15	74.3	0.7
0.7389	353.15	79.9	0.7
0.8162	353.15	83.4	0.7
0.8733	353.15	86.4	0.7
0.9187	353.15	88.7	0.7
0.9578	353.15	90.5	0.7
1	353.15	92.3	0.5

System: propan-2-ol + 2-methyl-1-propanol; phases: Gas, Liquid
Property: Mole fraction of propan-2-ol (Gas); method: Chromatography
Mole fraction of propan-2-ol	Temperature, K	Mole fraction of propan-2-ol	uncertainty
0	333.15	0	
0.0515	333.15	0.1695	0.0286
0.1299	333.15	0.3521	0.0241
0.1698	333.15	0.4235	0.0196
0.2192	333.15	0.4992	0.0178
0.2598	333.15	0.5499	0.0158
0.3117	333.15	0.6073	0.0147
0.3546	333.15	0.647	0.0138
0.3895	333.15	0.6773	0.0131
0.4605	333.15	0.7319	0.0122
0.5803	333.15	0.8061	0.0116
0.7187	333.15	0.8794	0.0113
0.7909	333.15	0.913	0.011
0.839	333.15	0.9341	0.0109
0.8731	333.15	0.9484	0.0108
0.938	333.15	0.9752	0.0108
1	333.15	1	
0	343.15	0	
0.0494	343.15	0.1589	0.0277
0.1298	343.15	0.342	0.0234
0.1873	343.15	0.4414	0.0191
0.237	343.15	0.5121	0.0171
0.2803	343.15	0.5623	0.015
0.3087	343.15	0.5902	0.0141
0.3485	343.15	0.6268	0.0139
0.4145	343.15	0.6864	0.0129
0.5098	343.15	0.7546	0.012
0.635	343.15	0.8281	0.0116
0.6991	343.15	0.86	0.0112
0.7638	343.15	0.892	0.0112
0.8175	343.15	0.9178	0.0111
0.887	343.15	0.9503	0.011
0.9507	343.15	0.9785	0.0109
1	343.15	1	
0	353.15	0	
0.0571	353.15	0.1867	0.0273
0.1481	353.15	0.382	0.0224
0.1958	353.15	0.4571	0.0175
0.2678	353.15	0.5483	0.0159
0.3099	353.15	0.5903	0.0142
0.361	353.15	0.6372	0.0135
0.3944	353.15	0.6612	0.0126
0.547	353.15	0.7661	0.0121
0.6403	353.15	0.8192	0.0115
0.7389	353.15	0.8705	0.0113
0.8162	353.15	0.9083	0.0111
0.8733	353.15	0.9358	0.0111
0.9187	353.15	0.9578	0.0112
0.9578	353.15	0.9779	0.0113
1	353.15	1	
