Measured thermophysical data. Melting points of potential liquid organic hydrogen carrier systems consisting of N-alkylcarbazoles
Source: J. Chem. Eng. Data, 2016, 10.1021/acs.jced.5b00679
Compound 1: 9H-carbazole, C12H9N, InChI=1S/C12H9N/c1-3-7-11-9(5-1)10-6-2-4-8-12(10)13-11/h1-8,13H
Compound 2: 2,3,4,9-tetrahydro-1H-carbazole, C12H13N, InChI=1S/C12H13N/c1-3-7-11-9(5-1)10-6-2-4-8-12(10)13-11/h1,3,5,7,13H,2,4,6,8H2
Compound 3: 9-methyl-9H-carbazole, C13H11N, InChI=1S/C13H11N/c1-14-12-8-4-2-6-10(12)11-7-3-5-9-13(11)14/h2-9H,1H3
Compound 4: 9-ethylcarbazole, C14H13N, InChI=1S/C14H13N/c1-2-15-13-9-5-3-7-11(13)12-8-4-6-10-14(12)15/h3-10H,2H2,1H3
Compound 5: N-propyl-9H-carbazole, C15H15N, InChI=1S/C15H15N/c1-2-11-16-14-9-5-3-7-12(14)13-8-4-6-10-15(13)16/h3-10H,2,11H2,1H3
Compound 6: 9-(1-methylethyl)carbazole, C15H15N, InChI=1S/C15H15N/c1-11(2)16-14-9-5-3-7-12(14)13-8-4-6-10-15(13)16/h3-11H,1-2H3
Compound 7: N-butyl-9H-carbazole, C16H17N, InChI=1S/C16H17N/c1-2-3-12-17-15-10-6-4-8-13(15)14-9-5-7-11-16(14)17/h4-11H,2-3,12H2,1H3
Compound 8: 9-ethyl-2,3,4,9-tetrahydrocarbazole, C14H17N, InChI=1S/C14H17N/c1-2-15-13-9-5-3-7-11(13)12-8-4-6-10-14(12)15/h3,5,7,9H,2,4,6,8,10H2,1H3
Compound 9: 9-ethyl-2,3,4,5,6,7,8,9-octahydro-1H-carbazole, C14H21N, InChI=1S/C14H21N/c1-2-15-13-9-5-3-7-11(13)12-8-4-6-10-14(12)15/h2-10H2,1H3
Compound 10: (4aR,4bS,8aS,9aR)-rel-9-ethyldodecahydrocarbazole, C14H25N, InChI=1S/C14H25N/c1-2-15-13-9-5-3-7-11(13)12-8-4-6-10-14(12)15/h11-14H,2-10H2,1H3/t11-,12+,13-,14-/m0/s1

System: 9H-carbazole; phases: Crystal, Liquid, Air at 1 atmosphere
Property: Normal melting temperature, K (Crystal); method: DTA
Normal melting temperature, K	uncertainty
517.1	2

System: 9H-carbazole; phases: Crystal, Liquid, Air at 1 atmosphere
Property: Molar enthalpy of transition or fusion, kJ/mol (Crystal); method: DSC
Molar enthalpy of transition or fusion, kJ/mol	uncertainty
27.7	0.84

System: 2,3,4,9-tetrahydro-1H-carbazole; phases: Crystal, Liquid, Air at 1 atmosphere
Property: Normal melting temperature, K (Crystal); method: DTA
Normal melting temperature, K	uncertainty
391.3	2

System: 2,3,4,9-tetrahydro-1H-carbazole; phases: Crystal, Liquid, Air at 1 atmosphere
Property: Molar enthalpy of transition or fusion, kJ/mol (Crystal); method: DSC
Molar enthalpy of transition or fusion, kJ/mol	uncertainty
17.85	0.42

System: 9-methyl-9H-carbazole; phases: Crystal, Liquid, Air at 1 atmosphere
Property: Normal melting temperature, K (Crystal); method: DTA
Normal melting temperature, K	uncertainty
361	2

System: 9-methyl-9H-carbazole; phases: Crystal, Liquid, Air at 1 atmosphere
Property: Molar enthalpy of transition or fusion, kJ/mol (Crystal); method: DSC
Molar enthalpy of transition or fusion, kJ/mol	uncertainty
16.43	0.57

System: 9-ethylcarbazole; phases: Crystal, Liquid, Air at 1 atmosphere
Property: Normal melting temperature, K (Crystal); method: DTA
Normal melting temperature, K	uncertainty
342.4	2

System: 9-ethylcarbazole; phases: Crystal, Liquid, Air at 1 atmosphere
Property: Molar enthalpy of transition or fusion, kJ/mol (Crystal); method: DSC
Molar enthalpy of transition or fusion, kJ/mol	uncertainty
16.55	0.5

System: N-propyl-9H-carbazole; phases: Crystal, Liquid, Air at 1 atmosphere
Property: Normal melting temperature, K (Crystal); method: DTA
Normal melting temperature, K	uncertainty
320.4	2

System: N-propyl-9H-carbazole; phases: Crystal, Liquid, Air at 1 atmosphere
Property: Molar enthalpy of transition or fusion, kJ/mol (Crystal); method: DSC
Molar enthalpy of transition or fusion, kJ/mol	uncertainty
19.57	0.49

System: 9-(1-methylethyl)carbazole; phases: Crystal, Liquid, Air at 1 atmosphere
Property: Normal melting temperature, K (Crystal); method: DTA
Normal melting temperature, K	uncertainty
393.9	2

System: 9-(1-methylethyl)carbazole; phases: Crystal, Liquid, Air at 1 atmosphere
Property: Molar enthalpy of transition or fusion, kJ/mol (Crystal); method: DSC
Molar enthalpy of transition or fusion, kJ/mol	uncertainty
18.26	0.77

System: N-butyl-9H-carbazole; phases: Crystal, Liquid, Air at 1 atmosphere
Property: Normal melting temperature, K (Crystal); method: DTA
Normal melting temperature, K	uncertainty
330.6	2

System: N-butyl-9H-carbazole; phases: Crystal, Liquid, Air at 1 atmosphere
Property: Molar enthalpy of transition or fusion, kJ/mol (Crystal); method: DSC
Molar enthalpy of transition or fusion, kJ/mol	uncertainty
22.8	0.57

System: 9-ethyl-2,3,4,9-tetrahydrocarbazole; phases: Crystal, Liquid, Air at 1 atmosphere
Property: Normal melting temperature, K (Crystal); method: DTA
Normal melting temperature, K	uncertainty
282.4	2

System: 9-ethyl-2,3,4,9-tetrahydrocarbazole; phases: Crystal, Liquid, Air at 1 atmosphere
Property: Molar enthalpy of transition or fusion, kJ/mol (Crystal); method: DSC
Molar enthalpy of transition or fusion, kJ/mol	uncertainty
12.41	0.32

System: 9-ethyl-2,3,4,5,6,7,8,9-octahydro-1H-carbazole; phases: Crystal, Liquid, Air at 1 atmosphere
Property: Normal melting temperature, K (Crystal); method: DTA
Normal melting temperature, K	uncertainty
316	2

System: 9-ethyl-2,3,4,5,6,7,8,9-octahydro-1H-carbazole; phases: Crystal, Liquid, Air at 1 atmosphere
Property: Molar enthalpy of transition or fusion, kJ/mol (Crystal); method: DSC
Molar enthalpy of transition or fusion, kJ/mol	uncertainty
20.58	0.58

System: (4aR,4bS,8aS,9aR)-rel-9-ethyldodecahydrocarbazole; phases: Crystal, Liquid, Air at 1 atmosphere
Property: Normal melting temperature, K (Crystal); method: DTA
Normal melting temperature, K	uncertainty
188.6	2

System: 9-ethylcarbazole + 9H-carbazole; phases: Crystal, Crystal, Liquid, Air at 1 atmosphere
Property: Eutectic temperature, K (Crystal); method: DTA
Eutectic temperature, K	uncertainty
340.2	4

System: 9-ethylcarbazole + 9H-carbazole; phases: Liquid, Crystal
Fixed: Pressure, kPa = 100
Property: Solid-liquid equilibrium temperature, K (Liquid); method: DTA
Mole fraction of 9-ethylcarbazole	Solid-liquid equilibrium temperature, K	uncertainty
0	517.1	2
0.1	512	2
0.2	500.9	2
0.3	487	2
0.4	477.5	2
0.5	468.7	2
0.6	457.1	2.1
0.7	440.1	2.1
0.8	418.7	2.1
0.9	386.9	2.1

System: 9-ethylcarbazole + 9-methyl-9H-carbazole; phases: Crystal, Crystal, Liquid, Air at 1 atmosphere
Property: Eutectic temperature, K (Crystal); method: DTA
Eutectic temperature, K	uncertainty
314.9	4

System: 9-ethylcarbazole + 9-methyl-9H-carbazole; phases: Liquid, Crystal
Fixed: Pressure, kPa = 100
Property: Solid-liquid equilibrium temperature, K (Liquid); method: DTA
Mole fraction of 9-ethylcarbazole	Solid-liquid equilibrium temperature, K	uncertainty
0	361	2
0.249	344.1	2
0.4	330.6	2
0.5	321.4	2

System: 9-ethylcarbazole + 9-methyl-9H-carbazole; phases: Liquid, Crystal
Fixed: Pressure, kPa = 100
Property: Solid-liquid equilibrium temperature, K (Liquid); method: DTA
Mole fraction of 9-ethylcarbazole	Solid-liquid equilibrium temperature, K	uncertainty
0.7	323.9	2
0.892	336.4	2
1	342.4	2

System: 9-ethylcarbazole + N-propyl-9H-carbazole; phases: Crystal, Crystal, Liquid, Air at 1 atmosphere
Property: Eutectic temperature, K (Crystal); method: DTA
Eutectic temperature, K	uncertainty
296.2	4

System: 9-ethylcarbazole + N-propyl-9H-carbazole; phases: Liquid, Crystal
Fixed: Pressure, kPa = 100
Property: Solid-liquid equilibrium temperature, K (Liquid); method: DTA
Mole fraction of 9-ethylcarbazole	Solid-liquid equilibrium temperature, K	uncertainty
0	320.3	2
0.052	319.9	2
0.1	318	2
0.2	312.8	2
0.3	306.8	2

System: 9-ethylcarbazole + N-propyl-9H-carbazole; phases: Liquid, Crystal
Fixed: Pressure, kPa = 100
Property: Solid-liquid equilibrium temperature, K (Liquid); method: DTA
Mole fraction of 9-ethylcarbazole	Solid-liquid equilibrium temperature, K	uncertainty
0.601	316.8	2
0.7	321.3	2
0.8	329.1	2
0.899	336.4	2
1	342.4	2

System: 9-ethylcarbazole + 9-(1-methylethyl)carbazole; phases: Crystal of intercomponent compound 1, Crystal, Liquid, Air at 1 atmosphere
Property: Eutectic temperature, K (Crystal of intercomponent compound 1); method: DTA
Eutectic temperature, K	uncertainty
369.5	4

System: 9-ethylcarbazole + 9-(1-methylethyl)carbazole; phases: Crystal of intercomponent compound 1, Crystal, Liquid, Air at 1 atmosphere
Property: Eutectic temperature, K (Crystal of intercomponent compound 1); method: DTA
Eutectic temperature, K	uncertainty
336.3	4

System: 9-ethylcarbazole + 9-(1-methylethyl)carbazole; phases: Liquid, Crystal
Fixed: Pressure, kPa = 100
Property: Solid-liquid equilibrium temperature, K (Liquid); method: DTA
Mole fraction of 9-ethylcarbazole	Solid-liquid equilibrium temperature, K	uncertainty
0	393.9	0.4
0.1	393.2	0.4
0.2	393.2	0.4
0.3	391.3	0.4
0.4	387.3	0.4
0.45	384.2	0.4
0.5	382.2	0.4

System: 9-ethylcarbazole + 9-(1-methylethyl)carbazole; phases: Liquid, Crystal of intercomponent compound 1
Fixed: Pressure, kPa = 100
Property: Solid-liquid equilibrium temperature, K (Liquid); method: DTA
Mole fraction of 9-ethylcarbazole	Solid-liquid equilibrium temperature, K	uncertainty
0.55	378.8	0.4
0.6	378.2	0.4
0.7	371.9	0.4
0.8	364.3	0.5
0.9	351.6	0.5
0.95	342	0.6

System: 9-ethylcarbazole + N-butyl-9H-carbazole; phases: Crystal, Crystal, Liquid, Air at 1 atmosphere
Property: Eutectic temperature, K (Crystal); method: DTA
Eutectic temperature, K	uncertainty
303.8	4

System: 9-ethylcarbazole + N-butyl-9H-carbazole; phases: Liquid, Crystal
Fixed: Pressure, kPa = 100
Property: Solid-liquid equilibrium temperature, K (Liquid); method: DTA
Mole fraction of 9-ethylcarbazole	Solid-liquid equilibrium temperature, K	uncertainty
0	330.6	2
0.2	322.2	2
0.325	316.2	2

System: 9-ethylcarbazole + N-butyl-9H-carbazole; phases: Liquid, Crystal
Fixed: Pressure, kPa = 100
Property: Solid-liquid equilibrium temperature, K (Liquid); method: DTA
Mole fraction of 9-ethylcarbazole	Solid-liquid equilibrium temperature, K	uncertainty
0.66	319.8	2
0.91	338	2
1	342.4	2

System: N-butyl-9H-carbazole + N-propyl-9H-carbazole; phases: Crystal, Crystal, Liquid, Air at 1 atmosphere
Property: Eutectic temperature, K (Crystal); method: DTA
Eutectic temperature, K	uncertainty
297.7	4

System: N-butyl-9H-carbazole + N-propyl-9H-carbazole; phases: Liquid, Crystal
Fixed: Pressure, kPa = 100
Property: Solid-liquid equilibrium temperature, K (Liquid); method: DTA
Mole fraction of N-propyl-9H-carbazole	Solid-liquid equilibrium temperature, K	uncertainty
0	330.6	0.4
0.1	328.1	0.4
0.2	324.6	0.4
0.3	318.1	0.4
0.4	311	0.4
0.48	306	0.4
0.496	305.3	0.4
0.53	303.9	0.4
0.56	300.1	0.5

System: N-butyl-9H-carbazole + N-propyl-9H-carbazole; phases: Liquid, Crystal
Fixed: Pressure, kPa = 100
Property: Solid-liquid equilibrium temperature, K (Liquid); method: DTA
Mole fraction of N-propyl-9H-carbazole	Solid-liquid equilibrium temperature, K	uncertainty
0.6	299.7	2
0.7	308.5	2
0.8	314.1	2
0.9	317.8	2
1	320.3	2

System: 9-ethylcarbazole + (4aR,4bS,8aS,9aR)-rel-9-ethyldodecahydrocarbazole; phases: Liquid, Crystal
Fixed: Pressure, kPa = 100
Property: Solid-liquid equilibrium temperature, K (Liquid); method: DTA
Mole fraction of 9-ethylcarbazole	Solid-liquid equilibrium temperature, K	uncertainty
0.1	285.6	2.1
0.12	290	2.1
0.14	294.6	2.1
0.18	299	2
0.23	303.3	2
0.28	307.3	2
0.35	312.7	2
0.44	316.7	2
0.53	321.7	2
0.66	325	2
0.76	328.5	2
0.88	334.3	2
1	342.4	2
