Measured thermophysical data. P-r-T Data and Derivative Properties of 3-Methylpentane, 2,4-Dimethylpentane, and 2,3,4-Trimethylpentane from 283.15 to 363.15 K at Pressures up to 65 MPa
Source: J. Chem. Eng. Data, 2019, 10.1021/acs.jced.9b00846
Compound 1: 3-methylpentane, C6H14, InChI=1S/C6H14/c1-4-6(3)5-2/h6H,4-5H2,1-3H3, purity 99.9%
Compound 2: 2,4-dimethylpentane, C7H16, InChI=1S/C7H16/c1-6(2)5-7(3)4/h6-7H,5H2,1-4H3, purity 99.9%
Compound 3: 2,3,4-trimethylpentane, C8H18, InChI=1S/C8H18/c1-6(2)8(5)7(3)4/h6-8H,1-5H3, purity 99%

System: 3-methylpentane; phases: Liquid
Property: Mass density, kg/m3 (Liquid); method: Vibrating tube method
Temperature, K	Pressure, kPa	Mass density, kg/m3	uncertainty
283.15	96	673.7	0.8
283.15	4984	678.4	0.8
283.15	9983	682.9	0.8
283.15	14976	687.2	0.9
283.15	20022	691.2	0.9
283.15	25054	695	0.9
283.15	29951	698.6	0.9
283.15	35044	702.1	0.9
283.15	40019	705.4	1
283.15	45032	708.6	1
283.15	50012	711.7	1
283.15	54940	714.6	1.1
283.15	59937	717.5	1.1
283.15	64969	720.3	1.1
288.15	123	669.3	0.8
288.15	4981	674.1	0.8
288.15	10014	678.9	0.8
288.15	14991	683.2	0.9
288.15	19942	687.3	0.9
288.15	25033	691.3	0.9
288.15	29989	695	0.9
288.15	35037	698.6	1
288.15	39987	701.9	1
288.15	45029	705.2	1
288.15	50061	708.4	1
288.15	54941	711.3	1.1
288.15	59951	714.3	1.1
288.15	65035	717.1	1.1
293.15	98	664.7	0.8
293.15	4913	669.7	0.8
293.15	9979	674.6	0.8
293.15	14916	679.1	0.9
293.15	19985	683.5	0.9
293.15	24964	687.5	0.9
293.15	30011	691.3	0.9
293.15	34951	694.9	1
293.15	40003	698.4	1
293.15	45015	701.8	1
293.15	49957	705	1
293.15	54949	708.1	1.1
293.15	60008	711.1	1.1
293.15	65001	714	1.1
298.15	123	660.1	0.8
298.15	4936	665.3	0.8
298.15	9999	670.4	0.8
298.15	15031	675.1	0.9
298.15	20036	679.5	0.9
298.15	25016	683.7	0.9
298.15	29992	687.6	0.9
298.15	34973	691.3	1
298.15	40043	694.9	1
298.15	45008	698.3	1
298.15	49987	701.6	1
298.15	54938	704.8	1.1
298.15	59982	707.8	1.1
298.15	65001	710.8	1.1
303.15	106	655.4	0.8
303.15	4970	660.9	0.8
303.15	9996	666.1	0.8
303.15	15043	671.1	0.9
303.15	20006	675.6	0.9
303.15	25024	679.9	0.9
303.15	29956	683.9	0.9
303.15	34990	687.7	1
303.15	39963	691.4	1
303.15	44991	694.9	1
303.15	49940	698.2	1
303.15	54932	701.5	1.1
303.15	59961	704.6	1.1
303.15	65012	707.7	1.1
308.15	109	650.6	0.8
308.15	4967	656.3	0.8
308.15	10001	661.8	0.8
308.15	14988	666.8	0.9
308.15	19945	671.5	0.9
308.15	25037	676	0.9
308.15	29968	680.1	0.9
308.15	35020	684	1
308.15	39963	687.8	1
308.15	44985	691.4	1
308.15	49992	694.8	1
308.15	54921	698.1	1.1
308.15	60008	701.4	1.1
308.15	64999	704.4	1.1
313.15	117	645.9	0.8
313.15	4981	651.9	0.8
313.15	9993	657.5	0.8
313.15	15145	662.9	0.9
313.15	20027	667.6	0.9
313.15	25088	672.2	0.9
313.15	30012	676.4	0.9
313.15	35003	680.4	1
313.15	40042	684.3	1
313.15	45054	688	1
313.15	49996	691.5	1.1
313.15	54926	694.8	1.1
313.15	60053	698.2	1.1
313.15	65063	701.3	1.1
318.15	107	641.1	0.8
318.15	4955	647.4	0.8
318.15	9991	653.3	0.8
318.15	15039	658.8	0.9
318.15	20021	663.7	0.9
318.15	25060	668.4	0.9
318.15	29991	672.8	0.9
318.15	34997	676.9	1
318.15	40044	680.9	1
318.15	44936	684.6	1
318.15	49998	688.3	1.1
318.15	55010	691.7	1.1
318.15	59996	695.1	1.1
318.15	65008	698.3	1.2
323.15	106	636.3	0.8
323.15	4980	642.9	0.8
323.15	9966	649	0.8
323.15	15009	654.6	0.9
323.15	20016	659.8	0.9
323.15	24987	664.6	0.9
323.15	30019	669.1	0.9
323.15	34996	673.3	1
323.15	40041	677.4	1
323.15	44988	681.2	1
323.15	49949	684.9	1.1
323.15	55004	688.5	1.1
323.15	59997	691.8	1.1
323.15	64995	695.1	1.2
328.15	4974	638.3	0.8
328.15	9983	644.6	0.8
328.15	14977	650.4	0.9
328.15	20010	655.8	0.9
328.15	25021	660.8	0.9
328.15	29956	665.4	0.9
328.15	34961	669.7	1
328.15	40039	673.9	1
328.15	45005	677.9	1
328.15	50036	681.7	1.1
328.15	54981	685.2	1.1
328.15	60023	688.7	1.1
328.15	65018	692	1.2
333.15	4969	633.7	0.8
333.15	9932	640.2	0.9
333.15	15031	646.3	0.9
333.15	19959	651.8	0.9
333.15	25022	657	0.9
333.15	29983	661.7	0.9
333.15	34948	666.1	1
333.15	39982	670.4	1
333.15	45015	674.5	1
333.15	49968	678.3	1.1
333.15	54981	682	1.1
333.15	59935	685.5	1.1
333.15	65077	689	1.2
338.15	5021	629	0.8
338.15	10019	635.9	0.9
338.15	15009	642.1	0.9
338.15	20030	647.8	0.9
338.15	25053	653.1	0.9
338.15	29999	658	1
338.15	34951	662.6	1
338.15	39974	667	1
338.15	45053	671.2	1
338.15	49966	675.1	1.1
338.15	54970	678.8	1.1
338.15	59984	682.5	1.1
338.15	65015	685.9	1.2
343.15	5000	624.2	0.8
343.15	10002	631.4	0.9
343.15	15025	637.8	0.9
343.15	20016	643.7	0.9
343.15	24973	649.1	0.9
343.15	29947	654.2	1
343.15	34977	658.9	1
343.15	39962	663.4	1
343.15	44924	667.6	1
343.15	50034	671.8	1.1
343.15	54984	675.6	1.1
343.15	59973	679.3	1.1
343.15	65018	682.9	1.2
348.15	4999	619.4	0.8
348.15	10005	626.9	0.9
348.15	15001	633.6	0.9
348.15	19997	639.7	0.9
348.15	24983	645.3	0.9
348.15	30044	650.6	1
348.15	34962	655.3	1
348.15	40008	660	1
348.15	44956	664.3	1.1
348.15	50006	668.4	1.1
348.15	54987	672.4	1.1
348.15	59977	676.1	1.2
348.15	65005	679.8	1.2
353.15	4969	614.4	0.8
353.15	9927	622.1	0.9
353.15	14990	629.2	0.9
353.15	20018	635.5	0.9
353.15	25032	641.3	0.9
353.15	29979	646.6	1
353.15	34952	651.6	1
353.15	39962	656.4	1
353.15	44947	660.8	1.1
353.15	49917	665	1.1
353.15	55013	669.1	1.1
353.15	59927	672.9	1.2
353.15	65026	676.6	1.2
358.15	4945	609.3	0.8
358.15	9952	617.5	0.9
358.15	15000	624.7	0.9
358.15	20004	631.3	0.9
358.15	25020	637.3	0.9
358.15	29990	642.7	1
358.15	34993	647.8	1
358.15	40000	652.7	1
358.15	44971	657.2	1.1
358.15	49932	661.5	1.1
358.15	54965	665.6	1.1
358.15	59980	669.6	1.2
358.15	65056	673.4	1.2
363.15	5004	604.2	0.8
363.15	9965	612.8	0.9
363.15	15052	620.5	0.9
363.15	19925	627.1	0.9
363.15	25013	633.3	0.9
363.15	29929	638.9	1
363.15	35008	644.2	1
363.15	39979	649.1	1
363.15	45062	653.9	1.1
363.15	50011	658.2	1.1
363.15	54995	662.4	1.1
363.15	60039	666.4	1.2
363.15	65041	670.2	1.2

System: 2,4-dimethylpentane; phases: Liquid
Property: Mass density, kg/m3 (Liquid); method: Vibrating tube method
Temperature, K	Pressure, kPa	Mass density, kg/m3	uncertainty
283.15	95	681.7	0.8
283.15	4961	686.3	0.8
283.15	9969	690.9	0.8
283.15	14980	695.1	0.9
283.15	19985	699.1	0.9
283.15	25039	702.9	0.9
283.15	30016	706.5	0.9
283.15	35089	710	0.9
283.15	40016	713.3	1
283.15	45012	716.4	1
283.15	49972	719.5	1
283.15	54980	722.4	1
283.15	59931	725.3	1.1
283.15	65047	728.1	1.1
288.15	127	677.3	0.8
288.15	4984	682.2	0.8
288.15	9987	686.8	0.8
288.15	14976	691.2	0.9
288.15	19996	695.3	0.9
288.15	24895	699.2	0.9
288.15	30002	703	0.9
288.15	34983	706.5	0.9
288.15	40000	709.9	1
288.15	44974	713.1	1
288.15	49950	716.2	1
288.15	55010	719.3	1
288.15	60065	722.2	1.1
288.15	64958	725	1.1
293.15	83	672.8	0.8
293.15	4982	677.9	0.8
293.15	9969	682.7	0.8
293.15	15059	687.3	0.9
293.15	19914	691.5	0.9
293.15	25056	695.6	0.9
293.15	29936	699.3	0.9
293.15	34976	703	0.9
293.15	39994	706.4	1
293.15	44992	709.8	1
293.15	50030	713	1
293.15	54953	716	1.1
293.15	59933	719	1.1
293.15	65045	721.9	1.1
298.15	92	668.3	0.8
298.15	4941	673.6	0.8
298.15	9982	678.6	0.8
298.15	14991	683.3	0.9
298.15	19963	687.6	0.9
298.15	25048	691.8	0.9
298.15	29972	695.7	0.9
298.15	34945	699.4	0.9
298.15	39958	702.9	1
298.15	45007	706.4	1
298.15	49963	709.6	1
298.15	55008	712.8	1.1
298.15	60003	715.8	1.1
298.15	65017	718.8	1.1
303.15	72	663.8	0.8
303.15	4969	669.3	0.8
303.15	9974	674.5	0.8
303.15	14963	679.3	0.9
303.15	19981	683.9	0.9
303.15	25047	688.2	0.9
303.15	29954	692.1	0.9
303.15	34987	695.9	1
303.15	39964	699.6	1
303.15	45006	703.1	1
303.15	49991	706.4	1
303.15	55060	709.7	1.1
303.15	59991	712.8	1.1
303.15	65054	715.8	1.1
308.15	100	659.4	0.8
308.15	4987	665.1	0.8
308.15	9965	670.4	0.8
308.15	15040	675.5	0.9
308.15	19960	680.1	0.9
308.15	24964	684.4	0.9
308.15	30076	688.7	0.9
308.15	34985	692.5	1
308.15	39972	696.2	1
308.15	44972	699.8	1
308.15	49955	703.2	1
308.15	54996	706.5	1.1
308.15	60063	709.7	1.1
308.15	65021	712.7	1.1
313.15	108	654.9	0.8
313.15	5004	660.8	0.8
313.15	10013	666.4	0.8
313.15	15049	671.6	0.9
313.15	19963	676.3	0.9
313.15	25062	680.9	0.9
313.15	29960	685	0.9
313.15	34942	689	1
313.15	40039	692.9	1
313.15	45017	696.6	1
313.15	50065	700.1	1
313.15	54977	703.4	1.1
313.15	59923	706.6	1.1
313.15	64996	709.7	1.1
318.15	110	650.2	0.8
318.15	5061	656.5	0.8
318.15	9957	662.2	0.8
318.15	15002	667.6	0.9
318.15	19980	672.5	0.9
318.15	25013	677.1	0.9
318.15	30045	681.5	0.9
318.15	34965	685.6	1
318.15	39938	689.5	1
318.15	44971	693.2	1
318.15	49989	696.8	1
318.15	55009	700.2	1.1
318.15	59952	703.5	1.1
318.15	65056	706.7	1.1
323.15	121	645.6	0.8
323.15	5001	652.1	0.8
323.15	10007	658.1	0.8
323.15	15037	663.6	0.9
323.15	19969	668.7	0.9
323.15	25018	673.5	0.9
323.15	29938	677.9	0.9
323.15	35006	682.2	1
323.15	39965	686.1	1
323.15	45012	690	1
323.15	49970	693.6	1.1
323.15	54953	697.1	1.1
323.15	59965	700.4	1.1
323.15	65022	703.7	1.1
328.15	98	641	0.8
328.15	5010	647.8	0.8
328.15	9934	653.9	0.8
328.15	14950	659.6	0.9
328.15	19968	664.9	0.9
328.15	25011	669.8	0.9
328.15	30040	674.5	0.9
328.15	34952	678.7	1
328.15	39959	682.8	1
328.15	45017	686.8	1
328.15	49935	690.4	1.1
328.15	54941	694	1.1
328.15	59962	697.4	1.1
328.15	65006	700.8	1.1
333.15	92	636.3	0.8
333.15	4968	643.3	0.8
333.15	9977	649.8	0.8
333.15	15014	655.7	0.9
333.15	19986	661.1	0.9
333.15	25001	666.2	0.9
333.15	29959	670.9	0.9
333.15	34922	675.3	1
333.15	39972	679.5	1
333.15	45064	683.6	1
333.15	50006	687.3	1.1
333.15	54975	691	1.1
333.15	59984	694.5	1.1
333.15	64995	697.8	1.2
338.15	107	631.7	0.8
338.15	5007	639.1	0.8
338.15	9978	645.7	0.8
338.15	14968	651.8	0.9
338.15	19968	657.4	0.9
338.15	25042	662.7	0.9
338.15	30018	667.5	0.9
338.15	35052	672.1	1
338.15	39990	676.3	1
338.15	45087	680.5	1
338.15	49968	684.3	1.1
338.15	55044	688.1	1.1
338.15	60031	691.6	1.1
338.15	64997	695	1.2
343.15	98	626.8	0.8
343.15	4944	634.4	0.8
343.15	10008	641.5	0.9
343.15	14958	647.7	0.9
343.15	19959	653.5	0.9
343.15	25045	658.9	0.9
343.15	30012	663.9	0.9
343.15	34980	668.5	1
343.15	40024	672.9	1
343.15	44956	677.1	1
343.15	50037	681.1	1.1
343.15	55010	684.9	1.1
343.15	59979	688.5	1.1
343.15	65088	692.1	1.2
348.15	103	622	0.8
348.15	4998	630	0.8
348.15	9948	637.2	0.9
348.15	15016	643.8	0.9
348.15	19991	649.7	0.9
348.15	25051	655.3	0.9
348.15	29994	660.3	1
348.15	34970	665.1	1
348.15	39979	669.6	1
348.15	45063	673.9	1
348.15	50024	678	1.1
348.15	54974	681.8	1.1
348.15	59994	685.5	1.1
353.15	1014	618.8	0.8
353.15	5010	625.6	0.8
353.15	9950	633	0.9
353.15	15037	639.9	0.9
353.15	19996	646	0.9
353.15	25024	651.7	0.9
353.15	29983	656.9	1
353.15	34950	661.8	1
353.15	40060	666.5	1
353.15	45017	670.8	1
353.15	49987	674.9	1.1
353.15	54976	678.9	1.1
353.15	59989	682.7	1.1
358.15	5026	621	0.8
358.15	9954	628.7	0.9
358.15	15017	635.8	0.9
358.15	19926	642	0.9
358.15	25014	647.9	0.9
358.15	30045	653.4	1
358.15	35004	658.3	1
358.15	40013	663.1	1
358.15	44988	667.5	1
358.15	49996	671.7	1.1
358.15	55037	675.8	1.1
358.15	60020	679.6	1.1
358.15	65016	683.3	1.2
363.15	4947	616.2	0.8
363.15	10031	624.5	0.9
363.15	15019	631.7	0.9
363.15	19970	638.2	0.9
363.15	25122	644.3	0.9
363.15	30059	649.8	1
363.15	35064	654.9	1
363.15	40055	659.8	1
363.15	45078	664.3	1.1
363.15	49933	668.5	1.1
363.15	54989	672.7	1.1
363.15	59992	676.6	1.2
363.15	65058	680.3	1.2

System: 2,3,4-trimethylpentane; phases: Liquid
Property: Mass density, kg/m3 (Liquid); method: Vibrating tube method
Temperature, K	Pressure, kPa	Mass density, kg/m3	uncertainty
283.15	130	728.3	0.8
283.15	4973	732.2	0.8
283.15	9993	736	0.9
283.15	14965	739.6	0.9
283.15	20000	743	0.9
283.15	25003	746.3	0.9
283.15	29990	749.5	0.9
283.15	35009	752.5	1
283.15	39961	755.4	1
283.15	45014	758.3	1
283.15	49986	761	1
283.15	54944	763.6	1
283.15	60030	766.3	1.1
283.15	65014	768.8	1.1
288.15	102	724.3	0.8
288.15	5015	728.4	0.8
288.15	9991	732.3	0.9
288.15	14975	736	0.9
288.15	20038	739.6	0.9
288.15	25021	743	0.9
288.15	29929	746.1	0.9
288.15	35037	749.3	1
288.15	40039	752.3	1
288.15	44998	755.2	1
288.15	49927	757.9	1
288.15	54967	760.6	1.1
288.15	59925	763.2	1.1
288.15	65032	765.9	1.1
293.15	111	720.4	0.8
293.15	5021	724.6	0.8
293.15	9998	728.6	0.9
293.15	14997	732.4	0.9
293.15	19997	736.1	0.9
293.15	25022	739.6	0.9
293.15	29930	742.8	0.9
293.15	34968	746	1
293.15	39974	749.1	1
293.15	45009	752	1
293.15	49965	754.9	1
293.15	54987	757.6	1.1
293.15	59945	760.3	1.1
293.15	65000	762.9	1.1
298.15	105	716.2	0.8
298.15	5072	720.6	0.8
298.15	9964	724.7	0.9
298.15	15013	728.7	0.9
298.15	20054	732.5	0.9
298.15	25008	736	0.9
298.15	29968	739.4	0.9
298.15	34937	742.6	1
298.15	40018	745.8	1
298.15	45064	748.8	1
298.15	50010	751.7	1
298.15	55015	754.5	1.1
298.15	59955	757.2	1.1
298.15	65024	759.9	1.1
303.15	100	712	0.8
303.15	4934	716.5	0.8
303.15	10038	720.9	0.9
303.15	14973	724.9	0.9
303.15	19957	728.7	0.9
303.15	25002	732.4	0.9
303.15	29980	735.9	0.9
303.15	34972	739.3	1
303.15	39972	742.5	1
303.15	44990	745.6	1
303.15	49984	748.5	1
303.15	54948	751.4	1.1
303.15	59951	754.2	1.1
303.15	65040	756.9	1.1
308.15	92	707.8	0.8
308.15	5051	712.5	0.8
308.15	9961	716.8	0.9
308.15	14959	721	0.9
308.15	20027	725	0.9
308.15	25025	728.8	0.9
308.15	29996	732.4	0.9
308.15	34959	735.7	1
308.15	40017	739.1	1
308.15	45023	742.2	1
308.15	49965	745.2	1
308.15	54977	748.2	1.1
308.15	60020	751	1.1
308.15	64995	753.8	1.1
313.15	99	703.6	0.8
313.15	4997	708.5	0.8
313.15	9998	713.1	0.9
313.15	15010	717.4	0.9
313.15	19994	721.4	0.9
313.15	25007	725.3	0.9
313.15	29995	729	0.9
313.15	35008	732.4	1
313.15	39993	735.8	1
313.15	45005	739	1
313.15	49990	742.1	1
313.15	55003	745.1	1.1
313.15	59996	748	1.1
313.15	64993	750.8	1.1
318.15	104	699.5	0.8
318.15	4961	704.4	0.8
318.15	10003	709.2	0.9
318.15	15026	713.7	0.9
318.15	19937	717.8	0.9
318.15	25012	721.8	0.9
318.15	29990	725.5	1
318.15	34991	729.1	1
318.15	39976	732.5	1
318.15	45028	735.8	1
318.15	49973	739	1.1
318.15	54916	742	1.1
318.15	59988	744.9	1.1
318.15	65015	747.8	1.1
323.15	111	695.4	0.8
323.15	5025	700.6	0.8
323.15	10013	705.5	0.9
323.15	14973	710	0.9
323.15	20028	714.4	0.9
323.15	25014	718.4	0.9
323.15	29976	722.2	1
323.15	34994	725.9	1
323.15	39992	729.4	1
323.15	45046	732.8	1
323.15	49980	736	1.1
323.15	54968	739.1	1.1
323.15	59988	742.1	1.1
323.15	65068	745	1.1
328.15	94	691.3	0.8
328.15	4971	696.6	0.8
328.15	9997	701.7	0.9
328.15	14959	706.4	0.9
328.15	19969	710.9	0.9
328.15	25055	715.1	0.9
328.15	29960	719	1
328.15	34966	722.7	1
328.15	40013	726.3	1
328.15	45034	729.8	1
328.15	50015	733.1	1.1
328.15	54973	736.2	1.1
328.15	59955	739.2	1.1
328.15	64992	742.2	1.1
333.15	95	687.1	0.8
333.15	4934	692.6	0.8
333.15	9973	697.9	0.9
333.15	14973	702.8	0.9
333.15	19993	707.4	0.9
333.15	24959	711.6	0.9
333.15	29952	715.7	1
333.15	34974	719.5	1
333.15	39961	723.2	1
333.15	44999	726.7	1
333.15	49992	730.1	1.1
333.15	54798	733.2	1.1
333.15	59952	736.4	1.1
333.15	65050	739.5	1.1
338.15	115	683.1	0.8
338.15	4978	688.9	0.8
338.15	9970	694.3	0.9
338.15	14966	699.3	0.9
338.15	19960	703.9	0.9
338.15	24994	708.4	0.9
338.15	30030	712.5	1
338.15	34973	716.3	1
338.15	39979	720	1
338.15	45024	723.6	1
338.15	50019	727.1	1.1
338.15	54928	730.3	1.1
338.15	59953	733.5	1.1
338.15	64998	736.6	1.2
343.15	109	678.8	0.8
343.15	5084	684.9	0.9
343.15	9963	690.4	0.9
343.15	15039	695.6	0.9
343.15	20010	700.4	0.9
343.15	24998	704.9	0.9
343.15	30054	709.2	1
343.15	35048	713.2	1
343.15	40023	717	1
343.15	44967	720.6	1
343.15	50023	724.2	1.1
343.15	54967	727.5	1.1
343.15	59995	730.7	1.1
343.15	64954	733.8	1.2
348.15	112	674.5	0.8
348.15	5011	680.8	0.9
348.15	10066	686.6	0.9
348.15	14992	691.9	0.9
348.15	19955	696.8	0.9
348.15	25042	701.5	0.9
348.15	29986	705.8	1
348.15	35004	709.9	1
348.15	40002	713.9	1
348.15	44996	717.6	1
348.15	49994	721.1	1.1
348.15	54995	724.6	1.1
348.15	60005	727.9	1.1
348.15	65009	731	1.2
353.15	109	670.1	0.8
353.15	4963	676.6	0.9
353.15	9919	682.5	0.9
353.15	15039	688.2	0.9
353.15	19995	693.2	0.9
353.15	24983	698	0.9
353.15	29960	702.4	1
353.15	34985	706.7	1
353.15	39983	710.7	1
353.15	45037	714.5	1
353.15	49989	718.1	1.1
353.15	54953	721.6	1.1
353.15	59909	724.9	1.1
353.15	65052	728.2	1.2
358.15	118	665.9	0.8
358.15	4955	672.5	0.9
358.15	9916	678.7	0.9
358.15	15035	684.5	0.9
358.15	19946	689.6	0.9
358.15	25037	694.6	0.9
358.15	29963	699.2	1
358.15	35027	703.4	1
358.15	40010	707.5	1
358.15	44955	711.4	1.1
358.15	50023	715.1	1.1
358.15	54980	718.7	1.1
358.15	59952	722	1.1
358.15	65021	725.4	1.2
363.15	101	661.3	0.8
363.15	4941	668.3	0.9
363.15	9928	674.7	0.9
363.15	15005	680.6	0.9
363.15	19958	686	0.9
363.15	24923	691	0.9
363.15	29983	695.8	1
363.15	34922	700.1	1
363.15	39992	704.4	1
363.15	45038	708.4	1.1
363.15	49985	712.2	1.1
363.15	54981	715.8	1.1
363.15	59985	719.3	1.1
363.15	65038	722.6	1.2
