Measured thermophysical data. Thermodynamic Study of Aggregation of Cholinium Perfluoroalkanoate Ionic Liquids
Source: J. Chem. Eng. Data, 2016, 10.1021/acs.jced.6b00455
Compound 1: (2-hydroxyethyl)trimethylammonium perfluoropentanoate, C10H14F9NO3, InChI=1S/C5HF9O2.C5H14NO/c6-2(7,1(15)16)3(8,9)4(10,11)5(12,13)14;1-6(2,3)4-5-7/h(H,15,16);7H,4-5H2,1-3H3/q;+1/p-1, purity 98.9%
Compound 2: (2-hydroxyethyl)trimethylammonium perfluorohexanoate, C11H14F11NO3, InChI=1S/C6HF11O2.C5H14NO/c7-2(8,1(18)19)3(9,10)4(11,12)5(13,14)6(15,16)17;1-6(2,3)4-5-7/h(H,18,19);7H,4-5H2,1-3H3/q;+1/p-1, purity 98.9%
Compound 3: (2-hydroxyethyl)trimethylammonium perfluoroheptanoate, C12H14F13NO3, InChI=1S/C7HF13O2.C5H14NO/c8-2(9,1(21)22)3(10,11)4(12,13)5(14,15)6(16,17)7(18,19)20;1-6(2,3)4-5-7/h(H,21,22);7H,4-5H2,1-3H3/q;+1/p-1, purity 99%
Compound 4: (2-hydroxyethyl)trimethylammonium perfluorooctanoate, C13H14F15NO3, InChI=1S/C8HF15O2.C5H14NO/c9-2(10,1(24)25)3(11,12)4(13,14)5(15,16)6(17,18)7(19,20)8(21,22)23;1-6(2,3)4-5-7/h(H,24,25);7H,4-5H2,1-3H3/q;+1/p-1, purity 98.9%
Compound 5: water, H2O, InChI=1S/H2O/h1H2, purity 99.9%

System: water + (2-hydroxyethyl)trimethylammonium perfluoropentanoate; phases: Liquid
Fixed: Pressure, kPa = 101
Property: Electrical conductivity, S/m (Liquid); method: Alternating current cell with electrodes
Temperature, K	Molality, mol/kg of (2-hydroxyethyl)trimethylammonium perfluoropentanoate	Electrical conductivity, S/m	uncertainty
293.15	0	0	0.0001
293.15	0.000529	0.0033	0.0002
293.15	0.001164	0.0074	0.0004
293.15	0.001886	0.012	0.0007
293.15	0.002281	0.0144	0.0009
293.15	0.002766	0.0174	0.001
293.15	0.003311	0.0207	0.0012
293.15	0.003805	0.0236	0.0014
293.15	0.004377	0.0271	0.0016
293.15	0.004908	0.0302	0.0018
293.15	0.005409	0.033	0.002
293.15	0.005979	0.0364	0.0022
293.15	0.006697	0.0404	0.0024
293.15	0.007467	0.0447	0.0027
293.15	0.008082	0.0481	0.0029
293.15	0.00858	0.0508	0.003
293.15	0.009905	0.058	0.0035
293.15	0.011416	0.066	0.004
293.15	0.012398	0.0711	0.0043
293.15	0.013237	0.0753	0.0045
293.15	0.013992	0.0792	0.0048
293.15	0.015129	0.085	0.0051
293.15	0.015977	0.0891	0.0053
293.15	0.016947	0.0936	0.0056
293.15	0.017894	0.098	0.0059
293.15	0.018836	0.1025	0.0062
293.15	0.019937	0.1078	0.0065
293.15	0.020762	0.1116	0.0067
293.15	0.021795	0.1164	0.007
293.15	0.022638	0.1196	0.0072
293.15	0.023478	0.1233	0.0074
293.15	0.024505	0.1279	0.0077
298.15	0	0	0.0001
298.15	0.00173	0.0127	0.0008
298.15	0.003076	0.0222	0.0013
298.15	0.004761	0.0337	0.002
298.15	0.006222	0.0434	0.0026
298.15	0.007398	0.0509	0.0031
298.15	0.008599	0.0589	0.0035
298.15	0.010047	0.0687	0.0041
298.15	0.011976	0.0799	0.0048
298.15	0.013677	0.0892	0.0054
298.15	0.01543	0.0996	0.006
298.15	0.016923	0.1081	0.0065
298.15	0.018403	0.1162	0.007
298.15	0.021109	0.1312	0.0079
298.15	0.022435	0.1383	0.0083
298.15	0.024152	0.1481	0.0089
298.15	0.026092	0.158	0.009
298.15	0.028182	0.1695	0.0102
298.15	0.031	0.1834	0.011
298.15	0.033889	0.1979	0.0119
298.15	0.037456	0.2153	0.0129
298.15	0.040115	0.2284	0.0137
298.15	0.043119	0.2447	0.0147
303.15	0	0	0.0001
303.15	0.000602	0.005	0.0003
303.15	0.001118	0.0092	0.0006
303.15	0.001883	0.0153	0.0009
303.15	0.002669	0.0214	0.0013
303.15	0.002939	0.0235	0.0014
303.15	0.003765	0.0297	0.0018
303.15	0.004158	0.0325	0.002
303.15	0.004947	0.0388	0.0023
303.15	0.005615	0.0446	0.0027
303.15	0.006164	0.0494	0.003
303.15	0.006758	0.0518	0.0031
303.15	0.007514	0.0567	0.0034
303.15	0.008082	0.0606	0.0036
303.15	0.008631	0.0643	0.0039
303.15	0.009197	0.0673	0.004
303.15	0.010117	0.0743	0.0045
303.15	0.011478	0.0832	0.005
303.15	0.012081	0.0872	0.0052
303.15	0.012599	0.0906	0.0054
303.15	0.013099	0.0936	0.0056
303.15	0.013732	0.0973	0.0058
303.15	0.014421	0.1016	0.0061
303.15	0.01495	0.1051	0.0063
303.15	0.016413	0.1143	0.0069
303.15	0.017047	0.1181	0.0071
303.15	0.017719	0.1213	0.0073
303.15	0.018235	0.1244	0.0075
303.15	0.018849	0.1278	0.0077
303.15	0.019412	0.1311	0.0079
303.15	0.019929	0.1341	0.008
303.15	0.020551	0.1378	0.0083
303.15	0.021161	0.142	0.0085
303.15	0.021835	0.146	0.0088
303.15	0.022585	0.1496	0.009
303.15	0.023081	0.1526	0.0092
303.15	0.023699	0.157	0.0094
303.15	0.024696	0.1637	0.0098
303.15	0.025565	0.1684	0.0101
303.15	0.017047	0.1181	0.0071
303.15	0.017719	0.1213	0.0073
303.15	0.018235	0.1244	0.0075
303.15	0.018849	0.1278	0.0077
303.15	0.019412	0.1311	0.0079
308.15	0	0	0.0001
308.15	0.000318	0.0029	0.0002
308.15	0.000786	0.007	0.0004
308.15	0.001299	0.0115	0.0007
308.15	0.001909	0.0169	0.001
308.15	0.002425	0.021	0.0013
308.15	0.002911	0.0256	0.0015
308.15	0.003184	0.0277	0.0017
308.15	0.003945	0.035	0.0021
308.15	0.004657	0.0404	0.0024
308.15	0.005206	0.0449	0.0027
308.15	0.005836	0.0493	0.003
308.15	0.006331	0.0529	0.0032
308.15	0.006772	0.0563	0.0034
308.15	0.007443	0.0629	0.0038
308.15	0.008421	0.0711	0.0043
308.15	0.008974	0.0763	0.0046
308.15	0.009871	0.0832	0.005
308.15	0.010438	0.0864	0.0052
308.15	0.01092	0.0897	0.0054
308.15	0.011591	0.0936	0.0056
308.15	0.012208	0.0982	0.0059
308.15	0.012484	0.1007	0.006
308.15	0.013139	0.1044	0.0063
308.15	0.013609	0.1078	0.0065
308.15	0.014415	0.1138	0.0068
308.15	0.014922	0.1192	0.0072
308.15	0.015683	0.1247	0.0075
308.15	0.0164	0.1302	0.0078
308.15	0.01694	0.1337	0.008
308.15	0.017868	0.1401	0.0084
308.15	0.018614	0.1452	0.0087
308.15	0.019413	0.1509	0.0091
308.15	0.02104	0.1621	0.0097
308.15	0.021926	0.1675	0.0101
308.15	0.022826	0.1735	0.0104
308.15	0.023689	0.1783	0.0107
308.15	0.02427	0.1823	0.0109
308.15	0.025019	0.188	0.0113
308.15	0.025633	0.1916	0.0115
313.15	0	0	0.0001
313.15	0.000187	0.0015	0.0001
313.15	0.000688	0.0067	0.0004
313.15	0.001827	0.0169	0.001
313.15	0.002361	0.0217	0.0013
313.15	0.002859	0.0266	0.0016
313.15	0.003424	0.0322	0.0019
313.15	0.00399	0.0371	0.0022
313.15	0.004604	0.0421	0.0025
313.15	0.005344	0.0499	0.003
313.15	0.005863	0.0548	0.0033
313.15	0.006345	0.0593	0.0036
313.15	0.006846	0.064	0.0038
313.15	0.008054	0.074	0.0044
313.15	0.008628	0.079	0.0047
313.15	0.009481	0.0864	0.0052
313.15	0.009912	0.0907	0.0054
313.15	0.010484	0.0955	0.0057
313.15	0.010991	0.0999	0.006
313.15	0.011529	0.1044	0.0063
313.15	0.012101	0.1096	0.0066
313.15	0.012675	0.1143	0.0069
313.15	0.01328	0.1193	0.0072
313.15	0.013875	0.1243	0.0075
313.15	0.014586	0.1296	0.0078
313.15	0.015447	0.1364	0.0082
313.15	0.015987	0.1407	0.0084
313.15	0.016899	0.1479	0.0089
313.15	0.018166	0.1574	0.0094
313.15	0.018786	0.1619	0.0097
313.15	0.01965	0.1685	0.0101
313.15	0.020193	0.1724	0.0103
313.15	0.020825	0.1772	0.0106
313.15	0.021342	0.1805	0.0108
313.15	0.021944	0.1845	0.0111
313.15	0.022552	0.1897	0.0114
313.15	0.023281	0.1951	0.0117
313.15	0.024086	0.2001	0.012

System: water + (2-hydroxyethyl)trimethylammonium perfluorohexanoate; phases: Liquid
Fixed: Pressure, kPa = 101
Property: Electrical conductivity, S/m (Liquid); method: Alternating current cell with electrodes
Temperature, K	Molality, mol/kg of (2-hydroxyethyl)trimethylammonium perfluorohexanoate	Electrical conductivity, S/m	uncertainty
293.15	0	0	0.0001
293.15	0.000375	0.0022	0.0001
293.15	0.000696	0.0041	0.0003
293.15	0.001138	0.0071	0.0004
293.15	0.001477	0.0092	0.0006
293.15	0.001847	0.0114	0.0007
293.15	0.002373	0.0146	0.0009
293.15	0.00271	0.0166	0.001
293.15	0.003146	0.0191	0.0011
293.15	0.003565	0.0215	0.0013
293.15	0.003898	0.0234	0.0014
293.15	0.004204	0.0251	0.0015
293.15	0.004601	0.0273	0.0016
293.15	0.00507	0.03	0.0018
293.15	0.00539	0.0318	0.0019
293.15	0.005815	0.034	0.002
293.15	0.006239	0.0364	0.0022
293.15	0.00662	0.0384	0.0023
293.15	0.007072	0.0408	0.0024
293.15	0.007377	0.0425	0.0026
293.15	0.007726	0.0443	0.0027
293.15	0.008233	0.047	0.0028
293.15	0.008702	0.0493	0.003
293.15	0.009174	0.0517	0.0031
293.15	0.009518	0.0535	0.0032
293.15	0.009916	0.0557	0.0033
293.15	0.010429	0.0585	0.0035
293.15	0.010746	0.0607	0.0036
293.15	0.01135	0.0637	0.0038
293.15	0.011814	0.0666	0.004
293.15	0.012232	0.0687	0.0041
298.15	0	0	0.0001
298.15	0.00055	0.0043	0.0003
298.15	0.001005	0.0076	0.0005
298.15	0.001703	0.0126	0.0008
298.15	0.002219	0.0163	0.001
298.15	0.002829	0.0204	0.0012
298.15	0.003309	0.0241	0.0014
298.15	0.003767	0.0269	0.0016
298.15	0.00423	0.0305	0.0018
298.15	0.004871	0.0338	0.002
298.15	0.005471	0.0376	0.0023
298.15	0.005971	0.0408	0.0024
298.15	0.006435	0.0436	0.0026
298.15	0.007097	0.0477	0.0029
298.15	0.007791	0.0519	0.0031
298.15	0.008432	0.0557	0.0033
298.15	0.008992	0.0589	0.0035
298.15	0.009929	0.0652	0.0039
298.15	0.01068	0.0683	0.0041
298.15	0.011797	0.0747	0.0045
298.15	0.012429	0.0781	0.0047
298.15	0.013155	0.0821	0.0049
298.15	0.014456	0.0892	0.0054
303.15	0	0	0.0001
303.15	0.000466	0.0041	0.0003
303.15	0.000808	0.0072	0.0004
303.15	0.001191	0.0104	0.0006
303.15	0.001576	0.0137	0.0008
303.15	0.002245	0.0181	0.0011
303.15	0.002642	0.0212	0.0013
303.15	0.00302	0.0242	0.0015
303.15	0.003455	0.0274	0.0016
303.15	0.003946	0.0311	0.0019
303.15	0.004412	0.0342	0.0021
303.15	0.004852	0.0375	0.0023
303.15	0.00528	0.0407	0.0024
303.15	0.005774	0.0442	0.0027
303.15	0.006137	0.0465	0.0028
303.15	0.006412	0.0486	0.0029
303.15	0.006786	0.0514	0.0031
303.15	0.00737	0.0557	0.0033
303.15	0.007781	0.0587	0.0035
303.15	0.008049	0.0605	0.0036
303.15	0.008511	0.0638	0.0038
303.15	0.008888	0.0663	0.004
303.15	0.009262	0.0691	0.0041
303.15	0.009766	0.0727	0.0044
303.15	0.010216	0.0763	0.0046
308.15	0	0	0.0001
308.15	0.00032	0.0028	0.0002
308.15	0.000664	0.006	0.0004
308.15	0.000979	0.0086	0.0005
308.15	0.001217	0.0105	0.0006
308.15	0.001449	0.0125	0.0008
308.15	0.001666	0.0142	0.0009
308.15	0.002016	0.017	0.001
308.15	0.00224	0.0188	0.0011
308.15	0.002547	0.0213	0.0013
308.15	0.002821	0.0235	0.0014
308.15	0.003227	0.0266	0.0016
308.15	0.003473	0.0285	0.0017
308.15	0.003909	0.0318	0.0019
308.15	0.004306	0.0348	0.0021
308.15	0.004503	0.0365	0.0022
308.15	0.004751	0.0383	0.0023
308.15	0.005079	0.0408	0.0024
308.15	0.005473	0.0437	0.0026
308.15	0.005677	0.0452	0.0027
308.15	0.005898	0.0468	0.0028
308.15	0.006135	0.0484	0.0029
308.15	0.006462	0.0505	0.003
308.15	0.006775	0.0522	0.0031
308.15	0.006992	0.0537	0.0032
308.15	0.007243	0.0556	0.0033
308.15	0.00746	0.0572	0.0034
308.15	0.007893	0.0603	0.0036
308.15	0.008273	0.063	0.0038
308.15	0.008535	0.0647	0.0039
308.15	0.008941	0.0676	0.0041
308.15	0.009261	0.0697	0.0042
308.15	0.009516	0.0711	0.0043
308.15	0.009886	0.0734	0.0044
308.15	0.010253	0.076	0.0046
313.15	0	0	0.0001
313.15	0.00043	0.0042	0.0003
313.15	0.000832	0.008	0.0005
313.15	0.001262	0.012	0.0007
313.15	0.001627	0.0157	0.0009
313.15	0.002033	0.0192	0.0012
313.15	0.00239	0.0224	0.0013
313.15	0.002657	0.0247	0.0015
313.15	0.002904	0.0268	0.0016
313.15	0.003178	0.0292	0.0018
313.15	0.003443	0.0314	0.0019
313.15	0.003771	0.0349	0.0021
313.15	0.004146	0.038	0.0023
313.15	0.004519	0.0412	0.0025
313.15	0.004784	0.0433	0.0026
313.15	0.005179	0.0467	0.0028
313.15	0.005436	0.0487	0.0029
313.15	0.005698	0.051	0.0031
313.15	0.006109	0.0544	0.0033
313.15	0.006403	0.0567	0.0034
313.15	0.006614	0.0584	0.0035
313.15	0.006889	0.0606	0.0036
313.15	0.007247	0.0637	0.0038
313.15	0.007657	0.0669	0.004
313.15	0.008021	0.0699	0.0042
313.15	0.008353	0.0725	0.0044
313.15	0.0086	0.0744	0.0045
313.15	0.008852	0.0763	0.0046
313.15	0.009114	0.0783	0.0047
313.15	0.009356	0.0803	0.0048
313.15	0.009621	0.0823	0.0049
313.15	0.009883	0.0842	0.0051
313.15	0.010243	0.0869	0.0052
313.15	0.010489	0.0888	0.0053

System: water + (2-hydroxyethyl)trimethylammonium perfluoroheptanoate; phases: Liquid
Fixed: Pressure, kPa = 101
Property: Electrical conductivity, S/m (Liquid); method: Alternating current cell with electrodes
Temperature, K	Molality, mol/kg of (2-hydroxyethyl)trimethylammonium perfluoroheptanoate	Electrical conductivity, S/m	uncertainty
293.15	0	0	0.0001
293.15	0.000135	0.0009	0.0001
293.15	0.000317	0.002	0.0001
293.15	0.000535	0.0035	0.0002
293.15	0.000719	0.0047	0.0003
293.15	0.000905	0.0059	0.0004
293.15	0.001097	0.0071	0.0004
293.15	0.001295	0.0083	0.0005
293.15	0.001556	0.01	0.0006
293.15	0.001738	0.0112	0.0007
293.15	0.001921	0.0124	0.0007
293.15	0.002361	0.0151	0.0009
293.15	0.002553	0.0164	0.001
293.15	0.002745	0.0179	0.0011
293.15	0.002967	0.0189	0.0011
293.15	0.003167	0.0201	0.0012
293.15	0.003365	0.021	0.0013
293.15	0.003617	0.0224	0.0013
293.15	0.003811	0.0234	0.0014
293.15	0.003989	0.0244	0.0015
293.15	0.004235	0.0259	0.0016
293.15	0.004463	0.0271	0.0016
293.15	0.004647	0.0283	0.0017
293.15	0.005243	0.0318	0.0019
293.15	0.00563	0.0339	0.002
293.15	0.006196	0.037	0.0022
293.15	0.006659	0.0405	0.0024
293.15	0.006813	0.0416	0.0025
293.15	0.007215	0.0437	0.0026
293.15	0.007673	0.0468	0.0028
293.15	0.007989	0.0489	0.0029
298.15	0	0	0.0001
298.15	0.000182	0.0012	0.0001
298.15	0.000351	0.0023	0.0001
298.15	0.000524	0.0036	0.0002
298.15	0.000696	0.0048	0.0003
298.15	0.000849	0.0059	0.0004
298.15	0.001022	0.0071	0.0004
298.15	0.001139	0.0079	0.0005
298.15	0.001334	0.0092	0.0006
298.15	0.001552	0.0107	0.0006
298.15	0.001763	0.0123	0.0007
298.15	0.001988	0.014	0.0008
298.15	0.002225	0.0158	0.0009
298.15	0.002433	0.0172	0.001
298.15	0.002631	0.0186	0.0011
298.15	0.00283	0.0198	0.0012
298.15	0.003092	0.0212	0.0013
298.15	0.003297	0.0222	0.0013
298.15	0.003578	0.0237	0.0014
298.15	0.003893	0.0254	0.0015
298.15	0.004239	0.0271	0.0016
298.15	0.004535	0.0288	0.0017
298.15	0.004786	0.0303	0.0018
298.15	0.00505	0.0318	0.0019
298.15	0.005319	0.0333	0.002
298.15	0.005529	0.0345	0.0021
298.15	0.005823	0.0361	0.0022
303.15	0	0	0.0001
303.15	0.000162	0.0014	0.0001
303.15	0.000327	0.0027	0.0002
303.15	0.000396	0.0031	0.0002
303.15	0.000558	0.0045	0.0003
303.15	0.000597	0.0046	0.0003
303.15	0.000902	0.0068	0.0004
303.15	0.001056	0.0084	0.0005
303.15	0.001145	0.0088	0.0005
303.15	0.001333	0.0102	0.0006
303.15	0.001525	0.0116	0.0007
303.15	0.001575	0.0126	0.0008
303.15	0.001779	0.0138	0.0008
303.15	0.001975	0.0164	0.001
303.15	0.00219	0.0173	0.001
303.15	0.002392	0.0187	0.0011
303.15	0.002573	0.0201	0.0012
303.15	0.002757	0.0218	0.0013
303.15	0.003	0.0233	0.0014
303.15	0.003295	0.0254	0.0015
303.15	0.003479	0.0262	0.0016
303.15	0.003569	0.0269	0.0016
303.15	0.00377	0.0282	0.0017
303.15	0.00395	0.0297	0.0018
303.15	0.004136	0.0313	0.0019
303.15	0.004356	0.033	0.002
303.15	0.00458	0.0343	0.0021
303.15	0.004761	0.0357	0.0021
303.15	0.005083	0.0368	0.0022
308.15	0	0	0.0001
308.15	0.000308	0.0028	0.0002
308.15	0.001088	0.0096	0.0006
308.15	0.001458	0.0131	0.0008
308.15	0.001696	0.0151	0.0009
308.15	0.001932	0.0174	0.001
308.15	0.002314	0.0204	0.0012
308.15	0.002768	0.0243	0.0015
308.15	0.002948	0.0255	0.0015
308.15	0.003212	0.0279	0.0017
308.15	0.003414	0.0297	0.0018
308.15	0.003749	0.0324	0.0019
308.15	0.004024	0.0348	0.0021
308.15	0.004369	0.037	0.0022
308.15	0.004622	0.0392	0.0024
308.15	0.004874	0.0413	0.0025
308.15	0.00517	0.0438	0.0026
308.15	0.005462	0.0462	0.0028
313.15	0	0	0.0001
313.15	0.000152	0.0016	0.0001
313.15	0.000311	0.0032	0.0002
313.15	0.000509	0.005	0.0003
313.15	0.000756	0.0072	0.0004
313.15	0.000952	0.0094	0.0006
313.15	0.001127	0.0112	0.0007
313.15	0.001383	0.0138	0.0008
313.15	0.001573	0.0155	0.0009
313.15	0.001796	0.0179	0.0011
313.15	0.001971	0.0201	0.0012
313.15	0.002233	0.0227	0.0014
313.15	0.002359	0.0239	0.0014
313.15	0.002573	0.0262	0.0016
313.15	0.002937	0.0297	0.0018
313.15	0.003135	0.0321	0.0019
313.15	0.003363	0.0336	0.002
313.15	0.003618	0.0359	0.0022
313.15	0.003798	0.0379	0.0023
313.15	0.003983	0.0396	0.0024
313.15	0.004151	0.0413	0.0025
313.15	0.004487	0.0444	0.0027
313.15	0.004771	0.0466	0.0028
313.15	0.00507	0.0489	0.0029
313.15	0.005297	0.0508	0.003
313.15	0.005682	0.0543	0.0033

System: (2-hydroxyethyl)trimethylammonium perfluorooctanoate + water; phases: Liquid
Fixed: Pressure, kPa = 101
Property: Electrical conductivity, S/m (Liquid); method: Alternating current cell with electrodes
Temperature, K	Molality, mol/kg of (2-hydroxyethyl)trimethylammonium perfluorooctanoate	Electrical conductivity, S/m	uncertainty
293.15	0	0	0.0001
293.15	7.6e-05	0.0005	0.0001
293.15	0.000243	0.0015	0.0001
293.15	0.000338	0.0021	0.0001
293.15	0.000489	0.0031	0.0002
293.15	0.000626	0.0039	0.0002
293.15	0.000747	0.0046	0.0003
293.15	0.000847	0.0053	0.0003
293.15	0.000968	0.0061	0.0004
293.15	0.001108	0.007	0.0004
293.15	0.001301	0.008	0.0005
293.15	0.001463	0.0091	0.0005
293.15	0.001591	0.0098	0.0006
293.15	0.001689	0.0106	0.0006
293.15	0.00186	0.0114	0.0007
293.15	0.001996	0.0123	0.0007
293.15	0.002117	0.0129	0.0008
293.15	0.00224	0.0138	0.0008
293.15	0.002376	0.0145	0.0009
293.15	0.002497	0.0153	0.0009
293.15	0.00262	0.016	0.001
293.15	0.002737	0.0167	0.001
293.15	0.002945	0.018	0.0011
293.15	0.00309	0.0188	0.0011
293.15	0.003212	0.0196	0.0012
293.15	0.003363	0.0202	0.0012
293.15	0.003476	0.0208	0.0012
293.15	0.003596	0.0216	0.0013
293.15	0.003714	0.0222	0.0013
298.15	0	0	0.0001
298.15	6.2e-05	0.0004	0.0001
298.15	0.000138	0.0009	0.0001
298.15	0.00019	0.0013	0.0001
298.15	0.000258	0.0018	0.0001
298.15	0.000317	0.0022	0.0001
298.15	0.000375	0.0026	0.0002
298.15	0.000432	0.003	0.0002
298.15	0.000488	0.0034	0.0002
298.15	0.000547	0.0038	0.0002
298.15	0.000619	0.0044	0.0003
298.15	0.000704	0.0049	0.0003
298.15	0.00077	0.0054	0.0003
298.15	0.000828	0.006	0.0004
298.15	0.00091	0.0066	0.0004
298.15	0.000999	0.0072	0.0004
298.15	0.001085	0.0078	0.0005
298.15	0.001174	0.0084	0.0005
298.15	0.001268	0.009	0.0005
298.15	0.001353	0.0096	0.0006
298.15	0.001452	0.0102	0.0006
298.15	0.001544	0.0109	0.0007
298.15	0.001654	0.0115	0.0007
298.15	0.001755	0.0119	0.0007
298.15	0.00185	0.0125	0.0008
298.15	0.001933	0.013	0.0008
298.15	0.002054	0.0138	0.0008
298.15	0.002177	0.0146	0.0009
298.15	0.002284	0.0152	0.0009
298.15	0.00241	0.016	0.001
298.15	0.002525	0.0167	0.001
298.15	0.002643	0.0174	0.001
298.15	0.002738	0.018	0.0011
298.15	0.002963	0.0194	0.0012
298.15	0.003158	0.0205	0.0012
298.15	0.003285	0.0213	0.0013
298.15	0.003418	0.0221	0.0013
298.15	0.003542	0.0228	0.0014
298.15	0.00364	0.0234	0.0014
298.15	0.003768	0.0242	0.0015
298.15	0.003952	0.0253	0.0015
298.15	0.004493	0.0287	0.0017
298.15	0.005611	0.0355	0.0021
298.15	0.006271	0.0391	0.0023
298.15	0.006873	0.0424	0.0025
298.15	0.007507	0.0463	0.0028
303.15	0	0	0.0001
303.15	6.9e-05	0.0006	0.0001
303.15	0.000173	0.0013	0.0001
303.15	0.000265	0.002	0.0001
303.15	0.000396	0.0031	0.0002
303.15	0.000504	0.0039	0.0002
303.15	0.000614	0.0048	0.0003
303.15	0.000711	0.0055	0.0003
303.15	0.000794	0.0061	0.0004
303.15	0.000992	0.0077	0.0005
303.15	0.001091	0.0084	0.0005
303.15	0.001177	0.0091	0.0005
303.15	0.00129	0.0099	0.0006
303.15	0.001381	0.0105	0.0006
303.15	0.001497	0.0113	0.0007
303.15	0.001589	0.012	0.0007
303.15	0.001698	0.0128	0.0008
303.15	0.002339	0.0176	0.0011
303.15	0.002615	0.0196	0.0012
303.15	0.002737	0.0204	0.0012
303.15	0.002834	0.021	0.0013
303.15	0.002921	0.0216	0.0013
303.15	0.003011	0.0222	0.0013
303.15	0.003103	0.0229	0.0014
303.15	0.003204	0.0237	0.0014
303.15	0.003323	0.0244	0.0015
303.15	0.003408	0.025	0.0015
303.15	0.003487	0.0256	0.0015
303.15	0.003599	0.0264	0.0016
303.15	0.003701	0.0271	0.0016
303.15	0.003815	0.0279	0.0017
303.15	0.003911	0.0285	0.0017
303.15	0.004027	0.0293	0.0018
303.15	0.004122	0.03	0.0018
303.15	0.004288	0.0311	0.0019
303.15	0.004393	0.0318	0.0019
303.15	0.004492	0.0325	0.002
303.15	0.004585	0.0331	0.002
303.15	0.004679	0.0337	0.002
303.15	0.004785	0.0345	0.0021
308.15	0	0	0.0001
308.15	6.9e-05	0.0006	0.0001
308.15	0.000131	0.0012	0.0001
308.15	0.000188	0.0016	0.0001
308.15	0.000233	0.002	0.0001
308.15	0.000278	0.0024	0.0002
308.15	0.000329	0.0029	0.0002
308.15	0.000372	0.0032	0.0002
308.15	0.000407	0.0035	0.0002
308.15	0.000451	0.0039	0.0002
308.15	0.000486	0.0043	0.0003
308.15	0.000545	0.0048	0.0003
308.15	0.000576	0.0051	0.0003
308.15	0.000628	0.0055	0.0003
308.15	0.000669	0.0059	0.0004
308.15	0.000706	0.0062	0.0004
308.15	0.000758	0.0067	0.0004
308.15	0.000796	0.007	0.0004
308.15	0.000831	0.0073	0.0004
308.15	0.000864	0.0076	0.0005
308.15	0.0009	0.0079	0.0005
308.15	0.000934	0.0082	0.0005
308.15	0.000981	0.0087	0.0005
308.15	0.001026	0.0091	0.0005
308.15	0.00106	0.0094	0.0006
308.15	0.001098	0.0097	0.0006
308.15	0.001138	0.0101	0.0006
308.15	0.001211	0.0107	0.0006
308.15	0.001265	0.0112	0.0007
308.15	0.001299	0.0114	0.0007
308.15	0.001362	0.012	0.0007
308.15	0.001397	0.0123	0.0007
308.15	0.001445	0.0127	0.0008
308.15	0.0015	0.0132	0.0008
308.15	0.001539	0.0136	0.0008
308.15	0.001701	0.015	0.0009
308.15	0.001808	0.0159	0.001
308.15	0.001958	0.0173	0.001
308.15	0.002148	0.0189	0.0011
308.15	0.002371	0.0209	0.0013
308.15	0.0025	0.022	0.0013
308.15	0.002602	0.0229	0.0014
308.15	0.002723	0.0239	0.0014
308.15	0.00288	0.0253	0.0015
308.15	0.003015	0.0265	0.0016
308.15	0.003126	0.0274	0.0016
308.15	0.00328	0.0287	0.0017
308.15	0.003401	0.0297	0.0018
308.15	0.003526	0.0308	0.0018
308.15	0.003657	0.0319	0.0019
308.15	0.003764	0.0328	0.002
308.15	0.003883	0.0337	0.002
308.15	0.003991	0.0346	0.0021
308.15	0.004106	0.0356	0.0021
308.15	0.00422	0.0365	0.0022
308.15	0.004341	0.0375	0.0023
308.15	0.004478	0.0386	0.0023
308.15	0.004597	0.0396	0.0024
308.15	0.004723	0.0405	0.0024
313.15	0	0	0.0001
313.15	0.000143	0.0013	0.0001
313.15	0.000274	0.0026	0.0002
313.15	0.000394	0.0038	0.0002
313.15	0.000543	0.005	0.0003
313.15	0.00064	0.006	0.0004
313.15	0.000773	0.0073	0.0004
313.15	0.000904	0.0087	0.0005
313.15	0.001044	0.0101	0.0006
313.15	0.001221	0.012	0.0007
313.15	0.001372	0.0134	0.0008
313.15	0.001554	0.0149	0.0009
313.15	0.001697	0.0164	0.001
313.15	0.001835	0.0178	0.0011
313.15	0.002088	0.02	0.0012
313.15	0.002327	0.0222	0.0013
313.15	0.002528	0.0242	0.0015
313.15	0.002879	0.0274	0.0016
313.15	0.003226	0.0306	0.0018
313.15	0.003438	0.0318	0.0019
313.15	0.003602	0.0333	0.002
313.15	0.003774	0.035	0.0021
313.15	0.004014	0.037	0.0022
313.15	0.00417	0.0382	0.0023
313.15	0.004352	0.0397	0.0024
313.15	0.004528	0.0415	0.0025
313.15	0.004708	0.043	0.0026
313.15	0.004876	0.0446	0.0027
313.15	0.005072	0.0463	0.0028
313.15	0.005237	0.0477	0.0029
