Measured thermophysical data. Thermodynamic Modeling and Solubility Measurement of Cetirizine Hydrochloride and Deferiprone in Pure Solvents of Acetonitrile, Ethanol, Acetic Acid, Sulfolane, and Ethyl Acetate and Their Mixtures
Source: J. Chem. Eng. Data, 2019, 10.1021/acs.jced.9b00620
Compound 1: cetirizine hydrochloride, C21H27Cl3N2O3, InChI=1S/C21H25ClN2O3.2ClH/c22-19-8-6-18(7-9-19)21(17-4-2-1-3-5-17)24-12-10-23(11-13-24)14-15-27-16-20(25)26;;/h1-9,21H,10-16H2,(H,25,26);2*1H, purity 99%
Compound 2: 1,2-dimethyl-3-hydroxypyridin-4-one, C7H9NO2, InChI=1S/C7H9NO2/c1-5-7(10)6(9)3-4-8(5)2/h3-4,10H,1-2H3, purity 99.6%
Compound 3: benzoic acid, C7H6O2, InChI=1S/C7H6O2/c8-7(9)6-4-2-1-3-5-6/h1-5H,(H,8,9), purity 99.5%
Compound 4: acetonitrile, C2H3N, InChI=1S/C2H3N/c1-2-3/h1H3, purity 99.9%
Compound 5: ethanol, C2H6O, InChI=1S/C2H6O/c1-2-3/h3H,2H2,1H3, purity 99.9%
Compound 6: acetic acid, C2H4O2, InChI=1S/C2H4O2/c1-2(3)4/h1H3,(H,3,4), purity 99.8%
Compound 7: sulfolane, C4H8O2S, InChI=1S/C4H8O2S/c5-7(6)3-1-2-4-7/h1-4H2, purity 99%
Compound 8: ethyl acetate, C4H8O2, InChI=1S/C4H8O2/c1-3-6-4(2)5/h3H2,1-2H3, purity 99.8%
Compound 9: water, H2O, InChI=1S/H2O/h1H2, purity 99.9%

System: cetirizine hydrochloride; phases: Crystal, Liquid, Air at 1 atmosphere
Property: Triple point temperature, K (Crystal); method: DSC
Triple point temperature, K	uncertainty
500.55	1

System: cetirizine hydrochloride; phases: Crystal, Liquid, Air at 1 atmosphere
Property: Molar enthalpy of transition or fusion, kJ/mol (Crystal); method: DSC
Molar enthalpy of transition or fusion, kJ/mol	uncertainty
63.637260908	4.756631258

System: 1,2-dimethyl-3-hydroxypyridin-4-one; phases: Crystal, Liquid, Air at 1 atmosphere
Property: Triple point temperature, K (Crystal); method: DSC
Triple point temperature, K	uncertainty
554.05	1

System: 1,2-dimethyl-3-hydroxypyridin-4-one; phases: Crystal, Liquid, Air at 1 atmosphere
Property: Molar enthalpy of transition or fusion, kJ/mol (Crystal); method: DSC
Molar enthalpy of transition or fusion, kJ/mol	uncertainty
32.10234333	1.5306709

System: cetirizine hydrochloride + acetonitrile; phases: Liquid, Crystal
Fixed: Pressure, kPa = 84
Property: Mole fraction of cetirizine hydrochloride (Liquid); method: spectroscopic
Temperature, K	Mole fraction of cetirizine hydrochloride	uncertainty
283.15	3.81e-05	1.14e-05
293.15	4.27e-05	1.28e-05
303.15	5.5e-05	1.65e-05
313.15	7.69e-05	2.31e-05
323.15	0.000128	3.84e-05

System: cetirizine hydrochloride + ethanol; phases: Liquid, Crystal
Fixed: Pressure, kPa = 84
Property: Mole fraction of cetirizine hydrochloride (Liquid); method: spectroscopic
Temperature, K	Mole fraction of cetirizine hydrochloride	uncertainty
283.15	0.002883	0.0008649
293.15	0.004772	0.0014317
303.15	0.009729	0.0029188
313.15	0.015446	0.0046339
323.15	0.020515	0.0061547

System: cetirizine hydrochloride + acetic acid; phases: Liquid, Crystal
Fixed: Pressure, kPa = 84
Property: Mole fraction of cetirizine hydrochloride (Liquid); method: spectroscopic
Temperature, K	Mole fraction of cetirizine hydrochloride	uncertainty
293.15	0.006581	0.0019744
303.15	0.009769	0.0029308
313.15	0.014601	0.0043804
323.15	0.022809	0.0068429

System: cetirizine hydrochloride + sulfolane; phases: Liquid, Crystal
Fixed: Pressure, kPa = 84
Property: Mole fraction of cetirizine hydrochloride (Liquid); method: spectroscopic
Temperature, K	Mole fraction of cetirizine hydrochloride	uncertainty
303.15	0.002541	0.0007623
313.15	0.003234	0.0009702
323.15	0.003773	0.0011319

System: 1,2-dimethyl-3-hydroxypyridin-4-one + acetonitrile; phases: Liquid, Crystal
Fixed: Pressure, kPa = 84
Property: Mole fraction of 1,2-dimethyl-3-hydroxypyridin-4-one (Liquid); method: spectroscopic
Temperature, K	Mole fraction of 1,2-dimethyl-3-hydroxypyridin-4-one	uncertainty
283.15	0.000204	6.1e-05
293.15	0.000327	9.8e-05
303.15	0.000477	0.000143
313.15	0.000711	0.000213
323.15	0.000926	0.000278

System: 1,2-dimethyl-3-hydroxypyridin-4-one + ethanol; phases: Liquid, Crystal
Fixed: Pressure, kPa = 84
Property: Mole fraction of 1,2-dimethyl-3-hydroxypyridin-4-one (Liquid); method: spectroscopic
Temperature, K	Mole fraction of 1,2-dimethyl-3-hydroxypyridin-4-one	uncertainty
283.15	0.00071	0.000213
293.15	0.000947	0.000284
303.15	0.00146	0.000438
313.15	0.0021	0.00063
323.15	0.00296	0.000888

System: 1,2-dimethyl-3-hydroxypyridin-4-one + ethyl acetate; phases: Liquid, Crystal
Fixed: Pressure, kPa = 84
Property: Mole fraction of 1,2-dimethyl-3-hydroxypyridin-4-one (Liquid); method: spectroscopic
Temperature, K	Mole fraction of 1,2-dimethyl-3-hydroxypyridin-4-one	uncertainty
283.15	6.3e-05	1.9e-05
293.15	0.000119	3.6e-05
303.15	0.000165	5e-05
313.15	0.000334	0.0001
323.15	0.000416	0.000125

System: cetirizine hydrochloride + ethanol + acetonitrile; phases: Liquid, Crystal
Fixed: Pressure, kPa = 84
Property: Mole fraction of cetirizine hydrochloride (Liquid); method: spectroscopic
Temperature, K	Solvent: Mass fraction of ethanol	Mole fraction of cetirizine hydrochloride	uncertainty
283.15	0	3.81e-05	1.14e-05
283.15	0.2	0.000944	0.0002836
283.15	0.4	0.003017	0.0009053
283.15	0.6	0.004155	0.0012466
283.15	0.8	0.004281	0.0012844
283.15	1	0.002883	0.0008649
293.15	0	4.27e-05	1.28e-05
293.15	0.2	0.002012	0.0006039
293.15	0.4	0.004043	0.001213
293.15	0.6	0.005151	0.0015454
293.15	0.8	0.005598	0.0016795
293.15	1	0.004772	0.0014317
303.15	0	5.5e-05	1.65e-05
303.15	0.2	0.002636	0.0007915
303.15	0.4	0.006794	0.0020385
303.15	0.6	0.009119	0.0027358
303.15	0.8	0.010213	0.003064
303.15	1	0.009729	0.0029188
313.15	0	7.69e-05	2.31e-05
313.15	0.2	0.003919	0.0011767
313.15	0.4	0.009784	0.0029356
313.15	0.6	0.01309	0.0039272
313.15	0.8	0.015471	0.0046414
313.15	1	0.015446	0.0046339
323.15	0	0.000128	3.84e-05
323.15	0.2	0.005592	0.0016792
323.15	0.4	0.014468	0.004341
323.15	0.6	0.018781	0.0056345
323.15	0.8	0.020173	0.0060521
323.15	1	0.020515	0.0061547

System: cetirizine hydrochloride + acetic acid + acetonitrile; phases: Liquid, Crystal
Fixed: Pressure, kPa = 84
Property: Mole fraction of cetirizine hydrochloride (Liquid); method: spectroscopic
Temperature, K	Solvent: Mass fraction of acetic acid	Mole fraction of cetirizine hydrochloride	uncertainty
293.15	0	4.27e-05	1.28e-05
293.15	0.2	0.001339	0.0004022
293.15	0.4	0.004038	0.0012119
293.15	0.6	0.008307	0.0024924
293.15	0.8	0.01106	0.0033181
293.15	1	0.006581	0.0019744
303.15	0	5.5e-05	1.65e-05
303.15	0.2	0.001651	0.000496
303.15	0.4	0.005255	0.0015771
303.15	0.6	0.00994	0.0029823
303.15	0.8	0.012941	0.0038824
303.15	1	0.009769	0.0029308
313.15	0	7.69e-05	2.31e-05
313.15	0.2	0.002323	0.0006977
313.15	0.4	0.006705	0.0020122
313.15	0.6	0.012438	0.0037318
313.15	0.8	0.016482	0.0049447
313.15	1	0.014601	0.0043804
323.15	0	0.000128	3.84e-05
323.15	0.2	0.003194	0.0009592
323.15	0.4	0.008941	0.0026832
323.15	0.6	0.016168	0.004851
323.15	0.8	0.022565	0.0067698
323.15	1	0.022809	0.0068429

System: cetirizine hydrochloride + sulfolane + acetonitrile; phases: Liquid, Crystal
Fixed: Pressure, kPa = 84
Property: Mole fraction of cetirizine hydrochloride (Liquid); method: spectroscopic
Temperature, K	Solvent: Mass fraction of sulfolane	Mole fraction of cetirizine hydrochloride	uncertainty
303.15	0	5.5e-05	1.65e-05
303.15	0.2	0.000169	5.07e-05
303.15	0.4	0.000272	8.16e-05
303.15	0.6	0.000486	0.0001459
303.15	0.8	0.001035	0.0003107
303.15	1	0.002541	0.0007623
313.15	0	7.69e-05	2.31e-05
313.15	0.2	0.000278	8.34e-05
313.15	0.4	0.000473	0.0001419
313.15	0.6	0.000978	0.0002935
313.15	0.8	0.001914	0.0005743
313.15	1	0.003234	0.0009702
323.15	0	0.000128	3.84e-05
323.15	0.2	0.000391	0.0001174
323.15	0.4	0.000839	0.0002518
323.15	0.6	0.001499	0.0004498
323.15	0.8	0.002628	0.0007885
323.15	1	0.003773	0.0011319

System: 1,2-dimethyl-3-hydroxypyridin-4-one + ethanol + ethyl acetate; phases: Liquid, Crystal
Fixed: Pressure, kPa = 84
Property: Mole fraction of 1,2-dimethyl-3-hydroxypyridin-4-one (Liquid); method: spectroscopic
Temperature, K	Solvent: Mass fraction of ethanol	Mole fraction of 1,2-dimethyl-3-hydroxypyridin-4-one	uncertainty
283.1	1	0.00071	0.000213
283.1	0.8	0.000762	0.000229
283.1	0.6	0.000762	0.000229
283.1	0.4	0.000717	0.000215
283.1	0.2	0.000335	0.000101
283.1	0	6.3e-05	1.9e-05
293.1	1	0.000947	0.000284
293.1	0.8	0.00101	0.000303
293.1	0.6	0.00103	0.000309
293.1	0.4	0.000957	0.000287
293.1	0.2	0.000499	0.00015
293.1	0	0.000119	3.6e-05
303.1	1	0.00146	0.000438
303.1	0.8	0.00158	0.000474
303.1	0.6	0.00169	0.000507
303.1	0.4	0.00152	0.000456
303.1	0.2	0.000962	0.000289
303.1	0	0.000265	8e-05
313.1	1	0.0021	0.00063
313.1	0.8	0.00221	0.000663
313.1	0.6	0.00229	0.000687
313.1	0.4	0.00201	0.000603
313.1	0.2	0.00133	0.000399
313.1	0	0.000334	0.0001
323.1	1	0.00296	0.000888
323.1	0.8	0.00306	0.000918
323.1	0.6	0.00311	0.000933
323.1	0.4	0.00257	0.000771
323.1	0.2	0.00171	0.000513
323.1	0	0.000416	0.000125

System: 1,2-dimethyl-3-hydroxypyridin-4-one + ethanol + acetonitrile; phases: Liquid, Crystal
Fixed: Pressure, kPa = 84
Property: Mole fraction of 1,2-dimethyl-3-hydroxypyridin-4-one (Liquid); method: spectroscopic
Temperature, K	Solvent: Mass fraction of ethanol	Mole fraction of 1,2-dimethyl-3-hydroxypyridin-4-one	uncertainty
283.1	1	0.00071	0.000213
283.1	0.8	0.001192	0.000358
283.1	0.6	0.001372	0.000412
283.1	0.4	0.001254	0.000376
283.1	0.2	0.000845	0.000254
283.1	0	0.000204	6.1e-05
293.1	1	0.000947	0.000284
293.1	0.8	0.001699	0.00051
293.1	0.6	0.001883	0.000565
293.1	0.4	0.001664	0.000499
293.1	0.2	0.001042	0.000313
293.1	0	0.000327	9.8e-05
303.1	1	0.00146	0.000438
303.1	0.8	0.00235	0.000705
303.1	0.6	0.002568	0.00077
303.1	0.4	0.002248	0.000674
303.1	0.2	0.001519	0.000456
303.1	0	0.000477	0.000143
313.1	1	0.0021	0.00063
313.1	0.8	0.003313	0.000994
313.1	0.6	0.003594	0.001078
313.1	0.4	0.003112	0.000934
313.1	0.2	0.00206	0.000618
313.1	0	0.000711	0.000213
323.1	1	0.00296	0.000888
323.1	0.8	0.004226	0.001268
323.1	0.6	0.00453	0.001359
323.1	0.4	0.00381	0.001143
323.1	0.2	0.002414	0.000724
323.1	0	0.000926	0.000278

System: benzoic acid + water; phases: Liquid, Crystal
Fixed: Pressure, kPa = 84
Property: Mass ratio of solute to solvent of benzoic acid (Liquid); method: spectroscopic
Temperature, K	Mass ratio of solute to solvent of benzoic acid	uncertainty
298.15	0.00263	0.00079
303.15	0.00344	0.00103
308.15	0.00388	0.00116
313.15	0.0047	0.00141
318.15	0.00563	0.00169
323.15	0.00655	0.00197
