Measured thermophysical data. Binary Equilibrium Solubility of Amidinothiourea in Monosolvents: Experimental Determination, Model Correlation, and Solvent Effect Analysis
Source: J. Chem. Eng. Data, 2019, 10.1021/acs.jced.9b00458
Compound 1: amidinothiourea, C2H6N4S, InChI=1S/C2H6N4S/c3-1(4)6-2(5)7/h(H6,3,4,5,6,7), purity 99.5%
Compound 2: methanol, CH4O, InChI=1S/CH4O/c1-2/h2H,1H3, purity 99.7%
Compound 3: propan-1-ol, C3H8O, InChI=1S/C3H8O/c1-2-3-4/h4H,2-3H2,1H3, purity 99.4%
Compound 4: propan-2-ol, C3H8O, InChI=1S/C3H8O/c1-3(2)4/h3-4H,1-2H3, purity 99.5%
Compound 5: ethanol, C2H6O, InChI=1S/C2H6O/c1-2-3/h3H,2H2,1H3, purity 99.5%
Compound 6: butan-1-ol, C4H10O, InChI=1S/C4H10O/c1-2-3-4-5/h5H,2-4H2,1H3, purity 99.5%
Compound 7: N-methylpyrrolidone, C5H9NO, InChI=1S/C5H9NO/c1-6-4-2-3-5(6)7/h2-4H2,1H3, purity 99.4%
Compound 8: ethyl acetate, C4H8O2, InChI=1S/C4H8O2/c1-3-6-4(2)5/h3H2,1-2H3, purity 99.5%
Compound 9: acetonitrile, C2H3N, InChI=1S/C2H3N/c1-2-3/h1H3, purity 99.4%
Compound 10: 1,4-dioxane, C4H8O2, InChI=1S/C4H8O2/c1-2-6-4-3-5-1/h1-4H2, purity 99.6%
Compound 11: toluene, C7H8, InChI=1S/C7H8/c1-7-5-3-2-4-6-7/h2-6H,1H3, purity 99.5%
Compound 12: cyclohexane, C6H12, InChI=1S/C6H12/c1-2-4-6-5-3-1/h1-6H2, purity 99.4%
Compound 13: acetone, C3H6O, InChI=1S/C3H6O/c1-3(2)4/h1-2H3, purity 99.5%

System: amidinothiourea + methanol; phases: Liquid, Crystal
Fixed: Pressure, kPa = 100
Property: Mole fraction of amidinothiourea (Liquid); method: Chromatography
Temperature, K	Mole fraction of amidinothiourea	uncertainty
283.15	0.005584	0.000229
288.15	0.006346	0.000261
293.15	0.00744	0.000306
298.15	0.008895	0.000365
303.15	0.01047	0.00043
308.15	0.012262	0.000504
313.15	0.014318	0.000588
318.15	0.016509	0.000678
323.15	0.019181	0.000788

System: amidinothiourea + ethanol; phases: Liquid, Crystal
Fixed: Pressure, kPa = 100
Property: Mole fraction of amidinothiourea (Liquid); method: Chromatography
Temperature, K	Mole fraction of amidinothiourea	uncertainty
283.15	0.004497	0.000185
288.15	0.005208	0.000214
293.15	0.006054	0.000249
298.15	0.007056	0.00029
303.15	0.008168	0.000335
308.15	0.009331	0.000383
313.15	0.010619	0.000436
318.15	0.012233	0.000502
323.15	0.013981	0.000574

System: amidinothiourea + propan-1-ol; phases: Liquid, Crystal
Fixed: Pressure, kPa = 100
Property: Mole fraction of amidinothiourea (Liquid); method: Chromatography
Temperature, K	Mole fraction of amidinothiourea	uncertainty
283.15	0.002715	0.000112
288.15	0.003257	0.000134
293.15	0.003934	0.000162
298.15	0.00468	0.000192
303.15	0.005644	0.000232
308.15	0.006761	0.000278
313.15	0.00782	0.000321
318.15	0.009008	0.00037
323.15	0.01036	0.000425

System: amidinothiourea + propan-2-ol; phases: Liquid, Crystal
Fixed: Pressure, kPa = 100
Property: Mole fraction of amidinothiourea (Liquid); method: Chromatography
Temperature, K	Mole fraction of amidinothiourea	uncertainty
283.15	0.00124	5.1e-05
288.15	0.001674	6.9e-05
293.15	0.002229	9.2e-05
298.15	0.002856	0.000117
303.15	0.003633	0.000149
308.15	0.00456	0.000187
313.15	0.005587	0.00023
318.15	0.006903	0.000284
323.15	0.008544	0.000351

System: amidinothiourea + butan-1-ol; phases: Liquid, Crystal
Fixed: Pressure, kPa = 100
Property: Mole fraction of amidinothiourea (Liquid); method: Chromatography
Temperature, K	Mole fraction of amidinothiourea	uncertainty
283.15	0.000477	2e-05
288.15	0.000749	3.1e-05
293.15	0.001108	4.6e-05
298.15	0.001621	6.7e-05
303.15	0.002255	9.3e-05
308.15	0.003137	0.000129
313.15	0.004316	0.000178
318.15	0.005748	0.000236
323.15	0.007595	0.000312

System: amidinothiourea + acetone; phases: Liquid, Crystal
Fixed: Pressure, kPa = 100
Property: Mole fraction of amidinothiourea (Liquid); method: Chromatography
Temperature, K	Mole fraction of amidinothiourea	uncertainty
283.15	0.010291	0.000423
288.15	0.012332	0.000507
293.15	0.014541	0.000597
298.15	0.017528	0.00072
303.15	0.020329	0.000835
308.15	0.02407	0.000989
313.15	0.028019	0.001151
318.15	0.032392	0.00133
323.15	0.03711	0.001524

System: amidinothiourea + acetonitrile; phases: Liquid, Crystal
Fixed: Pressure, kPa = 100
Property: Mole fraction of amidinothiourea (Liquid); method: Chromatography
Temperature, K	Mole fraction of amidinothiourea	uncertainty
283.15	0.003653	0.00015
288.15	0.004278	0.000176
293.15	0.005042	0.000207
298.15	0.005914	0.000243
303.15	0.006881	0.000283
308.15	0.008004	0.000329
313.15	0.009265	0.000381
318.15	0.01054	0.000433
323.15	0.012081	0.000496

System: amidinothiourea + ethyl acetate; phases: Liquid, Crystal
Fixed: Pressure, kPa = 100
Property: Mole fraction of amidinothiourea (Liquid); method: Chromatography
Temperature, K	Mole fraction of amidinothiourea	uncertainty
283.15	0.001955	8e-05
288.15	0.002453	0.000101
293.15	0.003142	0.000129
298.15	0.003914	0.000161
303.15	0.004714	0.000194
308.15	0.005688	0.000234
313.15	0.006788	0.000279
318.15	0.007973	0.000327
323.15	0.009402	0.000386

System: amidinothiourea + toluene; phases: Liquid, Crystal
Fixed: Pressure, kPa = 100
Property: Mole fraction of amidinothiourea (Liquid); method: Chromatography
Temperature, K	Mole fraction of amidinothiourea	uncertainty
283.15	0.000126	5e-06
288.15	0.000137	6e-06
293.15	0.000149	6e-06
298.15	0.00016	7e-06
303.15	0.000174	7e-06
308.15	0.000189	8e-06
313.15	0.000206	8e-06
318.15	0.000223	9e-06
323.15	0.000243	1e-05

System: amidinothiourea + cyclohexane; phases: Liquid, Crystal
Fixed: Pressure, kPa = 100
Property: Mole fraction of amidinothiourea (Liquid); method: Chromatography
Temperature, K	Mole fraction of amidinothiourea	uncertainty
283.15	3.6e-05	2e-06
288.15	4.3e-05	2e-06
293.15	5e-05	2e-06
298.15	6e-05	3e-06
303.15	7e-05	3e-06
308.15	8.4e-05	3e-06
313.15	9.9e-05	4e-06
318.15	0.000118	5e-06
323.15	0.00014	6e-06

System: amidinothiourea + 1,4-dioxane; phases: Liquid, Crystal
Fixed: Pressure, kPa = 100
Property: Mole fraction of amidinothiourea (Liquid); method: Chromatography
Temperature, K	Mole fraction of amidinothiourea	uncertainty
288.15	0.009006	0.00037
293.15	0.01069	0.000439
298.15	0.012738	0.000523
303.15	0.015061	0.000619
308.15	0.0178	0.000731
313.15	0.020822	0.000855
318.15	0.024069	0.000989
323.15	0.028011	0.00115

System: amidinothiourea + N-methylpyrrolidone; phases: Liquid, Crystal
Fixed: Pressure, kPa = 100
Property: Mole fraction of amidinothiourea (Liquid); method: Chromatography
Temperature, K	Mole fraction of amidinothiourea	uncertainty
283.15	0.01394	0.000573
288.15	0.016611	0.000682
293.15	0.019502	0.000801
298.15	0.02362	0.00097
303.15	0.028118	0.001155
308.15	0.032859	0.00135
313.15	0.03885	0.001596
318.15	0.045502	0.001869
323.15	0.053157	0.002183
