Measured thermophysical data. Solubility Measurement and Thermodynamic Properties Calculation for Several CO2 + Ether Absorbent Systems
Source: J. Chem. Eng. Data, 2019, 10.1021/acs.jced.8b00936
Compound 1: 2,5,8,11,14-pentaoxapentadecane, C10H22O5, InChI=1S/C10H22O5/c1-11-3-5-13-7-9-15-10-8-14-6-4-12-2/h3-10H2,1-2H3, purity 98%
Compound 2: carbon dioxide, CO2, InChI=1S/CO2/c2-1-3, purity 99.999%
Compound 3: 2-(2-hexyloxyethoxy)ethanol, C10H22O3, InChI=1S/C10H22O3/c1-2-3-4-5-7-12-9-10-13-8-6-11/h11H,2-10H2,1H3, purity 98%
Compound 4: 5,8,11-trioxapentadecane, C12H26O3, InChI=1S/C12H26O3/c1-3-5-7-13-9-11-15-12-10-14-8-6-4-2/h3-12H2,1-2H3, purity 98%
Compound 5: triethylene glycol monobutyl ether, C10H22O4, InChI=1S/C10H22O4/c1-2-3-5-12-7-9-14-10-8-13-6-4-11/h11H,2-10H2,1H3, purity 98%
Compound 6: 2-methoxy-1-(2-methoxy-1-methylethoxy)propane, C8H18O3, InChI=1S/C8H18O3/c1-7(10-4)6-11-8(2)5-9-3/h7-8H,5-6H2,1-4H3, purity 99.1%
Compound 7: 5,8-dioxadodecane, C10H22O2, InChI=1S/C10H22O2/c1-3-5-7-11-9-10-12-8-6-4-2/h3-10H2,1-2H3, purity 98%

System: 5,8-dioxadodecane; phases: Liquid
Fixed: Pressure, kPa = 100
Property: Mass density, kg/m3 (Liquid); method: Pycnometric method
Temperature, K	Mass density, kg/m3	uncertainty
273.15	859.9	4.9
283.15	849.3	4.8

System: 2,5,8,11,14-pentaoxapentadecane + carbon dioxide; phases: Liquid, Gas
Property: Mole fraction of carbon dioxide (Liquid); method: Phase equilibration
Temperature, K	Pressure, kPa	Mole fraction of carbon dioxide	uncertainty
273.15	156.6	0.0721	0.0041
273.15	301.2	0.1345	0.0077
273.15	426.1	0.192	0.0109
273.15	572	0.264	0.015
273.15	720.9	0.3352	0.0191
273.15	912.7	0.4106	0.0234
273.15	1063.1	0.4841	0.0276
273.15	1181.5	0.5409	0.0262
283.15	140.5	0.053	0.003
283.15	285.9	0.113	0.0064
283.15	406.2	0.1538	0.0088
283.15	545.7	0.216	0.0123
283.15	680.8	0.2665	0.0152
283.15	830.3	0.321	0.0183
283.15	978.2	0.3775	0.0215
283.15	1126.7	0.4389	0.025

System: 2-(2-hexyloxyethoxy)ethanol + carbon dioxide; phases: Liquid, Gas
Property: Mole fraction of carbon dioxide (Liquid); method: Phase equilibration
Temperature, K	Pressure, kPa	Mole fraction of carbon dioxide	uncertainty
273.15	128.2	0.0378	0.0022
273.15	283	0.0864	0.0049
273.15	429.2	0.1282	0.0073
273.15	577.5	0.1731	0.0099
273.15	723.9	0.2178	0.0124
273.15	875.4	0.2639	0.015
273.15	1020.9	0.3013	0.0172
273.15	1169.4	0.3466	0.0198
283.15	130.1	0.031	0.0018
283.15	274.9	0.0677	0.0039
283.15	409.2	0.0994	0.0057
283.15	567.7	0.1395	0.0079
283.15	707.7	0.1748	0.01
283.15	853.1	0.205	0.0117
283.15	998.5	0.2392	0.0136
283.15	1145.9	0.2789	0.0159

System: 5,8,11-trioxapentadecane + carbon dioxide; phases: Liquid, Gas
Property: Mole fraction of carbon dioxide (Liquid); method: Phase equilibration
Temperature, K	Pressure, kPa	Mole fraction of carbon dioxide	uncertainty
273.15	122.8	0.0488	0.0028
273.15	291	0.1202	0.0068
273.15	415	0.1711	0.0097
273.15	558.6	0.2256	0.0129
273.15	702.5	0.2839	0.0162
273.15	856.9	0.3462	0.0197
273.15	1000.7	0.4068	0.0232
273.15	1138.7	0.4683	0.0267
283.15	146.2	0.0457	0.0026
283.15	295.5	0.0929	0.0053
283.15	430.2	0.139	0.0079
283.15	660	0.2077	0.0118
283.15	741.9	0.2399	0.0137
283.15	914	0.2919	0.0166
283.15	1051.4	0.3327	0.019
283.15	1173.8	0.3768	0.0215

System: triethylene glycol monobutyl ether + carbon dioxide; phases: Liquid, Gas
Property: Mole fraction of carbon dioxide (Liquid); method: Phase equilibration
Temperature, K	Pressure, kPa	Mole fraction of carbon dioxide	uncertainty
273.15	122.7	0.0405	0.0023
273.15	271.7	0.091	0.0052
273.15	408	0.1373	0.0078
273.15	563.8	0.1904	0.0108
273.15	709.5	0.2391	0.0136
273.15	852.5	0.2818	0.0161
273.15	988.5	0.3333	0.019
273.15	1138.9	0.3775	0.0215
283.15	130.9	0.0347	0.002
283.15	287.9	0.0747	0.0043
283.15	430.3	0.113	0.0064
283.15	581.5	0.1519	0.0086
283.15	735.3	0.1979	0.0113
283.15	888	0.2345	0.0134
283.15	1022.6	0.2744	0.0156
283.15	1168.4	0.3122	0.0178

System: 5,8-dioxadodecane + carbon dioxide; phases: Liquid, Gas
Property: Mole fraction of carbon dioxide (Liquid); method: Phase equilibration
Temperature, K	Pressure, kPa	Mole fraction of carbon dioxide	uncertainty
273.15	130.6	0.046	0.0026
273.15	284	0.0989	0.0056
273.15	430.3	0.1464	0.0083
273.15	564.3	0.1926	0.011
273.15	713.1	0.2479	0.0141
273.15	862.1	0.3003	0.0171
273.15	1004	0.3502	0.02
273.15	1148.9	0.3902	0.0222
283.15	137	0.0383	0.0022
283.15	278.4	0.0814	0.0046
283.15	420.4	0.1211	0.0069
283.15	583.8	0.166	0.0095
283.15	757.4	0.2169	0.0124
283.15	868.8	0.2455	0.014
283.15	1012	0.2886	0.0164
283.15	1157	0.3229	0.0184

System: 2-methoxy-1-(2-methoxy-1-methylethoxy)propane + carbon dioxide; phases: Liquid, Gas
Property: Mole fraction of carbon dioxide (Liquid); method: Phase equilibration
Temperature, K	Pressure, kPa	Mole fraction of carbon dioxide	uncertainty
273.15	114	0.0471	0.0027
273.15	278.1	0.1149	0.0065
273.15	404.4	0.1741	0.0099
273.15	545.2	0.2313	0.0132
273.15	689.7	0.2889	0.0164
273.15	840.6	0.3524	0.0201
273.15	987.3	0.418	0.024
273.15	1128.1	0.4714	0.0268
283.15	132.8	0.0454	0.0026
283.15	274.8	0.0909	0.0052
283.15	415.8	0.141	0.008
283.15	559.5	0.1891	0.0108
283.15	730.9	0.2474	0.0141
283.15	870.7	0.2931	0.0167
283.15	1018.5	0.3385	0.0193
283.15	1170.2	0.388	0.0221
