Measured thermophysical data. Expliciting the {Ciprofloxacin Hydrochloride + (Glycine/l-Isoleucine)} Interactions in Aqueous Solution over the Temperature range T = 288.15-323.15 K and at Pressure p = 1 x 105 Pa: Volumetric, Acoustic, Calorimetric, and Absorption studies
Source: J. Chem. Eng. Data, 2019, 10.1021/acs.jced.9b00295
Compound 1: Ciprofloxacin hydrochloride, C17H19ClFN3O3, InChI=1S/C17H18FN3O3.ClH/c18-13-7-11-14(8-15(13)20-5-3-19-4-6-20)21(10-1-2-10)9-12(16(11)22)17(23)24;/h7-10,19H,1-6H2,(H,23,24);1H
Compound 2: 2-aminoacetic acid, C2H5NO2, InChI=1S/C2H5NO2/c3-1-2(4)5/h1,3H2,(H,4,5)
Compound 3: 2-amino-3-methylpentanoic acid, C6H13NO2, InChI=1S/C6H13NO2/c1-3-4(2)5(7)6(8)9/h4-5H,3,7H2,1-2H3,(H,8,9)/t4-,5-/m0/s1
Compound 4: water, H2O, InChI=1S/H2O/h1H2, purity 99.9%

System: water; phases: Liquid
Fixed: Pressure, kPa = 100
Property: Mass density, kg/m3 (Liquid); method: Vibrating tube method
Temperature, K	Mass density, kg/m3	uncertainty
288.15	999.1	0.12
293.15	998.22	0.12
298.15	997.05	0.13
303.15	995.67	0.13
308.15	994.04	0.13
313.15	992.24	0.13
318.15	990.22	0.13
323.15	988.07	0.13

System: water; phases: Liquid
Fixed: Pressure, kPa = 100
Fixed: Frequency, MHz = 3
Property: Speed of sound, m/s (Liquid); method: Single path-length method
Temperature, K	Speed of sound, m/s	uncertainty
288.15	1466.8	1.2
293.15	1483	1.2
298.15	1497.1	1.2
303.15	1510	1.2
308.15	1519.8	1.2
313.15	1530	1.2
318.15	1536.4	1.2
323.15	1543	1.2

System: Ciprofloxacin hydrochloride + water; phases: Liquid
Fixed: Pressure, kPa = 100
Property: Mass density, kg/m3 (Liquid); method: Vibrating tube method
Temperature, K	Molality, mol/kg of Ciprofloxacin hydrochloride	Mass density, kg/m3	uncertainty
288.15	0	999.1	0.14
288.15	0.00987	1000.28	0.14
288.15	0.01937	1001.37	0.14
288.15	0.0294	1002.51	0.14
288.15	0.03933	1003.63	0.14
288.15	0.04909	1004.72	0.14
288.15	0.06385	1006.35	0.14
293.15	0	998.22	0.14
293.15	0.00987	999.38	0.14
293.15	0.01937	1000.46	0.14
293.15	0.0294	1001.6	0.14
293.15	0.03933	1002.72	0.14
293.15	0.04909	1003.82	0.14
293.15	0.06385	1005.45	0.14
298.15	0	997.05	0.14
298.15	0.00987	998.18	0.14
298.15	0.01937	999.26	0.14
298.15	0.0294	1000.39	0.14
298.15	0.03933	1001.5	0.14
298.15	0.04909	1002.57	0.14
298.15	0.06385	1004.18	0.14
303.15	0	995.67	0.14
303.15	0.00987	996.8	0.14
303.15	0.01937	997.87	0.14
303.15	0.0294	998.99	0.14
303.15	0.03933	1000.09	0.14
303.15	0.04909	1001.15	0.14
303.15	0.06385	1002.76	0.14
308.15	0	994.04	0.14
308.15	0.00987	995.18	0.14
308.15	0.01937	996.24	0.14
308.15	0.0294	997.35	0.14
308.15	0.03933	998.44	0.14
308.15	0.04909	999.5	0.14
308.15	0.06385	1001.09	0.14
313.15	0	992.24	0.14
313.15	0.00987	993.36	0.14
313.15	0.01937	994.41	0.14
313.15	0.0294	995.52	0.14
313.15	0.03933	996.6	0.14
313.15	0.04909	997.65	0.14
313.15	0.06385	999.24	0.14
318.15	0	990.22	0.14
318.15	0.00987	991.35	0.14
318.15	0.01937	992.39	0.14
318.15	0.0294	993.49	0.14
318.15	0.03933	994.56	0.14
318.15	0.04909	995.6	0.14
318.15	0.06385	997.17	0.14
323.15	0	988.07	0.14
323.15	0.00987	989.16	0.14
323.15	0.01937	990.21	0.14
323.15	0.0294	991.3	0.14
323.15	0.03933	992.37	0.14
323.15	0.04909	993.4	0.14
323.15	0.06385	994.97	0.14

System: Ciprofloxacin hydrochloride + water; phases: Liquid
Fixed: Pressure, kPa = 100
Fixed: Frequency, MHz = 3
Property: Speed of sound, m/s (Liquid); method: Single path-length method
Temperature, K	Molality, mol/kg of Ciprofloxacin hydrochloride	Speed of sound, m/s	uncertainty
288.15	0	1466.8	1.2
288.15	0.00987	1468.1	1.2
288.15	0.01937	1469.3	1.2
288.15	0.0294	1470.6	1.2
288.15	0.03933	1471.8	1.2
288.15	0.04909	1473.1	1.2
288.15	0.06385	1475	1.2
293.15	0	1483	1.2
293.15	0.00987	1484.3	1.2
293.15	0.01937	1485.5	1.2
293.15	0.0294	1486.8	1.2
293.15	0.03933	1488.1	1.2
293.15	0.04909	1489.3	1.2
293.15	0.06385	1491.2	1.2
298.15	0	1497.1	1.2
298.15	0.00987	1498.4	1.2
298.15	0.01937	1499.6	1.2
298.15	0.0294	1500.9	1.2
298.15	0.03933	1502.2	1.2
298.15	0.04909	1503.5	1.2
298.15	0.06385	1505.4	1.2
303.15	0	1510	1.2
303.15	0.00987	1511.3	1.2
303.15	0.01937	1512.6	1.2
303.15	0.0294	1513.9	1.2
303.15	0.03933	1515.2	1.2
303.15	0.04909	1516.5	1.2
303.15	0.06385	1518.5	1.2
308.15	0	1519.8	1.2
308.15	0.00987	1521.1	1.2
308.15	0.01937	1522.4	1.2
308.15	0.0294	1523.7	1.2
308.15	0.03933	1525	1.2
308.15	0.04909	1526.4	1.2
308.15	0.06385	1528.3	1.2
313.15	0	1530	1.2
313.15	0.00987	1531.3	1.2
313.15	0.01937	1532.6	1.2
313.15	0.0294	1533.9	1.2
313.15	0.03933	1535.3	1.2
313.15	0.04909	1536.6	1.2
313.15	0.06385	1538.6	1.2
318.15	0	1536.4	1.2
318.15	0.00987	1537.7	1.2
318.15	0.01937	1539	1.2
318.15	0.0294	1540.4	1.2
318.15	0.03933	1541.7	1.2
318.15	0.04909	1543.1	1.2
318.15	0.06385	1545.1	1.2
323.15	0	1543	1.2
323.15	0.00987	1544.3	1.2
323.15	0.01937	1545.6	1.2
323.15	0.0294	1547	1.2
323.15	0.03933	1548.3	1.2
323.15	0.04909	1549.7	1.2
323.15	0.06385	1551.7	1.2

System: Ciprofloxacin hydrochloride + 2-aminoacetic acid + water; phases: Liquid
Fixed: Pressure, kPa = 100
Property: Mass density, kg/m3 (Liquid); method: Vibrating tube method
Temperature, K	Molality, mol/kg of Ciprofloxacin hydrochloride	Solvent: Molality, mol/kg of 2-aminoacetic acid	Mass density, kg/m3	uncertainty
288.15	0	0.01	999.87	0.26
288.15	0.00987	0.01	1001.01	0.26
288.15	0.01978	0.01	1002.14	0.26
288.15	0.02983	0.01	1003.28	0.26
288.15	0.03978	0.01	1004.39	0.26
288.15	0.04969	0.01	1005.48	0.26
288.15	0.06432	0.01	1007.1	0.26
293.15	0	0.01	998.63	0.26
293.15	0.00987	0.01	999.75	0.26
293.15	0.01978	0.01	1000.88	0.26
293.15	0.02983	0.01	1002	0.26
293.15	0.03978	0.01	1003.11	0.26
293.15	0.04969	0.01	1004.2	0.26
293.15	0.06432	0.01	1005.79	0.26
298.15	0	0.01	997.68	0.26
298.15	0.00987	0.01	998.8	0.26
298.15	0.01978	0.01	999.92	0.26
298.15	0.02983	0.01	1001.04	0.26
298.15	0.03978	0.01	1002.15	0.26
298.15	0.04969	0.01	1003.24	0.26
298.15	0.06432	0.01	1004.82	0.26
303.15	0	0.01	996.06	0.26
303.15	0.00987	0.01	997.17	0.26
303.15	0.01978	0.01	998.28	0.26
303.15	0.02983	0.01	999.39	0.26
303.15	0.03978	0.01	1000.48	0.26
303.15	0.04969	0.01	1001.55	0.26
303.15	0.06432	0.01	1003.12	0.26
308.15	0	0.01	994.53	0.26
308.15	0.00987	0.01	995.63	0.26
308.15	0.01978	0.01	996.72	0.26
308.15	0.02983	0.01	997.81	0.26
308.15	0.03978	0.01	998.88	0.26
308.15	0.04969	0.01	999.94	0.26
308.15	0.06432	0.01	1001.48	0.26
313.15	0	0.01	992.64	0.26
313.15	0.00987	0.01	993.74	0.26
313.15	0.01978	0.01	994.82	0.26
313.15	0.02983	0.01	995.92	0.26
313.15	0.03978	0.01	996.99	0.26
313.15	0.04969	0.01	998.05	0.26
313.15	0.06432	0.01	999.61	0.26
318.15	0	0.01	990.75	0.26
318.15	0.00987	0.01	991.83	0.26
318.15	0.01978	0.01	992.9	0.26
318.15	0.02983	0.01	993.98	0.26
318.15	0.03978	0.01	995.04	0.26
318.15	0.04969	0.01	996.08	0.26
318.15	0.06432	0.01	997.6	0.26
323.15	0	0.01	988.98	0.26
323.15	0.00987	0.01	990.05	0.26
323.15	0.01978	0.01	991.12	0.26
323.15	0.02983	0.01	992.19	0.26
323.15	0.03978	0.01	993.23	0.26
323.15	0.04969	0.01	994.27	0.26
323.15	0.06432	0.01	995.78	0.26
288.15	0	0.02	1000.18	0.26
288.15	0.00991	0.02	1001.32	0.26
288.15	0.01973	0.02	1002.42	0.26
288.15	0.02976	0.02	1003.55	0.26
288.15	0.03968	0.02	1004.65	0.26
288.15	0.04953	0.02	1005.75	0.26
288.15	0.06384	0.02	1007.31	0.26
293.15	0	0.02	998.92	0.26
293.15	0.00991	0.02	1000.04	0.26
293.15	0.01973	0.02	1001.14	0.26
293.15	0.02976	0.02	1002.25	0.26
293.15	0.03968	0.02	1003.35	0.26
293.15	0.04953	0.02	1004.43	0.26
293.15	0.06384	0.02	1005.98	0.26
298.15	0	0.02	997.98	0.26
298.15	0.00991	0.02	999.09	0.26
298.15	0.01973	0.02	1000.17	0.26
298.15	0.02976	0.02	1001.27	0.26
298.15	0.03968	0.02	1002.35	0.26
298.15	0.04953	0.02	1003.41	0.26
298.15	0.06384	0.02	1004.94	0.26
303.15	0	0.02	996.35	0.26
303.15	0.00991	0.02	997.45	0.26
303.15	0.01973	0.02	998.53	0.26
303.15	0.02976	0.02	999.62	0.26
303.15	0.03968	0.02	1000.68	0.26
303.15	0.04953	0.02	1001.74	0.26
303.15	0.06384	0.02	1003.25	0.26
308.15	0	0.02	994.83	0.26
308.15	0.00991	0.02	995.92	0.26
308.15	0.01973	0.02	996.98	0.26
308.15	0.02976	0.02	998.06	0.26
308.15	0.03968	0.02	999.13	0.26
308.15	0.04953	0.02	1000.17	0.26
308.15	0.06384	0.02	1001.67	0.26
313.15	0	0.02	992.94	0.26
313.15	0.00991	0.02	994.01	0.26
313.15	0.01973	0.02	995.07	0.26
313.15	0.02976	0.02	996.15	0.26
313.15	0.03968	0.02	997.2	0.26
313.15	0.04953	0.02	998.24	0.26
313.15	0.06384	0.02	999.72	0.26
318.15	0	0.02	991.05	0.26
318.15	0.00991	0.02	992.12	0.26
318.15	0.01973	0.02	993.17	0.26
318.15	0.02976	0.02	994.24	0.26
318.15	0.03968	0.02	995.29	0.26
318.15	0.04953	0.02	996.32	0.26
318.15	0.06384	0.02	997.8	0.26
323.15	0	0.02	989.4	0.26
323.15	0.00991	0.02	990.46	0.26
323.15	0.01973	0.02	991.51	0.26
323.15	0.02976	0.02	992.57	0.26
323.15	0.03968	0.02	993.6	0.26
323.15	0.04953	0.02	994.63	0.26
323.15	0.06384	0.02	996.1	0.26
288.15	0	0.035	1000.65	0.26
288.15	0.00969	0.035	1001.75	0.26
288.15	0.01954	0.035	1002.86	0.26
288.15	0.02931	0.035	1003.94	0.26
288.15	0.03856	0.035	1004.95	0.26
288.15	0.04903	0.035	1006.1	0.26
288.15	0.06401	0.035	1007.73	0.26
293.15	0	0.035	999.36	0.26
293.15	0.00969	0.035	1000.44	0.26
293.15	0.01954	0.035	1001.54	0.26
293.15	0.02931	0.035	1002.62	0.26
293.15	0.03856	0.035	1003.63	0.26
293.15	0.04903	0.035	1004.76	0.26
293.15	0.06401	0.035	1006.37	0.26
298.15	0	0.035	998.43	0.26
298.15	0.00969	0.035	999.51	0.26
298.15	0.01954	0.035	1000.6	0.26
298.15	0.02931	0.035	1001.67	0.26
298.15	0.03856	0.035	1002.67	0.26
298.15	0.04903	0.035	1003.8	0.26
298.15	0.06401	0.035	1005.4	0.26
303.15	0	0.035	996.79	0.26
303.15	0.00969	0.035	997.86	0.26
303.15	0.01954	0.035	998.94	0.26
303.15	0.02931	0.035	999.99	0.26
303.15	0.03856	0.035	1000.98	0.26
303.15	0.04903	0.035	1002.1	0.26
303.15	0.06401	0.035	1003.68	0.26
308.15	0	0.035	995.28	0.26
308.15	0.00969	0.035	996.34	0.26
308.15	0.01954	0.035	997.4	0.26
308.15	0.02931	0.035	998.46	0.26
308.15	0.03856	0.035	999.45	0.26
308.15	0.04903	0.035	1000.55	0.26
308.15	0.06401	0.035	1002.12	0.26
313.15	0	0.035	993.38	0.26
313.15	0.00969	0.035	994.43	0.26
313.15	0.01954	0.035	995.49	0.26
313.15	0.02931	0.035	996.53	0.26
313.15	0.03856	0.035	997.51	0.26
313.15	0.04903	0.035	998.61	0.26
313.15	0.06401	0.035	1000.17	0.26
318.15	0	0.035	991.49	0.26
318.15	0.00969	0.035	992.54	0.26
318.15	0.01954	0.035	993.59	0.26
318.15	0.02931	0.035	994.63	0.26
318.15	0.03856	0.035	995.6	0.26
318.15	0.04903	0.035	996.69	0.26
318.15	0.06401	0.035	998.24	0.26
323.15	0	0.035	989.9	0.26
323.15	0.00969	0.035	990.94	0.26
323.15	0.01954	0.035	991.98	0.26
323.15	0.02931	0.035	993.02	0.26
323.15	0.03856	0.035	993.99	0.26
323.15	0.04903	0.035	995.08	0.26
323.15	0.06401	0.035	996.63	0.26
288.15	0	0.05	1001.12	0.26
288.15	0.00987	0.05	1002.23	0.26
288.15	0.01966	0.05	1003.33	0.26
288.15	0.02968	0.05	1004.44	0.26
288.15	0.03942	0.05	1005.52	0.26
288.15	0.04929	0.05	1006.6	0.26
288.15	0.06413	0.05	1008.22	0.26
293.15	0	0.05	999.79	0.26
293.15	0.00987	0.05	1000.9	0.26
293.15	0.01966	0.05	1001.98	0.26
293.15	0.02968	0.05	1003.09	0.26
293.15	0.03942	0.05	1004.15	0.26
293.15	0.04929	0.05	1005.22	0.26
293.15	0.06413	0.05	1006.82	0.26
298.15	0	0.05	998.88	0.26
298.15	0.00987	0.05	999.97	0.26
298.15	0.01966	0.05	1001.04	0.26
298.15	0.02968	0.05	1002.12	0.26
298.15	0.03942	0.05	1003.16	0.26
298.15	0.04929	0.05	1004.21	0.26
298.15	0.06413	0.05	1005.77	0.26
303.15	0	0.05	997.23	0.26
303.15	0.00987	0.05	998.31	0.26
303.15	0.01966	0.05	999.37	0.26
303.15	0.02968	0.05	1000.44	0.26
303.15	0.03942	0.05	1001.48	0.26
303.15	0.04929	0.05	1002.52	0.26
303.15	0.06413	0.05	1004.06	0.26
308.15	0	0.05	995.73	0.26
308.15	0.00987	0.05	996.79	0.26
308.15	0.01966	0.05	997.85	0.26
308.15	0.02968	0.05	998.91	0.26
308.15	0.03942	0.05	999.95	0.26
308.15	0.04929	0.05	1000.98	0.26
308.15	0.06413	0.05	1002.52	0.26
313.15	0	0.05	993.82	0.26
313.15	0.00987	0.05	994.88	0.26
313.15	0.01966	0.05	995.92	0.26
313.15	0.02968	0.05	996.97	0.26
313.15	0.03942	0.05	997.99	0.26
313.15	0.04929	0.05	999.02	0.26
313.15	0.06413	0.05	1000.56	0.26
318.15	0	0.05	991.94	0.26
318.15	0.00987	0.05	992.99	0.26
318.15	0.01966	0.05	994.03	0.26
318.15	0.02968	0.05	995.08	0.26
318.15	0.03942	0.05	996.09	0.26
318.15	0.04929	0.05	997.11	0.26
318.15	0.06413	0.05	998.64	0.26
323.15	0	0.05	990.42	0.26
323.15	0.00987	0.05	991.46	0.26
323.15	0.01966	0.05	992.48	0.26
323.15	0.02968	0.05	993.52	0.26
323.15	0.03942	0.05	994.51	0.26
323.15	0.04929	0.05	995.51	0.26
323.15	0.06413	0.05	997.01	0.26
288.15	0	0.075	1001.9	0.26
288.15	0.00984	0.075	1003	0.26
288.15	0.01974	0.075	1004.1	0.26
288.15	0.02968	0.075	1005.2	0.26
288.15	0.03947	0.075	1006.27	0.26
288.15	0.04933	0.075	1007.34	0.26
288.15	0.06435	0.075	1008.95	0.27
293.15	0	0.075	1000.52	0.26
293.15	0.00984	0.075	1001.62	0.26
293.15	0.01974	0.075	1002.7	0.26
293.15	0.02968	0.075	1003.78	0.26
293.15	0.03947	0.075	1004.84	0.26
293.15	0.04933	0.075	1005.91	0.26
293.15	0.06435	0.075	1007.51	0.27
298.15	0	0.075	999.63	0.26
298.15	0.00984	0.075	1000.7	0.26
298.15	0.01974	0.075	1001.78	0.26
298.15	0.02968	0.075	1002.84	0.26
298.15	0.03947	0.075	1003.89	0.26
298.15	0.04933	0.075	1004.93	0.26
298.15	0.06435	0.075	1006.5	0.26
303.15	0	0.075	997.96	0.26
303.15	0.00984	0.075	999.02	0.26
303.15	0.01974	0.075	1000.08	0.26
303.15	0.02968	0.075	1001.13	0.26
303.15	0.03947	0.075	1002.16	0.26
303.15	0.04933	0.075	1003.18	0.26
303.15	0.06435	0.075	1004.74	0.26
308.15	0	0.075	996.48	0.26
308.15	0.00984	0.075	997.52	0.26
308.15	0.01974	0.075	998.56	0.26
308.15	0.02968	0.075	999.6	0.26
308.15	0.03947	0.075	1000.61	0.26
308.15	0.04933	0.075	1001.62	0.26
308.15	0.06435	0.075	1003.15	0.26
313.15	0	0.075	994.55	0.26
313.15	0.00984	0.075	995.59	0.26
313.15	0.01974	0.075	996.62	0.26
313.15	0.02968	0.075	997.66	0.26
313.15	0.03947	0.075	998.67	0.26
313.15	0.04933	0.075	999.67	0.26
313.15	0.06435	0.075	1001.19	0.26
318.15	0	0.075	992.69	0.26
318.15	0.00984	0.075	993.72	0.26
318.15	0.01974	0.075	994.75	0.26
318.15	0.02968	0.075	995.77	0.26
318.15	0.03947	0.075	996.78	0.26
318.15	0.04933	0.075	997.78	0.26
318.15	0.06435	0.075	999.28	0.26
323.15	0	0.075	991.3	0.26
323.15	0.00984	0.075	992.32	0.26
323.15	0.01974	0.075	993.34	0.26
323.15	0.02968	0.075	994.35	0.26
323.15	0.03947	0.075	995.34	0.26
323.15	0.04933	0.075	996.33	0.26
323.15	0.06435	0.075	997.83	0.26

System: Ciprofloxacin hydrochloride + 2-aminoacetic acid + water; phases: Liquid
Fixed: Pressure, kPa = 100
Fixed: Frequency, MHz = 3
Property: Speed of sound, m/s (Liquid); method: Single path-length method
Temperature, K	Molality, mol/kg of Ciprofloxacin hydrochloride	Solvent: Molality, mol/kg of 2-aminoacetic acid	Speed of sound, m/s	uncertainty
288.15	0	0.01	1476.3	1.6
288.15	0.00987	0.01	1477.5	1.6
288.15	0.01978	0.01	1478.8	1.6
288.15	0.02983	0.01	1480.1	1.6
288.15	0.03978	0.01	1481.4	1.6
288.15	0.04969	0.01	1482.7	1.6
288.15	0.06432	0.01	1484.6	1.6
293.15	0	0.01	1486.1	1.6
293.15	0.00987	0.01	1487.4	1.6
293.15	0.01978	0.01	1488.7	1.6
293.15	0.02983	0.01	1490	1.6
293.15	0.03978	0.01	1491.3	1.6
293.15	0.04969	0.01	1492.6	1.6
293.15	0.06432	0.01	1494.5	1.6
298.15	0	0.01	1496.1	1.6
298.15	0.00987	0.01	1497.4	1.6
298.15	0.01978	0.01	1498.7	1.6
298.15	0.02983	0.01	1500	1.6
298.15	0.03978	0.01	1501.3	1.6
298.15	0.04969	0.01	1502.6	1.6
298.15	0.06432	0.01	1504.5	1.6
303.15	0	0.01	1507.6	1.6
303.15	0.00987	0.01	1508.9	1.6
303.15	0.01978	0.01	1510.2	1.6
303.15	0.02983	0.01	1511.5	1.6
303.15	0.03978	0.01	1512.8	1.6
303.15	0.04969	0.01	1514.2	1.6
303.15	0.06432	0.01	1516.1	1.6
308.15	0	0.01	1519	1.6
308.15	0.00987	0.01	1520.3	1.6
308.15	0.01978	0.01	1521.6	1.6
308.15	0.02983	0.01	1523	1.6
308.15	0.03978	0.01	1524.3	1.6
308.15	0.04969	0.01	1525.7	1.6
308.15	0.06432	0.01	1527.7	1.6
313.15	0	0.01	1525.9	1.6
313.15	0.00987	0.01	1527.2	1.6
313.15	0.01978	0.01	1528.6	1.6
313.15	0.02983	0.01	1529.9	1.6
313.15	0.03978	0.01	1531.3	1.6
313.15	0.04969	0.01	1532.6	1.6
313.15	0.06432	0.01	1534.6	1.6
318.15	0	0.01	1532.1	1.6
318.15	0.00987	0.01	1533.4	1.6
318.15	0.01978	0.01	1534.8	1.6
318.15	0.02983	0.01	1536.2	1.6
318.15	0.03978	0.01	1537.5	1.6
318.15	0.04969	0.01	1538.9	1.6
318.15	0.06432	0.01	1540.9	1.6
323.15	0	0.01	1539.4	1.6
323.15	0.00987	0.01	1540.7	1.6
323.15	0.01978	0.01	1542.1	1.6
323.15	0.02983	0.01	1543.4	1.6
323.15	0.03978	0.01	1544.8	1.6
323.15	0.04969	0.01	1546.2	1.6
323.15	0.06432	0.01	1548.2	1.6
288.15	0	0.02	1476.8	1.6
288.15	0.00991	0.02	1478.1	1.6
288.15	0.01973	0.02	1479.4	1.6
288.15	0.02976	0.02	1480.7	1.6
288.15	0.03968	0.02	1482	1.6
288.15	0.04953	0.02	1483.2	1.6
288.15	0.06384	0.02	1485.1	1.6
293.15	0	0.02	1486.9	1.6
293.15	0.00991	0.02	1488.2	1.6
293.15	0.01973	0.02	1489.4	1.6
293.15	0.02976	0.02	1490.8	1.6
293.15	0.03968	0.02	1492.1	1.6
293.15	0.04953	0.02	1493.3	1.6
293.15	0.06384	0.02	1495.2	1.6
298.15	0	0.02	1496.7	1.6
298.15	0.00991	0.02	1498	1.6
298.15	0.01973	0.02	1499.3	1.6
298.15	0.02976	0.02	1500.7	1.6
298.15	0.03968	0.02	1502	1.6
298.15	0.04953	0.02	1503.3	1.6
298.15	0.06384	0.02	1505.2	1.6
303.15	0	0.02	1508.2	1.6
303.15	0.00991	0.02	1509.5	1.6
303.15	0.01973	0.02	1510.8	1.6
303.15	0.02976	0.02	1512.2	1.6
303.15	0.03968	0.02	1513.5	1.6
303.15	0.04953	0.02	1514.9	1.6
303.15	0.06384	0.02	1516.8	1.6
308.15	0	0.02	1519.6	1.6
308.15	0.00991	0.02	1520.9	1.6
308.15	0.01973	0.02	1522.3	1.6
308.15	0.02976	0.02	1523.6	1.6
308.15	0.03968	0.02	1525	1.6
308.15	0.04953	0.02	1526.3	1.6
308.15	0.06384	0.02	1528.3	1.6
313.15	0	0.02	1526.5	1.6
313.15	0.00991	0.02	1527.9	1.6
313.15	0.01973	0.02	1529.2	1.6
313.15	0.02976	0.02	1530.6	1.6
313.15	0.03968	0.02	1531.9	1.6
313.15	0.04953	0.02	1533.3	1.6
313.15	0.06384	0.02	1535.3	1.6
318.15	0	0.02	1532.7	1.6
318.15	0.00991	0.02	1534	1.6
318.15	0.01973	0.02	1535.4	1.6
318.15	0.02976	0.02	1536.8	1.6
318.15	0.03968	0.02	1538.1	1.6
318.15	0.04953	0.02	1539.5	1.6
318.15	0.06384	0.02	1541.4	1.6
323.15	0	0.02	1540	1.6
323.15	0.00991	0.02	1541.4	1.6
323.15	0.01973	0.02	1542.7	1.6
323.15	0.02976	0.02	1544.1	1.6
323.15	0.03968	0.02	1545.5	1.6
323.15	0.04953	0.02	1546.9	1.6
323.15	0.06384	0.02	1548.8	1.6
288.15	0	0.035	1477.7	1.6
288.15	0.00969	0.035	1479	1.6
288.15	0.01954	0.035	1480.3	1.6
288.15	0.02931	0.035	1481.5	1.6
288.15	0.03856	0.035	1482.8	1.6
288.15	0.04903	0.035	1484.1	1.6
288.15	0.06401	0.035	1486.1	1.6
293.15	0	0.035	1487.8	1.6
293.15	0.00969	0.035	1489	1.6
293.15	0.01954	0.035	1490.3	1.6
293.15	0.02931	0.035	1491.6	1.6
293.15	0.03856	0.035	1492.8	1.6
293.15	0.04903	0.035	1494.2	1.6
293.15	0.06401	0.035	1496.2	1.6
298.15	0	0.035	1497.6	1.6
298.15	0.00969	0.035	1498.9	1.6
298.15	0.01954	0.035	1500.2	1.6
298.15	0.02931	0.035	1501.5	1.6
298.15	0.03856	0.035	1502.7	1.6
298.15	0.04903	0.035	1504.1	1.6
298.15	0.06401	0.035	1506.1	1.6
303.15	0	0.035	1509.1	1.6
303.15	0.00969	0.035	1510.4	1.6
303.15	0.01954	0.035	1511.7	1.6
303.15	0.02931	0.035	1513	1.6
303.15	0.03856	0.035	1514.3	1.6
303.15	0.04903	0.035	1515.7	1.6
303.15	0.06401	0.035	1517.7	1.6
308.15	0	0.035	1520.5	1.6
308.15	0.00969	0.035	1521.8	1.6
308.15	0.01954	0.035	1523.1	1.6
308.15	0.02931	0.035	1524.5	1.6
308.15	0.03856	0.035	1525.7	1.6
308.15	0.04903	0.035	1527.1	1.6
308.15	0.06401	0.035	1529.2	1.6
313.15	0	0.035	1527.4	1.6
313.15	0.00969	0.035	1528.7	1.6
313.15	0.01954	0.035	1530.1	1.6
313.15	0.02931	0.035	1531.4	1.6
313.15	0.03856	0.035	1532.6	1.6
313.15	0.04903	0.035	1534.1	1.6
313.15	0.06401	0.035	1536.1	1.6
318.15	0	0.035	1533.6	1.6
318.15	0.00969	0.035	1534.9	1.6
318.15	0.01954	0.035	1536.2	1.6
318.15	0.02931	0.035	1537.6	1.6
318.15	0.03856	0.035	1538.8	1.6
318.15	0.04903	0.035	1540.3	1.6
318.15	0.06401	0.035	1542.3	1.6
323.15	0	0.035	1541.5	1.6
323.15	0.00969	0.035	1542.8	1.6
323.15	0.01954	0.035	1544.2	1.6
323.15	0.02931	0.035	1545.5	1.6
323.15	0.03856	0.035	1546.8	1.6
323.15	0.04903	0.035	1548.2	1.6
323.15	0.06401	0.035	1550.3	1.6
288.15	0	0.05	1478.6	1.6
288.15	0.00987	0.05	1479.8	1.6
288.15	0.01966	0.05	1481.1	1.6
288.15	0.02968	0.05	1482.4	1.6
288.15	0.03942	0.05	1483.7	1.6
288.15	0.04929	0.05	1485	1.6
288.15	0.06413	0.05	1486.9	1.6
293.15	0	0.05	1488.7	1.6
293.15	0.00987	0.05	1490	1.6
293.15	0.01966	0.05	1491.3	1.6
293.15	0.02968	0.05	1492.6	1.6
293.15	0.03942	0.05	1493.9	1.6
293.15	0.04929	0.05	1495.2	1.6
293.15	0.06413	0.05	1497.1	1.6
298.15	0	0.05	1498.6	1.6
298.15	0.00987	0.05	1499.9	1.6
298.15	0.01966	0.05	1501.2	1.6
298.15	0.02968	0.05	1502.6	1.6
298.15	0.03942	0.05	1503.9	1.6
298.15	0.04929	0.05	1505.2	1.6
298.15	0.06413	0.05	1507.2	1.6
303.15	0	0.05	1510	1.6
303.15	0.00987	0.05	1511.4	1.6
303.15	0.01966	0.05	1512.7	1.6
303.15	0.02968	0.05	1514	1.6
303.15	0.03942	0.05	1515.4	1.6
303.15	0.04929	0.05	1516.7	1.6
303.15	0.06413	0.05	1518.8	1.6
308.15	0	0.05	1521.4	1.6
308.15	0.00987	0.05	1522.8	1.6
308.15	0.01966	0.05	1524.1	1.6
308.15	0.02968	0.05	1525.5	1.6
308.15	0.03942	0.05	1526.8	1.6
308.15	0.04929	0.05	1528.1	1.6
308.15	0.06413	0.05	1530.2	1.6
313.15	0	0.05	1528.3	1.6
313.15	0.00987	0.05	1529.7	1.6
313.15	0.01966	0.05	1531	1.6
313.15	0.02968	0.05	1532.4	1.6
313.15	0.03942	0.05	1533.7	1.6
313.15	0.04929	0.05	1535.1	1.6
313.15	0.06413	0.05	1537.1	1.6
318.15	0	0.05	1534.4	1.6
318.15	0.00987	0.05	1535.8	1.6
318.15	0.01966	0.05	1537.2	1.6
318.15	0.02968	0.05	1538.5	1.6
318.15	0.03942	0.05	1539.9	1.6
318.15	0.04929	0.05	1541.3	1.6
318.15	0.06413	0.05	1543.3	1.6
323.15	0	0.05	1542.5	1.6
323.15	0.00987	0.05	1543.9	1.6
323.15	0.01966	0.05	1545.2	1.6
323.15	0.02968	0.05	1546.6	1.6
323.15	0.03942	0.05	1548	1.6
323.15	0.04929	0.05	1549.4	1.6
323.15	0.06413	0.05	1551.5	1.6
288.15	0	0.075	1480.1	1.6
288.15	0.00984	0.075	1481.4	1.6
288.15	0.01974	0.075	1482.7	1.6
288.15	0.02968	0.075	1484	1.6
288.15	0.03947	0.075	1485.3	1.6
288.15	0.04933	0.075	1486.6	1.6
288.15	0.06435	0.075	1488.5	1.6
293.15	0	0.075	1490.1	1.6
293.15	0.00984	0.075	1491.4	1.6
293.15	0.01974	0.075	1492.7	1.6
293.15	0.02968	0.075	1494	1.6
293.15	0.03947	0.075	1495.3	1.6
293.15	0.04933	0.075	1496.6	1.6
293.15	0.06435	0.075	1498.6	1.6
298.15	0	0.075	1500.1	1.6
298.15	0.00984	0.075	1502.1	1.6
298.15	0.01974	0.075	1503.4	1.6
298.15	0.02968	0.075	1504.8	1.6
298.15	0.03947	0.075	1506.1	1.6
298.15	0.04933	0.075	1507.4	1.6
298.15	0.06435	0.075	1509.4	1.6
303.15	0	0.075	1511.6	1.6
303.15	0.00984	0.075	1514.4	1.6
303.15	0.01974	0.075	1515.7	1.6
303.15	0.02968	0.075	1517.1	1.6
303.15	0.03947	0.075	1518.4	1.6
303.15	0.04933	0.075	1519.8	1.6
303.15	0.06435	0.075	1521.9	1.6
308.15	0	0.075	1522.9	1.6
308.15	0.00984	0.075	1525	1.6
308.15	0.01974	0.075	1526.3	1.6
308.15	0.02968	0.075	1527.7	1.6
308.15	0.03947	0.075	1529.1	1.6
308.15	0.04933	0.075	1530.4	1.6
308.15	0.06435	0.075	1532.5	1.6
313.15	0	0.075	1529.8	1.6
313.15	0.00984	0.075	1534	1.6
313.15	0.01974	0.075	1535.3	1.6
313.15	0.02968	0.075	1536.7	1.6
313.15	0.03947	0.075	1538.1	1.6
313.15	0.04933	0.075	1539.5	1.6
313.15	0.06435	0.075	1541.6	1.6
318.15	0	0.075	1535.9	1.6
318.15	0.00984	0.075	1541.5	1.6
318.15	0.01974	0.075	1542.9	1.6
318.15	0.02968	0.075	1544.2	1.6
318.15	0.03947	0.075	1545.6	1.6
318.15	0.04933	0.075	1547	1.6
318.15	0.06435	0.075	1549.1	1.6
323.15	0	0.075	1543.8	1.6
323.15	0.00984	0.075	1547.6	1.6
323.15	0.01974	0.075	1549	1.6
323.15	0.02968	0.075	1550.4	1.6
323.15	0.03947	0.075	1551.8	1.6
323.15	0.04933	0.075	1553.2	1.6
323.15	0.06435	0.075	1555.3	1.6

System: Ciprofloxacin hydrochloride + 2-amino-3-methylpentanoic acid + water; phases: Liquid
Fixed: Pressure, kPa = 100
Property: Mass density, kg/m3 (Liquid); method: Vibrating tube method
Temperature, K	Molality, mol/kg of Ciprofloxacin hydrochloride	Solvent: Molality, mol/kg of 2-amino-3-methylpentanoic acid	Mass density, kg/m3	uncertainty
288.15	0	0.01	999.73	0.26
288.15	0.0098	0.01	1000.85	0.26
288.15	0.01976	0.01	1001.98	0.26
288.15	0.02961	0.01	1003.09	0.26
288.15	0.03939	0.01	1004.19	0.26
288.15	0.04936	0.01	1005.3	0.26
288.15	0.06399	0.01	1006.92	0.26
293.15	0	0.01	998.55	0.26
293.15	0.0098	0.01	999.66	0.26
293.15	0.01976	0.01	1000.79	0.26
293.15	0.02961	0.01	1001.89	0.26
293.15	0.03939	0.01	1002.98	0.26
293.15	0.04936	0.01	1004.09	0.26
293.15	0.06399	0.01	1005.7	0.26
298.15	0	0.01	997.39	0.26
298.15	0.0098	0.01	998.49	0.26
298.15	0.01976	0.01	999.6	0.26
298.15	0.02961	0.01	1000.69	0.26
298.15	0.03939	0.01	1001.76	0.26
298.15	0.04936	0.01	1002.84	0.26
298.15	0.06399	0.01	1004.4	0.26
303.15	0	0.01	996	0.26
303.15	0.0098	0.01	997.09	0.26
303.15	0.01976	0.01	998.19	0.26
303.15	0.02961	0.01	999.26	0.26
303.15	0.03939	0.01	1000.32	0.26
303.15	0.04936	0.01	1001.39	0.26
303.15	0.06399	0.01	1002.95	0.26
308.15	0	0.01	994.4	0.26
308.15	0.0098	0.01	995.48	0.26
308.15	0.01976	0.01	996.57	0.26
308.15	0.02961	0.01	997.64	0.26
308.15	0.03939	0.01	998.69	0.26
308.15	0.04936	0.01	999.75	0.26
308.15	0.06399	0.01	1001.3	0.26
313.15	0	0.01	992.58	0.26
313.15	0.0098	0.01	993.66	0.26
313.15	0.01976	0.01	994.74	0.26
313.15	0.02961	0.01	995.8	0.26
313.15	0.03939	0.01	996.85	0.26
313.15	0.04936	0.01	997.9	0.26
313.15	0.06399	0.01	999.44	0.26
318.15	0	0.01	990.58	0.26
318.15	0.0098	0.01	991.64	0.26
318.15	0.01976	0.01	992.72	0.26
318.15	0.02961	0.01	993.78	0.26
318.15	0.03939	0.01	994.82	0.26
318.15	0.04936	0.01	995.88	0.26
318.15	0.06399	0.01	997.42	0.26
323.15	0	0.01	988.3	0.26
323.15	0.0098	0.01	989.36	0.26
323.15	0.01976	0.01	990.43	0.26
323.15	0.02961	0.01	991.47	0.26
323.15	0.03939	0.01	992.51	0.26
323.15	0.04936	0.01	993.55	0.26
323.15	0.06399	0.01	995.07	0.26
288.15	0	0.02	999.95	0.26
288.15	0.00992	0.02	1001.08	0.26
288.15	0.01969	0.02	1002.18	0.26
288.15	0.02952	0.02	1003.28	0.26
288.15	0.03943	0.02	1004.39	0.26
288.15	0.04918	0.02	1005.46	0.26
288.15	0.0641	0.02	1007.11	0.26
293.15	0	0.02	998.78	0.26
293.15	0.00992	0.02	999.9	0.26
293.15	0.01969	0.02	1001	0.26
293.15	0.02952	0.02	1002.09	0.26
293.15	0.03943	0.02	1003.19	0.26
293.15	0.04918	0.02	1004.26	0.26
293.15	0.0641	0.02	1005.88	0.26
298.15	0	0.02	997.62	0.26
298.15	0.00992	0.02	998.74	0.26
298.15	0.01969	0.02	999.82	0.26
298.15	0.02952	0.02	1000.91	0.26
298.15	0.03943	0.02	1001.99	0.26
298.15	0.04918	0.02	1003.05	0.26
298.15	0.0641	0.02	1004.67	0.26
303.15	0	0.02	996.24	0.26
303.15	0.00992	0.02	997.33	0.26
303.15	0.01969	0.02	998.41	0.26
303.15	0.02952	0.02	999.48	0.26
303.15	0.03943	0.02	1000.56	0.26
303.15	0.04918	0.02	1001.61	0.26
303.15	0.0641	0.02	1003.2	0.26
308.15	0	0.02	994.64	0.26
308.15	0.00992	0.02	995.72	0.26
308.15	0.01969	0.02	996.79	0.26
308.15	0.02952	0.02	997.85	0.26
308.15	0.03943	0.02	998.91	0.26
308.15	0.04918	0.02	999.95	0.26
308.15	0.0641	0.02	1001.53	0.26
313.15	0	0.02	992.82	0.26
313.15	0.00992	0.02	993.9	0.26
313.15	0.01969	0.02	994.96	0.26
313.15	0.02952	0.02	996.01	0.26
313.15	0.03943	0.02	997.07	0.26
313.15	0.04918	0.02	998.1	0.26
313.15	0.0641	0.02	999.67	0.26
318.15	0	0.02	990.81	0.26
318.15	0.00992	0.02	991.88	0.26
318.15	0.01969	0.02	992.93	0.26
318.15	0.02952	0.02	993.98	0.26
318.15	0.03943	0.02	995.03	0.26
318.15	0.04918	0.02	996.06	0.26
318.15	0.0641	0.02	997.62	0.26
323.15	0	0.02	988.56	0.26
323.15	0.00992	0.02	989.63	0.26
323.15	0.01969	0.02	990.67	0.26
323.15	0.02952	0.02	991.71	0.26
323.15	0.03943	0.02	992.75	0.26
323.15	0.04918	0.02	993.77	0.26
323.15	0.0641	0.02	995.32	0.26
288.15	0	0.035	1000.25	0.26
288.15	0.00974	0.035	1001.35	0.26
288.15	0.01955	0.035	1002.46	0.26
288.15	0.02938	0.035	1003.56	0.26
288.15	0.03913	0.035	1004.64	0.26
288.15	0.04914	0.035	1005.74	0.26
288.15	0.06374	0.035	1007.34	0.26
293.15	0	0.035	999.14	0.26
293.15	0.00974	0.035	1000.23	0.26
293.15	0.01955	0.035	1001.32	0.26
293.15	0.02938	0.035	1002.4	0.26
293.15	0.03913	0.035	1003.47	0.26
293.15	0.04914	0.035	1004.55	0.26
293.15	0.06374	0.035	1006.12	0.26
298.15	0	0.035	997.97	0.26
298.15	0.00974	0.035	999.06	0.26
298.15	0.01955	0.035	1000.14	0.26
298.15	0.02938	0.035	1001.22	0.26
298.15	0.03913	0.035	1002.29	0.26
298.15	0.04914	0.035	1003.38	0.26
298.15	0.06374	0.035	1004.95	0.26
303.15	0	0.035	996.58	0.26
303.15	0.00974	0.035	997.66	0.26
303.15	0.01955	0.035	998.73	0.26
303.15	0.02938	0.035	999.79	0.26
303.15	0.03913	0.035	1000.84	0.26
303.15	0.04914	0.035	1001.92	0.26
303.15	0.06374	0.035	1003.47	0.26
308.15	0	0.035	994.98	0.26
308.15	0.00974	0.035	996.05	0.26
308.15	0.01955	0.035	997.11	0.26
308.15	0.02938	0.035	998.17	0.26
308.15	0.03913	0.035	999.21	0.26
308.15	0.04914	0.035	1000.27	0.26
308.15	0.06374	0.035	1001.8	0.26
313.15	0	0.035	993.17	0.26
313.15	0.00974	0.035	994.22	0.26
313.15	0.01955	0.035	995.28	0.26
313.15	0.02938	0.035	996.33	0.26
313.15	0.03913	0.035	997.36	0.26
313.15	0.04914	0.035	998.41	0.26
313.15	0.06374	0.035	999.93	0.26
318.15	0	0.035	991.16	0.26
318.15	0.00974	0.035	992.21	0.26
318.15	0.01955	0.035	993.25	0.26
318.15	0.02938	0.035	994.29	0.26
318.15	0.03913	0.035	995.31	0.26
318.15	0.04914	0.035	996.35	0.26
318.15	0.06374	0.035	997.86	0.26
323.15	0	0.035	989.05	0.26
323.15	0.00974	0.035	990.09	0.26
323.15	0.01955	0.035	991.12	0.26
323.15	0.02938	0.035	992.16	0.26
323.15	0.03913	0.035	993.17	0.26
323.15	0.04914	0.035	994.2	0.26
323.15	0.06374	0.035	995.7	0.26
288.15	0	0.05	1000.61	0.26
288.15	0.00955	0.05	1001.68	0.26
288.15	0.0192	0.05	1002.75	0.26
288.15	0.02893	0.05	1003.83	0.26
288.15	0.03886	0.05	1004.91	0.26
288.15	0.04876	0.05	1005.99	0.26
288.15	0.06268	0.05	1007.49	0.26
293.15	0	0.05	999.49	0.26
293.15	0.00955	0.05	1000.55	0.26
293.15	0.0192	0.05	1001.62	0.26
293.15	0.02893	0.05	1002.68	0.26
293.15	0.03886	0.05	1003.76	0.26
293.15	0.04876	0.05	1004.82	0.26
293.15	0.06268	0.05	1006.31	0.26
298.15	0	0.05	998.32	0.26
298.15	0.00955	0.05	999.37	0.26
298.15	0.0192	0.05	1000.43	0.26
298.15	0.02893	0.05	1001.48	0.26
298.15	0.03886	0.05	1002.54	0.26
298.15	0.04876	0.05	1003.6	0.26
298.15	0.06268	0.05	1005.07	0.26
303.15	0	0.05	996.93	0.26
303.15	0.00955	0.05	997.97	0.26
303.15	0.0192	0.05	999.02	0.26
303.15	0.02893	0.05	1000.07	0.26
303.15	0.03886	0.05	1001.13	0.26
303.15	0.04876	0.05	1002.18	0.26
303.15	0.06268	0.05	1003.64	0.26
308.15	0	0.05	995.33	0.26
308.15	0.00955	0.05	996.36	0.26
308.15	0.0192	0.05	997.4	0.26
308.15	0.02893	0.05	998.43	0.26
308.15	0.03886	0.05	999.48	0.26
308.15	0.04876	0.05	1000.51	0.26
308.15	0.06268	0.05	1001.96	0.26
313.15	0	0.05	993.52	0.26
313.15	0.00955	0.05	994.54	0.26
313.15	0.0192	0.05	995.57	0.26
313.15	0.02893	0.05	996.59	0.26
313.15	0.03886	0.05	997.63	0.26
313.15	0.04876	0.05	998.66	0.26
313.15	0.06268	0.05	1000.09	0.26
318.15	0	0.05	991.52	0.26
318.15	0.00955	0.05	992.53	0.26
318.15	0.0192	0.05	993.55	0.26
318.15	0.02893	0.05	994.57	0.26
318.15	0.03886	0.05	995.6	0.26
318.15	0.04876	0.05	996.62	0.26
318.15	0.06268	0.05	998.04	0.26
323.15	0	0.05	989.5	0.26
323.15	0.00955	0.05	990.51	0.26
323.15	0.0192	0.05	991.52	0.26
323.15	0.02893	0.05	992.53	0.26
323.15	0.03886	0.05	993.55	0.26
323.15	0.04876	0.05	994.56	0.26
323.15	0.06268	0.05	995.98	0.26
288.15	0	0.075	1001.22	0.26
288.15	0.00987	0.075	1002.32	0.26
288.15	0.01977	0.075	1003.42	0.26
288.15	0.02959	0.075	1004.49	0.26
288.15	0.03953	0.075	1005.57	0.26
288.15	0.04931	0.075	1006.62	0.26
288.15	0.06443	0.075	1008.24	0.26
293.15	0	0.075	1000.08	0.26
293.15	0.00987	0.075	1001.17	0.26
293.15	0.01977	0.075	1002.25	0.26
293.15	0.02959	0.075	1003.32	0.26
293.15	0.03953	0.075	1004.38	0.26
293.15	0.04931	0.075	1005.42	0.26
293.15	0.06443	0.075	1007.02	0.26
298.15	0	0.075	998.9	0.26
298.15	0.00987	0.075	999.98	0.26
298.15	0.01977	0.075	1001.06	0.26
298.15	0.02959	0.075	1002.12	0.26
298.15	0.03953	0.075	1003.18	0.26
298.15	0.04931	0.075	1004.22	0.26
298.15	0.06443	0.075	1005.82	0.26
303.15	0	0.075	997.51	0.26
303.15	0.00987	0.075	998.58	0.26
303.15	0.01977	0.075	999.64	0.26
303.15	0.02959	0.075	1000.69	0.26
303.15	0.03953	0.075	1001.74	0.26
303.15	0.04931	0.075	1002.77	0.26
303.15	0.06443	0.075	1004.34	0.26
308.15	0	0.075	995.92	0.26
308.15	0.00987	0.075	996.97	0.26
308.15	0.01977	0.075	998.02	0.26
308.15	0.02959	0.075	999.06	0.26
308.15	0.03953	0.075	1000.1	0.26
308.15	0.04931	0.075	1001.11	0.26
308.15	0.06443	0.075	1002.66	0.26
313.15	0	0.075	994.1	0.26
313.15	0.00987	0.075	995.15	0.26
313.15	0.01977	0.075	996.19	0.26
313.15	0.02959	0.075	997.21	0.26
313.15	0.03953	0.075	998.24	0.26
313.15	0.04931	0.075	999.24	0.26
313.15	0.06443	0.075	1000.78	0.26
318.15	0	0.075	992.1	0.26
318.15	0.00987	0.075	993.14	0.26
318.15	0.01977	0.075	994.17	0.26
318.15	0.02959	0.075	995.19	0.26
318.15	0.03953	0.075	996.21	0.26
318.15	0.04931	0.075	997.2	0.26
318.15	0.06443	0.075	998.72	0.26
323.15	0	0.075	990.19	0.26
323.15	0.00987	0.075	991.21	0.26
323.15	0.01977	0.075	992.23	0.26
323.15	0.02959	0.075	993.23	0.26
323.15	0.03953	0.075	994.23	0.26
323.15	0.04931	0.075	995.21	0.26
323.15	0.06443	0.075	996.71	0.26

System: Ciprofloxacin hydrochloride + 2-amino-3-methylpentanoic acid + water; phases: Liquid
Fixed: Pressure, kPa = 100
Fixed: Frequency, MHz = 3
Property: Speed of sound, m/s (Liquid); method: Single path-length method
Temperature, K	Molality, mol/kg of Ciprofloxacin hydrochloride	Solvent: Molality, mol/kg of 2-amino-3-methylpentanoic acid	Speed of sound, m/s	uncertainty
288.15	0	0.01	1471.2	1.6
288.15	0.0098	0.01	1472.5	1.6
288.15	0.01976	0.01	1473.8	1.6
288.15	0.02961	0.01	1475	1.6
288.15	0.03939	0.01	1476.3	1.6
288.15	0.04936	0.01	1477.6	1.6
288.15	0.06399	0.01	1479.5	1.6
293.15	0	0.01	1483.5	1.6
293.15	0.0098	0.01	1484.7	1.6
293.15	0.01976	0.01	1486	1.6
293.15	0.02961	0.01	1487.3	1.6
293.15	0.03939	0.01	1488.5	1.6
293.15	0.04936	0.01	1489.8	1.6
293.15	0.06399	0.01	1491.7	1.6
298.15	0	0.01	1495.6	1.6
298.15	0.0098	0.01	1496.9	1.6
298.15	0.01976	0.01	1498.2	1.6
298.15	0.02961	0.01	1499.5	1.6
298.15	0.03939	0.01	1500.8	1.6
298.15	0.04936	0.01	1502.1	1.6
298.15	0.06399	0.01	1504.1	1.6
303.15	0	0.01	1507.1	1.6
303.15	0.0098	0.01	1508.4	1.6
303.15	0.01976	0.01	1509.8	1.6
303.15	0.02961	0.01	1511.1	1.6
303.15	0.03939	0.01	1512.4	1.6
303.15	0.04936	0.01	1513.7	1.6
303.15	0.06399	0.01	1515.7	1.6
308.15	0	0.01	1518.5	1.6
308.15	0.0098	0.01	1519.8	1.6
308.15	0.01976	0.01	1521.2	1.6
308.15	0.02961	0.01	1522.5	1.6
308.15	0.03939	0.01	1523.8	1.6
308.15	0.04936	0.01	1525.2	1.6
308.15	0.06399	0.01	1527.2	1.6
313.15	0	0.01	1525.5	1.6
313.15	0.0098	0.01	1526.8	1.6
313.15	0.01976	0.01	1528.2	1.6
313.15	0.02961	0.01	1529.5	1.6
313.15	0.03939	0.01	1530.8	1.6
313.15	0.04936	0.01	1532.2	1.6
313.15	0.06399	0.01	1534.2	1.6
318.15	0	0.01	1531.7	1.6
318.15	0.0098	0.01	1533	1.6
318.15	0.01976	0.01	1534.4	1.6
318.15	0.02961	0.01	1535.7	1.6
318.15	0.03939	0.01	1537	1.6
318.15	0.04936	0.01	1538.4	1.6
318.15	0.06399	0.01	1540.4	1.6
323.15	0	0.01	1537.7	1.6
323.15	0.0098	0.01	1539	1.6
323.15	0.01976	0.01	1540.3	1.6
323.15	0.02961	0.01	1541.7	1.6
323.15	0.03939	0.01	1543	1.6
323.15	0.04936	0.01	1544.3	1.6
323.15	0.06399	0.01	1546.3	1.6
288.15	0	0.02	1472.1	1.6
288.15	0.00992	0.02	1473.4	1.6
288.15	0.01969	0.02	1474.6	1.6
288.15	0.02952	0.02	1475.9	1.6
288.15	0.03943	0.02	1477.2	1.6
288.15	0.04918	0.02	1478.4	1.6
288.15	0.0641	0.02	1480.4	1.6
293.15	0	0.02	1484	1.6
293.15	0.00992	0.02	1485.3	1.6
293.15	0.01969	0.02	1486.6	1.6
293.15	0.02952	0.02	1487.8	1.6
293.15	0.03943	0.02	1489.1	1.6
293.15	0.04918	0.02	1490.4	1.6
293.15	0.0641	0.02	1492.3	1.6
298.15	0	0.02	1496.2	1.6
298.15	0.00992	0.02	1497.5	1.6
298.15	0.01969	0.02	1498.8	1.6
298.15	0.02952	0.02	1500.1	1.6
298.15	0.03943	0.02	1501.4	1.6
298.15	0.04918	0.02	1502.7	1.6
298.15	0.0641	0.02	1504.6	1.6
303.15	0	0.02	1507.7	1.6
303.15	0.00992	0.02	1509	1.6
303.15	0.01969	0.02	1510.3	1.6
303.15	0.02952	0.02	1511.6	1.6
303.15	0.03943	0.02	1513	1.6
303.15	0.04918	0.02	1514.2	1.6
303.15	0.0641	0.02	1516.2	1.6
308.15	0	0.02	1519.1	1.6
308.15	0.00992	0.02	1520.5	1.6
308.15	0.01969	0.02	1521.8	1.6
308.15	0.02952	0.02	1523.1	1.6
308.15	0.03943	0.02	1524.4	1.6
308.15	0.04918	0.02	1525.7	1.6
308.15	0.0641	0.02	1527.7	1.6
313.15	0	0.02	1526.1	1.6
313.15	0.00992	0.02	1527.4	1.6
313.15	0.01969	0.02	1528.7	1.6
313.15	0.02952	0.02	1530	1.6
313.15	0.03943	0.02	1531.4	1.6
313.15	0.04918	0.02	1532.7	1.6
313.15	0.0641	0.02	1534.7	1.6
318.15	0	0.02	1532.3	1.6
318.15	0.00992	0.02	1533.6	1.6
318.15	0.01969	0.02	1534.9	1.6
318.15	0.02952	0.02	1536.3	1.6
318.15	0.03943	0.02	1537.6	1.6
318.15	0.04918	0.02	1538.9	1.6
318.15	0.0641	0.02	1540.9	1.6
323.15	0	0.02	1538.4	1.6
323.15	0.00992	0.02	1539.8	1.6
323.15	0.01969	0.02	1541.1	1.6
323.15	0.02952	0.02	1542.4	1.6
323.15	0.03943	0.02	1543.7	1.6
323.15	0.04918	0.02	1545.1	1.6
323.15	0.0641	0.02	1547.1	1.6
288.15	0	0.035	1473.4	1.6
288.15	0.00974	0.035	1474.7	1.6
288.15	0.01955	0.035	1475.9	1.6
288.15	0.02938	0.035	1477.2	1.6
288.15	0.03913	0.035	1478.5	1.6
288.15	0.04914	0.035	1479.7	1.6
288.15	0.06374	0.035	1481.6	1.6
293.15	0	0.035	1485	1.6
293.15	0.00974	0.035	1486.3	1.6
293.15	0.01955	0.035	1487.5	1.6
293.15	0.02938	0.035	1488.8	1.6
293.15	0.03913	0.035	1490.1	1.6
293.15	0.04914	0.035	1491.4	1.6
293.15	0.06374	0.035	1493.4	1.6
298.15	0	0.035	1497.1	1.6
298.15	0.00974	0.035	1498.4	1.6
298.15	0.01955	0.035	1499.7	1.6
298.15	0.02938	0.035	1501	1.6
298.15	0.03913	0.035	1502.3	1.6
298.15	0.04914	0.035	1503.6	1.6
298.15	0.06374	0.035	1505.5	1.6
303.15	0	0.035	1508.6	1.6
303.15	0.00974	0.035	1509.9	1.6
303.15	0.01955	0.035	1511.2	1.6
303.15	0.02938	0.035	1512.5	1.6
303.15	0.03913	0.035	1513.8	1.6
303.15	0.04914	0.035	1515.2	1.6
303.15	0.06374	0.035	1517.1	1.6
308.15	0	0.035	1520	1.6
308.15	0.00974	0.035	1521.3	1.6
308.15	0.01955	0.035	1522.6	1.6
308.15	0.02938	0.035	1523.9	1.6
308.15	0.03913	0.035	1525.2	1.6
308.15	0.04914	0.035	1526.6	1.6
308.15	0.06374	0.035	1528.6	1.6
313.15	0	0.035	1526.9	1.6
313.15	0.00974	0.035	1528.3	1.6
313.15	0.01955	0.035	1529.6	1.6
313.15	0.02938	0.035	1530.9	1.6
313.15	0.03913	0.035	1532.2	1.6
313.15	0.04914	0.035	1533.6	1.6
313.15	0.06374	0.035	1535.5	1.6
318.15	0	0.035	1533.1	1.6
318.15	0.00974	0.035	1534.4	1.6
318.15	0.01955	0.035	1535.8	1.6
318.15	0.02938	0.035	1537.1	1.6
318.15	0.03913	0.035	1538.4	1.6
318.15	0.04914	0.035	1539.8	1.6
318.15	0.06374	0.035	1541.8	1.6
323.15	0	0.035	1539.3	1.6
323.15	0.00974	0.035	1540.7	1.6
323.15	0.01955	0.035	1542	1.6
323.15	0.02938	0.035	1543.3	1.6
323.15	0.03913	0.035	1544.7	1.6
323.15	0.04914	0.035	1546	1.6
323.15	0.06374	0.035	1548	1.6
288.15	0	0.05	1474.8	1.6
288.15	0.00955	0.05	1476	1.6
288.15	0.0192	0.05	1477.3	1.6
288.15	0.02893	0.05	1478.5	1.6
288.15	0.03886	0.05	1479.8	1.6
288.15	0.04876	0.05	1481.1	1.6
288.15	0.06268	0.05	1482.9	1.6
293.15	0	0.05	1486.1	1.6
293.15	0.00955	0.05	1487.3	1.6
293.15	0.0192	0.05	1488.6	1.6
293.15	0.02893	0.05	1489.9	1.6
293.15	0.03886	0.05	1491.2	1.6
293.15	0.04876	0.05	1492.5	1.6
293.15	0.06268	0.05	1494.3	1.6
298.15	0	0.05	1498	1.6
298.15	0.00955	0.05	1499.3	1.6
298.15	0.0192	0.05	1500.6	1.6
298.15	0.02893	0.05	1501.9	1.6
298.15	0.03886	0.05	1503.2	1.6
298.15	0.04876	0.05	1504.5	1.6
298.15	0.06268	0.05	1506.4	1.6
303.15	0	0.05	1509.5	1.6
303.15	0.00955	0.05	1510.8	1.6
303.15	0.0192	0.05	1512.1	1.6
303.15	0.02893	0.05	1513.4	1.6
303.15	0.03886	0.05	1514.7	1.6
303.15	0.04876	0.05	1516.1	1.6
303.15	0.06268	0.05	1517.9	1.6
308.15	0	0.05	1520.9	1.6
308.15	0.00955	0.05	1522.2	1.6
308.15	0.0192	0.05	1523.5	1.6
308.15	0.02893	0.05	1524.8	1.6
308.15	0.03886	0.05	1526.1	1.6
308.15	0.04876	0.05	1527.5	1.6
308.15	0.06268	0.05	1529.4	1.6
313.15	0	0.05	1527.8	1.6
313.15	0.00955	0.05	1529.1	1.6
313.15	0.0192	0.05	1530.4	1.6
313.15	0.02893	0.05	1531.7	1.6
313.15	0.03886	0.05	1533.1	1.6
313.15	0.04876	0.05	1534.4	1.6
313.15	0.06268	0.05	1536.3	1.6
318.15	0	0.05	1533.9	1.6
318.15	0.00955	0.05	1535.2	1.6
318.15	0.0192	0.05	1536.6	1.6
318.15	0.02893	0.05	1537.9	1.6
318.15	0.03886	0.05	1539.2	1.6
318.15	0.04876	0.05	1540.6	1.6
318.15	0.06268	0.05	1542.5	1.6
323.15	0	0.05	1540	1.6
323.15	0.00955	0.05	1541.3	1.6
323.15	0.0192	0.05	1542.6	1.6
323.15	0.02893	0.05	1544	1.6
323.15	0.03886	0.05	1545.3	1.6
323.15	0.04876	0.05	1546.7	1.6
323.15	0.06268	0.05	1548.6	1.6
288.15	0	0.075	1475.9	1.6
288.15	0.00987	0.075	1477.1	1.6
288.15	0.01977	0.075	1478.4	1.6
288.15	0.02959	0.075	1479.7	1.6
288.15	0.03953	0.075	1481	1.6
288.15	0.04931	0.075	1482.3	1.6
288.15	0.06443	0.075	1484.3	1.6
293.15	0	0.075	1487.4	1.6
293.15	0.00987	0.075	1488.7	1.6
293.15	0.01977	0.075	1490	1.6
293.15	0.02959	0.075	1491.3	1.6
293.15	0.03953	0.075	1492.6	1.6
293.15	0.04931	0.075	1493.9	1.6
293.15	0.06443	0.075	1495.9	1.6
298.15	0	0.075	1499.5	1.6
298.15	0.00987	0.075	1500.8	1.6
298.15	0.01977	0.075	1502.1	1.6
298.15	0.02959	0.075	1503.4	1.6
298.15	0.03953	0.075	1504.7	1.6
298.15	0.04931	0.075	1506	1.6
298.15	0.06443	0.075	1508	1.6
303.15	0	0.075	1511	1.6
303.15	0.00987	0.075	1512.4	1.6
303.15	0.01977	0.075	1513.7	1.6
303.15	0.02959	0.075	1515	1.6
303.15	0.03953	0.075	1516.3	1.6
303.15	0.04931	0.075	1517.6	1.6
303.15	0.06443	0.075	1519.7	1.6
308.15	0	0.075	1522.3	1.6
308.15	0.00987	0.075	1523.7	1.6
308.15	0.01977	0.075	1525	1.6
308.15	0.02959	0.075	1526.3	1.6
308.15	0.03953	0.075	1527.7	1.6
308.15	0.04931	0.075	1529	1.6
308.15	0.06443	0.075	1531.1	1.6
313.15	0	0.075	1529.3	1.6
313.15	0.00987	0.075	1530.6	1.6
313.15	0.01977	0.075	1531.9	1.6
313.15	0.02959	0.075	1533.3	1.6
313.15	0.03953	0.075	1534.6	1.6
313.15	0.04931	0.075	1536	1.6
313.15	0.06443	0.075	1538.1	1.6
318.15	0	0.075	1535.3	1.6
318.15	0.00987	0.075	1536.7	1.6
318.15	0.01977	0.075	1538	1.6
318.15	0.02959	0.075	1539.4	1.6
318.15	0.03953	0.075	1540.7	1.6
318.15	0.04931	0.075	1542.1	1.6
318.15	0.06443	0.075	1544.2	1.6
323.15	0	0.075	1541.1	1.6
323.15	0.00987	0.075	1542.5	1.6
323.15	0.01977	0.075	1543.9	1.6
323.15	0.02959	0.075	1545.2	1.6
323.15	0.03953	0.075	1546.6	1.6
323.15	0.04931	0.075	1548	1.6
323.15	0.06443	0.075	1550.1	1.6

System: 2-aminoacetic acid + water; phases: Liquid
Fixed: Pressure, kPa = 100
Property: Mass density, kg/m3 (Liquid); method: Vibrating tube method
Temperature, K	Molality, mol/kg of 2-aminoacetic acid	Mass density, kg/m3	uncertainty
288.15	0.01	999.87	0.13
293.15	0.01	998.63	0.13
298.15	0.01	997.68	0.13
303.15	0.01	996.06	0.13
308.15	0.01	994.53	0.13
313.15	0.01	992.64	0.13
318.15	0.01	990.75	0.13
323.15	0.01	988.98	0.13
288.15	0.02	1000.18	0.13
293.15	0.02	998.92	0.13
298.15	0.02	997.98	0.13
303.15	0.02	996.35	0.13
308.15	0.02	994.83	0.13
313.15	0.02	992.94	0.13
318.15	0.02	991.05	0.13
323.15	0.02	989.4	0.13
288.15	0.035	1000.65	0.13
293.15	0.035	999.36	0.13
298.15	0.035	998.43	0.13
303.15	0.035	996.79	0.13
308.15	0.035	995.28	0.13
313.15	0.035	993.38	0.13
318.15	0.035	991.49	0.13
323.15	0.035	989.9	0.13
288.15	0.05	1001.12	0.13
293.15	0.05	999.79	0.13
298.15	0.05	998.88	0.13
303.15	0.05	997.23	0.13
308.15	0.05	995.73	0.13
313.15	0.05	993.82	0.13
318.15	0.05	991.94	0.13
323.15	0.05	990.42	0.13
288.15	0.075	1001.9	0.13
293.15	0.075	1000.52	0.13
298.15	0.075	999.63	0.13
303.15	0.075	997.96	0.13
308.15	0.075	996.48	0.13
313.15	0.075	994.55	0.13
318.15	0.075	992.69	0.13
323.15	0.075	991.3	0.13

System: 2-aminoacetic acid + water; phases: Liquid
Fixed: Pressure, kPa = 100
Fixed: Frequency, MHz = 3
Property: Speed of sound, m/s (Liquid); method: Single path-length method
Temperature, K	Molality, mol/kg of 2-aminoacetic acid	Speed of sound, m/s	uncertainty
288.15	0.01	1476.3	1.2
293.15	0.01	1486.1	1.2
298.15	0.01	1496.1	1.2
303.15	0.01	1507.6	1.2
308.15	0.01	1519	1.2
313.15	0.01	1525.9	1.2
318.15	0.01	1532.1	1.2
323.15	0.01	1539.4	1.2
288.15	0.02	1476.8	1.2
293.15	0.02	1486.9	1.2
298.15	0.02	1496.7	1.2
303.15	0.02	1508.2	1.2
308.15	0.02	1519.6	1.2
313.15	0.02	1526.5	1.2
318.15	0.02	1532.7	1.2
323.15	0.02	1540	1.2
288.15	0.035	1477.7	1.2
293.15	0.035	1487.8	1.2
298.15	0.035	1497.6	1.2
303.15	0.035	1509.1	1.2
308.15	0.035	1520.5	1.2
313.15	0.035	1527.4	1.2
318.15	0.035	1533.6	1.2
323.15	0.035	1541.5	1.2
288.15	0.05	1478.6	1.2
293.15	0.05	1488.7	1.2
298.15	0.05	1498.6	1.2
303.15	0.05	1510	1.2
308.15	0.05	1521.4	1.2
313.15	0.05	1528.3	1.2
318.15	0.05	1534.4	1.2
323.15	0.05	1542.5	1.2
288.15	0.075	1480.1	1.2
293.15	0.075	1490.1	1.2
298.15	0.075	1500.1	1.2
303.15	0.075	1511.6	1.2
308.15	0.075	1522.9	1.2
313.15	0.075	1529.8	1.2
318.15	0.075	1535.9	1.2
323.15	0.075	1543.8	1.2

System: 2-amino-3-methylpentanoic acid + water; phases: Liquid
Fixed: Pressure, kPa = 100
Property: Mass density, kg/m3 (Liquid); method: Vibrating tube method
Temperature, K	Molality, mol/kg of 2-amino-3-methylpentanoic acid	Mass density, kg/m3	uncertainty
288.15	0.01	999.73	0.13
293.15	0.01	998.55	0.13
298.15	0.01	997.39	0.13
303.15	0.01	996	0.13
308.15	0.01	994.4	0.13
313.15	0.01	992.58	0.13
318.15	0.01	990.58	0.13
323.15	0.01	988.3	0.13
288.15	0.02	999.95	0.13
293.15	0.02	998.78	0.13
298.15	0.02	997.62	0.13
303.15	0.02	996.24	0.13
308.15	0.02	994.64	0.13
313.15	0.02	992.82	0.13
318.15	0.02	990.81	0.13
323.15	0.02	988.56	0.13
288.15	0.035	1000.25	0.13
293.15	0.035	999.14	0.13
298.15	0.035	997.97	0.13
303.15	0.035	996.58	0.13
308.15	0.035	994.98	0.13
313.15	0.035	993.17	0.13
318.15	0.035	991.16	0.13
323.15	0.035	989.05	0.13
288.15	0.05	1000.61	0.13
293.15	0.05	999.49	0.13
298.15	0.05	998.32	0.13
303.15	0.05	996.93	0.13
308.15	0.05	995.33	0.13
313.15	0.05	993.52	0.13
318.15	0.05	991.52	0.13
323.15	0.05	989.5	0.13
288.15	0.075	1001.22	0.13
293.15	0.075	1000.08	0.13
298.15	0.075	998.9	0.13
303.15	0.075	997.51	0.13
308.15	0.075	995.92	0.13
313.15	0.075	994.1	0.13
318.15	0.075	992.1	0.13
323.15	0.075	990.19	0.13

System: 2-amino-3-methylpentanoic acid + water; phases: Liquid
Fixed: Pressure, kPa = 100
Fixed: Frequency, MHz = 3
Property: Speed of sound, m/s (Liquid); method: Single path-length method
Temperature, K	Molality, mol/kg of 2-amino-3-methylpentanoic acid	Speed of sound, m/s	uncertainty
288.15	0.01	1471.2	4
293.15	0.01	1483.5	4
298.15	0.01	1495.6	4
303.15	0.01	1507.1	4
308.15	0.01	1518.5	4
313.15	0.01	1525.5	4
318.15	0.01	1531.7	4
323.15	0.01	1537.7	4
288.15	0.02	1472.1	4
293.15	0.02	1484	4
298.15	0.02	1496.2	4
303.15	0.02	1507.7	4
308.15	0.02	1519.1	4
313.15	0.02	1526.1	4
318.15	0.02	1532.3	4
323.15	0.02	1538.4	4
288.15	0.035	1473.4	4
293.15	0.035	1485	4
298.15	0.035	1497.1	4
303.15	0.035	1508.6	4
308.15	0.035	1520	4
313.15	0.035	1526.9	4
318.15	0.035	1533.1	4
323.15	0.035	1539.3	4
288.15	0.05	1474.8	4
293.15	0.05	1486.1	4
298.15	0.05	1498	4
303.15	0.05	1509.5	4
308.15	0.05	1520.9	4
313.15	0.05	1527.8	4
318.15	0.05	1533.9	4
323.15	0.05	1540	4
288.15	0.075	1475.9	4
293.15	0.075	1487.4	4
298.15	0.075	1499.5	4
303.15	0.075	1511	4
308.15	0.075	1522.3	4
313.15	0.075	1529.3	4
318.15	0.075	1535.3	4
323.15	0.075	1541.1	4
